0:0:0
     RDKit          3D

 88 96  0  0  1  0  0  0  0  0999 V2000
  -29.8020  -21.8400   18.8000 C   0  0  0  0  0  2  0  0  0  0  0  0
  -29.0970  -21.8820   19.9250 C   0  0  0  0  0  3  0  0  0  0  0  0
  -31.8790  -20.5930   19.3500 C   0  0  0  0  0  1  0  0  0  0  0  0
  -30.4350  -20.6630   19.1440 N   0  0  0  0  0  0  0  0  0  0  0  0
  -29.6620  -20.5670   20.3450 N   0  0  0  0  0  0  0  0  0  0  0  0
  -28.6580  -23.2940   20.6550 C   0  0  0  0  0  3  0  0  0  0  0  0
  -28.3390  -24.7270   19.8080 C   0  0  0  0  0  3  0  0  0  0  0  0
  -28.2950  -26.2080   20.3090 O   0  0  0  0  0  0  0  0  0  0  0  0
  -24.6180  -31.8600   23.2330 C   0  0  0  0  0  0  0  0  0  0  0  0
  -27.2130  -27.1580   20.1940 C   0  0  0  0  0  0  0  0  0  0  0  0
  -23.4160  -30.4610   21.5950 C   0  0  0  0  0  3  0  0  0  0  0  0
  -24.8700  -28.8900   20.1630 C   0  0  0  0  0  0  0  0  0  0  0  0
  -25.9680  -30.7370   21.4210 C   0  0  0  0  0  2  0  0  0  0  0  0
  -26.0460  -29.3440   20.7710 C   0  0  0  0  0  0  0  0  0  0  0  0
  -27.2130  -28.4910   20.7710 C   0  0  0  0  0  3  0  0  0  0  0  0
  -26.0080  -26.8060   19.5410 C   0  0  0  0  0  3  0  0  0  0  0  0
  -24.8650  -27.6360   19.5340 C   0  0  0  0  0  3  0  0  0  0  0  0
  -23.6370  -29.7810   20.2170 C   0  0  0  0  0  2  0  0  0  0  0  0
  -24.6870  -31.0410   22.1390 N   0  0  0  0  0  0  0  0  0  0  0  0
  -23.5320  -32.1410   23.7640 O   0  0  0  0  0  0  0  0  0  0  0  0
  -22.7410  -29.4540   22.5590 C   0  0  0  0  0  0  0  0  0  0  0  0
  -21.4120  -29.2830   22.4400 N   0  0  0  0  0  0  0  0  0  0  0  0
  -23.4160  -28.8280   23.3800 O   0  0  0  0  0  0  0  0  0  0  0  0
  -20.9220  -29.8380   21.7520 H   0  0  0  0  0  0  0  0  0  0  0  0
  -18.0360  -28.0750   22.9480 C   0  0  0  0  0  0  0  0  0  0  0  0
  -20.5950  -28.3440   23.2130 C   0  0  0  0  0  3  0  0  0  0  0  0
  -20.7000  -26.9110   22.6420 C   0  0  0  0  0  2  0  0  0  0  0  0
  -19.5980  -26.5830   21.6290 C   0  0  0  0  0  2  0  0  0  0  0  0
  -18.2160  -26.7250   22.2740 C   0  0  0  0  0  2  0  0  0  0  0  0
  -19.1540  -28.8420   23.3750 C   0  0  0  0  0  0  0  0  0  0  0  0
  -18.9290  -30.1030   23.9690 C   0  0  0  0  0  3  0  0  0  0  0  0
  -17.6230  -30.5980   24.1390 C   0  0  0  0  0  3  0  0  0  0  0  0
  -16.5200  -29.8290   23.7270 C   0  0  0  0  0  3  0  0  0  0  0  0
  -16.7280  -28.5700   23.1360 C   0  0  0  0  0  3  0  0  0  0  0  0
  -25.8950  -32.4990   23.8580 C   0  0  0  0  0  3  0  0  0  0  0  0
  -26.4030  -31.7360   25.1440 C   0  0  1  0  0  0  0  0  0  0  0  0
  -25.3080  -31.5110   26.2120 C   0  0  0  0  0  1  0  0  0  0  0  0
  -26.9820  -30.3520   24.7680 C   0  0  0  0  0  1  0  0  0  0  0  0
  -27.5550  -32.5310   25.8010 C   0  0  0  0  0  1  0  0  0  0  0  0
  -25.5820  -33.9000   24.1830 N   0  0  0  0  0  0  0  0  0  0  0  0
  -25.9150  -34.9530   23.4240 C   0  0  0  0  0  0  0  0  0  0  0  0
  -26.5820  -34.8460   22.3910 O   0  0  0  0  0  0  0  0  0  0  0  0
  -24.9850  -34.0580   24.9810 H   0  0  0  0  0  0  0  0  0  0  0  0
  -24.1900  -36.7540   23.0750 C   0  0  0  0  0  1  0  0  0  0  0  0
  -25.4330  -36.3440   23.8830 C   0  0  0  0  0  3  0  0  0  0  0  0
  -27.5710  -37.2280   24.7050 C   0  0  0  0  0  1  0  0  0  0  0  0
  -26.4660  -37.3950   23.7640 N   0  0  0  0  0  0  0  0  0  0  0  0
  -26.0620  -38.3160   23.9090 H   0  0  0  0  0  0  0  0  0  0  0  0
  -29.1760  -19.0780   20.4940 C   0  0  0  0  0  3  0  0  0  0  0  0
  -30.2140  -17.7340   20.4330 C   0  0  0  0  0  3  0  0  0  0  0  0
  -30.5450  -14.9970   20.3050 C   0  0  0  0  0  0  0  0  0  0  0  0
  -30.3920  -12.6560   19.3310 C   0  0  0  0  0  2  0  0  0  0  0  0
  -29.4500  -12.6300   18.1060 C   0  0  0  0  0  2  0  0  0  0  0  0
  -27.9910  -12.4080   18.5490 C   0  0  0  0  0  2  0  0  0  0  0  0
  -27.5950  -13.3120   19.7440 C   0  0  0  0  0  3  0  0  0  0  0  0
  -28.6640  -13.3310   20.8570 C   0  0  0  0  0  2  0  0  0  0  0  0
  -29.9280  -13.7470   20.2380 N   0  0  0  0  0  0  0  0  0  0  0  0
  -31.7420  -15.0460   20.0090 O   0  0  0  0  0  0  0  0  0  0  0  0
  -29.8030  -16.1990   20.5010 N   0  0  0  0  0  0  0  0  0  0  0  0
  -28.8260  -16.0440   20.7010 H   0  0  0  0  0  0  0  0  0  0  0  0
  -25.2190  -13.8680   20.5110 C   0  0  0  0  0  0  0  0  0  0  0  0
  -24.1650  -13.0850   20.8940 C   0  0  0  0  0  0  0  0  0  0  0  0
  -24.6390  -11.7370   20.8530 C   0  0  0  0  0  0  0  0  0  0  0  0
  -26.2650  -12.9980   20.2570 N   0  0  0  0  0  0  0  0  0  0  0  0
  -25.9270  -11.7110   20.5310 N   0  0  0  0  0  0  0  0  0  0  0  0
  -23.9220  -10.4690   21.0460 C   0  0  0  0  0  0  0  0  0  0  0  0
  -24.3650   -9.5000   21.9720 C   0  0  0  0  0  3  0  0  0  0  0  0
  -23.6440   -8.3000   22.1520 C   0  0  0  0  0  3  0  0  0  0  0  0
  -22.4650   -8.0600   21.4070 C   0  0  0  0  0  0  0  0  0  0  0  0
  -22.0420   -9.0180   20.4700 C   0  0  0  0  0  3  0  0  0  0  0  0
  -22.7630  -10.2090   20.2860 C   0  0  0  0  0  3  0  0  0  0  0  0
  -21.7150   -6.9120   21.4980 O   0  0  0  0  0  0  0  0  0  0  0  0
  -21.6820   -6.1630   22.6470 C   0  0  0  0  0  0  0  0  0  0  0  0
  -21.2620   -6.7080   23.8800 C   0  0  0  0  0  3  0  0  0  0  0  0
  -21.1730   -5.8860   25.0210 C   0  0  0  0  0  3  0  0  0  0  0  0
  -21.4970   -4.5190   24.9300 C   0  0  0  0  0  0  0  0  0  0  0  0
  -21.9090   -3.9730   23.7040 C   0  0  0  0  0  3  0  0  0  0  0  0
  -21.9970   -4.7920   22.5640 C   0  0  0  0  0  0  0  0  0  0  0  0
  -22.3760   -4.2560   21.3790 F   0  0  0  0  0  0  0  0  0  0  0  0
  -21.4050   -3.7270   26.0250 F   0  0  0  0  0  0  0  0  0  0  0  0
  -22.7680  -13.5520   21.1760 C   0  0  0  0  0  0  0  0  0  0  0  0
  -22.0500  -12.8480   22.0440 N   0  0  0  0  0  0  0  0  0  0  0  0
  -22.3200  -14.5760   20.6620 O   0  0  0  0  0  0  0  0  0  0  0  0
  -22.4230  -12.0180   22.4830 H   0  0  0  0  0  0  0  0  0  0  0  0
  -21.1110  -13.1410   22.2720 H   0  0  0  0  0  0  0  0  0  0  0  0
  -25.3660  -15.2410   20.3290 N   0  0  0  0  0  0  0  0  0  0  0  0
  -24.5800  -15.8760   20.4130 H   0  0  0  0  0  0  0  0  0  0  0  0
  -26.1750  -15.6780   19.9070 H   0  0  0  0  0  0  0  0  0  0  0  0
  1  4  1  0
  1  2  1  0
  2  5  1  0
  2  6  1  0
  4  3  1  0
  4  5  1  0
  5 49  1  0
  7  8  1  0
  7  6  2  0
  9 20  2  0
 10  8  1  0
 10 15  1  0
 11 19  1  0
 11 21  1  0
 12 18  1  0
 12 14  1  0
 13 19  1  0
 14 13  1  0
 15 14  2  0
 16 10  2  0
 17 16  1  0
 17 12  2  0
 18 11  1  0
 19  9  1  0
 21 23  2  0
 22 21  1  0
 24 22  1  0
 25 34  2  0
 25 30  1  0
 26 22  1  0
 26 30  1  0
 27 26  1  0
 28 29  1  0
 28 27  1  0
 29 25  1  0
 30 31  2  0
 31 32  1  0
 33 32  2  0
 34 33  1  0
 35  9  1  0
 35 40  1  0
 35 36  1  0
 36 39  1  1
 36 37  1  0
 38 36  1  0
 40 43  1  0
 41 45  1  0
 41 40  1  0
 42 41  2  0
 45 44  1  0
 47 45  1  0
 47 48  1  0
 47 46  1  0
 50 49  2  0
 50 59  1  0
 51 59  1  0
 52 57  1  0
 53 54  1  0
 53 52  1  0
 55 54  1  0
 55 64  1  0
 55 56  1  0
 57 51  1  0
 57 56  1  0
 58 51  2  0
 59 60  1  0
 61 62  2  0
 62 81  1  0
 63 62  1  0
 63 66  1  0
 64 61  1  0
 64 65  1  0
 65 63  2  0
 66 67  1  0
 67 68  2  0
 69 72  1  0
 69 68  1  0
 70 69  2  0
 71 70  1  0
 71 66  2  0
 72 73  1  0
 73 74  1  0
 74 75  2  0
 76 75  1  0
 76 80  1  0
 77 76  2  0
 78 73  2  0
 78 77  1  0
 79 78  1  0
 81 82  1  0
 82 85  1  0
 82 84  1  0
 83 81  2  0
 86 87  1  0
 86 61  1  0
 88 86  1  0
M  ISO  4   7 101   8 101  51 100  59 100
M  END
>  <TORSDO>  (1) 
F 20

>  <SCORE>  (1) 
-15.309

>  <name>  (1) 
0

>  <ligand_id>  (1) 
0

>  <original_smiles>  (1) 
[H]c1c([H])c([H])c2c(c1[H])C([H])([H])C([H])([H])C([H])([H])C2([H])N([H])C(=O)C1([H])N(C(=O)C([H])(N([H])C(=O)C([H])(N([H])C([H])([H])[H])C([H])([H])[H])C(C([H])([H])[H])(C([H])([H])[H])C([H])([H])[H])C([H])([H])c2c([H])c(OC([H])([H])C([H])([H])c3c([H])n(C([H])([H])[H])n3C([H])([H])C([H])([H])N([H])C(=O)N3C([H])([H])C([H])([H])C([H])([H])C([H])(n4nc(-c5c([H])c([H])c(Oc6c([H])c([H])c(F)c([H])c6F)c([H])c5[H])c(C(=O)N([H])[H])c4N([H])[H])C3([H])[H])c([H])c([H])c2C1([H])[H]

>  <smiles>  (1) 
[H]c1c([H])c([H])c2c(c1[H])C([H])([H])C([H])([H])C([H])([H])C2([H])N([H])C(=O)C1([H])N(C(=O)C([H])(N([H])C(=O)C([H])(N([H])C([H])([H])[H])C([H])([H])[H])C(C([H])([H])[H])(C([H])([H])[H])C([H])([H])[H])C([H])([H])c2c([H])c(OC([H])([H])C([H])([H])c3c([H])n(C([H])([H])[H])n3C([H])([H])C([H])([H])N([H])C(=O)N3C([H])([H])C([H])([H])C([H])([H])C([H])(n4nc(-c5c([H])c([H])c(Oc6c([H])c([H])c(F)c([H])c6F)c([H])c5[H])c(C(=O)N([H])[H])c4N([H])[H])C3([H])[H])c([H])c([H])c2C1([H])[H]

$$$$
1:0:0
     RDKit          3D

 95103  0  0  1  0  0  0  0  0999 V2000
  -26.7800  -21.2160   20.0240 C   0  0  0  0  0  2  0  0  0  0  0  0
  -26.8720  -21.5450   17.5620 C   0  0  0  0  0  1  0  0  0  0  0  0
  -26.9400  -22.1930   18.8960 N   0  0  2  0  0  4  0  0  0  0  0  0
  -26.0790  -22.7210   18.9370 H   0  0  0  0  0  0  0  0  0  0  0  0
  -28.0180  -23.2280   18.9680 C   0  0  0  0  0  2  0  0  0  0  0  0
  -27.5130  -24.6450   19.3600 C   0  0  0  0  0  2  0  0  0  0  0  0
  -27.9160  -25.7410   18.3300 C   0  0  0  0  0  2  0  0  0  0  0  0
  -28.0040  -27.0600   18.8760 O   0  0  0  0  0  0  0  0  0  0  0  0
  -24.6860  -31.5580   23.2420 C   0  0  0  0  0  0  0  0  0  0  0  0
  -26.8560  -27.7920   19.0850 C   0  0  0  0  0  0  0  0  0  0  0  0
  -23.2850  -30.5430   21.4730 C   0  0  0  0  0  3  0  0  0  0  0  0
  -24.5400  -29.3200   19.6250 C   0  0  0  0  0  0  0  0  0  0  0  0
  -25.7930  -30.8840   21.1180 C   0  0  0  0  0  2  0  0  0  0  0  0
  -25.7630  -29.6770   20.2050 C   0  0  0  0  0  0  0  0  0  0  0  0
  -26.9210  -28.9100   19.9460 C   0  0  0  0  0  3  0  0  0  0  0  0
  -25.6220  -27.4770   18.4730 C   0  0  0  0  0  3  0  0  0  0  0  0
  -24.4660  -28.2240   18.7500 C   0  0  0  0  0  3  0  0  0  0  0  0
  -23.3370  -30.1640   19.9700 C   0  0  0  0  0  2  0  0  0  0  0  0
  -24.6100  -31.0010   21.9990 N   0  0  0  0  0  0  0  0  0  0  0  0
  -23.6690  -31.7310   23.9260 O   0  0  0  0  0  0  0  0  0  0  0  0
  -22.6950  -29.3580   22.2650 C   0  0  0  0  0  0  0  0  0  0  0  0
  -21.3650  -29.1820   22.1810 N   0  0  0  0  0  0  0  0  0  0  0  0
  -23.4260  -28.6000   22.9100 O   0  0  0  0  0  0  0  0  0  0  0  0
  -20.8410  -29.8480   21.6310 H   0  0  0  0  0  0  0  0  0  0  0  0
  -18.0390  -27.8200   22.5410 C   0  0  0  0  0  0  0  0  0  0  0  0
  -20.5920  -28.1130   22.8090 C   0  0  0  0  0  3  0  0  0  0  0  0
  -20.7250  -26.7880   22.0220 C   0  0  0  0  0  2  0  0  0  0  0  0
  -19.6080  -26.5760   20.9930 C   0  0  0  0  0  2  0  0  0  0  0  0
  -18.2370  -26.5910   21.6710 C   0  0  0  0  0  2  0  0  0  0  0  0
  -19.1440  -28.5430   23.0650 C   0  0  0  0  0  0  0  0  0  0  0  0
  -18.9010  -29.7000   23.8410 C   0  0  0  0  0  3  0  0  0  0  0  0
  -17.5860  -30.1280   24.1010 C   0  0  0  0  0  3  0  0  0  0  0  0
  -16.4970  -29.3960   23.5940 C   0  0  0  0  0  3  0  0  0  0  0  0
  -16.7260  -28.2470   22.8170 C   0  0  0  0  0  3  0  0  0  0  0  0
  -26.0450  -32.0300   23.8440 C   0  0  0  0  0  3  0  0  0  0  0  0
  -25.8320  -33.3670   24.4130 N   0  0  0  0  0  0  0  0  0  0  0  0
  -26.2060  -34.5120   23.8260 C   0  0  0  0  0  0  0  0  0  0  0  0
  -26.8400  -34.5470   22.7690 O   0  0  0  0  0  0  0  0  0  0  0  0
  -25.2720  -33.4130   25.2530 H   0  0  0  0  0  0  0  0  0  0  0  0
  -24.6030  -36.4470   23.8230 C   0  0  0  0  0  1  0  0  0  0  0  0
  -25.8180  -35.8250   24.5280 C   0  0  0  0  0  3  0  0  0  0  0  0
  -28.0090  -36.4100   25.4650 C   0  0  0  0  0  1  0  0  0  0  0  0
  -26.9190  -36.8100   24.5810 N   0  0  0  0  0  0  0  0  0  0  0  0
  -26.5780  -37.7150   24.8930 H   0  0  0  0  0  0  0  0  0  0  0  0
  -26.6200  -31.0420   24.9320 C   0  0  1  0  0  0  0  0  0  0  0  0
  -25.6070  -30.6800   26.0420 C   0  0  0  0  0  1  0  0  0  0  0  0
  -27.0990  -29.7240   24.2770 C   0  0  0  0  0  1  0  0  0  0  0  0
  -27.8570  -31.6780   25.6050 C   0  0  0  0  0  1  0  0  0  0  0  0
  -27.9660  -20.9170   20.9910 C   0  0  0  0  0  2  0  0  0  0  0  0
  -30.3770  -20.2820   20.2190 C   0  0  0  0  0  3  0  0  0  0  0  0
  -29.0550  -20.0070   20.4830 C   0  0  0  0  0  0  0  0  0  0  0  0
  -30.0660  -18.1140   19.8100 C   0  0  0  0  0  3  0  0  0  0  0  0
  -32.3530  -18.9740   19.3440 C   0  0  0  0  0  1  0  0  0  0  0  0
  -30.9600  -19.1200   19.7880 N   0  0  0  0  0  0  0  0  0  0  0  0
  -28.9170  -18.6540   20.2480 N   0  0  0  0  0  0  0  0  0  0  0  0
  -28.0570  -18.1290   20.3620 H   0  0  0  0  0  0  0  0  0  0  0  0
  -30.2520  -16.6980   19.2960 C   0  0  0  0  0  2  0  0  0  0  0  0
  -31.0980  -14.5220   19.9070 C   0  0  0  0  0  0  0  0  0  0  0  0
  -30.8350  -12.1550   19.2040 C   0  0  0  0  0  2  0  0  0  0  0  0
  -29.8810  -12.1080   17.9960 C   0  0  0  0  0  2  0  0  0  0  0  0
  -28.4130  -12.0210   18.4650 C   0  0  0  0  0  2  0  0  0  0  0  0
  -28.0760  -13.0800   19.5510 C   0  0  0  0  0  3  0  0  0  0  0  0
  -29.1450  -13.0960   20.6610 C   0  0  0  0  0  2  0  0  0  0  0  0
  -30.4560  -13.3230   20.0250 N   0  0  0  0  0  0  0  0  0  0  0  0
  -32.1630  -14.6390   19.2890 O   0  0  0  0  0  0  0  0  0  0  0  0
  -30.4950  -15.9840   21.7290 C   0  0  0  0  0  1  0  0  0  0  0  0
  -30.4040  -15.6230   20.3070 N   0  0  0  0  0  0  0  0  0  0  0  0
  -25.7750  -13.8170   20.4280 C   0  0  0  0  0  0  0  0  0  0  0  0
  -24.6860  -13.1060   20.8520 C   0  0  0  0  0  0  0  0  0  0  0  0
  -25.0540  -11.7280   20.7500 C   0  0  0  0  0  0  0  0  0  0  0  0
  -26.7420  -12.8780   20.1030 N   0  0  0  0  0  0  0  0  0  0  0  0
  -26.3130  -11.6140   20.3520 N   0  0  0  0  0  0  0  0  0  0  0  0
  -24.2610  -10.5110   20.9530 C   0  0  0  0  0  0  0  0  0  0  0  0
  -24.6110   -9.5550   21.9300 C   0  0  0  0  0  3  0  0  0  0  0  0
  -23.8200   -8.4000   22.1170 C   0  0  0  0  0  3  0  0  0  0  0  0
  -22.6650   -8.1950   21.3260 C   0  0  0  0  0  0  0  0  0  0  0  0
  -22.3340   -9.1410   20.3400 C   0  0  0  0  0  3  0  0  0  0  0  0
  -23.1250  -10.2860   20.1520 C   0  0  0  0  0  3  0  0  0  0  0  0
  -21.8530   -7.0900   21.4170 O   0  0  0  0  0  0  0  0  0  0  0  0
  -21.6340   -6.4550   22.6130 C   0  0  0  0  0  0  0  0  0  0  0  0
  -21.0810   -7.1280   23.7220 C   0  0  0  0  0  3  0  0  0  0  0  0
  -20.8100   -6.4220   24.9110 C   0  0  0  0  0  3  0  0  0  0  0  0
  -21.0820   -5.0420   24.9890 C   0  0  0  0  0  0  0  0  0  0  0  0
  -21.6300   -4.3690   23.8830 C   0  0  0  0  0  3  0  0  0  0  0  0
  -21.9020   -5.0740   22.6970 C   0  0  0  0  0  0  0  0  0  0  0  0
  -22.4110   -4.4170   21.6260 F   0  0  0  0  0  0  0  0  0  0  0  0
  -20.8150   -4.3600   26.1270 F   0  0  0  0  0  0  0  0  0  0  0  0
  -23.3460  -13.6640   21.2260 C   0  0  0  0  0  0  0  0  0  0  0  0
  -22.6530  -13.0190   22.1570 N   0  0  0  0  0  0  0  0  0  0  0  0
  -22.9260  -14.7100   20.7300 O   0  0  0  0  0  0  0  0  0  0  0  0
  -23.0080  -12.1720   22.5770 H   0  0  0  0  0  0  0  0  0  0  0  0
  -21.7560  -13.3750   22.4530 H   0  0  0  0  0  0  0  0  0  0  0  0
  -26.0160  -15.1790   20.2690 N   0  0  0  0  0  0  0  0  0  0  0  0
  -25.2550  -15.8440   20.3710 H   0  0  0  0  0  0  0  0  0  0  0  0
  -26.7910  -15.5360   19.7250 H   0  0  0  0  0  0  0  0  0  0  0  0
  1 49  1  0
  2  3  1  0
  3  4  1  6
  3  5  1  0
  3  1  1  0
  5  6  1  0
  7  8  1  0
  7  6  1  0
  8 10  1  0
  9 20  2  0
 10 15  1  0
 11 19  1  0
 11 21  1  0
 12 18  1  0
 12 14  1  0
 13 19  1  0
 14 13  1  0
 15 14  2  0
 16 17  1  0
 16 10  2  0
 17 12  2  0
 18 11  1  0
 19  9  1  0
 21 23  2  0
 22 21  1  0
 24 22  1  0
 25 34  2  0
 25 30  1  0
 26 22  1  0
 26 30  1  0
 27 26  1  0
 28 29  1  0
 28 27  1  0
 29 25  1  0
 30 31  2  0
 31 32  1  0
 33 32  2  0
 34 33  1  0
 35  9  1  0
 35 36  1  0
 35 45  1  0
 36 39  1  0
 37 36  1  0
 37 41  1  0
 38 37  2  0
 41 40  1  0
 41 43  1  0
 43 44  1  0
 43 42  1  0
 45 48  1  1
 45 46  1  0
 47 45  1  0
 50 51  2  0
 51 49  1  0
 52 57  1  0
 52 55  1  0
 53 54  1  0
 54 52  1  0
 54 50  1  0
 55 56  1  0
 55 51  1  0
 57 67  1  0
 58 64  1  0
 58 67  1  0
 59 64  1  0
 60 61  1  0
 60 59  1  0
 62 61  1  0
 62 71  1  0
 62 63  1  0
 64 63  1  0
 65 58  2  0
 67 66  1  0
 68 69  2  0
 69 88  1  0
 70 69  1  0
 70 73  1  0
 71 72  1  0
 71 68  1  0
 72 70  2  0
 73 74  1  0
 74 75  2  0
 76 79  1  0
 76 75  1  0
 77 76  2  0
 78 77  1  0
 78 73  2  0
 79 80  1  0
 80 85  2  0
 80 81  1  0
 81 82  2  0
 82 83  1  0
 83 87  1  0
 84 83  2  0
 85 84  1  0
 86 85  1  0
 88 89  1  0
 89 92  1  0
 89 91  1  0
 90 88  2  0
 93 94  1  0
 93 68  1  0
 95 93  1  0
M  ISO  4   7 101   8 101  58 100  67 100
M  END
>  <TORSDO>  (2) 
F 23

>  <SCORE>  (2) 
-10.594

>  <name>  (2) 
1

>  <ligand_id>  (2) 
1

>  <original_smiles>  (2) 
[H]c1c([H])c([H])c2c(c1[H])C([H])([H])C([H])([H])C([H])([H])C2([H])N([H])C(=O)C1([H])N(C(=O)C([H])(N([H])C(=O)C([H])(N([H])C([H])([H])[H])C([H])([H])[H])C(C([H])([H])[H])(C([H])([H])[H])C([H])([H])[H])C([H])([H])c2c([H])c(OC([H])([H])C([H])([H])C([H])([H])[N+]([H])(C([H])([H])[H])C([H])([H])C([H])([H])c3c([H])n(C([H])([H])[H])c(C([H])([H])N(C(=O)N4C([H])([H])C([H])([H])C([H])([H])C([H])(n5nc(-c6c([H])c([H])c(Oc7c([H])c([H])c(F)c([H])c7F)c([H])c6[H])c(C(=O)N([H])[H])c5N([H])[H])C4([H])[H])C([H])([H])[H])[n+]3[H])c([H])c([H])c2C1([H])[H]

>  <smiles>  (2) 
[H]c1c([H])c([H])c2c(c1[H])C([H])([H])C([H])([H])C([H])([H])C2([H])N([H])C(=O)C1([H])N(C(=O)C([H])(N([H])C(=O)C([H])(N([H])C([H])([H])[H])C([H])([H])[H])C(C([H])([H])[H])(C([H])([H])[H])C([H])([H])[H])C([H])([H])c2c([H])c(OC([H])([H])C([H])([H])C([H])([H])[N+]([H])(C([H])([H])[H])C([H])([H])C([H])([H])c3c([H])n(C([H])([H])[H])c(C([H])([H])N(C(=O)N4C([H])([H])C([H])([H])C([H])([H])C([H])(n5nc(-c6c([H])c([H])c(Oc7c([H])c([H])c(F)c([H])c7F)c([H])c6[H])c(C(=O)N([H])[H])c5N([H])[H])C4([H])[H])C([H])([H])[H])[n+]3[H])c([H])c([H])c2C1([H])[H]

$$$$
2:0:0
     RDKit          3D

 86 94  0  0  1  0  0  0  0  0999 V2000
  -30.6230  -20.5630   20.7460 C   0  0  0  0  0  3  0  0  0  0  0  0
  -29.3600  -21.0040   20.1960 C   0  0  0  0  0  0  0  0  0  0  0  0
  -30.8620  -19.2380   20.7690 N   0  0  0  0  0  0  0  0  0  0  0  0
  -28.8460  -19.7290   19.8940 N   0  0  0  0  0  0  0  0  0  0  0  0
  -29.7880  -18.6000   20.2050 N   0  0  0  0  0  0  0  0  0  0  0  0
  -29.1920  -16.7640   21.8450 C   0  0  0  0  0  1  0  0  0  0  0  0
  -29.5480  -16.9160   20.3490 C   0  0  0  0  0  3  0  0  0  0  0  0
  -30.4190  -15.4060   19.9170 C   0  0  0  0  0  0  0  0  0  0  0  0
  -30.4090  -12.9700   18.9310 C   0  0  0  0  0  2  0  0  0  0  0  0
  -29.3980  -12.7850   17.7640 C   0  0  0  0  0  2  0  0  0  0  0  0
  -27.9830  -12.4760   18.2880 C   0  0  0  0  0  2  0  0  0  0  0  0
  -27.6090  -13.3840   19.4820 C   0  0  0  0  0  3  0  0  0  0  0  0
  -28.7340  -13.4770   20.5280 C   0  0  0  0  0  2  0  0  0  0  0  0
  -29.9160  -14.0610   19.8600 N   0  0  0  0  0  0  0  0  0  0  0  0
  -31.6030  -15.4390   19.5370 O   0  0  0  0  0  0  0  0  0  0  0  0
  -25.3020  -13.9010   20.4390 C   0  0  0  0  0  0  0  0  0  0  0  0
  -24.2730  -13.1050   20.8590 C   0  0  0  0  0  0  0  0  0  0  0  0
  -24.7400  -11.7600   20.7430 C   0  0  0  0  0  0  0  0  0  0  0  0
  -26.3230  -13.0400   20.0780 N   0  0  0  0  0  0  0  0  0  0  0  0
  -26.0040  -11.7440   20.3300 N   0  0  0  0  0  0  0  0  0  0  0  0
  -24.0310  -10.4880   20.9410 C   0  0  0  0  0  0  0  0  0  0  0  0
  -24.4960   -9.5170   21.8550 C   0  0  0  0  0  3  0  0  0  0  0  0
  -23.7840   -8.3120   22.0430 C   0  0  0  0  0  3  0  0  0  0  0  0
  -22.5930   -8.0700   21.3180 C   0  0  0  0  0  0  0  0  0  0  0  0
  -22.1490   -9.0300   20.3910 C   0  0  0  0  0  3  0  0  0  0  0  0
  -22.8610  -10.2260   20.2020 C   0  0  0  0  0  3  0  0  0  0  0  0
  -21.8510   -6.9180   21.4150 O   0  0  0  0  0  0  0  0  0  0  0  0
  -21.7840   -6.2010   22.5830 C   0  0  0  0  0  0  0  0  0  0  0  0
  -21.3190   -6.7760   23.7850 C   0  0  0  0  0  3  0  0  0  0  0  0
  -21.2010   -5.9840   24.9440 C   0  0  0  0  0  3  0  0  0  0  0  0
  -21.5390   -4.6190   24.9030 C   0  0  0  0  0  0  0  0  0  0  0  0
  -21.9980   -4.0430   23.7050 C   0  0  0  0  0  3  0  0  0  0  0  0
  -22.1170   -4.8320   22.5480 C   0  0  0  0  0  0  0  0  0  0  0  0
  -22.5390   -4.2660   21.3910 F   0  0  0  0  0  0  0  0  0  0  0  0
  -21.4200   -3.8560   26.0140 F   0  0  0  0  0  0  0  0  0  0  0  0
  -22.8990  -13.5650   21.2480 C   0  0  0  0  0  0  0  0  0  0  0  0
  -22.2390  -12.8400   22.1430 N   0  0  0  0  0  0  0  0  0  0  0  0
  -22.4220  -14.6050   20.7920 O   0  0  0  0  0  0  0  0  0  0  0  0
  -22.6410  -12.0010   22.5340 H   0  0  0  0  0  0  0  0  0  0  0  0
  -21.3180  -13.1280   22.4420 H   0  0  0  0  0  0  0  0  0  0  0  0
  -25.4470  -15.2790   20.3040 N   0  0  0  0  0  0  0  0  0  0  0  0
  -24.6890  -15.9210   20.5080 H   0  0  0  0  0  0  0  0  0  0  0  0
  -26.2600  -15.7380   19.9170 H   0  0  0  0  0  0  0  0  0  0  0  0
  -28.9740  -22.6990   19.7810 C   0  0  0  0  0  2  0  0  0  0  0  0
  -28.2210  -24.2040   20.4920 C   0  0  0  0  0  2  0  0  0  0  0  0
  -28.3370  -25.8570   20.2410 O   0  0  0  0  0  0  0  0  0  0  0  0
  -24.6640  -31.8470   23.1800 C   0  0  0  0  0  0  0  0  0  0  0  0
  -27.2910  -26.9360   20.2390 C   0  0  0  0  0  0  0  0  0  0  0  0
  -23.4970  -30.4250   21.5460 C   0  0  0  0  0  3  0  0  0  0  0  0
  -24.9720  -28.8110   20.1560 C   0  0  0  0  0  0  0  0  0  0  0  0
  -26.0650  -30.6520   21.4170 C   0  0  0  0  0  2  0  0  0  0  0  0
  -26.1550  -29.2320   20.7780 C   0  0  0  0  0  0  0  0  0  0  0  0
  -27.3090  -28.3200   20.7840 C   0  0  0  0  0  3  0  0  0  0  0  0
  -26.0720  -26.6700   19.5770 C   0  0  0  0  0  3  0  0  0  0  0  0
  -24.9570  -27.5510   19.5350 C   0  0  0  0  0  3  0  0  0  0  0  0
  -23.7470  -29.7270   20.1800 C   0  0  0  0  0  2  0  0  0  0  0  0
  -24.7640  -31.0030   22.1010 N   0  0  0  0  0  0  0  0  0  0  0  0
  -23.5680  -32.1320   23.6890 O   0  0  0  0  0  0  0  0  0  0  0  0
  -22.8020  -29.4330   22.5160 C   0  0  0  0  0  0  0  0  0  0  0  0
  -21.4720  -29.2690   22.3940 N   0  0  0  0  0  0  0  0  0  0  0  0
  -23.4680  -28.8110   23.3460 O   0  0  0  0  0  0  0  0  0  0  0  0
  -20.9860  -29.8230   21.7020 H   0  0  0  0  0  0  0  0  0  0  0  0
  -18.0890  -28.0600   22.9170 C   0  0  0  0  0  0  0  0  0  0  0  0
  -20.6500  -28.3330   23.1690 C   0  0  0  0  0  3  0  0  0  0  0  0
  -20.7520  -26.8990   22.5960 C   0  0  0  0  0  2  0  0  0  0  0  0
  -19.6470  -26.5720   21.5860 C   0  0  0  0  0  2  0  0  0  0  0  0
  -18.2680  -26.7120   22.2360 C   0  0  0  0  0  2  0  0  0  0  0  0
  -19.2080  -28.8270   23.3400 C   0  0  0  0  0  0  0  0  0  0  0  0
  -18.9860  -30.0850   23.9400 C   0  0  0  0  0  3  0  0  0  0  0  0
  -17.6790  -30.5780   24.1170 C   0  0  0  0  0  3  0  0  0  0  0  0
  -16.5760  -29.8080   23.7070 C   0  0  0  0  0  3  0  0  0  0  0  0
  -16.7810  -28.5510   23.1130 C   0  0  0  0  0  3  0  0  0  0  0  0
  -25.9220  -32.5090   23.8180 C   0  0  0  0  0  3  0  0  0  0  0  0
  -26.4320  -31.7540   25.1080 C   0  0  1  0  0  0  0  0  0  0  0  0
  -25.3290  -31.5100   26.1650 C   0  0  0  0  0  1  0  0  0  0  0  0
  -27.0380  -30.3810   24.7400 C   0  0  0  0  0  1  0  0  0  0  0  0
  -27.5650  -32.5670   25.7770 C   0  0  0  0  0  1  0  0  0  0  0  0
  -25.5820  -33.9040   24.1540 N   0  0  0  0  0  0  0  0  0  0  0  0
  -25.9030  -34.9730   23.4130 C   0  0  0  0  0  0  0  0  0  0  0  0
  -26.5790  -34.8910   22.3840 O   0  0  0  0  0  0  0  0  0  0  0  0
  -24.9800  -34.0400   24.9520 H   0  0  0  0  0  0  0  0  0  0  0  0
  -24.1540  -36.7550   23.0770 C   0  0  0  0  0  1  0  0  0  0  0  0
  -25.3990  -36.3530   23.8860 C   0  0  0  0  0  3  0  0  0  0  0  0
  -27.5180  -37.2610   24.7320 C   0  0  0  0  0  1  0  0  0  0  0  0
  -26.4190  -37.4210   23.7850 N   0  0  0  0  0  0  0  0  0  0  0  0
  -25.9990  -38.3350   23.9370 H   0  0  0  0  0  0  0  0  0  0  0  0
  1  3  2  0
  2  1  1  0
  4  2  2  0
  4  5  1  0
  5  7  1  0
  5  3  1  0
  7  6  1  0
  8  7  1  0
  9 14  1  0
 10 11  1  0
 10  9  1  0
 12 11  1  0
 12 19  1  0
 12 13  1  0
 14  8  1  0
 14 13  1  0
 15  8  2  0
 16 17  2  0
 17 36  1  0
 18 17  1  0
 18 21  1  0
 19 20  1  0
 19 16  1  0
 20 18  2  0
 21 22  1  0
 22 23  2  0
 24 27  1  0
 24 23  1  0
 25 24  2  0
 26 25  1  0
 26 21  2  0
 27 28  1  0
 28 29  1  0
 29 30  2  0
 31 30  1  0
 31 35  1  0
 32 31  2  0
 33 28  2  0
 33 32  1  0
 34 33  1  0
 36 37  1  0
 37 40  1  0
 37 39  1  0
 38 36  2  0
 41 16  1  0
 41 42  1  0
 43 41  1  0
 44  2  1  0
 44 45  1  0
 46 45  1  0
 47 58  2  0
 48 46  1  0
 48 53  1  0
 49 57  1  0
 49 59  1  0
 50 56  1  0
 50 52  1  0
 51 57  1  0
 52 53  2  0
 52 51  1  0
 54 48  2  0
 55 54  1  0
 55 50  2  0
 56 49  1  0
 57 47  1  0
 59 61  2  0
 60 59  1  0
 62 60  1  0
 63 72  2  0
 63 68  1  0
 64 60  1  0
 64 68  1  0
 65 64  1  0
 66 67  1  0
 66 65  1  0
 67 63  1  0
 68 69  2  0
 69 70  1  0
 71 70  2  0
 72 71  1  0
 73 47  1  0
 73 78  1  0
 73 74  1  0
 74 77  1  1
 74 75  1  0
 76 74  1  0
 78 81  1  0
 79 83  1  0
 79 78  1  0
 80 79  2  0
 83 82  1  0
 85 83  1  0
 85 86  1  0
 85 84  1  0
M  ISO  4   7 100   8 100  45 101  46 101
M  END
>  <TORSDO>  (3) 
F 19

>  <SCORE>  (3) 
-15.669

>  <name>  (3) 
2

>  <ligand_id>  (3) 
2

>  <original_smiles>  (3) 
[H]c1nn(C([H])(C(=O)N2C([H])([H])C([H])([H])C([H])([H])C([H])(n3nc(-c4c([H])c([H])c(Oc5c([H])c([H])c(F)c([H])c5F)c([H])c4[H])c(C(=O)N([H])[H])c3N([H])[H])C2([H])[H])C([H])([H])[H])nc1C([H])([H])C([H])([H])Oc1c([H])c([H])c2c(c1[H])C([H])([H])N(C(=O)C([H])(N([H])C(=O)C([H])(N([H])C([H])([H])[H])C([H])([H])[H])C(C([H])([H])[H])(C([H])([H])[H])C([H])([H])[H])C([H])(C(=O)N([H])C1([H])c3c([H])c([H])c([H])c([H])c3C([H])([H])C([H])([H])C1([H])[H])C2([H])[H]

>  <smiles>  (3) 
[H]c1nn(C([H])(C(=O)N2C([H])([H])C([H])([H])C([H])([H])C([H])(n3nc(-c4c([H])c([H])c(Oc5c([H])c([H])c(F)c([H])c5F)c([H])c4[H])c(C(=O)N([H])[H])c3N([H])[H])C2([H])[H])C([H])([H])[H])nc1C([H])([H])C([H])([H])Oc1c([H])c([H])c2c(c1[H])C([H])([H])N(C(=O)C([H])(N([H])C(=O)C([H])(N([H])C([H])([H])[H])C([H])([H])[H])C(C([H])([H])[H])(C([H])([H])[H])C([H])([H])[H])C([H])(C(=O)N([H])C1([H])c3c([H])c([H])c([H])c([H])c3C([H])([H])C([H])([H])C1([H])[H])C2([H])[H]

$$$$
3:0:0
     RDKit          3D

 91 99  0  0  1  0  0  0  0  0999 V2000
  -30.8790  -22.1380   20.4980 C   0  0  0  0  0  3  0  0  0  0  0  0
  -29.6410  -22.5810   19.9760 C   0  0  0  0  0  0  0  0  0  0  0  0
  -30.2710  -19.9030   20.2080 C   0  0  0  0  0  0  0  0  0  0  0  0
  -31.1730  -20.8150   20.6190 N   0  0  0  0  0  0  0  0  0  0  0  0
  -28.7640  -21.6140   19.5650 N   0  0  0  0  0  0  0  0  0  0  0  0
  -29.0670  -20.2880   19.7040 N   0  0  0  0  0  0  0  0  0  0  0  0
  -29.7670  -18.1770   21.9900 C   0  0  0  0  0  1  0  0  0  0  0  0
  -32.0350  -18.1750   20.9510 C   0  0  0  0  0  1  0  0  0  0  0  0
  -30.5200  -18.3820   20.6630 C   0  0  2  0  0  0  0  0  0  0  0  0
  -30.1570  -17.1960   19.6480 C   0  0  0  0  0  2  0  0  0  0  0  0
  -30.8280  -14.6640   19.9630 C   0  0  0  0  0  0  0  0  0  0  0  0
  -30.5330  -12.4290   18.9380 C   0  0  0  0  0  2  0  0  0  0  0  0
  -29.5380  -12.5880   17.7700 C   0  0  0  0  0  2  0  0  0  0  0  0
  -28.0850  -12.4310   18.2670 C   0  0  0  0  0  2  0  0  0  0  0  0
  -27.7920  -13.2680   19.5440 C   0  0  0  0  0  3  0  0  0  0  0  0
  -28.9120  -13.1140   20.5990 C   0  0  0  0  0  2  0  0  0  0  0  0
  -30.1890  -13.4480   19.9480 N   0  0  0  0  0  0  0  0  0  0  0  0
  -31.9840  -14.7840   19.5580 O   0  0  0  0  0  0  0  0  0  0  0  0
  -30.0400  -15.7660   20.1750 N   0  0  0  0  0  0  0  0  0  0  0  0
  -29.1230  -15.5310   20.5220 H   0  0  0  0  0  0  0  0  0  0  0  0
  -25.4390  -13.8640   20.3830 C   0  0  0  0  0  0  0  0  0  0  0  0
  -24.3870  -13.0950   20.7960 C   0  0  0  0  0  0  0  0  0  0  0  0
  -24.8350  -11.7400   20.7200 C   0  0  0  0  0  0  0  0  0  0  0  0
  -26.4670  -12.9820   20.0880 N   0  0  0  0  0  0  0  0  0  0  0  0
  -26.1110  -11.6980   20.3490 N   0  0  0  0  0  0  0  0  0  0  0  0
  -24.1060  -10.4830   20.9270 C   0  0  0  0  0  0  0  0  0  0  0  0
  -24.5400   -9.5270   21.8730 C   0  0  0  0  0  3  0  0  0  0  0  0
  -23.8160   -8.3300   22.0670 C   0  0  0  0  0  3  0  0  0  0  0  0
  -22.6440   -8.0840   21.3160 C   0  0  0  0  0  0  0  0  0  0  0  0
  -22.2290   -9.0270   20.3610 C   0  0  0  0  0  3  0  0  0  0  0  0
  -22.9510  -10.2140   20.1650 C   0  0  0  0  0  3  0  0  0  0  0  0
  -21.8890   -6.9390   21.4160 O   0  0  0  0  0  0  0  0  0  0  0  0
  -21.8000   -6.2360   22.5910 C   0  0  0  0  0  0  0  0  0  0  0  0
  -21.2960   -6.8220   23.7710 C   0  0  0  0  0  3  0  0  0  0  0  0
  -21.1640   -6.0470   24.9410 C   0  0  0  0  0  3  0  0  0  0  0  0
  -21.5160   -4.6840   24.9260 C   0  0  0  0  0  0  0  0  0  0  0  0
  -22.0060   -4.0960   23.7470 C   0  0  0  0  0  3  0  0  0  0  0  0
  -22.1460   -4.8700   22.5820 C   0  0  0  0  0  0  0  0  0  0  0  0
  -22.6030   -4.2950   21.4430 F   0  0  0  0  0  0  0  0  0  0  0  0
  -21.3790   -3.9350   26.0450 F   0  0  0  0  0  0  0  0  0  0  0  0
  -23.0090  -13.5790   21.1480 C   0  0  0  0  0  0  0  0  0  0  0  0
  -22.3180  -12.8700   22.0330 N   0  0  0  0  0  0  0  0  0  0  0  0
  -22.5550  -14.6200   20.6720 O   0  0  0  0  0  0  0  0  0  0  0  0
  -22.7060  -12.0320   22.4410 H   0  0  0  0  0  0  0  0  0  0  0  0
  -21.3970  -13.1710   22.3140 H   0  0  0  0  0  0  0  0  0  0  0  0
  -25.5960  -15.2380   20.2140 N   0  0  0  0  0  0  0  0  0  0  0  0
  -24.8210  -15.8780   20.3540 H   0  0  0  0  0  0  0  0  0  0  0  0
  -26.4090  -15.6840   19.8120 H   0  0  0  0  0  0  0  0  0  0  0  0
  -29.4010  -24.1140   19.6750 C   0  0  0  0  0  3  0  0  0  0  0  0
  -28.3240  -24.9890   20.4430 C   0  0  0  0  0  3  0  0  0  0  0  0
  -28.4370  -26.4570   20.2450 O   0  0  0  0  0  0  0  0  0  0  0  0
  -24.6110  -31.8180   23.2100 C   0  0  0  0  0  0  0  0  0  0  0  0
  -27.2830  -27.2540   20.2290 C   0  0  0  0  0  0  0  0  0  0  0  0
  -23.4270  -30.3980   21.5750 C   0  0  0  0  0  3  0  0  0  0  0  0
  -24.8980  -28.8360   20.1800 C   0  0  0  0  0  0  0  0  0  0  0  0
  -25.9660  -30.7230   21.4160 C   0  0  0  0  0  2  0  0  0  0  0  0
  -26.0570  -29.3420   20.7810 C   0  0  0  0  0  0  0  0  0  0  0  0
  -27.2510  -28.5640   20.7950 C   0  0  0  0  0  3  0  0  0  0  0  0
  -26.1030  -26.7920   19.6050 C   0  0  0  0  0  3  0  0  0  0  0  0
  -24.9220  -27.5600   19.5890 C   0  0  0  0  0  3  0  0  0  0  0  0
  -23.6550  -29.7030   20.2060 C   0  0  0  0  0  2  0  0  0  0  0  0
  -24.6850  -30.9970   22.1230 N   0  0  0  0  0  0  0  0  0  0  0  0
  -23.5220  -32.0970   23.7340 O   0  0  0  0  0  0  0  0  0  0  0  0
  -22.7600  -29.3890   22.5380 C   0  0  0  0  0  0  0  0  0  0  0  0
  -21.4320  -29.2220   22.4150 N   0  0  0  0  0  0  0  0  0  0  0  0
  -23.4350  -28.7560   23.3530 O   0  0  0  0  0  0  0  0  0  0  0  0
  -20.9420  -29.7730   21.7230 H   0  0  0  0  0  0  0  0  0  0  0  0
  -18.0470  -28.0800   22.9630 C   0  0  0  0  0  0  0  0  0  0  0  0
  -20.6130  -28.2930   23.1940 C   0  0  0  0  0  3  0  0  0  0  0  0
  -20.6830  -26.8650   22.6060 C   0  0  0  0  0  2  0  0  0  0  0  0
  -19.5600  -26.5670   21.6070 C   0  0  0  0  0  2  0  0  0  0  0  0
  -18.1900  -26.7340   22.2730 C   0  0  0  0  0  2  0  0  0  0  0  0
  -19.1860  -28.8190   23.3820 C   0  0  0  0  0  0  0  0  0  0  0  0
  -18.9980  -30.0810   23.9840 C   0  0  0  0  0  3  0  0  0  0  0  0
  -17.7080  -30.6040   24.1770 C   0  0  0  0  0  3  0  0  0  0  0  0
  -16.5830  -29.8620   23.7760 C   0  0  0  0  0  3  0  0  0  0  0  0
  -16.7540  -28.6020   23.1730 C   0  0  0  0  0  3  0  0  0  0  0  0
  -25.8860  -32.4620   23.8370 C   0  0  0  0  0  3  0  0  0  0  0  0
  -26.4040  -31.7010   25.1200 C   0  0  1  0  0  0  0  0  0  0  0  0
  -25.3050  -31.4520   26.1810 C   0  0  0  0  0  1  0  0  0  0  0  0
  -27.0100  -30.3300   24.7420 C   0  0  0  0  0  1  0  0  0  0  0  0
  -27.5380  -32.5130   25.7890 C   0  0  0  0  0  1  0  0  0  0  0  0
  -25.5670  -33.8580   24.1610 N   0  0  0  0  0  0  0  0  0  0  0  0
  -25.8970  -34.9110   23.4030 C   0  0  0  0  0  0  0  0  0  0  0  0
  -26.5750  -34.8100   22.3780 O   0  0  0  0  0  0  0  0  0  0  0  0
  -24.9740  -34.0100   24.9620 H   0  0  0  0  0  0  0  0  0  0  0  0
  -24.1650  -36.6950   23.0210 C   0  0  0  0  0  1  0  0  0  0  0  0
  -25.3940  -36.2980   23.8540 C   0  0  0  0  0  3  0  0  0  0  0  0
  -27.5050  -37.1920   24.7310 C   0  0  0  0  0  1  0  0  0  0  0  0
  -26.4260  -37.3560   23.7630 N   0  0  0  0  0  0  0  0  0  0  0  0
  -26.0130  -38.2750   23.8980 H   0  0  0  0  0  0  0  0  0  0  0  0
  1  4  1  0
  2  1  2  0
  3  4  2  0
  3  9  1  0
  5  6  2  0
  5  2  1  0
  6  3  1  0
  9  8  1  1
  9  7  1  0
 10 19  1  0
 10  9  1  0
 11 19  1  0
 12 17  1  0
 13 14  1  0
 13 12  1  0
 15 14  1  0
 15 24  1  0
 15 16  1  0
 17 11  1  0
 17 16  1  0
 18 11  2  0
 19 20  1  0
 21 22  2  0
 22 41  1  0
 23 22  1  0
 23 26  1  0
 24 25  1  0
 24 21  1  0
 25 23  2  0
 26 27  1  0
 27 28  2  0
 29 32  1  0
 29 28  1  0
 30 29  2  0
 31 30  1  0
 31 26  2  0
 32 33  1  0
 33 34  1  0
 34 35  2  0
 36 35  1  0
 36 40  1  0
 37 36  2  0
 38 33  2  0
 38 37  1  0
 39 38  1  0
 41 42  1  0
 42 45  1  0
 42 44  1  0
 43 41  2  0
 46 47  1  0
 46 21  1  0
 48 46  1  0
 49  2  1  0
 49 50  2  0
 51 50  1  0
 52 63  2  0
 53 51  1  0
 53 58  1  0
 54 62  1  0
 54 64  1  0
 55 61  1  0
 55 57  1  0
 56 62  1  0
 57 58  2  0
 57 56  1  0
 59 53  2  0
 60 59  1  0
 60 55  2  0
 61 54  1  0
 62 52  1  0
 64 66  2  0
 65 64  1  0
 67 65  1  0
 68 77  2  0
 68 73  1  0
 69 65  1  0
 69 73  1  0
 70 69  1  0
 71 72  1  0
 71 70  1  0
 72 68  1  0
 73 74  2  0
 74 75  1  0
 76 75  2  0
 77 76  1  0
 78 52  1  0
 78 83  1  0
 78 79  1  0
 79 82  1  1
 79 80  1  0
 81 79  1  0
 83 86  1  0
 84 88  1  0
 84 83  1  0
 85 84  2  0
 88 87  1  0
 90 88  1  0
 90 91  1  0
 90 89  1  0
M  ISO  4  11 100  19 100  50 101  51 101
M  END
>  <TORSDO>  (4) 
F 20

>  <SCORE>  (4) 
-13.161

>  <name>  (4) 
3

>  <ligand_id>  (4) 
3

>  <original_smiles>  (4) 
[H]c1nc(C(C([H])([H])[H])(C([H])([H])[H])C([H])([H])N([H])C(=O)N2C([H])([H])C([H])([H])C([H])([H])C([H])(n3nc(-c4c([H])c([H])c(Oc5c([H])c([H])c(F)c([H])c5F)c([H])c4[H])c(C(=O)N([H])[H])c3N([H])[H])C2([H])[H])nnc1C([H])([H])C([H])([H])Oc1c([H])c([H])c2c(c1[H])C([H])([H])N(C(=O)C([H])(N([H])C(=O)C([H])(N([H])C([H])([H])[H])C([H])([H])[H])C(C([H])([H])[H])(C([H])([H])[H])C([H])([H])[H])C([H])(C(=O)N([H])C1([H])c3c([H])c([H])c([H])c([H])c3C([H])([H])C([H])([H])C1([H])[H])C2([H])[H]

>  <smiles>  (4) 
[H]c1nc(C(C([H])([H])[H])(C([H])([H])[H])C([H])([H])N([H])C(=O)N2C([H])([H])C([H])([H])C([H])([H])C([H])(n3nc(-c4c([H])c([H])c(Oc5c([H])c([H])c(F)c([H])c5F)c([H])c4[H])c(C(=O)N([H])[H])c3N([H])[H])C2([H])[H])nnc1C([H])([H])C([H])([H])Oc1c([H])c([H])c2c(c1[H])C([H])([H])N(C(=O)C([H])(N([H])C(=O)C([H])(N([H])C([H])([H])[H])C([H])([H])[H])C(C([H])([H])[H])(C([H])([H])[H])C([H])([H])[H])C([H])(C(=O)N([H])C1([H])c3c([H])c([H])c([H])c([H])c3C([H])([H])C([H])([H])C1([H])[H])C2([H])[H]

$$$$
4:0:0
     RDKit          3D

 93101  0  0  1  0  0  0  0  0999 V2000
  -30.5010  -20.3730   18.4830 C   0  0  0  0  0  3  0  0  0  0  0  0
  -30.0580  -20.9740   19.6920 C   0  0  0  0  0  0  0  0  0  0  0  0
  -30.9420  -18.3220   19.5460 C   0  0  0  0  0  0  0  0  0  0  0  0
  -30.4700  -18.9060   20.7620 C   0  0  0  0  0  0  0  0  0  0  0  0
  -30.9390  -19.0790   18.4110 N   0  0  0  0  0  0  0  0  0  0  0  0
  -30.0390  -20.2160   20.8270 N   0  0  0  0  0  0  0  0  0  0  0  0
  -30.4670  -18.0950   22.0630 C   0  0  1  0  0  0  0  0  0  0  0  0
  -29.8070  -16.9480   21.8810 F   0  0  0  0  0  0  0  0  0  0  0  0
  -31.7190  -17.8130   22.4300 F   0  0  0  0  0  0  0  0  0  0  0  0
  -29.8800  -18.7630   23.0590 F   0  0  0  0  0  0  0  0  0  0  0  0
  -29.3710  -22.3820   19.7050 C   0  0  0  0  0  2  0  0  0  0  0  0
  -30.0850  -23.7080   20.2170 C   0  0  0  0  0  2  0  0  0  0  0  0
  -29.1970  -24.9990   19.9670 C   0  0  0  0  0  2  0  0  0  0  0  0
  -29.4520  -26.3180   20.5910 O   0  0  0  0  0  0  0  0  0  0  0  0
  -25.8820  -31.4770   24.1800 C   0  0  0  0  0  0  0  0  0  0  0  0
  -28.3880  -27.2390   20.6080 C   0  0  0  0  0  0  0  0  0  0  0  0
  -24.6850  -30.3990   22.3100 C   0  0  0  0  0  3  0  0  0  0  0  0
  -26.1170  -28.9800   20.7410 C   0  0  0  0  0  0  0  0  0  0  0  0
  -27.2490  -30.5650   22.2950 C   0  0  0  0  0  2  0  0  0  0  0  0
  -27.2780  -29.2930   21.4600 C   0  0  0  0  0  0  0  0  0  0  0  0
  -28.4090  -28.4280   21.3980 C   0  0  0  0  0  3  0  0  0  0  0  0
  -27.2120  -27.0050   19.8500 C   0  0  0  0  0  3  0  0  0  0  0  0
  -26.0850  -27.8370   19.9340 C   0  0  0  0  0  3  0  0  0  0  0  0
  -24.9330  -29.9150   20.8590 C   0  0  0  0  0  2  0  0  0  0  0  0
  -25.9540  -30.8230   22.9860 N   0  0  0  0  0  0  0  0  0  0  0  0
  -24.7900  -31.7510   24.7000 O   0  0  0  0  0  0  0  0  0  0  0  0
  -23.9200  -29.3010   23.0850 C   0  0  0  0  0  0  0  0  0  0  0  0
  -22.6230  -29.1320   22.7770 N   0  0  0  0  0  0  0  0  0  0  0  0
  -24.4960  -28.6070   23.9260 O   0  0  0  0  0  0  0  0  0  0  0  0
  -22.2170  -29.7500   22.0870 H   0  0  0  0  0  0  0  0  0  0  0  0
  -19.2460  -27.8430   22.6810 C   0  0  0  0  0  0  0  0  0  0  0  0
  -21.7240  -28.1340   23.3590 C   0  0  0  0  0  3  0  0  0  0  0  0
  -21.9540  -26.7400   22.7300 C   0  0  0  0  0  2  0  0  0  0  0  0
  -21.0310  -26.4570   21.5400 C   0  0  0  0  0  2  0  0  0  0  0  0
  -19.5620  -26.5390   21.9670 C   0  0  0  0  0  2  0  0  0  0  0  0
  -20.2640  -28.5970   23.3210 C   0  0  0  0  0  0  0  0  0  0  0  0
  -19.9220  -29.8180   23.9430 C   0  0  0  0  0  3  0  0  0  0  0  0
  -18.5930  -30.2830   23.9320 C   0  0  0  0  0  3  0  0  0  0  0  0
  -17.5880  -29.5250   23.3090 C   0  0  0  0  0  3  0  0  0  0  0  0
  -17.9140  -28.3060   22.6880 C   0  0  0  0  0  3  0  0  0  0  0  0
  -27.1660  -31.9320   24.9370 C   0  0  0  0  0  3  0  0  0  0  0  0
  -26.9780  -33.3410   25.3150 N   0  0  0  0  0  0  0  0  0  0  0  0
  -27.4830  -34.3830   24.6440 C   0  0  0  0  0  0  0  0  0  0  0  0
  -28.2250  -34.2550   23.6650 O   0  0  0  0  0  0  0  0  0  0  0  0
  -26.3330  -33.5230   26.0690 H   0  0  0  0  0  0  0  0  0  0  0  0
  -25.9960  -36.3730   24.2480 C   0  0  0  0  0  1  0  0  0  0  0  0
  -27.1060  -35.7940   25.1360 C   0  0  0  0  0  3  0  0  0  0  0  0
  -29.2360  -36.3970   26.1990 C   0  0  0  0  0  1  0  0  0  0  0  0
  -28.2520  -36.7290   25.1730 N   0  0  0  0  0  0  0  0  0  0  0  0
  -27.9340  -37.6810   25.3350 H   0  0  0  0  0  0  0  0  0  0  0  0
  -27.4860  -31.0530   26.2080 C   0  0  1  0  0  0  0  0  0  0  0  0
  -26.2800  -30.8820   27.1620 C   0  0  0  0  0  1  0  0  0  0  0  0
  -27.9650  -29.6410   25.7970 C   0  0  0  0  0  1  0  0  0  0  0  0
  -28.6400  -31.6960   27.0100 C   0  0  0  0  0  1  0  0  0  0  0  0
  -31.7160  -16.9550   19.4580 C   0  0  0  0  0  2  0  0  0  0  0  0
  -31.7120  -14.4250   19.5350 C   0  0  0  0  0  0  0  0  0  0  0  0
  -31.3800  -12.0330   18.9850 C   0  0  0  0  0  2  0  0  0  0  0  0
  -30.4190  -11.9180   17.7850 C   0  0  0  0  0  2  0  0  0  0  0  0
  -28.9550  -11.8820   18.2670 C   0  0  0  0  0  2  0  0  0  0  0  0
  -28.6350  -12.9900   19.3080 C   0  0  0  0  0  3  0  0  0  0  0  0
  -29.7250  -13.0920   20.3980 C   0  0  0  0  0  2  0  0  0  0  0  0
  -31.0150  -13.2610   19.7180 N   0  0  0  0  0  0  0  0  0  0  0  0
  -32.8730  -14.4040   19.1230 O   0  0  0  0  0  0  0  0  0  0  0  0
  -31.0540  -15.6190   19.6440 N   0  0  0  0  0  0  0  0  0  0  0  0
  -30.0970  -15.6100   19.9580 H   0  0  0  0  0  0  0  0  0  0  0  0
  -26.3640  -13.7840   20.2060 C   0  0  0  0  0  0  0  0  0  0  0  0
  -25.2570  -13.1050   20.6350 C   0  0  0  0  0  0  0  0  0  0  0  0
  -25.5860  -11.7170   20.5450 C   0  0  0  0  0  0  0  0  0  0  0  0
  -27.3020  -12.8190   19.8820 N   0  0  0  0  0  0  0  0  0  0  0  0
  -26.8450  -11.5670   20.1480 N   0  0  0  0  0  0  0  0  0  0  0  0
  -24.7570  -10.5230   20.7610 C   0  0  0  0  0  0  0  0  0  0  0  0
  -25.0650   -9.5780   21.7640 C   0  0  0  0  0  3  0  0  0  0  0  0
  -24.2390   -8.4510   21.9640 C   0  0  0  0  0  3  0  0  0  0  0  0
  -23.0910   -8.2600   21.1590 C   0  0  0  0  0  0  0  0  0  0  0  0
  -22.8020   -9.1910   20.1450 C   0  0  0  0  0  3  0  0  0  0  0  0
  -23.6270  -10.3100   19.9440 C   0  0  0  0  0  3  0  0  0  0  0  0
  -22.2470   -7.1810   21.2620 O   0  0  0  0  0  0  0  0  0  0  0  0
  -21.9410   -6.6210   22.4750 C   0  0  0  0  0  0  0  0  0  0  0  0
  -21.3440   -7.3710   23.5120 C   0  0  0  0  0  3  0  0  0  0  0  0
  -20.9820   -6.7400   24.7190 C   0  0  0  0  0  3  0  0  0  0  0  0
  -21.2050   -5.3610   24.8880 C   0  0  0  0  0  0  0  0  0  0  0  0
  -21.7930   -4.6110   23.8550 C   0  0  0  0  0  3  0  0  0  0  0  0
  -22.1570   -5.2390   22.6500 C   0  0  0  0  0  0  0  0  0  0  0  0
  -22.7040   -4.5070   21.6500 F   0  0  0  0  0  0  0  0  0  0  0  0
  -20.8480   -4.7530   26.0440 F   0  0  0  0  0  0  0  0  0  0  0  0
  -23.9310  -13.7020   21.0100 C   0  0  0  0  0  0  0  0  0  0  0  0
  -23.2080  -13.0670   21.9250 N   0  0  0  0  0  0  0  0  0  0  0  0
  -23.5510  -14.7680   20.5280 O   0  0  0  0  0  0  0  0  0  0  0  0
  -23.5310  -12.2050   22.3380 H   0  0  0  0  0  0  0  0  0  0  0  0
  -22.3210  -13.4490   22.2190 H   0  0  0  0  0  0  0  0  0  0  0  0
  -26.6460  -15.1390   20.0450 N   0  0  0  0  0  0  0  0  0  0  0  0
  -25.9530  -15.8560   20.2220 H   0  0  0  0  0  0  0  0  0  0  0  0
  -27.5030  -15.5030   19.6500 H   0  0  0  0  0  0  0  0  0  0  0  0
  1  2  1  0
  2 11  1  0
  2  6  2  0
  3  4  2  0
  4  6  1  0
  4  7  1  0
  5  1  2  0
  5  3  1  0
  7  9  1  1
  7 10  1  0
  8  7  1  0
 11 12  1  0
 13 12  1  0
 13 14  1  0
 14 16  1  0
 15 26  2  0
 16 21  1  0
 17 25  1  0
 17 27  1  0
 18 24  1  0
 18 20  1  0
 19 25  1  0
 20 19  1  0
 21 20  2  0
 22 23  1  0
 22 16  2  0
 23 18  2  0
 24 17  1  0
 25 15  1  0
 27 29  2  0
 28 27  1  0
 30 28  1  0
 31 40  2  0
 31 36  1  0
 32 28  1  0
 33 32  1  0
 34 35  1  0
 34 33  1  0
 35 31  1  0
 36 32  1  0
 36 37  2  0
 38 37  1  0
 39 38  2  0
 40 39  1  0
 41 15  1  0
 41 42  1  0
 41 51  1  0
 42 45  1  0
 43 47  1  0
 43 42  1  0
 44 43  2  0
 47 46  1  0
 47 49  1  0
 49 50  1  0
 49 48  1  0
 51 54  1  1
 51 52  1  0
 53 51  1  0
 55  3  1  0
 55 64  1  0
 56 64  1  0
 56 62  1  0
 57 62  1  0
 58 59  1  0
 58 57  1  0
 60 59  1  0
 60 69  1  0
 60 61  1  0
 62 61  1  0
 63 56  2  0
 64 65  1  0
 66 67  2  0
 67 86  1  0
 68 67  1  0
 68 71  1  0
 69 70  1  0
 69 66  1  0
 70 68  2  0
 71 72  1  0
 72 73  2  0
 74 77  1  0
 74 73  1  0
 75 74  2  0
 76 75  1  0
 76 71  2  0
 77 78  1  0
 78 83  2  0
 78 79  1  0
 79 80  2  0
 80 81  1  0
 81 85  1  0
 82 81  2  0
 83 82  1  0
 84 83  1  0
 86 87  1  0
 87 90  1  0
 87 89  1  0
 88 86  2  0
 91 66  1  0
 91 92  1  0
 93 91  1  0
M  ISO  4  13 101  14 101  56 100  64 100
M  END
>  <TORSDO>  (5) 
F 21

>  <SCORE>  (5) 
-9.346

>  <name>  (5) 
4

>  <ligand_id>  (5) 
4

>  <original_smiles>  (5) 
[H]c1nc(C([H])([H])N([H])C(=O)N2C([H])([H])C([H])([H])C([H])([H])C([H])(n3nc(-c4c([H])c([H])c(Oc5c([H])c([H])c(F)c([H])c5F)c([H])c4[H])c(C(=O)N([H])[H])c3N([H])[H])C2([H])[H])c(C(F)(F)F)nc1C([H])([H])C([H])([H])C([H])([H])Oc1c([H])c([H])c2c(c1[H])C([H])([H])N(C(=O)C([H])(N([H])C(=O)C([H])(N([H])C([H])([H])[H])C([H])([H])[H])C(C([H])([H])[H])(C([H])([H])[H])C([H])([H])[H])C([H])(C(=O)N([H])C1([H])c3c([H])c([H])c([H])c([H])c3C([H])([H])C([H])([H])C1([H])[H])C2([H])[H]

>  <smiles>  (5) 
[H]c1nc(C([H])([H])N([H])C(=O)N2C([H])([H])C([H])([H])C([H])([H])C([H])(n3nc(-c4c([H])c([H])c(Oc5c([H])c([H])c(F)c([H])c5F)c([H])c4[H])c(C(=O)N([H])[H])c3N([H])[H])C2([H])[H])c(C(F)(F)F)nc1C([H])([H])C([H])([H])C([H])([H])Oc1c([H])c([H])c2c(c1[H])C([H])([H])N(C(=O)C([H])(N([H])C(=O)C([H])(N([H])C([H])([H])[H])C([H])([H])[H])C(C([H])([H])[H])(C([H])([H])[H])C([H])([H])[H])C([H])(C(=O)N([H])C1([H])c3c([H])c([H])c([H])c([H])c3C([H])([H])C([H])([H])C1([H])[H])C2([H])[H]

$$$$
5:0:0
     RDKit          3D

 92100  0  0  1  0  0  0  0  0999 V2000
  -28.8180  -22.1930   19.0190 C   0  0  0  0  0  3  0  0  0  0  0  0
  -29.0830  -23.3190   19.8670 C   0  0  0  0  0  0  0  0  0  0  0  0
  -29.9670  -22.8960   20.9010 C   0  0  0  0  0  0  0  0  0  0  0  0
  -30.1880  -20.6060   20.1470 C   0  0  0  0  0  0  0  0  0  0  0  0
  -29.3140  -20.9040   19.1690 N   0  0  0  0  0  0  0  0  0  0  0  0
  -30.4940  -21.6170   21.0000 N   0  0  0  0  0  0  0  0  0  0  0  0
  -29.7730  -18.6170   21.7810 C   0  0  0  0  0  1  0  0  0  0  0  0
  -32.1480  -19.1680   21.0360 C   0  0  0  0  0  1  0  0  0  0  0  0
  -30.6560  -19.0590   20.5720 C   0  0  2  0  0  0  0  0  0  0  0  0
  -30.6960  -17.7420   19.5330 C   0  0  0  0  0  2  0  0  0  0  0  0
  -31.2250  -15.0490   19.8870 C   0  0  0  0  0  0  0  0  0  0  0  0
  -30.9990  -12.6740   19.0730 C   0  0  0  0  0  2  0  0  0  0  0  0
  -30.0510  -12.6390   17.8540 C   0  0  0  0  0  2  0  0  0  0  0  0
  -28.5750  -12.5230   18.2930 C   0  0  0  0  0  2  0  0  0  0  0  0
  -28.2230  -13.4730   19.4710 C   0  0  0  0  0  3  0  0  0  0  0  0
  -29.3040  -13.4750   20.5740 C   0  0  0  0  0  2  0  0  0  0  0  0
  -30.5830  -13.8120   19.9310 N   0  0  0  0  0  0  0  0  0  0  0  0
  -32.4060  -15.0710   19.5530 O   0  0  0  0  0  0  0  0  0  0  0  0
  -30.4820  -16.2450   19.9980 N   0  0  0  0  0  0  0  0  0  0  0  0
  -29.5190  -16.0630   20.2440 H   0  0  0  0  0  0  0  0  0  0  0  0
  -25.8920  -14.1490   20.3050 C   0  0  0  0  0  0  0  0  0  0  0  0
  -24.8030  -13.4190   20.6900 C   0  0  0  0  0  0  0  0  0  0  0  0
  -25.1960  -12.0470   20.6110 C   0  0  0  0  0  0  0  0  0  0  0  0
  -26.8820  -13.2270   20.0040 N   0  0  0  0  0  0  0  0  0  0  0  0
  -26.4730  -11.9530   20.2540 N   0  0  0  0  0  0  0  0  0  0  0  0
  -24.4110  -10.8180   20.7990 C   0  0  0  0  0  0  0  0  0  0  0  0
  -24.7890   -9.8300   21.7360 C   0  0  0  0  0  3  0  0  0  0  0  0
  -24.0050   -8.6680   21.9070 C   0  0  0  0  0  3  0  0  0  0  0  0
  -22.8270   -8.4880   21.1420 C   0  0  0  0  0  0  0  0  0  0  0  0
  -22.4670   -9.4630   20.1950 C   0  0  0  0  0  3  0  0  0  0  0  0
  -23.2530  -10.6150   20.0200 C   0  0  0  0  0  3  0  0  0  0  0  0
  -22.0190   -7.3790   21.2230 O   0  0  0  0  0  0  0  0  0  0  0  0
  -21.8610   -6.6860   22.3960 C   0  0  0  0  0  0  0  0  0  0  0  0
  -21.3810   -7.3060   23.5690 C   0  0  0  0  0  3  0  0  0  0  0  0
  -21.1670   -6.5400   24.7340 C   0  0  0  0  0  3  0  0  0  0  0  0
  -21.4240   -5.1550   24.7250 C   0  0  0  0  0  0  0  0  0  0  0  0
  -21.8960   -4.5350   23.5540 C   0  0  0  0  0  3  0  0  0  0  0  0
  -22.1070   -5.2980   22.3920 C   0  0  0  0  0  0  0  0  0  0  0  0
  -22.5420   -4.6910   21.2620 F   0  0  0  0  0  0  0  0  0  0  0  0
  -21.2150   -4.4170   25.8410 F   0  0  0  0  0  0  0  0  0  0  0  0
  -23.4380  -13.9570   21.0190 C   0  0  0  0  0  0  0  0  0  0  0  0
  -22.7080  -13.2970   21.9130 N   0  0  0  0  0  0  0  0  0  0  0  0
  -23.0280  -15.0040   20.5180 O   0  0  0  0  0  0  0  0  0  0  0  0
  -23.0530  -12.4630   22.3640 H   0  0  0  0  0  0  0  0  0  0  0  0
  -21.7920  -13.6440   22.1610 H   0  0  0  0  0  0  0  0  0  0  0  0
  -26.1150  -15.5150   20.1540 N   0  0  0  0  0  0  0  0  0  0  0  0
  -25.3850  -16.2020   20.3130 H   0  0  0  0  0  0  0  0  0  0  0  0
  -26.9580  -15.9150   19.7580 H   0  0  0  0  0  0  0  0  0  0  0  0
  -29.7200  -23.3680   23.3900 C   0  0  0  0  0  1  0  0  0  0  0  0
  -30.3240  -23.8250   22.0510 C   0  0  0  0  0  2  0  0  0  0  0  0
  -28.1760  -24.6930   19.7730 C   0  0  0  0  0  2  0  0  0  0  0  0
  -28.5120  -26.1720   20.0790 O   0  0  0  0  0  0  0  0  0  0  0  0
  -24.7330  -31.7000   23.1360 C   0  0  0  0  0  0  0  0  0  0  0  0
  -27.4550  -27.1550   19.9890 C   0  0  0  0  0  0  0  0  0  0  0  0
  -23.5800  -30.3250   21.4450 C   0  0  0  0  0  3  0  0  0  0  0  0
  -25.0830  -28.8400   19.9760 C   0  0  0  0  0  0  0  0  0  0  0  0
  -26.1300  -30.6550   21.3190 C   0  0  0  0  0  2  0  0  0  0  0  0
  -26.2390  -29.2880   20.6270 C   0  0  0  0  0  0  0  0  0  0  0  0
  -27.4210  -28.4550   20.6290 C   0  0  0  0  0  3  0  0  0  0  0  0
  -26.2800  -26.8300   19.2690 C   0  0  0  0  0  3  0  0  0  0  0  0
  -25.1160  -27.6270   19.2760 C   0  0  0  0  0  3  0  0  0  0  0  0
  -23.8250  -29.6940   20.0470 C   0  0  0  0  0  2  0  0  0  0  0  0
  -24.8330  -30.9140   22.0230 N   0  0  0  0  0  0  0  0  0  0  0  0
  -23.6340  -31.9440   23.6620 O   0  0  0  0  0  0  0  0  0  0  0  0
  -22.9190  -29.2730   22.3710 C   0  0  0  0  0  0  0  0  0  0  0  0
  -21.5950  -29.0840   22.2330 N   0  0  0  0  0  0  0  0  0  0  0  0
  -23.6030  -28.6280   23.1700 O   0  0  0  0  0  0  0  0  0  0  0  0
  -21.1020  -29.6570   21.5630 H   0  0  0  0  0  0  0  0  0  0  0  0
  -18.2300  -27.8150   22.6920 C   0  0  0  0  0  0  0  0  0  0  0  0
  -20.7850  -28.1070   22.9710 C   0  0  0  0  0  3  0  0  0  0  0  0
  -20.9080  -26.6980   22.3450 C   0  0  0  0  0  2  0  0  0  0  0  0
  -19.8120  -26.3930   21.3190 C   0  0  0  0  0  2  0  0  0  0  0  0
  -18.4280  -26.4940   21.9670 C   0  0  0  0  0  2  0  0  0  0  0  0
  -19.3360  -28.5800   23.1480 C   0  0  0  0  0  0  0  0  0  0  0  0
  -19.0970  -29.8180   23.7840 C   0  0  0  0  0  3  0  0  0  0  0  0
  -17.7840  -30.2890   23.9690 C   0  0  0  0  0  3  0  0  0  0  0  0
  -16.6930  -29.5200   23.5310 C   0  0  0  0  0  3  0  0  0  0  0  0
  -16.9160  -28.2840   22.8980 C   0  0  0  0  0  3  0  0  0  0  0  0
  -25.9880  -32.3480   23.7940 C   0  0  0  0  0  3  0  0  0  0  0  0
  -26.5120  -31.5460   25.0490 C   0  0  1  0  0  0  0  0  0  0  0  0
  -25.4170  -31.2460   26.0990 C   0  0  0  0  0  1  0  0  0  0  0  0
  -27.1320  -30.1980   24.6210 C   0  0  0  0  0  1  0  0  0  0  0  0
  -27.6420  -32.3430   25.7450 C   0  0  0  0  0  1  0  0  0  0  0  0
  -25.6380  -33.7230   24.1760 N   0  0  0  0  0  0  0  0  0  0  0  0
  -25.9280  -34.8150   23.4550 C   0  0  0  0  0  0  0  0  0  0  0  0
  -26.5870  -34.7680   22.4140 O   0  0  0  0  0  0  0  0  0  0  0  0
  -25.0500  -33.8300   24.9910 H   0  0  0  0  0  0  0  0  0  0  0  0
  -24.1350  -36.5650   23.1910 C   0  0  0  0  0  1  0  0  0  0  0  0
  -25.4020  -36.1700   23.9670 C   0  0  0  0  0  3  0  0  0  0  0  0
  -27.5180  -37.0970   24.7990 C   0  0  0  0  0  1  0  0  0  0  0  0
  -26.3970  -37.2600   23.8770 N   0  0  0  0  0  0  0  0  0  0  0  0
  -25.9630  -38.1590   24.0620 H   0  0  0  0  0  0  0  0  0  0  0  0
  1  5  1  0
  1  2  2  0
  2  3  1  0
  3  6  2  0
  3 50  1  0
  4  9  1  0
  4  6  1  0
  5  4  2  0
  9  8  1  1
  9  7  1  0
 10 19  1  0
 10  9  1  0
 11 17  1  0
 11 19  1  0
 12 17  1  0
 13 14  1  0
 13 12  1  0
 15 14  1  0
 15 24  1  0
 15 16  1  0
 17 16  1  0
 18 11  2  0
 19 20  1  0
 21 22  2  0
 22 41  1  0
 23 22  1  0
 23 26  1  0
 24 25  1  0
 24 21  1  0
 25 23  2  0
 26 27  1  0
 27 28  2  0
 29 32  1  0
 29 28  1  0
 30 29  2  0
 31 30  1  0
 31 26  2  0
 32 33  1  0
 33 34  1  0
 34 35  2  0
 36 35  1  0
 36 40  1  0
 37 36  2  0
 38 33  2  0
 38 37  1  0
 39 38  1  0
 41 42  1  0
 42 45  1  0
 42 44  1  0
 43 41  2  0
 46 21  1  0
 46 47  1  0
 48 46  1  0
 50 49  1  0
 51  2  1  0
 51 52  1  0
 53 64  2  0
 54 52  1  0
 54 59  1  0
 55 63  1  0
 55 65  1  0
 56 62  1  0
 56 58  1  0
 57 63  1  0
 58 59  2  0
 58 57  1  0
 60 61  1  0
 60 54  2  0
 61 56  2  0
 62 55  1  0
 63 53  1  0
 65 67  2  0
 66 65  1  0
 68 66  1  0
 69 78  2  0
 69 74  1  0
 70 66  1  0
 70 74  1  0
 71 70  1  0
 72 73  1  0
 72 71  1  0
 73 69  1  0
 74 75  2  0
 75 76  1  0
 77 76  2  0
 78 77  1  0
 79 53  1  0
 79 84  1  0
 79 80  1  0
 80 83  1  1
 80 81  1  0
 82 80  1  0
 84 87  1  0
 85 89  1  0
 85 84  1  0
 86 85  2  0
 89 88  1  0
 91 89  1  0
 91 92  1  0
 91 90  1  0
M  ISO  4  11 100  19 100  51 101  52 101
M  END
>  <TORSDO>  (6) 
F 20

>  <SCORE>  (6) 
-12.677

>  <name>  (6) 
5

>  <ligand_id>  (6) 
5

>  <original_smiles>  (6) 
[H]c1nc(C(C([H])([H])[H])(C([H])([H])[H])C([H])([H])N([H])C(=O)N2C([H])([H])C([H])([H])C([H])([H])C([H])(n3nc(-c4c([H])c([H])c(Oc5c([H])c([H])c(F)c([H])c5F)c([H])c4[H])c(C(=O)N([H])[H])c3N([H])[H])C2([H])[H])nc(C([H])([H])C([H])([H])[H])c1C([H])([H])Oc1c([H])c([H])c2c(c1[H])C([H])([H])N(C(=O)C([H])(N([H])C(=O)C([H])(N([H])C([H])([H])[H])C([H])([H])[H])C(C([H])([H])[H])(C([H])([H])[H])C([H])([H])[H])C([H])(C(=O)N([H])C1([H])c3c([H])c([H])c([H])c([H])c3C([H])([H])C([H])([H])C1([H])[H])C2([H])[H]

>  <smiles>  (6) 
[H]c1nc(C(C([H])([H])[H])(C([H])([H])[H])C([H])([H])N([H])C(=O)N2C([H])([H])C([H])([H])C([H])([H])C([H])(n3nc(-c4c([H])c([H])c(Oc5c([H])c([H])c(F)c([H])c5F)c([H])c4[H])c(C(=O)N([H])[H])c3N([H])[H])C2([H])[H])nc(C([H])([H])C([H])([H])[H])c1C([H])([H])Oc1c([H])c([H])c2c(c1[H])C([H])([H])N(C(=O)C([H])(N([H])C(=O)C([H])(N([H])C([H])([H])[H])C([H])([H])[H])C(C([H])([H])[H])(C([H])([H])[H])C([H])([H])[H])C([H])(C(=O)N([H])C1([H])c3c([H])c([H])c([H])c([H])c3C([H])([H])C([H])([H])C1([H])[H])C2([H])[H]

$$$$
6:0:0
     RDKit          3D

 92100  0  0  1  0  0  0  0  0999 V2000
  -30.2180  -20.7290   21.3590 C   0  0  0  0  0  3  0  0  0  0  0  0
  -30.6520  -19.4180   21.3070 C   0  0  0  0  0  0  0  0  0  0  0  0
  -29.9210  -18.7960   20.2440 C   0  0  0  0  0  0  0  0  0  0  0  0
  -29.1120  -19.7510   19.6950 N   0  0  0  0  0  0  0  0  0  0  0  0
  -29.2960  -20.9640   20.3560 N   0  0  0  0  0  0  0  0  0  0  0  0
  -31.7080  -18.7890   22.1800 C   0  0  1  0  0  0  0  0  0  0  0  0
  -32.5030  -18.0060   21.4530 F   0  0  0  0  0  0  0  0  0  0  0  0
  -32.4500  -19.7380   22.7500 F   0  0  0  0  0  0  0  0  0  0  0  0
  -31.1330  -18.0610   23.1350 F   0  0  0  0  0  0  0  0  0  0  0  0
  -30.0680  -17.3330   19.6200 C   0  0  0  0  0  2  0  0  0  0  0  0
  -30.6720  -14.8350   20.0650 C   0  0  0  0  0  0  0  0  0  0  0  0
  -30.3710  -12.6150   18.9340 C   0  0  0  0  0  2  0  0  0  0  0  0
  -29.3580  -12.7520   17.7730 C   0  0  0  0  0  2  0  0  0  0  0  0
  -27.9110  -12.5780   18.2790 C   0  0  0  0  0  2  0  0  0  0  0  0
  -27.6310  -13.3940   19.5680 C   0  0  0  0  0  3  0  0  0  0  0  0
  -28.7550  -13.1850   20.6040 C   0  0  0  0  0  2  0  0  0  0  0  0
  -30.0120  -13.6180   19.9710 N   0  0  0  0  0  0  0  0  0  0  0  0
  -31.7980  -14.9230   19.5650 O   0  0  0  0  0  0  0  0  0  0  0  0
  -29.2090  -16.1200   21.6420 C   0  0  0  0  0  1  0  0  0  0  0  0
  -29.9740  -16.0090   20.3960 N   0  0  0  0  0  0  0  0  0  0  0  0
  -25.2870  -13.9830   20.4300 C   0  0  0  0  0  0  0  0  0  0  0  0
  -24.2380  -13.2070   20.8410 C   0  0  0  0  0  0  0  0  0  0  0  0
  -24.6900  -11.8550   20.7560 C   0  0  0  0  0  0  0  0  0  0  0  0
  -26.3120  -13.1040   20.1200 N   0  0  0  0  0  0  0  0  0  0  0  0
  -25.9630  -11.8170   20.3760 N   0  0  0  0  0  0  0  0  0  0  0  0
  -23.9680  -10.5930   20.9590 C   0  0  0  0  0  0  0  0  0  0  0  0
  -24.4320   -9.6120   21.8630 C   0  0  0  0  0  3  0  0  0  0  0  0
  -23.7090   -8.4160   22.0560 C   0  0  0  0  0  3  0  0  0  0  0  0
  -22.5070   -8.1900   21.3440 C   0  0  0  0  0  0  0  0  0  0  0  0
  -22.0610   -9.1590   20.4280 C   0  0  0  0  0  3  0  0  0  0  0  0
  -22.7850  -10.3470   20.2330 C   0  0  0  0  0  3  0  0  0  0  0  0
  -21.7520   -7.0470   21.4460 O   0  0  0  0  0  0  0  0  0  0  0  0
  -21.7230   -6.3040   22.5990 C   0  0  0  0  0  0  0  0  0  0  0  0
  -21.3350   -6.8640   23.8360 C   0  0  0  0  0  3  0  0  0  0  0  0
  -21.2510   -6.0490   24.9830 C   0  0  0  0  0  3  0  0  0  0  0  0
  -21.5480   -4.6750   24.8940 C   0  0  0  0  0  0  0  0  0  0  0  0
  -21.9290   -4.1150   23.6620 C   0  0  0  0  0  3  0  0  0  0  0  0
  -22.0140   -4.9280   22.5170 C   0  0  0  0  0  0  0  0  0  0  0  0
  -22.3610   -4.3780   21.3280 F   0  0  0  0  0  0  0  0  0  0  0  0
  -21.4610   -3.8900   25.9930 F   0  0  0  0  0  0  0  0  0  0  0  0
  -22.8610  -13.6860   21.1980 C   0  0  0  0  0  0  0  0  0  0  0  0
  -22.1790  -12.9800   22.0930 N   0  0  0  0  0  0  0  0  0  0  0  0
  -22.3990  -14.7210   20.7200 O   0  0  0  0  0  0  0  0  0  0  0  0
  -22.5680  -12.1440   22.5050 H   0  0  0  0  0  0  0  0  0  0  0  0
  -21.2570  -13.2800   22.3740 H   0  0  0  0  0  0  0  0  0  0  0  0
  -25.4450  -15.3570   20.2680 N   0  0  0  0  0  0  0  0  0  0  0  0
  -24.6830  -16.0080   20.4250 H   0  0  0  0  0  0  0  0  0  0  0  0
  -26.2730  -15.8020   19.8920 H   0  0  0  0  0  0  0  0  0  0  0  0
  -28.4730  -22.2130   20.0330 C   0  0  0  0  0  2  0  0  0  0  0  0
  -28.9430  -23.7200   20.4150 C   0  0  0  0  0  3  0  0  0  0  0  0
  -27.9530  -24.9390   20.0060 C   0  0  0  0  0  3  0  0  0  0  0  0
  -28.2130  -26.4080   20.2430 O   0  0  0  0  0  0  0  0  0  0  0  0
  -24.5570  -31.9370   23.2280 C   0  0  0  0  0  0  0  0  0  0  0  0
  -27.1230  -27.3150   20.1730 C   0  0  0  0  0  0  0  0  0  0  0  0
  -23.3370  -30.5390   21.6020 C   0  0  0  0  0  3  0  0  0  0  0  0
  -24.7730  -28.9780   20.1670 C   0  0  0  0  0  0  0  0  0  0  0  0
  -25.8820  -30.8330   21.4020 C   0  0  0  0  0  2  0  0  0  0  0  0
  -25.9510  -29.4490   20.7580 C   0  0  0  0  0  0  0  0  0  0  0  0
  -27.1280  -28.6310   20.7500 C   0  0  0  0  0  3  0  0  0  0  0  0
  -25.9190  -26.9190   19.5420 C   0  0  0  0  0  3  0  0  0  0  0  0
  -24.7610  -27.7200   19.5480 C   0  0  0  0  0  3  0  0  0  0  0  0
  -23.5410  -29.8600   20.2210 C   0  0  0  0  0  2  0  0  0  0  0  0
  -24.6130  -31.1220   22.1330 N   0  0  0  0  0  0  0  0  0  0  0  0
  -23.4780  -32.2190   23.7690 O   0  0  0  0  0  0  0  0  0  0  0  0
  -22.6760  -29.5270   22.5700 C   0  0  0  0  0  0  0  0  0  0  0  0
  -21.3500  -29.3470   22.4480 N   0  0  0  0  0  0  0  0  0  0  0  0
  -23.3560  -28.9100   23.3920 O   0  0  0  0  0  0  0  0  0  0  0  0
  -20.8570  -29.8960   21.7570 H   0  0  0  0  0  0  0  0  0  0  0  0
  -17.9770  -28.1370   22.9630 C   0  0  0  0  0  0  0  0  0  0  0  0
  -20.5350  -28.4130   23.2300 C   0  0  0  0  0  3  0  0  0  0  0  0
  -20.6450  -26.9750   22.6700 C   0  0  0  0  0  2  0  0  0  0  0  0
  -19.5440  -26.6370   21.6600 C   0  0  0  0  0  2  0  0  0  0  0  0
  -18.1620  -26.7810   22.3010 C   0  0  0  0  0  2  0  0  0  0  0  0
  -19.0930  -28.9090   23.3860 C   0  0  0  0  0  0  0  0  0  0  0  0
  -18.8670  -30.1760   23.9650 C   0  0  0  0  0  3  0  0  0  0  0  0
  -17.5580  -30.6720   24.1270 C   0  0  0  0  0  3  0  0  0  0  0  0
  -16.4580  -29.8980   23.7200 C   0  0  0  0  0  3  0  0  0  0  0  0
  -16.6690  -28.6320   23.1440 C   0  0  0  0  0  3  0  0  0  0  0  0
  -25.8450  -32.5690   23.8370 C   0  0  0  0  0  3  0  0  0  0  0  0
  -25.5360  -33.9650   24.1780 N   0  0  0  0  0  0  0  0  0  0  0  0
  -25.8560  -35.0230   23.4230 C   0  0  0  0  0  0  0  0  0  0  0  0
  -26.5110  -34.9280   22.3810 O   0  0  0  0  0  0  0  0  0  0  0  0
  -24.9540  -34.1130   24.9890 H   0  0  0  0  0  0  0  0  0  0  0  0
  -24.1190  -36.8180   23.1080 C   0  0  0  0  0  1  0  0  0  0  0  0
  -25.3750  -36.4090   23.8960 C   0  0  0  0  0  3  0  0  0  0  0  0
  -27.5210  -37.2950   24.6950 C   0  0  0  0  0  1  0  0  0  0  0  0
  -26.4040  -37.4630   23.7710 N   0  0  0  0  0  0  0  0  0  0  0  0
  -25.9990  -38.3830   23.9300 H   0  0  0  0  0  0  0  0  0  0  0  0
  -26.3760  -31.7930   25.1050 C   0  0  1  0  0  0  0  0  0  0  0  0
  -25.2940  -31.5480   26.1820 C   0  0  0  0  0  1  0  0  0  0  0  0
  -26.9600  -30.4190   24.7020 C   0  0  0  0  0  1  0  0  0  0  0  0
  -27.5330  -32.5870   25.7570 C   0  0  0  0  0  1  0  0  0  0  0  0
  2  1  2  0
  2  6  1  0
  3  2  1  0
  4  3  2  0
  4  5  1  0
  5  1  1  0
  6  8  1  1
  6  9  1  0
  7  6  1  0
 10  3  1  0
 10 20  1  0
 11 20  1  0
 12 17  1  0
 13 14  1  0
 13 12  1  0
 15 14  1  0
 15 24  1  0
 15 16  1  0
 17 11  1  0
 17 16  1  0
 18 11  2  0
 20 19  1  0
 21 22  2  0
 22 41  1  0
 23 22  1  0
 23 26  1  0
 24 25  1  0
 24 21  1  0
 25 23  2  0
 26 27  1  0
 27 28  2  0
 29 32  1  0
 29 28  1  0
 30 29  2  0
 31 30  1  0
 31 26  2  0
 32 33  1  0
 33 34  1  0
 34 35  2  0
 36 35  1  0
 36 40  1  0
 37 36  2  0
 38 33  2  0
 38 37  1  0
 39 38  1  0
 41 42  1  0
 42 45  1  0
 42 44  1  0
 43 41  2  0
 46 47  1  0
 46 21  1  0
 48 46  1  0
 49  5  1  0
 49 50  1  0
 51 52  1  0
 51 50  2  0
 53 64  2  0
 54 52  1  0
 54 59  1  0
 55 63  1  0
 55 65  1  0
 56 62  1  0
 56 58  1  0
 57 63  1  0
 58 57  1  0
 59 58  2  0
 60 61  1  0
 60 54  2  0
 61 56  2  0
 62 55  1  0
 63 53  1  0
 65 67  2  0
 66 65  1  0
 68 66  1  0
 69 78  2  0
 69 74  1  0
 70 66  1  0
 70 74  1  0
 71 70  1  0
 72 73  1  0
 72 71  1  0
 73 69  1  0
 74 75  2  0
 75 76  1  0
 77 76  2  0
 78 77  1  0
 79 53  1  0
 79 80  1  0
 79 89  1  0
 80 83  1  0
 81 85  1  0
 81 80  1  0
 82 81  2  0
 85 84  1  0
 87 85  1  0
 87 88  1  0
 87 86  1  0
 89 92  1  1
 89 90  1  0
 91 89  1  0
M  ISO  4  11 100  20 100  51 101  52 101
M  END
>  <TORSDO>  (7) 
F 21

>  <SCORE>  (7) 
-13.125

>  <name>  (7) 
6

>  <ligand_id>  (7) 
6

>  <original_smiles>  (7) 
[H]c1c([H])c([H])c2c(c1[H])C([H])([H])C([H])([H])C([H])([H])C2([H])N([H])C(=O)C1([H])N(C(=O)C([H])(N([H])C(=O)C([H])(N([H])C([H])([H])[H])C([H])([H])[H])C(C([H])([H])[H])(C([H])([H])[H])C([H])([H])[H])C([H])([H])c2c([H])c(OC([H])([H])C([H])([H])C([H])([H])n3nc(C([H])([H])N(C(=O)N4C([H])([H])C([H])([H])C([H])([H])C([H])(n5nc(-c6c([H])c([H])c(Oc7c([H])c([H])c(F)c([H])c7F)c([H])c6[H])c(C(=O)N([H])[H])c5N([H])[H])C4([H])[H])C([H])([H])[H])c(C(F)(F)F)c3[H])c([H])c([H])c2C1([H])[H]

>  <smiles>  (7) 
[H]c1c([H])c([H])c2c(c1[H])C([H])([H])C([H])([H])C([H])([H])C2([H])N([H])C(=O)C1([H])N(C(=O)C([H])(N([H])C(=O)C([H])(N([H])C([H])([H])[H])C([H])([H])[H])C(C([H])([H])[H])(C([H])([H])[H])C([H])([H])[H])C([H])([H])c2c([H])c(OC([H])([H])C([H])([H])C([H])([H])n3nc(C([H])([H])N(C(=O)N4C([H])([H])C([H])([H])C([H])([H])C([H])(n5nc(-c6c([H])c([H])c(Oc7c([H])c([H])c(F)c([H])c7F)c([H])c6[H])c(C(=O)N([H])[H])c5N([H])[H])C4([H])[H])C([H])([H])[H])c(C(F)(F)F)c3[H])c([H])c([H])c2C1([H])[H]

$$$$
7:0:0
     RDKit          3D

 90 98  0  0  1  0  0  0  0  0999 V2000
  -26.9230  -20.1370   18.7920 C   0  0  0  0  0  0  0  0  0  0  0  0
  -28.5080  -21.1110   19.7460 C   0  0  0  0  0  3  0  0  0  0  0  0
  -25.6300  -19.8950   18.0950 C   0  0  0  0  0  1  0  0  0  0  0  0
  -27.3880  -21.3800   19.0730 N   0  0  0  0  0  0  0  0  0  0  0  0
  -27.6850  -19.1290   19.1900 N   0  0  0  0  0  2  0  0  0  0  0  0
  -28.7500  -19.7240   19.7890 N   0  0  0  0  0  0  0  0  0  0  0  0
  -29.3220  -22.3480   20.2350 C   0  0  0  0  0  2  0  0  0  0  0  0
  -28.5840  -23.7620   20.6120 C   0  0  0  0  0  2  0  0  0  0  0  0
  -28.5060  -25.0430   19.6240 C   0  0  0  0  0  2  0  0  0  0  0  0
  -28.3940  -26.4540   20.1400 O   0  0  0  0  0  0  0  0  0  0  0  0
  -24.5600  -31.8180   23.1360 C   0  0  0  0  0  0  0  0  0  0  0  0
  -27.2490  -27.2810   20.0590 C   0  0  0  0  0  0  0  0  0  0  0  0
  -23.3880  -30.4240   21.4670 C   0  0  0  0  0  3  0  0  0  0  0  0
  -24.8690  -28.8980   20.0370 C   0  0  0  0  0  0  0  0  0  0  0  0
  -25.9280  -30.7610   21.3160 C   0  0  0  0  0  2  0  0  0  0  0  0
  -26.0270  -29.3860   20.6530 C   0  0  0  0  0  0  0  0  0  0  0  0
  -27.2150  -28.5900   20.6530 C   0  0  0  0  0  3  0  0  0  0  0  0
  -26.0640  -26.8520   19.4240 C   0  0  0  0  0  3  0  0  0  0  0  0
  -24.8930  -27.6410   19.4120 C   0  0  0  0  0  3  0  0  0  0  0  0
  -23.6240  -29.7630   20.0820 C   0  0  0  0  0  2  0  0  0  0  0  0
  -24.6440  -31.0200   22.0300 N   0  0  0  0  0  0  0  0  0  0  0  0
  -23.4680  -32.0780   23.6630 O   0  0  0  0  0  0  0  0  0  0  0  0
  -22.7240  -29.3930   22.4130 C   0  0  0  0  0  0  0  0  0  0  0  0
  -21.3980  -29.2160   22.2820 N   0  0  0  0  0  0  0  0  0  0  0  0
  -23.4020  -28.7560   23.2230 O   0  0  0  0  0  0  0  0  0  0  0  0
  -20.9080  -29.7840   21.6050 H   0  0  0  0  0  0  0  0  0  0  0  0
  -18.0240  -27.9970   22.7580 C   0  0  0  0  0  0  0  0  0  0  0  0
  -20.5810  -28.2630   23.0360 C   0  0  0  0  0  3  0  0  0  0  0  0
  -20.6890  -26.8410   22.4390 C   0  0  0  0  0  2  0  0  0  0  0  0
  -19.5910  -26.5300   21.4170 C   0  0  0  0  0  2  0  0  0  0  0  0
  -18.2070  -26.6600   22.0600 C   0  0  0  0  0  2  0  0  0  0  0  0
  -19.1380  -28.7570   23.2020 C   0  0  0  0  0  0  0  0  0  0  0  0
  -18.9130  -30.0090   23.8130 C   0  0  0  0  0  3  0  0  0  0  0  0
  -17.6060  -30.5020   23.9850 C   0  0  0  0  0  3  0  0  0  0  0  0
  -16.5060  -29.7400   23.5570 C   0  0  0  0  0  3  0  0  0  0  0  0
  -16.7160  -28.4890   22.9490 C   0  0  0  0  0  3  0  0  0  0  0  0
  -25.8290  -32.4580   23.7800 C   0  0  0  0  0  3  0  0  0  0  0  0
  -25.4970  -33.8450   24.1380 N   0  0  0  0  0  0  0  0  0  0  0  0
  -25.8130  -34.9190   23.4030 C   0  0  0  0  0  0  0  0  0  0  0  0
  -26.4850  -34.8490   22.3700 O   0  0  0  0  0  0  0  0  0  0  0  0
  -24.9040  -33.9740   24.9450 H   0  0  0  0  0  0  0  0  0  0  0  0
  -24.0520  -36.6890   23.0950 C   0  0  0  0  0  1  0  0  0  0  0  0
  -25.3030  -36.2900   23.8920 C   0  0  0  0  0  3  0  0  0  0  0  0
  -27.4260  -37.1940   24.7280 C   0  0  0  0  0  1  0  0  0  0  0  0
  -26.3160  -37.3630   23.7940 N   0  0  0  0  0  0  0  0  0  0  0  0
  -25.8950  -38.2720   23.9640 H   0  0  0  0  0  0  0  0  0  0  0  0
  -26.3490  -31.6700   25.0440 C   0  0  1  0  0  0  0  0  0  0  0  0
  -25.2550  -31.3990   26.1030 C   0  0  0  0  0  1  0  0  0  0  0  0
  -26.9540  -30.3070   24.6310 C   0  0  0  0  0  1  0  0  0  0  0  0
  -27.4870  -32.4660   25.7260 C   0  0  0  0  0  1  0  0  0  0  0  0
  -29.7210  -18.7230   20.4120 C   0  0  0  0  0  2  0  0  0  0  0  0
  -29.9410  -17.2510   19.6960 C   0  0  0  0  0  2  0  0  0  0  0  0
  -30.7510  -14.7770   20.0090 C   0  0  0  0  0  0  0  0  0  0  0  0
  -30.4430  -12.5320   18.9340 C   0  0  0  0  0  2  0  0  0  0  0  0
  -29.4360  -12.6430   17.7670 C   0  0  0  0  0  2  0  0  0  0  0  0
  -27.9910  -12.4850   18.2750 C   0  0  0  0  0  2  0  0  0  0  0  0
  -27.7050  -13.3480   19.5310 C   0  0  0  0  0  3  0  0  0  0  0  0
  -28.8200  -13.1960   20.5860 C   0  0  0  0  0  2  0  0  0  0  0  0
  -30.0900  -13.5640   19.9420 N   0  0  0  0  0  0  0  0  0  0  0  0
  -31.8580  -14.8860   19.4680 O   0  0  0  0  0  0  0  0  0  0  0  0
  -29.8830  -16.0510   21.9070 C   0  0  0  0  0  1  0  0  0  0  0  0
  -30.0780  -15.9180   20.4610 N   0  0  0  0  0  0  0  0  0  0  0  0
  -25.3710  -13.9620   20.4010 C   0  0  0  0  0  0  0  0  0  0  0  0
  -24.3160  -13.1990   20.8200 C   0  0  0  0  0  0  0  0  0  0  0  0
  -24.7560  -11.8410   20.7440 C   0  0  0  0  0  0  0  0  0  0  0  0
  -26.3850  -13.0720   20.0920 N   0  0  0  0  0  0  0  0  0  0  0  0
  -26.0260  -11.7900   20.3610 N   0  0  0  0  0  0  0  0  0  0  0  0
  -24.0230  -10.5870   20.9600 C   0  0  0  0  0  0  0  0  0  0  0  0
  -24.4770   -9.6140   21.8770 C   0  0  0  0  0  3  0  0  0  0  0  0
  -23.7440   -8.4250   22.0800 C   0  0  0  0  0  3  0  0  0  0  0  0
  -22.5420   -8.2010   21.3660 C   0  0  0  0  0  0  0  0  0  0  0  0
  -22.1070   -9.1630   20.4380 C   0  0  0  0  0  3  0  0  0  0  0  0
  -22.8410  -10.3430   20.2320 C   0  0  0  0  0  3  0  0  0  0  0  0
  -21.7780   -7.0650   21.4790 O   0  0  0  0  0  0  0  0  0  0  0  0
  -21.7310   -6.3420   22.6440 C   0  0  0  0  0  0  0  0  0  0  0  0
  -21.3330   -6.9240   23.8670 C   0  0  0  0  0  3  0  0  0  0  0  0
  -21.2330   -6.1290   25.0260 C   0  0  0  0  0  3  0  0  0  0  0  0
  -21.5190   -4.7520   24.9620 C   0  0  0  0  0  0  0  0  0  0  0  0
  -21.9100   -4.1700   23.7450 C   0  0  0  0  0  3  0  0  0  0  0  0
  -22.0120   -4.9630   22.5880 C   0  0  0  0  0  0  0  0  0  0  0  0
  -22.3690   -4.3910   21.4120 F   0  0  0  0  0  0  0  0  0  0  0  0
  -21.4150   -3.9860   26.0730 F   0  0  0  0  0  0  0  0  0  0  0  0
  -22.9440  -13.6920   21.1770 C   0  0  0  0  0  0  0  0  0  0  0  0
  -22.2610  -13.0020   22.0830 N   0  0  0  0  0  0  0  0  0  0  0  0
  -22.4890  -14.7250   20.6880 O   0  0  0  0  0  0  0  0  0  0  0  0
  -22.6430  -12.1660   22.4990 H   0  0  0  0  0  0  0  0  0  0  0  0
  -21.3440  -13.3140   22.3650 H   0  0  0  0  0  0  0  0  0  0  0  0
  -25.5450  -15.3330   20.2360 N   0  0  0  0  0  0  0  0  0  0  0  0
  -24.8000  -15.9980   20.4140 H   0  0  0  0  0  0  0  0  0  0  0  0
  -26.3940  -15.7720   19.8990 H   0  0  0  0  0  0  0  0  0  0  0  0
  1  4  2  0
  1  5  1  0
  2  6  1  0
  2  7  1  0
  3  1  1  0
  4  2  1  0
  5  6  1  0
  6 51  1  0
  7  8  1  0
  9 10  1  0
  9  8  1  0
 11 22  2  0
 12 10  1  0
 12 17  1  0
 13 21  1  0
 13 23  1  0
 14 20  1  0
 14 16  1  0
 15 21  1  0
 16 17  2  0
 16 15  1  0
 18 12  2  0
 19 18  1  0
 19 14  2  0
 20 13  1  0
 21 11  1  0
 23 25  2  0
 24 23  1  0
 26 24  1  0
 27 36  2  0
 27 32  1  0
 28 24  1  0
 28 32  1  0
 29 28  1  0
 30 31  1  0
 30 29  1  0
 31 27  1  0
 32 33  2  0
 33 34  1  0
 35 34  2  0
 36 35  1  0
 37 11  1  0
 37 38  1  0
 37 47  1  0
 38 41  1  0
 39 43  1  0
 39 38  1  0
 40 39  2  0
 43 42  1  0
 45 43  1  0
 45 46  1  0
 45 44  1  0
 47 50  1  1
 47 48  1  0
 49 47  1  0
 52 51  1  0
 52 62  1  0
 53 62  1  0
 54 59  1  0
 55 56  1  0
 55 54  1  0
 57 56  1  0
 57 66  1  0
 57 58  1  0
 59 53  1  0
 59 58  1  0
 60 53  2  0
 62 61  1  0
 63 64  2  0
 64 83  1  0
 65 64  1  0
 65 68  1  0
 66 67  1  0
 66 63  1  0
 67 65  2  0
 68 69  1  0
 69 70  2  0
 71 74  1  0
 71 70  1  0
 72 71  2  0
 73 72  1  0
 73 68  2  0
 74 75  1  0
 75 76  1  0
 76 77  2  0
 78 77  1  0
 78 82  1  0
 79 78  2  0
 80 75  2  0
 80 79  1  0
 81 80  1  0
 83 84  1  0
 84 87  1  0
 84 86  1  0
 85 83  2  0
 88 63  1  0
 88 89  1  0
 90 88  1  0
M  ISO  4   9 101  10 101  53 100  62 100
M  END
>  <TORSDO>  (8) 
F 21

>  <SCORE>  (8) 
-12.935

>  <name>  (8) 
7

>  <ligand_id>  (8) 
7

>  <original_smiles>  (8) 
[H]c1c([H])c([H])c2c(c1[H])C([H])([H])C([H])([H])C([H])([H])C2([H])N([H])C(=O)C1([H])N(C(=O)C([H])(N([H])C(=O)C([H])(N([H])C([H])([H])[H])C([H])([H])[H])C(C([H])([H])[H])(C([H])([H])[H])C([H])([H])[H])C([H])([H])c2c([H])c(OC([H])([H])C([H])([H])C([H])([H])c3nc(C([H])([H])[H])nn3C([H])([H])C([H])([H])N(C(=O)N3C([H])([H])C([H])([H])C([H])([H])C([H])(n4nc(-c5c([H])c([H])c(Oc6c([H])c([H])c(F)c([H])c6F)c([H])c5[H])c(C(=O)N([H])[H])c4N([H])[H])C3([H])[H])C([H])([H])[H])c([H])c([H])c2C1([H])[H]

>  <smiles>  (8) 
[H]c1c([H])c([H])c2c(c1[H])C([H])([H])C([H])([H])C([H])([H])C2([H])N([H])C(=O)C1([H])N(C(=O)C([H])(N([H])C(=O)C([H])(N([H])C([H])([H])[H])C([H])([H])[H])C(C([H])([H])[H])(C([H])([H])[H])C([H])([H])[H])C([H])([H])c2c([H])c(OC([H])([H])C([H])([H])C([H])([H])c3nc(C([H])([H])[H])nn3C([H])([H])C([H])([H])N(C(=O)N3C([H])([H])C([H])([H])C([H])([H])C([H])(n4nc(-c5c([H])c([H])c(Oc6c([H])c([H])c(F)c([H])c6F)c([H])c5[H])c(C(=O)N([H])[H])c4N([H])[H])C3([H])[H])C([H])([H])[H])c([H])c([H])c2C1([H])[H]

$$$$
8:0:0
     RDKit          3D

 89 97  0  0  1  0  0  0  0  0999 V2000
  -30.0940  -23.4270   19.6290 C   0  0  0  0  0  3  0  0  0  0  0  0
  -30.8810  -22.2980   19.3460 C   0  0  0  0  0  3  0  0  0  0  0  0
  -28.8390  -23.2560   20.2180 C   0  0  0  0  0  0  0  0  0  0  0  0
  -29.3480  -20.7890   20.2150 C   0  0  0  0  0  0  0  0  0  0  0  0
  -30.5090  -21.0230   19.6140 N   0  0  0  0  0  0  0  0  0  0  0  0
  -28.5070  -21.8880   20.4970 N   0  0  0  0  0  0  0  0  0  0  0  0
  -27.8610  -18.8780   19.3250 C   0  0  0  0  0  1  0  0  0  0  0  0
  -28.9520  -19.1640   20.3640 C   0  0  0  0  0  3  0  0  0  0  0  0
  -30.0390  -17.8310   20.3280 C   0  0  0  0  0  2  0  0  0  0  0  0
  -30.4480  -15.0580   20.2920 C   0  0  0  0  0  0  0  0  0  0  0  0
  -30.3320  -12.6990   19.3420 C   0  0  0  0  0  2  0  0  0  0  0  0
  -29.3850  -12.6470   18.1180 C   0  0  0  0  0  2  0  0  0  0  0  0
  -27.9240  -12.4390   18.5630 C   0  0  0  0  0  2  0  0  0  0  0  0
  -27.5320  -13.3420   19.7620 C   0  0  0  0  0  3  0  0  0  0  0  0
  -28.6030  -13.3520   20.8720 C   0  0  0  0  0  2  0  0  0  0  0  0
  -29.8550  -13.7930   20.2410 N   0  0  0  0  0  0  0  0  0  0  0  0
  -31.6540  -15.1090   20.0250 O   0  0  0  0  0  0  0  0  0  0  0  0
  -29.6820  -16.2630   20.4310 N   0  0  0  0  0  0  0  0  0  0  0  0
  -28.7040  -16.0810   20.6000 H   0  0  0  0  0  0  0  0  0  0  0  0
  -25.1590  -13.8980   20.5310 C   0  0  0  0  0  0  0  0  0  0  0  0
  -24.1020  -13.1150   20.9050 C   0  0  0  0  0  0  0  0  0  0  0  0
  -24.5700  -11.7670   20.8600 C   0  0  0  0  0  0  0  0  0  0  0  0
  -26.2030  -13.0270   20.2740 N   0  0  0  0  0  0  0  0  0  0  0  0
  -25.8600  -11.7400   20.5380 N   0  0  0  0  0  0  0  0  0  0  0  0
  -23.8470  -10.5030   21.0430 C   0  0  0  0  0  0  0  0  0  0  0  0
  -24.2770   -9.5340   21.9760 C   0  0  0  0  0  3  0  0  0  0  0  0
  -23.5520   -8.3340   22.1470 C   0  0  0  0  0  3  0  0  0  0  0  0
  -22.3840   -8.0950   21.3860 C   0  0  0  0  0  0  0  0  0  0  0  0
  -21.9770   -9.0510   20.4400 C   0  0  0  0  0  3  0  0  0  0  0  0
  -22.7010  -10.2430   20.2660 C   0  0  0  0  0  3  0  0  0  0  0  0
  -21.6310   -6.9490   21.4690 O   0  0  0  0  0  0  0  0  0  0  0  0
  -21.5660   -6.2150   22.6260 C   0  0  0  0  0  0  0  0  0  0  0  0
  -21.0890   -6.7680   23.8360 C   0  0  0  0  0  3  0  0  0  0  0  0
  -20.9720   -5.9570   24.9830 C   0  0  0  0  0  3  0  0  0  0  0  0
  -21.3190   -4.5950   24.9220 C   0  0  0  0  0  0  0  0  0  0  0  0
  -21.7880   -4.0420   23.7180 C   0  0  0  0  0  3  0  0  0  0  0  0
  -21.9080   -4.8490   22.5730 C   0  0  0  0  0  0  0  0  0  0  0  0
  -22.3400   -4.3050   21.4110 F   0  0  0  0  0  0  0  0  0  0  0  0
  -21.2010   -3.8130   26.0210 F   0  0  0  0  0  0  0  0  0  0  0  0
  -22.7060  -13.5880   21.1890 C   0  0  0  0  0  0  0  0  0  0  0  0
  -21.9870  -12.8860   22.0580 N   0  0  0  0  0  0  0  0  0  0  0  0
  -22.2610  -14.6130   20.6750 O   0  0  0  0  0  0  0  0  0  0  0  0
  -22.3610  -12.0570   22.4980 H   0  0  0  0  0  0  0  0  0  0  0  0
  -21.0490  -13.1840   22.2910 H   0  0  0  0  0  0  0  0  0  0  0  0
  -25.3120  -15.2700   20.3580 N   0  0  0  0  0  0  0  0  0  0  0  0
  -24.5320  -15.9090   20.4790 H   0  0  0  0  0  0  0  0  0  0  0  0
  -26.1200  -15.7060   19.9360 H   0  0  0  0  0  0  0  0  0  0  0  0
  -27.8530  -24.5890   20.4300 C   0  0  0  0  0  2  0  0  0  0  0  0
  -28.2120  -26.1230   20.2650 O   0  0  0  0  0  0  0  0  0  0  0  0
  -24.6440  -31.9230   23.2420 C   0  0  0  0  0  0  0  0  0  0  0  0
  -27.1820  -27.1500   20.2210 C   0  0  0  0  0  0  0  0  0  0  0  0
  -23.4360  -30.5300   21.6110 C   0  0  0  0  0  3  0  0  0  0  0  0
  -24.8730  -28.9420   20.1890 C   0  0  0  0  0  0  0  0  0  0  0  0
  -25.9960  -30.7680   21.4460 C   0  0  0  0  0  2  0  0  0  0  0  0
  -26.0590  -29.3700   20.7970 C   0  0  0  0  0  0  0  0  0  0  0  0
  -27.2150  -28.4900   20.7980 C   0  0  0  0  0  3  0  0  0  0  0  0
  -25.9730  -26.8470   19.5570 C   0  0  0  0  0  3  0  0  0  0  0  0
  -24.8460  -27.6960   19.5510 C   0  0  0  0  0  3  0  0  0  0  0  0
  -23.6530  -29.8490   20.2330 C   0  0  0  0  0  2  0  0  0  0  0  0
  -24.7130  -31.0960   22.1550 N   0  0  0  0  0  0  0  0  0  0  0  0
  -23.5600  -32.2160   23.7690 O   0  0  0  0  0  0  0  0  0  0  0  0
  -22.7510  -29.5300   22.5760 C   0  0  0  0  0  0  0  0  0  0  0  0
  -21.4220  -29.3630   22.4470 N   0  0  0  0  0  0  0  0  0  0  0  0
  -23.4180  -28.9070   23.4060 O   0  0  0  0  0  0  0  0  0  0  0  0
  -20.9400  -29.9120   21.7510 H   0  0  0  0  0  0  0  0  0  0  0  0
  -18.0370  -28.1720   22.9510 C   0  0  0  0  0  0  0  0  0  0  0  0
  -20.5970  -28.4320   23.2230 C   0  0  0  0  0  3  0  0  0  0  0  0
  -20.6960  -26.9970   22.6550 C   0  0  0  0  0  2  0  0  0  0  0  0
  -19.5960  -26.6720   21.6400 C   0  0  0  0  0  2  0  0  0  0  0  0
  -18.2130  -26.8200   22.2810 C   0  0  0  0  0  2  0  0  0  0  0  0
  -19.1550  -28.9360   23.3800 C   0  0  0  0  0  0  0  0  0  0  0  0
  -18.9370  -30.2000   23.9690 C   0  0  0  0  0  3  0  0  0  0  0  0
  -17.6310  -30.7030   24.1320 C   0  0  0  0  0  3  0  0  0  0  0  0
  -16.5280  -29.9370   23.7210 C   0  0  0  0  0  3  0  0  0  0  0  0
  -16.7310  -28.6750   23.1370 C   0  0  0  0  0  3  0  0  0  0  0  0
  -25.9270  -32.5540   23.8650 C   0  0  0  0  0  3  0  0  0  0  0  0
  -26.4400  -31.7790   25.1420 C   0  0  1  0  0  0  0  0  0  0  0  0
  -25.3470  -31.5410   26.2100 C   0  0  0  0  0  1  0  0  0  0  0  0
  -27.0190  -30.4010   24.7550 C   0  0  0  0  0  1  0  0  0  0  0  0
  -27.5950  -32.5680   25.8050 C   0  0  0  0  0  1  0  0  0  0  0  0
  -25.6190  -33.9530   24.2050 N   0  0  0  0  0  0  0  0  0  0  0  0
  -25.9240  -35.0100   23.4410 C   0  0  0  0  0  0  0  0  0  0  0  0
  -26.5600  -34.9120   22.3880 O   0  0  0  0  0  0  0  0  0  0  0  0
  -25.0520  -34.1030   25.0250 H   0  0  0  0  0  0  0  0  0  0  0  0
  -24.1700  -36.7940   23.1650 C   0  0  0  0  0  1  0  0  0  0  0  0
  -25.4490  -36.3970   23.9190 C   0  0  0  0  0  3  0  0  0  0  0  0
  -27.6090  -37.3010   24.6590 C   0  0  0  0  0  1  0  0  0  0  0  0
  -26.4690  -37.4570   23.7590 N   0  0  0  0  0  0  0  0  0  0  0  0
  -26.0640  -38.3750   23.9190 H   0  0  0  0  0  0  0  0  0  0  0  0
  1  3  1  0
  2  5  1  0
  2  1  2  0
  3 48  1  0
  3  6  2  0
  4  8  1  0
  4  6  1  0
  5  4  2  0
  8  7  1  0
  9  8  1  0
  9 18  1  0
 10 18  1  0
 11 16  1  0
 12 13  1  0
 12 11  1  0
 14 13  1  0
 14 23  1  0
 14 15  1  0
 16 10  1  0
 16 15  1  0
 17 10  2  0
 18 19  1  0
 20 21  2  0
 21 40  1  0
 22 21  1  0
 22 25  1  0
 23 20  1  0
 23 24  1  0
 24 22  2  0
 25 26  1  0
 26 27  2  0
 28 31  1  0
 28 27  1  0
 29 28  2  0
 30 29  1  0
 30 25  2  0
 31 32  1  0
 32 33  1  0
 33 34  2  0
 35 34  1  0
 35 39  1  0
 36 35  2  0
 37 32  2  0
 37 36  1  0
 38 37  1  0
 40 41  1  0
 41 44  1  0
 41 43  1  0
 42 40  2  0
 45 46  1  0
 45 20  1  0
 47 45  1  0
 49 48  1  0
 50 61  2  0
 51 49  1  0
 51 56  1  0
 52 60  1  0
 52 62  1  0
 53 59  1  0
 53 55  1  0
 54 60  1  0
 55 56  2  0
 55 54  1  0
 57 51  2  0
 58 57  1  0
 58 53  2  0
 59 52  1  0
 60 50  1  0
 62 64  2  0
 63 62  1  0
 65 63  1  0
 66 75  2  0
 66 71  1  0
 67 63  1  0
 67 71  1  0
 68 67  1  0
 69 70  1  0
 69 68  1  0
 70 66  1  0
 71 72  2  0
 72 73  1  0
 74 73  2  0
 75 74  1  0
 76 50  1  0
 76 81  1  0
 76 77  1  0
 77 80  1  1
 77 78  1  0
 79 77  1  0
 81 84  1  0
 82 86  1  0
 82 81  1  0
 83 82  2  0
 86 85  1  0
 88 86  1  0
 88 89  1  0
 88 87  1  0
M  ISO  4  10 100  18 100  48 101  49 101
M  END
>  <TORSDO>  (9) 
F 19

>  <SCORE>  (9) 
-14.824

>  <name>  (9) 
8

>  <ligand_id>  (9) 
8

>  <original_smiles>  (9) 
[H]c1nc(C([H])(C([H])([H])[H])C([H])([H])N([H])C(=O)N2C([H])([H])C([H])([H])C([H])([H])C([H])(n3nc(-c4c([H])c([H])c(Oc5c([H])c([H])c(F)c([H])c5F)c([H])c4[H])c(C(=O)N([H])[H])c3N([H])[H])C2([H])[H])nc(C([H])([H])Oc2c([H])c([H])c3c(c2[H])C([H])([H])N(C(=O)C([H])(N([H])C(=O)C([H])(N([H])C([H])([H])[H])C([H])([H])[H])C(C([H])([H])[H])(C([H])([H])[H])C([H])([H])[H])C([H])(C(=O)N([H])C2([H])c4c([H])c([H])c([H])c([H])c4C([H])([H])C([H])([H])C2([H])[H])C3([H])[H])c1[H]

>  <smiles>  (9) 
[H]c1nc(C([H])(C([H])([H])[H])C([H])([H])N([H])C(=O)N2C([H])([H])C([H])([H])C([H])([H])C([H])(n3nc(-c4c([H])c([H])c(Oc5c([H])c([H])c(F)c([H])c5F)c([H])c4[H])c(C(=O)N([H])[H])c3N([H])[H])C2([H])[H])nc(C([H])([H])Oc2c([H])c([H])c3c(c2[H])C([H])([H])N(C(=O)C([H])(N([H])C(=O)C([H])(N([H])C([H])([H])[H])C([H])([H])[H])C(C([H])([H])[H])(C([H])([H])[H])C([H])([H])[H])C([H])(C(=O)N([H])C2([H])c4c([H])c([H])c([H])c([H])c4C([H])([H])C([H])([H])C2([H])[H])C3([H])[H])c1[H]

$$$$
9:0:0
     RDKit          3D

 90 98  0  0  1  0  0  0  0  0999 V2000
  -30.0260  -22.4440   19.1660 C   0  0  0  0  0  3  0  0  0  0  0  0
  -29.0220  -22.8150   20.0560 C   0  0  0  0  0  0  0  0  0  0  0  0
  -29.7120  -20.3410   20.1840 C   0  0  0  0  0  3  0  0  0  0  0  0
  -27.9350  -21.1430   21.7300 C   0  0  0  0  0  1  0  0  0  0  0  0
  -28.8830  -21.4400   20.6550 N   0  0  0  0  0  0  0  0  0  0  0  0
  -30.3950  -21.0740   19.2710 N   0  0  0  0  0  0  0  0  0  0  0  0
  -31.1500  -20.6800   18.7230 H   0  0  0  0  0  0  0  0  0  0  0  0
  -31.4460  -18.8310   21.5440 C   0  0  0  0  0  1  0  0  0  0  0  0
  -30.1430  -18.6840   20.7470 C   0  0  0  0  0  3  0  0  0  0  0  0
  -30.8400  -15.7600   20.3090 C   0  0  0  0  0  0  0  0  0  0  0  0
  -30.8610  -13.2550   19.5300 C   0  0  0  0  0  2  0  0  0  0  0  0
  -29.9880  -12.9010   18.3000 C   0  0  0  0  0  2  0  0  0  0  0  0
  -28.5380  -12.6080   18.7240 C   0  0  0  0  0  2  0  0  0  0  0  0
  -28.0210  -13.6330   19.7600 C   0  0  0  0  0  3  0  0  0  0  0  0
  -29.0340  -13.9260   20.8880 C   0  0  0  0  0  2  0  0  0  0  0  0
  -30.2510  -14.4500   20.2340 N   0  0  0  0  0  0  0  0  0  0  0  0
  -32.0790  -15.6770   20.3430 O   0  0  0  0  0  0  0  0  0  0  0  0
  -30.1460  -17.1060   20.0940 N   0  0  0  0  0  0  0  0  0  0  0  0
  -25.6430  -14.2220   20.4500 C   0  0  0  0  0  0  0  0  0  0  0  0
  -24.5610  -13.4600   20.7830 C   0  0  0  0  0  0  0  0  0  0  0  0
  -25.0140  -12.1040   20.7770 C   0  0  0  0  0  0  0  0  0  0  0  0
  -26.6830  -13.3320   20.2470 N   0  0  0  0  0  0  0  0  0  0  0  0
  -26.3160  -12.0530   20.5130 N   0  0  0  0  0  0  0  0  0  0  0  0
  -24.2690  -10.8510   20.9490 C   0  0  0  0  0  0  0  0  0  0  0  0
  -24.6330   -9.9010   21.9270 C   0  0  0  0  0  3  0  0  0  0  0  0
  -23.8850   -8.7140   22.0860 C   0  0  0  0  0  3  0  0  0  0  0  0
  -22.7580   -8.4700   21.2650 C   0  0  0  0  0  0  0  0  0  0  0  0
  -22.4130   -9.4090   20.2770 C   0  0  0  0  0  3  0  0  0  0  0  0
  -23.1610  -10.5860   20.1160 C   0  0  0  0  0  3  0  0  0  0  0  0
  -21.9890   -7.3340   21.3310 O   0  0  0  0  0  0  0  0  0  0  0  0
  -21.8310   -6.6400   22.5030 C   0  0  0  0  0  0  0  0  0  0  0  0
  -21.2590   -7.2340   23.6490 C   0  0  0  0  0  3  0  0  0  0  0  0
  -21.0500   -6.4640   24.8110 C   0  0  0  0  0  3  0  0  0  0  0  0
  -21.4030   -5.1010   24.8270 C   0  0  0  0  0  0  0  0  0  0  0  0
  -21.9690   -4.5070   23.6840 C   0  0  0  0  0  3  0  0  0  0  0  0
  -22.1780   -5.2740   22.5250 C   0  0  0  0  0  0  0  0  0  0  0  0
  -22.7040   -4.6910   21.4210 F   0  0  0  0  0  0  0  0  0  0  0  0
  -21.1960   -4.3590   25.9390 F   0  0  0  0  0  0  0  0  0  0  0  0
  -23.1590  -13.9540   20.9950 C   0  0  0  0  0  0  0  0  0  0  0  0
  -22.3940  -13.2820   21.8480 N   0  0  0  0  0  0  0  0  0  0  0  0
  -22.7520  -14.9740   20.4390 O   0  0  0  0  0  0  0  0  0  0  0  0
  -22.7350  -12.4580   22.3200 H   0  0  0  0  0  0  0  0  0  0  0  0
  -21.4530  -13.5990   22.0320 H   0  0  0  0  0  0  0  0  0  0  0  0
  -25.8280  -15.5910   20.2710 N   0  0  0  0  0  0  0  0  0  0  0  0
  -25.0640  -16.2540   20.3600 H   0  0  0  0  0  0  0  0  0  0  0  0
  -26.6960  -16.0250   19.9860 H   0  0  0  0  0  0  0  0  0  0  0  0
  -30.3140  -17.7210   17.6910 C   0  0  0  0  0  1  0  0  0  0  0  0
  -29.4160  -17.2020   18.8260 C   0  0  0  0  0  2  0  0  0  0  0  0
  -28.1070  -24.3460   20.2390 C   0  0  0  0  0  2  0  0  0  0  0  0
  -28.3970  -26.0050   20.1460 O   0  0  0  0  0  0  0  0  0  0  0  0
  -24.7360  -31.9700   23.2300 C   0  0  0  0  0  0  0  0  0  0  0  0
  -27.3780  -27.1250   20.1410 C   0  0  0  0  0  0  0  0  0  0  0  0
  -23.5680  -30.5710   21.5790 C   0  0  0  0  0  3  0  0  0  0  0  0
  -25.0460  -29.0060   20.1320 C   0  0  0  0  0  0  0  0  0  0  0  0
  -26.1350  -30.8180   21.4330 C   0  0  0  0  0  2  0  0  0  0  0  0
  -26.2310  -29.4110   20.7560 C   0  0  0  0  0  0  0  0  0  0  0  0
  -27.3900  -28.4960   20.7310 C   0  0  0  0  0  3  0  0  0  0  0  0
  -26.1520  -26.8940   19.4710 C   0  0  0  0  0  3  0  0  0  0  0  0
  -25.0350  -27.7710   19.4680 C   0  0  0  0  0  3  0  0  0  0  0  0
  -23.8110  -29.9090   20.1940 C   0  0  0  0  0  2  0  0  0  0  0  0
  -24.8350  -31.1480   22.1340 N   0  0  0  0  0  0  0  0  0  0  0  0
  -23.6420  -32.2300   23.7570 O   0  0  0  0  0  0  0  0  0  0  0  0
  -22.8940  -29.5500   22.5340 C   0  0  0  0  0  0  0  0  0  0  0  0
  -21.5720  -29.3370   22.3920 N   0  0  0  0  0  0  0  0  0  0  0  0
  -23.5680  -28.9510   23.3740 O   0  0  0  0  0  0  0  0  0  0  0  0
  -21.0770  -29.8740   21.6920 H   0  0  0  0  0  0  0  0  0  0  0  0
  -18.2320  -27.9880   22.8480 C   0  0  0  0  0  0  0  0  0  0  0  0
  -20.7740  -28.3670   23.1500 C   0  0  0  0  0  3  0  0  0  0  0  0
  -20.9450  -26.9390   22.5810 C   0  0  0  0  0  2  0  0  0  0  0  0
  -19.8760  -26.5680   21.5490 C   0  0  0  0  0  2  0  0  0  0  0  0
  -18.4790  -26.6500   22.1720 C   0  0  0  0  0  2  0  0  0  0  0  0
  -19.3090  -28.8010   23.2930 C   0  0  0  0  0  0  0  0  0  0  0  0
  -19.0220  -30.0480   23.8880 C   0  0  0  0  0  3  0  0  0  0  0  0
  -17.6920  -30.4850   24.0400 C   0  0  0  0  0  3  0  0  0  0  0  0
  -16.6300  -29.6700   23.6090 C   0  0  0  0  0  3  0  0  0  0  0  0
  -16.9010  -28.4240   23.0190 C   0  0  0  0  0  3  0  0  0  0  0  0
  -25.9920  -32.6350   23.8700 C   0  0  0  0  0  3  0  0  0  0  0  0
  -26.5000  -31.8800   25.1620 C   0  0  1  0  0  0  0  0  0  0  0  0
  -25.3970  -31.6350   26.2170 C   0  0  0  0  0  1  0  0  0  0  0  0
  -27.1090  -30.5070   24.7970 C   0  0  0  0  0  1  0  0  0  0  0  0
  -27.6300  -32.6970   25.8320 C   0  0  0  0  0  1  0  0  0  0  0  0
  -25.6500  -34.0290   24.2030 N   0  0  0  0  0  0  0  0  0  0  0  0
  -25.9670  -35.0980   23.4610 C   0  0  0  0  0  0  0  0  0  0  0  0
  -26.6390  -35.0150   22.4300 O   0  0  0  0  0  0  0  0  0  0  0  0
  -25.0490  -34.1650   25.0030 H   0  0  0  0  0  0  0  0  0  0  0  0
  -24.2180  -36.8810   23.1260 C   0  0  0  0  0  1  0  0  0  0  0  0
  -25.4620  -36.4780   23.9330 C   0  0  0  0  0  3  0  0  0  0  0  0
  -27.5770  -37.3920   24.7880 C   0  0  0  0  0  1  0  0  0  0  0  0
  -26.4820  -37.5460   23.8330 N   0  0  0  0  0  0  0  0  0  0  0  0
  -26.0620  -38.4600   23.9780 H   0  0  0  0  0  0  0  0  0  0  0  0
  1  6  1  0
  1  2  2  0
  2 49  1  0
  2  5  1  0
  3  5  1  0
  3  9  1  0
  5  4  1  0
  6  3  1  0
  7  6  1  0
  9  8  1  0
 10 17  2  0
 11 16  1  0
 12 13  1  0
 12 11  1  0
 14 13  1  0
 14 22  1  0
 14 15  1  0
 16 10  1  0
 16 15  1  0
 18 10  1  0
 18  9  1  0
 19 20  2  0
 20 39  1  0
 21 20  1  0
 21 24  1  0
 22 19  1  0
 22 23  1  0
 23 21  2  0
 24 25  1  0
 25 26  2  0
 27 30  1  0
 27 26  1  0
 28 27  2  0
 29 28  1  0
 29 24  2  0
 30 31  1  0
 31 36  2  0
 31 32  1  0
 32 33  2  0
 33 34  1  0
 34 38  1  0
 35 34  2  0
 36 35  1  0
 37 36  1  0
 39 40  1  0
 40 43  1  0
 40 42  1  0
 41 39  2  0
 44 45  1  0
 44 19  1  0
 46 44  1  0
 47 48  1  0
 48 18  1  0
 50 49  1  0
 51 62  2  0
 52 50  1  0
 52 57  1  0
 53 61  1  0
 53 63  1  0
 54 60  1  0
 54 56  1  0
 55 61  1  0
 56 55  1  0
 57 56  2  0
 58 52  2  0
 59 58  1  0
 59 54  2  0
 60 53  1  0
 61 51  1  0
 63 65  2  0
 64 63  1  0
 66 64  1  0
 67 76  2  0
 67 72  1  0
 68 64  1  0
 68 72  1  0
 69 68  1  0
 70 71  1  0
 70 69  1  0
 71 67  1  0
 72 73  2  0
 73 74  1  0
 75 74  2  0
 76 75  1  0
 77 51  1  0
 77 82  1  0
 77 78  1  0
 78 81  1  1
 78 79  1  0
 80 78  1  0
 82 85  1  0
 83 87  1  0
 83 82  1  0
 84 83  2  0
 87 86  1  0
 89 87  1  0
 89 90  1  0
 89 88  1  0
M  ISO  4  10 100  18 100  49 101  50 101
M  END
>  <TORSDO>  (10) 
F 19

>  <SCORE>  (10) 
-14.887

>  <name>  (10) 
9

>  <ligand_id>  (10) 
9

>  <original_smiles>  (10) 
[H]c1c([H])c([H])c2c(c1[H])C([H])([H])C([H])([H])C([H])([H])C2([H])N([H])C(=O)C1([H])N(C(=O)C([H])(N([H])C(=O)C([H])(N([H])C([H])([H])[H])C([H])([H])[H])C(C([H])([H])[H])(C([H])([H])[H])C([H])([H])[H])C([H])([H])c2c([H])c(OC([H])([H])c3c([H])[n+]([H])c(C([H])(N(C(=O)N4C([H])([H])C([H])([H])C([H])([H])C([H])(n5nc(-c6c([H])c([H])c(Oc7c([H])c([H])c(F)c([H])c7F)c([H])c6[H])c(C(=O)N([H])[H])c5N([H])[H])C4([H])[H])C([H])([H])C([H])([H])[H])C([H])([H])[H])n3C([H])([H])[H])c([H])c([H])c2C1([H])[H]

>  <smiles>  (10) 
[H]c1c([H])c([H])c2c(c1[H])C([H])([H])C([H])([H])C([H])([H])C2([H])N([H])C(=O)C1([H])N(C(=O)C([H])(N([H])C(=O)C([H])(N([H])C([H])([H])[H])C([H])([H])[H])C(C([H])([H])[H])(C([H])([H])[H])C([H])([H])[H])C([H])([H])c2c([H])c(OC([H])([H])c3c([H])[n+]([H])c(C([H])(N(C(=O)N4C([H])([H])C([H])([H])C([H])([H])C([H])(n5nc(-c6c([H])c([H])c(Oc7c([H])c([H])c(F)c([H])c7F)c([H])c6[H])c(C(=O)N([H])[H])c5N([H])[H])C4([H])[H])C([H])([H])C([H])([H])[H])C([H])([H])[H])n3C([H])([H])[H])c([H])c([H])c2C1([H])[H]

$$$$
10:0:0
     RDKit          3D

 98106  0  0  1  0  0  0  0  0999 V2000
  -30.2230  -24.5750   20.3130 C   0  0  0  0  0  3  0  0  0  0  0  0
  -31.2580  -23.6750   20.0250 C   0  0  0  0  0  0  0  0  0  0  0  0
  -28.9620  -24.3100   19.7610 C   0  0  0  0  0  0  0  0  0  0  0  0
  -29.8340  -22.4130   18.7330 C   0  0  0  0  0  0  0  0  0  0  0  0
  -32.6700  -23.9030   20.5280 C   0  0  0  0  0  1  0  0  0  0  0  0
  -31.0470  -22.5810   19.2590 N   0  0  0  0  0  0  0  0  0  0  0  0
  -28.7880  -23.2080   18.9820 N   0  0  0  0  0  0  0  0  0  0  0  0
  -28.3000  -21.2880   17.0280 C   0  0  0  0  0  1  0  0  0  0  0  0
  -30.7220  -21.2130   16.6610 C   0  0  0  0  0  1  0  0  0  0  0  0
  -29.6540  -21.1880   17.7810 C   0  0  1  0  0  0  0  0  0  0  0  0
  -29.6740  -19.7900   18.4840 C   0  0  0  0  0  2  0  0  0  0  0  0
  -30.8330  -19.5340   19.3840 N   0  0  0  0  0  4  0  0  0  0  0  0
  -30.5510  -19.8210   20.3070 H   0  0  0  0  0  0  0  0  0  0  0  0
  -31.5700  -20.1680   19.1140 H   0  0  0  0  0  0  0  0  0  0  0  0
  -32.4570  -18.0140   18.3490 C   0  0  0  0  0  1  0  0  0  0  0  0
  -32.1890  -18.1100   20.8160 C   0  0  0  0  0  1  0  0  0  0  0  0
  -31.4170  -18.1490   19.4820 C   0  0  1  0  0  0  0  0  0  0  0  0
  -30.3010  -17.0140   19.4310 C   0  0  0  0  0  2  0  0  0  0  0  0
  -31.0180  -14.6110   19.6360 C   0  0  0  0  0  0  0  0  0  0  0  0
  -30.7570  -12.2440   18.9390 C   0  0  0  0  0  2  0  0  0  0  0  0
  -29.7800  -12.1390   17.7500 C   0  0  0  0  0  2  0  0  0  0  0  0
  -28.3370  -11.9880   18.2630 C   0  0  0  0  0  2  0  0  0  0  0  0
  -27.9800  -13.0610   19.3290 C   0  0  0  0  0  3  0  0  0  0  0  0
  -29.0700  -13.1310   20.4170 C   0  0  0  0  0  2  0  0  0  0  0  0
  -30.3690  -13.4060   19.7710 N   0  0  0  0  0  0  0  0  0  0  0  0
  -31.9830  -14.7090   18.8750 O   0  0  0  0  0  0  0  0  0  0  0  0
  -30.0820  -15.8470   21.6050 C   0  0  0  0  0  1  0  0  0  0  0  0
  -30.4740  -15.7370   20.1900 N   0  0  0  0  0  0  0  0  0  0  0  0
  -25.7010  -13.7550   20.2980 C   0  0  0  0  0  0  0  0  0  0  0  0
  -24.6350  -13.0210   20.7430 C   0  0  0  0  0  0  0  0  0  0  0  0
  -25.0110  -11.6510   20.5990 C   0  0  0  0  0  0  0  0  0  0  0  0
  -26.6650  -12.8310   19.9180 N   0  0  0  0  0  0  0  0  0  0  0  0
  -26.2600  -11.5600   20.1590 N   0  0  0  0  0  0  0  0  0  0  0  0
  -24.2340  -10.4220   20.8020 C   0  0  0  0  0  0  0  0  0  0  0  0
  -24.6000   -9.4790   21.7860 C   0  0  0  0  0  3  0  0  0  0  0  0
  -23.8360   -8.3110   21.9790 C   0  0  0  0  0  3  0  0  0  0  0  0
  -22.6870   -8.0760   21.1880 C   0  0  0  0  0  0  0  0  0  0  0  0
  -22.3380   -9.0070   20.1940 C   0  0  0  0  0  3  0  0  0  0  0  0
  -23.1030  -10.1690   19.9990 C   0  0  0  0  0  3  0  0  0  0  0  0
  -21.8960   -6.9590   21.2860 O   0  0  0  0  0  0  0  0  0  0  0  0
  -21.6760   -6.3290   22.4820 C   0  0  0  0  0  0  0  0  0  0  0  0
  -21.0640   -6.9920   23.5700 C   0  0  0  0  0  3  0  0  0  0  0  0
  -20.7950   -6.2900   24.7610 C   0  0  0  0  0  3  0  0  0  0  0  0
  -21.1260   -4.9250   24.8650 C   0  0  0  0  0  0  0  0  0  0  0  0
  -21.7250   -4.2600   23.7790 C   0  0  0  0  0  3  0  0  0  0  0  0
  -21.9970   -4.9610   22.5910 C   0  0  0  0  0  0  0  0  0  0  0  0
  -22.5580   -4.3120   21.5410 F   0  0  0  0  0  0  0  0  0  0  0  0
  -20.8600   -4.2450   26.0050 F   0  0  0  0  0  0  0  0  0  0  0  0
  -23.3010  -13.5560   21.1750 C   0  0  0  0  0  0  0  0  0  0  0  0
  -22.6380  -12.8740   22.1010 N   0  0  0  0  0  0  0  0  0  0  0  0
  -22.8600  -14.6120   20.7250 O   0  0  0  0  0  0  0  0  0  0  0  0
  -23.0110  -12.0180   22.4790 H   0  0  0  0  0  0  0  0  0  0  0  0
  -21.7420  -13.2100   22.4260 H   0  0  0  0  0  0  0  0  0  0  0  0
  -25.9270  -15.1230   20.1670 N   0  0  0  0  0  0  0  0  0  0  0  0
  -25.2350  -15.8140   20.4290 H   0  0  0  0  0  0  0  0  0  0  0  0
  -26.7670  -15.5300   19.7710 H   0  0  0  0  0  0  0  0  0  0  0  0
  -27.7290  -25.1880   20.0420 C   0  0  0  0  0  2  0  0  0  0  0  0
  -27.9470  -26.6070   20.2880 O   0  0  0  0  0  0  0  0  0  0  0  0
  -24.4760  -32.0350   23.4240 C   0  0  0  0  0  0  0  0  0  0  0  0
  -26.8170  -27.4240   20.2890 C   0  0  0  0  0  0  0  0  0  0  0  0
  -23.1600  -30.6790   21.8350 C   0  0  0  0  0  3  0  0  0  0  0  0
  -24.4990  -29.0780   20.3670 C   0  0  0  0  0  0  0  0  0  0  0  0
  -25.6960  -30.9140   21.5560 C   0  0  0  0  0  2  0  0  0  0  0  0
  -25.7010  -29.5360   20.9160 C   0  0  0  0  0  0  0  0  0  0  0  0
  -26.8630  -28.7210   20.8710 C   0  0  0  0  0  3  0  0  0  0  0  0
  -25.5870  -26.9990   19.7300 C   0  0  0  0  0  3  0  0  0  0  0  0
  -24.4410  -27.8120   19.7640 C   0  0  0  0  0  3  0  0  0  0  0  0
  -23.2940  -29.9910   20.4520 C   0  0  0  0  0  2  0  0  0  0  0  0
  -24.4660  -31.2250   22.3300 N   0  0  0  0  0  0  0  0  0  0  0  0
  -23.4260  -32.3580   23.9980 O   0  0  0  0  0  0  0  0  0  0  0  0
  -22.4950  -29.6920   22.8230 C   0  0  0  0  0  0  0  0  0  0  0  0
  -21.1900  -29.4360   22.6360 N   0  0  0  0  0  0  0  0  0  0  0  0
  -23.1540  -29.1530   23.7150 O   0  0  0  0  0  0  0  0  0  0  0  0
  -20.7190  -29.9180   21.8820 H   0  0  0  0  0  0  0  0  0  0  0  0
  -17.8860  -27.9990   22.9250 C   0  0  0  0  0  0  0  0  0  0  0  0
  -20.3700  -28.5140   23.4200 C   0  0  0  0  0  3  0  0  0  0  0  0
  -20.6490  -27.0460   23.0190 C   0  0  0  0  0  2  0  0  0  0  0  0
  -19.6920  -26.5230   21.9440 C   0  0  0  0  0  2  0  0  0  0  0  0
  -18.2420  -26.6080   22.4260 C   0  0  0  0  0  2  0  0  0  0  0  0
  -18.8860  -28.8990   23.3780 C   0  0  0  0  0  0  0  0  0  0  0  0
  -18.5040  -30.1910   23.7980 C   0  0  0  0  0  3  0  0  0  0  0  0
  -17.1520  -30.5850   23.7760 C   0  0  0  0  0  3  0  0  0  0  0  0
  -16.1650  -29.6840   23.3420 C   0  0  0  0  0  3  0  0  0  0  0  0
  -16.5330  -28.3940   22.9210 C   0  0  0  0  0  3  0  0  0  0  0  0
  -25.8060  -32.6150   23.9960 C   0  0  0  0  0  3  0  0  0  0  0  0
  -25.5750  -34.0340   24.3050 N   0  0  0  0  0  0  0  0  0  0  0  0
  -25.9200  -35.0510   23.5060 C   0  0  0  0  0  0  0  0  0  0  0  0
  -26.5390  -34.8950   22.4490 O   0  0  0  0  0  0  0  0  0  0  0  0
  -25.0200  -34.2330   25.1250 H   0  0  0  0  0  0  0  0  0  0  0  0
  -24.2700  -36.9170   23.1600 C   0  0  0  0  0  1  0  0  0  0  0  0
  -25.5130  -36.4710   23.9480 C   0  0  0  0  0  3  0  0  0  0  0  0
  -27.7050  -37.2710   24.7080 C   0  0  0  0  0  1  0  0  0  0  0  0
  -26.5920  -37.4700   23.7850 N   0  0  0  0  0  0  0  0  0  0  0  0
  -26.2340  -38.4110   23.9140 H   0  0  0  0  0  0  0  0  0  0  0  0
  -26.3220  -31.8450   25.2720 C   0  0  1  0  0  0  0  0  0  0  0  0
  -25.2390  -31.6520   26.3590 C   0  0  0  0  0  1  0  0  0  0  0  0
  -26.8620  -30.4470   24.8900 C   0  0  0  0  0  1  0  0  0  0  0  0
  -27.5080  -32.6130   25.9040 C   0  0  0  0  0  1  0  0  0  0  0  0
  2  1  2  0
  2  5  1  0
  3 57  1  0
  3  1  1  0
  4  7  1  0
  4  6  2  0
  6  2  1  0
  7  3  2  0
 10  8  1  6
  9 10  1  0
 10 11  1  0
 10  4  1  0
 11 12  1  0
 12 17  1  0
 12 13  1  0
 14 12  1  0
 17 15  1  6
 17 16  1  0
 18 17  1  0
 18 28  1  0
 19 25  1  0
 19 28  1  0
 20 25  1  0
 21 22  1  0
 21 20  1  0
 23 22  1  0
 23 32  1  0
 23 24  1  0
 25 24  1  0
 26 19  2  0
 28 27  1  0
 29 30  2  0
 30 49  1  0
 31 30  1  0
 31 34  1  0
 32 33  1  0
 32 29  1  0
 33 31  2  0
 34 35  1  0
 35 36  2  0
 37 40  1  0
 37 36  1  0
 38 37  2  0
 39 38  1  0
 39 34  2  0
 40 41  1  0
 41 46  2  0
 41 42  1  0
 42 43  2  0
 43 44  1  0
 44 48  1  0
 45 44  2  0
 46 45  1  0
 47 46  1  0
 49 50  1  0
 50 53  1  0
 50 52  1  0
 51 49  2  0
 54 29  1  0
 54 55  1  0
 56 54  1  0
 57 58  1  0
 58 60  1  0
 59 70  2  0
 60 65  1  0
 61 69  1  0
 61 71  1  0
 62 68  1  0
 62 64  1  0
 63 69  1  0
 64 63  1  0
 65 64  2  0
 66 67  1  0
 66 60  2  0
 67 62  2  0
 68 61  1  0
 69 59  1  0
 71 73  2  0
 72 71  1  0
 74 72  1  0
 75 80  1  0
 76 72  1  0
 77 76  1  0
 78 79  1  0
 78 77  1  0
 79 75  1  0
 80 76  1  0
 80 81  2  0
 82 81  1  0
 83 82  2  0
 84 75  2  0
 84 83  1  0
 85 59  1  0
 85 86  1  0
 85 95  1  0
 86 89  1  0
 87 91  1  0
 87 86  1  0
 88 87  2  0
 91 90  1  0
 93 94  1  0
 93 91  1  0
 93 92  1  0
 95 98  1  1
 95 96  1  0
 97 95  1  0
M  ISO  4  19 100  28 100  57 101  58 101
M  END
>  <TORSDO>  (11) 
F 22

>  <SCORE>  (11) 
-11.805

>  <name>  (11) 
10

>  <ligand_id>  (11) 
10

>  <original_smiles>  (11) 
[H]c1c(C([H])([H])[H])nc(C(C([H])([H])[H])(C([H])([H])[H])C([H])([H])[N+]([H])([H])C(C([H])([H])[H])(C([H])([H])[H])C([H])([H])N(C(=O)N2C([H])([H])C([H])([H])C([H])([H])C([H])(n3nc(-c4c([H])c([H])c(Oc5c([H])c([H])c(F)c([H])c5F)c([H])c4[H])c(C(=O)N([H])[H])c3N([H])[H])C2([H])[H])C([H])([H])[H])nc1C([H])([H])Oc1c([H])c([H])c2c(c1[H])C([H])([H])N(C(=O)C([H])(N([H])C(=O)C([H])(N([H])C([H])([H])[H])C([H])([H])[H])C(C([H])([H])[H])(C([H])([H])[H])C([H])([H])[H])C([H])(C(=O)N([H])C1([H])c3c([H])c([H])c([H])c([H])c3C([H])([H])C([H])([H])C1([H])[H])C2([H])[H]

>  <smiles>  (11) 
[H]c1c(C([H])([H])[H])nc(C(C([H])([H])[H])(C([H])([H])[H])C([H])([H])[N+]([H])([H])C(C([H])([H])[H])(C([H])([H])[H])C([H])([H])N(C(=O)N2C([H])([H])C([H])([H])C([H])([H])C([H])(n3nc(-c4c([H])c([H])c(Oc5c([H])c([H])c(F)c([H])c5F)c([H])c4[H])c(C(=O)N([H])[H])c3N([H])[H])C2([H])[H])C([H])([H])[H])nc1C([H])([H])Oc1c([H])c([H])c2c(c1[H])C([H])([H])N(C(=O)C([H])(N([H])C(=O)C([H])(N([H])C([H])([H])[H])C([H])([H])[H])C(C([H])([H])[H])(C([H])([H])[H])C([H])([H])[H])C([H])(C(=O)N([H])C1([H])c3c([H])c([H])c([H])c([H])c3C([H])([H])C([H])([H])C1([H])[H])C2([H])[H]

$$$$
11:0:0
     RDKit          3D

 90 98  0  0  1  0  0  0  0  0999 V2000
  -30.0020  -20.6700   20.5300 C   0  0  0  0  0  3  0  0  0  0  0  0
  -29.5720  -19.3250   20.0680 C   0  0  0  0  0  0  0  0  0  0  0  0
  -29.1150  -21.7280   20.1780 C   0  0  0  0  0  0  0  0  0  0  0  0
  -26.9630  -21.4700   18.8490 C   0  0  0  0  0  1  0  0  0  0  0  0
  -28.4140  -19.5920   19.4480 N   0  0  0  0  0  0  0  0  0  0  0  0
  -28.1540  -20.9660   19.5050 N   0  0  0  0  0  0  0  0  0  0  0  0
  -30.3780  -23.8210   19.4300 C   0  0  0  0  0  1  0  0  0  0  0  0
  -29.6750  -23.6320   21.8010 C   0  0  0  0  0  1  0  0  0  0  0  0
  -29.2210  -23.3920   20.3510 C   0  0  2  0  0  0  0  0  0  0  0  0
  -28.0520  -24.6130   20.1020 C   0  0  0  0  0  2  0  0  0  0  0  0
  -28.2750  -26.1640   20.2930 O   0  0  0  0  0  0  0  0  0  0  0  0
  -24.6410  -31.8940   23.2680 C   0  0  0  0  0  0  0  0  0  0  0  0
  -27.2170  -27.1550   20.2340 C   0  0  0  0  0  0  0  0  0  0  0  0
  -23.4460  -30.5010   21.6240 C   0  0  0  0  0  3  0  0  0  0  0  0
  -24.8940  -28.9220   20.2000 C   0  0  0  0  0  0  0  0  0  0  0  0
  -26.0020  -30.7560   21.4690 C   0  0  0  0  0  2  0  0  0  0  0  0
  -26.0740  -29.3620   20.8120 C   0  0  0  0  0  0  0  0  0  0  0  0
  -27.2360  -28.4970   20.8050 C   0  0  0  0  0  3  0  0  0  0  0  0
  -26.0060  -26.8200   19.5890 C   0  0  0  0  0  3  0  0  0  0  0  0
  -24.8730  -27.6660   19.5740 C   0  0  0  0  0  3  0  0  0  0  0  0
  -23.6680  -29.8240   20.2470 C   0  0  0  0  0  2  0  0  0  0  0  0
  -24.7170  -31.0730   22.1750 N   0  0  0  0  0  0  0  0  0  0  0  0
  -23.5540  -32.1810   23.7930 O   0  0  0  0  0  0  0  0  0  0  0  0
  -22.7590  -29.4970   22.5840 C   0  0  0  0  0  0  0  0  0  0  0  0
  -21.4310  -29.3280   22.4530 N   0  0  0  0  0  0  0  0  0  0  0  0
  -23.4260  -28.8720   23.4130 O   0  0  0  0  0  0  0  0  0  0  0  0
  -20.9500  -29.8830   21.7590 H   0  0  0  0  0  0  0  0  0  0  0  0
  -18.0460  -28.1350   22.9490 C   0  0  0  0  0  0  0  0  0  0  0  0
  -20.6060  -28.3920   23.2200 C   0  0  0  0  0  3  0  0  0  0  0  0
  -20.7040  -26.9600   22.6440 C   0  0  0  0  0  2  0  0  0  0  0  0
  -19.6030  -26.6410   21.6270 C   0  0  0  0  0  2  0  0  0  0  0  0
  -18.2200  -26.7880   22.2700 C   0  0  0  0  0  2  0  0  0  0  0  0
  -19.1650  -28.8960   23.3810 C   0  0  0  0  0  0  0  0  0  0  0  0
  -18.9450  -30.1560   23.9790 C   0  0  0  0  0  3  0  0  0  0  0  0
  -17.6410  -30.6560   24.1470 C   0  0  0  0  0  3  0  0  0  0  0  0
  -16.5360  -29.8930   23.7290 C   0  0  0  0  0  3  0  0  0  0  0  0
  -16.7400  -28.6350   23.1350 C   0  0  0  0  0  3  0  0  0  0  0  0
  -25.9170  -32.5280   23.9000 C   0  0  0  0  0  3  0  0  0  0  0  0
  -26.4140  -31.7640   25.1900 C   0  0  1  0  0  0  0  0  0  0  0  0
  -25.3080  -31.5380   26.2470 C   0  0  0  0  0  1  0  0  0  0  0  0
  -26.9960  -30.3800   24.8190 C   0  0  0  0  0  1  0  0  0  0  0  0
  -27.5610  -32.5580   25.8590 C   0  0  0  0  0  1  0  0  0  0  0  0
  -25.6080  -33.9300   24.2270 N   0  0  0  0  0  0  0  0  0  0  0  0
  -25.9250  -34.9820   23.4600 C   0  0  0  0  0  0  0  0  0  0  0  0
  -26.5730  -34.8740   22.4160 O   0  0  0  0  0  0  0  0  0  0  0  0
  -25.0290  -34.0860   25.0380 H   0  0  0  0  0  0  0  0  0  0  0  0
  -24.1750  -36.7650   23.1570 C   0  0  0  0  0  1  0  0  0  0  0  0
  -25.4480  -36.3730   23.9230 C   0  0  0  0  0  3  0  0  0  0  0  0
  -27.6050  -37.2840   24.6660 C   0  0  0  0  0  1  0  0  0  0  0  0
  -26.4700  -37.4310   23.7590 N   0  0  0  0  0  0  0  0  0  0  0  0
  -26.0640  -38.3510   23.9060 H   0  0  0  0  0  0  0  0  0  0  0  0
  -30.3640  -17.8420   20.0020 C   0  0  0  0  0  2  0  0  0  0  0  0
  -30.5910  -15.1060   20.0170 C   0  0  0  0  0  0  0  0  0  0  0  0
  -30.4030  -12.7930   18.9390 C   0  0  0  0  0  2  0  0  0  0  0  0
  -29.3820  -12.7800   17.7740 C   0  0  0  0  0  2  0  0  0  0  0  0
  -27.9490  -12.5440   18.2910 C   0  0  0  0  0  2  0  0  0  0  0  0
  -27.6320  -13.3910   19.5510 C   0  0  0  0  0  3  0  0  0  0  0  0
  -28.7710  -13.3110   20.5890 C   0  0  0  0  0  2  0  0  0  0  0  0
  -29.9750  -13.8390   19.9260 N   0  0  0  0  0  0  0  0  0  0  0  0
  -31.7510  -15.1480   19.5850 O   0  0  0  0  0  0  0  0  0  0  0  0
  -28.9070  -16.3680   21.3960 C   0  0  0  0  0  1  0  0  0  0  0  0
  -29.9000  -16.3470   20.3230 N   0  0  0  0  0  0  0  0  0  0  0  0
  -25.2970  -13.9250   20.4500 C   0  0  0  0  0  0  0  0  0  0  0  0
  -24.2660  -13.1330   20.8680 C   0  0  0  0  0  0  0  0  0  0  0  0
  -24.7350  -11.7880   20.7650 C   0  0  0  0  0  0  0  0  0  0  0  0
  -26.3300  -13.0630   20.1210 N   0  0  0  0  0  0  0  0  0  0  0  0
  -26.0060  -11.7690   20.3750 N   0  0  0  0  0  0  0  0  0  0  0  0
  -24.0260  -10.5160   20.9600 C   0  0  0  0  0  0  0  0  0  0  0  0
  -24.4830   -9.5480   21.8800 C   0  0  0  0  0  3  0  0  0  0  0  0
  -23.7700   -8.3420   22.0620 C   0  0  0  0  0  3  0  0  0  0  0  0
  -22.5870   -8.0990   21.3260 C   0  0  0  0  0  0  0  0  0  0  0  0
  -22.1490   -9.0570   20.3950 C   0  0  0  0  0  3  0  0  0  0  0  0
  -22.8610  -10.2540   20.2100 C   0  0  0  0  0  3  0  0  0  0  0  0
  -21.8440   -6.9470   21.4200 O   0  0  0  0  0  0  0  0  0  0  0  0
  -21.7700   -6.2310   22.5890 C   0  0  0  0  0  0  0  0  0  0  0  0
  -21.2940   -6.8070   23.7880 C   0  0  0  0  0  3  0  0  0  0  0  0
  -21.1700   -6.0170   24.9480 C   0  0  0  0  0  3  0  0  0  0  0  0
  -21.5130   -4.6510   24.9110 C   0  0  0  0  0  0  0  0  0  0  0  0
  -21.9810   -4.0740   23.7170 C   0  0  0  0  0  3  0  0  0  0  0  0
  -22.1070   -4.8630   22.5590 C   0  0  0  0  0  0  0  0  0  0  0  0
  -22.5400   -4.2970   21.4060 F   0  0  0  0  0  0  0  0  0  0  0  0
  -21.3870   -3.8900   26.0220 F   0  0  0  0  0  0  0  0  0  0  0  0
  -22.8870  -13.5960   21.2410 C   0  0  0  0  0  0  0  0  0  0  0  0
  -22.2180  -12.8750   22.1320 N   0  0  0  0  0  0  0  0  0  0  0  0
  -22.4130  -14.6320   20.7760 O   0  0  0  0  0  0  0  0  0  0  0  0
  -22.6130  -12.0350   22.5300 H   0  0  0  0  0  0  0  0  0  0  0  0
  -21.2950  -13.1660   22.4220 H   0  0  0  0  0  0  0  0  0  0  0  0
  -25.4300  -15.3000   20.2960 N   0  0  0  0  0  0  0  0  0  0  0  0
  -24.6630  -15.9390   20.4740 H   0  0  0  0  0  0  0  0  0  0  0  0
  -26.2440  -15.7580   19.9030 H   0  0  0  0  0  0  0  0  0  0  0  0
  2  1  1  0
  3  9  1  0
  3  1  2  0
  4  6  1  0
  5  6  1  0
  5  2  2  0
  6  3  1  0
  9  7  1  6
  9  8  1  0
 10 11  1  0
 10  9  1  0
 12 23  2  0
 13 11  1  0
 13 18  1  0
 14 22  1  0
 14 24  1  0
 15 21  1  0
 15 17  1  0
 16 22  1  0
 17 16  1  0
 18 17  2  0
 19 13  2  0
 20 19  1  0
 20 15  2  0
 21 14  1  0
 22 12  1  0
 24 26  2  0
 25 24  1  0
 27 25  1  0
 28 37  2  0
 28 33  1  0
 29 25  1  0
 29 33  1  0
 30 29  1  0
 31 32  1  0
 31 30  1  0
 32 28  1  0
 33 34  2  0
 34 35  1  0
 36 35  2  0
 37 36  1  0
 38 12  1  0
 38 43  1  0
 38 39  1  0
 39 42  1  1
 39 40  1  0
 41 39  1  0
 43 46  1  0
 44 48  1  0
 44 43  1  0
 45 44  2  0
 48 47  1  0
 50 51  1  0
 50 48  1  0
 50 49  1  0
 52  2  1  0
 52 62  1  0
 53 62  1  0
 54 59  1  0
 55 56  1  0
 55 54  1  0
 57 56  1  0
 57 66  1  0
 57 58  1  0
 59 53  1  0
 59 58  1  0
 60 53  2  0
 62 61  1  0
 63 64  2  0
 64 83  1  0
 65 64  1  0
 65 68  1  0
 66 67  1  0
 66 63  1  0
 67 65  2  0
 68 69  1  0
 69 70  2  0
 71 74  1  0
 71 70  1  0
 72 71  2  0
 73 72  1  0
 73 68  2  0
 74 75  1  0
 75 76  1  0
 76 77  2  0
 78 77  1  0
 78 82  1  0
 79 78  2  0
 80 75  2  0
 80 79  1  0
 81 80  1  0
 83 84  1  0
 84 87  1  0
 84 86  1  0
 85 83  2  0
 88 63  1  0
 88 89  1  0
 90 88  1  0
M  ISO  4  10 101  11 101  53 100  62 100
M  END
>  <TORSDO>  (12) 
F 19

>  <SCORE>  (12) 
-14.478

>  <name>  (12) 
11

>  <ligand_id>  (12) 
11

>  <original_smiles>  (12) 
[H]c1c([H])c([H])c2c(c1[H])C([H])([H])C([H])([H])C([H])([H])C2([H])N([H])C(=O)C1([H])N(C(=O)C([H])(N([H])C(=O)C([H])(N([H])C([H])([H])[H])C([H])([H])[H])C(C([H])([H])[H])(C([H])([H])[H])C([H])([H])[H])C([H])([H])c2c([H])c(OC([H])([H])C(c3c([H])c(C([H])([H])N(C(=O)N4C([H])([H])C([H])([H])C([H])([H])C([H])(n5nc(-c6c([H])c([H])c(Oc7c([H])c([H])c(F)c([H])c7F)c([H])c6[H])c(C(=O)N([H])[H])c5N([H])[H])C4([H])[H])C([H])([H])[H])nn3C([H])([H])[H])(C([H])([H])[H])C([H])([H])[H])c([H])c([H])c2C1([H])[H]

>  <smiles>  (12) 
[H]c1c([H])c([H])c2c(c1[H])C([H])([H])C([H])([H])C([H])([H])C2([H])N([H])C(=O)C1([H])N(C(=O)C([H])(N([H])C(=O)C([H])(N([H])C([H])([H])[H])C([H])([H])[H])C(C([H])([H])[H])(C([H])([H])[H])C([H])([H])[H])C([H])([H])c2c([H])c(OC([H])([H])C(c3c([H])c(C([H])([H])N(C(=O)N4C([H])([H])C([H])([H])C([H])([H])C([H])(n5nc(-c6c([H])c([H])c(Oc7c([H])c([H])c(F)c([H])c7F)c([H])c6[H])c(C(=O)N([H])[H])c5N([H])[H])C4([H])[H])C([H])([H])[H])nn3C([H])([H])[H])(C([H])([H])[H])C([H])([H])[H])c([H])c([H])c2C1([H])[H]

$$$$
12:0:0
     RDKit          3D

 87 95  0  0  1  0  0  0  0  0999 V2000
  -28.4820  -21.4750   20.3450 C   0  0  0  0  0  2  0  0  0  0  0  0
  -30.5030  -15.1150   19.9750 C   0  0  0  0  0  0  0  0  0  0  0  0
  -30.3460  -12.7680   18.9390 C   0  0  0  0  0  2  0  0  0  0  0  0
  -29.3220  -12.7160   17.7770 C   0  0  0  0  0  2  0  0  0  0  0  0
  -27.8910  -12.4750   18.2970 C   0  0  0  0  0  2  0  0  0  0  0  0
  -27.5720  -13.3430   19.5390 C   0  0  0  0  0  3  0  0  0  0  0  0
  -28.7080  -13.2970   20.5770 C   0  0  0  0  0  2  0  0  0  0  0  0
  -29.9160  -13.8270   19.9160 N   0  0  0  0  0  0  0  0  0  0  0  0
  -31.6360  -15.1790   19.4780 O   0  0  0  0  0  0  0  0  0  0  0  0
  -30.1120  -19.6960   19.0890 C   0  0  0  0  0  2  0  0  0  0  0  0
  -29.7700  -17.8170   20.0840 C   0  0  0  0  0  0  0  0  0  0  0  0
  -29.3760  -16.1340   21.8820 C   0  0  0  0  0  1  0  0  0  0  0  0
  -30.4590  -18.3750   19.0320 N   0  0  0  0  0  0  0  0  0  0  0  0
  -29.0400  -18.8240   20.7240 N   0  0  0  0  0  2  0  0  0  0  0  0
  -29.2800  -20.0890   20.0760 N   0  0  0  0  0  0  0  0  0  0  0  0
  -29.8290  -16.3010   20.4940 N   0  0  0  0  0  0  0  0  0  0  0  0
  -25.2710  -13.8840   20.5140 C   0  0  0  0  0  0  0  0  0  0  0  0
  -24.2340  -13.0940   20.9260 C   0  0  0  0  0  0  0  0  0  0  0  0
  -24.6800  -11.7450   20.7740 C   0  0  0  0  0  0  0  0  0  0  0  0
  -26.2780  -13.0160   20.1290 N   0  0  0  0  0  0  0  0  0  0  0  0
  -25.9390  -11.7200   20.3500 N   0  0  0  0  0  0  0  0  0  0  0  0
  -23.9570  -10.4780   20.9490 C   0  0  0  0  0  0  0  0  0  0  0  0
  -24.4310   -9.4690   21.8150 C   0  0  0  0  0  3  0  0  0  0  0  0
  -23.7060   -8.2690   21.9800 C   0  0  0  0  0  3  0  0  0  0  0  0
  -22.4940   -8.0690   21.2790 C   0  0  0  0  0  0  0  0  0  0  0  0
  -22.0390   -9.0670   20.3990 C   0  0  0  0  0  3  0  0  0  0  0  0
  -22.7630  -10.2590   20.2310 C   0  0  0  0  0  3  0  0  0  0  0  0
  -21.7370   -6.9260   21.3580 O   0  0  0  0  0  0  0  0  0  0  0  0
  -21.7070   -6.1580   22.4950 C   0  0  0  0  0  0  0  0  0  0  0  0
  -21.3140   -6.6900   23.7430 C   0  0  0  0  0  3  0  0  0  0  0  0
  -21.2300   -5.8500   24.8710 C   0  0  0  0  0  3  0  0  0  0  0  0
  -21.5290   -4.4790   24.7520 C   0  0  0  0  0  0  0  0  0  0  0  0
  -21.9150   -3.9470   23.5100 C   0  0  0  0  0  3  0  0  0  0  0  0
  -22.0010   -4.7840   22.3850 C   0  0  0  0  0  0  0  0  0  0  0  0
  -22.3530   -4.2610   21.1850 F   0  0  0  0  0  0  0  0  0  0  0  0
  -21.4410   -3.6710   25.8350 F   0  0  0  0  0  0  0  0  0  0  0  0
  -22.8710  -13.5630   21.3420 C   0  0  0  0  0  0  0  0  0  0  0  0
  -22.2150  -12.8300   22.2360 N   0  0  0  0  0  0  0  0  0  0  0  0
  -22.3970  -14.6140   20.9100 O   0  0  0  0  0  0  0  0  0  0  0  0
  -22.6150  -11.9820   22.6100 H   0  0  0  0  0  0  0  0  0  0  0  0
  -21.3030  -13.1220   22.5540 H   0  0  0  0  0  0  0  0  0  0  0  0
  -25.4350  -15.2620   20.4100 N   0  0  0  0  0  0  0  0  0  0  0  0
  -24.6890  -15.9110   20.6300 H   0  0  0  0  0  0  0  0  0  0  0  0
  -26.2610  -15.7190   20.0430 H   0  0  0  0  0  0  0  0  0  0  0  0
  -28.9750  -23.1240   20.2030 C   0  0  0  0  0  3  0  0  0  0  0  0
  -27.9520  -24.5260   20.1970 C   0  0  0  0  0  3  0  0  0  0  0  0
  -28.2510  -26.0900   20.2260 O   0  0  0  0  0  0  0  0  0  0  0  0
  -24.6730  -31.9080   23.1930 C   0  0  0  0  0  0  0  0  0  0  0  0
  -27.2130  -27.1180   20.1740 C   0  0  0  0  0  0  0  0  0  0  0  0
  -23.4630  -30.5160   21.5620 C   0  0  0  0  0  3  0  0  0  0  0  0
  -24.9010  -28.9230   20.1370 C   0  0  0  0  0  0  0  0  0  0  0  0
  -26.0230  -30.7510   21.3930 C   0  0  0  0  0  2  0  0  0  0  0  0
  -26.0880  -29.3510   20.7440 C   0  0  0  0  0  0  0  0  0  0  0  0
  -27.2440  -28.4680   20.7390 C   0  0  0  0  0  3  0  0  0  0  0  0
  -25.9950  -26.8110   19.5280 C   0  0  0  0  0  3  0  0  0  0  0  0
  -24.8710  -27.6690   19.5100 C   0  0  0  0  0  3  0  0  0  0  0  0
  -23.6800  -29.8330   20.1840 C   0  0  0  0  0  2  0  0  0  0  0  0
  -24.7410  -31.0810   22.1050 N   0  0  0  0  0  0  0  0  0  0  0  0
  -23.5890  -32.1990   23.7230 O   0  0  0  0  0  0  0  0  0  0  0  0
  -22.7800  -29.5160   22.5300 C   0  0  0  0  0  0  0  0  0  0  0  0
  -21.4510  -29.3530   22.4100 N   0  0  0  0  0  0  0  0  0  0  0  0
  -23.4520  -28.8890   23.3530 O   0  0  0  0  0  0  0  0  0  0  0  0
  -20.9640  -29.9060   21.7180 H   0  0  0  0  0  0  0  0  0  0  0  0
  -18.0650  -28.1730   22.9420 C   0  0  0  0  0  0  0  0  0  0  0  0
  -20.6270  -28.4230   23.1890 C   0  0  0  0  0  3  0  0  0  0  0  0
  -20.7180  -26.9890   22.6180 C   0  0  0  0  0  2  0  0  0  0  0  0
  -19.6070  -26.6700   21.6120 C   0  0  0  0  0  2  0  0  0  0  0  0
  -18.2310  -26.8230   22.2650 C   0  0  0  0  0  2  0  0  0  0  0  0
  -19.1910  -28.9310   23.3620 C   0  0  0  0  0  0  0  0  0  0  0  0
  -18.9820  -30.1930   23.9590 C   0  0  0  0  0  3  0  0  0  0  0  0
  -17.6810  -30.6980   24.1400 C   0  0  0  0  0  3  0  0  0  0  0  0
  -16.5700  -29.9380   23.7340 C   0  0  0  0  0  3  0  0  0  0  0  0
  -16.7620  -28.6790   23.1400 C   0  0  0  0  0  3  0  0  0  0  0  0
  -25.9550  -32.5440   23.8130 C   0  0  0  0  0  3  0  0  0  0  0  0
  -25.6400  -33.9390   24.1630 N   0  0  0  0  0  0  0  0  0  0  0  0
  -25.9450  -35.0040   23.4090 C   0  0  0  0  0  0  0  0  0  0  0  0
  -26.5860  -34.9170   22.3590 O   0  0  0  0  0  0  0  0  0  0  0  0
  -25.0650  -34.0810   24.9800 H   0  0  0  0  0  0  0  0  0  0  0  0
  -24.1870  -36.7890   23.1440 C   0  0  0  0  0  1  0  0  0  0  0  0
  -25.4640  -36.3850   23.8980 C   0  0  0  0  0  3  0  0  0  0  0  0
  -27.6210  -37.2900   24.6470 C   0  0  0  0  0  1  0  0  0  0  0  0
  -26.4800  -37.4500   23.7500 N   0  0  0  0  0  0  0  0  0  0  0  0
  -26.0700  -38.3640   23.9220 H   0  0  0  0  0  0  0  0  0  0  0  0
  -26.4780  -31.7670   25.0840 C   0  0  1  0  0  0  0  0  0  0  0  0
  -25.3900  -31.5240   26.1570 C   0  0  0  0  0  1  0  0  0  0  0  0
  -27.0610  -30.3900   24.6890 C   0  0  0  0  0  1  0  0  0  0  0  0
  -27.6320  -32.5590   25.7430 C   0  0  0  0  0  1  0  0  0  0  0  0
  2 16  1  0
  3  8  1  0
  4  5  1  0
  4  3  1  0
  6  5  1  0
  6 20  1  0
  6  7  1  0
  8  2  1  0
  8  7  1  0
  9  2  2  0
 10 15  1  0
 11 16  1  0
 11 14  1  0
 13 10  1  0
 13 11  2  0
 15  1  1  0
 15 14  1  0
 16 12  1  0
 17 18  2  0
 18 37  1  0
 19 18  1  0
 19 22  1  0
 20 21  1  0
 20 17  1  0
 21 19  2  0
 22 23  1  0
 23 24  2  0
 25 28  1  0
 25 24  1  0
 26 25  2  0
 27 26  1  0
 27 22  2  0
 28 29  1  0
 29 30  1  0
 30 31  2  0
 32 31  1  0
 32 36  1  0
 33 32  2  0
 34 29  2  0
 34 33  1  0
 35 34  1  0
 37 38  1  0
 38 41  1  0
 38 40  1  0
 39 37  2  0
 42 17  1  0
 42 43  1  0
 44 42  1  0
 45  1  1  0
 46 45  2  0
 46 47  1  0
 48 59  2  0
 49 47  1  0
 49 54  1  0
 50 58  1  0
 50 60  1  0
 51 57  1  0
 51 53  1  0
 52 58  1  0
 53 52  1  0
 54 53  2  0
 55 49  2  0
 56 55  1  0
 56 51  2  0
 57 50  1  0
 58 48  1  0
 60 62  2  0
 61 60  1  0
 63 61  1  0
 64 73  2  0
 64 69  1  0
 65 61  1  0
 65 69  1  0
 66 65  1  0
 67 68  1  0
 67 66  1  0
 68 64  1  0
 69 70  2  0
 70 71  1  0
 72 71  2  0
 73 72  1  0
 74 48  1  0
 74 75  1  0
 74 84  1  0
 75 78  1  0
 76 80  1  0
 76 75  1  0
 77 76  2  0
 80 79  1  0
 82 80  1  0
 82 83  1  0
 82 81  1  0
 84 87  1  1
 84 85  1  0
 86 84  1  0
M  ISO  4   2 100  16 100  46 101  47 101
M  END
>  <TORSDO>  (13) 
F 18

>  <SCORE>  (13) 
-15.001

>  <name>  (13) 
12

>  <ligand_id>  (13) 
12

>  <original_smiles>  (13) 
[H]c1c([H])c([H])c2c(c1[H])C([H])([H])C([H])([H])C([H])([H])C2([H])N([H])C(=O)C1([H])N(C(=O)C([H])(N([H])C(=O)C([H])(N([H])C([H])([H])[H])C([H])([H])[H])C(C([H])([H])[H])(C([H])([H])[H])C([H])([H])[H])C([H])([H])c2c([H])c(OC([H])([H])C([H])([H])C([H])([H])n3nc(N(C(=O)N4C([H])([H])C([H])([H])C([H])([H])C([H])(n5nc(-c6c([H])c([H])c(Oc7c([H])c([H])c(F)c([H])c7F)c([H])c6[H])c(C(=O)N([H])[H])c5N([H])[H])C4([H])[H])C([H])([H])[H])nc3[H])c([H])c([H])c2C1([H])[H]

>  <smiles>  (13) 
[H]c1c([H])c([H])c2c(c1[H])C([H])([H])C([H])([H])C([H])([H])C2([H])N([H])C(=O)C1([H])N(C(=O)C([H])(N([H])C(=O)C([H])(N([H])C([H])([H])[H])C([H])([H])[H])C(C([H])([H])[H])(C([H])([H])[H])C([H])([H])[H])C([H])([H])c2c([H])c(OC([H])([H])C([H])([H])C([H])([H])n3nc(N(C(=O)N4C([H])([H])C([H])([H])C([H])([H])C([H])(n5nc(-c6c([H])c([H])c(Oc7c([H])c([H])c(F)c([H])c7F)c([H])c6[H])c(C(=O)N([H])[H])c5N([H])[H])C4([H])[H])C([H])([H])[H])nc3[H])c([H])c([H])c2C1([H])[H]

$$$$
13:0:0
     RDKit          3D

 90 98  0  0  1  0  0  0  0  0999 V2000
  -29.9080  -22.0960   19.7700 C   0  0  0  0  0  3  0  0  0  0  0  0
  -28.7820  -22.9940   19.7510 C   0  0  0  0  0  0  0  0  0  0  0  0
  -28.1990  -20.7410   19.8260 C   0  0  0  0  0  3  0  0  0  0  0  0
  -27.2940  -19.5510   19.8530 C   0  0  0  0  0  1  0  0  0  0  0  0
  -29.5460  -20.6910   19.8080 N   0  0  0  0  0  0  0  0  0  0  0  0
  -27.7750  -22.0410   19.8040 N   0  0  0  0  0  0  0  0  0  0  0  0
  -26.7930  -22.2890   19.7810 H   0  0  0  0  0  0  0  0  0  0  0  0
  -30.7830  -19.1030   21.4600 C   0  0  0  0  0  1  0  0  0  0  0  0
  -30.4160  -19.2980   19.9790 C   0  0  0  0  0  3  0  0  0  0  0  0
  -30.1050  -17.7430   19.3250 C   0  0  0  0  0  2  0  0  0  0  0  0
  -31.0050  -15.0570   19.7930 C   0  0  0  0  0  0  0  0  0  0  0  0
  -30.8310  -12.6360   19.0120 C   0  0  0  0  0  2  0  0  0  0  0  0
  -29.8370  -12.5090   17.8300 C   0  0  0  0  0  2  0  0  0  0  0  0
  -28.3970  -12.3400   18.3380 C   0  0  0  0  0  2  0  0  0  0  0  0
  -28.0570  -13.3450   19.4660 C   0  0  0  0  0  3  0  0  0  0  0  0
  -29.1580  -13.4190   20.5460 C   0  0  0  0  0  2  0  0  0  0  0  0
  -30.4060  -13.7920   19.8670 N   0  0  0  0  0  0  0  0  0  0  0  0
  -32.1760  -15.0800   19.3920 O   0  0  0  0  0  0  0  0  0  0  0  0
  -30.2470  -16.2660   19.9770 N   0  0  0  0  0  0  0  0  0  0  0  0
  -29.3950  -16.0310   20.4680 H   0  0  0  0  0  0  0  0  0  0  0  0
  -25.7460  -14.0110   20.3410 C   0  0  0  0  0  0  0  0  0  0  0  0
  -24.6680  -13.2760   20.7570 C   0  0  0  0  0  0  0  0  0  0  0  0
  -25.0730  -11.9080   20.6870 C   0  0  0  0  0  0  0  0  0  0  0  0
  -26.7360  -13.0940   20.0390 N   0  0  0  0  0  0  0  0  0  0  0  0
  -26.3430  -11.8240   20.3110 N   0  0  0  0  0  0  0  0  0  0  0  0
  -24.2970  -10.6760   20.8890 C   0  0  0  0  0  0  0  0  0  0  0  0
  -24.6790   -9.7100   21.8450 C   0  0  0  0  0  3  0  0  0  0  0  0
  -23.9040   -8.5470   22.0340 C   0  0  0  0  0  3  0  0  0  0  0  0
  -22.7330   -8.3400   21.2680 C   0  0  0  0  0  0  0  0  0  0  0  0
  -22.3740   -9.2900   20.2970 C   0  0  0  0  0  3  0  0  0  0  0  0
  -23.1490  -10.4440   20.1020 C   0  0  0  0  0  3  0  0  0  0  0  0
  -21.9320   -7.2260   21.3670 O   0  0  0  0  0  0  0  0  0  0  0  0
  -21.7790   -6.5520   22.5520 C   0  0  0  0  0  0  0  0  0  0  0  0
  -21.2560   -7.1800   23.7040 C   0  0  0  0  0  3  0  0  0  0  0  0
  -21.0530   -6.4320   24.8830 C   0  0  0  0  0  3  0  0  0  0  0  0
  -21.3640   -5.0600   24.9080 C   0  0  0  0  0  0  0  0  0  0  0  0
  -21.8810   -4.4320   23.7620 C   0  0  0  0  0  3  0  0  0  0  0  0
  -22.0860   -5.1760   22.5870 C   0  0  0  0  0  0  0  0  0  0  0  0
  -22.5640   -4.5610   21.4770 F   0  0  0  0  0  0  0  0  0  0  0  0
  -21.1620   -4.3400   26.0370 F   0  0  0  0  0  0  0  0  0  0  0  0
  -23.3060  -13.8110   21.0970 C   0  0  0  0  0  0  0  0  0  0  0  0
  -22.5940  -13.1470   22.0010 N   0  0  0  0  0  0  0  0  0  0  0  0
  -22.8860  -14.8510   20.5940 O   0  0  0  0  0  0  0  0  0  0  0  0
  -22.9470  -12.3010   22.4280 H   0  0  0  0  0  0  0  0  0  0  0  0
  -21.6800  -13.4860   22.2670 H   0  0  0  0  0  0  0  0  0  0  0  0
  -25.9560  -15.3790   20.1700 N   0  0  0  0  0  0  0  0  0  0  0  0
  -25.2090  -16.0520   20.3050 H   0  0  0  0  0  0  0  0  0  0  0  0
  -26.7720  -15.7780   19.7320 H   0  0  0  0  0  0  0  0  0  0  0  0
  -28.4740  -24.5990   19.3680 C   0  0  0  0  0  2  0  0  0  0  0  0
  -28.3110  -25.9200   20.2310 O   0  0  0  0  0  0  0  0  0  0  0  0
  -24.6270  -31.6760   23.1310 C   0  0  0  0  0  0  0  0  0  0  0  0
  -27.2840  -26.9490   20.0910 C   0  0  0  0  0  0  0  0  0  0  0  0
  -23.4780  -30.2980   21.4420 C   0  0  0  0  0  3  0  0  0  0  0  0
  -24.9680  -28.7460   20.0260 C   0  0  0  0  0  0  0  0  0  0  0  0
  -26.0360  -30.5510   21.3580 C   0  0  0  0  0  2  0  0  0  0  0  0
  -26.1270  -29.1600   20.6900 C   0  0  0  0  0  0  0  0  0  0  0  0
  -27.2740  -28.2680   20.7250 C   0  0  0  0  0  3  0  0  0  0  0  0
  -26.1000  -26.6690   19.3680 C   0  0  0  0  0  3  0  0  0  0  0  0
  -24.9700  -27.5160   19.3540 C   0  0  0  0  0  3  0  0  0  0  0  0
  -23.7400  -29.6450   20.0590 C   0  0  0  0  0  2  0  0  0  0  0  0
  -24.7340  -30.8650   22.0320 N   0  0  0  0  0  0  0  0  0  0  0  0
  -23.5240  -31.9530   23.6290 O   0  0  0  0  0  0  0  0  0  0  0  0
  -22.7700  -29.2810   22.3740 C   0  0  0  0  0  0  0  0  0  0  0  0
  -21.4370  -29.1420   22.2390 N   0  0  0  0  0  0  0  0  0  0  0  0
  -23.4250  -28.6210   23.1850 O   0  0  0  0  0  0  0  0  0  0  0  0
  -20.9600  -29.7250   21.5640 H   0  0  0  0  0  0  0  0  0  0  0  0
  -18.0280  -28.0150   22.7350 C   0  0  0  0  0  0  0  0  0  0  0  0
  -20.5960  -28.2010   22.9870 C   0  0  0  0  0  3  0  0  0  0  0  0
  -20.6510  -26.7890   22.3560 C   0  0  0  0  0  2  0  0  0  0  0  0
  -19.5340  -26.5450   21.3360 C   0  0  0  0  0  2  0  0  0  0  0  0
  -18.1650  -26.6910   22.0030 C   0  0  0  0  0  2  0  0  0  0  0  0
  -19.1710  -28.7320   23.1870 C   0  0  0  0  0  0  0  0  0  0  0  0
  -18.9880  -29.9790   23.8250 C   0  0  0  0  0  3  0  0  0  0  0  0
  -17.6980  -30.5010   24.0290 C   0  0  0  0  0  3  0  0  0  0  0  0
  -16.5720  -29.7800   23.5980 C   0  0  0  0  0  3  0  0  0  0  0  0
  -16.7380  -28.5390   22.9540 C   0  0  0  0  0  3  0  0  0  0  0  0
  -25.8820  -32.3100   23.8000 C   0  0  0  0  0  3  0  0  0  0  0  0
  -26.3570  -31.5300   25.0860 C   0  0  1  0  0  0  0  0  0  0  0  0
  -25.2290  -31.2690   26.1120 C   0  0  0  0  0  1  0  0  0  0  0  0
  -26.9650  -30.1630   24.7010 C   0  0  0  0  0  1  0  0  0  0  0  0
  -27.4790  -32.3230   25.7970 C   0  0  0  0  0  1  0  0  0  0  0  0
  -25.5600  -33.7070   24.1400 N   0  0  0  0  0  0  0  0  0  0  0  0
  -25.9050  -34.7730   23.4060 C   0  0  0  0  0  0  0  0  0  0  0  0
  -26.5920  -34.6840   22.3840 O   0  0  0  0  0  0  0  0  0  0  0  0
  -24.9560  -33.8480   24.9370 H   0  0  0  0  0  0  0  0  0  0  0  0
  -24.1800  -36.5720   23.0600 C   0  0  0  0  0  1  0  0  0  0  0  0
  -25.4130  -36.1560   23.8780 C   0  0  0  0  0  3  0  0  0  0  0  0
  -27.5300  -37.0450   24.7490 C   0  0  0  0  0  1  0  0  0  0  0  0
  -26.4460  -37.2120   23.7850 N   0  0  0  0  0  0  0  0  0  0  0  0
  -26.0370  -38.1320   23.9260 H   0  0  0  0  0  0  0  0  0  0  0  0
  1  5  1  0
  2  1  2  0
  2  6  1  0
  3  4  1  0
  5  3  1  0
  5  9  1  0
  6  3  1  0
  7  6  1  0
  9  8  1  0
 10 19  1  0
 10  9  1  0
 11 17  1  0
 11 19  1  0
 12 17  1  0
 13 14  1  0
 13 12  1  0
 15 14  1  0
 15 24  1  0
 15 16  1  0
 17 16  1  0
 18 11  2  0
 19 20  1  0
 21 22  2  0
 22 41  1  0
 23 22  1  0
 23 26  1  0
 24 25  1  0
 24 21  1  0
 25 23  2  0
 26 27  1  0
 27 28  2  0
 29 32  1  0
 29 28  1  0
 30 29  2  0
 31 30  1  0
 31 26  2  0
 32 33  1  0
 33 38  2  0
 33 34  1  0
 34 35  2  0
 35 36  1  0
 36 40  1  0
 37 36  2  0
 38 37  1  0
 39 38  1  0
 41 42  1  0
 42 45  1  0
 42 44  1  0
 43 41  2  0
 46 47  1  0
 46 21  1  0
 48 46  1  0
 49  2  1  0
 49 50  1  0
 51 62  2  0
 52 50  1  0
 52 57  1  0
 53 61  1  0
 53 63  1  0
 54 60  1  0
 54 56  1  0
 55 61  1  0
 56 57  2  0
 56 55  1  0
 58 52  2  0
 59 58  1  0
 59 54  2  0
 60 53  1  0
 61 51  1  0
 63 65  2  0
 64 63  1  0
 66 64  1  0
 67 76  2  0
 67 72  1  0
 68 64  1  0
 68 72  1  0
 69 68  1  0
 70 71  1  0
 70 69  1  0
 71 67  1  0
 72 73  2  0
 73 74  1  0
 75 74  2  0
 76 75  1  0
 77 51  1  0
 77 82  1  0
 77 78  1  0
 78 81  1  1
 78 79  1  0
 80 78  1  0
 82 85  1  0
 83 87  1  0
 83 82  1  0
 84 83  2  0
 87 86  1  0
 89 87  1  0
 89 90  1  0
 89 88  1  0
M  ISO  4  11 100  19 100  49 101  50 101
M  END
>  <TORSDO>  (14) 
F 19

>  <SCORE>  (14) 
-14.129

>  <name>  (14) 
13

>  <ligand_id>  (14) 
13

>  <original_smiles>  (14) 
[H]c1c([H])c([H])c2c(c1[H])C([H])([H])C([H])([H])C([H])([H])C2([H])N([H])C(=O)C1([H])N(C(=O)C([H])(N([H])C(=O)C([H])(N([H])C([H])([H])[H])C([H])([H])[H])C(C([H])([H])[H])(C([H])([H])[H])C([H])([H])[H])C([H])([H])c2c([H])c(OC([H])([H])c3c([H])n(C([H])(C([H])([H])[H])C([H])([H])N([H])C(=O)N4C([H])([H])C([H])([H])C([H])([H])C([H])(n5nc(-c6c([H])c([H])c(Oc7c([H])c([H])c(F)c([H])c7F)c([H])c6[H])c(C(=O)N([H])[H])c5N([H])[H])C4([H])[H])c(C([H])([H])[H])[n+]3[H])c([H])c([H])c2C1([H])[H]

>  <smiles>  (14) 
[H]c1c([H])c([H])c2c(c1[H])C([H])([H])C([H])([H])C([H])([H])C2([H])N([H])C(=O)C1([H])N(C(=O)C([H])(N([H])C(=O)C([H])(N([H])C([H])([H])[H])C([H])([H])[H])C(C([H])([H])[H])(C([H])([H])[H])C([H])([H])[H])C([H])([H])c2c([H])c(OC([H])([H])c3c([H])n(C([H])(C([H])([H])[H])C([H])([H])N([H])C(=O)N4C([H])([H])C([H])([H])C([H])([H])C([H])(n5nc(-c6c([H])c([H])c(Oc7c([H])c([H])c(F)c([H])c7F)c([H])c6[H])c(C(=O)N([H])[H])c5N([H])[H])C4([H])[H])c(C([H])([H])[H])[n+]3[H])c([H])c([H])c2C1([H])[H]

$$$$
14:0:0
     RDKit          3D

 91 99  0  0  1  0  0  0  0  0999 V2000
  -29.8800  -20.7640   19.4870 C   0  0  0  0  0  3  0  0  0  0  0  0
  -29.2270  -19.5380   19.8380 C   0  0  0  0  0  0  0  0  0  0  0  0
  -28.9120  -21.7320   19.5540 C   0  0  0  0  0  0  0  0  0  0  0  0
  -26.4720  -21.6870   20.3160 C   0  0  0  0  0  1  0  0  0  0  0  0
  -27.9770  -19.7800   20.2220 N   0  0  0  0  0  0  0  0  0  0  0  0
  -27.7850  -21.1130   20.0630 N   0  0  0  0  0  0  0  0  0  0  0  0
  -30.9670  -18.0590   18.7540 C   0  0  0  0  0  1  0  0  0  0  0  0
  -29.7060  -18.0890   19.6420 C   0  0  0  0  0  3  0  0  0  0  0  0
  -29.9210  -17.2890   20.9670 C   0  0  0  0  0  2  0  0  0  0  0  0
  -30.6750  -14.8880   20.3240 C   0  0  0  0  0  0  0  0  0  0  0  0
  -30.5470  -12.6460   19.2690 C   0  0  0  0  0  2  0  0  0  0  0  0
  -29.5960  -12.7560   18.0560 C   0  0  0  0  0  2  0  0  0  0  0  0
  -28.1190  -12.5890   18.4800 C   0  0  0  0  0  2  0  0  0  0  0  0
  -27.7530  -13.4520   19.7160 C   0  0  0  0  0  3  0  0  0  0  0  0
  -28.8100  -13.2840   20.8260 C   0  0  0  0  0  2  0  0  0  0  0  0
  -30.1170  -13.6490   20.2540 N   0  0  0  0  0  0  0  0  0  0  0  0
  -31.7830  -15.1590   19.8480 O   0  0  0  0  0  0  0  0  0  0  0  0
  -29.8370  -15.8190   20.8270 N   0  0  0  0  0  0  0  0  0  0  0  0
  -28.9630  -15.4270   21.1440 H   0  0  0  0  0  0  0  0  0  0  0  0
  -25.3720  -14.0410   20.4860 C   0  0  0  0  0  0  0  0  0  0  0  0
  -24.3130  -13.2580   20.8630 C   0  0  0  0  0  0  0  0  0  0  0  0
  -24.7770  -11.9110   20.7930 C   0  0  0  0  0  0  0  0  0  0  0  0
  -26.4100  -13.1660   20.2080 N   0  0  0  0  0  0  0  0  0  0  0  0
  -26.0580  -11.8800   20.4500 N   0  0  0  0  0  0  0  0  0  0  0  0
  -24.0660  -10.6420   20.9780 C   0  0  0  0  0  0  0  0  0  0  0  0
  -24.5090   -9.6760   21.9080 C   0  0  0  0  0  3  0  0  0  0  0  0
  -23.8000   -8.4690   22.0830 C   0  0  0  0  0  3  0  0  0  0  0  0
  -22.6340   -8.2160   21.3200 C   0  0  0  0  0  0  0  0  0  0  0  0
  -22.2090   -9.1700   20.3810 C   0  0  0  0  0  3  0  0  0  0  0  0
  -22.9180  -10.3690   20.2080 C   0  0  0  0  0  3  0  0  0  0  0  0
  -21.8950   -7.0600   21.3970 O   0  0  0  0  0  0  0  0  0  0  0  0
  -21.8330   -6.3270   22.5520 C   0  0  0  0  0  0  0  0  0  0  0  0
  -21.3360   -6.8720   23.7550 C   0  0  0  0  0  3  0  0  0  0  0  0
  -21.2240   -6.0570   24.9000 C   0  0  0  0  0  3  0  0  0  0  0  0
  -21.5960   -4.7010   24.8400 C   0  0  0  0  0  0  0  0  0  0  0  0
  -22.0890   -4.1580   23.6400 C   0  0  0  0  0  3  0  0  0  0  0  0
  -22.2040   -4.9690   22.4980 C   0  0  0  0  0  0  0  0  0  0  0  0
  -22.6580   -4.4370   21.3370 F   0  0  0  0  0  0  0  0  0  0  0  0
  -21.4780   -3.9150   25.9350 F   0  0  0  0  0  0  0  0  0  0  0  0
  -22.9250  -13.7240   21.1890 C   0  0  0  0  0  0  0  0  0  0  0  0
  -22.2320  -13.0060   22.0660 N   0  0  0  0  0  0  0  0  0  0  0  0
  -22.4650  -14.7550   20.7000 O   0  0  0  0  0  0  0  0  0  0  0  0
  -22.6190  -12.1630   22.4630 H   0  0  0  0  0  0  0  0  0  0  0  0
  -21.3080  -13.3040   22.3390 H   0  0  0  0  0  0  0  0  0  0  0  0
  -25.5350  -15.4160   20.3450 N   0  0  0  0  0  0  0  0  0  0  0  0
  -24.7810  -16.0720   20.5170 H   0  0  0  0  0  0  0  0  0  0  0  0
  -26.3880  -15.8660   20.0350 H   0  0  0  0  0  0  0  0  0  0  0  0
  -28.8970  -23.1370   18.9990 C   0  0  0  0  0  2  0  0  0  0  0  0
  -29.3760  -24.3430   19.8660 C   0  0  0  0  0  2  0  0  0  0  0  0
  -28.6610  -25.5950   19.3070 C   0  0  0  0  0  2  0  0  0  0  0  0
  -28.8730  -26.9460   19.7980 O   0  0  0  0  0  0  0  0  0  0  0  0
  -24.6420  -31.6330   23.1110 C   0  0  0  0  0  0  0  0  0  0  0  0
  -27.7220  -27.7260   19.7240 C   0  0  0  0  0  0  0  0  0  0  0  0
  -23.6120  -30.3040   21.3080 C   0  0  0  0  0  3  0  0  0  0  0  0
  -25.2270  -29.0770   19.7800 C   0  0  0  0  0  0  0  0  0  0  0  0
  -26.1070  -30.8910   21.2350 C   0  0  0  0  0  2  0  0  0  0  0  0
  -26.3240  -29.6020   20.4760 C   0  0  0  0  0  0  0  0  0  0  0  0
  -27.5730  -28.9230   20.4640 C   0  0  0  0  0  3  0  0  0  0  0  0
  -26.6120  -27.2980   18.9430 C   0  0  0  0  0  3  0  0  0  0  0  0
  -25.3690  -27.9240   19.0070 C   0  0  0  0  0  3  0  0  0  0  0  0
  -23.9130  -29.8090   19.8720 C   0  0  0  0  0  2  0  0  0  0  0  0
  -24.8030  -30.9540   21.9440 N   0  0  0  0  0  0  0  0  0  0  0  0
  -23.5220  -31.7550   23.6300 O   0  0  0  0  0  0  0  0  0  0  0  0
  -23.0410  -29.1280   22.1350 C   0  0  0  0  0  0  0  0  0  0  0  0
  -21.7370  -28.8540   21.9600 N   0  0  0  0  0  0  0  0  0  0  0  0
  -23.7620  -28.4780   22.8920 O   0  0  0  0  0  0  0  0  0  0  0  0
  -21.2100  -29.4500   21.3390 H   0  0  0  0  0  0  0  0  0  0  0  0
  -18.4440  -27.3960   22.3080 C   0  0  0  0  0  0  0  0  0  0  0  0
  -20.9850  -27.7780   22.6060 C   0  0  0  0  0  3  0  0  0  0  0  0
  -21.1690  -26.4380   21.8560 C   0  0  0  0  0  2  0  0  0  0  0  0
  -20.0780  -26.1770   20.8110 C   0  0  0  0  0  2  0  0  0  0  0  0
  -18.6960  -26.1520   21.4710 C   0  0  0  0  0  2  0  0  0  0  0  0
  -19.5170  -28.1690   22.8250 C   0  0  0  0  0  0  0  0  0  0  0  0
  -19.2270  -29.3370   23.5640 C   0  0  0  0  0  3  0  0  0  0  0  0
  -17.8970  -29.7330   23.7900 C   0  0  0  0  0  3  0  0  0  0  0  0
  -16.8380  -28.9560   23.2860 C   0  0  0  0  0  3  0  0  0  0  0  0
  -17.1130  -27.7890   22.5530 C   0  0  0  0  0  3  0  0  0  0  0  0
  -25.8450  -32.3130   23.8330 C   0  0  0  0  0  3  0  0  0  0  0  0
  -25.4430  -33.6900   24.1560 N   0  0  0  0  0  0  0  0  0  0  0  0
  -25.7590  -34.7670   23.4250 C   0  0  0  0  0  0  0  0  0  0  0  0
  -26.4910  -34.7120   22.4330 O   0  0  0  0  0  0  0  0  0  0  0  0
  -24.8040  -33.8000   24.9290 H   0  0  0  0  0  0  0  0  0  0  0  0
  -23.9460  -36.4610   22.9890 C   0  0  0  0  0  1  0  0  0  0  0  0
  -25.1660  -36.1220   23.8620 C   0  0  0  0  0  3  0  0  0  0  0  0
  -27.1960  -37.1300   24.8090 C   0  0  0  0  0  1  0  0  0  0  0  0
  -26.1400  -37.2350   23.8060 N   0  0  0  0  0  0  0  0  0  0  0  0
  -25.6720  -38.1290   23.9290 H   0  0  0  0  0  0  0  0  0  0  0  0
  -26.3050  -31.5400   25.1280 C   0  0  1  0  0  0  0  0  0  0  0  0
  -25.1580  -31.2280   26.1140 C   0  0  0  0  0  1  0  0  0  0  0  0
  -26.9800  -30.2010   24.7500 C   0  0  0  0  0  1  0  0  0  0  0  0
  -27.3650  -32.3770   25.8830 C   0  0  0  0  0  1  0  0  0  0  0  0
  1  3  2  0
  1  2  1  0
  2  5  2  0
  3  6  1  0
  6  5  1  0
  6  4  1  0
  8  7  1  0
  8  2  1  0
  8  9  1  0
 10 18  1  0
 11 16  1  0
 12 13  1  0
 12 11  1  0
 14 13  1  0
 14 23  1  0
 14 15  1  0
 16 10  1  0
 16 15  1  0
 17 10  2  0
 18  9  1  0
 18 19  1  0
 20 21  2  0
 21 40  1  0
 22 21  1  0
 22 25  1  0
 23 24  1  0
 23 20  1  0
 24 22  2  0
 25 26  1  0
 26 27  2  0
 28 31  1  0
 28 27  1  0
 29 28  2  0
 30 29  1  0
 30 25  2  0
 31 32  1  0
 32 33  1  0
 33 34  2  0
 35 34  1  0
 35 39  1  0
 36 35  2  0
 37 32  2  0
 37 36  1  0
 38 37  1  0
 40 41  1  0
 41 44  1  0
 41 43  1  0
 42 40  2  0
 45 20  1  0
 45 46  1  0
 47 45  1  0
 48  3  1  0
 48 49  1  0
 50 51  1  0
 50 49  1  0
 52 63  2  0
 53 51  1  0
 53 58  1  0
 54 62  1  0
 54 64  1  0
 55 61  1  0
 55 57  1  0
 56 62  1  0
 57 56  1  0
 58 57  2  0
 59 60  1  0
 59 53  2  0
 60 55  2  0
 61 54  1  0
 62 52  1  0
 64 66  2  0
 65 64  1  0
 67 65  1  0
 68 77  2  0
 68 73  1  0
 69 65  1  0
 69 73  1  0
 70 69  1  0
 71 72  1  0
 71 70  1  0
 72 68  1  0
 73 74  2  0
 74 75  1  0
 76 75  2  0
 77 76  1  0
 78 52  1  0
 78 79  1  0
 78 88  1  0
 79 82  1  0
 80 84  1  0
 80 79  1  0
 81 80  2  0
 84 83  1  0
 86 84  1  0
 86 87  1  0
 86 85  1  0
 88 91  1  1
 88 89  1  0
 90 88  1  0
M  ISO  4  10 100  18 100  50 101  51 101
M  END
>  <TORSDO>  (15) 
F 21

>  <SCORE>  (15) 
-11.781

>  <name>  (15) 
14

>  <ligand_id>  (15) 
14

>  <original_smiles>  (15) 
[H]c1c([H])c([H])c2c(c1[H])C([H])([H])C([H])([H])C([H])([H])C2([H])N([H])C(=O)C1([H])N(C(=O)C([H])(N([H])C(=O)C([H])(N([H])C([H])([H])[H])C([H])([H])[H])C(C([H])([H])[H])(C([H])([H])[H])C([H])([H])[H])C([H])([H])c2c([H])c(OC([H])([H])C([H])([H])C([H])([H])c3c([H])c(C([H])(C([H])([H])[H])C([H])([H])N([H])C(=O)N4C([H])([H])C([H])([H])C([H])([H])C([H])(n5nc(-c6c([H])c([H])c(Oc7c([H])c([H])c(F)c([H])c7F)c([H])c6[H])c(C(=O)N([H])[H])c5N([H])[H])C4([H])[H])nn3C([H])([H])[H])c([H])c([H])c2C1([H])[H]

>  <smiles>  (15) 
[H]c1c([H])c([H])c2c(c1[H])C([H])([H])C([H])([H])C([H])([H])C2([H])N([H])C(=O)C1([H])N(C(=O)C([H])(N([H])C(=O)C([H])(N([H])C([H])([H])[H])C([H])([H])[H])C(C([H])([H])[H])(C([H])([H])[H])C([H])([H])[H])C([H])([H])c2c([H])c(OC([H])([H])C([H])([H])C([H])([H])c3c([H])c(C([H])(C([H])([H])[H])C([H])([H])N([H])C(=O)N4C([H])([H])C([H])([H])C([H])([H])C([H])(n5nc(-c6c([H])c([H])c(Oc7c([H])c([H])c(F)c([H])c7F)c([H])c6[H])c(C(=O)N([H])[H])c5N([H])[H])C4([H])[H])nn3C([H])([H])[H])c([H])c([H])c2C1([H])[H]

$$$$
15:0:0
     RDKit          3D

 94102  0  0  1  0  0  0  0  0999 V2000
  -30.6020  -20.3000   19.3340 C   0  0  0  0  0  0  0  0  0  0  0  0
  -30.8780  -18.2360   19.0470 C   0  0  0  0  0  0  0  0  0  0  0  0
  -30.1560  -20.0390   18.1000 N   0  0  0  0  0  0  0  0  0  0  0  0
  -30.3350  -18.6890   17.9130 N   0  0  0  0  0  0  0  0  0  0  0  0
  -31.0870  -19.2100   19.9720 N   0  0  0  0  0  0  0  0  0  0  0  0
  -33.1470  -19.6020   21.3050 C   0  0  0  0  0  1  0  0  0  0  0  0
  -31.6880  -19.1300   21.3010 C   0  0  0  0  0  2  0  0  0  0  0  0
  -30.6010  -21.6860   19.9260 C   0  0  0  0  0  2  0  0  0  0  0  0
  -29.1820  -22.2620   20.0790 C   0  0  0  0  0  2  0  0  0  0  0  0
  -29.1220  -23.7450   20.5020 C   0  0  0  0  0  2  0  0  0  0  0  0
  -29.8180  -24.7120   19.5200 C   0  0  0  0  0  2  0  0  0  0  0  0
  -28.9870  -25.9500   19.1380 C   0  0  0  0  0  2  0  0  0  0  0  0
  -28.6210  -26.7410   20.2770 O   0  0  0  0  0  0  0  0  0  0  0  0
  -24.5910  -31.8530   23.1900 C   0  0  0  0  0  0  0  0  0  0  0  0
  -27.4180  -27.4210   20.2400 C   0  0  0  0  0  0  0  0  0  0  0  0
  -23.4660  -30.4050   21.5340 C   0  0  0  0  0  3  0  0  0  0  0  0
  -24.9900  -28.8770   20.1810 C   0  0  0  0  0  0  0  0  0  0  0  0
  -25.9900  -30.8060   21.4140 C   0  0  0  0  0  2  0  0  0  0  0  0
  -26.1210  -29.4280   20.7960 C   0  0  0  0  0  0  0  0  0  0  0  0
  -27.3340  -28.7040   20.8300 C   0  0  0  0  0  3  0  0  0  0  0  0
  -26.2500  -26.8680   19.6620 C   0  0  0  0  0  3  0  0  0  0  0  0
  -25.0480  -27.5930   19.6200 C   0  0  0  0  0  3  0  0  0  0  0  0
  -23.7310  -29.7100   20.1720 C   0  0  0  0  0  2  0  0  0  0  0  0
  -24.7000  -31.0370   22.1030 N   0  0  0  0  0  0  0  0  0  0  0  0
  -23.4890  -32.1110   23.6910 O   0  0  0  0  0  0  0  0  0  0  0  0
  -22.8040  -29.3820   22.4870 C   0  0  0  0  0  0  0  0  0  0  0  0
  -21.4820  -29.1990   22.3430 N   0  0  0  0  0  0  0  0  0  0  0  0
  -23.4780  -28.7580   23.3100 O   0  0  0  0  0  0  0  0  0  0  0  0
  -20.9990  -29.7560   21.6510 H   0  0  0  0  0  0  0  0  0  0  0  0
  -18.0950  -28.0450   22.8410 C   0  0  0  0  0  0  0  0  0  0  0  0
  -20.6570  -28.2620   23.1040 C   0  0  0  0  0  3  0  0  0  0  0  0
  -20.7370  -26.8370   22.5100 C   0  0  0  0  0  2  0  0  0  0  0  0
  -19.6260  -26.5430   21.4970 C   0  0  0  0  0  2  0  0  0  0  0  0
  -18.2490  -26.7010   22.1490 C   0  0  0  0  0  2  0  0  0  0  0  0
  -19.2260  -28.7850   23.2760 C   0  0  0  0  0  0  0  0  0  0  0  0
  -19.0290  -30.0440   23.8820 C   0  0  0  0  0  3  0  0  0  0  0  0
  -17.7320  -30.5640   24.0580 C   0  0  0  0  0  3  0  0  0  0  0  0
  -16.6160  -29.8190   23.6400 C   0  0  0  0  0  3  0  0  0  0  0  0
  -16.7980  -28.5620   23.0380 C   0  0  0  0  0  3  0  0  0  0  0  0
  -25.8450  -32.5170   23.8400 C   0  0  0  0  0  3  0  0  0  0  0  0
  -25.4880  -33.9030   24.1680 N   0  0  0  0  0  0  0  0  0  0  0  0
  -25.8110  -34.9680   23.4220 C   0  0  0  0  0  0  0  0  0  0  0  0
  -26.5120  -34.8890   22.4100 O   0  0  0  0  0  0  0  0  0  0  0  0
  -24.8660  -34.0380   24.9520 H   0  0  0  0  0  0  0  0  0  0  0  0
  -24.0530  -36.7190   23.0130 C   0  0  0  0  0  1  0  0  0  0  0  0
  -25.2710  -36.3400   23.8700 C   0  0  0  0  0  3  0  0  0  0  0  0
  -27.3460  -37.2710   24.7950 C   0  0  0  0  0  1  0  0  0  0  0  0
  -26.2800  -37.4200   23.8080 N   0  0  0  0  0  0  0  0  0  0  0  0
  -25.8450  -38.3280   23.9490 H   0  0  0  0  0  0  0  0  0  0  0  0
  -26.3590  -31.7550   25.1220 C   0  0  1  0  0  0  0  0  0  0  0  0
  -25.2510  -31.4680   26.1640 C   0  0  0  0  0  1  0  0  0  0  0  0
  -27.0000  -30.4030   24.7330 C   0  0  0  0  0  1  0  0  0  0  0  0
  -27.4660  -32.5830   25.8160 C   0  0  0  0  0  1  0  0  0  0  0  0
  -31.3370  -16.8100   19.2150 C   0  0  0  0  0  2  0  0  0  0  0  0
  -30.9290  -14.5300   19.8490 C   0  0  0  0  0  0  0  0  0  0  0  0
  -30.4870  -12.3590   18.7500 C   0  0  0  0  0  2  0  0  0  0  0  0
  -29.4560  -12.4810   17.6170 C   0  0  0  0  0  2  0  0  0  0  0  0
  -28.0200  -12.3160   18.1620 C   0  0  0  0  0  2  0  0  0  0  0  0
  -27.7640  -13.1700   19.4300 C   0  0  0  0  0  3  0  0  0  0  0  0
  -28.9190  -13.0140   20.4340 C   0  0  0  0  0  2  0  0  0  0  0  0
  -30.1450  -13.4140   19.7330 N   0  0  0  0  0  0  0  0  0  0  0  0
  -32.1140  -14.4280   19.5180 O   0  0  0  0  0  0  0  0  0  0  0  0
  -30.3990  -15.8110   19.8460 N   0  0  0  0  0  0  0  0  0  0  0  0
  -25.4330  -13.7760   20.3450 C   0  0  0  0  0  0  0  0  0  0  0  0
  -24.3960  -13.0030   20.7850 C   0  0  0  0  0  0  0  0  0  0  0  0
  -24.8540  -11.6550   20.7060 C   0  0  0  0  0  0  0  0  0  0  0  0
  -26.4590  -12.8950   20.0260 N   0  0  0  0  0  0  0  0  0  0  0  0
  -26.1190  -11.6140   20.3040 N   0  0  0  0  0  0  0  0  0  0  0  0
  -24.1440  -10.3940   20.9380 C   0  0  0  0  0  0  0  0  0  0  0  0
  -24.5770   -9.4840   21.9270 C   0  0  0  0  0  3  0  0  0  0  0  0
  -23.8730   -8.2800   22.1480 C   0  0  0  0  0  3  0  0  0  0  0  0
  -22.7230   -7.9860   21.3770 C   0  0  0  0  0  0  0  0  0  0  0  0
  -22.3110   -8.8830   20.3760 C   0  0  0  0  0  3  0  0  0  0  0  0
  -23.0160  -10.0770   20.1560 C   0  0  0  0  0  3  0  0  0  0  0  0
  -21.9850   -6.8340   21.5010 O   0  0  0  0  0  0  0  0  0  0  0  0
  -21.8130   -6.2180   22.7120 C   0  0  0  0  0  0  0  0  0  0  0  0
  -21.2140   -6.8770   23.8080 C   0  0  0  0  0  3  0  0  0  0  0  0
  -21.0060   -6.1830   25.0160 C   0  0  0  0  0  3  0  0  0  0  0  0
  -21.3740   -4.8290   25.1260 C   0  0  0  0  0  0  0  0  0  0  0  0
  -21.9560   -4.1690   24.0300 C   0  0  0  0  0  3  0  0  0  0  0  0
  -22.1740   -4.8600   22.8270 C   0  0  0  0  0  0  0  0  0  0  0  0
  -22.7220   -4.2150   21.7690 F   0  0  0  0  0  0  0  0  0  0  0  0
  -21.1610   -4.1590   26.2820 F   0  0  0  0  0  0  0  0  0  0  0  0
  -23.0250  -13.4790   21.1720 C   0  0  0  0  0  0  0  0  0  0  0  0
  -22.3700  -12.7730   22.0880 N   0  0  0  0  0  0  0  0  0  0  0  0
  -22.5420  -14.5070   20.6980 O   0  0  0  0  0  0  0  0  0  0  0  0
  -22.7660  -11.9290   22.4730 H   0  0  0  0  0  0  0  0  0  0  0  0
  -21.4580  -13.0740   22.4020 H   0  0  0  0  0  0  0  0  0  0  0  0
  -25.5740  -15.1420   20.1760 N   0  0  0  0  0  0  0  0  0  0  0  0
  -24.8400  -15.7880   20.4490 H   0  0  0  0  0  0  0  0  0  0  0  0
  -26.4390  -15.5990   19.9170 H   0  0  0  0  0  0  0  0  0  0  0  0
  -28.1290  -16.9310   20.0420 C   0  0  0  0  0  1  0  0  0  0  0  0
  -29.1170  -15.8160   22.1310 C   0  0  0  0  0  1  0  0  0  0  0  0
  -29.4080  -16.4580   20.7620 C   0  0  0  0  0  3  0  0  0  0  0  0
  1  8  1  0
  1  5  1  0
  2 54  1  0
  2  5  1  0
  3  1  2  0
  4  3  1  0
  4  2  2  0
  5  7  1  0
  7  6  1  0
  8  9  1  0
  9 10  1  0
 11 10  1  0
 12 11  1  0
 12 13  1  0
 14 25  2  0
 15 13  1  0
 15 20  1  0
 16 24  1  0
 16 26  1  0
 17 19  1  0
 18 24  1  0
 19 20  2  0
 19 18  1  0
 21 15  2  0
 22 21  1  0
 22 17  2  0
 23 17  1  0
 23 16  1  0
 24 14  1  0
 26 28  2  0
 27 26  1  0
 29 27  1  0
 30 39  2  0
 30 35  1  0
 31 27  1  0
 31 35  1  0
 32 31  1  0
 33 34  1  0
 33 32  1  0
 34 30  1  0
 35 36  2  0
 36 37  1  0
 38 37  2  0
 39 38  1  0
 40 14  1  0
 40 41  1  0
 40 50  1  0
 41 44  1  0
 42 46  1  0
 42 41  1  0
 43 42  2  0
 46 45  1  0
 48 46  1  0
 48 49  1  0
 48 47  1  0
 50 53  1  1
 50 51  1  0
 52 50  1  0
 54 63  1  0
 56 61  1  0
 57 58  1  0
 57 56  1  0
 59 58  1  0
 59 67  1  0
 59 60  1  0
 61 55  1  0
 61 60  1  0
 62 55  2  0
 63 55  1  0
 63 94  1  0
 64 65  2  0
 65 84  1  0
 66 65  1  0
 66 69  1  0
 67 68  1  0
 67 64  1  0
 68 66  2  0
 69 70  1  0
 70 71  2  0
 72 75  1  0
 72 71  1  0
 73 72  2  0
 74 73  1  0
 74 69  2  0
 75 76  1  0
 76 81  2  0
 76 77  1  0
 77 78  2  0
 78 79  1  0
 79 83  1  0
 80 79  2  0
 81 80  1  0
 82 81  1  0
 84 85  1  0
 85 88  1  0
 85 87  1  0
 86 84  2  0
 89 64  1  0
 89 90  1  0
 91 89  1  0
 92 94  1  0
 94 93  1  0
M  ISO  4  12 101  13 101  55 100  63 100
M  END
>  <TORSDO>  (16) 
F 24

>  <SCORE>  (16) 
-11.210

>  <name>  (16) 
15

>  <ligand_id>  (16) 
15

>  <original_smiles>  (16) 
[H]c1c([H])c([H])c2c(c1[H])C([H])([H])C([H])([H])C([H])([H])C2([H])N([H])C(=O)C1([H])N(C(=O)C([H])(N([H])C(=O)C([H])(N([H])C([H])([H])[H])C([H])([H])[H])C(C([H])([H])[H])(C([H])([H])[H])C([H])([H])[H])C([H])([H])c2c([H])c(OC([H])([H])C([H])([H])C([H])([H])C([H])([H])C([H])([H])c3nnc(C([H])([H])N(C(=O)N4C([H])([H])C([H])([H])C([H])([H])C([H])(n5nc(-c6c([H])c([H])c(Oc7c([H])c([H])c(F)c([H])c7F)c([H])c6[H])c(C(=O)N([H])[H])c5N([H])[H])C4([H])[H])C([H])(C([H])([H])[H])C([H])([H])[H])n3C([H])([H])C([H])([H])[H])c([H])c([H])c2C1([H])[H]

>  <smiles>  (16) 
[H]c1c([H])c([H])c2c(c1[H])C([H])([H])C([H])([H])C([H])([H])C2([H])N([H])C(=O)C1([H])N(C(=O)C([H])(N([H])C(=O)C([H])(N([H])C([H])([H])[H])C([H])([H])[H])C(C([H])([H])[H])(C([H])([H])[H])C([H])([H])[H])C([H])([H])c2c([H])c(OC([H])([H])C([H])([H])C([H])([H])C([H])([H])C([H])([H])c3nnc(C([H])([H])N(C(=O)N4C([H])([H])C([H])([H])C([H])([H])C([H])(n5nc(-c6c([H])c([H])c(Oc7c([H])c([H])c(F)c([H])c7F)c([H])c6[H])c(C(=O)N([H])[H])c5N([H])[H])C4([H])[H])C([H])(C([H])([H])[H])C([H])([H])[H])n3C([H])([H])C([H])([H])[H])c([H])c([H])c2C1([H])[H]

$$$$
16:0:0
     RDKit          3D

 92100  0  0  1  0  0  0  0  0999 V2000
  -28.3060  -20.9080   20.8210 C   0  0  0  0  0  3  0  0  0  0  0  0
  -29.2230  -21.7260   20.1740 C   0  0  0  0  0  0  0  0  0  0  0  0
  -29.7920  -19.3580   19.9830 C   0  0  0  0  0  3  0  0  0  0  0  0
  -27.9460  -18.4340   21.3410 C   0  0  0  0  0  1  0  0  0  0  0  0
  -28.6670  -19.5450   20.7180 N   0  0  0  0  0  0  0  0  0  0  0  0
  -30.1110  -20.6950   19.6980 N   0  0  0  0  0  0  0  0  0  0  0  0
  -30.9460  -20.9300   19.1750 H   0  0  0  0  0  0  0  0  0  0  0  0
  -32.1170  -18.3080   19.6750 C   0  0  0  0  0  1  0  0  0  0  0  0
  -30.6160  -17.9640   19.4990 C   0  0  1  0  0  0  0  0  0  0  0  0
  -31.0970  -15.2210   19.8560 C   0  0  0  0  0  0  0  0  0  0  0  0
  -30.8770  -12.8810   18.8900 C   0  0  0  0  0  2  0  0  0  0  0  0
  -29.8710  -12.8690   17.7160 C   0  0  0  0  0  2  0  0  0  0  0  0
  -28.4400  -12.6350   18.2390 C   0  0  0  0  0  2  0  0  0  0  0  0
  -28.1190  -13.5090   19.4820 C   0  0  0  0  0  3  0  0  0  0  0  0
  -29.2560  -13.5210   20.5280 C   0  0  0  0  0  2  0  0  0  0  0  0
  -30.4700  -13.9670   19.8390 N   0  0  0  0  0  0  0  0  0  0  0  0
  -32.2730  -15.2180   19.4790 O   0  0  0  0  0  0  0  0  0  0  0  0
  -30.3880  -16.4650   20.0530 N   0  0  0  0  0  0  0  0  0  0  0  0
  -29.4510  -16.3080   20.3890 H   0  0  0  0  0  0  0  0  0  0  0  0
  -25.8180  -14.0480   20.4480 C   0  0  0  0  0  0  0  0  0  0  0  0
  -24.7850  -13.2590   20.8710 C   0  0  0  0  0  0  0  0  0  0  0  0
  -25.2340  -11.9110   20.7280 C   0  0  0  0  0  0  0  0  0  0  0  0
  -26.8280  -13.1820   20.0740 N   0  0  0  0  0  0  0  0  0  0  0  0
  -26.4950  -11.8850   20.3080 N   0  0  0  0  0  0  0  0  0  0  0  0
  -24.5110  -10.6450   20.9050 C   0  0  0  0  0  0  0  0  0  0  0  0
  -24.9010   -9.7040   21.8840 C   0  0  0  0  0  3  0  0  0  0  0  0
  -24.1790   -8.5010   22.0470 C   0  0  0  0  0  3  0  0  0  0  0  0
  -23.0530   -8.2300   21.2340 C   0  0  0  0  0  0  0  0  0  0  0  0
  -22.6840   -9.1600   20.2460 C   0  0  0  0  0  3  0  0  0  0  0  0
  -23.4060  -10.3550   20.0780 C   0  0  0  0  0  3  0  0  0  0  0  0
  -22.3050   -7.0790   21.3070 O   0  0  0  0  0  0  0  0  0  0  0  0
  -22.0340   -6.4700   22.5080 C   0  0  0  0  0  0  0  0  0  0  0  0
  -21.3520   -7.1410   23.5470 C   0  0  0  0  0  3  0  0  0  0  0  0
  -21.0350   -6.4560   24.7380 C   0  0  0  0  0  3  0  0  0  0  0  0
  -21.3860   -5.1010   24.8860 C   0  0  0  0  0  0  0  0  0  0  0  0
  -22.0630   -4.4310   23.8520 C   0  0  0  0  0  3  0  0  0  0  0  0
  -22.3840   -5.1150   22.6660 C   0  0  0  0  0  0  0  0  0  0  0  0
  -23.0130   -4.4570   21.6640 F   0  0  0  0  0  0  0  0  0  0  0  0
  -21.0760   -4.4410   26.0260 F   0  0  0  0  0  0  0  0  0  0  0  0
  -23.4210  -13.7270   21.2740 C   0  0  0  0  0  0  0  0  0  0  0  0
  -22.7600  -13.0070   22.1750 N   0  0  0  0  0  0  0  0  0  0  0  0
  -22.9480  -14.7710   20.8250 O   0  0  0  0  0  0  0  0  0  0  0  0
  -23.1550  -12.1720   22.5750 H   0  0  0  0  0  0  0  0  0  0  0  0
  -21.8430  -13.3040   22.4720 H   0  0  0  0  0  0  0  0  0  0  0  0
  -25.9670  -15.4250   20.3150 N   0  0  0  0  0  0  0  0  0  0  0  0
  -25.1530  -16.0210   20.4180 H   0  0  0  0  0  0  0  0  0  0  0  0
  -26.6620  -15.8290   19.7040 H   0  0  0  0  0  0  0  0  0  0  0  0
  -30.6840  -18.9080   17.0070 C   0  0  0  0  0  1  0  0  0  0  0  0
  -30.3330  -17.7670   17.9760 C   0  0  0  0  0  2  0  0  0  0  0  0
  -29.4010  -23.3820   19.9920 C   0  0  0  0  0  3  0  0  0  0  0  0
  -28.3430  -24.6770   20.3580 C   0  0  0  0  0  3  0  0  0  0  0  0
  -28.5910  -26.2380   20.2000 O   0  0  0  0  0  0  0  0  0  0  0  0
  -24.8400  -31.8250   23.3110 C   0  0  0  0  0  0  0  0  0  0  0  0
  -27.5340  -27.2330   20.1710 C   0  0  0  0  0  0  0  0  0  0  0  0
  -23.7030  -30.4960   21.5780 C   0  0  0  0  0  3  0  0  0  0  0  0
  -25.2040  -28.9910   20.1280 C   0  0  0  0  0  0  0  0  0  0  0  0
  -26.2590  -30.7760   21.5050 C   0  0  0  0  0  2  0  0  0  0  0  0
  -26.3630  -29.4110   20.7940 C   0  0  0  0  0  0  0  0  0  0  0  0
  -27.5290  -28.5520   20.7950 C   0  0  0  0  0  3  0  0  0  0  0  0
  -26.3530  -26.9270   19.4630 C   0  0  0  0  0  3  0  0  0  0  0  0
  -25.2160  -27.7660   19.4430 C   0  0  0  0  0  3  0  0  0  0  0  0
  -23.9670  -29.8770   20.1790 C   0  0  0  0  0  2  0  0  0  0  0  0
  -24.9530  -31.0530   22.1870 N   0  0  0  0  0  0  0  0  0  0  0  0
  -23.7370  -32.0790   23.8200 O   0  0  0  0  0  0  0  0  0  0  0  0
  -23.0050  -29.4440   22.4770 C   0  0  0  0  0  0  0  0  0  0  0  0
  -21.6850  -29.2570   22.2980 N   0  0  0  0  0  0  0  0  0  0  0  0
  -23.6580  -28.7930   23.2950 O   0  0  0  0  0  0  0  0  0  0  0  0
  -21.2120  -29.8310   21.6150 H   0  0  0  0  0  0  0  0  0  0  0  0
  -18.3010  -28.0160   22.6710 C   0  0  0  0  0  0  0  0  0  0  0  0
  -20.8530  -28.2770   23.0030 C   0  0  0  0  0  3  0  0  0  0  0  0
  -20.9750  -26.8750   22.3600 C   0  0  0  0  0  2  0  0  0  0  0  0
  -19.8950  -26.6010   21.3070 C   0  0  0  0  0  2  0  0  0  0  0  0
  -18.4990  -26.7060   21.9270 C   0  0  0  0  0  2  0  0  0  0  0  0
  -19.4050  -28.7620   23.1620 C   0  0  0  0  0  0  0  0  0  0  0  0
  -19.1650  -29.9890   23.8150 C   0  0  0  0  0  3  0  0  0  0  0  0
  -17.8530  -30.4700   23.9830 C   0  0  0  0  0  3  0  0  0  0  0  0
  -16.7620  -29.7200   23.5090 C   0  0  0  0  0  3  0  0  0  0  0  0
  -16.9880  -28.4950   22.8570 C   0  0  0  0  0  3  0  0  0  0  0  0
  -26.0950  -32.4440   24.0010 C   0  0  0  0  0  3  0  0  0  0  0  0
  -26.5840  -31.6180   25.2550 C   0  0  1  0  0  0  0  0  0  0  0  0
  -25.4600  -31.3060   26.2720 C   0  0  0  0  0  1  0  0  0  0  0  0
  -27.2060  -30.2720   24.8200 C   0  0  0  0  0  1  0  0  0  0  0  0
  -27.6990  -32.3950   25.9920 C   0  0  0  0  0  1  0  0  0  0  0  0
  -25.7560  -33.8210   24.4010 N   0  0  0  0  0  0  0  0  0  0  0  0
  -26.0800  -34.9210   23.7090 C   0  0  0  0  0  0  0  0  0  0  0  0
  -26.7630  -34.8850   22.6820 O   0  0  0  0  0  0  0  0  0  0  0  0
  -25.1540  -33.9190   25.2050 H   0  0  0  0  0  0  0  0  0  0  0  0
  -24.3290  -36.7070   23.4360 C   0  0  0  0  0  1  0  0  0  0  0  0
  -25.5670  -36.2760   24.2370 C   0  0  0  0  0  3  0  0  0  0  0  0
  -27.6730  -37.1530   25.1460 C   0  0  0  0  0  1  0  0  0  0  0  0
  -26.5830  -37.3510   24.1940 N   0  0  0  0  0  0  0  0  0  0  0  0
  -26.1610  -38.2570   24.3780 H   0  0  0  0  0  0  0  0  0  0  0  0
  2  1  2  0
  3  9  1  0
  3  5  1  0
  5  1  1  0
  5  4  1  0
  6  3  1  0
  6  2  1  0
  7  6  1  0
  9  8  1  6
  9 18  1  0
 10 18  1  0
 11 16  1  0
 12 13  1  0
 12 11  1  0
 14 13  1  0
 14 23  1  0
 14 15  1  0
 16 10  1  0
 16 15  1  0
 17 10  2  0
 18 19  1  0
 20 21  2  0
 21 40  1  0
 22 21  1  0
 22 25  1  0
 23 24  1  0
 23 20  1  0
 24 22  2  0
 25 26  1  0
 26 27  2  0
 28 31  1  0
 28 27  1  0
 29 28  2  0
 30 29  1  0
 30 25  2  0
 31 32  1  0
 32 37  2  0
 32 33  1  0
 33 34  2  0
 34 35  1  0
 35 39  1  0
 36 35  2  0
 37 36  1  0
 38 37  1  0
 40 41  1  0
 41 44  1  0
 41 43  1  0
 42 40  2  0
 45 46  1  0
 45 20  1  0
 47 45  1  0
 48 49  1  0
 49  9  1  0
 50  2  1  0
 50 51  2  0
 52 51  1  0
 53 64  2  0
 54 52  1  0
 54 59  1  0
 55 63  1  0
 55 65  1  0
 56 62  1  0
 56 58  1  0
 57 63  1  0
 58 59  2  0
 58 57  1  0
 60 54  2  0
 61 60  1  0
 61 56  2  0
 62 55  1  0
 63 53  1  0
 65 67  2  0
 66 65  1  0
 68 66  1  0
 69 78  2  0
 69 74  1  0
 70 66  1  0
 70 74  1  0
 71 70  1  0
 72 73  1  0
 72 71  1  0
 73 69  1  0
 74 75  2  0
 75 76  1  0
 77 76  2  0
 78 77  1  0
 79 53  1  0
 79 84  1  0
 79 80  1  0
 80 83  1  1
 80 81  1  0
 82 80  1  0
 84 87  1  0
 85 89  1  0
 85 84  1  0
 86 85  2  0
 89 88  1  0
 91 89  1  0
 91 92  1  0
 91 90  1  0
M  ISO  4  10 100  18 100  51 101  52 101
M  END
>  <TORSDO>  (17) 
F 20

>  <SCORE>  (17) 
-11.876

>  <name>  (17) 
16

>  <ligand_id>  (17) 
16

>  <original_smiles>  (17) 
[H]c1c([H])c([H])c2c(c1[H])C([H])([H])C([H])([H])C([H])([H])C2([H])N([H])C(=O)C1([H])N(C(=O)C([H])(N([H])C(=O)C([H])(N([H])C([H])([H])[H])C([H])([H])[H])C(C([H])([H])[H])(C([H])([H])[H])C([H])([H])[H])C([H])([H])c2c([H])c(OC([H])([H])C([H])([H])c3c([H])n(C([H])([H])[H])c(C(N([H])C(=O)N4C([H])([H])C([H])([H])C([H])([H])C([H])(n5nc(-c6c([H])c([H])c(Oc7c([H])c([H])c(F)c([H])c7F)c([H])c6[H])c(C(=O)N([H])[H])c5N([H])[H])C4([H])[H])(C([H])([H])[H])C([H])([H])C([H])([H])[H])[n+]3[H])c([H])c([H])c2C1([H])[H]

>  <smiles>  (17) 
[H]c1c([H])c([H])c2c(c1[H])C([H])([H])C([H])([H])C([H])([H])C2([H])N([H])C(=O)C1([H])N(C(=O)C([H])(N([H])C(=O)C([H])(N([H])C([H])([H])[H])C([H])([H])[H])C(C([H])([H])[H])(C([H])([H])[H])C([H])([H])[H])C([H])([H])c2c([H])c(OC([H])([H])C([H])([H])c3c([H])n(C([H])([H])[H])c(C(N([H])C(=O)N4C([H])([H])C([H])([H])C([H])([H])C([H])(n5nc(-c6c([H])c([H])c(Oc7c([H])c([H])c(F)c([H])c7F)c([H])c6[H])c(C(=O)N([H])[H])c5N([H])[H])C4([H])[H])(C([H])([H])[H])C([H])([H])C([H])([H])[H])[n+]3[H])c([H])c([H])c2C1([H])[H]

$$$$
17:0:0
     RDKit          3D

 87 95  0  0  1  0  0  0  0  0999 V2000
  -28.7980  -21.6120   20.2160 C   0  0  0  0  0  3  0  0  0  0  0  0
  -29.1530  -23.2730   20.0930 C   0  0  0  0  0  3  0  0  0  0  0  0
  -28.0660  -24.5720   20.1510 C   0  0  0  0  0  3  0  0  0  0  0  0
  -28.3540  -26.1110   20.0880 O   0  0  0  0  0  0  0  0  0  0  0  0
  -24.7290  -31.8290   23.0380 C   0  0  0  0  0  0  0  0  0  0  0  0
  -27.2920  -27.0920   20.0290 C   0  0  0  0  0  0  0  0  0  0  0  0
  -23.5150  -30.4080   21.4310 C   0  0  0  0  0  3  0  0  0  0  0  0
  -24.9540  -28.8310   20.0000 C   0  0  0  0  0  0  0  0  0  0  0  0
  -26.0650  -30.6910   21.2250 C   0  0  0  0  0  2  0  0  0  0  0  0
  -26.1400  -29.2900   20.5900 C   0  0  0  0  0  0  0  0  0  0  0  0
  -27.3100  -28.4380   20.5840 C   0  0  0  0  0  3  0  0  0  0  0  0
  -26.0790  -26.7420   19.3930 C   0  0  0  0  0  3  0  0  0  0  0  0
  -24.9390  -27.5720   19.3820 C   0  0  0  0  0  3  0  0  0  0  0  0
  -23.7210  -29.7200   20.0560 C   0  0  0  0  0  2  0  0  0  0  0  0
  -24.7910  -31.0000   21.9520 N   0  0  0  0  0  0  0  0  0  0  0  0
  -23.6490  -32.1120   23.5790 O   0  0  0  0  0  0  0  0  0  0  0  0
  -22.8620  -29.4040   22.4140 C   0  0  0  0  0  0  0  0  0  0  0  0
  -21.5320  -29.2260   22.3160 N   0  0  0  0  0  0  0  0  0  0  0  0
  -23.5530  -28.7880   23.2290 O   0  0  0  0  0  0  0  0  0  0  0  0
  -21.0300  -29.7770   21.6330 H   0  0  0  0  0  0  0  0  0  0  0  0
  -18.1610  -28.0510   22.9330 C   0  0  0  0  0  0  0  0  0  0  0  0
  -20.7290  -28.2910   23.1120 C   0  0  0  0  0  3  0  0  0  0  0  0
  -20.7980  -26.8620   22.5270 C   0  0  0  0  0  2  0  0  0  0  0  0
  -19.6580  -26.5530   21.5500 C   0  0  0  0  0  2  0  0  0  0  0  0
  -18.3010  -26.7050   22.2430 C   0  0  0  0  0  2  0  0  0  0  0  0
  -19.2990  -28.8040   23.3260 C   0  0  0  0  0  0  0  0  0  0  0  0
  -19.1110  -30.0630   23.9350 C   0  0  0  0  0  3  0  0  0  0  0  0
  -17.8160  -30.5720   24.1500 C   0  0  0  0  0  3  0  0  0  0  0  0
  -16.6920  -29.8180   23.7700 C   0  0  0  0  0  3  0  0  0  0  0  0
  -16.8660  -28.5590   23.1680 C   0  0  0  0  0  3  0  0  0  0  0  0
  -26.0100  -32.4840   23.6400 C   0  0  0  0  0  3  0  0  0  0  0  0
  -26.5710  -31.7060   24.8940 C   0  0  1  0  0  0  0  0  0  0  0  0
  -25.5080  -31.4280   25.9820 C   0  0  0  0  0  1  0  0  0  0  0  0
  -27.1780  -30.3480   24.4740 C   0  0  0  0  0  1  0  0  0  0  0  0
  -27.7190  -32.5170   25.5410 C   0  0  0  0  0  1  0  0  0  0  0  0
  -25.6790  -33.8710   24.0040 N   0  0  0  0  0  0  0  0  0  0  0  0
  -25.9510  -34.9450   23.2510 C   0  0  0  0  0  0  0  0  0  0  0  0
  -26.5800  -34.8730   22.1910 O   0  0  0  0  0  0  0  0  0  0  0  0
  -25.1150  -33.9970   24.8320 H   0  0  0  0  0  0  0  0  0  0  0  0
  -24.1690  -36.7040   23.0020 C   0  0  0  0  0  1  0  0  0  0  0  0
  -25.4530  -36.3150   23.7540 C   0  0  0  0  0  3  0  0  0  0  0  0
  -27.5970  -37.2400   24.5150 C   0  0  0  0  0  1  0  0  0  0  0  0
  -26.4560  -37.3930   23.6150 N   0  0  0  0  0  0  0  0  0  0  0  0
  -26.0350  -38.3030   23.7880 H   0  0  0  0  0  0  0  0  0  0  0  0
  -29.8550  -20.3620   19.7990 C   0  0  0  0  0  3  0  0  0  0  0  0
  -30.3150  -17.6760   19.2570 C   0  0  0  0  0  3  0  0  0  0  0  0
  -30.0170  -16.4090   19.8140 C   0  0  0  0  0  0  0  0  0  0  0  0
  -29.1920  -16.8420   20.9140 C   0  0  0  0  0  0  0  0  0  0  0  0
  -28.6250  -16.0550   22.0590 C   0  0  0  0  0  1  0  0  0  0  0  0
  -28.9790  -18.1910   20.9390 N   0  0  0  0  0  0  0  0  0  0  0  0
  -29.6670  -18.7860   19.9220 N   0  0  0  0  0  0  0  0  0  0  0  0
  -30.6730  -14.9720   19.4660 C   0  0  0  0  0  0  0  0  0  0  0  0
  -30.4350  -12.6340   18.5110 C   0  0  0  0  0  2  0  0  0  0  0  0
  -29.3300  -12.6010   17.4280 C   0  0  0  0  0  2  0  0  0  0  0  0
  -27.9520  -12.3420   18.0640 C   0  0  0  0  0  2  0  0  0  0  0  0
  -27.7140  -13.2230   19.3190 C   0  0  0  0  0  3  0  0  0  0  0  0
  -28.9270  -13.2210   20.2660 C   0  0  0  0  0  2  0  0  0  0  0  0
  -30.0860  -13.7000   19.5040 N   0  0  0  0  0  0  0  0  0  0  0  0
  -31.7880  -15.0190   18.9370 O   0  0  0  0  0  0  0  0  0  0  0  0
  -25.5320  -13.7220   20.5570 C   0  0  0  0  0  0  0  0  0  0  0  0
  -24.5280  -12.9160   21.0200 C   0  0  0  0  0  0  0  0  0  0  0  0
  -24.9350  -11.5750   20.7370 C   0  0  0  0  0  0  0  0  0  0  0  0
  -26.4810  -12.8730   20.0150 N   0  0  0  0  0  0  0  0  0  0  0  0
  -26.1450  -11.5680   20.1880 N   0  0  0  0  0  0  0  0  0  0  0  0
  -24.2130  -10.3060   20.9010 C   0  0  0  0  0  0  0  0  0  0  0  0
  -24.6980   -9.2850   21.7490 C   0  0  0  0  0  3  0  0  0  0  0  0
  -23.9750   -8.0830   21.9070 C   0  0  0  0  0  3  0  0  0  0  0  0
  -22.7560   -7.8920   21.2180 C   0  0  0  0  0  0  0  0  0  0  0  0
  -22.2860   -8.9030   20.3600 C   0  0  0  0  0  3  0  0  0  0  0  0
  -23.0090  -10.0970   20.1990 C   0  0  0  0  0  3  0  0  0  0  0  0
  -21.9990   -6.7460   21.2890 O   0  0  0  0  0  0  0  0  0  0  0  0
  -21.9320   -5.9980   22.4360 C   0  0  0  0  0  0  0  0  0  0  0  0
  -21.4870   -6.5460   23.6590 C   0  0  0  0  0  3  0  0  0  0  0  0
  -21.3690   -5.7230   24.7970 C   0  0  0  0  0  3  0  0  0  0  0  0
  -21.6850   -4.3540   24.7130 C   0  0  0  0  0  0  0  0  0  0  0  0
  -22.1220   -3.8060   23.4960 C   0  0  0  0  0  3  0  0  0  0  0  0
  -22.2430   -4.6240   22.3590 C   0  0  0  0  0  0  0  0  0  0  0  0
  -22.6440   -4.0870   21.1830 F   0  0  0  0  0  0  0  0  0  0  0  0
  -21.5650   -3.5620   25.8050 F   0  0  0  0  0  0  0  0  0  0  0  0
  -23.2190  -13.3690   21.5990 C   0  0  0  0  0  0  0  0  0  0  0  0
  -22.6650  -12.6060   22.5340 N   0  0  0  0  0  0  0  0  0  0  0  0
  -22.7020  -14.4330   21.2570 O   0  0  0  0  0  0  0  0  0  0  0  0
  -23.1020  -11.7460   22.8330 H   0  0  0  0  0  0  0  0  0  0  0  0
  -21.7940  -12.8880   22.9620 H   0  0  0  0  0  0  0  0  0  0  0  0
  -25.7070  -15.1040   20.5270 N   0  0  0  0  0  0  0  0  0  0  0  0
  -25.0040  -15.7450   20.8770 H   0  0  0  0  0  0  0  0  0  0  0  0
  -26.4940  -15.5750   20.1030 H   0  0  0  0  0  0  0  0  0  0  0  0
  2  3  2  0
  2  1  1  0
  4  3  1  0
  5 16  2  0
  6  4  1  0
  6 11  1  0
  7 15  1  0
  7 17  1  0
  8 14  1  0
  8 10  1  0
  9 15  1  0
 10  9  1  0
 11 10  2  0
 12  6  2  0
 13 12  1  0
 13  8  2  0
 14  7  1  0
 15  5  1  0
 17 19  2  0
 18 17  1  0
 20 18  1  0
 21 30  2  0
 21 26  1  0
 22 18  1  0
 22 26  1  0
 23 22  1  0
 24 25  1  0
 24 23  1  0
 25 21  1  0
 26 27  2  0
 27 28  1  0
 29 28  2  0
 30 29  1  0
 31  5  1  0
 31 36  1  0
 31 32  1  0
 32 35  1  1
 32 33  1  0
 34 32  1  0
 36 39  1  0
 37 41  1  0
 37 36  1  0
 38 37  2  0
 41 40  1  0
 43 41  1  0
 43 44  1  0
 43 42  1  0
 45 51  1  0
 45  1  2  0
 46 47  2  0
 46 51  1  0
 47 48  1  0
 48 50  2  0
 48 49  1  0
 51 50  1  0
 52 58  1  0
 52 47  1  0
 53 58  1  0
 54 55  1  0
 54 53  1  0
 56 55  1  0
 56 63  1  0
 56 57  1  0
 58 57  1  0
 59 52  2  0
 60 61  2  0
 61 80  1  0
 62 65  1  0
 62 61  1  0
 63 64  1  0
 63 60  1  0
 64 62  2  0
 65 66  1  0
 66 67  2  0
 68 71  1  0
 68 67  1  0
 69 68  2  0
 70 69  1  0
 70 65  2  0
 71 72  1  0
 72 73  1  0
 73 74  2  0
 75 74  1  0
 75 79  1  0
 76 75  2  0
 77 72  2  0
 77 76  1  0
 78 77  1  0
 80 81  1  0
 81 83  1  0
 81 84  1  0
 82 80  2  0
 85 60  1  0
 85 86  1  0
 87 85  1  0
M  ISO  4   3 101   4 101  47 100  52 100
M  END
>  <TORSDO>  (18) 
F 20

>  <SCORE>  (18) 
-11.142

>  <name>  (18) 
17

>  <ligand_id>  (18) 
17

>  <original_smiles>  (18) 
[H]c1c([H])c([H])c2c(c1[H])C([H])([H])C([H])([H])C([H])([H])C2([H])N([H])C(=O)C1([H])N(C(=O)C([H])(N([H])C(=O)C([H])(N([H])C([H])([H])[H])C([H])([H])[H])C(C([H])([H])[H])(C([H])([H])[H])C([H])([H])[H])C([H])([H])c2c([H])c(OC([H])([H])C([H])([H])C([H])([H])C([H])([H])n3nc(C([H])([H])[H])c(C(=O)N4C([H])([H])C([H])([H])C([H])([H])C([H])(n5nc(-c6c([H])c([H])c(Oc7c([H])c([H])c(F)c([H])c7F)c([H])c6[H])c(C(=O)N([H])[H])c5N([H])[H])C4([H])[H])c3[H])c([H])c([H])c2C1([H])[H]

>  <smiles>  (18) 
[H]c1c([H])c([H])c2c(c1[H])C([H])([H])C([H])([H])C([H])([H])C2([H])N([H])C(=O)C1([H])N(C(=O)C([H])(N([H])C(=O)C([H])(N([H])C([H])([H])[H])C([H])([H])[H])C(C([H])([H])[H])(C([H])([H])[H])C([H])([H])[H])C([H])([H])c2c([H])c(OC([H])([H])C([H])([H])C([H])([H])C([H])([H])n3nc(C([H])([H])[H])c(C(=O)N4C([H])([H])C([H])([H])C([H])([H])C([H])(n5nc(-c6c([H])c([H])c(Oc7c([H])c([H])c(F)c([H])c7F)c([H])c6[H])c(C(=O)N([H])[H])c5N([H])[H])C4([H])[H])c3[H])c([H])c([H])c2C1([H])[H]

$$$$
18:0:0
     RDKit          3D

 95104  0  0  1  0  0  0  0  0999 V2000
  -28.8630  -20.9020   21.8190 C   0  0  0  0  0  2  0  0  0  0  0  0
  -29.0600  -21.0740   19.3450 C   0  0  0  0  0  2  0  0  0  0  0  0
  -28.3200  -22.3500   21.8600 C   0  0  0  0  0  2  0  0  0  0  0  0
  -28.5170  -22.5290   19.4110 C   0  0  0  0  0  2  0  0  0  0  0  0
  -28.4890  -20.2220   20.4930 C   0  0  0  0  0  3  0  0  0  0  0  0
  -28.8150  -23.1790   20.7220 N   0  0  1  0  0  4  0  0  0  0  0  0
  -29.8210  -23.2010   20.8090 H   0  0  0  0  0  0  0  0  0  0  0  0
  -27.9320  -17.6910   20.1940 C   0  0  0  0  0  3  0  0  0  0  0  0
  -30.0280  -18.0670   20.6560 C   0  0  0  0  0  3  0  0  0  0  0  0
  -28.8520  -18.7430   20.4420 C   0  0  0  0  0  0  0  0  0  0  0  0
  -28.4790  -16.4850   20.2640 N   0  0  0  0  0  0  0  0  0  0  0  0
  -29.7850  -16.6930   20.5620 N   0  0  0  0  0  0  0  0  0  0  0  0
  -30.3370  -14.9120   22.2210 C   0  0  0  0  0  1  0  0  0  0  0  0
  -32.1370  -16.0780   21.0270 C   0  0  0  0  0  1  0  0  0  0  0  0
  -30.6850  -15.5380   20.8410 C   0  0  2  0  0  0  0  0  0  0  0  0
  -30.7330  -14.4880   19.6510 C   0  0  0  0  0  0  0  0  0  0  0  0
  -30.1500  -12.3950   18.4410 C   0  0  0  0  0  2  0  0  0  0  0  0
  -29.0650  -12.6130   17.3700 C   0  0  0  0  0  2  0  0  0  0  0  0
  -27.6640  -12.4570   17.9850 C   0  0  0  0  0  2  0  0  0  0  0  0
  -27.5030  -13.2840   19.2870 C   0  0  0  0  0  3  0  0  0  0  0  0
  -28.6920  -13.0620   20.2450 C   0  0  0  0  0  2  0  0  0  0  0  0
  -29.9450  -13.3700   19.5350 N   0  0  0  0  0  0  0  0  0  0  0  0
  -31.6020  -14.6900   18.7930 O   0  0  0  0  0  0  0  0  0  0  0  0
  -25.2580  -13.9070   20.3850 C   0  0  0  0  0  0  0  0  0  0  0  0
  -24.2280  -13.1430   20.8670 C   0  0  0  0  0  0  0  0  0  0  0  0
  -24.6370  -11.7860   20.6960 C   0  0  0  0  0  0  0  0  0  0  0  0
  -26.2260  -13.0160   19.9490 N   0  0  0  0  0  0  0  0  0  0  0  0
  -25.8630  -11.7310   20.1900 N   0  0  0  0  0  0  0  0  0  0  0  0
  -23.9070  -10.5350   20.9290 C   0  0  0  0  0  0  0  0  0  0  0  0
  -24.4030   -9.5390   21.7980 C   0  0  0  0  0  3  0  0  0  0  0  0
  -23.6720   -8.3510   22.0170 C   0  0  0  0  0  3  0  0  0  0  0  0
  -22.4310   -8.1520   21.3660 C   0  0  0  0  0  0  0  0  0  0  0  0
  -21.9520   -9.1380   20.4850 C   0  0  0  0  0  3  0  0  0  0  0  0
  -22.6840  -10.3160   20.2650 C   0  0  0  0  0  3  0  0  0  0  0  0
  -21.6640   -7.0200   21.4980 O   0  0  0  0  0  0  0  0  0  0  0  0
  -21.6590   -6.2850   22.6570 C   0  0  0  0  0  0  0  0  0  0  0  0
  -21.3110   -6.8580   23.9000 C   0  0  0  0  0  3  0  0  0  0  0  0
  -21.2530   -6.0500   25.0540 C   0  0  0  0  0  3  0  0  0  0  0  0
  -21.5310   -4.6740   24.9670 C   0  0  0  0  0  0  0  0  0  0  0  0
  -21.8710   -4.1020   23.7270 C   0  0  0  0  0  3  0  0  0  0  0  0
  -21.9330   -4.9050   22.5760 C   0  0  0  0  0  0  0  0  0  0  0  0
  -22.2410   -4.3450   21.3820 F   0  0  0  0  0  0  0  0  0  0  0  0
  -21.4660   -3.8960   26.0720 F   0  0  0  0  0  0  0  0  0  0  0  0
  -22.9070  -13.6420   21.3750 C   0  0  0  0  0  0  0  0  0  0  0  0
  -22.3050  -12.9280   22.3200 N   0  0  0  0  0  0  0  0  0  0  0  0
  -22.4200  -14.6980   20.9700 O   0  0  0  0  0  0  0  0  0  0  0  0
  -22.7160  -12.0760   22.6720 H   0  0  0  0  0  0  0  0  0  0  0  0
  -21.4230  -13.2400   22.6990 H   0  0  0  0  0  0  0  0  0  0  0  0
  -25.4520  -15.2760   20.2730 N   0  0  0  0  0  0  0  0  0  0  0  0
  -24.7900  -15.9510   20.6380 H   0  0  0  0  0  0  0  0  0  0  0  0
  -26.3830  -15.6540   20.1180 H   0  0  0  0  0  0  0  0  0  0  0  0
  -28.3560  -24.6030   20.8460 C   0  0  0  0  0  2  0  0  0  0  0  0
  -30.4180  -25.4930   19.5820 C   0  0  0  0  0  1  0  0  0  0  0  0
  -28.8990  -25.6040   19.7860 C   0  0  0  0  0  3  0  0  0  0  0  0
  -28.7290  -26.9560   20.2410 O   0  0  0  0  0  0  0  0  0  0  0  0
  -24.7610  -31.9420   23.3650 C   0  0  0  0  0  0  0  0  0  0  0  0
  -27.5020  -27.5910   20.2370 C   0  0  0  0  0  0  0  0  0  0  0  0
  -23.5820  -30.5330   21.7080 C   0  0  0  0  0  3  0  0  0  0  0  0
  -25.0660  -29.0370   20.2690 C   0  0  0  0  0  0  0  0  0  0  0  0
  -26.0980  -30.9500   21.5070 C   0  0  0  0  0  2  0  0  0  0  0  0
  -26.2100  -29.5850   20.8570 C   0  0  0  0  0  0  0  0  0  0  0  0
  -27.4290  -28.8720   20.8310 C   0  0  0  0  0  3  0  0  0  0  0  0
  -26.3330  -27.0460   19.6590 C   0  0  0  0  0  3  0  0  0  0  0  0
  -25.1210  -27.7660   19.6680 C   0  0  0  0  0  3  0  0  0  0  0  0
  -23.8050  -29.8720   20.3200 C   0  0  0  0  0  2  0  0  0  0  0  0
  -24.8320  -31.1550   22.2520 N   0  0  0  0  0  0  0  0  0  0  0  0
  -23.6740  -32.1840   23.9090 O   0  0  0  0  0  0  0  0  0  0  0  0
  -22.9530  -29.4860   22.6590 C   0  0  0  0  0  0  0  0  0  0  0  0
  -21.6400  -29.2480   22.5040 N   0  0  0  0  0  0  0  0  0  0  0  0
  -23.6440  -28.8930   23.4910 O   0  0  0  0  0  0  0  0  0  0  0  0
  -21.1410  -29.7840   21.8090 H   0  0  0  0  0  0  0  0  0  0  0  0
  -18.3170  -27.8920   22.9060 C   0  0  0  0  0  0  0  0  0  0  0  0
  -20.8470  -28.2780   23.2600 C   0  0  0  0  0  3  0  0  0  0  0  0
  -21.0400  -26.8470   22.7060 C   0  0  0  0  0  2  0  0  0  0  0  0
  -19.9900  -26.4600   21.6600 C   0  0  0  0  0  2  0  0  0  0  0  0
  -18.5820  -26.5450   22.2560 C   0  0  0  0  0  2  0  0  0  0  0  0
  -19.3810  -28.7120   23.3640 C   0  0  0  0  0  0  0  0  0  0  0  0
  -19.0810  -29.9710   23.9280 C   0  0  0  0  0  3  0  0  0  0  0  0
  -17.7490  -30.4120   24.0410 C   0  0  0  0  0  3  0  0  0  0  0  0
  -16.6980  -29.5880   23.6020 C   0  0  0  0  0  3  0  0  0  0  0  0
  -16.9820  -28.3310   23.0390 C   0  0  0  0  0  3  0  0  0  0  0  0
  -26.0350  -32.5920   23.9910 C   0  0  0  0  0  3  0  0  0  0  0  0
  -26.5540  -31.8320   25.2740 C   0  0  1  0  0  0  0  0  0  0  0  0
  -25.4510  -31.5540   26.3210 C   0  0  0  0  0  1  0  0  0  0  0  0
  -27.1920  -30.4790   24.8850 C   0  0  0  0  0  1  0  0  0  0  0  0
  -27.6650  -32.6620   25.9600 C   0  0  0  0  0  1  0  0  0  0  0  0
  -25.7090  -33.9880   24.3100 N   0  0  0  0  0  0  0  0  0  0  0  0
  -26.0260  -35.0370   23.5400 C   0  0  0  0  0  0  0  0  0  0  0  0
  -26.6990  -34.9340   22.5110 O   0  0  0  0  0  0  0  0  0  0  0  0
  -25.1140  -34.1410   25.1100 H   0  0  0  0  0  0  0  0  0  0  0  0
  -24.2710  -36.7990   23.1670 C   0  0  0  0  0  1  0  0  0  0  0  0
  -25.5170  -36.4220   23.9840 C   0  0  0  0  0  3  0  0  0  0  0  0
  -27.6400  -37.3430   24.8050 C   0  0  0  0  0  1  0  0  0  0  0  0
  -26.5330  -37.4880   23.8630 N   0  0  0  0  0  0  0  0  0  0  0  0
  -26.1130  -38.4030   24.0050 H   0  0  0  0  0  0  0  0  0  0  0  0
  1  3  1  0
  2  4  1  0
  2  5  1  0
  4  6  1  0
  5 10  1  0
  5  1  1  0
  6  7  1  1
  6 52  1  0
  6  3  1  0
  8 11  2  0
  8 10  1  0
 10  9  2  0
 11 12  1  0
 12  9  1  0
 12 15  1  0
 15 14  1  1
 15 13  1  0
 16 15  1  0
 17 22  1  0
 18 19  1  0
 18 17  1  0
 20 19  1  0
 20 27  1  0
 20 21  1  0
 22 16  1  0
 22 21  1  0
 23 16  2  0
 24 25  2  0
 25 44  1  0
 26 25  1  0
 26 29  1  0
 27 28  1  0
 27 24  1  0
 28 26  2  0
 29 30  1  0
 30 31  2  0
 32 35  1  0
 32 31  1  0
 33 32  2  0
 34 33  1  0
 34 29  2  0
 35 36  1  0
 36 37  1  0
 37 38  2  0
 39 38  1  0
 39 43  1  0
 40 39  2  0
 41 36  2  0
 41 40  1  0
 42 41  1  0
 44 45  1  0
 45 47  1  0
 45 48  1  0
 46 44  2  0
 49 24  1  0
 49 50  1  0
 51 49  1  0
 54 53  1  0
 54 55  1  0
 54 52  1  0
 56 67  2  0
 57 55  1  0
 57 62  1  0
 58 66  1  0
 58 68  1  0
 59 65  1  0
 59 61  1  0
 60 66  1  0
 61 60  1  0
 62 61  2  0
 63 64  1  0
 63 57  2  0
 64 59  2  0
 65 58  1  0
 66 56  1  0
 68 70  2  0
 69 68  1  0
 71 69  1  0
 72 81  2  0
 72 77  1  0
 73 69  1  0
 73 77  1  0
 74 73  1  0
 75 76  1  0
 75 74  1  0
 76 72  1  0
 77 78  2  0
 78 79  1  0
 80 79  2  0
 81 80  1  0
 82 56  1  0
 82 87  1  0
 82 83  1  0
 83 86  1  1
 83 84  1  0
 85 83  1  0
 87 90  1  0
 88 92  1  0
 88 87  1  0
 89 88  2  0
 92 91  1  0
 94 92  1  0
 94 95  1  0
 94 93  1  0
M  ISO  4  15 100  16 100  54 101  55 101
M  END
>  <TORSDO>  (19) 
F 20

>  <SCORE>  (19) 
-11.755

>  <name>  (19) 
18

>  <ligand_id>  (19) 
18

>  <original_smiles>  (19) 
[H]c1nn(C(C(=O)N2C([H])([H])C([H])([H])C([H])([H])C([H])(n3nc(-c4c([H])c([H])c(Oc5c([H])c([H])c(F)c([H])c5F)c([H])c4[H])c(C(=O)N([H])[H])c3N([H])[H])C2([H])[H])(C([H])([H])[H])C([H])([H])[H])c([H])c1C1([H])C([H])([H])C([H])([H])[N+]([H])(C([H])([H])C([H])(Oc2c([H])c([H])c3c(c2[H])C([H])([H])N(C(=O)C([H])(N([H])C(=O)C([H])(N([H])C([H])([H])[H])C([H])([H])[H])C(C([H])([H])[H])(C([H])([H])[H])C([H])([H])[H])C([H])(C(=O)N([H])C2([H])c4c([H])c([H])c([H])c([H])c4C([H])([H])C([H])([H])C2([H])[H])C3([H])[H])C([H])([H])[H])C([H])([H])C1([H])[H]

>  <smiles>  (19) 
[H]c1nn(C(C(=O)N2C([H])([H])C([H])([H])C([H])([H])C([H])(n3nc(-c4c([H])c([H])c(Oc5c([H])c([H])c(F)c([H])c5F)c([H])c4[H])c(C(=O)N([H])[H])c3N([H])[H])C2([H])[H])(C([H])([H])[H])C([H])([H])[H])c([H])c1C1([H])C([H])([H])C([H])([H])[N+]([H])(C([H])([H])C([H])(Oc2c([H])c([H])c3c(c2[H])C([H])([H])N(C(=O)C([H])(N([H])C(=O)C([H])(N([H])C([H])([H])[H])C([H])([H])[H])C(C([H])([H])[H])(C([H])([H])[H])C([H])([H])[H])C([H])(C(=O)N([H])C2([H])c4c([H])c([H])c([H])c([H])c4C([H])([H])C([H])([H])C2([H])[H])C3([H])[H])C([H])([H])[H])C([H])([H])C1([H])[H]

$$$$
19:0:0
     RDKit          3D

 89 97  0  0  1  0  0  0  0  0999 V2000
  -28.8500  -22.5400   21.6070 C   0  0  0  0  0  3  0  0  0  0  0  0
  -29.0010  -21.9830   19.5730 C   0  0  0  0  0  3  0  0  0  0  0  0
  -28.6390  -23.1430   20.3190 C   0  0  0  0  0  0  0  0  0  0  0  0
  -29.2620  -21.2380   21.6140 N   0  0  0  0  0  0  0  0  0  0  0  0
  -29.3580  -20.7860   20.3300 N   0  0  0  0  0  0  0  0  0  0  0  0
  -30.0030  -19.3080   18.4010 C   0  0  0  0  0  1  0  0  0  0  0  0
  -31.5120  -19.5340   20.3220 C   0  0  0  0  0  1  0  0  0  0  0  0
  -30.0290  -19.3630   19.9410 C   0  0  1  0  0  0  0  0  0  0  0  0
  -29.6300  -17.8170   20.6070 C   0  0  0  0  0  2  0  0  0  0  0  0
  -30.4970  -15.1120   20.2440 C   0  0  0  0  0  0  0  0  0  0  0  0
  -30.3840  -12.7240   19.3570 C   0  0  0  0  0  2  0  0  0  0  0  0
  -29.4410  -12.5810   18.1410 C   0  0  0  0  0  2  0  0  0  0  0  0
  -27.9790  -12.3850   18.5940 C   0  0  0  0  0  2  0  0  0  0  0  0
  -27.5590  -13.3230   19.7560 C   0  0  0  0  0  3  0  0  0  0  0  0
  -28.6370  -13.4240   20.8550 C   0  0  0  0  0  2  0  0  0  0  0  0
  -29.8820  -13.8530   20.1920 N   0  0  0  0  0  0  0  0  0  0  0  0
  -31.7340  -15.1140   20.2120 O   0  0  0  0  0  0  0  0  0  0  0  0
  -29.0960  -16.3320   18.6600 C   0  0  0  0  0  1  0  0  0  0  0  0
  -29.7630  -16.3350   19.9690 N   0  0  0  0  0  0  0  0  0  0  0  0
  -25.1900  -13.9090   20.4980 C   0  0  0  0  0  0  0  0  0  0  0  0
  -24.1240  -13.1350   20.8610 C   0  0  0  0  0  0  0  0  0  0  0  0
  -24.5920  -11.7840   20.8390 C   0  0  0  0  0  0  0  0  0  0  0  0
  -26.2340  -13.0270   20.2710 N   0  0  0  0  0  0  0  0  0  0  0  0
  -25.8850  -11.7450   20.5410 N   0  0  0  0  0  0  0  0  0  0  0  0
  -23.8690  -10.5220   21.0260 C   0  0  0  0  0  0  0  0  0  0  0  0
  -24.3030   -9.5530   21.9560 C   0  0  0  0  0  3  0  0  0  0  0  0
  -23.5770   -8.3560   22.1340 C   0  0  0  0  0  3  0  0  0  0  0  0
  -22.4030   -8.1210   21.3810 C   0  0  0  0  0  0  0  0  0  0  0  0
  -21.9880   -9.0790   20.4380 C   0  0  0  0  0  3  0  0  0  0  0  0
  -22.7150  -10.2670   20.2580 C   0  0  0  0  0  3  0  0  0  0  0  0
  -21.6470   -6.9780   21.4700 O   0  0  0  0  0  0  0  0  0  0  0  0
  -21.6090   -6.2300   22.6190 C   0  0  0  0  0  0  0  0  0  0  0  0
  -21.1920   -6.7800   23.8520 C   0  0  0  0  0  3  0  0  0  0  0  0
  -21.0980   -5.9580   24.9930 C   0  0  0  0  0  3  0  0  0  0  0  0
  -21.4150   -4.5880   24.9020 C   0  0  0  0  0  0  0  0  0  0  0  0
  -21.8270   -4.0400   23.6750 C   0  0  0  0  0  3  0  0  0  0  0  0
  -21.9210   -4.8590   22.5360 C   0  0  0  0  0  0  0  0  0  0  0  0
  -22.2990   -4.3210   21.3510 F   0  0  0  0  0  0  0  0  0  0  0  0
  -21.3180   -3.7970   25.9960 F   0  0  0  0  0  0  0  0  0  0  0  0
  -22.7250  -13.6120   21.1150 C   0  0  0  0  0  0  0  0  0  0  0  0
  -21.9890  -12.9230   21.9770 N   0  0  0  0  0  0  0  0  0  0  0  0
  -22.2940  -14.6350   20.5840 O   0  0  0  0  0  0  0  0  0  0  0  0
  -22.3500  -12.0990   22.4360 H   0  0  0  0  0  0  0  0  0  0  0  0
  -21.0480  -13.2270   22.1870 H   0  0  0  0  0  0  0  0  0  0  0  0
  -25.3490  -15.2820   20.3170 N   0  0  0  0  0  0  0  0  0  0  0  0
  -24.5800  -15.9310   20.4370 H   0  0  0  0  0  0  0  0  0  0  0  0
  -26.2060  -15.7310   20.0230 H   0  0  0  0  0  0  0  0  0  0  0  0
  -27.9220  -24.6040   19.8860 C   0  0  0  0  0  2  0  0  0  0  0  0
  -28.2130  -26.0990   20.2950 O   0  0  0  0  0  0  0  0  0  0  0  0
  -24.6240  -31.8900   23.2310 C   0  0  0  0  0  0  0  0  0  0  0  0
  -27.1880  -27.1330   20.1960 C   0  0  0  0  0  0  0  0  0  0  0  0
  -23.4210  -30.4910   21.5990 C   0  0  0  0  0  3  0  0  0  0  0  0
  -24.8660  -28.9150   20.1670 C   0  0  0  0  0  0  0  0  0  0  0  0
  -25.9790  -30.7420   21.4340 C   0  0  0  0  0  2  0  0  0  0  0  0
  -26.0490  -29.3460   20.7810 C   0  0  0  0  0  0  0  0  0  0  0  0
  -27.2060  -28.4700   20.7850 C   0  0  0  0  0  3  0  0  0  0  0  0
  -25.9810  -26.8320   19.5210 C   0  0  0  0  0  3  0  0  0  0  0  0
  -24.8470  -27.6730   19.5220 C   0  0  0  0  0  3  0  0  0  0  0  0
  -23.6400  -29.8160   20.2200 C   0  0  0  0  0  2  0  0  0  0  0  0
  -24.6950  -31.0630   22.1420 N   0  0  0  0  0  0  0  0  0  0  0  0
  -23.5380  -32.1770   23.7590 O   0  0  0  0  0  0  0  0  0  0  0  0
  -22.7420  -29.4860   22.5650 C   0  0  0  0  0  0  0  0  0  0  0  0
  -21.4140  -29.3140   22.4420 N   0  0  0  0  0  0  0  0  0  0  0  0
  -23.4150  -28.8630   23.3900 O   0  0  0  0  0  0  0  0  0  0  0  0
  -20.9240  -29.8690   21.7530 H   0  0  0  0  0  0  0  0  0  0  0  0
  -18.0370  -28.1050   22.9570 C   0  0  0  0  0  0  0  0  0  0  0  0
  -20.5950  -28.3790   23.2200 C   0  0  0  0  0  3  0  0  0  0  0  0
  -20.7010  -26.9430   22.6540 C   0  0  0  0  0  2  0  0  0  0  0  0
  -19.6000  -26.6100   21.6430 C   0  0  0  0  0  2  0  0  0  0  0  0
  -18.2180  -26.7520   22.2870 C   0  0  0  0  0  2  0  0  0  0  0  0
  -19.1520  -28.8740   23.3800 C   0  0  0  0  0  0  0  0  0  0  0  0
  -18.9270  -30.1380   23.9690 C   0  0  0  0  0  3  0  0  0  0  0  0
  -17.6190  -30.6320   24.1370 C   0  0  0  0  0  3  0  0  0  0  0  0
  -16.5180  -29.8590   23.7270 C   0  0  0  0  0  3  0  0  0  0  0  0
  -16.7280  -28.5970   23.1420 C   0  0  0  0  0  3  0  0  0  0  0  0
  -25.9010  -32.5310   23.8520 C   0  0  0  0  0  3  0  0  0  0  0  0
  -26.4110  -31.7710   25.1390 C   0  0  1  0  0  0  0  0  0  0  0  0
  -25.3140  -31.5510   26.2070 C   0  0  0  0  0  1  0  0  0  0  0  0
  -26.9900  -30.3860   24.7690 C   0  0  0  0  0  1  0  0  0  0  0  0
  -27.5610  -32.5700   25.7960 C   0  0  0  0  0  1  0  0  0  0  0  0
  -25.5890  -33.9320   24.1760 N   0  0  0  0  0  0  0  0  0  0  0  0
  -25.9170  -34.9850   23.4140 C   0  0  0  0  0  0  0  0  0  0  0  0
  -26.5790  -34.8800   22.3790 O   0  0  0  0  0  0  0  0  0  0  0  0
  -25.0030  -34.0890   24.9820 H   0  0  0  0  0  0  0  0  0  0  0  0
  -24.1870  -36.7820   23.0740 C   0  0  0  0  0  1  0  0  0  0  0  0
  -25.4350  -36.3760   23.8740 C   0  0  0  0  0  3  0  0  0  0  0  0
  -27.5770  -37.2650   24.6840 C   0  0  0  0  0  1  0  0  0  0  0  0
  -26.4670  -37.4290   23.7480 N   0  0  0  0  0  0  0  0  0  0  0  0
  -26.0630  -38.3490   23.8970 H   0  0  0  0  0  0  0  0  0  0  0  0
  1  4  2  0
  2  3  2  0
  2  5  1  0
  3  1  1  0
  5  4  1  0
  8  6  1  6
  8  7  1  0
  8  5  1  0
  8  9  1  0
 11 16  1  0
 12 13  1  0
 12 11  1  0
 14 13  1  0
 14 23  1  0
 14 15  1  0
 16 10  1  0
 16 15  1  0
 17 10  2  0
 18 19  1  0
 19 10  1  0
 19  9  1  0
 20 21  2  0
 21 40  1  0
 22 21  1  0
 22 25  1  0
 23 20  1  0
 23 24  1  0
 24 22  2  0
 25 26  1  0
 26 27  2  0
 28 31  1  0
 28 27  1  0
 29 28  2  0
 30 29  1  0
 30 25  2  0
 31 32  1  0
 32 33  1  0
 33 34  2  0
 35 34  1  0
 35 39  1  0
 36 35  2  0
 37 32  2  0
 37 36  1  0
 38 37  1  0
 40 41  1  0
 41 44  1  0
 41 43  1  0
 42 40  2  0
 45 46  1  0
 45 20  1  0
 47 45  1  0
 48 49  1  0
 48  3  1  0
 50 61  2  0
 51 49  1  0
 51 56  1  0
 52 60  1  0
 52 62  1  0
 53 59  1  0
 53 55  1  0
 54 60  1  0
 55 56  2  0
 55 54  1  0
 57 58  1  0
 57 51  2  0
 58 53  2  0
 59 52  1  0
 60 50  1  0
 62 64  2  0
 63 62  1  0
 65 63  1  0
 66 75  2  0
 66 71  1  0
 67 63  1  0
 67 71  1  0
 68 67  1  0
 69 70  1  0
 69 68  1  0
 70 66  1  0
 71 72  2  0
 72 73  1  0
 74 73  2  0
 75 74  1  0
 76 50  1  0
 76 81  1  0
 76 77  1  0
 77 80  1  1
 77 78  1  0
 79 77  1  0
 81 84  1  0
 82 86  1  0
 82 81  1  0
 83 82  2  0
 86 85  1  0
 88 86  1  0
 88 89  1  0
 88 87  1  0
M  ISO  4  10 100  19 100  48 101  49 101
M  END
>  <TORSDO>  (20) 
F 19

>  <SCORE>  (20) 
-14.689

>  <name>  (20) 
19

>  <ligand_id>  (20) 
19

>  <original_smiles>  (20) 
[H]c1nn(C(C([H])([H])[H])(C([H])([H])[H])C([H])([H])N(C(=O)N2C([H])([H])C([H])([H])C([H])([H])C([H])(n3nc(-c4c([H])c([H])c(Oc5c([H])c([H])c(F)c([H])c5F)c([H])c4[H])c(C(=O)N([H])[H])c3N([H])[H])C2([H])[H])C([H])([H])[H])c([H])c1C([H])([H])Oc1c([H])c([H])c2c(c1[H])C([H])([H])N(C(=O)C([H])(N([H])C(=O)C([H])(N([H])C([H])([H])[H])C([H])([H])[H])C(C([H])([H])[H])(C([H])([H])[H])C([H])([H])[H])C([H])(C(=O)N([H])C1([H])c3c([H])c([H])c([H])c([H])c3C([H])([H])C([H])([H])C1([H])[H])C2([H])[H]

>  <smiles>  (20) 
[H]c1nn(C(C([H])([H])[H])(C([H])([H])[H])C([H])([H])N(C(=O)N2C([H])([H])C([H])([H])C([H])([H])C([H])(n3nc(-c4c([H])c([H])c(Oc5c([H])c([H])c(F)c([H])c5F)c([H])c4[H])c(C(=O)N([H])[H])c3N([H])[H])C2([H])[H])C([H])([H])[H])c([H])c1C([H])([H])Oc1c([H])c([H])c2c(c1[H])C([H])([H])N(C(=O)C([H])(N([H])C(=O)C([H])(N([H])C([H])([H])[H])C([H])([H])[H])C(C([H])([H])[H])(C([H])([H])[H])C([H])([H])[H])C([H])(C(=O)N([H])C1([H])c3c([H])c([H])c([H])c([H])c3C([H])([H])C([H])([H])C1([H])[H])C2([H])[H]

$$$$
20:0:0
     RDKit          3D

 88 96  0  0  1  0  0  0  0  0999 V2000
  -31.4960  -19.3870   21.9540 C   0  0  0  0  0  3  0  0  0  0  0  0
  -29.8420  -19.8890   20.7240 C   0  0  0  0  0  0  0  0  0  0  0  0
  -30.7490  -20.4380   21.5360 N   0  0  0  0  0  0  0  0  0  0  0  0
  -31.1630  -18.1980   21.4820 N   0  0  0  0  0  0  0  0  0  0  0  0
  -30.1060  -18.4060   20.6540 N   0  0  0  0  0  0  0  0  0  0  0  0
  -28.1860  -16.8330   20.5170 C   0  0  0  0  0  1  0  0  0  0  0  0
  -29.6580  -17.1460   18.5370 C   0  0  0  0  0  1  0  0  0  0  0  0
  -29.6430  -16.9350   20.0660 C   0  0  1  0  0  0  0  0  0  0  0  0
  -30.4470  -15.3510   20.2290 C   0  0  0  0  0  0  0  0  0  0  0  0
  -30.4470  -12.8890   19.3910 C   0  0  0  0  0  2  0  0  0  0  0  0
  -29.5400  -12.6990   18.1470 C   0  0  0  0  0  2  0  0  0  0  0  0
  -28.0830  -12.4170   18.5640 C   0  0  0  0  0  2  0  0  0  0  0  0
  -27.6190  -13.3610   19.6990 C   0  0  0  0  0  3  0  0  0  0  0  0
  -28.6620  -13.5090   20.8270 C   0  0  0  0  0  2  0  0  0  0  0  0
  -29.9000  -14.0290   20.2190 N   0  0  0  0  0  0  0  0  0  0  0  0
  -31.6770  -15.3120   20.0780 O   0  0  0  0  0  0  0  0  0  0  0  0
  -25.2330  -13.9060   20.4340 C   0  0  0  0  0  0  0  0  0  0  0  0
  -24.1790  -13.1190   20.8000 C   0  0  0  0  0  0  0  0  0  0  0  0
  -24.6640  -11.7770   20.7900 C   0  0  0  0  0  0  0  0  0  0  0  0
  -26.2910  -13.0410   20.2070 N   0  0  0  0  0  0  0  0  0  0  0  0
  -25.9590  -11.7550   20.4930 N   0  0  0  0  0  0  0  0  0  0  0  0
  -23.9490  -10.5120   20.9880 C   0  0  0  0  0  0  0  0  0  0  0  0
  -24.3840   -9.5600   21.9360 C   0  0  0  0  0  3  0  0  0  0  0  0
  -23.6640   -8.3600   22.1230 C   0  0  0  0  0  3  0  0  0  0  0  0
  -22.4980   -8.1040   21.3640 C   0  0  0  0  0  0  0  0  0  0  0  0
  -22.0850   -9.0460   20.4060 C   0  0  0  0  0  3  0  0  0  0  0  0
  -22.8030  -10.2380   20.2170 C   0  0  0  0  0  3  0  0  0  0  0  0
  -21.7520   -6.9550   21.4560 O   0  0  0  0  0  0  0  0  0  0  0  0
  -21.7040   -6.2190   22.6130 C   0  0  0  0  0  0  0  0  0  0  0  0
  -21.2690   -6.7780   23.8330 C   0  0  0  0  0  3  0  0  0  0  0  0
  -21.1760   -5.9700   24.9850 C   0  0  0  0  0  3  0  0  0  0  0  0
  -21.5020   -4.6020   24.9130 C   0  0  0  0  0  0  0  0  0  0  0  0
  -21.9250   -4.0400   23.6950 C   0  0  0  0  0  3  0  0  0  0  0  0
  -22.0260   -4.8480   22.5480 C   0  0  0  0  0  0  0  0  0  0  0  0
  -22.4170   -4.2990   21.3720 F   0  0  0  0  0  0  0  0  0  0  0  0
  -21.4010   -3.8220   26.0150 F   0  0  0  0  0  0  0  0  0  0  0  0
  -22.7750  -13.5850   21.0490 C   0  0  0  0  0  0  0  0  0  0  0  0
  -22.0470  -12.8970   21.9190 N   0  0  0  0  0  0  0  0  0  0  0  0
  -22.3320  -14.5970   20.5060 O   0  0  0  0  0  0  0  0  0  0  0  0
  -22.4200  -12.0800   22.3780 H   0  0  0  0  0  0  0  0  0  0  0  0
  -21.1060  -13.1940   22.1330 H   0  0  0  0  0  0  0  0  0  0  0  0
  -25.3570  -15.2750   20.2500 N   0  0  0  0  0  0  0  0  0  0  0  0
  -24.5770  -15.9140   20.3740 H   0  0  0  0  0  0  0  0  0  0  0  0
  -26.2180  -15.7460   20.0100 H   0  0  0  0  0  0  0  0  0  0  0  0
  -28.8140  -21.1510   20.2000 C   0  0  0  0  0  2  0  0  0  0  0  0
  -28.9780  -22.9120   20.5340 C   0  0  0  0  0  3  0  0  0  0  0  0
  -28.0050  -24.3710   20.1680 C   0  0  0  0  0  3  0  0  0  0  0  0
  -28.2170  -25.9750   20.4010 O   0  0  0  0  0  0  0  0  0  0  0  0
  -24.6400  -31.9280   23.2680 C   0  0  0  0  0  0  0  0  0  0  0  0
  -27.1960  -27.0480   20.3070 C   0  0  0  0  0  0  0  0  0  0  0  0
  -23.4480  -30.5240   21.6350 C   0  0  0  0  0  3  0  0  0  0  0  0
  -24.8930  -28.9040   20.2330 C   0  0  0  0  0  0  0  0  0  0  0  0
  -26.0140  -30.7320   21.4980 C   0  0  0  0  0  2  0  0  0  0  0  0
  -26.0790  -29.3230   20.8500 C   0  0  0  0  0  0  0  0  0  0  0  0
  -27.2270  -28.4170   20.8580 C   0  0  0  0  0  3  0  0  0  0  0  0
  -25.9790  -26.7680   19.6450 C   0  0  0  0  0  3  0  0  0  0  0  0
  -24.8660  -27.6450   19.6100 C   0  0  0  0  0  3  0  0  0  0  0  0
  -23.6760  -29.8250   20.2660 C   0  0  0  0  0  2  0  0  0  0  0  0
  -24.7220  -31.0900   22.1850 N   0  0  0  0  0  0  0  0  0  0  0  0
  -23.5490  -32.2290   23.7810 O   0  0  0  0  0  0  0  0  0  0  0  0
  -22.7450  -29.5400   22.6060 C   0  0  0  0  0  0  0  0  0  0  0  0
  -21.4160  -29.3800   22.4720 N   0  0  0  0  0  0  0  0  0  0  0  0
  -23.4020  -28.9190   23.4460 O   0  0  0  0  0  0  0  0  0  0  0  0
  -20.9430  -29.9300   21.7670 H   0  0  0  0  0  0  0  0  0  0  0  0
  -18.0220  -28.1890   22.9600 C   0  0  0  0  0  0  0  0  0  0  0  0
  -20.5790  -28.4550   23.2430 C   0  0  0  0  0  3  0  0  0  0  0  0
  -20.6830  -27.0150   22.6850 C   0  0  0  0  0  2  0  0  0  0  0  0
  -19.5880  -26.6840   21.6660 C   0  0  0  0  0  2  0  0  0  0  0  0
  -18.2020  -26.8350   22.2960 C   0  0  0  0  0  2  0  0  0  0  0  0
  -19.1380  -28.9580   23.3900 C   0  0  0  0  0  0  0  0  0  0  0  0
  -18.9110  -30.2230   23.9710 C   0  0  0  0  0  3  0  0  0  0  0  0
  -17.6040  -30.7210   24.1280 C   0  0  0  0  0  3  0  0  0  0  0  0
  -16.5030  -29.9520   23.7130 C   0  0  0  0  0  3  0  0  0  0  0  0
  -16.7130  -28.6870   23.1370 C   0  0  0  0  0  3  0  0  0  0  0  0
  -25.9130  -32.5660   23.9030 C   0  0  0  0  0  3  0  0  0  0  0  0
  -26.4040  -31.8120   25.2020 C   0  0  1  0  0  0  0  0  0  0  0  0
  -25.2940  -31.5990   26.2590 C   0  0  0  0  0  1  0  0  0  0  0  0
  -26.9820  -30.4230   24.8470 C   0  0  0  0  0  1  0  0  0  0  0  0
  -27.5500  -32.6100   25.8660 C   0  0  0  0  0  1  0  0  0  0  0  0
  -25.6010  -33.9700   24.2240 N   0  0  0  0  0  0  0  0  0  0  0  0
  -25.9260  -35.0230   23.4620 C   0  0  0  0  0  0  0  0  0  0  0  0
  -26.5820  -34.9160   22.4240 O   0  0  0  0  0  0  0  0  0  0  0  0
  -25.0150  -34.1250   25.0310 H   0  0  0  0  0  0  0  0  0  0  0  0
  -24.1830  -36.8160   23.1480 C   0  0  0  0  0  1  0  0  0  0  0  0
  -25.4500  -36.4180   23.9230 C   0  0  0  0  0  3  0  0  0  0  0  0
  -27.6080  -37.3170   24.6810 C   0  0  0  0  0  1  0  0  0  0  0  0
  -26.4770  -37.4730   23.7680 N   0  0  0  0  0  0  0  0  0  0  0  0
  -26.0750  -38.3930   23.9200 H   0  0  0  0  0  0  0  0  0  0  0  0
  2  3  2  0
  3  1  1  0
  4  1  2  0
  5  2  1  0
  5  4  1  0
  8  7  1  6
  8  9  1  0
  8  6  1  0
  8  5  1  0
 10 15  1  0
 11 12  1  0
 11 10  1  0
 13 12  1  0
 13 20  1  0
 13 14  1  0
 15  9  1  0
 15 14  1  0
 16  9  2  0
 17 18  2  0
 18 37  1  0
 19 18  1  0
 19 22  1  0
 20 17  1  0
 20 21  1  0
 21 19  2  0
 22 23  1  0
 23 24  2  0
 25 28  1  0
 25 24  1  0
 26 25  2  0
 27 26  1  0
 27 22  2  0
 28 29  1  0
 29 30  1  0
 30 31  2  0
 32 31  1  0
 32 36  1  0
 33 32  2  0
 34 29  2  0
 34 33  1  0
 35 34  1  0
 37 38  1  0
 38 41  1  0
 38 40  1  0
 39 37  2  0
 42 43  1  0
 42 17  1  0
 44 42  1  0
 45 46  1  0
 45  2  1  0
 47 48  1  0
 47 46  2  0
 49 60  2  0
 50 48  1  0
 50 55  1  0
 51 59  1  0
 51 61  1  0
 52 58  1  0
 52 54  1  0
 53 59  1  0
 54 55  2  0
 54 53  1  0
 56 50  2  0
 57 56  1  0
 57 52  2  0
 58 51  1  0
 59 49  1  0
 61 63  2  0
 62 61  1  0
 64 62  1  0
 65 74  2  0
 65 70  1  0
 66 62  1  0
 66 70  1  0
 67 66  1  0
 68 69  1  0
 68 67  1  0
 69 65  1  0
 70 71  2  0
 71 72  1  0
 73 72  2  0
 74 73  1  0
 75 49  1  0
 75 80  1  0
 75 76  1  0
 76 79  1  1
 76 77  1  0
 78 76  1  0
 80 83  1  0
 81 85  1  0
 81 80  1  0
 82 81  2  0
 85 84  1  0
 87 88  1  0
 87 85  1  0
 87 86  1  0
M  ISO  4   8 100   9 100  47 101  48 101
M  END
>  <TORSDO>  (21) 
F 20

>  <SCORE>  (21) 
-15.725

>  <name>  (21) 
20

>  <ligand_id>  (21) 
20

>  <original_smiles>  (21) 
[H]c1nc(C([H])([H])C([H])([H])C([H])([H])Oc2c([H])c([H])c3c(c2[H])C([H])([H])N(C(=O)C([H])(N([H])C(=O)C([H])(N([H])C([H])([H])[H])C([H])([H])[H])C(C([H])([H])[H])(C([H])([H])[H])C([H])([H])[H])C([H])(C(=O)N([H])C2([H])c4c([H])c([H])c([H])c([H])c4C([H])([H])C([H])([H])C2([H])[H])C3([H])[H])n(C(C(=O)N2C([H])([H])C([H])([H])C([H])([H])C([H])(n3nc(-c4c([H])c([H])c(Oc5c([H])c([H])c(F)c([H])c5F)c([H])c4[H])c(C(=O)N([H])[H])c3N([H])[H])C2([H])[H])(C([H])([H])[H])C([H])([H])[H])n1

>  <smiles>  (21) 
[H]c1nc(C([H])([H])C([H])([H])C([H])([H])Oc2c([H])c([H])c3c(c2[H])C([H])([H])N(C(=O)C([H])(N([H])C(=O)C([H])(N([H])C([H])([H])[H])C([H])([H])[H])C(C([H])([H])[H])(C([H])([H])[H])C([H])([H])[H])C([H])(C(=O)N([H])C2([H])c4c([H])c([H])c([H])c([H])c4C([H])([H])C([H])([H])C2([H])[H])C3([H])[H])n(C(C(=O)N2C([H])([H])C([H])([H])C([H])([H])C([H])(n3nc(-c4c([H])c([H])c(Oc5c([H])c([H])c(F)c([H])c5F)c([H])c4[H])c(C(=O)N([H])[H])c3N([H])[H])C2([H])[H])(C([H])([H])[H])C([H])([H])[H])n1

$$$$
21:0:0
     RDKit          3D

 88 96  0  0  1  0  0  0  0  0999 V2000
  -27.5190  -20.1180   20.8460 C   0  0  0  0  0  2  0  0  0  0  0  0
  -28.9220  -21.6480   19.9780 C   0  0  0  0  0  0  0  0  0  0  0  0
  -29.3940  -19.2490   19.9490 C   0  0  0  0  0  0  0  0  0  0  0  0
  -27.7880  -21.4040   20.6180 N   0  0  0  0  0  0  0  0  0  0  0  0
  -28.2310  -19.0310   20.5460 N   0  0  0  0  0  0  0  0  0  0  0  0
  -29.7710  -20.5720   19.6400 N   0  0  0  0  0  2  0  0  0  0  0  0
  -29.2680  -23.2800   19.8080 C   0  0  0  0  0  3  0  0  0  0  0  0
  -28.1800  -24.6120   19.7940 C   0  0  0  0  0  3  0  0  0  0  0  0
  -28.4430  -26.1770   19.8940 O   0  0  0  0  0  0  0  0  0  0  0  0
  -24.7570  -31.6960   23.2440 C   0  0  0  0  0  0  0  0  0  0  0  0
  -27.3830  -27.1790   19.9090 C   0  0  0  0  0  0  0  0  0  0  0  0
  -23.5790  -30.4010   21.5130 C   0  0  0  0  0  3  0  0  0  0  0  0
  -25.0460  -28.9350   19.9880 C   0  0  0  0  0  0  0  0  0  0  0  0
  -26.1330  -30.6900   21.3730 C   0  0  0  0  0  2  0  0  0  0  0  0
  -26.2230  -29.3410   20.6300 C   0  0  0  0  0  0  0  0  0  0  0  0
  -27.3920  -28.4830   20.5690 C   0  0  0  0  0  3  0  0  0  0  0  0
  -26.1780  -26.8930   19.2340 C   0  0  0  0  0  3  0  0  0  0  0  0
  -25.0400  -27.7310   19.2710 C   0  0  0  0  0  3  0  0  0  0  0  0
  -23.8100  -29.8180   20.0930 C   0  0  0  0  0  2  0  0  0  0  0  0
  -24.8440  -30.9470   22.1000 N   0  0  0  0  0  0  0  0  0  0  0  0
  -23.6650  -31.9310   23.7830 O   0  0  0  0  0  0  0  0  0  0  0  0
  -22.9020  -29.3270   22.4040 C   0  0  0  0  0  0  0  0  0  0  0  0
  -21.5820  -29.1330   22.2390 N   0  0  0  0  0  0  0  0  0  0  0  0
  -23.5710  -28.6750   23.2120 O   0  0  0  0  0  0  0  0  0  0  0  0
  -21.0990  -29.6990   21.5560 H   0  0  0  0  0  0  0  0  0  0  0  0
  -18.2260  -27.8170   22.5990 C   0  0  0  0  0  0  0  0  0  0  0  0
  -20.7710  -28.1360   22.9420 C   0  0  0  0  0  3  0  0  0  0  0  0
  -20.9270  -26.7410   22.2960 C   0  0  0  0  0  2  0  0  0  0  0  0
  -19.8590  -26.4440   21.2360 C   0  0  0  0  0  2  0  0  0  0  0  0
  -18.4580  -26.5160   21.8510 C   0  0  0  0  0  2  0  0  0  0  0  0
  -19.3130  -28.5860   23.0960 C   0  0  0  0  0  0  0  0  0  0  0  0
  -19.0400  -29.8040   23.7570 C   0  0  0  0  0  3  0  0  0  0  0  0
  -17.7180  -30.2560   23.9190 C   0  0  0  0  0  3  0  0  0  0  0  0
  -16.6450  -29.4840   23.4390 C   0  0  0  0  0  3  0  0  0  0  0  0
  -16.9000  -28.2650   22.7860 C   0  0  0  0  0  3  0  0  0  0  0  0
  -26.0240  -32.3050   23.9190 C   0  0  0  0  0  3  0  0  0  0  0  0
  -26.5210  -31.4740   25.1660 C   0  0  1  0  0  0  0  0  0  0  0  0
  -25.4130  -31.1820   26.2060 C   0  0  0  0  0  1  0  0  0  0  0  0
  -27.1140  -30.1170   24.7210 C   0  0  0  0  0  1  0  0  0  0  0  0
  -27.6580  -32.2370   25.8840 C   0  0  0  0  0  1  0  0  0  0  0  0
  -25.7010  -33.6830   24.3190 N   0  0  0  0  0  0  0  0  0  0  0  0
  -26.0310  -34.7800   23.6230 C   0  0  0  0  0  0  0  0  0  0  0  0
  -26.7030  -34.7350   22.5900 O   0  0  0  0  0  0  0  0  0  0  0  0
  -25.1090  -33.7930   25.1300 H   0  0  0  0  0  0  0  0  0  0  0  0
  -24.3020  -36.5910   23.3630 C   0  0  0  0  0  1  0  0  0  0  0  0
  -25.5390  -36.1410   24.1560 C   0  0  0  0  0  3  0  0  0  0  0  0
  -27.6640  -36.9890   25.0520 C   0  0  0  0  0  1  0  0  0  0  0  0
  -26.5700  -37.2010   24.1070 N   0  0  0  0  0  0  0  0  0  0  0  0
  -26.1590  -38.1120   24.2930 H   0  0  0  0  0  0  0  0  0  0  0  0
  -30.2620  -17.8610   19.5690 C   0  0  0  0  0  2  0  0  0  0  0  0
  -30.8340  -15.1620   19.7550 C   0  0  0  0  0  0  0  0  0  0  0  0
  -30.6980  -12.8200   18.7380 C   0  0  0  0  0  2  0  0  0  0  0  0
  -29.6460  -12.7170   17.6080 C   0  0  0  0  0  2  0  0  0  0  0  0
  -28.2450  -12.4390   18.1780 C   0  0  0  0  0  2  0  0  0  0  0  0
  -27.9230  -13.3660   19.3740 C   0  0  0  0  0  3  0  0  0  0  0  0
  -29.0690  -13.3590   20.4030 C   0  0  0  0  0  2  0  0  0  0  0  0
  -30.2600  -13.8770   19.7100 N   0  0  0  0  0  0  0  0  0  0  0  0
  -31.9630  -15.2460   19.2540 O   0  0  0  0  0  0  0  0  0  0  0  0
  -29.5010  -16.3630   21.4570 C   0  0  0  0  0  1  0  0  0  0  0  0
  -30.1020  -16.3580   20.1170 N   0  0  0  0  0  0  0  0  0  0  0  0
  -25.6330  -13.9340   20.3630 C   0  0  0  0  0  0  0  0  0  0  0  0
  -24.5950  -13.1500   20.7870 C   0  0  0  0  0  0  0  0  0  0  0  0
  -25.0400  -11.7990   20.6510 C   0  0  0  0  0  0  0  0  0  0  0  0
  -26.6350  -13.0570   19.9830 N   0  0  0  0  0  0  0  0  0  0  0  0
  -26.2960  -11.7670   20.2220 N   0  0  0  0  0  0  0  0  0  0  0  0
  -24.3210  -10.5350   20.8500 C   0  0  0  0  0  0  0  0  0  0  0  0
  -24.7380   -9.5970   21.8190 C   0  0  0  0  0  3  0  0  0  0  0  0
  -24.0210   -8.3960   22.0090 C   0  0  0  0  0  3  0  0  0  0  0  0
  -22.8760   -8.1240   21.2250 C   0  0  0  0  0  0  0  0  0  0  0  0
  -22.4800   -9.0490   20.2450 C   0  0  0  0  0  3  0  0  0  0  0  0
  -23.1970  -10.2410   20.0540 C   0  0  0  0  0  3  0  0  0  0  0  0
  -22.1330   -6.9720   21.3190 O   0  0  0  0  0  0  0  0  0  0  0  0
  -21.9360   -6.3400   22.5190 C   0  0  0  0  0  0  0  0  0  0  0  0
  -21.3220   -6.9900   23.6130 C   0  0  0  0  0  3  0  0  0  0  0  0
  -21.0750   -6.2800   24.8050 C   0  0  0  0  0  3  0  0  0  0  0  0
  -21.4340   -4.9210   24.9030 C   0  0  0  0  0  0  0  0  0  0  0  0
  -22.0390   -4.2720   23.8140 C   0  0  0  0  0  3  0  0  0  0  0  0
  -22.2880   -4.9800   22.6250 C   0  0  0  0  0  0  0  0  0  0  0  0
  -22.8530   -4.3440   21.5690 F   0  0  0  0  0  0  0  0  0  0  0  0
  -21.1890   -4.2370   26.0450 F   0  0  0  0  0  0  0  0  0  0  0  0
  -23.2340  -13.6210   21.2070 C   0  0  0  0  0  0  0  0  0  0  0  0
  -22.5880  -12.8970   22.1130 N   0  0  0  0  0  0  0  0  0  0  0  0
  -22.7530  -14.6630   20.7670 O   0  0  0  0  0  0  0  0  0  0  0  0
  -22.9840  -12.0410   22.4760 H   0  0  0  0  0  0  0  0  0  0  0  0
  -21.6840  -13.1970   22.4440 H   0  0  0  0  0  0  0  0  0  0  0  0
  -25.8120  -15.3090   20.2440 N   0  0  0  0  0  0  0  0  0  0  0  0
  -25.1070  -15.9900   20.5010 H   0  0  0  0  0  0  0  0  0  0  0  0
  -26.6780  -15.7370   19.9400 H   0  0  0  0  0  0  0  0  0  0  0  0
  2  4  2  0
  3  5  2  0
  4  1  1  0
  5  1  1  0
  6  3  1  0
  6  2  1  0
  7  2  1  0
  8  7  2  0
  8  9  1  0
  9 11  1  0
 10 21  2  0
 11 16  1  0
 12 20  1  0
 12 22  1  0
 13 19  1  0
 13 15  1  0
 14 20  1  0
 15 14  1  0
 16 15  2  0
 17 18  1  0
 17 11  2  0
 18 13  2  0
 19 12  1  0
 20 10  1  0
 22 24  2  0
 23 22  1  0
 25 23  1  0
 26 35  2  0
 26 31  1  0
 27 23  1  0
 27 31  1  0
 28 27  1  0
 29 30  1  0
 29 28  1  0
 30 26  1  0
 31 32  2  0
 32 33  1  0
 34 33  2  0
 35 34  1  0
 36 10  1  0
 36 41  1  0
 36 37  1  0
 37 40  1  1
 37 38  1  0
 39 37  1  0
 41 44  1  0
 42 46  1  0
 42 41  1  0
 43 42  2  0
 46 45  1  0
 48 46  1  0
 48 49  1  0
 48 47  1  0
 50  3  1  0
 50 60  1  0
 51 60  1  0
 52 57  1  0
 53 54  1  0
 53 52  1  0
 55 54  1  0
 55 64  1  0
 55 56  1  0
 57 51  1  0
 57 56  1  0
 58 51  2  0
 60 59  1  0
 61 62  2  0
 62 81  1  0
 63 62  1  0
 63 66  1  0
 64 65  1  0
 64 61  1  0
 65 63  2  0
 66 67  1  0
 67 68  2  0
 69 72  1  0
 69 68  1  0
 70 69  2  0
 71 70  1  0
 71 66  2  0
 72 73  1  0
 73 78  2  0
 73 74  1  0
 74 75  2  0
 75 76  1  0
 76 80  1  0
 77 76  2  0
 78 77  1  0
 79 78  1  0
 81 82  1  0
 82 85  1  0
 82 84  1  0
 83 81  2  0
 86 61  1  0
 86 87  1  0
 88 86  1  0
M  ISO  4   8 101   9 101  51 100  60 100
M  END
>  <TORSDO>  (22) 
F 19

>  <SCORE>  (22) 
-12.949

>  <name>  (22) 
21

>  <ligand_id>  (22) 
21

>  <original_smiles>  (22) 
[H]c1nc(C([H])([H])N(C(=O)N2C([H])([H])C([H])([H])C([H])([H])C([H])(n3nc(-c4c([H])c([H])c(Oc5c([H])c([H])c(F)c([H])c5F)c([H])c4[H])c(C(=O)N([H])[H])c3N([H])[H])C2([H])[H])C([H])([H])[H])nc(C([H])([H])C([H])([H])Oc2c([H])c([H])c3c(c2[H])C([H])([H])N(C(=O)C([H])(N([H])C(=O)C([H])(N([H])C([H])([H])[H])C([H])([H])[H])C(C([H])([H])[H])(C([H])([H])[H])C([H])([H])[H])C([H])(C(=O)N([H])C2([H])c4c([H])c([H])c([H])c([H])c4C([H])([H])C([H])([H])C2([H])[H])C3([H])[H])n1

>  <smiles>  (22) 
[H]c1nc(C([H])([H])N(C(=O)N2C([H])([H])C([H])([H])C([H])([H])C([H])(n3nc(-c4c([H])c([H])c(Oc5c([H])c([H])c(F)c([H])c5F)c([H])c4[H])c(C(=O)N([H])[H])c3N([H])[H])C2([H])[H])C([H])([H])[H])nc(C([H])([H])C([H])([H])Oc2c([H])c([H])c3c(c2[H])C([H])([H])N(C(=O)C([H])(N([H])C(=O)C([H])(N([H])C([H])([H])[H])C([H])([H])[H])C(C([H])([H])[H])(C([H])([H])[H])C([H])([H])[H])C([H])(C(=O)N([H])C2([H])c4c([H])c([H])c([H])c([H])c4C([H])([H])C([H])([H])C2([H])[H])C3([H])[H])n1

$$$$
22:0:0
     RDKit          3D

 91 99  0  0  1  0  0  0  0  0999 V2000
  -30.1580  -22.2590   18.8420 C   0  0  0  0  0  3  0  0  0  0  0  0
  -28.8610  -22.8460   19.1340 C   0  0  0  0  0  0  0  0  0  0  0  0
  -29.6730  -19.8170   19.2280 C   0  0  0  0  0  0  0  0  0  0  0  0
  -28.3480  -20.3950   19.5130 C   0  0  0  0  0  0  0  0  0  0  0  0
  -30.5260  -20.8820   18.9010 N   0  0  0  0  0  0  0  0  0  0  0  0
  -28.0050  -21.7890   19.4650 N   0  0  0  0  0  0  0  0  0  0  0  0
  -27.1680  -19.4930   19.8960 C   0  0  1  0  0  0  0  0  0  0  0  0
  -27.0420  -18.4920   19.0280 F   0  0  0  0  0  0  0  0  0  0  0  0
  -27.3430  -19.0030   21.1240 F   0  0  0  0  0  0  0  0  0  0  0  0
  -26.0150  -20.1660   19.8850 F   0  0  0  0  0  0  0  0  0  0  0  0
  -30.3280  -18.1850   19.2210 C   0  0  0  0  0  2  0  0  0  0  0  0
  -30.8430  -15.3130   19.3850 C   0  0  0  0  0  0  0  0  0  0  0  0
  -30.6760  -12.8780   18.5250 C   0  0  0  0  0  2  0  0  0  0  0  0
  -29.6100  -12.7040   17.4110 C   0  0  0  0  0  2  0  0  0  0  0  0
  -28.2040  -12.4800   18.0010 C   0  0  0  0  0  2  0  0  0  0  0  0
  -27.9170  -13.4260   19.1870 C   0  0  0  0  0  3  0  0  0  0  0  0
  -29.0900  -13.4730   20.1760 C   0  0  0  0  0  2  0  0  0  0  0  0
  -30.2560  -14.0090   19.4300 N   0  0  0  0  0  0  0  0  0  0  0  0
  -31.9760  -15.3120   18.8740 O   0  0  0  0  0  0  0  0  0  0  0  0
  -29.4680  -16.5070   21.0010 C   0  0  0  0  0  1  0  0  0  0  0  0
  -30.1590  -16.5900   19.7100 N   0  0  0  0  0  0  0  0  0  0  0  0
  -25.6910  -14.0390   20.2710 C   0  0  0  0  0  0  0  0  0  0  0  0
  -24.6550  -13.2820   20.7480 C   0  0  0  0  0  0  0  0  0  0  0  0
  -25.0570  -11.9200   20.5950 C   0  0  0  0  0  0  0  0  0  0  0  0
  -26.6500  -13.1370   19.8450 N   0  0  0  0  0  0  0  0  0  0  0  0
  -26.2900  -11.8540   20.1050 N   0  0  0  0  0  0  0  0  0  0  0  0
  -24.3060  -10.6750   20.8180 C   0  0  0  0  0  0  0  0  0  0  0  0
  -24.7250   -9.7220   21.7690 C   0  0  0  0  0  3  0  0  0  0  0  0
  -23.9710   -8.5470   21.9820 C   0  0  0  0  0  3  0  0  0  0  0  0
  -22.7870   -8.3180   21.2420 C   0  0  0  0  0  0  0  0  0  0  0  0
  -22.3900   -9.2600   20.2770 C   0  0  0  0  0  3  0  0  0  0  0  0
  -23.1440  -10.4250   20.0620 C   0  0  0  0  0  3  0  0  0  0  0  0
  -22.0030   -7.1970   21.3700 O   0  0  0  0  0  0  0  0  0  0  0  0
  -21.8220   -6.5810   22.5840 C   0  0  0  0  0  0  0  0  0  0  0  0
  -21.2910   -7.2660   23.6980 C   0  0  0  0  0  3  0  0  0  0  0  0
  -21.0590   -6.5770   24.9050 C   0  0  0  0  0  3  0  0  0  0  0  0
  -21.3440   -5.2010   24.9960 C   0  0  0  0  0  0  0  0  0  0  0  0
  -21.8660   -4.5150   23.8850 C   0  0  0  0  0  3  0  0  0  0  0  0
  -22.1030   -5.2020   22.6830 C   0  0  0  0  0  0  0  0  0  0  0  0
  -22.5880   -4.5320   21.6100 F   0  0  0  0  0  0  0  0  0  0  0  0
  -21.1110   -4.5360   26.1520 F   0  0  0  0  0  0  0  0  0  0  0  0
  -23.3280  -13.7940   21.2210 C   0  0  0  0  0  0  0  0  0  0  0  0
  -22.7120  -13.1030   22.1760 N   0  0  0  0  0  0  0  0  0  0  0  0
  -22.8460  -14.8330   20.7730 O   0  0  0  0  0  0  0  0  0  0  0  0
  -23.1210  -12.2650   22.5630 H   0  0  0  0  0  0  0  0  0  0  0  0
  -21.8170  -13.4170   22.5250 H   0  0  0  0  0  0  0  0  0  0  0  0
  -25.8830  -15.4100   20.1410 N   0  0  0  0  0  0  0  0  0  0  0  0
  -25.1710  -16.0800   20.4040 H   0  0  0  0  0  0  0  0  0  0  0  0
  -26.6920  -15.8380   19.7110 H   0  0  0  0  0  0  0  0  0  0  0  0
  -28.2560  -24.4160   18.7010 C   0  0  0  0  0  2  0  0  0  0  0  0
  -28.4420  -25.9470   19.2120 O   0  0  0  0  0  0  0  0  0  0  0  0
  -24.3540  -31.2680   22.5880 C   0  0  0  0  0  0  0  0  0  0  0  0
  -27.3600  -26.9610   19.1950 C   0  0  0  0  0  0  0  0  0  0  0  0
  -23.3060  -29.9360   20.8020 C   0  0  0  0  0  3  0  0  0  0  0  0
  -24.9080  -28.6130   19.2670 C   0  0  0  0  0  0  0  0  0  0  0  0
  -25.8440  -30.3860   20.7340 C   0  0  0  0  0  2  0  0  0  0  0  0
  -26.0450  -29.0600   19.9520 C   0  0  0  0  0  0  0  0  0  0  0  0
  -27.2640  -28.2540   19.9010 C   0  0  0  0  0  3  0  0  0  0  0  0
  -26.1870  -26.6670   18.4620 C   0  0  0  0  0  3  0  0  0  0  0  0
  -25.0010  -27.4370   18.5070 C   0  0  0  0  0  3  0  0  0  0  0  0
  -23.6130  -29.4130   19.3720 C   0  0  0  0  0  2  0  0  0  0  0  0
  -24.5200  -30.5510   21.4300 N   0  0  0  0  0  0  0  0  0  0  0  0
  -23.2370  -31.4160   23.1100 O   0  0  0  0  0  0  0  0  0  0  0  0
  -22.6910  -28.7960   21.6550 C   0  0  0  0  0  0  0  0  0  0  0  0
  -21.3710  -28.5700   21.5280 N   0  0  0  0  0  0  0  0  0  0  0  0
  -23.4060  -28.1230   22.4000 O   0  0  0  0  0  0  0  0  0  0  0  0
  -20.8460  -29.1690   20.9080 H   0  0  0  0  0  0  0  0  0  0  0  0
  -18.0530  -27.1880   22.0130 C   0  0  0  0  0  0  0  0  0  0  0  0
  -20.6140  -27.5060   22.1950 C   0  0  0  0  0  3  0  0  0  0  0  0
  -20.7290  -26.1730   21.4200 C   0  0  0  0  0  2  0  0  0  0  0  0
  -19.5870  -25.9540   20.4240 C   0  0  0  0  0  2  0  0  0  0  0  0
  -18.2360  -25.9550   21.1440 C   0  0  0  0  0  2  0  0  0  0  0  0
  -19.1680  -27.9260   22.4930 C   0  0  0  0  0  0  0  0  0  0  0  0
  -18.9390  -29.0820   23.2720 C   0  0  0  0  0  3  0  0  0  0  0  0
  -17.6290  -29.5000   23.5720 C   0  0  0  0  0  3  0  0  0  0  0  0
  -16.5290  -28.7580   23.1060 C   0  0  0  0  0  3  0  0  0  0  0  0
  -16.7420  -27.6030   22.3320 C   0  0  0  0  0  3  0  0  0  0  0  0
  -25.5580  -31.9510   23.3050 C   0  0  0  0  0  3  0  0  0  0  0  0
  -26.1240  -31.1000   24.5090 C   0  0  1  0  0  0  0  0  0  0  0  0
  -25.0410  -30.6570   25.5210 C   0  0  0  0  0  1  0  0  0  0  0  0
  -26.8370  -29.8280   23.9990 C   0  0  0  0  0  1  0  0  0  0  0  0
  -27.1910  -31.9190   25.2710 C   0  0  0  0  0  1  0  0  0  0  0  0
  -25.1110  -33.2710   23.7830 N   0  0  0  0  0  0  0  0  0  0  0  0
  -25.3680  -34.4340   23.1690 C   0  0  0  0  0  0  0  0  0  0  0  0
  -26.0670  -34.5130   22.1560 O   0  0  0  0  0  0  0  0  0  0  0  0
  -24.4840  -33.2760   24.5740 H   0  0  0  0  0  0  0  0  0  0  0  0
  -23.4960  -36.1080   22.9810 C   0  0  0  0  0  1  0  0  0  0  0  0
  -24.7530  -35.7140   23.7740 C   0  0  0  0  0  3  0  0  0  0  0  0
  -26.7820  -36.6750   24.7710 C   0  0  0  0  0  1  0  0  0  0  0  0
  -25.6920  -36.8560   23.8140 N   0  0  0  0  0  0  0  0  0  0  0  0
  -25.2040  -37.7170   24.0490 H   0  0  0  0  0  0  0  0  0  0  0  0
  1  5  2  0
  1  2  1  0
  2  6  2  0
  3  4  2  0
  4  7  1  0
  5  3  1  0
  6  4  1  0
  7  9  1  1
  8  7  1  0
 10  7  1  0
 11  3  1  0
 11 21  1  0
 12 18  1  0
 12 21  1  0
 13 18  1  0
 14 15  1  0
 14 13  1  0
 16 15  1  0
 16 25  1  0
 16 17  1  0
 18 17  1  0
 19 12  2  0
 21 20  1  0
 22 23  2  0
 23 42  1  0
 24 23  1  0
 24 27  1  0
 25 26  1  0
 25 22  1  0
 26 24  2  0
 27 28  1  0
 28 29  2  0
 30 33  1  0
 30 29  1  0
 31 30  2  0
 32 31  1  0
 32 27  2  0
 33 34  1  0
 34 39  2  0
 34 35  1  0
 35 36  2  0
 36 37  1  0
 37 41  1  0
 38 37  2  0
 39 38  1  0
 40 39  1  0
 42 43  1  0
 43 46  1  0
 43 45  1  0
 44 42  2  0
 47 22  1  0
 47 48  1  0
 49 47  1  0
 50  2  1  0
 50 51  1  0
 52 63  2  0
 53 51  1  0
 53 58  1  0
 54 62  1  0
 54 64  1  0
 55 61  1  0
 55 57  1  0
 56 62  1  0
 57 56  1  0
 58 57  2  0
 59 60  1  0
 59 53  2  0
 60 55  2  0
 61 54  1  0
 62 52  1  0
 64 66  2  0
 65 64  1  0
 67 65  1  0
 68 77  2  0
 68 73  1  0
 69 65  1  0
 69 73  1  0
 70 69  1  0
 71 72  1  0
 71 70  1  0
 72 68  1  0
 73 74  2  0
 74 75  1  0
 76 75  2  0
 77 76  1  0
 78 52  1  0
 78 83  1  0
 78 79  1  0
 79 82  1  1
 79 80  1  0
 81 79  1  0
 83 86  1  0
 84 88  1  0
 84 83  1  0
 85 84  2  0
 88 87  1  0
 88 90  1  0
 90 91  1  0
 90 89  1  0
M  ISO  4  12 100  21 100  50 101  51 101
M  END
>  <TORSDO>  (23) 
F 19

>  <SCORE>  (23) 
-10.984

>  <name>  (23) 
22

>  <ligand_id>  (23) 
22

>  <original_smiles>  (23) 
[H]c1nc(C([H])([H])N(C(=O)N2C([H])([H])C([H])([H])C([H])([H])C([H])(n3nc(-c4c([H])c([H])c(Oc5c([H])c([H])c(F)c([H])c5F)c([H])c4[H])c(C(=O)N([H])[H])c3N([H])[H])C2([H])[H])C([H])([H])[H])c(C(F)(F)F)nc1C([H])([H])Oc1c([H])c([H])c2c(c1[H])C([H])([H])N(C(=O)C([H])(N([H])C(=O)C([H])(N([H])C([H])([H])[H])C([H])([H])[H])C(C([H])([H])[H])(C([H])([H])[H])C([H])([H])[H])C([H])(C(=O)N([H])C1([H])c3c([H])c([H])c([H])c([H])c3C([H])([H])C([H])([H])C1([H])[H])C2([H])[H]

>  <smiles>  (23) 
[H]c1nc(C([H])([H])N(C(=O)N2C([H])([H])C([H])([H])C([H])([H])C([H])(n3nc(-c4c([H])c([H])c(Oc5c([H])c([H])c(F)c([H])c5F)c([H])c4[H])c(C(=O)N([H])[H])c3N([H])[H])C2([H])[H])C([H])([H])[H])c(C(F)(F)F)nc1C([H])([H])Oc1c([H])c([H])c2c(c1[H])C([H])([H])N(C(=O)C([H])(N([H])C(=O)C([H])(N([H])C([H])([H])[H])C([H])([H])[H])C(C([H])([H])[H])(C([H])([H])[H])C([H])([H])[H])C([H])(C(=O)N([H])C1([H])c3c([H])c([H])c([H])c([H])c3C([H])([H])C([H])([H])C1([H])[H])C2([H])[H]

$$$$
23:0:0
     RDKit          3D

 92100  0  0  1  0  0  0  0  0999 V2000
  -30.9750  -21.1570   21.0950 C   0  0  0  0  0  2  0  0  0  0  0  0
  -31.7600  -19.2470   20.5520 C   0  0  0  0  0  3  0  0  0  0  0  0
  -30.3840  -19.1350   20.3430 C   0  0  0  0  0  3  0  0  0  0  0  0
  -32.0850  -20.4580   21.1480 N   0  0  0  0  0  2  0  0  0  0  0  0
  -29.9160  -20.5800   20.5040 N   0  0  0  0  0  0  0  0  0  0  0  0
  -32.9010  -18.3290   20.1540 C   0  0  1  0  0  0  0  0  0  0  0  0
  -32.7280  -17.8520   18.9210 F   0  0  0  0  0  0  0  0  0  0  0  0
  -34.0730  -18.9760   20.1300 F   0  0  0  0  0  0  0  0  0  0  0  0
  -33.0390  -17.3080   21.0000 F   0  0  0  0  0  0  0  0  0  0  0  0
  -29.7650  -17.6970   19.8340 C   0  0  0  0  0  2  0  0  0  0  0  0
  -30.6260  -15.0330   19.9540 C   0  0  0  0  0  0  0  0  0  0  0  0
  -30.3510  -12.7240   18.9310 C   0  0  0  0  0  2  0  0  0  0  0  0
  -29.3380  -12.7070   17.7630 C   0  0  0  0  0  2  0  0  0  0  0  0
  -27.9040  -12.5130   18.2860 C   0  0  0  0  0  2  0  0  0  0  0  0
  -27.5950  -13.3920   19.5220 C   0  0  0  0  0  3  0  0  0  0  0  0
  -28.7250  -13.3630   20.5730 C   0  0  0  0  0  2  0  0  0  0  0  0
  -29.9670  -13.7930   19.9070 N   0  0  0  0  0  0  0  0  0  0  0  0
  -31.7220  -15.0700   19.3980 O   0  0  0  0  0  0  0  0  0  0  0  0
  -29.9240  -16.3230   21.9180 C   0  0  0  0  0  1  0  0  0  0  0  0
  -30.0330  -16.2450   20.4570 N   0  0  0  0  0  0  0  0  0  0  0  0
  -25.2670  -13.9480   20.4290 C   0  0  0  0  0  0  0  0  0  0  0  0
  -24.2320  -13.1670   20.8530 C   0  0  0  0  0  0  0  0  0  0  0  0
  -24.6920  -11.8160   20.7660 C   0  0  0  0  0  0  0  0  0  0  0  0
  -26.2920  -13.0790   20.1010 N   0  0  0  0  0  0  0  0  0  0  0  0
  -25.9600  -11.7870   20.3700 N   0  0  0  0  0  0  0  0  0  0  0  0
  -23.9760  -10.5520   20.9830 C   0  0  0  0  0  0  0  0  0  0  0  0
  -24.4380   -9.5890   21.9080 C   0  0  0  0  0  3  0  0  0  0  0  0
  -23.7220   -8.3890   22.1130 C   0  0  0  0  0  3  0  0  0  0  0  0
  -22.5270   -8.1450   21.3940 C   0  0  0  0  0  0  0  0  0  0  0  0
  -22.0840   -9.0950   20.4580 C   0  0  0  0  0  3  0  0  0  0  0  0
  -22.8020  -10.2860   20.2520 C   0  0  0  0  0  3  0  0  0  0  0  0
  -21.7790   -6.9980   21.5090 O   0  0  0  0  0  0  0  0  0  0  0  0
  -21.7330   -6.2830   22.6800 C   0  0  0  0  0  0  0  0  0  0  0  0
  -21.2960   -6.8660   23.8900 C   0  0  0  0  0  3  0  0  0  0  0  0
  -21.1960   -6.0770   25.0560 C   0  0  0  0  0  3  0  0  0  0  0  0
  -21.5230   -4.7080   25.0120 C   0  0  0  0  0  0  0  0  0  0  0  0
  -21.9520   -4.1260   23.8040 C   0  0  0  0  0  3  0  0  0  0  0  0
  -22.0540   -4.9110   22.6420 C   0  0  0  0  0  0  0  0  0  0  0  0
  -22.4460   -4.3380   21.4770 F   0  0  0  0  0  0  0  0  0  0  0  0
  -21.4200   -3.9490   26.1290 F   0  0  0  0  0  0  0  0  0  0  0  0
  -22.8560  -13.6370   21.2300 C   0  0  0  0  0  0  0  0  0  0  0  0
  -22.1950  -12.9310   22.1360 N   0  0  0  0  0  0  0  0  0  0  0  0
  -22.3780  -14.6680   20.7500 O   0  0  0  0  0  0  0  0  0  0  0  0
  -22.6010  -12.1030   22.5470 H   0  0  0  0  0  0  0  0  0  0  0  0
  -21.2710  -13.2200   22.4320 H   0  0  0  0  0  0  0  0  0  0  0  0
  -25.4230  -15.3240   20.2670 N   0  0  0  0  0  0  0  0  0  0  0  0
  -24.6730  -15.9820   20.4530 H   0  0  0  0  0  0  0  0  0  0  0  0
  -26.2670  -15.7620   19.9190 H   0  0  0  0  0  0  0  0  0  0  0  0
  -28.7110  -21.5730   20.2030 C   0  0  0  0  0  2  0  0  0  0  0  0
  -28.8460  -23.2690   20.5020 C   0  0  0  0  0  3  0  0  0  0  0  0
  -27.9810  -24.6060   19.9070 C   0  0  0  0  0  3  0  0  0  0  0  0
  -28.1670  -26.1290   20.2670 O   0  0  0  0  0  0  0  0  0  0  0  0
  -24.6120  -31.9180   23.2120 C   0  0  0  0  0  0  0  0  0  0  0  0
  -27.1220  -27.1330   20.1870 C   0  0  0  0  0  0  0  0  0  0  0  0
  -23.3930  -30.5100   21.5980 C   0  0  0  0  0  3  0  0  0  0  0  0
  -24.8190  -28.9160   20.1710 C   0  0  0  0  0  0  0  0  0  0  0  0
  -25.9510  -30.7500   21.4130 C   0  0  0  0  0  2  0  0  0  0  0  0
  -26.0070  -29.3500   20.7690 C   0  0  0  0  0  0  0  0  0  0  0  0
  -27.1590  -28.4710   20.7630 C   0  0  0  0  0  3  0  0  0  0  0  0
  -25.9060  -26.8130   19.5440 C   0  0  0  0  0  3  0  0  0  0  0  0
  -24.7800  -27.6660   19.5410 C   0  0  0  0  0  3  0  0  0  0  0  0
  -23.6060  -29.8280   20.2200 C   0  0  0  0  0  2  0  0  0  0  0  0
  -24.6730  -31.0830   22.1300 N   0  0  0  0  0  0  0  0  0  0  0  0
  -23.5300  -32.2100   23.7460 O   0  0  0  0  0  0  0  0  0  0  0  0
  -22.7110  -29.5200   22.5760 C   0  0  0  0  0  0  0  0  0  0  0  0
  -21.3790  -29.3540   22.4590 N   0  0  0  0  0  0  0  0  0  0  0  0
  -23.3890  -28.8990   23.4010 O   0  0  0  0  0  0  0  0  0  0  0  0
  -20.8880  -29.9160   21.7750 H   0  0  0  0  0  0  0  0  0  0  0  0
  -18.0030  -28.1510   22.9860 C   0  0  0  0  0  0  0  0  0  0  0  0
  -20.5590  -28.4310   23.2500 C   0  0  0  0  0  3  0  0  0  0  0  0
  -20.6690  -26.9870   22.7060 C   0  0  0  0  0  2  0  0  0  0  0  0
  -19.5720  -26.6400   21.6940 C   0  0  0  0  0  2  0  0  0  0  0  0
  -18.1910  -26.7910   22.3360 C   0  0  0  0  0  2  0  0  0  0  0  0
  -19.1160  -28.9280   23.4030 C   0  0  0  0  0  0  0  0  0  0  0  0
  -18.8890  -30.1980   23.9750 C   0  0  0  0  0  3  0  0  0  0  0  0
  -17.5830  -30.6950   24.1300 C   0  0  0  0  0  3  0  0  0  0  0  0
  -16.4820  -29.9180   23.7300 C   0  0  0  0  0  3  0  0  0  0  0  0
  -16.6940  -28.6480   23.1640 C   0  0  0  0  0  3  0  0  0  0  0  0
  -25.8960  -32.5560   23.8200 C   0  0  0  0  0  3  0  0  0  0  0  0
  -25.5830  -33.9550   24.1530 N   0  0  0  0  0  0  0  0  0  0  0  0
  -25.9220  -35.0160   23.4080 C   0  0  0  0  0  0  0  0  0  0  0  0
  -26.5880  -34.9160   22.3750 O   0  0  0  0  0  0  0  0  0  0  0  0
  -24.9640  -34.0970   24.9380 H   0  0  0  0  0  0  0  0  0  0  0  0
  -24.2070  -36.8320   23.0720 C   0  0  0  0  0  1  0  0  0  0  0  0
  -25.4470  -36.4050   23.8750 C   0  0  0  0  0  3  0  0  0  0  0  0
  -27.6070  -37.2640   24.6850 C   0  0  0  0  0  1  0  0  0  0  0  0
  -26.4850  -37.4540   23.7690 N   0  0  0  0  0  0  0  0  0  0  0  0
  -26.0870  -38.3720   23.9530 H   0  0  0  0  0  0  0  0  0  0  0  0
  -26.4210  -31.7890   25.0960 C   0  0  1  0  0  0  0  0  0  0  0  0
  -25.3340  -31.5620   26.1770 C   0  0  0  0  0  1  0  0  0  0  0  0
  -26.9920  -30.4030   24.7170 C   0  0  0  0  0  1  0  0  0  0  0  0
  -27.5870  -32.5810   25.7360 C   0  0  0  0  0  1  0  0  0  0  0  0
  1  4  1  0
  2  6  1  0
  2  4  1  0
  3 10  1  0
  3  5  1  0
  3  2  1  0
  5  1  1  0
  6  9  1  1
  7  6  1  0
  8  6  1  0
 10 20  1  0
 11 20  1  0
 12 17  1  0
 13 14  1  0
 13 12  1  0
 15 14  1  0
 15 24  1  0
 15 16  1  0
 17 11  1  0
 17 16  1  0
 18 11  2  0
 20 19  1  0
 21 22  2  0
 22 41  1  0
 23 22  1  0
 23 26  1  0
 24 25  1  0
 24 21  1  0
 25 23  2  0
 26 27  1  0
 27 28  2  0
 29 32  1  0
 29 28  1  0
 30 29  2  0
 31 30  1  0
 31 26  2  0
 32 33  1  0
 33 34  1  0
 34 35  2  0
 36 35  1  0
 36 40  1  0
 37 36  2  0
 38 33  2  0
 38 37  1  0
 39 38  1  0
 41 42  1  0
 42 45  1  0
 42 44  1  0
 43 41  2  0
 46 21  1  0
 46 47  1  0
 48 46  1  0
 49 50  1  0
 49  5  1  0
 51 52  1  0
 51 50  2  0
 53 64  2  0
 54 52  1  0
 54 59  1  0
 55 63  1  0
 55 65  1  0
 56 62  1  0
 56 58  1  0
 57 63  1  0
 58 57  1  0
 59 58  2  0
 60 54  2  0
 61 60  1  0
 61 56  2  0
 62 55  1  0
 63 53  1  0
 65 67  2  0
 66 65  1  0
 68 66  1  0
 69 78  2  0
 69 74  1  0
 70 66  1  0
 70 74  1  0
 71 70  1  0
 72 73  1  0
 72 71  1  0
 73 69  1  0
 74 75  2  0
 75 76  1  0
 77 76  2  0
 78 77  1  0
 79 53  1  0
 79 80  1  0
 79 89  1  0
 80 83  1  0
 81 85  1  0
 81 80  1  0
 82 81  2  0
 85 84  1  0
 87 85  1  0
 87 88  1  0
 87 86  1  0
 89 92  1  1
 89 90  1  0
 91 89  1  0
M  ISO  4  11 100  20 100  51 101  52 101
M  END
>  <TORSDO>  (24) 
F 21

>  <SCORE>  (24) 
-14.260

>  <name>  (24) 
23

>  <ligand_id>  (24) 
23

>  <original_smiles>  (24) 
[H]c1c([H])c([H])c2c(c1[H])C([H])([H])C([H])([H])C([H])([H])C2([H])N([H])C(=O)C1([H])N(C(=O)C([H])(N([H])C(=O)C([H])(N([H])C([H])([H])[H])C([H])([H])[H])C(C([H])([H])[H])(C([H])([H])[H])C([H])([H])[H])C([H])([H])c2c([H])c(OC([H])([H])C([H])([H])C([H])([H])n3c([H])nc(C(F)(F)F)c3C([H])([H])N(C(=O)N3C([H])([H])C([H])([H])C([H])([H])C([H])(n4nc(-c5c([H])c([H])c(Oc6c([H])c([H])c(F)c([H])c6F)c([H])c5[H])c(C(=O)N([H])[H])c4N([H])[H])C3([H])[H])C([H])([H])[H])c([H])c([H])c2C1([H])[H]

>  <smiles>  (24) 
[H]c1c([H])c([H])c2c(c1[H])C([H])([H])C([H])([H])C([H])([H])C2([H])N([H])C(=O)C1([H])N(C(=O)C([H])(N([H])C(=O)C([H])(N([H])C([H])([H])[H])C([H])([H])[H])C(C([H])([H])[H])(C([H])([H])[H])C([H])([H])[H])C([H])([H])c2c([H])c(OC([H])([H])C([H])([H])C([H])([H])n3c([H])nc(C(F)(F)F)c3C([H])([H])N(C(=O)N3C([H])([H])C([H])([H])C([H])([H])C([H])(n4nc(-c5c([H])c([H])c(Oc6c([H])c([H])c(F)c([H])c6F)c([H])c5[H])c(C(=O)N([H])[H])c4N([H])[H])C3([H])[H])C([H])([H])[H])c([H])c([H])c2C1([H])[H]

$$$$
24:0:0
     RDKit          3D

 96104  0  0  1  0  0  0  0  0999 V2000
  -30.3490  -21.7940   22.9000 C   0  0  0  0  0  1  0  0  0  0  0  0
  -29.5370  -21.5920   21.6090 C   0  0  1  0  0  0  0  0  0  0  0  0
  -28.4050  -20.9840   21.9840 F   0  0  0  0  0  0  0  0  0  0  0  0
  -30.0140  -23.6760   20.1180 C   0  0  0  0  0  3  0  0  0  0  0  0
  -27.8680  -24.9080   21.2050 C   0  0  0  0  0  3  0  0  0  0  0  0
  -29.1750  -22.9840   21.0290 C   0  0  0  0  0  0  0  0  0  0  0  0
  -28.7240  -25.6060   20.3120 C   0  0  0  0  0  0  0  0  0  0  0  0
  -28.0900  -23.6150   21.5640 N   0  0  0  0  0  0  0  0  0  0  0  0
  -29.7970  -24.9740   19.7630 N   0  0  0  0  0  0  0  0  0  0  0  0
  -28.6300  -26.9560   20.0030 O   0  0  0  0  0  0  0  0  0  0  0  0
  -24.6820  -31.9060   23.3280 C   0  0  0  0  0  0  0  0  0  0  0  0
  -27.4350  -27.6470   20.0810 C   0  0  0  0  0  0  0  0  0  0  0  0
  -23.5150  -30.5610   21.6100 C   0  0  0  0  0  3  0  0  0  0  0  0
  -25.0110  -29.1110   20.1360 C   0  0  0  0  0  0  0  0  0  0  0  0
  -26.0410  -30.9680   21.4580 C   0  0  0  0  0  2  0  0  0  0  0  0
  -26.1550  -29.6300   20.7530 C   0  0  0  0  0  0  0  0  0  0  0  0
  -27.3710  -28.9090   20.7160 C   0  0  0  0  0  3  0  0  0  0  0  0
  -26.2740  -27.1420   19.4580 C   0  0  0  0  0  3  0  0  0  0  0  0
  -25.0650  -27.8670   19.4830 C   0  0  0  0  0  3  0  0  0  0  0  0
  -23.7490  -29.9450   20.2040 C   0  0  0  0  0  2  0  0  0  0  0  0
  -24.7630  -31.1610   22.1880 N   0  0  0  0  0  0  0  0  0  0  0  0
  -23.5910  -32.1300   23.8720 O   0  0  0  0  0  0  0  0  0  0  0  0
  -22.8790  -29.4810   22.5180 C   0  0  0  0  0  0  0  0  0  0  0  0
  -21.5560  -29.2860   22.3780 N   0  0  0  0  0  0  0  0  0  0  0  0
  -23.5720  -28.8240   23.2980 O   0  0  0  0  0  0  0  0  0  0  0  0
  -21.0610  -29.8710   21.7200 H   0  0  0  0  0  0  0  0  0  0  0  0
  -18.1960  -28.0400   22.8280 C   0  0  0  0  0  0  0  0  0  0  0  0
  -20.7520  -28.2980   23.0980 C   0  0  0  0  0  3  0  0  0  0  0  0
  -20.8630  -26.9060   22.4370 C   0  0  0  0  0  2  0  0  0  0  0  0
  -19.7550  -26.6340   21.4150 C   0  0  0  0  0  2  0  0  0  0  0  0
  -18.3760  -26.7330   22.0720 C   0  0  0  0  0  2  0  0  0  0  0  0
  -19.3120  -28.7820   23.2950 C   0  0  0  0  0  0  0  0  0  0  0  0
  -19.0880  -30.0100   23.9560 C   0  0  0  0  0  3  0  0  0  0  0  0
  -17.7820  -30.4910   24.1620 C   0  0  0  0  0  3  0  0  0  0  0  0
  -16.6810  -29.7420   23.7140 C   0  0  0  0  0  3  0  0  0  0  0  0
  -16.8870  -28.5180   23.0510 C   0  0  0  0  0  3  0  0  0  0  0  0
  -25.9510  -32.5310   23.9870 C   0  0  0  0  0  3  0  0  0  0  0  0
  -25.6380  -33.9280   24.3160 N   0  0  0  0  0  0  0  0  0  0  0  0
  -25.9880  -34.9830   23.5690 C   0  0  0  0  0  0  0  0  0  0  0  0
  -26.6810  -34.8840   22.5540 O   0  0  0  0  0  0  0  0  0  0  0  0
  -25.0340  -34.0840   25.1090 H   0  0  0  0  0  0  0  0  0  0  0  0
  -24.2700  -36.7800   23.1790 C   0  0  0  0  0  1  0  0  0  0  0  0
  -25.4890  -36.3700   24.0200 C   0  0  0  0  0  3  0  0  0  0  0  0
  -27.6030  -37.2470   24.9120 C   0  0  0  0  0  1  0  0  0  0  0  0
  -26.5250  -37.4220   23.9410 N   0  0  0  0  0  0  0  0  0  0  0  0
  -26.1180  -38.3430   24.0840 H   0  0  0  0  0  0  0  0  0  0  0  0
  -26.4360  -31.7520   25.2720 C   0  0  1  0  0  0  0  0  0  0  0  0
  -25.3080  -31.4710   26.2910 C   0  0  0  0  0  1  0  0  0  0  0  0
  -27.0750  -30.3970   24.8890 C   0  0  0  0  0  1  0  0  0  0  0  0
  -27.5390  -32.5670   25.9920 C   0  0  0  0  0  1  0  0  0  0  0  0
  -30.2240  -20.5800   20.6260 C   0  0  0  0  0  2  0  0  0  0  0  0
  -30.5710  -19.2980   21.3060 N   0  0  0  0  0  4  0  0  0  0  0  0
  -29.9020  -19.1970   22.0540 H   0  0  0  0  0  0  0  0  0  0  0  0
  -31.4850  -19.3870   21.7200 H   0  0  0  0  0  0  0  0  0  0  0  0
  -30.5460  -18.0430   20.5000 C   0  0  0  0  0  2  0  0  0  0  0  0
  -32.8110  -17.0280   21.1130 C   0  0  0  0  0  1  0  0  0  0  0  0
  -30.8640  -16.8180   22.7170 C   0  0  0  0  0  1  0  0  0  0  0  0
  -31.2780  -16.8610   21.2270 C   0  0  1  0  0  0  0  0  0  0  0  0
  -31.4030  -14.6480   19.8700 C   0  0  0  0  0  0  0  0  0  0  0  0
  -30.9640  -12.4830   18.7490 C   0  0  0  0  0  2  0  0  0  0  0  0
  -29.9410  -12.6680   17.6090 C   0  0  0  0  0  2  0  0  0  0  0  0
  -28.4910  -12.6160   18.1360 C   0  0  0  0  0  2  0  0  0  0  0  0
  -28.2790  -13.5000   19.3950 C   0  0  0  0  0  3  0  0  0  0  0  0
  -29.3890  -13.2350   20.4330 C   0  0  0  0  0  2  0  0  0  0  0  0
  -30.6860  -13.4940   19.7790 N   0  0  0  0  0  0  0  0  0  0  0  0
  -32.4320  -14.8600   19.2230 O   0  0  0  0  0  0  0  0  0  0  0  0
  -30.8600  -15.5430   20.7130 N   0  0  0  0  0  0  0  0  0  0  0  0
  -30.0310  -15.1740   21.1550 H   0  0  0  0  0  0  0  0  0  0  0  0
  -25.9940  -14.2540   20.2980 C   0  0  0  0  0  0  0  0  0  0  0  0
  -24.9000  -13.5480   20.7210 C   0  0  0  0  0  0  0  0  0  0  0  0
  -25.2550  -12.1680   20.6140 C   0  0  0  0  0  0  0  0  0  0  0  0
  -26.9500  -13.3090   19.9650 N   0  0  0  0  0  0  0  0  0  0  0  0
  -26.5160  -12.0490   20.2130 N   0  0  0  0  0  0  0  0  0  0  0  0
  -24.4560  -10.9550   20.8150 C   0  0  0  0  0  0  0  0  0  0  0  0
  -24.8340   -9.9760   21.7600 C   0  0  0  0  0  3  0  0  0  0  0  0
  -24.0410   -8.8250   21.9530 C   0  0  0  0  0  3  0  0  0  0  0  0
  -22.8550   -8.6470   21.2030 C   0  0  0  0  0  0  0  0  0  0  0  0
  -22.4950   -9.6150   20.2490 C   0  0  0  0  0  3  0  0  0  0  0  0
  -23.2870  -10.7580   20.0550 C   0  0  0  0  0  3  0  0  0  0  0  0
  -22.0370   -7.5470   21.3030 O   0  0  0  0  0  0  0  0  0  0  0  0
  -21.8700   -6.8810   22.4900 C   0  0  0  0  0  0  0  0  0  0  0  0
  -21.4020   -7.5310   23.6540 C   0  0  0  0  0  3  0  0  0  0  0  0
  -21.1790   -6.7910   24.8320 C   0  0  0  0  0  3  0  0  0  0  0  0
  -21.4160   -5.4030   24.8480 C   0  0  0  0  0  0  0  0  0  0  0  0
  -21.8750   -4.7530   23.6880 C   0  0  0  0  0  3  0  0  0  0  0  0
  -22.0990   -5.4900   22.5120 C   0  0  0  0  0  0  0  0  0  0  0  0
  -22.5200   -4.8550   21.3920 F   0  0  0  0  0  0  0  0  0  0  0  0
  -21.1940   -4.6890   25.9760 F   0  0  0  0  0  0  0  0  0  0  0  0
  -23.5670  -14.1200   21.1020 C   0  0  0  0  0  0  0  0  0  0  0  0
  -22.8520  -13.4650   22.0080 N   0  0  0  0  0  0  0  0  0  0  0  0
  -23.1680  -15.1830   20.6280 O   0  0  0  0  0  0  0  0  0  0  0  0
  -23.1890  -12.6120   22.4270 H   0  0  0  0  0  0  0  0  0  0  0  0
  -21.9570  -13.8390   22.2940 H   0  0  0  0  0  0  0  0  0  0  0  0
  -26.2440  -15.6140   20.1450 N   0  0  0  0  0  0  0  0  0  0  0  0
  -25.5170  -16.3020   20.3050 H   0  0  0  0  0  0  0  0  0  0  0  0
  -27.0760  -16.0000   19.7130 H   0  0  0  0  0  0  0  0  0  0  0  0
  2  3  1  0
  2  1  1  1
  4  6  2  0
  5  8  2  0
  6  8  1  0
  6  2  1  0
  7  5  1  0
  9  4  1  0
  9  7  2  0
 10 12  1  0
 10  7  1  0
 11 22  2  0
 12 17  1  0
 13 21  1  0
 13 23  1  0
 14 20  1  0
 14 16  1  0
 15 21  1  0
 16 15  1  0
 17 16  2  0
 18 19  1  0
 18 12  2  0
 19 14  2  0
 20 13  1  0
 21 11  1  0
 23 25  2  0
 24 23  1  0
 26 24  1  0
 27 36  2  0
 27 32  1  0
 28 24  1  0
 28 32  1  0
 29 28  1  0
 30 31  1  0
 30 29  1  0
 31 27  1  0
 32 33  2  0
 33 34  1  0
 35 34  2  0
 36 35  1  0
 37 11  1  0
 37 38  1  0
 37 47  1  0
 38 41  1  0
 39 43  1  0
 39 38  1  0
 40 39  2  0
 43 42  1  0
 45 43  1  0
 45 46  1  0
 45 44  1  0
 47 50  1  1
 47 48  1  0
 49 47  1  0
 51 52  1  0
 51  2  1  0
 52 54  1  0
 52 53  1  0
 55 58  1  0
 55 52  1  0
 58 56  1  1
 58 57  1  0
 59 67  1  0
 60 65  1  0
 61 62  1  0
 61 60  1  0
 63 62  1  0
 63 72  1  0
 63 64  1  0
 65 59  1  0
 65 64  1  0
 66 59  2  0
 67 68  1  0
 67 58  1  0
 69 70  2  0
 70 89  1  0
 71 70  1  0
 71 74  1  0
 72 73  1  0
 72 69  1  0
 73 71  2  0
 74 75  1  0
 75 76  2  0
 77 80  1  0
 77 76  1  0
 78 77  2  0
 79 78  1  0
 79 74  2  0
 80 81  1  0
 81 86  2  0
 81 82  1  0
 82 83  2  0
 83 84  1  0
 84 88  1  0
 85 84  2  0
 86 85  1  0
 87 86  1  0
 89 90  1  0
 90 93  1  0
 90 92  1  0
 91 89  2  0
 94 69  1  0
 94 95  1  0
 96 94  1  0
M  ISO  4   7 101  10 101  59 100  67 100
M  END
>  <TORSDO>  (25) 
F 21

>  <SCORE>  (25) 
-11.689

>  <name>  (25) 
24

>  <ligand_id>  (25) 
24

>  <original_smiles>  (25) 
[H]c1nc(C(F)(C([H])([H])[H])C([H])([H])[N+]([H])([H])C([H])([H])C(N([H])C(=O)N2C([H])([H])C([H])([H])C([H])([H])C([H])(n3nc(-c4c([H])c([H])c(Oc5c([H])c([H])c(F)c([H])c5F)c([H])c4[H])c(C(=O)N([H])[H])c3N([H])[H])C2([H])[H])(C([H])([H])[H])C([H])([H])[H])c([H])nc1Oc1c([H])c([H])c2c(c1[H])C([H])([H])N(C(=O)C([H])(N([H])C(=O)C([H])(N([H])C([H])([H])[H])C([H])([H])[H])C(C([H])([H])[H])(C([H])([H])[H])C([H])([H])[H])C([H])(C(=O)N([H])C1([H])c3c([H])c([H])c([H])c([H])c3C([H])([H])C([H])([H])C1([H])[H])C2([H])[H]

>  <smiles>  (25) 
[H]c1nc(C(F)(C([H])([H])[H])C([H])([H])[N+]([H])([H])C([H])([H])C(N([H])C(=O)N2C([H])([H])C([H])([H])C([H])([H])C([H])(n3nc(-c4c([H])c([H])c(Oc5c([H])c([H])c(F)c([H])c5F)c([H])c4[H])c(C(=O)N([H])[H])c3N([H])[H])C2([H])[H])(C([H])([H])[H])C([H])([H])[H])c([H])nc1Oc1c([H])c([H])c2c(c1[H])C([H])([H])N(C(=O)C([H])(N([H])C(=O)C([H])(N([H])C([H])([H])[H])C([H])([H])[H])C(C([H])([H])[H])(C([H])([H])[H])C([H])([H])[H])C([H])(C(=O)N([H])C1([H])c3c([H])c([H])c([H])c([H])c3C([H])([H])C([H])([H])C1([H])[H])C2([H])[H]

$$$$
25:0:0
     RDKit          3D

 90 98  0  0  1  0  0  0  0  0999 V2000
  -29.0750  -22.3940   18.4370 C   0  0  0  0  0  3  0  0  0  0  0  0
  -29.4020  -21.1750   17.7870 C   0  0  0  0  0  0  0  0  0  0  0  0
  -28.9670  -22.4870   19.8350 C   0  0  0  0  0  0  0  0  0  0  0  0
  -29.5850  -19.8840   19.7310 C   0  0  0  0  0  0  0  0  0  0  0  0
  -29.5160  -21.1330   16.2770 C   0  0  0  0  0  1  0  0  0  0  0  0
  -29.6330  -19.9860   18.4060 N   0  0  0  0  0  0  0  0  0  0  0  0
  -29.2650  -21.1450   20.4230 N   0  0  0  0  0  0  0  0  0  0  0  0
  -31.7340  -18.5420   20.3890 C   0  0  0  0  0  1  0  0  0  0  0  0
  -29.6840  -18.2850   21.7780 C   0  0  0  0  0  1  0  0  0  0  0  0
  -30.2110  -18.3220   20.3320 C   0  0  1  0  0  0  0  0  0  0  0  0
  -30.7650  -15.3630   19.8040 C   0  0  0  0  0  0  0  0  0  0  0  0
  -30.6720  -12.8970   18.9110 C   0  0  0  0  0  2  0  0  0  0  0  0
  -29.6740  -12.6270   17.7580 C   0  0  0  0  0  2  0  0  0  0  0  0
  -28.2590  -12.3600   18.3070 C   0  0  0  0  0  2  0  0  0  0  0  0
  -27.8800  -13.3450   19.4400 C   0  0  0  0  0  3  0  0  0  0  0  0
  -29.0030  -13.5360   20.4790 C   0  0  0  0  0  2  0  0  0  0  0  0
  -30.1650  -14.0620   19.7360 N   0  0  0  0  0  0  0  0  0  0  0  0
  -31.9930  -15.2880   19.6260 O   0  0  0  0  0  0  0  0  0  0  0  0
  -30.0380  -16.6840   19.8690 N   0  0  0  0  0  0  0  0  0  0  0  0
  -29.0550  -16.5080   19.7340 H   0  0  0  0  0  0  0  0  0  0  0  0
  -25.5950  -13.9400   20.3860 C   0  0  0  0  0  0  0  0  0  0  0  0
  -24.5370  -13.1830   20.8040 C   0  0  0  0  0  0  0  0  0  0  0  0
  -24.9620  -11.8220   20.7050 C   0  0  0  0  0  0  0  0  0  0  0  0
  -26.5890  -13.0430   20.0430 N   0  0  0  0  0  0  0  0  0  0  0  0
  -26.2260  -11.7610   20.3030 N   0  0  0  0  0  0  0  0  0  0  0  0
  -24.2100  -10.5770   20.9120 C   0  0  0  0  0  0  0  0  0  0  0  0
  -24.6450   -9.5920   21.8270 C   0  0  0  0  0  3  0  0  0  0  0  0
  -23.8930   -8.4130   22.0210 C   0  0  0  0  0  3  0  0  0  0  0  0
  -22.6900   -8.2110   21.3040 C   0  0  0  0  0  0  0  0  0  0  0  0
  -22.2730   -9.1840   20.3780 C   0  0  0  0  0  3  0  0  0  0  0  0
  -23.0260  -10.3550   20.1820 C   0  0  0  0  0  3  0  0  0  0  0  0
  -21.9080   -7.0860   21.4100 O   0  0  0  0  0  0  0  0  0  0  0  0
  -21.8430   -6.3640   22.5730 C   0  0  0  0  0  0  0  0  0  0  0  0
  -21.4120   -6.9420   23.7860 C   0  0  0  0  0  3  0  0  0  0  0  0
  -21.2920   -6.1450   24.9420 C   0  0  0  0  0  3  0  0  0  0  0  0
  -21.5920   -4.7710   24.8870 C   0  0  0  0  0  0  0  0  0  0  0  0
  -22.0130   -4.1920   23.6780 C   0  0  0  0  0  3  0  0  0  0  0  0
  -22.1350   -4.9860   22.5230 C   0  0  0  0  0  0  0  0  0  0  0  0
  -22.5250   -4.4180   21.3570 F   0  0  0  0  0  0  0  0  0  0  0  0
  -21.4700   -4.0050   25.9950 F   0  0  0  0  0  0  0  0  0  0  0  0
  -23.1770  -13.6930   21.1770 C   0  0  0  0  0  0  0  0  0  0  0  0
  -22.4920  -13.0010   22.0800 N   0  0  0  0  0  0  0  0  0  0  0  0
  -22.7380  -14.7390   20.7050 O   0  0  0  0  0  0  0  0  0  0  0  0
  -22.8690  -12.1570   22.4860 H   0  0  0  0  0  0  0  0  0  0  0  0
  -21.5820  -13.3250   22.3720 H   0  0  0  0  0  0  0  0  0  0  0  0
  -25.7830  -15.3100   20.2320 N   0  0  0  0  0  0  0  0  0  0  0  0
  -25.0360  -15.9750   20.4010 H   0  0  0  0  0  0  0  0  0  0  0  0
  -26.6010  -15.7330   19.8180 H   0  0  0  0  0  0  0  0  0  0  0  0
  -28.2880  -24.0020   20.5050 C   0  0  0  0  0  2  0  0  0  0  0  0
  -28.5370  -25.6610   20.3100 O   0  0  0  0  0  0  0  0  0  0  0  0
  -24.7660  -31.7010   23.1490 C   0  0  0  0  0  0  0  0  0  0  0  0
  -27.5170  -26.7800   20.2780 C   0  0  0  0  0  0  0  0  0  0  0  0
  -23.6670  -30.2730   21.4780 C   0  0  0  0  0  3  0  0  0  0  0  0
  -25.1990  -28.6710   20.1330 C   0  0  0  0  0  0  0  0  0  0  0  0
  -26.2360  -30.5050   21.4390 C   0  0  0  0  0  2  0  0  0  0  0  0
  -26.3580  -29.0830   20.8000 C   0  0  0  0  0  0  0  0  0  0  0  0
  -27.5120  -28.1640   20.8420 C   0  0  0  0  0  3  0  0  0  0  0  0
  -26.3210  -26.5400   19.5650 C   0  0  0  0  0  3  0  0  0  0  0  0
  -25.2110  -27.4220   19.4930 C   0  0  0  0  0  3  0  0  0  0  0  0
  -23.9670  -29.5810   20.1200 C   0  0  0  0  0  2  0  0  0  0  0  0
  -24.9100  -30.8550   22.0760 N   0  0  0  0  0  0  0  0  0  0  0  0
  -23.6490  -31.9770   23.6170 O   0  0  0  0  0  0  0  0  0  0  0  0
  -22.9470  -29.2740   22.4230 C   0  0  0  0  0  0  0  0  0  0  0  0
  -21.6200  -29.1120   22.2690 N   0  0  0  0  0  0  0  0  0  0  0  0
  -23.5930  -28.6450   23.2630 O   0  0  0  0  0  0  0  0  0  0  0  0
  -21.1500  -29.6700   21.5700 H   0  0  0  0  0  0  0  0  0  0  0  0
  -18.2250  -27.9060   22.7160 C   0  0  0  0  0  0  0  0  0  0  0  0
  -20.7830  -28.1680   23.0180 C   0  0  0  0  0  3  0  0  0  0  0  0
  -20.8900  -26.7410   22.4320 C   0  0  0  0  0  2  0  0  0  0  0  0
  -19.8020  -26.4290   21.3980 C   0  0  0  0  0  2  0  0  0  0  0  0
  -18.4110  -26.5660   22.0240 C   0  0  0  0  0  2  0  0  0  0  0  0
  -19.3370  -28.6650   23.1680 C   0  0  0  0  0  0  0  0  0  0  0  0
  -19.1050  -29.9160   23.7780 C   0  0  0  0  0  3  0  0  0  0  0  0
  -17.7970  -30.4100   23.9390 C   0  0  0  0  0  3  0  0  0  0  0  0
  -16.7000  -29.6500   23.4980 C   0  0  0  0  0  3  0  0  0  0  0  0
  -16.9160  -28.3990   22.8930 C   0  0  0  0  0  3  0  0  0  0  0  0
  -25.9940  -32.3750   23.8290 C   0  0  0  0  0  3  0  0  0  0  0  0
  -25.6300  -33.7670   24.1530 N   0  0  0  0  0  0  0  0  0  0  0  0
  -25.9530  -34.8380   23.4160 C   0  0  0  0  0  0  0  0  0  0  0  0
  -26.6500  -34.7610   22.4000 O   0  0  0  0  0  0  0  0  0  0  0  0
  -25.0090  -33.8980   24.9380 H   0  0  0  0  0  0  0  0  0  0  0  0
  -24.1830  -36.5940   23.0480 C   0  0  0  0  0  1  0  0  0  0  0  0
  -25.4250  -36.2140   23.8710 C   0  0  0  0  0  3  0  0  0  0  0  0
  -27.5200  -37.1630   24.7390 C   0  0  0  0  0  1  0  0  0  0  0  0
  -26.4320  -37.2950   23.7730 N   0  0  0  0  0  0  0  0  0  0  0  0
  -25.9970  -38.2040   23.9070 H   0  0  0  0  0  0  0  0  0  0  0  0
  -26.4670  -31.6240   25.1370 C   0  0  1  0  0  0  0  0  0  0  0  0
  -25.3310  -31.3690   26.1550 C   0  0  0  0  0  1  0  0  0  0  0  0
  -27.0970  -30.2560   24.7920 C   0  0  0  0  0  1  0  0  0  0  0  0
  -27.5690  -32.4480   25.8430 C   0  0  0  0  0  1  0  0  0  0  0  0
  1  3  1  0
  2  6  1  0
  2  1  2  0
  3  7  2  0
  3 49  1  0
  4 10  1  0
  4  7  1  0
  5  2  1  0
  6  4  2  0
 10  8  1  1
 10  9  1  0
 11 19  1  0
 12 17  1  0
 13 14  1  0
 13 12  1  0
 15 14  1  0
 15 24  1  0
 15 16  1  0
 17 11  1  0
 17 16  1  0
 18 11  2  0
 19 10  1  0
 20 19  1  0
 21 22  2  0
 22 41  1  0
 23 22  1  0
 23 26  1  0
 24 25  1  0
 24 21  1  0
 25 23  2  0
 26 27  1  0
 27 28  2  0
 29 32  1  0
 29 28  1  0
 30 29  2  0
 31 30  1  0
 31 26  2  0
 32 33  1  0
 33 34  1  0
 34 35  2  0
 36 35  1  0
 36 40  1  0
 37 36  2  0
 38 33  2  0
 38 37  1  0
 39 38  1  0
 41 42  1  0
 42 45  1  0
 42 44  1  0
 43 41  2  0
 46 21  1  0
 46 47  1  0
 48 46  1  0
 50 49  1  0
 51 62  2  0
 52 50  1  0
 52 57  1  0
 53 61  1  0
 53 63  1  0
 54 56  1  0
 55 61  1  0
 56 57  2  0
 56 55  1  0
 58 52  2  0
 59 58  1  0
 59 54  2  0
 60 54  1  0
 60 53  1  0
 61 51  1  0
 63 65  2  0
 64 63  1  0
 66 64  1  0
 67 76  2  0
 67 72  1  0
 68 64  1  0
 68 72  1  0
 69 68  1  0
 70 71  1  0
 70 69  1  0
 71 67  1  0
 72 73  2  0
 73 74  1  0
 75 74  2  0
 76 75  1  0
 77 51  1  0
 77 78  1  0
 77 87  1  0
 78 81  1  0
 79 83  1  0
 79 78  1  0
 80 79  2  0
 83 82  1  0
 85 83  1  0
 85 86  1  0
 85 84  1  0
 87 90  1  1
 87 88  1  0
 89 87  1  0
M  ISO  4  11 100  19 100  49 101  50 101
M  END
>  <TORSDO>  (26) 
F 18

>  <SCORE>  (26) 
-15.672

>  <name>  (26) 
25

>  <ligand_id>  (26) 
25

>  <original_smiles>  (26) 
[H]c1c(C([H])([H])[H])nc(C(N([H])C(=O)N2C([H])([H])C([H])([H])C([H])([H])C([H])(n3nc(-c4c([H])c([H])c(Oc5c([H])c([H])c(F)c([H])c5F)c([H])c4[H])c(C(=O)N([H])[H])c3N([H])[H])C2([H])[H])(C([H])([H])[H])C([H])([H])[H])nc1C([H])([H])Oc1c([H])c([H])c2c(c1[H])C([H])([H])N(C(=O)C([H])(N([H])C(=O)C([H])(N([H])C([H])([H])[H])C([H])([H])[H])C(C([H])([H])[H])(C([H])([H])[H])C([H])([H])[H])C([H])(C(=O)N([H])C1([H])c3c([H])c([H])c([H])c([H])c3C([H])([H])C([H])([H])C1([H])[H])C2([H])[H]

>  <smiles>  (26) 
[H]c1c(C([H])([H])[H])nc(C(N([H])C(=O)N2C([H])([H])C([H])([H])C([H])([H])C([H])(n3nc(-c4c([H])c([H])c(Oc5c([H])c([H])c(F)c([H])c5F)c([H])c4[H])c(C(=O)N([H])[H])c3N([H])[H])C2([H])[H])(C([H])([H])[H])C([H])([H])[H])nc1C([H])([H])Oc1c([H])c([H])c2c(c1[H])C([H])([H])N(C(=O)C([H])(N([H])C(=O)C([H])(N([H])C([H])([H])[H])C([H])([H])[H])C(C([H])([H])[H])(C([H])([H])[H])C([H])([H])[H])C([H])(C(=O)N([H])C1([H])c3c([H])c([H])c([H])c([H])c3C([H])([H])C([H])([H])C1([H])[H])C2([H])[H]

$$$$
26:0:0
     RDKit          3D

 86 94  0  0  1  0  0  0  0  0999 V2000
  -28.8800  -21.4020   19.5250 C   0  0  0  0  0  3  0  0  0  0  0  0
  -28.6160  -22.6310   20.2720 C   0  0  0  0  0  0  0  0  0  0  0  0
  -28.8490  -22.0430   21.5500 N   0  0  0  0  0  0  0  0  0  0  0  0
  -29.2290  -20.7350   21.5520 N   0  0  0  0  0  0  0  0  0  0  0  0
  -29.2410  -20.1660   20.2950 N   0  0  0  0  0  0  0  0  0  0  0  0
  -29.7000  -18.4650   18.4050 C   0  0  0  0  0  1  0  0  0  0  0  0
  -29.8490  -18.6150   19.9260 C   0  0  0  0  0  3  0  0  0  0  0  0
  -29.6300  -16.9320   20.5740 C   0  0  0  0  0  2  0  0  0  0  0  0
  -30.4130  -15.3670   20.2510 C   0  0  0  0  0  0  0  0  0  0  0  0
  -30.4110  -12.9050   19.3750 C   0  0  0  0  0  2  0  0  0  0  0  0
  -29.4940  -12.7180   18.1380 C   0  0  0  0  0  2  0  0  0  0  0  0
  -28.0420  -12.4420   18.5690 C   0  0  0  0  0  2  0  0  0  0  0  0
  -27.5920  -13.3920   19.7060 C   0  0  0  0  0  3  0  0  0  0  0  0
  -28.6390  -13.5300   20.8310 C   0  0  0  0  0  2  0  0  0  0  0  0
  -29.8790  -14.0390   20.2220 N   0  0  0  0  0  0  0  0  0  0  0  0
  -31.6150  -15.3600   19.9440 O   0  0  0  0  0  0  0  0  0  0  0  0
  -25.2230  -13.9440   20.4650 C   0  0  0  0  0  0  0  0  0  0  0  0
  -24.1610  -13.1660   20.8340 C   0  0  0  0  0  0  0  0  0  0  0  0
  -24.6290  -11.8160   20.8010 C   0  0  0  0  0  0  0  0  0  0  0  0
  -26.2650  -13.0710   20.2150 N   0  0  0  0  0  0  0  0  0  0  0  0
  -25.9210  -11.7840   20.4860 N   0  0  0  0  0  0  0  0  0  0  0  0
  -23.9010  -10.5540   20.9910 C   0  0  0  0  0  0  0  0  0  0  0  0
  -24.3330   -9.5820   21.9200 C   0  0  0  0  0  3  0  0  0  0  0  0
  -23.6030   -8.3870   22.1010 C   0  0  0  0  0  3  0  0  0  0  0  0
  -22.4250   -8.1550   21.3510 C   0  0  0  0  0  0  0  0  0  0  0  0
  -22.0110   -9.1150   20.4110 C   0  0  0  0  0  3  0  0  0  0  0  0
  -22.7420  -10.3010   20.2300 C   0  0  0  0  0  3  0  0  0  0  0  0
  -21.6660   -7.0130   21.4400 O   0  0  0  0  0  0  0  0  0  0  0  0
  -21.6230   -6.2640   22.5880 C   0  0  0  0  0  0  0  0  0  0  0  0
  -21.2080   -6.8140   23.8220 C   0  0  0  0  0  3  0  0  0  0  0  0
  -21.1130   -5.9940   24.9620 C   0  0  0  0  0  3  0  0  0  0  0  0
  -21.4200   -4.6230   24.8720 C   0  0  0  0  0  0  0  0  0  0  0  0
  -21.8270   -4.0720   23.6440 C   0  0  0  0  0  3  0  0  0  0  0  0
  -21.9250   -4.8900   22.5060 C   0  0  0  0  0  0  0  0  0  0  0  0
  -22.2970   -4.3500   21.3210 F   0  0  0  0  0  0  0  0  0  0  0  0
  -21.3210   -3.8310   25.9660 F   0  0  0  0  0  0  0  0  0  0  0  0
  -22.7640  -13.6430   21.1020 C   0  0  0  0  0  0  0  0  0  0  0  0
  -22.0340  -12.9490   21.9670 N   0  0  0  0  0  0  0  0  0  0  0  0
  -22.3290  -14.6680   20.5790 O   0  0  0  0  0  0  0  0  0  0  0  0
  -22.4000  -12.1210   22.4140 H   0  0  0  0  0  0  0  0  0  0  0  0
  -21.0950  -13.2510   22.1880 H   0  0  0  0  0  0  0  0  0  0  0  0
  -25.3850  -15.3160   20.2910 N   0  0  0  0  0  0  0  0  0  0  0  0
  -24.6190  -15.9700   20.4120 H   0  0  0  0  0  0  0  0  0  0  0  0
  -26.2350  -15.7560   19.9650 H   0  0  0  0  0  0  0  0  0  0  0  0
  -27.8790  -24.2150   19.9380 C   0  0  0  0  0  2  0  0  0  0  0  0
  -28.1660  -25.8130   20.2870 O   0  0  0  0  0  0  0  0  0  0  0  0
  -24.6380  -31.8600   23.1960 C   0  0  0  0  0  0  0  0  0  0  0  0
  -27.1810  -26.9450   20.1920 C   0  0  0  0  0  0  0  0  0  0  0  0
  -23.4390  -30.4550   21.5710 C   0  0  0  0  0  3  0  0  0  0  0  0
  -24.8830  -28.8440   20.1440 C   0  0  0  0  0  0  0  0  0  0  0  0
  -26.0060  -30.6590   21.4160 C   0  0  0  0  0  2  0  0  0  0  0  0
  -26.0740  -29.2430   20.7650 C   0  0  0  0  0  0  0  0  0  0  0  0
  -27.2140  -28.3150   20.7670 C   0  0  0  0  0  3  0  0  0  0  0  0
  -25.9630  -26.7120   19.5100 C   0  0  0  0  0  3  0  0  0  0  0  0
  -24.8550  -27.6000   19.4950 C   0  0  0  0  0  3  0  0  0  0  0  0
  -23.6640  -29.7650   20.1970 C   0  0  0  0  0  2  0  0  0  0  0  0
  -24.7160  -31.0190   22.1130 N   0  0  0  0  0  0  0  0  0  0  0  0
  -23.5500  -32.1530   23.7180 O   0  0  0  0  0  0  0  0  0  0  0  0
  -22.7480  -29.4640   22.5460 C   0  0  0  0  0  0  0  0  0  0  0  0
  -21.4170  -29.3020   22.4320 N   0  0  0  0  0  0  0  0  0  0  0  0
  -23.4180  -28.8430   23.3740 O   0  0  0  0  0  0  0  0  0  0  0  0
  -20.9280  -29.8520   21.7390 H   0  0  0  0  0  0  0  0  0  0  0  0
  -18.0390  -28.0880   22.9670 C   0  0  0  0  0  0  0  0  0  0  0  0
  -20.5990  -28.3680   23.2140 C   0  0  0  0  0  3  0  0  0  0  0  0
  -20.7020  -26.9310   22.6510 C   0  0  0  0  0  2  0  0  0  0  0  0
  -19.5970  -26.5970   21.6450 C   0  0  0  0  0  2  0  0  0  0  0  0
  -18.2180  -26.7370   22.2950 C   0  0  0  0  0  2  0  0  0  0  0  0
  -19.1560  -28.8600   23.3840 C   0  0  0  0  0  0  0  0  0  0  0  0
  -18.9310  -30.1210   23.9780 C   0  0  0  0  0  3  0  0  0  0  0  0
  -17.6230  -30.6120   24.1540 C   0  0  0  0  0  3  0  0  0  0  0  0
  -16.5210  -29.8390   23.7490 C   0  0  0  0  0  3  0  0  0  0  0  0
  -16.7300  -28.5770   23.1630 C   0  0  0  0  0  3  0  0  0  0  0  0
  -25.9100  -32.5090   23.8200 C   0  0  0  0  0  3  0  0  0  0  0  0
  -26.4260  -31.7510   25.1040 C   0  0  1  0  0  0  0  0  0  0  0  0
  -25.3330  -31.5220   26.1750 C   0  0  0  0  0  1  0  0  0  0  0  0
  -27.0100  -30.3680   24.7340 C   0  0  0  0  0  1  0  0  0  0  0  0
  -27.5770  -32.5500   25.7580 C   0  0  0  0  0  1  0  0  0  0  0  0
  -25.5890  -33.9090   24.1540 N   0  0  0  0  0  0  0  0  0  0  0  0
  -25.9110  -34.9720   23.4060 C   0  0  0  0  0  0  0  0  0  0  0  0
  -26.5730  -34.8790   22.3680 O   0  0  0  0  0  0  0  0  0  0  0  0
  -25.0000  -34.0550   24.9610 H   0  0  0  0  0  0  0  0  0  0  0  0
  -24.1750  -36.7690   23.0890 C   0  0  0  0  0  1  0  0  0  0  0  0
  -25.4280  -36.3590   23.8800 C   0  0  0  0  0  3  0  0  0  0  0  0
  -27.5690  -37.2480   24.6900 C   0  0  0  0  0  1  0  0  0  0  0  0
  -26.4560  -37.4160   23.7600 N   0  0  0  0  0  0  0  0  0  0  0  0
  -26.0490  -38.3340   23.9160 H   0  0  0  0  0  0  0  0  0  0  0  0
  1  2  2  0
  1  5  1  0
  2  3  1  0
  3  4  2  0
  5  4  1  0
  7  6  1  0
  7  5  1  0
  7  8  1  0
  9  8  1  0
 10 15  1  0
 11 12  1  0
 11 10  1  0
 13 12  1  0
 13 20  1  0
 13 14  1  0
 15  9  1  0
 15 14  1  0
 16  9  2  0
 17 18  2  0
 18 37  1  0
 19 18  1  0
 19 22  1  0
 20 17  1  0
 20 21  1  0
 21 19  2  0
 22 23  1  0
 23 24  2  0
 25 28  1  0
 25 24  1  0
 26 25  2  0
 27 26  1  0
 27 22  2  0
 28 29  1  0
 29 30  1  0
 30 31  2  0
 32 31  1  0
 32 36  1  0
 33 32  2  0
 34 29  2  0
 34 33  1  0
 35 34  1  0
 37 38  1  0
 38 41  1  0
 38 40  1  0
 39 37  2  0
 42 43  1  0
 42 17  1  0
 44 42  1  0
 45  2  1  0
 45 46  1  0
 47 58  2  0
 48 46  1  0
 48 53  1  0
 49 57  1  0
 49 59  1  0
 50 56  1  0
 50 52  1  0
 51 57  1  0
 52 53  2  0
 52 51  1  0
 54 48  2  0
 55 54  1  0
 55 50  2  0
 56 49  1  0
 57 47  1  0
 59 61  2  0
 60 59  1  0
 62 60  1  0
 63 72  2  0
 63 68  1  0
 64 60  1  0
 64 68  1  0
 65 64  1  0
 66 67  1  0
 66 65  1  0
 67 63  1  0
 68 69  2  0
 69 70  1  0
 71 70  2  0
 72 71  1  0
 73 47  1  0
 73 78  1  0
 73 74  1  0
 74 77  1  1
 74 75  1  0
 76 74  1  0
 78 81  1  0
 79 83  1  0
 79 78  1  0
 80 79  2  0
 83 82  1  0
 85 83  1  0
 85 86  1  0
 85 84  1  0
M  ISO  4   8 100   9 100  45 101  46 101
M  END
>  <TORSDO>  (27) 
F 19

>  <SCORE>  (27) 
-16.635

>  <name>  (27) 
26

>  <ligand_id>  (27) 
26

>  <original_smiles>  (27) 
[H]c1c([H])c([H])c2c(c1[H])C([H])([H])C([H])([H])C([H])([H])C2([H])N([H])C(=O)C1([H])N(C(=O)C([H])(N([H])C(=O)C([H])(N([H])C([H])([H])[H])C([H])([H])[H])C(C([H])([H])[H])(C([H])([H])[H])C([H])([H])[H])C([H])([H])c2c([H])c(OC([H])([H])c3nnn(C([H])(C([H])([H])[H])C([H])([H])C(=O)N4C([H])([H])C([H])([H])C([H])([H])C([H])(n5nc(-c6c([H])c([H])c(Oc7c([H])c([H])c(F)c([H])c7F)c([H])c6[H])c(C(=O)N([H])[H])c5N([H])[H])C4([H])[H])c3[H])c([H])c([H])c2C1([H])[H]

>  <smiles>  (27) 
[H]c1c([H])c([H])c2c(c1[H])C([H])([H])C([H])([H])C([H])([H])C2([H])N([H])C(=O)C1([H])N(C(=O)C([H])(N([H])C(=O)C([H])(N([H])C([H])([H])[H])C([H])([H])[H])C(C([H])([H])[H])(C([H])([H])[H])C([H])([H])[H])C([H])([H])c2c([H])c(OC([H])([H])c3nnn(C([H])(C([H])([H])[H])C([H])([H])C(=O)N4C([H])([H])C([H])([H])C([H])([H])C([H])(n5nc(-c6c([H])c([H])c(Oc7c([H])c([H])c(F)c([H])c7F)c([H])c6[H])c(C(=O)N([H])[H])c5N([H])[H])C4([H])[H])c3[H])c([H])c([H])c2C1([H])[H]

$$$$
27:0:0
     RDKit          3D

 92100  0  0  1  0  0  0  0  0999 V2000
  -29.4290  -23.6130   20.2720 C   0  0  0  0  0  3  0  0  0  0  0  0
  -29.0950  -22.3000   20.7580 C   0  0  0  0  0  0  0  0  0  0  0  0
  -28.7940  -24.5150   21.0970 C   0  0  0  0  0  0  0  0  0  0  0  0
  -27.3120  -24.1470   23.1490 C   0  0  0  0  0  1  0  0  0  0  0  0
  -28.3050  -22.3920   21.8190 N   0  0  0  0  0  0  0  0  0  0  0  0
  -28.1280  -23.7250   22.0260 N   0  0  0  0  0  0  0  0  0  0  0  0
  -29.4770  -20.9260   20.1760 C   0  0  0  0  0  2  0  0  0  0  0  0
  -30.8340  -19.9800   22.0330 C   0  0  0  0  0  1  0  0  0  0  0  0
  -29.6740  -19.7780   21.1340 N   0  0  2  0  0  4  0  0  0  0  0  0
  -28.8530  -19.8000   21.7210 H   0  0  0  0  0  0  0  0  0  0  0  0
  -29.6840  -18.4530   20.4110 C   0  0  0  0  0  3  0  0  0  0  0  0
  -30.0100  -17.0990   21.1910 C   0  0  0  0  0  3  0  0  0  0  0  0
  -30.6560  -14.6990   20.5970 C   0  0  0  0  0  0  0  0  0  0  0  0
  -30.4870  -12.4030   19.6720 C   0  0  0  0  0  2  0  0  0  0  0  0
  -29.6090  -12.3920   18.4000 C   0  0  0  0  0  2  0  0  0  0  0  0
  -28.1040  -12.3320   18.7490 C   0  0  0  0  0  2  0  0  0  0  0  0
  -27.6770  -13.2490   19.9300 C   0  0  0  0  0  3  0  0  0  0  0  0
  -28.6870  -13.1950   21.0950 C   0  0  0  0  0  2  0  0  0  0  0  0
  -30.0150  -13.4900   20.5450 N   0  0  0  0  0  0  0  0  0  0  0  0
  -31.8770  -14.7950   20.4680 O   0  0  0  0  0  0  0  0  0  0  0  0
  -29.4490  -16.0350   19.0170 C   0  0  0  0  0  1  0  0  0  0  0  0
  -29.8680  -15.8120   20.4130 N   0  0  0  0  0  0  0  0  0  0  0  0
  -25.2560  -13.8560   20.5280 C   0  0  0  0  0  0  0  0  0  0  0  0
  -24.1750  -13.0840   20.8630 C   0  0  0  0  0  0  0  0  0  0  0  0
  -24.6470  -11.7370   20.8900 C   0  0  0  0  0  0  0  0  0  0  0  0
  -26.3140  -12.9740   20.3680 N   0  0  0  0  0  0  0  0  0  0  0  0
  -25.9510  -11.6970   20.6500 N   0  0  0  0  0  0  0  0  0  0  0  0
  -23.9230  -10.4730   21.0730 C   0  0  0  0  0  0  0  0  0  0  0  0
  -24.3310   -9.5230   22.0340 C   0  0  0  0  0  3  0  0  0  0  0  0
  -23.6100   -8.3220   22.2030 C   0  0  0  0  0  3  0  0  0  0  0  0
  -22.4650   -8.0650   21.4120 C   0  0  0  0  0  0  0  0  0  0  0  0
  -22.0780   -9.0030   20.4390 C   0  0  0  0  0  3  0  0  0  0  0  0
  -22.8000  -10.1960   20.2680 C   0  0  0  0  0  3  0  0  0  0  0  0
  -21.7170   -6.9150   21.4900 O   0  0  0  0  0  0  0  0  0  0  0  0
  -21.6470   -6.1800   22.6470 C   0  0  0  0  0  0  0  0  0  0  0  0
  -21.1990   -6.7430   23.8620 C   0  0  0  0  0  3  0  0  0  0  0  0
  -21.0770   -5.9340   25.0090 C   0  0  0  0  0  3  0  0  0  0  0  0
  -21.3910   -4.5630   24.9410 C   0  0  0  0  0  0  0  0  0  0  0  0
  -21.8320   -4.0000   23.7310 C   0  0  0  0  0  3  0  0  0  0  0  0
  -21.9570   -4.8070   22.5860 C   0  0  0  0  0  0  0  0  0  0  0  0
  -22.3620   -4.2560   21.4170 F   0  0  0  0  0  0  0  0  0  0  0  0
  -21.2660   -3.7830   26.0400 F   0  0  0  0  0  0  0  0  0  0  0  0
  -22.7640  -13.5570   21.0530 C   0  0  0  0  0  0  0  0  0  0  0  0
  -22.0020  -12.8750   21.9000 N   0  0  0  0  0  0  0  0  0  0  0  0
  -22.3440  -14.5640   20.4870 O   0  0  0  0  0  0  0  0  0  0  0  0
  -22.3550  -12.0590   22.3780 H   0  0  0  0  0  0  0  0  0  0  0  0
  -21.0510  -13.1720   22.0740 H   0  0  0  0  0  0  0  0  0  0  0  0
  -25.4240  -15.2230   20.3260 N   0  0  0  0  0  0  0  0  0  0  0  0
  -24.6580  -15.8850   20.3840 H   0  0  0  0  0  0  0  0  0  0  0  0
  -26.2990  -15.6540   20.0560 H   0  0  0  0  0  0  0  0  0  0  0  0
  -28.8080  -26.0510   21.1800 C   0  0  0  0  0  2  0  0  0  0  0  0
  -28.4030  -26.6710   19.9420 O   0  0  0  0  0  0  0  0  0  0  0  0
  -24.6060  -31.8810   23.1180 C   0  0  0  0  0  0  0  0  0  0  0  0
  -27.2710  -27.4670   19.9940 C   0  0  0  0  0  0  0  0  0  0  0  0
  -23.4090  -30.5020   21.4510 C   0  0  0  0  0  3  0  0  0  0  0  0
  -24.8770  -28.9890   20.0040 C   0  0  0  0  0  0  0  0  0  0  0  0
  -25.9370  -30.8640   21.2700 C   0  0  0  0  0  2  0  0  0  0  0  0
  -26.0320  -29.4990   20.6130 C   0  0  0  0  0  0  0  0  0  0  0  0
  -27.2330  -28.7440   20.6120 C   0  0  0  0  0  3  0  0  0  0  0  0
  -26.1060  -26.9850   19.3680 C   0  0  0  0  0  3  0  0  0  0  0  0
  -24.9110  -27.7310   19.3770 C   0  0  0  0  0  3  0  0  0  0  0  0
  -23.6280  -29.8450   20.0600 C   0  0  0  0  0  2  0  0  0  0  0  0
  -24.6680  -31.0970   22.0030 N   0  0  0  0  0  0  0  0  0  0  0  0
  -23.5230  -32.1410   23.6600 O   0  0  0  0  0  0  0  0  0  0  0  0
  -22.7580  -29.4650   22.3940 C   0  0  0  0  0  0  0  0  0  0  0  0
  -21.4340  -29.2800   22.2630 N   0  0  0  0  0  0  0  0  0  0  0  0
  -23.4420  -28.8280   23.2000 O   0  0  0  0  0  0  0  0  0  0  0  0
  -20.9420  -29.8470   21.5850 H   0  0  0  0  0  0  0  0  0  0  0  0
  -18.0640  -28.0640   22.7350 C   0  0  0  0  0  0  0  0  0  0  0  0
  -20.6200  -28.3270   23.0170 C   0  0  0  0  0  3  0  0  0  0  0  0
  -20.7300  -26.9050   22.4170 C   0  0  0  0  0  2  0  0  0  0  0  0
  -19.6320  -26.5960   21.3950 C   0  0  0  0  0  2  0  0  0  0  0  0
  -18.2470  -26.7250   22.0370 C   0  0  0  0  0  2  0  0  0  0  0  0
  -19.1790  -28.8220   23.1800 C   0  0  0  0  0  0  0  0  0  0  0  0
  -18.9550  -30.0760   23.7900 C   0  0  0  0  0  3  0  0  0  0  0  0
  -17.6490  -30.5690   23.9620 C   0  0  0  0  0  3  0  0  0  0  0  0
  -16.5480  -29.8080   23.5330 C   0  0  0  0  0  3  0  0  0  0  0  0
  -16.7560  -28.5570   22.9260 C   0  0  0  0  0  3  0  0  0  0  0  0
  -25.8890  -32.5070   23.7490 C   0  0  0  0  0  3  0  0  0  0  0  0
  -25.5720  -33.8940   24.1160 N   0  0  0  0  0  0  0  0  0  0  0  0
  -25.9050  -34.9680   23.3880 C   0  0  0  0  0  0  0  0  0  0  0  0
  -26.5820  -34.8960   22.3580 O   0  0  0  0  0  0  0  0  0  0  0  0
  -24.9710  -34.0240   24.9170 H   0  0  0  0  0  0  0  0  0  0  0  0
  -24.1750  -36.7650   23.0620 C   0  0  0  0  0  1  0  0  0  0  0  0
  -25.4060  -36.3400   23.8790 C   0  0  0  0  0  3  0  0  0  0  0  0
  -27.5280  -37.2040   24.7620 C   0  0  0  0  0  1  0  0  0  0  0  0
  -26.4360  -37.4000   23.8110 N   0  0  0  0  0  0  0  0  0  0  0  0
  -26.0260  -38.3140   23.9830 H   0  0  0  0  0  0  0  0  0  0  0  0
  -26.4200  -31.7060   25.0010 C   0  0  1  0  0  0  0  0  0  0  0  0
  -25.3360  -31.4350   26.0700 C   0  0  0  0  0  1  0  0  0  0  0  0
  -27.0110  -30.3440   24.5710 C   0  0  0  0  0  1  0  0  0  0  0  0
  -27.5700  -32.4910   25.6750 C   0  0  0  0  0  1  0  0  0  0  0  0
  1  2  1  0
  1  3  2  0
  2  5  2  0
  3 51  1  0
  3  6  1  0
  5  6  1  0
  6  4  1  0
  7  2  1  0
  7  9  1  0
  9 10  1  1
  9  8  1  0
 11  9  1  0
 11 12  2  0
 14 19  1  0
 15 16  1  0
 15 14  1  0
 17 16  1  0
 17 26  1  0
 17 18  1  0
 19 13  1  0
 19 18  1  0
 20 13  2  0
 21 22  1  0
 22 13  1  0
 22 12  1  0
 23 24  2  0
 24 25  1  0
 24 43  1  0
 25 28  1  0
 26 23  1  0
 26 27  1  0
 27 25  2  0
 28 29  1  0
 29 30  2  0
 31 34  1  0
 31 30  1  0
 32 31  2  0
 33 32  1  0
 33 28  2  0
 34 35  1  0
 35 36  1  0
 36 37  2  0
 38 37  1  0
 38 42  1  0
 39 38  2  0
 40 35  2  0
 40 39  1  0
 41 40  1  0
 43 44  1  0
 44 47  1  0
 44 46  1  0
 45 43  2  0
 48 49  1  0
 48 23  1  0
 50 48  1  0
 52 54  1  0
 52 51  1  0
 53 64  2  0
 54 59  1  0
 55 63  1  0
 55 65  1  0
 56 62  1  0
 56 58  1  0
 57 63  1  0
 58 57  1  0
 59 58  2  0
 60 61  1  0
 60 54  2  0
 61 56  2  0
 62 55  1  0
 63 53  1  0
 65 67  2  0
 66 65  1  0
 68 66  1  0
 69 78  2  0
 69 74  1  0
 70 66  1  0
 70 74  1  0
 71 70  1  0
 72 73  1  0
 72 71  1  0
 73 69  1  0
 74 75  2  0
 75 76  1  0
 77 76  2  0
 78 77  1  0
 79 53  1  0
 79 80  1  0
 79 89  1  0
 80 83  1  0
 81 85  1  0
 81 80  1  0
 82 81  2  0
 85 84  1  0
 87 85  1  0
 87 88  1  0
 87 86  1  0
 89 92  1  1
 89 90  1  0
 91 89  1  0
M  ISO  4  13 100  22 100  51 101  52 101
M  END
>  <TORSDO>  (28) 
F 21

>  <SCORE>  (28) 
-12.308

>  <name>  (28) 
27

>  <ligand_id>  (28) 
27

>  <original_smiles>  (28) 
[H]c1c([H])c([H])c2c(c1[H])C([H])([H])C([H])([H])C([H])([H])C2([H])N([H])C(=O)C1([H])N(C(=O)C([H])(N([H])C(=O)C([H])(N([H])C([H])([H])[H])C([H])([H])[H])C(C([H])([H])[H])(C([H])([H])[H])C([H])([H])[H])C([H])([H])c2c([H])c(OC([H])([H])c3c([H])c(C([H])([H])[N+]([H])(C([H])([H])[H])C([H])([H])C([H])([H])N(C(=O)N4C([H])([H])C([H])([H])C([H])([H])C([H])(n5nc(-c6c([H])c([H])c(Oc7c([H])c([H])c(F)c([H])c7F)c([H])c6[H])c(C(=O)N([H])[H])c5N([H])[H])C4([H])[H])C([H])([H])[H])nn3C([H])([H])[H])c([H])c([H])c2C1([H])[H]

>  <smiles>  (28) 
[H]c1c([H])c([H])c2c(c1[H])C([H])([H])C([H])([H])C([H])([H])C2([H])N([H])C(=O)C1([H])N(C(=O)C([H])(N([H])C(=O)C([H])(N([H])C([H])([H])[H])C([H])([H])[H])C(C([H])([H])[H])(C([H])([H])[H])C([H])([H])[H])C([H])([H])c2c([H])c(OC([H])([H])c3c([H])c(C([H])([H])[N+]([H])(C([H])([H])[H])C([H])([H])C([H])([H])N(C(=O)N4C([H])([H])C([H])([H])C([H])([H])C([H])(n5nc(-c6c([H])c([H])c(Oc7c([H])c([H])c(F)c([H])c7F)c([H])c6[H])c(C(=O)N([H])[H])c5N([H])[H])C4([H])[H])C([H])([H])[H])nn3C([H])([H])[H])c([H])c([H])c2C1([H])[H]

$$$$
28:0:0
     RDKit          3D

 93101  0  0  1  0  0  0  0  0999 V2000
  -31.2290  -22.4720   20.9900 C   0  0  0  0  0  3  0  0  0  0  0  0
  -30.5730  -24.6630   20.6520 C   0  0  0  0  0  3  0  0  0  0  0  0
  -29.8770  -22.0550   21.0590 C   0  0  0  0  0  0  0  0  0  0  0  0
  -29.2200  -24.2710   20.7290 C   0  0  0  0  0  0  0  0  0  0  0  0
  -31.5820  -23.7640   20.7740 N   0  0  0  0  0  0  0  0  0  0  0  0
  -28.8700  -22.9640   20.9220 N   0  0  0  0  0  0  0  0  0  0  0  0
  -29.4910  -20.6040   21.4230 C   0  0  0  0  0  2  0  0  0  0  0  0
  -29.6890  -19.6520   19.1460 C   0  0  0  0  0  1  0  0  0  0  0  0
  -30.0640  -19.4960   20.5800 N   0  0  2  0  0  4  0  0  0  0  0  0
  -31.0630  -19.6280   20.6180 H   0  0  0  0  0  0  0  0  0  0  0  0
  -30.1730  -17.9050   22.5820 C   0  0  0  0  0  1  0  0  0  0  0  0
  -29.7910  -18.0930   21.0940 C   0  0  0  0  0  3  0  0  0  0  0  0
  -30.4900  -16.9760   20.2440 C   0  0  0  0  0  2  0  0  0  0  0  0
  -30.7630  -14.5090   20.0610 C   0  0  0  0  0  0  0  0  0  0  0  0
  -30.3580  -12.3760   18.8980 C   0  0  0  0  0  2  0  0  0  0  0  0
  -29.3510  -12.6280   17.7560 C   0  0  0  0  0  2  0  0  0  0  0  0
  -27.9060  -12.4890   18.2750 C   0  0  0  0  0  2  0  0  0  0  0  0
  -27.6550  -13.2900   19.5810 C   0  0  0  0  0  3  0  0  0  0  0  0
  -28.7790  -13.0470   20.6160 C   0  0  0  0  0  2  0  0  0  0  0  0
  -30.0650  -13.3450   19.9690 N   0  0  0  0  0  0  0  0  0  0  0  0
  -31.8710  -14.6610   19.5420 O   0  0  0  0  0  0  0  0  0  0  0  0
  -30.0960  -15.5780   20.5490 N   0  0  0  0  0  0  0  0  0  0  0  0
  -29.1870  -15.4130   20.9520 H   0  0  0  0  0  0  0  0  0  0  0  0
  -25.3040  -13.8810   20.4460 C   0  0  0  0  0  0  0  0  0  0  0  0
  -24.2580  -13.1040   20.8680 C   0  0  0  0  0  0  0  0  0  0  0  0
  -24.7150  -11.7530   20.7840 C   0  0  0  0  0  0  0  0  0  0  0  0
  -26.3320  -13.0040   20.1370 N   0  0  0  0  0  0  0  0  0  0  0  0
  -25.9840  -11.7180   20.3960 N   0  0  0  0  0  0  0  0  0  0  0  0
  -23.9970  -10.4870   20.9940 C   0  0  0  0  0  0  0  0  0  0  0  0
  -24.4470   -9.5290   21.9310 C   0  0  0  0  0  3  0  0  0  0  0  0
  -23.7280   -8.3310   22.1300 C   0  0  0  0  0  3  0  0  0  0  0  0
  -22.5470   -8.0800   21.3930 C   0  0  0  0  0  0  0  0  0  0  0  0
  -22.1160   -9.0260   20.4460 C   0  0  0  0  0  3  0  0  0  0  0  0
  -22.8360  -10.2160   20.2450 C   0  0  0  0  0  3  0  0  0  0  0  0
  -21.8000   -6.9320   21.4980 O   0  0  0  0  0  0  0  0  0  0  0  0
  -21.7240   -6.2300   22.6750 C   0  0  0  0  0  0  0  0  0  0  0  0
  -21.2630   -6.8260   23.8700 C   0  0  0  0  0  3  0  0  0  0  0  0
  -21.1320   -6.0500   25.0390 C   0  0  0  0  0  3  0  0  0  0  0  0
  -21.4550   -4.6800   25.0160 C   0  0  0  0  0  0  0  0  0  0  0  0
  -21.9120   -4.0850   23.8260 C   0  0  0  0  0  3  0  0  0  0  0  0
  -22.0420   -4.8570   22.6590 C   0  0  0  0  0  0  0  0  0  0  0  0
  -22.4610   -4.2740   21.5100 F   0  0  0  0  0  0  0  0  0  0  0  0
  -21.3260   -3.9330   26.1370 F   0  0  0  0  0  0  0  0  0  0  0  0
  -22.8810  -13.5780   21.2340 C   0  0  0  0  0  0  0  0  0  0  0  0
  -22.2090  -12.8770   22.1390 N   0  0  0  0  0  0  0  0  0  0  0  0
  -22.4100  -14.6090   20.7520 O   0  0  0  0  0  0  0  0  0  0  0  0
  -22.6020  -12.0450   22.5540 H   0  0  0  0  0  0  0  0  0  0  0  0
  -21.2890  -13.1800   22.4260 H   0  0  0  0  0  0  0  0  0  0  0  0
  -25.4610  -15.2540   20.2790 N   0  0  0  0  0  0  0  0  0  0  0  0
  -24.6940  -15.9040   20.4200 H   0  0  0  0  0  0  0  0  0  0  0  0
  -26.2760  -15.6920   19.8720 H   0  0  0  0  0  0  0  0  0  0  0  0
  -28.0800  -25.2900   20.6820 C   0  0  0  0  0  2  0  0  0  0  0  0
  -28.3750  -26.5750   20.0830 O   0  0  0  0  0  0  0  0  0  0  0  0
  -24.5840  -31.7810   23.1270 C   0  0  0  0  0  0  0  0  0  0  0  0
  -27.2540  -27.3760   20.0180 C   0  0  0  0  0  0  0  0  0  0  0  0
  -23.3940  -30.3920   21.4650 C   0  0  0  0  0  3  0  0  0  0  0  0
  -24.8650  -28.8900   20.0220 C   0  0  0  0  0  0  0  0  0  0  0  0
  -25.9210  -30.7650   21.2840 C   0  0  0  0  0  2  0  0  0  0  0  0
  -26.0180  -29.4020   20.6290 C   0  0  0  0  0  0  0  0  0  0  0  0
  -27.2190  -28.6530   20.6280 C   0  0  0  0  0  3  0  0  0  0  0  0
  -26.0910  -26.9000   19.3710 C   0  0  0  0  0  3  0  0  0  0  0  0
  -24.8970  -27.6380   19.3860 C   0  0  0  0  0  3  0  0  0  0  0  0
  -23.6160  -29.7380   20.0760 C   0  0  0  0  0  2  0  0  0  0  0  0
  -24.6510  -30.9930   22.0170 N   0  0  0  0  0  0  0  0  0  0  0  0
  -23.4980  -32.0390   23.6660 O   0  0  0  0  0  0  0  0  0  0  0  0
  -22.7460  -29.3500   22.4080 C   0  0  0  0  0  0  0  0  0  0  0  0
  -21.4220  -29.1680   22.2810 N   0  0  0  0  0  0  0  0  0  0  0  0
  -23.4330  -28.7110   23.2090 O   0  0  0  0  0  0  0  0  0  0  0  0
  -20.9280  -29.7370   21.6070 H   0  0  0  0  0  0  0  0  0  0  0  0
  -18.0510  -27.9620   22.7610 C   0  0  0  0  0  0  0  0  0  0  0  0
  -20.6080  -28.2200   23.0400 C   0  0  0  0  0  3  0  0  0  0  0  0
  -20.7150  -26.7960   22.4450 C   0  0  0  0  0  2  0  0  0  0  0  0
  -19.6140  -26.4850   21.4250 C   0  0  0  0  0  2  0  0  0  0  0  0
  -18.2320  -26.6200   22.0690 C   0  0  0  0  0  2  0  0  0  0  0  0
  -19.1670  -28.7190   23.2030 C   0  0  0  0  0  0  0  0  0  0  0  0
  -18.9470  -29.9760   23.8090 C   0  0  0  0  0  3  0  0  0  0  0  0
  -17.6410  -30.4730   23.9780 C   0  0  0  0  0  3  0  0  0  0  0  0
  -16.5390  -29.7120   23.5540 C   0  0  0  0  0  3  0  0  0  0  0  0
  -16.7450  -28.4580   22.9520 C   0  0  0  0  0  3  0  0  0  0  0  0
  -25.8630  -32.4150   23.7570 C   0  0  0  0  0  3  0  0  0  0  0  0
  -25.5420  -33.8040   24.1100 N   0  0  0  0  0  0  0  0  0  0  0  0
  -25.8720  -34.8710   23.3700 C   0  0  0  0  0  0  0  0  0  0  0  0
  -26.5520  -34.7900   22.3430 O   0  0  0  0  0  0  0  0  0  0  0  0
  -24.9450  -33.9410   24.9120 H   0  0  0  0  0  0  0  0  0  0  0  0
  -24.1390  -36.6580   23.0210 C   0  0  0  0  0  1  0  0  0  0  0  0
  -25.3680  -36.2470   23.8450 C   0  0  0  0  0  3  0  0  0  0  0  0
  -27.4840  -37.1280   24.7290 C   0  0  0  0  0  1  0  0  0  0  0  0
  -26.3960  -37.3080   23.7700 N   0  0  0  0  0  0  0  0  0  0  0  0
  -25.9810  -38.2220   23.9300 H   0  0  0  0  0  0  0  0  0  0  0  0
  -26.3910  -31.6250   25.0170 C   0  0  1  0  0  0  0  0  0  0  0  0
  -25.3040  -31.3560   26.0840 C   0  0  0  0  0  1  0  0  0  0  0  0
  -26.9870  -30.2620   24.5940 C   0  0  0  0  0  1  0  0  0  0  0  0
  -27.5330  -32.4200   25.6940 C   0  0  0  0  0  1  0  0  0  0  0  0
  1  3  1  0
  2  4  2  0
  2  5  1  0
  3  7  1  0
  4  6  1  0
  5  1  2  0
  6  3  2  0
  8  9  1  0
  9 10  1  6
  9 12  1  0
  9  7  1  0
 12 11  1  0
 13 22  1  0
 13 12  1  0
 14 22  1  0
 15 20  1  0
 16 17  1  0
 16 15  1  0
 18 17  1  0
 18 27  1  0
 18 19  1  0
 20 14  1  0
 20 19  1  0
 21 14  2  0
 22 23  1  0
 24 25  2  0
 25 44  1  0
 26 25  1  0
 26 29  1  0
 27 28  1  0
 27 24  1  0
 28 26  2  0
 29 30  1  0
 30 31  2  0
 32 35  1  0
 32 31  1  0
 33 32  2  0
 34 33  1  0
 34 29  2  0
 35 36  1  0
 36 37  1  0
 37 38  2  0
 39 38  1  0
 39 43  1  0
 40 39  2  0
 41 36  2  0
 41 40  1  0
 42 41  1  0
 44 45  1  0
 45 48  1  0
 45 47  1  0
 46 44  2  0
 49 50  1  0
 49 24  1  0
 51 49  1  0
 52  4  1  0
 53 52  1  0
 54 65  2  0
 55 53  1  0
 55 60  1  0
 56 64  1  0
 56 66  1  0
 57 63  1  0
 57 59  1  0
 58 64  1  0
 59 58  1  0
 60 59  2  0
 61 62  1  0
 61 55  2  0
 62 57  2  0
 63 56  1  0
 64 54  1  0
 66 68  2  0
 67 66  1  0
 69 67  1  0
 70 79  2  0
 70 75  1  0
 71 67  1  0
 71 75  1  0
 72 71  1  0
 73 74  1  0
 73 72  1  0
 74 70  1  0
 75 76  2  0
 76 77  1  0
 78 77  2  0
 79 78  1  0
 80 54  1  0
 80 81  1  0
 80 90  1  0
 81 84  1  0
 82 86  1  0
 82 81  1  0
 83 82  2  0
 86 85  1  0
 88 86  1  0
 88 89  1  0
 88 87  1  0
 90 93  1  1
 90 91  1  0
 92 90  1  0
M  ISO  4  14 100  22 100  52 101  53 101
M  END
>  <TORSDO>  (29) 
F 21

>  <SCORE>  (29) 
-12.808

>  <name>  (29) 
28

>  <ligand_id>  (29) 
28

>  <original_smiles>  (29) 
[H]c1nc([H])c(C([H])([H])[N+]([H])(C([H])([H])[H])C([H])(C([H])([H])[H])C([H])([H])N([H])C(=O)N2C([H])([H])C([H])([H])C([H])([H])C([H])(n3nc(-c4c([H])c([H])c(Oc5c([H])c([H])c(F)c([H])c5F)c([H])c4[H])c(C(=O)N([H])[H])c3N([H])[H])C2([H])[H])nc1C([H])([H])Oc1c([H])c([H])c2c(c1[H])C([H])([H])N(C(=O)C([H])(N([H])C(=O)C([H])(N([H])C([H])([H])[H])C([H])([H])[H])C(C([H])([H])[H])(C([H])([H])[H])C([H])([H])[H])C([H])(C(=O)N([H])C1([H])c3c([H])c([H])c([H])c([H])c3C([H])([H])C([H])([H])C1([H])[H])C2([H])[H]

>  <smiles>  (29) 
[H]c1nc([H])c(C([H])([H])[N+]([H])(C([H])([H])[H])C([H])(C([H])([H])[H])C([H])([H])N([H])C(=O)N2C([H])([H])C([H])([H])C([H])([H])C([H])(n3nc(-c4c([H])c([H])c(Oc5c([H])c([H])c(F)c([H])c5F)c([H])c4[H])c(C(=O)N([H])[H])c3N([H])[H])C2([H])[H])nc1C([H])([H])Oc1c([H])c([H])c2c(c1[H])C([H])([H])N(C(=O)C([H])(N([H])C(=O)C([H])(N([H])C([H])([H])[H])C([H])([H])[H])C(C([H])([H])[H])(C([H])([H])[H])C([H])([H])[H])C([H])(C(=O)N([H])C1([H])c3c([H])c([H])c([H])c([H])c3C([H])([H])C([H])([H])C1([H])[H])C2([H])[H]

$$$$
29:0:0
     RDKit          3D

 91 99  0  0  1  0  0  0  0  0999 V2000
  -27.6590  -21.5740   19.4660 C   0  0  0  0  0  3  0  0  0  0  0  0
  -28.5700  -22.4990   19.9750 C   0  0  0  0  0  0  0  0  0  0  0  0
  -29.3130  -20.0360   20.0520 C   0  0  0  0  0  3  0  0  0  0  0  0
  -28.1230  -20.2340   19.4370 N   0  0  0  0  0  0  0  0  0  0  0  0
  -29.5880  -21.4460   20.3190 N   0  0  0  0  0  0  0  0  0  0  0  0
  -30.4940  -21.7150   20.6850 H   0  0  0  0  0  0  0  0  0  0  0  0
  -26.8140  -18.1740   19.8260 C   0  0  0  0  0  1  0  0  0  0  0  0
  -28.1020  -18.5020   17.5830 C   0  0  0  0  0  1  0  0  0  0  0  0
  -27.3700  -19.1480   18.7880 C   0  0  0  0  0  3  0  0  0  0  0  0
  -31.5040  -18.7350   19.4030 C   0  0  0  0  0  1  0  0  0  0  0  0
  -30.2350  -18.5070   20.2420 C   0  0  0  0  0  0  0  0  0  0  0  0
  -30.5340  -15.4880   20.1770 C   0  0  0  0  0  0  0  0  0  0  0  0
  -30.4890  -13.0160   19.3100 C   0  0  0  0  0  2  0  0  0  0  0  0
  -29.5440  -12.7040   18.1180 C   0  0  0  0  0  2  0  0  0  0  0  0
  -28.1120  -12.3970   18.5980 C   0  0  0  0  0  2  0  0  0  0  0  0
  -27.6430  -13.3880   19.6910 C   0  0  0  0  0  3  0  0  0  0  0  0
  -28.7210  -13.6580   20.7760 C   0  0  0  0  0  2  0  0  0  0  0  0
  -29.9250  -14.1850   20.1000 N   0  0  0  0  0  0  0  0  0  0  0  0
  -31.7610  -15.4040   20.0380 O   0  0  0  0  0  0  0  0  0  0  0  0
  -29.8490  -16.8350   20.2160 N   0  0  0  0  0  4  0  0  0  0  0  0
  -28.8540  -16.7060   20.3100 H   0  0  0  0  0  0  0  0  0  0  0  0
  -25.2910  -13.8870   20.5490 C   0  0  0  0  0  0  0  0  0  0  0  0
  -24.2440  -13.0930   20.9270 C   0  0  0  0  0  0  0  0  0  0  0  0
  -24.7280  -11.7510   20.8610 C   0  0  0  0  0  0  0  0  0  0  0  0
  -26.3380  -13.0340   20.2560 N   0  0  0  0  0  0  0  0  0  0  0  0
  -26.0150  -11.7380   20.5180 N   0  0  0  0  0  0  0  0  0  0  0  0
  -24.0120  -10.4800   21.0410 C   0  0  0  0  0  0  0  0  0  0  0  0
  -24.4520   -9.5140   21.9700 C   0  0  0  0  0  3  0  0  0  0  0  0
  -23.7360   -8.3100   22.1430 C   0  0  0  0  0  3  0  0  0  0  0  0
  -22.5650   -8.0660   21.3860 C   0  0  0  0  0  0  0  0  0  0  0  0
  -22.1440   -9.0230   20.4440 C   0  0  0  0  0  3  0  0  0  0  0  0
  -22.8620  -10.2190   20.2680 C   0  0  0  0  0  3  0  0  0  0  0  0
  -21.8170   -6.9170   21.4740 O   0  0  0  0  0  0  0  0  0  0  0  0
  -21.7500   -6.1830   22.6300 C   0  0  0  0  0  0  0  0  0  0  0  0
  -21.2500   -6.7300   23.8320 C   0  0  0  0  0  3  0  0  0  0  0  0
  -21.1340   -5.9200   24.9790 C   0  0  0  0  0  3  0  0  0  0  0  0
  -21.5090   -4.5640   24.9250 C   0  0  0  0  0  0  0  0  0  0  0  0
  -22.0060   -4.0170   23.7300 C   0  0  0  0  0  3  0  0  0  0  0  0
  -22.1230   -4.8240   22.5840 C   0  0  0  0  0  0  0  0  0  0  0  0
  -22.5810   -4.2870   21.4290 F   0  0  0  0  0  0  0  0  0  0  0  0
  -21.3910   -3.7830   26.0260 F   0  0  0  0  0  0  0  0  0  0  0  0
  -22.8460  -13.5510   21.2240 C   0  0  0  0  0  0  0  0  0  0  0  0
  -22.1370  -12.8390   22.0990 N   0  0  0  0  0  0  0  0  0  0  0  0
  -22.3910  -14.5750   20.7200 O   0  0  0  0  0  0  0  0  0  0  0  0
  -22.5070  -12.0040   22.5250 H   0  0  0  0  0  0  0  0  0  0  0  0
  -21.2000  -13.1320   22.3440 H   0  0  0  0  0  0  0  0  0  0  0  0
  -25.4310  -15.2550   20.3960 N   0  0  0  0  0  0  0  0  0  0  0  0
  -24.6580  -15.8980   20.5260 H   0  0  0  0  0  0  0  0  0  0  0  0
  -26.2520  -15.7070   20.0200 H   0  0  0  0  0  0  0  0  0  0  0  0
  -28.3970  -24.2760   19.6990 C   0  0  0  0  0  2  0  0  0  0  0  0
  -28.2050  -25.7550   20.4860 O   0  0  0  0  0  0  0  0  0  0  0  0
  -24.5910  -31.8650   23.2640 C   0  0  0  0  0  0  0  0  0  0  0  0
  -27.2200  -26.9010   20.3280 C   0  0  0  0  0  0  0  0  0  0  0  0
  -23.4300  -30.4530   21.6160 C   0  0  0  0  0  3  0  0  0  0  0  0
  -24.9090  -28.8210   20.2350 C   0  0  0  0  0  0  0  0  0  0  0  0
  -26.0030  -30.6450   21.5210 C   0  0  0  0  0  2  0  0  0  0  0  0
  -26.0860  -29.2200   20.8780 C   0  0  0  0  0  0  0  0  0  0  0  0
  -27.2220  -28.2790   20.9070 C   0  0  0  0  0  3  0  0  0  0  0  0
  -26.0050  -26.6740   19.6350 C   0  0  0  0  0  3  0  0  0  0  0  0
  -24.8980  -27.5690   19.5970 C   0  0  0  0  0  3  0  0  0  0  0  0
  -23.6970  -29.7580   20.2490 C   0  0  0  0  0  2  0  0  0  0  0  0
  -24.6960  -31.0180   22.1880 N   0  0  0  0  0  0  0  0  0  0  0  0
  -23.4910  -32.1580   23.7630 O   0  0  0  0  0  0  0  0  0  0  0  0
  -22.7090  -29.4710   22.5810 C   0  0  0  0  0  0  0  0  0  0  0  0
  -21.3780  -29.3190   22.4440 N   0  0  0  0  0  0  0  0  0  0  0  0
  -23.3600  -28.8450   23.4240 O   0  0  0  0  0  0  0  0  0  0  0  0
  -20.9060  -29.8740   21.7460 H   0  0  0  0  0  0  0  0  0  0  0  0
  -17.9780  -28.1400   22.9390 C   0  0  0  0  0  0  0  0  0  0  0  0
  -20.5410  -28.3900   23.2120 C   0  0  0  0  0  3  0  0  0  0  0  0
  -20.6350  -26.9560   22.6390 C   0  0  0  0  0  2  0  0  0  0  0  0
  -19.5350  -26.6400   21.6210 C   0  0  0  0  0  2  0  0  0  0  0  0
  -18.1510  -26.7910   22.2590 C   0  0  0  0  0  2  0  0  0  0  0  0
  -19.1000  -28.8960   23.3740 C   0  0  0  0  0  0  0  0  0  0  0  0
  -18.8840  -30.1530   23.9780 C   0  0  0  0  0  3  0  0  0  0  0  0
  -17.5800  -30.6570   24.1460 C   0  0  0  0  0  3  0  0  0  0  0  0
  -16.4740  -29.9000   23.7210 C   0  0  0  0  0  3  0  0  0  0  0  0
  -16.6730  -28.6430   23.1250 C   0  0  0  0  0  3  0  0  0  0  0  0
  -25.8450  -32.5220   23.9160 C   0  0  0  0  0  3  0  0  0  0  0  0
  -26.3050  -31.7900   25.2380 C   0  0  1  0  0  0  0  0  0  0  0  0
  -25.1670  -31.5970   26.2700 C   0  0  0  0  0  1  0  0  0  0  0  0
  -26.8970  -30.3990   24.9190 C   0  0  0  0  0  1  0  0  0  0  0  0
  -27.4320  -32.6010   25.9250 C   0  0  0  0  0  1  0  0  0  0  0  0
  -25.5260  -33.9310   24.2100 N   0  0  0  0  0  0  0  0  0  0  0  0
  -25.8780  -34.9740   23.4470 C   0  0  0  0  0  0  0  0  0  0  0  0
  -26.5670  -34.8520   22.4320 O   0  0  0  0  0  0  0  0  0  0  0  0
  -24.9290  -34.0990   25.0050 H   0  0  0  0  0  0  0  0  0  0  0  0
  -24.1740  -36.7850   23.0300 C   0  0  0  0  0  1  0  0  0  0  0  0
  -25.3910  -36.3750   23.8790 C   0  0  0  0  0  3  0  0  0  0  0  0
  -27.5050  -37.2650   24.7570 C   0  0  0  0  0  1  0  0  0  0  0  0
  -26.4330  -37.4190   23.7770 N   0  0  0  0  0  0  0  0  0  0  0  0
  -26.0290  -38.3450   23.8910 H   0  0  0  0  0  0  0  0  0  0  0  0
  1  2  2  0
  2  5  1  0
  3 11  1  0
  3  5  1  0
  4  1  1  0
  4  3  1  0
  5  6  1  0
  8  9  1  0
  9  4  1  0
  9  7  1  0
 10 11  1  0
 12 20  1  0
 13 18  1  0
 14 15  1  0
 14 13  1  0
 16 15  1  0
 16 25  1  0
 16 17  1  0
 18 12  1  0
 18 17  1  0
 19 12  2  0
 20 11  2  0
 20 21  1  0
 22 23  2  0
 23 42  1  0
 24 23  1  0
 24 27  1  0
 25 26  1  0
 25 22  1  0
 26 24  2  0
 27 28  1  0
 28 29  2  0
 30 33  1  0
 30 29  1  0
 31 30  2  0
 32 31  1  0
 32 27  2  0
 33 34  1  0
 34 35  1  0
 35 36  2  0
 37 36  1  0
 37 41  1  0
 38 37  2  0
 39 34  2  0
 39 38  1  0
 40 39  1  0
 42 43  1  0
 43 46  1  0
 43 45  1  0
 44 42  2  0
 47 48  1  0
 47 22  1  0
 49 47  1  0
 50  2  1  0
 50 51  1  0
 52 63  2  0
 53 51  1  0
 53 58  1  0
 54 62  1  0
 54 64  1  0
 55 61  1  0
 55 57  1  0
 56 62  1  0
 57 58  2  0
 57 56  1  0
 59 53  2  0
 60 59  1  0
 60 55  2  0
 61 54  1  0
 62 52  1  0
 64 66  2  0
 65 64  1  0
 67 65  1  0
 68 77  2  0
 68 73  1  0
 69 65  1  0
 69 73  1  0
 70 69  1  0
 71 72  1  0
 71 70  1  0
 72 68  1  0
 73 74  2  0
 74 75  1  0
 76 75  2  0
 77 76  1  0
 78 52  1  0
 78 83  1  0
 78 79  1  0
 79 82  1  1
 79 80  1  0
 81 79  1  0
 83 86  1  0
 84 88  1  0
 84 83  1  0
 85 84  2  0
 88 87  1  0
 90 88  1  0
 90 91  1  0
 90 89  1  0
M  ISO  4  12 100  20 100  50 101  51 101
M  END
>  <TORSDO>  (30) 
F 19

>  <SCORE>  (30) 
-16.402

>  <name>  (30) 
29

>  <ligand_id>  (30) 
29

>  <original_smiles>  (30) 
[H]c1c([H])c([H])c2c(c1[H])C([H])([H])C([H])([H])C([H])([H])C2([H])N([H])C(=O)C1([H])N(C(=O)C([H])(N([H])C(=O)C([H])(N([H])C([H])([H])[H])C([H])([H])[H])C(C([H])([H])[H])(C([H])([H])[H])C([H])([H])[H])C([H])([H])c2c([H])c(OC([H])([H])c3c([H])n(C([H])(C([H])([H])[H])C([H])([H])[H])c(C([H])(N([H])C(=O)N4C([H])([H])C([H])([H])C([H])([H])C([H])(n5nc(-c6c([H])c([H])c(Oc7c([H])c([H])c(F)c([H])c7F)c([H])c6[H])c(C(=O)N([H])[H])c5N([H])[H])C4([H])[H])C([H])([H])[H])[n+]3[H])c([H])c([H])c2C1([H])[H]

>  <smiles>  (30) 
[H]c1c([H])c([H])c2c(c1[H])C([H])([H])C([H])([H])C([H])([H])C2([H])N([H])C(=O)C1([H])N(C(=O)C([H])(N([H])C(=O)C([H])(N([H])C([H])([H])[H])C([H])([H])[H])C(C([H])([H])[H])(C([H])([H])[H])C([H])([H])[H])C([H])([H])c2c([H])c(OC([H])([H])c3c([H])n(C([H])(C([H])([H])[H])C([H])([H])[H])c(C([H])(N([H])C(=O)N4C([H])([H])C([H])([H])C([H])([H])C([H])(n5nc(-c6c([H])c([H])c(Oc7c([H])c([H])c(F)c([H])c7F)c([H])c6[H])c(C(=O)N([H])[H])c5N([H])[H])C4([H])[H])C([H])([H])[H])[n+]3[H])c([H])c([H])c2C1([H])[H]

$$$$
30:0:0
     RDKit          3D

 91 99  0  0  1  0  0  0  0  0999 V2000
  -28.5120  -19.7880   20.3990 C   0  0  0  0  0  0  0  0  0  0  0  0
  -30.0430  -21.2530   19.6870 C   0  0  0  0  0  0  0  0  0  0  0  0
  -30.4830  -18.9590   19.7280 C   0  0  0  0  0  0  0  0  0  0  0  0
  -27.1390  -19.5380   20.9850 C   0  0  0  0  0  1  0  0  0  0  0  0
  -28.8230  -21.0590   20.1680 N   0  0  0  0  0  4  0  0  0  0  0  0
  -29.2580  -18.7110   20.1710 N   0  0  0  0  0  0  0  0  0  0  0  0
  -30.9230  -20.2290   19.4580 N   0  0  0  0  0  2  0  0  0  0  0  0
  -31.0270  -17.3330   17.8620 C   0  0  0  0  0  1  0  0  0  0  0  0
  -31.3660  -17.6770   19.3290 C   0  0  0  0  0  3  0  0  0  0  0  0
  -32.0340  -15.1960   19.7040 C   0  0  0  0  0  0  0  0  0  0  0  0
  -31.6950  -12.9050   18.7440 C   0  0  0  0  0  2  0  0  0  0  0  0
  -30.6720  -12.9670   17.5890 C   0  0  0  0  0  2  0  0  0  0  0  0
  -29.2320  -12.8400   18.1240 C   0  0  0  0  0  2  0  0  0  0  0  0
  -28.9720  -13.7650   19.3440 C   0  0  0  0  0  3  0  0  0  0  0  0
  -30.1040  -13.6650   20.3880 C   0  0  0  0  0  2  0  0  0  0  0  0
  -31.3640  -13.9890   19.7040 N   0  0  0  0  0  0  0  0  0  0  0  0
  -33.1330  -15.2760   19.1450 O   0  0  0  0  0  0  0  0  0  0  0  0
  -31.3750  -16.5030   21.5970 C   0  0  0  0  0  1  0  0  0  0  0  0
  -31.3800  -16.3510   20.1330 N   0  0  0  0  0  0  0  0  0  0  0  0
  -26.6970  -14.4410   20.3170 C   0  0  0  0  0  0  0  0  0  0  0  0
  -25.6240  -13.7050   20.7390 C   0  0  0  0  0  0  0  0  0  0  0  0
  -26.0030  -12.3350   20.5940 C   0  0  0  0  0  0  0  0  0  0  0  0
  -27.6620  -13.5220   19.9390 N   0  0  0  0  0  0  0  0  0  0  0  0
  -27.2560  -12.2470   20.1670 N   0  0  0  0  0  0  0  0  0  0  0  0
  -25.2240  -11.1030   20.7790 C   0  0  0  0  0  0  0  0  0  0  0  0
  -25.5150  -10.1940   21.8200 C   0  0  0  0  0  3  0  0  0  0  0  0
  -24.7360   -9.0290   21.9910 C   0  0  0  0  0  3  0  0  0  0  0  0
  -23.6530   -8.7650   21.1210 C   0  0  0  0  0  0  0  0  0  0  0  0
  -23.3830   -9.6600   20.0720 C   0  0  0  0  0  3  0  0  0  0  0  0
  -24.1630  -10.8170   19.8990 C   0  0  0  0  0  3  0  0  0  0  0  0
  -22.8600   -7.6440   21.1950 O   0  0  0  0  0  0  0  0  0  0  0  0
  -22.4050   -7.1620   22.3950 C   0  0  0  0  0  0  0  0  0  0  0  0
  -21.5970   -7.9370   23.2550 C   0  0  0  0  0  3  0  0  0  0  0  0
  -21.0940   -7.3760   24.4470 C   0  0  0  0  0  3  0  0  0  0  0  0
  -21.3910   -6.0400   24.7760 C   0  0  0  0  0  0  0  0  0  0  0  0
  -22.1910   -5.2650   23.9190 C   0  0  0  0  0  3  0  0  0  0  0  0
  -22.6930   -5.8230   22.7300 C   0  0  0  0  0  0  0  0  0  0  0  0
  -23.4440   -5.0640   21.8970 F   0  0  0  0  0  0  0  0  0  0  0  0
  -20.9040   -5.4970   25.9160 F   0  0  0  0  0  0  0  0  0  0  0  0
  -24.2850  -14.2390   21.1630 C   0  0  0  0  0  0  0  0  0  0  0  0
  -23.6090  -13.5430   22.0690 N   0  0  0  0  0  0  0  0  0  0  0  0
  -23.8540  -15.3040   20.7250 O   0  0  0  0  0  0  0  0  0  0  0  0
  -23.9690  -12.6760   22.4420 H   0  0  0  0  0  0  0  0  0  0  0  0
  -22.7150  -13.8830   22.3960 H   0  0  0  0  0  0  0  0  0  0  0  0
  -26.9310  -15.8090   20.2040 N   0  0  0  0  0  0  0  0  0  0  0  0
  -26.2320  -16.5040   20.4370 H   0  0  0  0  0  0  0  0  0  0  0  0
  -27.8070  -16.2190   19.9060 H   0  0  0  0  0  0  0  0  0  0  0  0
  -30.3200  -22.7330   19.1610 C   0  0  0  0  0  2  0  0  0  0  0  0
  -29.7260  -24.0600   19.8960 C   0  0  0  0  0  3  0  0  0  0  0  0
  -29.6430  -25.4560   19.0740 C   0  0  0  0  0  3  0  0  0  0  0  0
  -29.3450  -26.7900   19.7060 O   0  0  0  0  0  0  0  0  0  0  0  0
  -24.7350  -31.3040   23.0040 C   0  0  0  0  0  0  0  0  0  0  0  0
  -28.1030  -27.4680   19.6520 C   0  0  0  0  0  0  0  0  0  0  0  0
  -23.8100  -29.9210   21.1810 C   0  0  0  0  0  3  0  0  0  0  0  0
  -25.5230  -28.7460   19.6830 C   0  0  0  0  0  0  0  0  0  0  0  0
  -26.2830  -30.6110   21.1530 C   0  0  0  0  0  2  0  0  0  0  0  0
  -26.5870  -29.3270   20.3810 C   0  0  0  0  0  0  0  0  0  0  0  0
  -27.8730  -28.7000   20.3560 C   0  0  0  0  0  3  0  0  0  0  0  0
  -26.9990  -26.9430   18.9400 C   0  0  0  0  0  3  0  0  0  0  0  0
  -25.7330  -27.5650   18.9540 C   0  0  0  0  0  3  0  0  0  0  0  0
  -24.1680  -29.4260   19.7550 C   0  0  0  0  0  2  0  0  0  0  0  0
  -24.9570  -30.6270   21.8380 N   0  0  0  0  0  0  0  0  0  0  0  0
  -23.6040  -31.3660   23.5090 O   0  0  0  0  0  0  0  0  0  0  0  0
  -23.2730  -28.7270   22.0070 C   0  0  0  0  0  0  0  0  0  0  0  0
  -21.9910  -28.3780   21.8060 N   0  0  0  0  0  0  0  0  0  0  0  0
  -24.0100  -28.1220   22.7910 O   0  0  0  0  0  0  0  0  0  0  0  0
  -21.4480  -28.9280   21.1550 H   0  0  0  0  0  0  0  0  0  0  0  0
  -18.8010  -26.6870   22.0600 C   0  0  0  0  0  0  0  0  0  0  0  0
  -21.2940  -27.2590   22.4430 C   0  0  0  0  0  3  0  0  0  0  0  0
  -21.6020  -25.9260   21.7220 C   0  0  0  0  0  2  0  0  0  0  0  0
  -20.5750  -25.5720   20.6430 C   0  0  0  0  0  2  0  0  0  0  0  0
  -19.1740  -25.4580   21.2490 C   0  0  0  0  0  2  0  0  0  0  0  0
  -19.7950  -27.5410   22.6060 C   0  0  0  0  0  0  0  0  0  0  0  0
  -19.3900  -28.6900   23.3230 C   0  0  0  0  0  3  0  0  0  0  0  0
  -18.0250  -28.9870   23.4960 C   0  0  0  0  0  3  0  0  0  0  0  0
  -17.0460  -28.1300   22.9630 C   0  0  0  0  0  3  0  0  0  0  0  0
  -17.4340  -26.9810   22.2530 C   0  0  0  0  0  3  0  0  0  0  0  0
  -25.8860  -32.0500   23.7470 C   0  0  0  0  0  3  0  0  0  0  0  0
  -26.4300  -31.2610   25.0010 C   0  0  1  0  0  0  0  0  0  0  0  0
  -25.3200  -30.7790   25.9640 C   0  0  0  0  0  1  0  0  0  0  0  0
  -27.2360  -30.0180   24.5550 C   0  0  0  0  0  1  0  0  0  0  0  0
  -27.4060  -32.1560   25.7990 C   0  0  0  0  0  1  0  0  0  0  0  0
  -25.3760  -33.3690   24.1510 N   0  0  0  0  0  0  0  0  0  0  0  0
  -25.5880  -34.5070   23.4770 C   0  0  0  0  0  0  0  0  0  0  0  0
  -26.3030  -34.5640   22.4720 O   0  0  0  0  0  0  0  0  0  0  0  0
  -24.7380  -33.3870   24.9340 H   0  0  0  0  0  0  0  0  0  0  0  0
  -23.6400  -36.0670   23.1650 C   0  0  0  0  0  1  0  0  0  0  0  0
  -24.9000  -35.7840   23.9980 C   0  0  0  0  0  3  0  0  0  0  0  0
  -26.8570  -36.9020   24.9720 C   0  0  0  0  0  1  0  0  0  0  0  0
  -25.7800  -36.9730   23.9880 N   0  0  0  0  0  0  0  0  0  0  0  0
  -25.2460  -37.8200   24.1630 H   0  0  0  0  0  0  0  0  0  0  0  0
  1  4  1  0
  2  5  2  0
  3  6  2  0
  5  1  2  0
  6  1  1  0
  7  2  1  0
  7  3  1  0
  9  8  1  0
  9  3  1  0
  9 19  1  0
 10 19  1  0
 11 16  1  0
 12 13  1  0
 12 11  1  0
 14 13  1  0
 14 23  1  0
 14 15  1  0
 16 10  1  0
 16 15  1  0
 17 10  2  0
 19 18  1  0
 20 21  2  0
 21 40  1  0
 22 21  1  0
 22 25  1  0
 23 24  1  0
 23 20  1  0
 24 22  2  0
 25 26  1  0
 26 27  2  0
 28 31  1  0
 28 27  1  0
 29 28  2  0
 30 29  1  0
 30 25  2  0
 31 32  1  0
 32 37  2  0
 32 33  1  0
 33 34  2  0
 34 35  1  0
 35 39  1  0
 36 35  2  0
 37 36  1  0
 38 37  1  0
 40 41  1  0
 41 44  1  0
 41 43  1  0
 42 40  2  0
 45 20  1  0
 45 46  1  0
 47 45  1  0
 48  2  1  0
 48 49  1  0
 50 51  1  0
 50 49  2  0
 52 63  2  0
 53 51  1  0
 53 58  1  0
 54 62  1  0
 54 64  1  0
 55 61  1  0
 55 57  1  0
 56 62  1  0
 57 56  1  0
 58 57  2  0
 59 60  1  0
 59 53  2  0
 60 55  2  0
 61 54  1  0
 62 52  1  0
 64 66  2  0
 65 64  1  0
 67 65  1  0
 68 77  2  0
 68 73  1  0
 69 65  1  0
 69 73  1  0
 70 69  1  0
 71 72  1  0
 71 70  1  0
 72 68  1  0
 73 74  2  0
 74 75  1  0
 76 75  2  0
 77 76  1  0
 78 52  1  0
 78 83  1  0
 78 79  1  0
 79 82  1  1
 79 80  1  0
 81 79  1  0
 83 86  1  0
 84 88  1  0
 84 83  1  0
 85 84  2  0
 88 87  1  0
 90 88  1  0
 90 91  1  0
 90 89  1  0
M  ISO  4  10 100  19 100  50 101  51 101
M  END
>  <TORSDO>  (31) 
F 20

>  <SCORE>  (31) 
-7.645

>  <name>  (31) 
30

>  <ligand_id>  (31) 
30

>  <original_smiles>  (31) 
[H]c1c([H])c([H])c2c(c1[H])C([H])([H])C([H])([H])C([H])([H])C2([H])N([H])C(=O)C1([H])N(C(=O)C([H])(N([H])C(=O)C([H])(N([H])C([H])([H])[H])C([H])([H])[H])C(C([H])([H])[H])(C([H])([H])[H])C([H])([H])[H])C([H])([H])c2c([H])c(OC([H])([H])C([H])([H])C([H])([H])c3nc(C([H])([H])[H])nc(C([H])(N(C(=O)N4C([H])([H])C([H])([H])C([H])([H])C([H])(n5nc(-c6c([H])c([H])c(Oc7c([H])c([H])c(F)c([H])c7F)c([H])c6[H])c(C(=O)N([H])[H])c5N([H])[H])C4([H])[H])C([H])([H])[H])C([H])([H])[H])n3)c([H])c([H])c2C1([H])[H]

>  <smiles>  (31) 
[H]c1c([H])c([H])c2c(c1[H])C([H])([H])C([H])([H])C([H])([H])C2([H])N([H])C(=O)C1([H])N(C(=O)C([H])(N([H])C(=O)C([H])(N([H])C([H])([H])[H])C([H])([H])[H])C(C([H])([H])[H])(C([H])([H])[H])C([H])([H])[H])C([H])([H])c2c([H])c(OC([H])([H])C([H])([H])C([H])([H])c3nc(C([H])([H])[H])nc(C([H])(N(C(=O)N4C([H])([H])C([H])([H])C([H])([H])C([H])(n5nc(-c6c([H])c([H])c(Oc7c([H])c([H])c(F)c([H])c7F)c([H])c6[H])c(C(=O)N([H])[H])c5N([H])[H])C4([H])[H])C([H])([H])[H])C([H])([H])[H])n3)c([H])c([H])c2C1([H])[H]

$$$$
31:0:0
     RDKit          3D

 89 97  0  0  1  0  0  0  0  0999 V2000
  -29.1820  -20.2610   19.1210 C   0  0  0  0  0  2  0  0  0  0  0  0
  -29.6800  -18.6800   20.4350 C   0  0  0  0  0  0  0  0  0  0  0  0
  -29.5580  -18.9620   19.0980 N   0  0  0  0  0  0  0  0  0  0  0  0
  -29.4080  -19.7720   21.2090 N   0  0  0  0  0  2  0  0  0  0  0  0
  -29.0950  -20.8200   20.3380 N   0  0  0  0  0  0  0  0  0  0  0  0
  -31.8250  -17.5110   21.1210 C   0  0  0  0  0  1  0  0  0  0  0  0
  -30.2960  -17.3390   21.0190 C   0  0  0  0  0  0  0  0  0  0  0  0
  -30.6030  -14.7830   20.2280 C   0  0  0  0  0  0  0  0  0  0  0  0
  -30.3560  -12.5260   19.1630 C   0  0  0  0  0  2  0  0  0  0  0  0
  -29.3920  -12.6130   17.9600 C   0  0  0  0  0  2  0  0  0  0  0  0
  -27.9320  -12.4330   18.4220 C   0  0  0  0  0  2  0  0  0  0  0  0
  -27.5870  -13.2990   19.6640 C   0  0  0  0  0  3  0  0  0  0  0  0
  -28.6740  -13.2010   20.7560 C   0  0  0  0  0  2  0  0  0  0  0  0
  -29.9490  -13.5720   20.1310 N   0  0  0  0  0  0  0  0  0  0  0  0
  -31.7820  -14.8500   19.8730 O   0  0  0  0  0  0  0  0  0  0  0  0
  -29.8800  -15.9240   20.5650 N   0  0  0  0  0  4  0  0  0  0  0  0
  -28.8930  -15.7560   20.6780 H   0  0  0  0  0  0  0  0  0  0  0  0
  -25.2130  -13.8710   20.4470 C   0  0  0  0  0  0  0  0  0  0  0  0
  -24.1600  -13.0890   20.8360 C   0  0  0  0  0  0  0  0  0  0  0  0
  -24.6300  -11.7420   20.7930 C   0  0  0  0  0  0  0  0  0  0  0  0
  -26.2570  -13.0000   20.1840 N   0  0  0  0  0  0  0  0  0  0  0  0
  -25.9140  -11.7130   20.4550 N   0  0  0  0  0  0  0  0  0  0  0  0
  -23.9140  -10.4740   20.9930 C   0  0  0  0  0  0  0  0  0  0  0  0
  -24.3620   -9.5110   21.9240 C   0  0  0  0  0  3  0  0  0  0  0  0
  -23.6430   -8.3100   22.1130 C   0  0  0  0  0  3  0  0  0  0  0  0
  -22.4650   -8.0620   21.3700 C   0  0  0  0  0  0  0  0  0  0  0  0
  -22.0370   -9.0140   20.4280 C   0  0  0  0  0  3  0  0  0  0  0  0
  -22.7550  -10.2060   20.2370 C   0  0  0  0  0  3  0  0  0  0  0  0
  -21.7200   -6.9120   21.4660 O   0  0  0  0  0  0  0  0  0  0  0  0
  -21.6810   -6.1750   22.6240 C   0  0  0  0  0  0  0  0  0  0  0  0
  -21.2460   -6.7300   23.8470 C   0  0  0  0  0  3  0  0  0  0  0  0
  -21.1550   -5.9190   24.9950 C   0  0  0  0  0  3  0  0  0  0  0  0
  -21.4910   -4.5540   24.9220 C   0  0  0  0  0  0  0  0  0  0  0  0
  -21.9220   -3.9980   23.7030 C   0  0  0  0  0  3  0  0  0  0  0  0
  -22.0130   -4.8070   22.5570 C   0  0  0  0  0  0  0  0  0  0  0  0
  -22.4080   -4.2630   21.3810 F   0  0  0  0  0  0  0  0  0  0  0  0
  -21.3970   -3.7710   26.0220 F   0  0  0  0  0  0  0  0  0  0  0  0
  -22.7650  -13.5590   21.1330 C   0  0  0  0  0  0  0  0  0  0  0  0
  -22.0540  -12.8560   22.0080 N   0  0  0  0  0  0  0  0  0  0  0  0
  -22.3150  -14.5850   20.6270 O   0  0  0  0  0  0  0  0  0  0  0  0
  -22.4330  -12.0270   22.4430 H   0  0  0  0  0  0  0  0  0  0  0  0
  -21.1210  -13.1550   22.2500 H   0  0  0  0  0  0  0  0  0  0  0  0
  -25.3620  -15.2430   20.2700 N   0  0  0  0  0  0  0  0  0  0  0  0
  -24.5820  -15.8810   20.3850 H   0  0  0  0  0  0  0  0  0  0  0  0
  -26.1810  -15.6910   19.8810 H   0  0  0  0  0  0  0  0  0  0  0  0
  -28.5330  -22.1710   20.8170 C   0  0  0  0  0  2  0  0  0  0  0  0
  -28.8920  -23.6220   20.1580 C   0  0  0  0  0  3  0  0  0  0  0  0
  -28.0860  -24.9400   20.6970 C   0  0  0  0  0  3  0  0  0  0  0  0
  -28.3390  -26.3710   20.2670 O   0  0  0  0  0  0  0  0  0  0  0  0
  -24.5980  -31.8790   23.2430 C   0  0  0  0  0  0  0  0  0  0  0  0
  -27.2480  -27.2760   20.2300 C   0  0  0  0  0  0  0  0  0  0  0  0
  -23.4190  -30.4780   21.5880 C   0  0  0  0  0  3  0  0  0  0  0  0
  -24.8920  -28.9270   20.1770 C   0  0  0  0  0  0  0  0  0  0  0  0
  -25.9650  -30.7880   21.4410 C   0  0  0  0  0  2  0  0  0  0  0  0
  -26.0560  -29.4050   20.7930 C   0  0  0  0  0  0  0  0  0  0  0  0
  -27.2400  -28.5940   20.8050 C   0  0  0  0  0  3  0  0  0  0  0  0
  -26.0640  -26.8720   19.5760 C   0  0  0  0  0  3  0  0  0  0  0  0
  -24.9010  -27.6680   19.5570 C   0  0  0  0  0  3  0  0  0  0  0  0
  -23.6560  -29.8050   20.2100 C   0  0  0  0  0  2  0  0  0  0  0  0
  -24.6790  -31.0670   22.1460 N   0  0  0  0  0  0  0  0  0  0  0  0
  -23.5060  -32.1530   23.7620 O   0  0  0  0  0  0  0  0  0  0  0  0
  -22.7460  -29.4590   22.5400 C   0  0  0  0  0  0  0  0  0  0  0  0
  -21.4210  -29.2830   22.4040 N   0  0  0  0  0  0  0  0  0  0  0  0
  -23.4170  -28.8300   23.3620 O   0  0  0  0  0  0  0  0  0  0  0  0
  -20.9370  -29.8440   21.7160 H   0  0  0  0  0  0  0  0  0  0  0  0
  -18.0370  -28.0890   22.8800 C   0  0  0  0  0  0  0  0  0  0  0  0
  -20.5950  -28.3430   23.1640 C   0  0  0  0  0  3  0  0  0  0  0  0
  -20.6970  -26.9130   22.5810 C   0  0  0  0  0  2  0  0  0  0  0  0
  -19.5990  -26.5990   21.5600 C   0  0  0  0  0  2  0  0  0  0  0  0
  -18.2140  -26.7430   22.1970 C   0  0  0  0  0  2  0  0  0  0  0  0
  -19.1550  -28.8460   23.3210 C   0  0  0  0  0  0  0  0  0  0  0  0
  -18.9350  -30.1060   23.9190 C   0  0  0  0  0  3  0  0  0  0  0  0
  -17.6290  -30.6080   24.0810 C   0  0  0  0  0  3  0  0  0  0  0  0
  -16.5250  -29.8460   23.6570 C   0  0  0  0  0  3  0  0  0  0  0  0
  -16.7310  -28.5880   23.0630 C   0  0  0  0  0  3  0  0  0  0  0  0
  -25.8690  -32.5170   23.8820 C   0  0  0  0  0  3  0  0  0  0  0  0
  -26.3590  -31.7590   25.1770 C   0  0  1  0  0  0  0  0  0  0  0  0
  -25.2450  -31.5360   26.2260 C   0  0  0  0  0  1  0  0  0  0  0  0
  -26.9450  -30.3760   24.8110 C   0  0  0  0  0  1  0  0  0  0  0  0
  -27.4980  -32.5580   25.8510 C   0  0  0  0  0  1  0  0  0  0  0  0
  -25.5560  -33.9180   24.1960 N   0  0  0  0  0  0  0  0  0  0  0  0
  -25.8980  -34.9660   23.4330 C   0  0  0  0  0  0  0  0  0  0  0  0
  -26.5790  -34.8530   22.4110 O   0  0  0  0  0  0  0  0  0  0  0  0
  -24.9550  -34.0810   24.9910 H   0  0  0  0  0  0  0  0  0  0  0  0
  -24.1800  -36.7590   23.0410 C   0  0  0  0  0  1  0  0  0  0  0  0
  -25.4080  -36.3590   23.8740 C   0  0  0  0  0  3  0  0  0  0  0  0
  -27.5310  -37.2450   24.7320 C   0  0  0  0  0  1  0  0  0  0  0  0
  -26.4440  -37.4090   23.7690 N   0  0  0  0  0  0  0  0  0  0  0  0
  -26.0380  -38.3310   23.9040 H   0  0  0  0  0  0  0  0  0  0  0  0
  1  5  1  0
  2  7  1  0
  2  4  1  0
  3  1  1  0
  3  2  2  0
  5 46  1  0
  5  4  1  0
  7  6  1  0
  8 16  1  0
  9 14  1  0
 10 11  1  0
 10  9  1  0
 12 11  1  0
 12 21  1  0
 12 13  1  0
 14  8  1  0
 14 13  1  0
 15  8  2  0
 16 17  1  0
 16  7  2  0
 18 19  2  0
 19 38  1  0
 20 19  1  0
 20 23  1  0
 21 18  1  0
 21 22  1  0
 22 20  2  0
 23 24  1  0
 24 25  2  0
 26 29  1  0
 26 25  1  0
 27 26  2  0
 28 27  1  0
 28 23  2  0
 29 30  1  0
 30 31  1  0
 31 32  2  0
 33 32  1  0
 33 37  1  0
 34 33  2  0
 35 30  2  0
 35 34  1  0
 36 35  1  0
 38 39  1  0
 39 42  1  0
 39 41  1  0
 40 38  2  0
 43 44  1  0
 43 18  1  0
 45 43  1  0
 47 48  2  0
 47 46  1  0
 49 48  1  0
 50 61  2  0
 51 49  1  0
 51 56  1  0
 52 60  1  0
 52 62  1  0
 53 59  1  0
 53 55  1  0
 54 60  1  0
 55 56  2  0
 55 54  1  0
 57 51  2  0
 58 57  1  0
 58 53  2  0
 59 52  1  0
 60 50  1  0
 62 64  2  0
 63 62  1  0
 65 63  1  0
 66 75  2  0
 66 71  1  0
 67 63  1  0
 67 71  1  0
 68 67  1  0
 69 70  1  0
 69 68  1  0
 70 66  1  0
 71 72  2  0
 72 73  1  0
 74 73  2  0
 75 74  1  0
 76 50  1  0
 76 81  1  0
 76 77  1  0
 77 80  1  1
 77 78  1  0
 79 77  1  0
 81 84  1  0
 82 86  1  0
 82 81  1  0
 83 82  2  0
 86 85  1  0
 88 86  1  0
 88 89  1  0
 88 87  1  0
M  ISO  4   8 100  16 100  48 101  49 101
M  END
>  <TORSDO>  (32) 
F 20

>  <SCORE>  (32) 
-13.769

>  <name>  (32) 
31

>  <ligand_id>  (32) 
31

>  <original_smiles>  (32) 
[H]c1c([H])c([H])c2c(c1[H])C([H])([H])C([H])([H])C([H])([H])C2([H])N([H])C(=O)C1([H])N(C(=O)C([H])(N([H])C(=O)C([H])(N([H])C([H])([H])[H])C([H])([H])[H])C(C([H])([H])[H])(C([H])([H])[H])C([H])([H])[H])C([H])([H])c2c([H])c(OC([H])([H])C([H])([H])C([H])([H])n3nc(C([H])(N([H])C(=O)N4C([H])([H])C([H])([H])C([H])([H])C([H])(n5nc(-c6c([H])c([H])c(Oc7c([H])c([H])c(F)c([H])c7F)c([H])c6[H])c(C(=O)N([H])[H])c5N([H])[H])C4([H])[H])C([H])([H])[H])nc3[H])c([H])c([H])c2C1([H])[H]

>  <smiles>  (32) 
[H]c1c([H])c([H])c2c(c1[H])C([H])([H])C([H])([H])C([H])([H])C2([H])N([H])C(=O)C1([H])N(C(=O)C([H])(N([H])C(=O)C([H])(N([H])C([H])([H])[H])C([H])([H])[H])C(C([H])([H])[H])(C([H])([H])[H])C([H])([H])[H])C([H])([H])c2c([H])c(OC([H])([H])C([H])([H])C([H])([H])n3nc(C([H])(N([H])C(=O)N4C([H])([H])C([H])([H])C([H])([H])C([H])(n5nc(-c6c([H])c([H])c(Oc7c([H])c([H])c(F)c([H])c7F)c([H])c6[H])c(C(=O)N([H])[H])c5N([H])[H])C4([H])[H])C([H])([H])[H])nc3[H])c([H])c([H])c2C1([H])[H]

$$$$
32:0:0
     RDKit          3D

 88 96  0  0  1  0  0  0  0  0999 V2000
  -29.1130  -21.7070   20.4910 C   0  0  0  0  0  2  0  0  0  0  0  0
  -27.8340  -20.3840   18.8180 C   0  0  0  0  0  3  0  0  0  0  0  0
  -29.2410  -18.9490   19.5290 C   0  0  0  0  0  0  0  0  0  0  0  0
  -27.5540  -19.2670   18.1580 N   0  0  0  0  0  0  0  0  0  0  0  0
  -28.4600  -18.3550   18.6110 N   0  0  0  0  0  0  0  0  0  0  0  0
  -28.8640  -20.3600   19.6850 N   0  0  0  0  0  0  0  0  0  0  0  0
  -30.3500  -17.8850   20.0850 C   0  0  0  0  0  2  0  0  0  0  0  0
  -30.7250  -15.1180   19.9940 C   0  0  0  0  0  0  0  0  0  0  0  0
  -30.6120  -12.7650   18.9920 C   0  0  0  0  0  2  0  0  0  0  0  0
  -29.6130  -12.6860   17.8100 C   0  0  0  0  0  2  0  0  0  0  0  0
  -28.1720  -12.4460   18.3050 C   0  0  0  0  0  2  0  0  0  0  0  0
  -27.8160  -13.3420   19.5180 C   0  0  0  0  0  3  0  0  0  0  0  0
  -28.9310  -13.2920   20.5830 C   0  0  0  0  0  2  0  0  0  0  0  0
  -30.1450  -13.8320   19.9380 N   0  0  0  0  0  0  0  0  0  0  0  0
  -31.8880  -15.1820   19.5740 O   0  0  0  0  0  0  0  0  0  0  0  0
  -28.9500  -16.3010   21.3180 C   0  0  0  0  0  1  0  0  0  0  0  0
  -29.9920  -16.3350   20.2880 N   0  0  0  0  0  0  0  0  0  0  0  0
  -25.4670  -13.9030   20.3700 C   0  0  0  0  0  0  0  0  0  0  0  0
  -24.4250  -13.1190   20.7810 C   0  0  0  0  0  0  0  0  0  0  0  0
  -24.8900  -11.7710   20.7000 C   0  0  0  0  0  0  0  0  0  0  0  0
  -26.5020  -13.0330   20.0690 N   0  0  0  0  0  0  0  0  0  0  0  0
  -26.1660  -11.7430   20.3290 N   0  0  0  0  0  0  0  0  0  0  0  0
  -24.1740  -10.5040   20.8960 C   0  0  0  0  0  0  0  0  0  0  0  0
  -24.5960   -9.5570   21.8540 C   0  0  0  0  0  3  0  0  0  0  0  0
  -23.8780   -8.3560   22.0380 C   0  0  0  0  0  3  0  0  0  0  0  0
  -22.7240   -8.0940   21.2610 C   0  0  0  0  0  0  0  0  0  0  0  0
  -22.3220   -9.0300   20.2920 C   0  0  0  0  0  3  0  0  0  0  0  0
  -23.0410  -10.2220   20.1070 C   0  0  0  0  0  3  0  0  0  0  0  0
  -21.9780   -6.9440   21.3530 O   0  0  0  0  0  0  0  0  0  0  0  0
  -21.8380   -6.2690   22.5390 C   0  0  0  0  0  0  0  0  0  0  0  0
  -21.2760   -6.8800   23.6810 C   0  0  0  0  0  3  0  0  0  0  0  0
  -21.0880   -6.1290   24.8590 C   0  0  0  0  0  3  0  0  0  0  0  0
  -21.4510   -4.7690   24.8950 C   0  0  0  0  0  0  0  0  0  0  0  0
  -22.0060   -4.1580   23.7560 C   0  0  0  0  0  3  0  0  0  0  0  0
  -22.1960   -4.9060   22.5810 C   0  0  0  0  0  0  0  0  0  0  0  0
  -22.7110   -4.3080   21.4800 F   0  0  0  0  0  0  0  0  0  0  0  0
  -21.2620   -4.0460   26.0230 F   0  0  0  0  0  0  0  0  0  0  0  0
  -23.0430  -13.5890   21.1290 C   0  0  0  0  0  0  0  0  0  0  0  0
  -22.3570  -12.8740   22.0140 N   0  0  0  0  0  0  0  0  0  0  0  0
  -22.5820  -14.6250   20.6530 O   0  0  0  0  0  0  0  0  0  0  0  0
  -22.7450  -12.0360   22.4210 H   0  0  0  0  0  0  0  0  0  0  0  0
  -21.4320  -13.1700   22.2900 H   0  0  0  0  0  0  0  0  0  0  0  0
  -25.6030  -15.2770   20.2000 N   0  0  0  0  0  0  0  0  0  0  0  0
  -24.8270  -15.9130   20.3480 H   0  0  0  0  0  0  0  0  0  0  0  0
  -26.4130  -15.7300   19.7960 H   0  0  0  0  0  0  0  0  0  0  0  0
  -28.8720  -23.2950   19.8670 C   0  0  0  0  0  2  0  0  0  0  0  0
  -28.2350  -24.6770   20.6400 C   0  0  0  0  0  2  0  0  0  0  0  0
  -28.3960  -26.2040   20.3020 O   0  0  0  0  0  0  0  0  0  0  0  0
  -24.6650  -31.8980   23.2510 C   0  0  0  0  0  0  0  0  0  0  0  0
  -27.3110  -27.1620   20.2970 C   0  0  0  0  0  0  0  0  0  0  0  0
  -23.4890  -30.4700   21.6200 C   0  0  0  0  0  3  0  0  0  0  0  0
  -24.9610  -28.8850   20.2290 C   0  0  0  0  0  0  0  0  0  0  0  0
  -26.0400  -30.7570   21.4660 C   0  0  0  0  0  2  0  0  0  0  0  0
  -26.1340  -29.3550   20.8340 C   0  0  0  0  0  0  0  0  0  0  0  0
  -27.3110  -28.5120   20.8420 C   0  0  0  0  0  3  0  0  0  0  0  0
  -26.1080  -26.7890   19.6620 C   0  0  0  0  0  3  0  0  0  0  0  0
  -24.9620  -27.6160   19.6270 C   0  0  0  0  0  3  0  0  0  0  0  0
  -23.7250  -29.7740   20.2540 C   0  0  0  0  0  2  0  0  0  0  0  0
  -24.7510  -31.0650   22.1670 N   0  0  0  0  0  0  0  0  0  0  0  0
  -23.5720  -32.1760   23.7690 O   0  0  0  0  0  0  0  0  0  0  0  0
  -22.8120  -29.4700   22.5930 C   0  0  0  0  0  0  0  0  0  0  0  0
  -21.4870  -29.2850   22.4590 N   0  0  0  0  0  0  0  0  0  0  0  0
  -23.4850  -28.8630   23.4300 O   0  0  0  0  0  0  0  0  0  0  0  0
  -21.0010  -29.8260   21.7580 H   0  0  0  0  0  0  0  0  0  0  0  0
  -18.1110  -28.0690   22.9710 C   0  0  0  0  0  0  0  0  0  0  0  0
  -20.6700  -28.3470   23.2360 C   0  0  0  0  0  3  0  0  0  0  0  0
  -20.7790  -26.9130   22.6700 C   0  0  0  0  0  2  0  0  0  0  0  0
  -19.6790  -26.5760   21.6580 C   0  0  0  0  0  2  0  0  0  0  0  0
  -18.2970  -26.7160   22.3020 C   0  0  0  0  0  2  0  0  0  0  0  0
  -19.2260  -28.8410   23.3940 C   0  0  0  0  0  0  0  0  0  0  0  0
  -18.9980  -30.1050   23.9820 C   0  0  0  0  0  3  0  0  0  0  0  0
  -17.6900  -30.5960   24.1480 C   0  0  0  0  0  3  0  0  0  0  0  0
  -16.5910  -29.8210   23.7390 C   0  0  0  0  0  3  0  0  0  0  0  0
  -16.8020  -28.5590   23.1560 C   0  0  0  0  0  3  0  0  0  0  0  0
  -25.9320  -32.5540   23.8790 C   0  0  0  0  0  3  0  0  0  0  0  0
  -26.4370  -31.8090   25.1760 C   0  0  1  0  0  0  0  0  0  0  0  0
  -25.3320  -31.5780   26.2340 C   0  0  0  0  0  1  0  0  0  0  0  0
  -27.0390  -30.4300   24.8190 C   0  0  0  0  0  1  0  0  0  0  0  0
  -27.5710  -32.6250   25.8400 C   0  0  0  0  0  1  0  0  0  0  0  0
  -25.6050  -33.9540   24.1900 N   0  0  0  0  0  0  0  0  0  0  0  0
  -25.9440  -35.0060   23.4310 C   0  0  0  0  0  0  0  0  0  0  0  0
  -26.6310  -34.8980   22.4110 O   0  0  0  0  0  0  0  0  0  0  0  0
  -24.9960  -34.1110   24.9790 H   0  0  0  0  0  0  0  0  0  0  0  0
  -24.2210  -36.7980   23.0310 C   0  0  0  0  0  1  0  0  0  0  0  0
  -25.4450  -36.3960   23.8710 C   0  0  0  0  0  3  0  0  0  0  0  0
  -27.5550  -37.2950   24.7510 C   0  0  0  0  0  1  0  0  0  0  0  0
  -26.4780  -37.4510   23.7770 N   0  0  0  0  0  0  0  0  0  0  0  0
  -26.0660  -38.3720   23.9040 H   0  0  0  0  0  0  0  0  0  0  0  0
  2  6  1  0
  3  6  1  0
  3  7  1  0
  4  5  1  0
  4  2  2  0
  5  3  2  0
  6  1  1  0
  7 17  1  0
  8 17  1  0
  9 14  1  0
 10 11  1  0
 10  9  1  0
 12 11  1  0
 12 21  1  0
 12 13  1  0
 14  8  1  0
 14 13  1  0
 15  8  2  0
 17 16  1  0
 18 19  2  0
 19 38  1  0
 20 19  1  0
 20 23  1  0
 21 22  1  0
 21 18  1  0
 22 20  2  0
 23 24  1  0
 24 25  2  0
 26 29  1  0
 26 25  1  0
 27 26  2  0
 28 27  1  0
 28 23  2  0
 29 30  1  0
 30 35  2  0
 30 31  1  0
 31 32  2  0
 32 33  1  0
 33 37  1  0
 34 33  2  0
 35 34  1  0
 36 35  1  0
 38 39  1  0
 39 42  1  0
 39 41  1  0
 40 38  2  0
 43 44  1  0
 43 18  1  0
 45 43  1  0
 46  1  1  0
 46 47  1  0
 48 47  1  0
 49 60  2  0
 50 48  1  0
 50 55  1  0
 51 59  1  0
 51 61  1  0
 52 58  1  0
 52 54  1  0
 53 59  1  0
 54 55  2  0
 54 53  1  0
 56 50  2  0
 57 56  1  0
 57 52  2  0
 58 51  1  0
 59 49  1  0
 61 63  2  0
 62 61  1  0
 64 62  1  0
 65 74  2  0
 65 70  1  0
 66 62  1  0
 66 70  1  0
 67 66  1  0
 68 69  1  0
 68 67  1  0
 69 65  1  0
 70 71  2  0
 71 72  1  0
 73 72  2  0
 74 73  1  0
 75 49  1  0
 75 80  1  0
 75 76  1  0
 76 79  1  1
 76 77  1  0
 78 76  1  0
 80 83  1  0
 81 85  1  0
 81 80  1  0
 82 81  2  0
 85 84  1  0
 87 85  1  0
 87 88  1  0
 87 86  1  0
M  ISO  4   8 100  17 100  47 101  48 101
M  END
>  <TORSDO>  (33) 
F 20

>  <SCORE>  (33) 
-14.501

>  <name>  (33) 
32

>  <ligand_id>  (33) 
32

>  <original_smiles>  (33) 
[H]c1c([H])c([H])c2c(c1[H])C([H])([H])C([H])([H])C([H])([H])C2([H])N([H])C(=O)C1([H])N(C(=O)C([H])(N([H])C(=O)C([H])(N([H])C([H])([H])[H])C([H])([H])[H])C(C([H])([H])[H])(C([H])([H])[H])C([H])([H])[H])C([H])([H])c2c([H])c(OC([H])([H])C([H])([H])C([H])([H])n3c([H])nnc3C([H])([H])N(C(=O)N3C([H])([H])C([H])([H])C([H])([H])C([H])(n4nc(-c5c([H])c([H])c(Oc6c([H])c([H])c(F)c([H])c6F)c([H])c5[H])c(C(=O)N([H])[H])c4N([H])[H])C3([H])[H])C([H])([H])[H])c([H])c([H])c2C1([H])[H]

>  <smiles>  (33) 
[H]c1c([H])c([H])c2c(c1[H])C([H])([H])C([H])([H])C([H])([H])C2([H])N([H])C(=O)C1([H])N(C(=O)C([H])(N([H])C(=O)C([H])(N([H])C([H])([H])[H])C([H])([H])[H])C(C([H])([H])[H])(C([H])([H])[H])C([H])([H])[H])C([H])([H])c2c([H])c(OC([H])([H])C([H])([H])C([H])([H])n3c([H])nnc3C([H])([H])N(C(=O)N3C([H])([H])C([H])([H])C([H])([H])C([H])(n4nc(-c5c([H])c([H])c(Oc6c([H])c([H])c(F)c([H])c6F)c([H])c5[H])c(C(=O)N([H])[H])c4N([H])[H])C3([H])[H])C([H])([H])[H])c([H])c([H])c2C1([H])[H]

$$$$
33:0:0
     RDKit          3D

 90 98  0  0  1  0  0  0  0  0999 V2000
  -30.5840  -20.7660   20.8280 C   0  0  0  0  0  3  0  0  0  0  0  0
  -28.8070  -19.7010   20.1940 C   0  0  0  0  0  3  0  0  0  0  0  0
  -29.2030  -20.9920   20.5460 C   0  0  0  0  0  0  0  0  0  0  0  0
  -30.9710  -19.4930   20.6710 N   0  0  0  0  0  0  0  0  0  0  0  0
  -29.8770  -18.7850   20.2850 N   0  0  0  0  0  0  0  0  0  0  0  0
  -28.3550  -22.3150   20.7040 C   0  0  0  0  0  3  0  0  0  0  0  0
  -28.9330  -23.7870   20.3920 C   0  0  0  0  0  3  0  0  0  0  0  0
  -27.8470  -25.1750   22.2950 C   0  0  0  0  0  1  0  0  0  0  0  0
  -27.9890  -25.0400   20.7640 C   0  0  0  0  0  3  0  0  0  0  0  0
  -28.2960  -26.4200   20.2700 O   0  0  0  0  0  0  0  0  0  0  0  0
  -24.6290  -31.9020   23.2440 C   0  0  0  0  0  0  0  0  0  0  0  0
  -27.2150  -27.3210   20.1990 C   0  0  0  0  0  0  0  0  0  0  0  0
  -23.4200  -30.5010   21.6110 C   0  0  0  0  0  3  0  0  0  0  0  0
  -24.8660  -28.9520   20.1790 C   0  0  0  0  0  0  0  0  0  0  0  0
  -25.9630  -30.8130   21.4250 C   0  0  0  0  0  2  0  0  0  0  0  0
  -26.0370  -29.4340   20.7760 C   0  0  0  0  0  0  0  0  0  0  0  0
  -27.2190  -28.6290   20.7780 C   0  0  0  0  0  3  0  0  0  0  0  0
  -26.0310  -26.9120   19.5500 C   0  0  0  0  0  3  0  0  0  0  0  0
  -24.8650  -27.6970   19.5530 C   0  0  0  0  0  3  0  0  0  0  0  0
  -23.6300  -29.8260   20.2290 C   0  0  0  0  0  2  0  0  0  0  0  0
  -24.6900  -31.0900   22.1480 N   0  0  0  0  0  0  0  0  0  0  0  0
  -23.5490  -32.1820   23.7800 O   0  0  0  0  0  0  0  0  0  0  0  0
  -22.7610  -29.4840   22.5730 C   0  0  0  0  0  0  0  0  0  0  0  0
  -21.4340  -29.3070   22.4520 N   0  0  0  0  0  0  0  0  0  0  0  0
  -23.4420  -28.8610   23.3920 O   0  0  0  0  0  0  0  0  0  0  0  0
  -20.9470  -29.8590   21.7590 H   0  0  0  0  0  0  0  0  0  0  0  0
  -18.0580  -28.1190   22.9630 C   0  0  0  0  0  0  0  0  0  0  0  0
  -20.6160  -28.3760   23.2290 C   0  0  0  0  0  3  0  0  0  0  0  0
  -20.7150  -26.9420   22.6590 C   0  0  0  0  0  2  0  0  0  0  0  0
  -19.6100  -26.6160   21.6490 C   0  0  0  0  0  2  0  0  0  0  0  0
  -18.2300  -26.7680   22.2940 C   0  0  0  0  0  2  0  0  0  0  0  0
  -19.1780  -28.8820   23.3900 C   0  0  0  0  0  0  0  0  0  0  0  0
  -18.9600  -30.1470   23.9770 C   0  0  0  0  0  3  0  0  0  0  0  0
  -17.6550  -30.6490   24.1430 C   0  0  0  0  0  3  0  0  0  0  0  0
  -16.5500  -29.8830   23.7350 C   0  0  0  0  0  3  0  0  0  0  0  0
  -16.7520  -28.6210   23.1500 C   0  0  0  0  0  3  0  0  0  0  0  0
  -25.9160  -32.5350   23.8590 C   0  0  0  0  0  3  0  0  0  0  0  0
  -25.6090  -33.9340   24.1890 N   0  0  0  0  0  0  0  0  0  0  0  0
  -25.9360  -34.9860   23.4280 C   0  0  0  0  0  0  0  0  0  0  0  0
  -26.5990  -34.8810   22.3910 O   0  0  0  0  0  0  0  0  0  0  0  0
  -25.0240  -34.0880   24.9960 H   0  0  0  0  0  0  0  0  0  0  0  0
  -24.2070  -36.7800   23.0770 C   0  0  0  0  0  1  0  0  0  0  0  0
  -25.4510  -36.3740   23.8850 C   0  0  0  0  0  3  0  0  0  0  0  0
  -27.5900  -37.2570   24.7080 C   0  0  0  0  0  1  0  0  0  0  0  0
  -26.4820  -37.4280   23.7700 N   0  0  0  0  0  0  0  0  0  0  0  0
  -26.0780  -38.3470   23.9230 H   0  0  0  0  0  0  0  0  0  0  0  0
  -26.4360  -31.7660   25.1350 C   0  0  1  0  0  0  0  0  0  0  0  0
  -25.3480  -31.5320   26.2090 C   0  0  0  0  0  1  0  0  0  0  0  0
  -27.0170  -30.3860   24.7450 C   0  0  0  0  0  1  0  0  0  0  0  0
  -27.5890  -32.5630   25.7920 C   0  0  0  0  0  1  0  0  0  0  0  0
  -30.0320  -17.3370   19.8420 C   0  0  0  0  0  2  0  0  0  0  0  0
  -29.9180  -16.1010   20.8610 C   0  0  2  0  0  0  0  0  0  0  0  0
  -28.6220  -15.9470   21.1280 F   0  0  0  0  0  0  0  0  0  0  0  0
  -30.5300  -16.4500   21.9950 F   0  0  0  0  0  0  0  0  0  0  0  0
  -30.5830  -14.7190   20.3750 C   0  0  0  0  0  0  0  0  0  0  0  0
  -30.3540  -12.4600   19.3310 C   0  0  0  0  0  2  0  0  0  0  0  0
  -29.4110  -12.5700   18.1120 C   0  0  0  0  0  2  0  0  0  0  0  0
  -27.9370  -12.4200   18.5420 C   0  0  0  0  0  2  0  0  0  0  0  0
  -27.5840  -13.2800   19.7850 C   0  0  0  0  0  3  0  0  0  0  0  0
  -28.6510  -13.1270   20.8940 C   0  0  0  0  0  2  0  0  0  0  0  0
  -29.9470  -13.4950   20.3110 N   0  0  0  0  0  0  0  0  0  0  0  0
  -31.7430  -14.7930   19.9560 O   0  0  0  0  0  0  0  0  0  0  0  0
  -25.1970  -13.8790   20.5120 C   0  0  0  0  0  0  0  0  0  0  0  0
  -24.1270  -13.1080   20.8780 C   0  0  0  0  0  0  0  0  0  0  0  0
  -24.5860  -11.7550   20.8430 C   0  0  0  0  0  0  0  0  0  0  0  0
  -26.2380  -12.9980   20.2740 N   0  0  0  0  0  0  0  0  0  0  0  0
  -25.8770  -11.7140   20.5350 N   0  0  0  0  0  0  0  0  0  0  0  0
  -23.8570  -10.4950   21.0330 C   0  0  0  0  0  0  0  0  0  0  0  0
  -24.2980   -9.5210   21.9570 C   0  0  0  0  0  3  0  0  0  0  0  0
  -23.5700   -8.3240   22.1360 C   0  0  0  0  0  3  0  0  0  0  0  0
  -22.3860   -8.0960   21.3930 C   0  0  0  0  0  0  0  0  0  0  0  0
  -21.9670   -9.0590   20.4590 C   0  0  0  0  0  3  0  0  0  0  0  0
  -22.6940  -10.2460   20.2770 C   0  0  0  0  0  3  0  0  0  0  0  0
  -21.6290   -6.9520   21.4820 O   0  0  0  0  0  0  0  0  0  0  0  0
  -21.5990   -6.1980   22.6260 C   0  0  0  0  0  0  0  0  0  0  0  0
  -21.2050   -6.7410   23.8690 C   0  0  0  0  0  3  0  0  0  0  0  0
  -21.1210   -5.9120   25.0050 C   0  0  0  0  0  3  0  0  0  0  0  0
  -21.4200   -4.5410   24.9000 C   0  0  0  0  0  0  0  0  0  0  0  0
  -21.8080   -3.9970   23.6620 C   0  0  0  0  0  3  0  0  0  0  0  0
  -21.8940   -4.8230   22.5290 C   0  0  0  0  0  0  0  0  0  0  0  0
  -22.2480   -4.2890   21.3340 F   0  0  0  0  0  0  0  0  0  0  0  0
  -21.3320   -3.7410   25.9900 F   0  0  0  0  0  0  0  0  0  0  0  0
  -22.7320  -13.5910   21.1520 C   0  0  0  0  0  0  0  0  0  0  0  0
  -22.0010  -12.8960   22.0170 N   0  0  0  0  0  0  0  0  0  0  0  0
  -22.2970  -14.6180   20.6350 O   0  0  0  0  0  0  0  0  0  0  0  0
  -22.3620  -12.0650   22.4630 H   0  0  0  0  0  0  0  0  0  0  0  0
  -21.0660  -13.2050   22.2430 H   0  0  0  0  0  0  0  0  0  0  0  0
  -25.3660  -15.2490   20.3400 N   0  0  0  0  0  0  0  0  0  0  0  0
  -24.6130  -15.9120   20.4870 H   0  0  0  0  0  0  0  0  0  0  0  0
  -26.2390  -15.6920   20.0890 H   0  0  0  0  0  0  0  0  0  0  0  0
  2  5  1  0
  2  3  2  0
  3  6  1  0
  3  1  1  0
  4  1  2  0
  5  4  1  0
  7  6  2  0
  7  9  1  0
  9  8  1  0
 10  9  1  0
 11 22  2  0
 12 10  1  0
 12 17  1  0
 13 21  1  0
 13 23  1  0
 14 20  1  0
 14 16  1  0
 15 21  1  0
 16 17  2  0
 16 15  1  0
 18 19  1  0
 18 12  2  0
 19 14  2  0
 20 13  1  0
 21 11  1  0
 23 25  2  0
 24 23  1  0
 26 24  1  0
 27 36  2  0
 27 32  1  0
 28 24  1  0
 28 32  1  0
 29 28  1  0
 30 31  1  0
 30 29  1  0
 31 27  1  0
 32 33  2  0
 33 34  1  0
 35 34  2  0
 36 35  1  0
 37 11  1  0
 37 38  1  0
 37 47  1  0
 38 41  1  0
 39 43  1  0
 39 38  1  0
 40 39  2  0
 43 42  1  0
 45 43  1  0
 45 46  1  0
 45 44  1  0
 47 50  1  1
 47 48  1  0
 49 47  1  0
 51  5  1  0
 51 52  1  0
 52 53  1  1
 52 54  1  0
 55 52  1  0
 56 61  1  0
 57 58  1  0
 57 56  1  0
 59 58  1  0
 59 66  1  0
 59 60  1  0
 61 55  1  0
 61 60  1  0
 62 55  2  0
 63 64  2  0
 64 83  1  0
 65 64  1  0
 65 68  1  0
 66 63  1  0
 66 67  1  0
 67 65  2  0
 68 69  1  0
 69 70  2  0
 71 74  1  0
 71 70  1  0
 72 71  2  0
 73 72  1  0
 73 68  2  0
 74 75  1  0
 75 76  1  0
 76 77  2  0
 78 77  1  0
 78 82  1  0
 79 78  2  0
 80 75  2  0
 80 79  1  0
 81 80  1  0
 83 84  1  0
 84 87  1  0
 84 86  1  0
 85 83  2  0
 88 89  1  0
 88 63  1  0
 90 88  1  0
M  ISO  4   9 101  10 101  52 100  55 100
M  END
>  <TORSDO>  (34) 
F 21

>  <SCORE>  (34) 
-13.783

>  <name>  (34) 
33

>  <ligand_id>  (34) 
33

>  <original_smiles>  (34) 
[H]c1nn(C([H])([H])C(F)(F)C(=O)N2C([H])([H])C([H])([H])C([H])([H])C([H])(n3nc(-c4c([H])c([H])c(Oc5c([H])c([H])c(F)c([H])c5F)c([H])c4[H])c(C(=O)N([H])[H])c3N([H])[H])C2([H])[H])c([H])c1C([H])([H])C([H])([H])C([H])(Oc1c([H])c([H])c2c(c1[H])C([H])([H])N(C(=O)C([H])(N([H])C(=O)C([H])(N([H])C([H])([H])[H])C([H])([H])[H])C(C([H])([H])[H])(C([H])([H])[H])C([H])([H])[H])C([H])(C(=O)N([H])C1([H])c3c([H])c([H])c([H])c([H])c3C([H])([H])C([H])([H])C1([H])[H])C2([H])[H])C([H])([H])[H]

>  <smiles>  (34) 
[H]c1nn(C([H])([H])C(F)(F)C(=O)N2C([H])([H])C([H])([H])C([H])([H])C([H])(n3nc(-c4c([H])c([H])c(Oc5c([H])c([H])c(F)c([H])c5F)c([H])c4[H])c(C(=O)N([H])[H])c3N([H])[H])C2([H])[H])c([H])c1C([H])([H])C([H])([H])C([H])(Oc1c([H])c([H])c2c(c1[H])C([H])([H])N(C(=O)C([H])(N([H])C(=O)C([H])(N([H])C([H])([H])[H])C([H])([H])[H])C(C([H])([H])[H])(C([H])([H])[H])C([H])([H])[H])C([H])(C(=O)N([H])C1([H])c3c([H])c([H])c([H])c([H])c3C([H])([H])C([H])([H])C1([H])[H])C2([H])[H])C([H])([H])[H]

$$$$
34:0:0
     RDKit          3D

 84 91  0  0  1  0  0  0  0  0999 V2000
  -29.0610  -22.0340   20.3030 C   0  0  0  0  0  1  0  0  0  0  0  0
  -30.0070  -18.9860   20.1130 C   0  0  0  0  0  3  0  0  0  0  0  0
  -29.5540  -17.5420   20.1700 C   0  0  0  0  0  0  0  0  0  0  0  0
  -28.1900  -17.9960   20.3110 N   0  0  0  0  0  0  0  0  0  0  0  0
  -27.9250  -19.3590   20.3450 N   0  0  0  0  0  0  0  0  0  0  0  0
  -29.0250  -20.2040   20.1970 N   0  0  0  0  0  0  0  0  0  0  0  0
  -30.2840  -15.8000   20.0930 C   0  0  0  0  0  0  0  0  0  0  0  0
  -30.3890  -13.2180   19.3350 C   0  0  0  0  0  2  0  0  0  0  0  0
  -29.4910  -12.7710   18.1430 C   0  0  0  0  0  2  0  0  0  0  0  0
  -28.0840  -12.3940   18.6280 C   0  0  0  0  0  2  0  0  0  0  0  0
  -27.5730  -13.4050   19.6770 C   0  0  0  0  0  3  0  0  0  0  0  0
  -28.6120  -13.7810   20.7590 C   0  0  0  0  0  2  0  0  0  0  0  0
  -29.7680  -14.4160   20.0800 N   0  0  0  0  0  0  0  0  0  0  0  0
  -31.5100  -15.6780   19.8880 O   0  0  0  0  0  0  0  0  0  0  0  0
  -25.2410  -13.9020   20.5380 C   0  0  0  0  0  0  0  0  0  0  0  0
  -24.1970  -13.1100   20.9180 C   0  0  0  0  0  0  0  0  0  0  0  0
  -24.6710  -11.7630   20.8410 C   0  0  0  0  0  0  0  0  0  0  0  0
  -26.2790  -13.0430   20.2360 N   0  0  0  0  0  0  0  0  0  0  0  0
  -25.9540  -11.7460   20.4870 N   0  0  0  0  0  0  0  0  0  0  0  0
  -23.9530  -10.4930   21.0230 C   0  0  0  0  0  0  0  0  0  0  0  0
  -24.3880   -9.5200   21.9510 C   0  0  0  0  0  3  0  0  0  0  0  0
  -23.6640   -8.3220   22.1250 C   0  0  0  0  0  3  0  0  0  0  0  0
  -22.4890   -8.0850   21.3710 C   0  0  0  0  0  0  0  0  0  0  0  0
  -22.0710   -9.0460   20.4340 C   0  0  0  0  0  3  0  0  0  0  0  0
  -22.7970  -10.2370   20.2580 C   0  0  0  0  0  3  0  0  0  0  0  0
  -21.7360   -6.9370   21.4540 O   0  0  0  0  0  0  0  0  0  0  0  0
  -21.6610   -6.2080   22.6140 C   0  0  0  0  0  0  0  0  0  0  0  0
  -21.1780   -6.7670   23.8160 C   0  0  0  0  0  3  0  0  0  0  0  0
  -21.0520   -5.9630   24.9670 C   0  0  0  0  0  3  0  0  0  0  0  0
  -21.3990   -4.6000   24.9150 C   0  0  0  0  0  0  0  0  0  0  0  0
  -21.8770   -4.0400   23.7170 C   0  0  0  0  0  3  0  0  0  0  0  0
  -22.0050   -4.8410   22.5690 C   0  0  0  0  0  0  0  0  0  0  0  0
  -22.4440   -4.2910   21.4120 F   0  0  0  0  0  0  0  0  0  0  0  0
  -21.2720   -3.8250   26.0180 F   0  0  0  0  0  0  0  0  0  0  0  0
  -22.8070  -13.5740   21.2360 C   0  0  0  0  0  0  0  0  0  0  0  0
  -22.1090  -12.8650   22.1140 N   0  0  0  0  0  0  0  0  0  0  0  0
  -22.3510  -14.6050   20.7400 O   0  0  0  0  0  0  0  0  0  0  0  0
  -22.4930  -12.0330   22.5360 H   0  0  0  0  0  0  0  0  0  0  0  0
  -21.1770  -13.1590   22.3700 H   0  0  0  0  0  0  0  0  0  0  0  0
  -25.3920  -15.2790   20.3940 N   0  0  0  0  0  0  0  0  0  0  0  0
  -24.6330  -15.9270   20.5690 H   0  0  0  0  0  0  0  0  0  0  0  0
  -26.2460  -15.7420   20.1050 H   0  0  0  0  0  0  0  0  0  0  0  0
  -28.0110  -23.7050   20.1610 C   0  0  0  0  0  1  0  0  0  0  0  0
  -28.1560  -25.4890   20.3130 O   0  0  0  0  0  0  0  0  0  0  0  0
  -24.6690  -31.8640   23.2090 C   0  0  0  0  0  0  0  0  0  0  0  0
  -27.1930  -26.7280   20.2490 C   0  0  0  0  0  0  0  0  0  0  0  0
  -23.4910  -30.4720   21.5630 C   0  0  0  0  0  3  0  0  0  0  0  0
  -24.9420  -28.8060   20.1660 C   0  0  0  0  0  0  0  0  0  0  0  0
  -26.0740  -30.5860   21.4700 C   0  0  0  0  0  2  0  0  0  0  0  0
  -26.1350  -29.1480   20.8140 C   0  0  0  0  0  0  0  0  0  0  0  0
  -27.2430  -28.1380   20.8190 C   0  0  0  0  0  3  0  0  0  0  0  0
  -25.9660  -26.6100   19.5440 C   0  0  0  0  0  3  0  0  0  0  0  0
  -24.9000  -27.5650   19.5070 C   0  0  0  0  0  3  0  0  0  0  0  0
  -23.7430  -29.7700   20.1960 C   0  0  0  0  0  2  0  0  0  0  0  0
  -24.7700  -31.0090   22.1330 N   0  0  0  0  0  0  0  0  0  0  0  0
  -23.5720  -32.1720   23.7070 O   0  0  0  0  0  0  0  0  0  0  0  0
  -22.7560  -29.5030   22.5280 C   0  0  0  0  0  0  0  0  0  0  0  0
  -21.4240  -29.3550   22.3870 N   0  0  0  0  0  0  0  0  0  0  0  0
  -23.3980  -28.8810   23.3780 O   0  0  0  0  0  0  0  0  0  0  0  0
  -20.9560  -29.9070   21.6820 H   0  0  0  0  0  0  0  0  0  0  0  0
  -18.0270  -28.1470   22.8580 C   0  0  0  0  0  0  0  0  0  0  0  0
  -20.5840  -28.4230   23.1520 C   0  0  0  0  0  3  0  0  0  0  0  0
  -20.6940  -26.9870   22.5880 C   0  0  0  0  0  2  0  0  0  0  0  0
  -19.6080  -26.6570   21.5600 C   0  0  0  0  0  2  0  0  0  0  0  0
  -18.2180  -26.7990   22.1850 C   0  0  0  0  0  2  0  0  0  0  0  0
  -19.1380  -28.9170   23.2980 C   0  0  0  0  0  0  0  0  0  0  0  0
  -18.9030  -30.1750   23.8930 C   0  0  0  0  0  3  0  0  0  0  0  0
  -17.5930  -30.6660   24.0490 C   0  0  0  0  0  3  0  0  0  0  0  0
  -16.4980  -29.8960   23.6220 C   0  0  0  0  0  3  0  0  0  0  0  0
  -16.7160  -28.6370   23.0330 C   0  0  0  0  0  3  0  0  0  0  0  0
  -25.9280  -32.5110   23.8650 C   0  0  0  0  0  3  0  0  0  0  0  0
  -25.6080  -33.9150   24.1950 N   0  0  0  0  0  0  0  0  0  0  0  0
  -25.9210  -34.9780   23.4410 C   0  0  0  0  0  0  0  0  0  0  0  0
  -26.5650  -34.8800   22.3940 O   0  0  0  0  0  0  0  0  0  0  0  0
  -25.0300  -34.0630   25.0090 H   0  0  0  0  0  0  0  0  0  0  0  0
  -24.1650  -36.7670   23.1770 C   0  0  0  0  0  1  0  0  0  0  0  0
  -25.4500  -36.3680   23.9210 C   0  0  0  0  0  3  0  0  0  0  0  0
  -27.6150  -37.2830   24.6390 C   0  0  0  0  0  1  0  0  0  0  0  0
  -26.4670  -37.4300   23.7480 N   0  0  0  0  0  0  0  0  0  0  0  0
  -26.0600  -38.3480   23.9040 H   0  0  0  0  0  0  0  0  0  0  0  0
  -26.4040  -31.7540   25.1680 C   0  0  1  0  0  0  0  0  0  0  0  0
  -25.2820  -31.5420   26.2110 C   0  0  0  0  0  1  0  0  0  0  0  0
  -26.9840  -30.3640   24.8220 C   0  0  0  0  0  1  0  0  0  0  0  0
  -27.5440  -32.5470   25.8470 C   0  0  0  0  0  1  0  0  0  0  0  0
  2  3  2  0
  2  6  1  0
  3  4  1  0
  4  5  2  0
  6  1  1  0
  6  5  1  0
  7  3  1  0
  8 13  1  0
  9 10  1  0
  9  8  1  0
 11 10  1  0
 11 18  1  0
 11 12  1  0
 13  7  1  0
 13 12  1  0
 14  7  2  0
 15 16  2  0
 16 35  1  0
 17 16  1  0
 17 20  1  0
 18 19  1  0
 18 15  1  0
 19 17  2  0
 20 21  1  0
 21 22  2  0
 23 26  1  0
 23 22  1  0
 24 23  2  0
 25 24  1  0
 25 20  2  0
 26 27  1  0
 27 28  1  0
 28 29  2  0
 30 29  1  0
 30 34  1  0
 31 30  2  0
 32 27  2  0
 32 31  1  0
 33 32  1  0
 35 36  1  0
 36 39  1  0
 36 38  1  0
 37 35  2  0
 40 15  1  0
 40 41  1  0
 42 40  1  0
 43 44  1  0
 45 56  2  0
 46 44  1  0
 46 51  1  0
 47 55  1  0
 47 57  1  0
 48 54  1  0
 48 50  1  0
 49 55  1  0
 50 51  2  0
 50 49  1  0
 52 46  2  0
 53 52  1  0
 53 48  2  0
 54 47  1  0
 55 45  1  0
 57 59  2  0
 58 57  1  0
 60 58  1  0
 61 70  2  0
 61 66  1  0
 62 58  1  0
 62 66  1  0
 63 62  1  0
 64 65  1  0
 64 63  1  0
 65 61  1  0
 66 67  2  0
 67 68  1  0
 69 68  2  0
 70 69  1  0
 71 45  1  0
 71 72  1  0
 71 81  1  0
 72 75  1  0
 73 77  1  0
 73 72  1  0
 74 73  2  0
 77 76  1  0
 79 80  1  0
 79 77  1  0
 79 78  1  0
 81 84  1  1
 81 82  1  0
 83 81  1  0
M  ISO  4   3 100   7 100  43 101  44 101
M  END
>  <TORSDO>  (35) 
F 18

>  <SCORE>  (35) 
-16.563

>  <name>  (35) 
34

>  <ligand_id>  (35) 
34

>  <original_smiles>  (35) 
[H]c1c([H])c([H])c2c(c1[H])C([H])([H])C([H])([H])C([H])([H])C2([H])N([H])C(=O)C1([H])N(C(=O)C([H])(N([H])C(=O)C([H])(N([H])C([H])([H])[H])C([H])([H])[H])C(C([H])([H])[H])(C([H])([H])[H])C([H])([H])[H])C([H])([H])c2c([H])c(OC([H])([H])C([H])([H])n3nnc(C(=O)N4C([H])([H])C([H])([H])C([H])([H])C([H])(n5nc(-c6c([H])c([H])c(Oc7c([H])c([H])c(F)c([H])c7F)c([H])c6[H])c(C(=O)N([H])[H])c5N([H])[H])C4([H])[H])c3[H])c([H])c([H])c2C1([H])[H]

>  <smiles>  (35) 
[H]c1c([H])c([H])c2c(c1[H])C([H])([H])C([H])([H])C([H])([H])C2([H])N([H])C(=O)C1([H])N(C(=O)C([H])(N([H])C(=O)C([H])(N([H])C([H])([H])[H])C([H])([H])[H])C(C([H])([H])[H])(C([H])([H])[H])C([H])([H])[H])C([H])([H])c2c([H])c(OC([H])([H])C([H])([H])n3nnc(C(=O)N4C([H])([H])C([H])([H])C([H])([H])C([H])(n5nc(-c6c([H])c([H])c(Oc7c([H])c([H])c(F)c([H])c7F)c([H])c6[H])c(C(=O)N([H])[H])c5N([H])[H])C4([H])[H])c3[H])c([H])c([H])c2C1([H])[H]

$$$$
35:0:0
     RDKit          3D

 93101  0  0  1  0  0  0  0  0999 V2000
  -30.7150  -24.6280   20.4650 C   0  0  0  0  0  3  0  0  0  0  0  0
  -29.3200  -24.4570   20.3690 C   0  0  0  0  0  0  0  0  0  0  0  0
  -29.6980  -22.3720   19.5080 C   0  0  0  0  0  0  0  0  0  0  0  0
  -31.5540  -23.6360   20.0720 N   0  0  0  0  0  0  0  0  0  0  0  0
  -28.8080  -23.3030   19.8760 N   0  0  0  0  0  0  0  0  0  0  0  0
  -31.0390  -22.4920   19.5880 N   0  0  0  0  0  0  0  0  0  0  0  0
  -28.3430  -25.5200   20.8540 C   0  0  0  0  0  2  0  0  0  0  0  0
  -28.3870  -26.7270   20.0870 O   0  0  0  0  0  0  0  0  0  0  0  0
  -24.5990  -31.8830   23.2220 C   0  0  0  0  0  0  0  0  0  0  0  0
  -27.2200  -27.4540   20.1230 C   0  0  0  0  0  0  0  0  0  0  0  0
  -23.3770  -30.4730   21.5980 C   0  0  0  0  0  3  0  0  0  0  0  0
  -24.8190  -28.9360   20.1630 C   0  0  0  0  0  0  0  0  0  0  0  0
  -25.8990  -30.8430   21.3690 C   0  0  0  0  0  2  0  0  0  0  0  0
  -25.9830  -29.4710   20.7320 C   0  0  0  0  0  0  0  0  0  0  0  0
  -27.1900  -28.7370   20.7080 C   0  0  0  0  0  3  0  0  0  0  0  0
  -26.0440  -26.9280   19.5490 C   0  0  0  0  0  3  0  0  0  0  0  0
  -24.8430  -27.6620   19.5700 C   0  0  0  0  0  3  0  0  0  0  0  0
  -23.5720  -29.7900   20.2200 C   0  0  0  0  0  2  0  0  0  0  0  0
  -24.6440  -31.0800   22.1220 N   0  0  0  0  0  0  0  0  0  0  0  0
  -23.5230  -32.1540   23.7730 O   0  0  0  0  0  0  0  0  0  0  0  0
  -22.7390  -29.4530   22.5680 C   0  0  0  0  0  0  0  0  0  0  0  0
  -21.4140  -29.2680   22.4550 N   0  0  0  0  0  0  0  0  0  0  0  0
  -23.4330  -28.8300   23.3760 O   0  0  0  0  0  0  0  0  0  0  0  0
  -20.9170  -29.8190   21.7690 H   0  0  0  0  0  0  0  0  0  0  0  0
  -18.0490  -28.0660   22.9780 C   0  0  0  0  0  0  0  0  0  0  0  0
  -20.6060  -28.3350   23.2370 C   0  0  0  0  0  3  0  0  0  0  0  0
  -20.7120  -26.8990   22.6710 C   0  0  0  0  0  2  0  0  0  0  0  0
  -19.6060  -26.5660   21.6650 C   0  0  0  0  0  2  0  0  0  0  0  0
  -18.2260  -26.7120   22.3140 C   0  0  0  0  0  2  0  0  0  0  0  0
  -19.1660  -28.8350   23.3980 C   0  0  0  0  0  0  0  0  0  0  0  0
  -18.9440  -30.1030   23.9770 C   0  0  0  0  0  3  0  0  0  0  0  0
  -17.6380  -30.6010   24.1430 C   0  0  0  0  0  3  0  0  0  0  0  0
  -16.5350  -29.8260   23.7430 C   0  0  0  0  0  3  0  0  0  0  0  0
  -16.7410  -28.5620   23.1630 C   0  0  0  0  0  3  0  0  0  0  0  0
  -25.8910  -32.5170   23.8240 C   0  0  0  0  0  3  0  0  0  0  0  0
  -25.5800  -33.9100   24.1730 N   0  0  0  0  0  0  0  0  0  0  0  0
  -25.8930  -34.9690   23.4170 C   0  0  0  0  0  0  0  0  0  0  0  0
  -26.5470  -34.8810   22.3740 O   0  0  0  0  0  0  0  0  0  0  0  0
  -24.9960  -34.0540   24.9840 H   0  0  0  0  0  0  0  0  0  0  0  0
  -24.1420  -36.7470   23.1100 C   0  0  0  0  0  1  0  0  0  0  0  0
  -25.4010  -36.3500   23.8950 C   0  0  0  0  0  3  0  0  0  0  0  0
  -27.5480  -37.2400   24.6870 C   0  0  0  0  0  1  0  0  0  0  0  0
  -26.4230  -37.4120   23.7720 N   0  0  0  0  0  0  0  0  0  0  0  0
  -26.0130  -38.3260   23.9430 H   0  0  0  0  0  0  0  0  0  0  0  0
  -26.4400  -31.7370   25.0800 C   0  0  1  0  0  0  0  0  0  0  0  0
  -25.3730  -31.4810   26.1700 C   0  0  0  0  0  1  0  0  0  0  0  0
  -27.0220  -30.3670   24.6590 C   0  0  0  0  0  1  0  0  0  0  0  0
  -27.6000  -32.5310   25.7270 C   0  0  0  0  0  1  0  0  0  0  0  0
  -29.1430  -21.0920   18.8910 C   0  0  0  0  0  2  0  0  0  0  0  0
  -30.1370  -19.2090   17.6470 C   0  0  0  0  0  1  0  0  0  0  0  0
  -30.1050  -19.9540   18.9320 N   0  0  2  0  0  4  0  0  0  0  0  0
  -30.9880  -20.4480   18.9920 H   0  0  0  0  0  0  0  0  0  0  0  0
  -30.0180  -19.1200   20.1780 C   0  0  0  0  0  2  0  0  0  0  0  0
  -30.2580  -17.5890   20.0100 C   0  0  0  0  0  2  0  0  0  0  0  0
  -30.2960  -16.8070   21.3460 C   0  0  0  0  0  2  0  0  0  0  0  0
  -30.6600  -14.4350   20.5500 C   0  0  0  0  0  0  0  0  0  0  0  0
  -30.3570  -12.3110   19.3380 C   0  0  0  0  0  2  0  0  0  0  0  0
  -29.3990  -12.5380   18.1490 C   0  0  0  0  0  2  0  0  0  0  0  0
  -27.9270  -12.4090   18.5860 C   0  0  0  0  0  2  0  0  0  0  0  0
  -27.6080  -13.2250   19.8680 C   0  0  0  0  0  3  0  0  0  0  0  0
  -28.6650  -12.9520   20.9600 C   0  0  0  0  0  2  0  0  0  0  0  0
  -29.9910  -13.2630   20.3940 N   0  0  0  0  0  0  0  0  0  0  0  0
  -31.7600  -14.6680   20.0390 O   0  0  0  0  0  0  0  0  0  0  0  0
  -29.9650  -15.3850   21.1900 N   0  0  0  0  0  0  0  0  0  0  0  0
  -29.0750  -15.0880   21.5630 H   0  0  0  0  0  0  0  0  0  0  0  0
  -25.2120  -13.8470   20.5800 C   0  0  0  0  0  0  0  0  0  0  0  0
  -24.1420  -13.0810   20.9560 C   0  0  0  0  0  0  0  0  0  0  0  0
  -24.5970  -11.7270   20.9240 C   0  0  0  0  0  0  0  0  0  0  0  0
  -26.2530  -12.9610   20.3470 N   0  0  0  0  0  0  0  0  0  0  0  0
  -25.8850  -11.6810   20.6090 N   0  0  0  0  0  0  0  0  0  0  0  0
  -23.8670  -10.4680   21.1190 C   0  0  0  0  0  0  0  0  0  0  0  0
  -24.3240   -9.4830   22.0200 C   0  0  0  0  0  3  0  0  0  0  0  0
  -23.5950   -8.2870   22.2030 C   0  0  0  0  0  3  0  0  0  0  0  0
  -22.3950   -8.0710   21.4860 C   0  0  0  0  0  0  0  0  0  0  0  0
  -21.9580   -9.0450   20.5710 C   0  0  0  0  0  3  0  0  0  0  0  0
  -22.6870  -10.2320   20.3860 C   0  0  0  0  0  3  0  0  0  0  0  0
  -21.6360   -6.9310   21.5800 O   0  0  0  0  0  0  0  0  0  0  0  0
  -21.6460   -6.1500   22.7080 C   0  0  0  0  0  0  0  0  0  0  0  0
  -21.3240   -6.6730   23.9800 C   0  0  0  0  0  3  0  0  0  0  0  0
  -21.2790   -5.8200   25.1010 C   0  0  0  0  0  3  0  0  0  0  0  0
  -21.5450   -4.4460   24.9520 C   0  0  0  0  0  0  0  0  0  0  0  0
  -21.8600   -3.9230   23.6860 C   0  0  0  0  0  3  0  0  0  0  0  0
  -21.9070   -4.7730   22.5670 C   0  0  0  0  0  0  0  0  0  0  0  0
  -22.1890   -4.2590   21.3460 F   0  0  0  0  0  0  0  0  0  0  0  0
  -21.4930   -3.6250   26.0270 F   0  0  0  0  0  0  0  0  0  0  0  0
  -22.7480  -13.5650   21.2330 C   0  0  0  0  0  0  0  0  0  0  0  0
  -22.0220  -12.8750   22.1070 N   0  0  0  0  0  0  0  0  0  0  0  0
  -22.3110  -14.5890   20.7110 O   0  0  0  0  0  0  0  0  0  0  0  0
  -22.3900  -12.0480   22.5530 H   0  0  0  0  0  0  0  0  0  0  0  0
  -21.0850  -13.1780   22.3310 H   0  0  0  0  0  0  0  0  0  0  0  0
  -25.3850  -15.2160   20.4000 N   0  0  0  0  0  0  0  0  0  0  0  0
  -24.6230  -15.8770   20.5080 H   0  0  0  0  0  0  0  0  0  0  0  0
  -26.2380  -15.6440   20.0610 H   0  0  0  0  0  0  0  0  0  0  0  0
  2  1  2  0
  2  7  1  0
  3  6  1  0
  3  5  2  0
  4  1  1  0
  5  2  1  0
  6  4  2  0
  8 10  1  0
  8  7  1  0
  9 20  2  0
 10 15  1  0
 11 19  1  0
 11 21  1  0
 12 18  1  0
 12 14  1  0
 13 19  1  0
 14 13  1  0
 15 14  2  0
 16 17  1  0
 16 10  2  0
 17 12  2  0
 18 11  1  0
 19  9  1  0
 21 23  2  0
 22 21  1  0
 24 22  1  0
 25 34  2  0
 25 30  1  0
 26 22  1  0
 26 30  1  0
 27 26  1  0
 28 29  1  0
 28 27  1  0
 29 25  1  0
 30 31  2  0
 31 32  1  0
 33 32  2  0
 34 33  1  0
 35  9  1  0
 35 36  1  0
 35 45  1  0
 36 39  1  0
 37 41  1  0
 37 36  1  0
 38 37  2  0
 41 40  1  0
 43 41  1  0
 43 44  1  0
 43 42  1  0
 45 48  1  1
 45 46  1  0
 47 45  1  0
 49 51  1  0
 49  3  1  0
 50 51  1  0
 51 52  1  1
 51 53  1  0
 54 53  1  0
 54 55  1  0
 56 64  1  0
 57 62  1  0
 58 59  1  0
 58 57  1  0
 60 59  1  0
 60 69  1  0
 60 61  1  0
 62 56  1  0
 62 61  1  0
 63 56  2  0
 64 55  1  0
 64 65  1  0
 66 67  2  0
 67 86  1  0
 68 67  1  0
 68 71  1  0
 69 66  1  0
 69 70  1  0
 70 68  2  0
 71 72  1  0
 72 73  2  0
 74 77  1  0
 74 73  1  0
 75 74  2  0
 76 75  1  0
 76 71  2  0
 77 78  1  0
 78 79  1  0
 79 80  2  0
 81 80  1  0
 81 85  1  0
 82 81  2  0
 83 78  2  0
 83 82  1  0
 84 83  1  0
 86 87  1  0
 87 90  1  0
 87 89  1  0
 88 86  2  0
 91 92  1  0
 91 66  1  0
 93 91  1  0
M  ISO  4   7 101   8 101  56 100  64 100
M  END
>  <TORSDO>  (36) 
F 22

>  <SCORE>  (36) 
-13.099

>  <name>  (36) 
35

>  <ligand_id>  (36) 
35

>  <original_smiles>  (36) 
[H]c1nnc(C([H])([H])[N+]([H])(C([H])([H])[H])C([H])([H])C([H])([H])C([H])([H])N([H])C(=O)N2C([H])([H])C([H])([H])C([H])([H])C([H])(n3nc(-c4c([H])c([H])c(Oc5c([H])c([H])c(F)c([H])c5F)c([H])c4[H])c(C(=O)N([H])[H])c3N([H])[H])C2([H])[H])nc1C([H])([H])Oc1c([H])c([H])c2c(c1[H])C([H])([H])N(C(=O)C([H])(N([H])C(=O)C([H])(N([H])C([H])([H])[H])C([H])([H])[H])C(C([H])([H])[H])(C([H])([H])[H])C([H])([H])[H])C([H])(C(=O)N([H])C1([H])c3c([H])c([H])c([H])c([H])c3C([H])([H])C([H])([H])C1([H])[H])C2([H])[H]

>  <smiles>  (36) 
[H]c1nnc(C([H])([H])[N+]([H])(C([H])([H])[H])C([H])([H])C([H])([H])C([H])([H])N([H])C(=O)N2C([H])([H])C([H])([H])C([H])([H])C([H])(n3nc(-c4c([H])c([H])c(Oc5c([H])c([H])c(F)c([H])c5F)c([H])c4[H])c(C(=O)N([H])[H])c3N([H])[H])C2([H])[H])nc1C([H])([H])Oc1c([H])c([H])c2c(c1[H])C([H])([H])N(C(=O)C([H])(N([H])C(=O)C([H])(N([H])C([H])([H])[H])C([H])([H])[H])C(C([H])([H])[H])(C([H])([H])[H])C([H])([H])[H])C([H])(C(=O)N([H])C1([H])c3c([H])c([H])c([H])c([H])c3C([H])([H])C([H])([H])C1([H])[H])C2([H])[H]

$$$$
36:0:0
     RDKit          3D

 90 98  0  0  1  0  0  0  0  0999 V2000
  -30.3450  -21.3950   21.5550 C   0  0  0  0  0  1  0  0  0  0  0  0
  -29.3780  -21.2620   20.4410 N   0  0  1  0  0  4  0  0  0  0  0  0
  -29.9240  -21.1420   19.6010 H   0  0  0  0  0  0  0  0  0  0  0  0
  -28.5410  -20.0060   20.5580 C   0  0  0  0  0  2  0  0  0  0  0  0
  -29.8640  -16.8160   19.0830 C   0  0  0  0  0  3  0  0  0  0  0  0
  -29.4160  -17.7490   21.5590 C   0  0  0  0  0  3  0  0  0  0  0  0
  -30.0710  -15.9580   20.2020 C   0  0  0  0  0  0  0  0  0  0  0  0
  -29.2060  -18.5980   20.4340 C   0  0  0  0  0  0  0  0  0  0  0  0
  -29.8490  -16.4540   21.4540 N   0  0  0  0  0  0  0  0  0  0  0  0
  -29.4370  -18.1100   19.1860 N   0  0  0  0  0  0  0  0  0  0  0  0
  -30.7770  -14.6140   19.9800 C   0  0  0  0  0  0  0  0  0  0  0  0
  -30.4150  -12.4060   18.9420 C   0  0  0  0  0  2  0  0  0  0  0  0
  -29.4160  -12.5760   17.7790 C   0  0  0  0  0  2  0  0  0  0  0  0
  -27.9690  -12.4280   18.2850 C   0  0  0  0  0  2  0  0  0  0  0  0
  -27.6860  -13.2810   19.5520 C   0  0  0  0  0  3  0  0  0  0  0  0
  -28.8090  -13.1440   20.6040 C   0  0  0  0  0  2  0  0  0  0  0  0
  -30.0890  -13.4320   19.9510 N   0  0  0  0  0  0  0  0  0  0  0  0
  -31.9350  -14.6840   19.5630 O   0  0  0  0  0  0  0  0  0  0  0  0
  -25.3510  -13.8560   20.4530 C   0  0  0  0  0  0  0  0  0  0  0  0
  -24.3070  -13.0730   20.8640 C   0  0  0  0  0  0  0  0  0  0  0  0
  -24.7600  -11.7230   20.7590 C   0  0  0  0  0  0  0  0  0  0  0  0
  -26.3730  -12.9830   20.1200 N   0  0  0  0  0  0  0  0  0  0  0  0
  -26.0280  -11.6920   20.3670 N   0  0  0  0  0  0  0  0  0  0  0  0
  -24.0400  -10.4560   20.9550 C   0  0  0  0  0  0  0  0  0  0  0  0
  -24.4870   -9.4870   21.8810 C   0  0  0  0  0  3  0  0  0  0  0  0
  -23.7670   -8.2870   22.0650 C   0  0  0  0  0  3  0  0  0  0  0  0
  -22.5870   -8.0460   21.3230 C   0  0  0  0  0  0  0  0  0  0  0  0
  -22.1590   -9.0030   20.3860 C   0  0  0  0  0  3  0  0  0  0  0  0
  -22.8790  -10.1950   20.2000 C   0  0  0  0  0  3  0  0  0  0  0  0
  -21.8380   -6.8970   21.4160 O   0  0  0  0  0  0  0  0  0  0  0  0
  -21.7460   -6.1910   22.5870 C   0  0  0  0  0  0  0  0  0  0  0  0
  -21.2640   -6.7800   23.7760 C   0  0  0  0  0  3  0  0  0  0  0  0
  -21.1200   -6.0010   24.9410 C   0  0  0  0  0  3  0  0  0  0  0  0
  -21.4470   -4.6310   24.9170 C   0  0  0  0  0  0  0  0  0  0  0  0
  -21.9210   -4.0410   23.7320 C   0  0  0  0  0  3  0  0  0  0  0  0
  -22.0660   -4.8180   22.5700 C   0  0  0  0  0  0  0  0  0  0  0  0
  -22.5040   -4.2400   21.4250 F   0  0  0  0  0  0  0  0  0  0  0  0
  -21.3010   -3.8800   26.0330 F   0  0  0  0  0  0  0  0  0  0  0  0
  -22.9330  -13.5460   21.2410 C   0  0  0  0  0  0  0  0  0  0  0  0
  -22.2620  -12.8300   22.1360 N   0  0  0  0  0  0  0  0  0  0  0  0
  -22.4650  -14.5830   20.7760 O   0  0  0  0  0  0  0  0  0  0  0  0
  -22.6520  -11.9880   22.5330 H   0  0  0  0  0  0  0  0  0  0  0  0
  -21.3420  -13.1290   22.4280 H   0  0  0  0  0  0  0  0  0  0  0  0
  -25.5110  -15.2320   20.3130 N   0  0  0  0  0  0  0  0  0  0  0  0
  -24.7590  -15.8840   20.5040 H   0  0  0  0  0  0  0  0  0  0  0  0
  -26.3470  -15.6810   19.9620 H   0  0  0  0  0  0  0  0  0  0  0  0
  -28.5260  -22.5030   20.2360 C   0  0  0  0  0  2  0  0  0  0  0  0
  -29.1840  -23.9510   20.2810 C   0  0  0  0  0  2  0  0  0  0  0  0
  -28.1670  -25.0880   19.8790 C   0  0  0  0  0  2  0  0  0  0  0  0
  -28.4360  -26.5170   20.1100 O   0  0  0  0  0  0  0  0  0  0  0  0
  -24.6610  -31.8090   23.2190 C   0  0  0  0  0  0  0  0  0  0  0  0
  -27.3180  -27.3630   20.0640 C   0  0  0  0  0  0  0  0  0  0  0  0
  -23.4740  -30.4390   21.5460 C   0  0  0  0  0  3  0  0  0  0  0  0
  -24.9400  -28.9450   20.0870 C   0  0  0  0  0  0  0  0  0  0  0  0
  -26.0110  -30.7870   21.3790 C   0  0  0  0  0  2  0  0  0  0  0  0
  -26.1030  -29.4280   20.7000 C   0  0  0  0  0  0  0  0  0  0  0  0
  -27.2960  -28.6480   20.6820 C   0  0  0  0  0  3  0  0  0  0  0  0
  -26.1270  -26.9390   19.4210 C   0  0  0  0  0  3  0  0  0  0  0  0
  -24.9530  -27.7040   19.4390 C   0  0  0  0  0  3  0  0  0  0  0  0
  -23.6970  -29.8040   20.1500 C   0  0  0  0  0  2  0  0  0  0  0  0
  -24.7340  -31.0260   22.1050 N   0  0  0  0  0  0  0  0  0  0  0  0
  -23.5730  -32.0660   23.7550 O   0  0  0  0  0  0  0  0  0  0  0  0
  -22.8170  -29.3920   22.4770 C   0  0  0  0  0  0  0  0  0  0  0  0
  -21.4930  -29.2100   22.3410 N   0  0  0  0  0  0  0  0  0  0  0  0
  -23.4980  -28.7500   23.2810 O   0  0  0  0  0  0  0  0  0  0  0  0
  -21.0030  -29.7800   21.6670 H   0  0  0  0  0  0  0  0  0  0  0  0
  -18.1160  -28.0040   22.8160 C   0  0  0  0  0  0  0  0  0  0  0  0
  -20.6760  -28.2520   23.0890 C   0  0  0  0  0  3  0  0  0  0  0  0
  -20.7760  -26.8370   22.4730 C   0  0  0  0  0  2  0  0  0  0  0  0
  -19.6700  -26.5420   21.4540 C   0  0  0  0  0  2  0  0  0  0  0  0
  -18.2900  -26.6730   22.1040 C   0  0  0  0  0  2  0  0  0  0  0  0
  -19.2380  -28.7530   23.2640 C   0  0  0  0  0  0  0  0  0  0  0  0
  -19.0210  -30.0000   23.8890 C   0  0  0  0  0  3  0  0  0  0  0  0
  -17.7170  -30.4970   24.0730 C   0  0  0  0  0  3  0  0  0  0  0  0
  -16.6110  -29.7450   23.6400 C   0  0  0  0  0  3  0  0  0  0  0  0
  -16.8120  -28.5010   23.0180 C   0  0  0  0  0  3  0  0  0  0  0  0
  -25.9370  -32.4370   23.8600 C   0  0  0  0  0  3  0  0  0  0  0  0
  -25.6240  -33.8310   24.1980 N   0  0  0  0  0  0  0  0  0  0  0  0
  -25.9450  -34.8890   23.4410 C   0  0  0  0  0  0  0  0  0  0  0  0
  -26.6080  -34.7920   22.4040 O   0  0  0  0  0  0  0  0  0  0  0  0
  -25.0350  -33.9790   25.0040 H   0  0  0  0  0  0  0  0  0  0  0  0
  -24.1940  -36.6650   23.1200 C   0  0  0  0  0  1  0  0  0  0  0  0
  -25.4540  -36.2720   23.9070 C   0  0  0  0  0  3  0  0  0  0  0  0
  -27.5950  -37.1770   24.7010 C   0  0  0  0  0  1  0  0  0  0  0  0
  -26.4760  -37.3340   23.7760 N   0  0  0  0  0  0  0  0  0  0  0  0
  -26.0620  -38.2500   23.9310 H   0  0  0  0  0  0  0  0  0  0  0  0
  -26.4400  -31.6530   25.1340 C   0  0  1  0  0  0  0  0  0  0  0  0
  -25.3340  -31.4040   26.1870 C   0  0  0  0  0  1  0  0  0  0  0  0
  -27.0290  -30.2800   24.7360 C   0  0  0  0  0  1  0  0  0  0  0  0
  -27.5830  -32.4420   25.8150 C   0  0  0  0  0  1  0  0  0  0  0  0
  2  4  1  0
  2  1  1  0
  2  3  1  6
  5 10  2  0
  5  7  1  0
  7  9  2  0
  8  4  1  0
  8  6  2  0
  9  6  1  0
 10  8  1  0
 11  7  1  0
 12 17  1  0
 13 14  1  0
 13 12  1  0
 15 14  1  0
 15 22  1  0
 15 16  1  0
 17 11  1  0
 17 16  1  0
 18 11  2  0
 19 20  2  0
 20 39  1  0
 21 20  1  0
 21 24  1  0
 22 23  1  0
 22 19  1  0
 23 21  2  0
 24 25  1  0
 25 26  2  0
 27 30  1  0
 27 26  1  0
 28 27  2  0
 29 28  1  0
 29 24  2  0
 30 31  1  0
 31 32  1  0
 32 33  2  0
 34 33  1  0
 34 38  1  0
 35 34  2  0
 36 31  2  0
 36 35  1  0
 37 36  1  0
 39 40  1  0
 40 43  1  0
 40 42  1  0
 41 39  2  0
 44 19  1  0
 44 45  1  0
 46 44  1  0
 47 48  1  0
 47  2  1  0
 49 50  1  0
 49 48  1  0
 51 62  2  0
 52 50  1  0
 52 57  1  0
 53 61  1  0
 53 63  1  0
 54 60  1  0
 54 56  1  0
 55 61  1  0
 56 55  1  0
 57 56  2  0
 58 59  1  0
 58 52  2  0
 59 54  2  0
 60 53  1  0
 61 51  1  0
 63 65  2  0
 64 63  1  0
 66 64  1  0
 67 76  2  0
 67 72  1  0
 68 64  1  0
 68 72  1  0
 69 68  1  0
 70 71  1  0
 70 69  1  0
 71 67  1  0
 72 73  2  0
 73 74  1  0
 75 74  2  0
 76 75  1  0
 77 51  1  0
 77 78  1  0
 77 87  1  0
 78 81  1  0
 79 83  1  0
 79 78  1  0
 80 79  2  0
 83 82  1  0
 85 83  1  0
 85 86  1  0
 85 84  1  0
 87 90  1  1
 87 88  1  0
 89 87  1  0
M  ISO  4   7 100  11 100  49 101  50 101
M  END
>  <TORSDO>  (37) 
F 21

>  <SCORE>  (37) 
-13.155

>  <name>  (37) 
36

>  <ligand_id>  (37) 
36

>  <original_smiles>  (37) 
[H]c1nc(C([H])([H])[N+]([H])(C([H])([H])[H])C([H])([H])C([H])([H])C([H])([H])Oc2c([H])c([H])c3c(c2[H])C([H])([H])N(C(=O)C([H])(N([H])C(=O)C([H])(N([H])C([H])([H])[H])C([H])([H])[H])C(C([H])([H])[H])(C([H])([H])[H])C([H])([H])[H])C([H])(C(=O)N([H])C2([H])c4c([H])c([H])c([H])c([H])c4C([H])([H])C([H])([H])C2([H])[H])C3([H])[H])c([H])nc1C(=O)N1C([H])([H])C([H])([H])C([H])([H])C([H])(n2nc(-c3c([H])c([H])c(Oc4c([H])c([H])c(F)c([H])c4F)c([H])c3[H])c(C(=O)N([H])[H])c2N([H])[H])C1([H])[H]

>  <smiles>  (37) 
[H]c1nc(C([H])([H])[N+]([H])(C([H])([H])[H])C([H])([H])C([H])([H])C([H])([H])Oc2c([H])c([H])c3c(c2[H])C([H])([H])N(C(=O)C([H])(N([H])C(=O)C([H])(N([H])C([H])([H])[H])C([H])([H])[H])C(C([H])([H])[H])(C([H])([H])[H])C([H])([H])[H])C([H])(C(=O)N([H])C2([H])c4c([H])c([H])c([H])c([H])c4C([H])([H])C([H])([H])C2([H])[H])C3([H])[H])c([H])nc1C(=O)N1C([H])([H])C([H])([H])C([H])([H])C([H])(n2nc(-c3c([H])c([H])c(Oc4c([H])c([H])c(F)c([H])c4F)c([H])c3[H])c(C(=O)N([H])[H])c2N([H])[H])C1([H])[H]

$$$$
37:0:0
     RDKit          3D

105114  0  0  1  0  0  0  0  0999 V2000
  -31.2300  -22.7910   21.7660 C   0  0  0  0  0  2  0  0  0  0  0  0
  -29.6290  -21.2000   22.7650 C   0  0  0  0  0  1  0  0  0  0  0  0
  -29.9290  -22.0740   21.5960 N   0  0  2  0  0  4  0  0  0  0  0  0
  -29.2690  -22.8420   21.6780 H   0  0  0  0  0  0  0  0  0  0  0  0
  -28.0750  -21.4160   20.0670 C   0  0  0  0  0  1  0  0  0  0  0  0
  -30.0990  -22.3270   19.0410 C   0  0  0  0  0  1  0  0  0  0  0  0
  -29.6150  -21.4730   20.2500 C   0  0  1  0  0  0  0  0  0  0  0  0
  -29.5360  -18.8970   20.4360 C   0  0  0  0  0  3  0  0  0  0  0  0
  -30.2650  -17.7090   20.4760 C   0  0  0  0  0  0  0  0  0  0  0  0
  -30.2450  -20.0770   20.1690 C   0  0  0  0  0  0  0  0  0  0  0  0
  -32.1660  -18.8540   19.9320 C   0  0  0  0  0  0  0  0  0  0  0  0
  -33.5950  -18.8520   19.4350 C   0  0  0  0  0  1  0  0  0  0  0  0
  -31.5890  -17.6940   20.2210 N   0  0  0  0  0  0  0  0  0  0  0  0
  -31.5690  -20.0350   19.9510 N   0  0  0  0  0  0  0  0  0  0  0  0
  -29.5180  -16.4230   20.7850 C   0  0  0  0  0  2  0  0  0  0  0  0
  -30.7590  -14.4260   20.2260 C   0  0  0  0  0  0  0  0  0  0  0  0
  -30.4370  -12.2690   19.0900 C   0  0  0  0  0  2  0  0  0  0  0  0
  -29.4650  -12.4730   17.9110 C   0  0  0  0  0  2  0  0  0  0  0  0
  -28.0000  -12.3280   18.3680 C   0  0  0  0  0  2  0  0  0  0  0  0
  -27.6860  -13.1640   19.6370 C   0  0  0  0  0  3  0  0  0  0  0  0
  -28.7720  -12.9500   20.7200 C   0  0  0  0  0  2  0  0  0  0  0  0
  -30.1000  -13.2420   20.1350 N   0  0  0  0  0  0  0  0  0  0  0  0
  -31.7260  -14.7230   19.5230 O   0  0  0  0  0  0  0  0  0  0  0  0
  -30.2780  -15.2360   21.1620 N   0  0  0  0  0  0  0  0  0  0  0  0
  -29.8160  -14.7300   21.9010 H   0  0  0  0  0  0  0  0  0  0  0  0
  -25.2980  -13.7540   20.4160 C   0  0  0  0  0  0  0  0  0  0  0  0
  -24.2490  -12.9730   20.8220 C   0  0  0  0  0  0  0  0  0  0  0  0
  -24.7160  -11.6250   20.7660 C   0  0  0  0  0  0  0  0  0  0  0  0
  -26.3440  -12.8820   20.1500 N   0  0  0  0  0  0  0  0  0  0  0  0
  -25.9950  -11.5940   20.4100 N   0  0  0  0  0  0  0  0  0  0  0  0
  -24.0040  -10.3580   20.9750 C   0  0  0  0  0  0  0  0  0  0  0  0
  -24.4300   -9.4300   21.9490 C   0  0  0  0  0  3  0  0  0  0  0  0
  -23.7240   -8.2230   22.1450 C   0  0  0  0  0  3  0  0  0  0  0  0
  -22.5740   -7.9400   21.3680 C   0  0  0  0  0  0  0  0  0  0  0  0
  -22.1680   -8.8590   20.3850 C   0  0  0  0  0  3  0  0  0  0  0  0
  -22.8750  -10.0560   20.1870 C   0  0  0  0  0  3  0  0  0  0  0  0
  -21.8370   -6.7850   21.4730 O   0  0  0  0  0  0  0  0  0  0  0  0
  -21.7200   -6.1110   22.6630 C   0  0  0  0  0  0  0  0  0  0  0  0
  -21.1790   -6.7230   23.8150 C   0  0  0  0  0  3  0  0  0  0  0  0
  -21.0080   -5.9720   24.9950 C   0  0  0  0  0  3  0  0  0  0  0  0
  -21.3740   -4.6130   25.0230 C   0  0  0  0  0  0  0  0  0  0  0  0
  -21.9070   -4.0000   23.8740 C   0  0  0  0  0  3  0  0  0  0  0  0
  -22.0770   -4.7470   22.6970 C   0  0  0  0  0  0  0  0  0  0  0  0
  -22.5740   -4.1490   21.5880 F   0  0  0  0  0  0  0  0  0  0  0  0
  -21.2010   -3.8900   26.1530 F   0  0  0  0  0  0  0  0  0  0  0  0
  -22.8580  -13.4420   21.1480 C   0  0  0  0  0  0  0  0  0  0  0  0
  -22.1660  -12.7300   22.0300 N   0  0  0  0  0  0  0  0  0  0  0  0
  -22.3970  -14.4700   20.6560 O   0  0  0  0  0  0  0  0  0  0  0  0
  -22.5500  -11.8980   22.4480 H   0  0  0  0  0  0  0  0  0  0  0  0
  -21.2330  -13.0210   22.2900 H   0  0  0  0  0  0  0  0  0  0  0  0
  -25.4460  -15.1260   20.2300 N   0  0  0  0  0  0  0  0  0  0  0  0
  -24.6680  -15.7660   20.3590 H   0  0  0  0  0  0  0  0  0  0  0  0
  -26.2410  -15.5560   19.7740 H   0  0  0  0  0  0  0  0  0  0  0  0
  -31.0560  -24.0090   22.6970 C   0  0  0  0  0  2  0  0  0  0  0  0
  -30.0870  -26.0680   21.3330 C   0  0  0  0  0  3  0  0  0  0  0  0
  -29.9820  -24.9230   22.1630 C   0  0  0  0  0  0  0  0  0  0  0  0
  -28.8030  -26.3000   20.9270 C   0  0  0  0  0  0  0  0  0  0  0  0
  -28.7210  -24.5480   22.3290 N   0  0  0  0  0  0  0  0  0  0  0  0
  -27.9720  -25.3780   21.5620 N   0  0  0  0  0  0  0  0  0  0  0  0
  -28.4100  -27.1590   19.9570 O   0  0  0  0  0  0  0  0  0  0  0  0
  -24.3330  -31.9740   23.2550 C   0  0  0  0  0  0  0  0  0  0  0  0
  -27.2180  -27.8290   20.0310 C   0  0  0  0  0  0  0  0  0  0  0  0
  -23.2380  -30.6790   21.4530 C   0  0  0  0  0  3  0  0  0  0  0  0
  -24.7940  -29.2560   20.0190 C   0  0  0  0  0  0  0  0  0  0  0  0
  -25.7600  -31.0870   21.4220 C   0  0  0  0  0  2  0  0  0  0  0  0
  -25.9040  -29.7620   20.7100 C   0  0  0  0  0  0  0  0  0  0  0  0
  -27.1200  -29.0510   20.7250 C   0  0  0  0  0  3  0  0  0  0  0  0
  -26.1070  -27.3360   19.3220 C   0  0  0  0  0  3  0  0  0  0  0  0
  -24.8820  -28.0320   19.3330 C   0  0  0  0  0  3  0  0  0  0  0  0
  -23.5370  -30.0940   20.0450 C   0  0  0  0  0  2  0  0  0  0  0  0
  -24.4570  -31.2600   22.1030 N   0  0  0  0  0  0  0  0  0  0  0  0
  -23.2210  -32.1990   23.7540 O   0  0  0  0  0  0  0  0  0  0  0  0
  -22.5530  -29.5860   22.3040 C   0  0  0  0  0  0  0  0  0  0  0  0
  -21.2190  -29.4810   22.1790 N   0  0  0  0  0  0  0  0  0  0  0  0
  -23.2170  -28.8370   23.0250 O   0  0  0  0  0  0  0  0  0  0  0  0
  -20.7510  -30.1370   21.5690 H   0  0  0  0  0  0  0  0  0  0  0  0
  -17.7840  -28.5740   22.8140 C   0  0  0  0  0  0  0  0  0  0  0  0
  -20.3670  -28.5030   22.8530 C   0  0  0  0  0  3  0  0  0  0  0  0
  -20.2410  -27.2070   22.0190 C   0  0  0  0  0  2  0  0  0  0  0  0
  -19.0280  -27.2110   21.0840 C   0  0  0  0  0  2  0  0  0  0  0  0
  -17.7350  -27.3710   21.8870 C   0  0  0  0  0  2  0  0  0  0  0  0
  -19.0210  -29.1170   23.2520 C   0  0  0  0  0  0  0  0  0  0  0  0
  -19.0130  -30.2630   24.0770 C   0  0  0  0  0  3  0  0  0  0  0  0
  -17.7990  -30.8550   24.4720 C   0  0  0  0  0  3  0  0  0  0  0  0
  -16.5760  -30.3030   24.0500 C   0  0  0  0  0  3  0  0  0  0  0  0
  -16.5720  -29.1620   23.2260 C   0  0  0  0  0  3  0  0  0  0  0  0
  -25.5770  -32.5710   23.9860 C   0  0  0  0  0  3  0  0  0  0  0  0
  -25.9750  -31.7730   25.2890 C   0  0  1  0  0  0  0  0  0  0  0  0
  -24.7950  -31.5380   26.2600 C   0  0  0  0  0  1  0  0  0  0  0  0
  -26.5650  -30.3900   24.9230 C   0  0  0  0  0  1  0  0  0  0  0  0
  -27.0750  -32.5400   26.0590 C   0  0  0  0  0  1  0  0  0  0  0  0
  -25.2730  -33.9730   24.3020 N   0  0  0  0  0  0  0  0  0  0  0  0
  -25.6960  -35.0230   23.5850 C   0  0  0  0  0  0  0  0  0  0  0  0
  -26.4540  -34.9120   22.6170 O   0  0  0  0  0  0  0  0  0  0  0  0
  -24.6120  -34.1330   25.0460 H   0  0  0  0  0  0  0  0  0  0  0  0
  -24.0410  -36.8510   23.0900 C   0  0  0  0  0  1  0  0  0  0  0  0
  -25.1950  -36.4170   24.0080 C   0  0  0  0  0  3  0  0  0  0  0  0
  -27.2640  -37.2510   25.0340 C   0  0  0  0  0  1  0  0  0  0  0  0
  -26.2540  -37.4490   23.9990 N   0  0  0  0  0  0  0  0  0  0  0  0
  -25.8520  -38.3750   24.1200 H   0  0  0  0  0  0  0  0  0  0  0  0
  -26.5350  -25.1250   21.4180 C   0  0  0  0  0  2  0  0  0  0  0  0
  -24.5050  -23.6940   22.1160 C   0  0  0  0  0  1  0  0  0  0  0  0
  -25.8990  -24.2080   22.4940 C   0  0  0  0  0  3  0  0  0  0  0  0
  -25.8180  -24.8760   23.7410 O   0  0  0  0  0  0  0  0  0  0  0  0
  -26.7150  -25.0930   23.9830 H   0  0  0  0  0  0  0  0  0  0  0  0
  1 54  1  0
  3  4  1  1
  3  1  1  0
  3  2  1  0
  7  5  1  6
  6  7  1  0
  7  3  1  0
  8  9  2  0
  9 15  1  0
 10  7  1  0
 10  8  1  0
 11 14  1  0
 11 13  2  0
 12 11  1  0
 13  9  1  0
 14 10  2  0
 15 24  1  0
 16 24  1  0
 17 22  1  0
 18 19  1  0
 18 17  1  0
 20 19  1  0
 20 29  1  0
 20 21  1  0
 22 16  1  0
 22 21  1  0
 23 16  2  0
 24 25  1  0
 26 27  2  0
 27 46  1  0
 28 27  1  0
 28 31  1  0
 29 30  1  0
 29 26  1  0
 30 28  2  0
 31 32  1  0
 32 33  2  0
 34 37  1  0
 34 33  1  0
 35 34  2  0
 36 35  1  0
 36 31  2  0
 37 38  1  0
 38 43  2  0
 38 39  1  0
 39 40  2  0
 40 41  1  0
 41 45  1  0
 42 41  2  0
 43 42  1  0
 44 43  1  0
 46 47  1  0
 47 50  1  0
 47 49  1  0
 48 46  2  0
 51 52  1  0
 51 26  1  0
 53 51  1  0
 55 56  1  0
 56 58  2  0
 56 54  1  0
 57 55  2  0
 57 59  1  0
 59 58  1  0
 60 62  1  0
 60 57  1  0
 61 72  2  0
 62 67  1  0
 63 71  1  0
 63 73  1  0
 64 70  1  0
 64 66  1  0
 65 71  1  0
 66 67  2  0
 66 65  1  0
 68 69  1  0
 68 62  2  0
 69 64  2  0
 70 63  1  0
 71 61  1  0
 73 75  2  0
 74 73  1  0
 76 74  1  0
 77 86  2  0
 77 82  1  0
 78 74  1  0
 78 82  1  0
 79 78  1  0
 80 81  1  0
 80 79  1  0
 81 77  1  0
 82 83  2  0
 83 84  1  0
 85 84  2  0
 86 85  1  0
 87 61  1  0
 87 92  1  0
 87 88  1  0
 88 91  1  1
 88 89  1  0
 90 88  1  0
 92 95  1  0
 93 97  1  0
 93 92  1  0
 94 93  2  0
 97 96  1  0
 99 97  1  0
 99100  1  0
 99 98  1  0
101 59  1  0
101103  1  0
103102  1  0
103104  1  0
104105  1  0
M  ISO  4  16 100  24 100  57 101  60 101
M  END
>  <TORSDO>  (38) 
F 25

>  <SCORE>  (38) 
-10.338

>  <name>  (38) 
37

>  <ligand_id>  (38) 
37

>  <original_smiles>  (38) 
[H]OC([H])(C([H])([H])[H])C([H])([H])n1nc(C([H])([H])C([H])([H])[N+]([H])(C([H])([H])[H])C(c2nc(C([H])([H])[H])nc(C([H])([H])N([H])C(=O)N3C([H])([H])C([H])([H])C([H])([H])C([H])(n4nc(-c5c([H])c([H])c(Oc6c([H])c([H])c(F)c([H])c6F)c([H])c5[H])c(C(=O)N([H])[H])c4N([H])[H])C3([H])[H])c2[H])(C([H])([H])[H])C([H])([H])[H])c([H])c1Oc1c([H])c([H])c2c(c1[H])C([H])([H])N(C(=O)C([H])(N([H])C(=O)C([H])(N([H])C([H])([H])[H])C([H])([H])[H])C(C([H])([H])[H])(C([H])([H])[H])C([H])([H])[H])C([H])(C(=O)N([H])C1([H])c3c([H])c([H])c([H])c([H])c3C([H])([H])C([H])([H])C1([H])[H])C2([H])[H]

>  <smiles>  (38) 
[H]OC([H])(C([H])([H])[H])C([H])([H])n1nc(C([H])([H])C([H])([H])[N+]([H])(C([H])([H])[H])C(c2nc(C([H])([H])[H])nc(C([H])([H])N([H])C(=O)N3C([H])([H])C([H])([H])C([H])([H])C([H])(n4nc(-c5c([H])c([H])c(Oc6c([H])c([H])c(F)c([H])c6F)c([H])c5[H])c(C(=O)N([H])[H])c4N([H])[H])C3([H])[H])c2[H])(C([H])([H])[H])C([H])([H])[H])c([H])c1Oc1c([H])c([H])c2c(c1[H])C([H])([H])N(C(=O)C([H])(N([H])C(=O)C([H])(N([H])C([H])([H])[H])C([H])([H])[H])C(C([H])([H])[H])(C([H])([H])[H])C([H])([H])[H])C([H])(C(=O)N([H])C1([H])c3c([H])c([H])c([H])c([H])c3C([H])([H])C([H])([H])C1([H])[H])C2([H])[H]

$$$$
38:0:0
     RDKit          3D

 89 97  0  0  1  0  0  0  0  0999 V2000
  -29.5020  -18.7830   20.5330 C   0  0  0  0  0  0  0  0  0  0  0  0
  -28.1090  -20.2540   19.8740 C   0  0  0  0  0  3  0  0  0  0  0  0
  -26.8990  -20.8980   19.2830 C   0  0  0  0  0  1  0  0  0  0  0  0
  -28.3510  -18.9320   19.8040 N   0  0  0  0  0  0  0  0  0  0  0  0
  -29.9300  -19.9830   21.0230 N   0  0  0  0  0  2  0  0  0  0  0  0
  -29.0210  -20.9490   20.5760 N   0  0  0  0  0  0  0  0  0  0  0  0
  -30.2260  -17.3920   20.8310 C   0  0  0  0  0  2  0  0  0  0  0  0
  -30.5810  -14.8470   20.3350 C   0  0  0  0  0  0  0  0  0  0  0  0
  -30.4040  -12.5370   19.3820 C   0  0  0  0  0  2  0  0  0  0  0  0
  -29.4770  -12.5160   18.1460 C   0  0  0  0  0  2  0  0  0  0  0  0
  -27.9970  -12.3780   18.5640 C   0  0  0  0  0  2  0  0  0  0  0  0
  -27.5990  -13.2900   19.7560 C   0  0  0  0  0  3  0  0  0  0  0  0
  -28.6530  -13.2720   20.8810 C   0  0  0  0  0  2  0  0  0  0  0  0
  -29.9410  -13.6250   20.2730 N   0  0  0  0  0  0  0  0  0  0  0  0
  -31.8080  -14.8890   20.2150 O   0  0  0  0  0  0  0  0  0  0  0  0
  -29.1910  -16.2260   18.9200 C   0  0  0  0  0  1  0  0  0  0  0  0
  -29.8270  -16.0270   20.2310 N   0  0  0  0  0  0  0  0  0  0  0  0
  -25.2090  -13.8910   20.4570 C   0  0  0  0  0  0  0  0  0  0  0  0
  -24.1390  -13.1190   20.8180 C   0  0  0  0  0  0  0  0  0  0  0  0
  -24.6070  -11.7690   20.8130 C   0  0  0  0  0  0  0  0  0  0  0  0
  -26.2560  -13.0090   20.2450 N   0  0  0  0  0  0  0  0  0  0  0  0
  -25.9020  -11.7300   20.5280 N   0  0  0  0  0  0  0  0  0  0  0  0
  -23.8850  -10.5070   21.0070 C   0  0  0  0  0  0  0  0  0  0  0  0
  -24.3050   -9.5550   21.9620 C   0  0  0  0  0  3  0  0  0  0  0  0
  -23.5830   -8.3560   22.1410 C   0  0  0  0  0  3  0  0  0  0  0  0
  -22.4260   -8.1010   21.3670 C   0  0  0  0  0  0  0  0  0  0  0  0
  -22.0260   -9.0420   20.4020 C   0  0  0  0  0  3  0  0  0  0  0  0
  -22.7490  -10.2320   20.2200 C   0  0  0  0  0  3  0  0  0  0  0  0
  -21.6760   -6.9540   21.4570 O   0  0  0  0  0  0  0  0  0  0  0  0
  -21.6100   -6.2280   22.6180 C   0  0  0  0  0  0  0  0  0  0  0  0
  -21.1580   -6.7970   23.8290 C   0  0  0  0  0  3  0  0  0  0  0  0
  -21.0390   -5.9970   24.9820 C   0  0  0  0  0  3  0  0  0  0  0  0
  -21.3610   -4.6270   24.9260 C   0  0  0  0  0  0  0  0  0  0  0  0
  -21.8050   -4.0570   23.7200 C   0  0  0  0  0  3  0  0  0  0  0  0
  -21.9260   -4.8560   22.5680 C   0  0  0  0  0  0  0  0  0  0  0  0
  -22.3350   -4.2960   21.4040 F   0  0  0  0  0  0  0  0  0  0  0  0
  -21.2390   -3.8550   26.0310 F   0  0  0  0  0  0  0  0  0  0  0  0
  -22.7360  -13.5940   21.0570 C   0  0  0  0  0  0  0  0  0  0  0  0
  -21.9930  -12.9050   21.9160 N   0  0  0  0  0  0  0  0  0  0  0  0
  -22.3050  -14.6120   20.5160 O   0  0  0  0  0  0  0  0  0  0  0  0
  -22.3540  -12.0840   22.3770 H   0  0  0  0  0  0  0  0  0  0  0  0
  -21.0500  -13.2070   22.1180 H   0  0  0  0  0  0  0  0  0  0  0  0
  -25.3720  -15.2600   20.2680 N   0  0  0  0  0  0  0  0  0  0  0  0
  -24.6070  -15.9170   20.3710 H   0  0  0  0  0  0  0  0  0  0  0  0
  -26.2370  -15.7040   19.9850 H   0  0  0  0  0  0  0  0  0  0  0  0
  -28.9840  -22.3920   21.0990 C   0  0  0  0  0  2  0  0  0  0  0  0
  -28.7770  -23.7070   20.1630 C   0  0  0  0  0  3  0  0  0  0  0  0
  -28.2700  -25.0880   20.8600 C   0  0  0  0  0  3  0  0  0  0  0  0
  -28.4030  -26.4560   20.2510 O   0  0  0  0  0  0  0  0  0  0  0  0
  -24.6220  -31.8940   23.2520 C   0  0  0  0  0  0  0  0  0  0  0  0
  -27.2880  -27.3200   20.2410 C   0  0  0  0  0  0  0  0  0  0  0  0
  -23.4420  -30.4840   21.6040 C   0  0  0  0  0  3  0  0  0  0  0  0
  -24.9170  -28.9350   20.1940 C   0  0  0  0  0  0  0  0  0  0  0  0
  -25.9820  -30.8170   21.4390 C   0  0  0  0  0  2  0  0  0  0  0  0
  -26.0800  -29.4330   20.7970 C   0  0  0  0  0  0  0  0  0  0  0  0
  -27.2710  -28.6400   20.8030 C   0  0  0  0  0  3  0  0  0  0  0  0
  -26.1040  -26.8790   19.6150 C   0  0  0  0  0  3  0  0  0  0  0  0
  -24.9340  -27.6660   19.5910 C   0  0  0  0  0  3  0  0  0  0  0  0
  -23.6740  -29.8040   20.2280 C   0  0  0  0  0  2  0  0  0  0  0  0
  -24.7000  -31.0830   22.1560 N   0  0  0  0  0  0  0  0  0  0  0  0
  -23.5320  -32.1630   23.7790 O   0  0  0  0  0  0  0  0  0  0  0  0
  -22.7770  -29.4670   22.5610 C   0  0  0  0  0  0  0  0  0  0  0  0
  -21.4510  -29.2860   22.4320 N   0  0  0  0  0  0  0  0  0  0  0  0
  -23.4540  -28.8410   23.3820 O   0  0  0  0  0  0  0  0  0  0  0  0
  -20.9630  -29.8420   21.7430 H   0  0  0  0  0  0  0  0  0  0  0  0
  -18.0740  -28.0850   22.9290 C   0  0  0  0  0  0  0  0  0  0  0  0
  -20.6320  -28.3440   23.1980 C   0  0  0  0  0  3  0  0  0  0  0  0
  -20.7340  -26.9160   22.6150 C   0  0  0  0  0  2  0  0  0  0  0  0
  -19.6310  -26.5980   21.5990 C   0  0  0  0  0  2  0  0  0  0  0  0
  -18.2500  -26.7390   22.2450 C   0  0  0  0  0  2  0  0  0  0  0  0
  -19.1920  -28.8450   23.3610 C   0  0  0  0  0  0  0  0  0  0  0  0
  -18.9730  -30.1040   23.9610 C   0  0  0  0  0  3  0  0  0  0  0  0
  -17.6690  -30.6050   24.1310 C   0  0  0  0  0  3  0  0  0  0  0  0
  -16.5640  -29.8410   23.7130 C   0  0  0  0  0  3  0  0  0  0  0  0
  -16.7680  -28.5830   23.1190 C   0  0  0  0  0  3  0  0  0  0  0  0
  -25.8940  -32.5370   23.8850 C   0  0  0  0  0  3  0  0  0  0  0  0
  -26.3970  -31.7800   25.1750 C   0  0  1  0  0  0  0  0  0  0  0  0
  -25.2920  -31.5510   26.2330 C   0  0  0  0  0  1  0  0  0  0  0  0
  -26.9870  -30.4000   24.8050 C   0  0  0  0  0  1  0  0  0  0  0  0
  -27.5370  -32.5830   25.8430 C   0  0  0  0  0  1  0  0  0  0  0  0
  -25.5750  -33.9370   24.2010 N   0  0  0  0  0  0  0  0  0  0  0  0
  -25.9100  -34.9860   23.4370 C   0  0  0  0  0  0  0  0  0  0  0  0
  -26.5870  -34.8770   22.4110 O   0  0  0  0  0  0  0  0  0  0  0  0
  -24.9740  -34.0960   24.9960 H   0  0  0  0  0  0  0  0  0  0  0  0
  -24.1790  -36.7720   23.0540 C   0  0  0  0  0  1  0  0  0  0  0  0
  -25.4140  -36.3770   23.8800 C   0  0  0  0  0  3  0  0  0  0  0  0
  -27.5380  -37.2750   24.7250 C   0  0  0  0  0  1  0  0  0  0  0  0
  -26.4450  -37.4320   23.7690 N   0  0  0  0  0  0  0  0  0  0  0  0
  -26.0350  -38.3520   23.9050 H   0  0  0  0  0  0  0  0  0  0  0  0
  1  7  1  0
  1  5  1  0
  2  3  1  0
  2  6  1  0
  4  2  1  0
  4  1  2  0
  6  5  1  0
  6 46  1  0
  9 14  1  0
 10 11  1  0
 10  9  1  0
 12 11  1  0
 12 21  1  0
 12 13  1  0
 14  8  1  0
 14 13  1  0
 15  8  2  0
 16 17  1  0
 17  8  1  0
 17  7  1  0
 18 19  2  0
 19 38  1  0
 20 19  1  0
 20 23  1  0
 21 18  1  0
 21 22  1  0
 22 20  2  0
 23 24  1  0
 24 25  2  0
 26 29  1  0
 26 25  1  0
 27 26  2  0
 28 27  1  0
 28 23  2  0
 29 30  1  0
 30 31  1  0
 31 32  2  0
 33 32  1  0
 33 37  1  0
 34 33  2  0
 35 30  2  0
 35 34  1  0
 36 35  1  0
 38 39  1  0
 39 42  1  0
 39 41  1  0
 40 38  2  0
 43 44  1  0
 43 18  1  0
 45 43  1  0
 47 48  2  0
 47 46  1  0
 49 48  1  0
 50 61  2  0
 51 49  1  0
 51 56  1  0
 52 60  1  0
 52 62  1  0
 53 59  1  0
 53 55  1  0
 54 60  1  0
 55 56  2  0
 55 54  1  0
 57 51  2  0
 58 57  1  0
 58 53  2  0
 59 52  1  0
 60 50  1  0
 62 64  2  0
 63 62  1  0
 65 63  1  0
 66 75  2  0
 66 71  1  0
 67 63  1  0
 67 71  1  0
 68 67  1  0
 69 70  1  0
 69 68  1  0
 70 66  1  0
 71 72  2  0
 72 73  1  0
 74 73  2  0
 75 74  1  0
 76 50  1  0
 76 81  1  0
 76 77  1  0
 77 80  1  1
 77 78  1  0
 79 77  1  0
 81 84  1  0
 82 86  1  0
 82 81  1  0
 83 82  2  0
 86 85  1  0
 88 86  1  0
 88 89  1  0
 88 87  1  0
M  ISO  4   8 100  17 100  48 101  49 101
M  END
>  <TORSDO>  (39) 
F 20

>  <SCORE>  (39) 
-13.576

>  <name>  (39) 
38

>  <ligand_id>  (39) 
38

>  <original_smiles>  (39) 
[H]c1c([H])c([H])c2c(c1[H])C([H])([H])C([H])([H])C([H])([H])C2([H])N([H])C(=O)C1([H])N(C(=O)C([H])(N([H])C(=O)C([H])(N([H])C([H])([H])[H])C([H])([H])[H])C(C([H])([H])[H])(C([H])([H])[H])C([H])([H])[H])C([H])([H])c2c([H])c(OC([H])([H])C([H])([H])C([H])([H])n3nc(C([H])([H])N(C(=O)N4C([H])([H])C([H])([H])C([H])([H])C([H])(n5nc(-c6c([H])c([H])c(Oc7c([H])c([H])c(F)c([H])c7F)c([H])c6[H])c(C(=O)N([H])[H])c5N([H])[H])C4([H])[H])C([H])([H])[H])nc3C([H])([H])[H])c([H])c([H])c2C1([H])[H]

>  <smiles>  (39) 
[H]c1c([H])c([H])c2c(c1[H])C([H])([H])C([H])([H])C([H])([H])C2([H])N([H])C(=O)C1([H])N(C(=O)C([H])(N([H])C(=O)C([H])(N([H])C([H])([H])[H])C([H])([H])[H])C(C([H])([H])[H])(C([H])([H])[H])C([H])([H])[H])C([H])([H])c2c([H])c(OC([H])([H])C([H])([H])C([H])([H])n3nc(C([H])([H])N(C(=O)N4C([H])([H])C([H])([H])C([H])([H])C([H])(n5nc(-c6c([H])c([H])c(Oc7c([H])c([H])c(F)c([H])c7F)c([H])c6[H])c(C(=O)N([H])[H])c5N([H])[H])C4([H])[H])C([H])([H])[H])nc3C([H])([H])[H])c([H])c([H])c2C1([H])[H]

$$$$
39:0:0
     RDKit          3D

 94103  0  0  1  0  0  0  0  0999 V2000
  -28.2760  -23.7200   20.5920 C   0  0  0  0  0  3  0  0  0  0  0  0
  -28.1300  -22.3130   20.5400 C   0  0  0  0  0  3  0  0  0  0  0  0
  -28.8490  -24.3670   19.4790 C   0  0  0  0  0  0  0  0  0  0  0  0
  -28.5510  -21.6110   19.3770 C   0  0  0  0  0  0  0  0  0  0  0  0
  -29.3040  -23.6400   18.4220 N   0  0  0  0  0  0  0  0  0  0  0  0
  -29.1700  -22.3010   18.3750 N   0  0  0  0  0  0  0  0  0  0  0  0
  -27.7670  -19.9570   17.6190 C   0  0  0  0  0  1  0  0  0  0  0  0
  -26.8660  -19.7820   19.8850 C   0  0  0  0  0  1  0  0  0  0  0  0
  -28.1640  -20.1120   19.1050 C   0  0  2  0  0  0  0  0  0  0  0  0
  -29.0400  -17.8770   20.1900 C   0  0  0  0  0  3  0  0  0  0  0  0
  -31.0120  -17.7910   19.3130 C   0  0  0  0  0  3  0  0  0  0  0  0
  -29.2140  -19.0200   19.4230 C   0  0  0  0  0  0  0  0  0  0  0  0
  -30.4930  -18.9370   18.8540 N   0  0  0  0  0  0  0  0  0  0  0  0
  -30.1930  -17.0900   20.1170 N   0  0  0  0  0  0  0  0  0  0  0  0
  -31.3450  -16.1730   22.0810 C   0  0  0  0  0  1  0  0  0  0  0  0
  -30.4270  -15.8460   20.8880 C   0  0  0  0  0  3  0  0  0  0  0  0
  -30.9890  -14.6200   20.0870 C   0  0  0  0  0  0  0  0  0  0  0  0
  -30.6970  -12.3930   19.0270 C   0  0  0  0  0  2  0  0  0  0  0  0
  -29.7330  -12.5030   17.8270 C   0  0  0  0  0  2  0  0  0  0  0  0
  -28.2640  -12.3840   18.2810 C   0  0  0  0  0  2  0  0  0  0  0  0
  -27.9410  -13.2940   19.4960 C   0  0  0  0  0  3  0  0  0  0  0  0
  -29.0070  -13.1150   20.5980 C   0  0  0  0  0  2  0  0  0  0  0  0
  -30.3170  -13.4300   20.0050 N   0  0  0  0  0  0  0  0  0  0  0  0
  -32.0680  -14.7740   19.5060 O   0  0  0  0  0  0  0  0  0  0  0  0
  -25.5710  -13.9590   20.2440 C   0  0  0  0  0  0  0  0  0  0  0  0
  -24.4930  -13.2130   20.6400 C   0  0  0  0  0  0  0  0  0  0  0  0
  -24.9220  -11.8510   20.6110 C   0  0  0  0  0  0  0  0  0  0  0  0
  -26.5910  -13.0540   20.0010 N   0  0  0  0  0  0  0  0  0  0  0  0
  -26.2050  -11.7810   20.2770 N   0  0  0  0  0  0  0  0  0  0  0  0
  -24.1730  -10.6060   20.8220 C   0  0  0  0  0  0  0  0  0  0  0  0
  -24.5690   -9.6600   21.7930 C   0  0  0  0  0  3  0  0  0  0  0  0
  -23.8190   -8.4800   21.9900 C   0  0  0  0  0  3  0  0  0  0  0  0
  -22.6590   -8.2370   21.2160 C   0  0  0  0  0  0  0  0  0  0  0  0
  -22.2830   -9.1710   20.2350 C   0  0  0  0  0  3  0  0  0  0  0  0
  -23.0340  -10.3430   20.0360 C   0  0  0  0  0  3  0  0  0  0  0  0
  -21.8860   -7.1060   21.3200 O   0  0  0  0  0  0  0  0  0  0  0  0
  -21.7560   -6.4290   22.5080 C   0  0  0  0  0  0  0  0  0  0  0  0
  -21.2660   -7.0580   23.6740 C   0  0  0  0  0  3  0  0  0  0  0  0
  -21.0820   -6.3080   24.8520 C   0  0  0  0  0  3  0  0  0  0  0  0
  -21.3760   -4.9320   24.8650 C   0  0  0  0  0  0  0  0  0  0  0  0
  -21.8590   -4.3040   23.7040 C   0  0  0  0  0  3  0  0  0  0  0  0
  -22.0440   -5.0500   22.5280 C   0  0  0  0  0  0  0  0  0  0  0  0
  -22.4880   -4.4350   21.4050 F   0  0  0  0  0  0  0  0  0  0  0  0
  -21.1920   -4.2090   25.9970 F   0  0  0  0  0  0  0  0  0  0  0  0
  -23.1120  -13.7240   20.9380 C   0  0  0  0  0  0  0  0  0  0  0  0
  -22.3940  -13.0590   21.8360 N   0  0  0  0  0  0  0  0  0  0  0  0
  -22.6800  -14.7460   20.4080 O   0  0  0  0  0  0  0  0  0  0  0  0
  -22.7570  -12.2290   22.2820 H   0  0  0  0  0  0  0  0  0  0  0  0
  -21.4700  -13.3840   22.0820 H   0  0  0  0  0  0  0  0  0  0  0  0
  -25.7660  -15.3260   20.0550 N   0  0  0  0  0  0  0  0  0  0  0  0
  -25.0220  -16.0020   20.1810 H   0  0  0  0  0  0  0  0  0  0  0  0
  -26.6210  -15.7360   19.7050 H   0  0  0  0  0  0  0  0  0  0  0  0
  -29.0480  -25.8970   19.3850 C   0  0  0  0  0  2  0  0  0  0  0  0
  -28.6230  -26.7160   20.5000 O   0  0  0  0  0  0  0  0  0  0  0  0
  -24.6530  -31.8460   23.4780 C   0  0  0  0  0  0  0  0  0  0  0  0
  -27.4370  -27.4300   20.4360 C   0  0  0  0  0  0  0  0  0  0  0  0
  -23.5180  -30.4580   21.7750 C   0  0  0  0  0  3  0  0  0  0  0  0
  -25.0300  -28.9370   20.3860 C   0  0  0  0  0  0  0  0  0  0  0  0
  -26.0490  -30.8160   21.6850 C   0  0  0  0  0  2  0  0  0  0  0  0
  -26.1620  -29.4520   21.0290 C   0  0  0  0  0  0  0  0  0  0  0  0
  -27.3620  -28.7000   21.0610 C   0  0  0  0  0  3  0  0  0  0  0  0
  -26.2810  -26.9280   19.7980 C   0  0  0  0  0  3  0  0  0  0  0  0
  -25.0840  -27.6720   19.7750 C   0  0  0  0  0  3  0  0  0  0  0  0
  -23.7830  -29.7930   20.3970 C   0  0  0  0  0  2  0  0  0  0  0  0
  -24.7550  -31.0570   22.3710 N   0  0  0  0  0  0  0  0  0  0  0  0
  -23.5520  -32.1140   23.9780 O   0  0  0  0  0  0  0  0  0  0  0  0
  -22.8330  -29.4260   22.6970 C   0  0  0  0  0  0  0  0  0  0  0  0
  -21.5110  -29.2540   22.5280 N   0  0  0  0  0  0  0  0  0  0  0  0
  -23.4870  -28.7820   23.5210 O   0  0  0  0  0  0  0  0  0  0  0  0
  -21.0450  -29.8210   21.8330 H   0  0  0  0  0  0  0  0  0  0  0  0
  -18.1140  -28.0870   22.9180 C   0  0  0  0  0  0  0  0  0  0  0  0
  -20.6660  -28.3080   23.2560 C   0  0  0  0  0  3  0  0  0  0  0  0
  -20.7690  -26.8920   22.6430 C   0  0  0  0  0  2  0  0  0  0  0  0
  -19.6870  -26.6090   21.5960 C   0  0  0  0  0  2  0  0  0  0  0  0
  -18.2910  -26.7550   22.2080 C   0  0  0  0  0  2  0  0  0  0  0  0
  -19.2310  -28.8250   23.3920 C   0  0  0  0  0  0  0  0  0  0  0  0
  -19.0140  -30.0760   24.0080 C   0  0  0  0  0  3  0  0  0  0  0  0
  -17.7120  -30.5910   24.1550 C   0  0  0  0  0  3  0  0  0  0  0  0
  -16.6080  -29.8490   23.6990 C   0  0  0  0  0  3  0  0  0  0  0  0
  -16.8100  -28.5960   23.0890 C   0  0  0  0  0  3  0  0  0  0  0  0
  -25.9150  -32.4730   24.1520 C   0  0  0  0  0  3  0  0  0  0  0  0
  -26.3710  -31.7050   25.4520 C   0  0  1  0  0  0  0  0  0  0  0  0
  -25.2300  -31.4680   26.4690 C   0  0  0  0  0  1  0  0  0  0  0  0
  -26.9740  -30.3270   25.0920 C   0  0  0  0  0  1  0  0  0  0  0  0
  -27.4870  -32.5040   26.1650 C   0  0  0  0  0  1  0  0  0  0  0  0
  -25.6020  -33.8750   24.4610 N   0  0  0  0  0  0  0  0  0  0  0  0
  -25.9640  -34.9210   23.7050 C   0  0  0  0  0  0  0  0  0  0  0  0
  -26.6710  -34.8060   22.7000 O   0  0  0  0  0  0  0  0  0  0  0  0
  -24.9880  -34.0380   25.2460 H   0  0  0  0  0  0  0  0  0  0  0  0
  -24.2620  -36.7190   23.2640 C   0  0  0  0  0  1  0  0  0  0  0  0
  -25.4650  -36.3160   24.1320 C   0  0  0  0  0  3  0  0  0  0  0  0
  -27.5600  -37.2050   25.0510 C   0  0  0  0  0  1  0  0  0  0  0  0
  -26.5080  -37.3610   24.0500 N   0  0  0  0  0  0  0  0  0  0  0  0
  -26.1030  -38.2870   24.1580 H   0  0  0  0  0  0  0  0  0  0  0  0
  2  1  1  0
  3  1  2  0
  4  2  2  0
  5  3  1  0
  6  5  2  0
  6  4  1  0
  9  7  1  6
  9  4  1  0
  9 12  1  0
  9  8  1  0
 11 14  1  0
 12 10  2  0
 13 11  2  0
 13 12  1  0
 14 10  1  0
 14 16  1  0
 16 15  1  0
 17 16  1  0
 18 23  1  0
 19 20  1  0
 19 18  1  0
 21 20  1  0
 21 28  1  0
 21 22  1  0
 23 17  1  0
 23 22  1  0
 24 17  2  0
 25 26  2  0
 26 45  1  0
 27 26  1  0
 27 30  1  0
 28 25  1  0
 28 29  1  0
 29 27  2  0
 30 31  1  0
 31 32  2  0
 33 36  1  0
 33 32  1  0
 34 33  2  0
 35 34  1  0
 35 30  2  0
 36 37  1  0
 37 42  2  0
 37 38  1  0
 38 39  2  0
 39 40  1  0
 40 44  1  0
 41 40  2  0
 42 41  1  0
 43 42  1  0
 45 46  1  0
 46 49  1  0
 46 48  1  0
 47 45  2  0
 50 51  1  0
 50 25  1  0
 52 50  1  0
 53  3  1  0
 53 54  1  0
 55 66  2  0
 56 54  1  0
 56 61  1  0
 57 65  1  0
 57 67  1  0
 58 64  1  0
 58 60  1  0
 59 65  1  0
 60 61  2  0
 60 59  1  0
 62 56  2  0
 63 62  1  0
 63 58  2  0
 64 57  1  0
 65 55  1  0
 67 69  2  0
 68 67  1  0
 70 68  1  0
 71 80  2  0
 71 76  1  0
 72 68  1  0
 72 76  1  0
 73 72  1  0
 74 75  1  0
 74 73  1  0
 75 71  1  0
 76 77  2  0
 77 78  1  0
 79 78  2  0
 80 79  1  0
 81 55  1  0
 81 86  1  0
 81 82  1  0
 82 85  1  1
 82 83  1  0
 84 82  1  0
 86 89  1  0
 87 91  1  0
 87 86  1  0
 88 87  2  0
 91 90  1  0
 93 91  1  0
 93 94  1  0
 93 92  1  0
M  ISO  4  16 100  17 100  53 101  54 101
M  END
>  <TORSDO>  (40) 
F 20

>  <SCORE>  (40) 
-12.883

>  <name>  (40) 
39

>  <ligand_id>  (40) 
39

>  <original_smiles>  (40) 
[H]c1c(C([H])([H])Oc2c([H])c([H])c3c(c2[H])C([H])([H])N(C(=O)C([H])(N([H])C(=O)C([H])(N([H])C([H])([H])[H])C([H])([H])[H])C(C([H])([H])[H])(C([H])([H])[H])C([H])([H])[H])C([H])(C(=O)N([H])C2([H])c4c([H])c([H])c([H])c([H])c4C([H])([H])C([H])([H])C2([H])[H])C3([H])[H])nnc(C(c2nc([H])n(C([H])(C(=O)N3C([H])([H])C([H])([H])C([H])([H])C([H])(n4nc(-c5c([H])c([H])c(Oc6c([H])c([H])c(F)c([H])c6F)c([H])c5[H])c(C(=O)N([H])[H])c4N([H])[H])C3([H])[H])C([H])([H])[H])c2[H])(C([H])([H])[H])C([H])([H])[H])c1[H]

>  <smiles>  (40) 
[H]c1c(C([H])([H])Oc2c([H])c([H])c3c(c2[H])C([H])([H])N(C(=O)C([H])(N([H])C(=O)C([H])(N([H])C([H])([H])[H])C([H])([H])[H])C(C([H])([H])[H])(C([H])([H])[H])C([H])([H])[H])C([H])(C(=O)N([H])C2([H])c4c([H])c([H])c([H])c([H])c4C([H])([H])C([H])([H])C2([H])[H])C3([H])[H])nnc(C(c2nc([H])n(C([H])(C(=O)N3C([H])([H])C([H])([H])C([H])([H])C([H])(n4nc(-c5c([H])c([H])c(Oc6c([H])c([H])c(F)c([H])c6F)c([H])c5[H])c(C(=O)N([H])[H])c4N([H])[H])C3([H])[H])C([H])([H])[H])c2[H])(C([H])([H])[H])C([H])([H])[H])c1[H]

$$$$
40:0:0
     RDKit          3D

 95103  0  0  1  0  0  0  0  0999 V2000
  -29.8760  -21.5160   20.0770 C   0  0  0  0  0  3  0  0  0  0  0  0
  -28.0250  -21.7770   21.1350 C   0  0  0  0  0  3  0  0  0  0  0  0
  -29.3550  -20.2260   20.3110 C   0  0  0  0  0  0  0  0  0  0  0  0
  -28.1650  -20.4480   21.0150 N   0  0  0  0  0  0  0  0  0  0  0  0
  -29.0230  -22.5230   20.6240 N   0  0  0  0  0  0  0  0  0  0  0  0
  -30.8840  -18.9410   18.7500 C   0  0  0  0  0  1  0  0  0  0  0  0
  -28.5340  -18.2570   19.0020 C   0  0  0  0  0  1  0  0  0  0  0  0
  -29.7560  -18.7710   19.7940 C   0  0  2  0  0  0  0  0  0  0  0  0
  -30.1870  -17.6270   20.8800 C   0  0  0  0  0  3  0  0  0  0  0  0
  -31.5860  -17.7850   21.3320 N   0  0  0  0  0  4  0  0  0  0  0  0
  -32.2280  -17.4530   20.6320 H   0  0  0  0  0  0  0  0  0  0  0  0
  -31.7450  -17.2640   22.1750 H   0  0  0  0  0  0  0  0  0  0  0  0
  -31.7840  -18.7520   21.5200 H   0  0  0  0  0  0  0  0  0  0  0  0
  -29.7410  -16.0540   20.7910 C   0  0  0  0  0  2  0  0  0  0  0  0
  -30.5910  -14.8050   20.2540 C   0  0  0  0  0  0  0  0  0  0  0  0
  -30.4170  -12.5570   19.1530 C   0  0  0  0  0  2  0  0  0  0  0  0
  -29.4430  -12.6640   17.9570 C   0  0  0  0  0  2  0  0  0  0  0  0
  -27.9780  -12.4810   18.4070 C   0  0  0  0  0  2  0  0  0  0  0  0
  -27.6340  -13.3330   19.6560 C   0  0  0  0  0  3  0  0  0  0  0  0
  -28.7140  -13.1850   20.7490 C   0  0  0  0  0  2  0  0  0  0  0  0
  -30.0080  -13.5600   20.1600 N   0  0  0  0  0  0  0  0  0  0  0  0
  -31.7370  -14.9800   19.8300 O   0  0  0  0  0  0  0  0  0  0  0  0
  -25.2610  -13.9380   20.4220 C   0  0  0  0  0  0  0  0  0  0  0  0
  -24.2010  -13.1660   20.8150 C   0  0  0  0  0  0  0  0  0  0  0  0
  -24.6620  -11.8140   20.7800 C   0  0  0  0  0  0  0  0  0  0  0  0
  -26.2980  -13.0540   20.1700 N   0  0  0  0  0  0  0  0  0  0  0  0
  -25.9460  -11.7720   20.4460 N   0  0  0  0  0  0  0  0  0  0  0  0
  -23.9390  -10.5530   20.9880 C   0  0  0  0  0  0  0  0  0  0  0  0
  -24.3850   -9.5960   21.9240 C   0  0  0  0  0  3  0  0  0  0  0  0
  -23.6660   -8.3980   22.1210 C   0  0  0  0  0  3  0  0  0  0  0  0
  -22.4860   -8.1490   21.3810 C   0  0  0  0  0  0  0  0  0  0  0  0
  -22.0570   -9.0970   20.4350 C   0  0  0  0  0  3  0  0  0  0  0  0
  -22.7760  -10.2870   20.2380 C   0  0  0  0  0  3  0  0  0  0  0  0
  -21.7380   -7.0020   21.4860 O   0  0  0  0  0  0  0  0  0  0  0  0
  -21.7000   -6.2690   22.6450 C   0  0  0  0  0  0  0  0  0  0  0  0
  -21.2650   -6.8280   23.8660 C   0  0  0  0  0  3  0  0  0  0  0  0
  -21.1750   -6.0220   25.0170 C   0  0  0  0  0  3  0  0  0  0  0  0
  -21.5080   -4.6570   24.9500 C   0  0  0  0  0  0  0  0  0  0  0  0
  -21.9330   -4.0960   23.7340 C   0  0  0  0  0  3  0  0  0  0  0  0
  -22.0270   -4.8990   22.5840 C   0  0  0  0  0  0  0  0  0  0  0  0
  -22.4170   -4.3470   21.4100 F   0  0  0  0  0  0  0  0  0  0  0  0
  -21.4150   -3.8810   26.0540 F   0  0  0  0  0  0  0  0  0  0  0  0
  -22.8090  -13.6450   21.1100 C   0  0  0  0  0  0  0  0  0  0  0  0
  -22.0930  -12.9510   21.9880 N   0  0  0  0  0  0  0  0  0  0  0  0
  -22.3610  -14.6680   20.5940 O   0  0  0  0  0  0  0  0  0  0  0  0
  -22.4670  -12.1260   22.4330 H   0  0  0  0  0  0  0  0  0  0  0  0
  -21.1570  -13.2510   22.2190 H   0  0  0  0  0  0  0  0  0  0  0  0
  -25.4240  -15.3070   20.2370 N   0  0  0  0  0  0  0  0  0  0  0  0
  -24.6650  -15.9670   20.3630 H   0  0  0  0  0  0  0  0  0  0  0  0
  -26.2670  -15.7410   19.8840 H   0  0  0  0  0  0  0  0  0  0  0  0
  -29.1440  -24.4300   22.2320 C   0  0  0  0  0  1  0  0  0  0  0  0
  -29.2010  -24.0380   20.7440 C   0  0  0  0  0  3  0  0  0  0  0  0
  -28.4720  -24.8130   18.4110 C   0  0  0  0  0  1  0  0  0  0  0  0
  -28.2520  -25.0380   19.9180 C   0  0  0  0  0  3  0  0  0  0  0  0
  -28.3870  -26.5070   20.1930 O   0  0  0  0  0  0  0  0  0  0  0  0
  -24.6420  -31.9050   23.2410 C   0  0  0  0  0  0  0  0  0  0  0  0
  -27.2610  -27.3600   20.1430 C   0  0  0  0  0  0  0  0  0  0  0  0
  -23.4390  -30.5120   21.5980 C   0  0  0  0  0  3  0  0  0  0  0  0
  -24.8900  -28.9810   20.1530 C   0  0  0  0  0  0  0  0  0  0  0  0
  -25.9780  -30.8400   21.4050 C   0  0  0  0  0  2  0  0  0  0  0  0
  -26.0610  -29.4650   20.7480 C   0  0  0  0  0  0  0  0  0  0  0  0
  -27.2490  -28.6690   20.7300 C   0  0  0  0  0  3  0  0  0  0  0  0
  -26.0610  -26.9400   19.5230 C   0  0  0  0  0  3  0  0  0  0  0  0
  -24.8950  -27.7270   19.5260 C   0  0  0  0  0  3  0  0  0  0  0  0
  -23.6510  -29.8510   20.2110 C   0  0  0  0  0  2  0  0  0  0  0  0
  -24.7070  -31.1030   22.1370 N   0  0  0  0  0  0  0  0  0  0  0  0
  -23.5590  -32.1730   23.7820 O   0  0  0  0  0  0  0  0  0  0  0  0
  -22.7860  -29.4840   22.5530 C   0  0  0  0  0  0  0  0  0  0  0  0
  -21.4600  -29.3010   22.4300 N   0  0  0  0  0  0  0  0  0  0  0  0
  -23.4690  -28.8560   23.3650 O   0  0  0  0  0  0  0  0  0  0  0  0
  -20.9670  -29.8580   21.7460 H   0  0  0  0  0  0  0  0  0  0  0  0
  -18.0880  -28.0860   22.9380 C   0  0  0  0  0  0  0  0  0  0  0  0
  -20.6470  -28.3550   23.1980 C   0  0  0  0  0  3  0  0  0  0  0  0
  -20.7530  -26.9290   22.6120 C   0  0  0  0  0  2  0  0  0  0  0  0
  -19.6460  -26.6060   21.6020 C   0  0  0  0  0  2  0  0  0  0  0  0
  -18.2670  -26.7430   22.2520 C   0  0  0  0  0  2  0  0  0  0  0  0
  -19.2050  -28.8500   23.3690 C   0  0  0  0  0  0  0  0  0  0  0  0
  -18.9830  -30.1090   23.9700 C   0  0  0  0  0  3  0  0  0  0  0  0
  -17.6760  -30.6020   24.1420 C   0  0  0  0  0  3  0  0  0  0  0  0
  -16.5740  -29.8350   23.7280 C   0  0  0  0  0  3  0  0  0  0  0  0
  -16.7810  -28.5780   23.1330 C   0  0  0  0  0  3  0  0  0  0  0  0
  -25.9230  -32.5410   23.8620 C   0  0  0  0  0  3  0  0  0  0  0  0
  -25.6100  -33.9400   24.1880 N   0  0  0  0  0  0  0  0  0  0  0  0
  -25.9350  -34.9910   23.4250 C   0  0  0  0  0  0  0  0  0  0  0  0
  -26.5960  -34.8870   22.3900 O   0  0  0  0  0  0  0  0  0  0  0  0
  -25.0210  -34.0960   24.9930 H   0  0  0  0  0  0  0  0  0  0  0  0
  -24.1990  -36.7800   23.0810 C   0  0  0  0  0  1  0  0  0  0  0  0
  -25.4480  -36.3800   23.8830 C   0  0  0  0  0  3  0  0  0  0  0  0
  -27.5860  -37.2720   24.7000 C   0  0  0  0  0  1  0  0  0  0  0  0
  -26.4780  -37.4340   23.7610 N   0  0  0  0  0  0  0  0  0  0  0  0
  -26.0700  -38.3550   23.9040 H   0  0  0  0  0  0  0  0  0  0  0  0
  -26.4380  -31.7750   25.1420 C   0  0  1  0  0  0  0  0  0  0  0  0
  -25.3420  -31.5390   26.2080 C   0  0  0  0  0  1  0  0  0  0  0  0
  -27.0250  -30.3980   24.7550 C   0  0  0  0  0  1  0  0  0  0  0  0
  -27.5860  -32.5750   25.8030 C   0  0  0  0  0  1  0  0  0  0  0  0
  1  3  2  0
  1  5  1  0
  3  4  1  0
  4  2  2  0
  5 52  1  0
  5  2  1  0
  8  6  1  6
  7  8  1  0
  8  3  1  0
  8  9  1  0
  9 14  1  0
  9 10  1  0
 10 13  1  0
 10 12  1  0
 11 10  1  0
 15 14  1  0
 16 21  1  0
 17 18  1  0
 17 16  1  0
 19 18  1  0
 19 26  1  0
 19 20  1  0
 21 15  1  0
 21 20  1  0
 22 15  2  0
 23 24  2  0
 24 43  1  0
 25 24  1  0
 25 28  1  0
 26 23  1  0
 26 27  1  0
 27 25  2  0
 28 29  1  0
 29 30  2  0
 31 34  1  0
 31 30  1  0
 32 31  2  0
 33 32  1  0
 33 28  2  0
 34 35  1  0
 35 36  1  0
 36 37  2  0
 38 37  1  0
 38 42  1  0
 39 38  2  0
 40 35  2  0
 40 39  1  0
 41 40  1  0
 43 44  1  0
 44 47  1  0
 44 46  1  0
 45 43  2  0
 48 49  1  0
 48 23  1  0
 50 48  1  0
 52 51  1  0
 54 53  1  0
 54 55  1  0
 54 52  1  0
 56 67  2  0
 57 55  1  0
 57 62  1  0
 58 66  1  0
 58 68  1  0
 59 65  1  0
 59 61  1  0
 60 66  1  0
 61 60  1  0
 62 61  2  0
 63 64  1  0
 63 57  2  0
 64 59  2  0
 65 58  1  0
 66 56  1  0
 68 70  2  0
 69 68  1  0
 71 69  1  0
 72 81  2  0
 72 77  1  0
 73 69  1  0
 73 77  1  0
 74 73  1  0
 75 76  1  0
 75 74  1  0
 76 72  1  0
 77 78  2  0
 78 79  1  0
 80 79  2  0
 81 80  1  0
 82 56  1  0
 82 83  1  0
 82 92  1  0
 83 86  1  0
 84 88  1  0
 84 83  1  0
 85 84  2  0
 88 87  1  0
 90 88  1  0
 90 91  1  0
 90 89  1  0
 92 95  1  1
 92 93  1  0
 94 92  1  0
M  ISO  4  14 100  15 100  54 101  55 101
M  END
>  <TORSDO>  (41) 
F 22

>  <SCORE>  (41) 
-13.535

>  <name>  (41) 
40

>  <ligand_id>  (41) 
40

>  <original_smiles>  (41) 
[H]c1c([H])c([H])c2c(c1[H])C([H])([H])C([H])([H])C([H])([H])C2([H])N([H])C(=O)C1([H])N(C(=O)C([H])(N([H])C(=O)C([H])(N([H])C([H])([H])[H])C([H])([H])[H])C(C([H])([H])[H])(C([H])([H])[H])C([H])([H])[H])C([H])([H])c2c([H])c(OC([H])(C([H])([H])[H])C([H])(n3c([H])nc(C(C([H])([H])[H])(C([H])([H])[H])C([H])(C([H])([H])C(=O)N4C([H])([H])C([H])([H])C([H])([H])C([H])(n5nc(-c6c([H])c([H])c(Oc7c([H])c([H])c(F)c([H])c7F)c([H])c6[H])c(C(=O)N([H])[H])c5N([H])[H])C4([H])[H])[N+]([H])([H])[H])c3[H])C([H])([H])[H])c([H])c([H])c2C1([H])[H]

>  <smiles>  (41) 
[H]c1c([H])c([H])c2c(c1[H])C([H])([H])C([H])([H])C([H])([H])C2([H])N([H])C(=O)C1([H])N(C(=O)C([H])(N([H])C(=O)C([H])(N([H])C([H])([H])[H])C([H])([H])[H])C(C([H])([H])[H])(C([H])([H])[H])C([H])([H])[H])C([H])([H])c2c([H])c(OC([H])(C([H])([H])[H])C([H])(n3c([H])nc(C(C([H])([H])[H])(C([H])([H])[H])C([H])(C([H])([H])C(=O)N4C([H])([H])C([H])([H])C([H])([H])C([H])(n5nc(-c6c([H])c([H])c(Oc7c([H])c([H])c(F)c([H])c7F)c([H])c6[H])c(C(=O)N([H])[H])c5N([H])[H])C4([H])[H])[N+]([H])([H])[H])c3[H])C([H])([H])[H])c([H])c([H])c2C1([H])[H]

$$$$
41:0:0
     RDKit          3D

 88 96  0  0  1  0  0  0  0  0999 V2000
  -28.8360  -18.7520   20.5590 C   0  0  0  0  0  3  0  0  0  0  0  0
  -29.2910  -20.1080   20.1270 C   0  0  0  0  0  0  0  0  0  0  0  0
  -29.7810  -17.7310   20.2530 C   0  0  0  0  0  0  0  0  0  0  0  0
  -32.0290  -18.0660   19.0370 C   0  0  0  0  0  1  0  0  0  0  0  0
  -30.4930  -19.8590   19.5830 N   0  0  0  0  0  0  0  0  0  0  0  0
  -30.7870  -18.4960   19.6470 N   0  0  0  0  0  0  0  0  0  0  0  0
  -30.4890  -15.0970   20.2760 C   0  0  0  0  0  0  0  0  0  0  0  0
  -30.3990  -12.7130   19.3710 C   0  0  0  0  0  2  0  0  0  0  0  0
  -29.4610  -12.6290   18.1440 C   0  0  0  0  0  2  0  0  0  0  0  0
  -28.0040  -12.3980   18.5860 C   0  0  0  0  0  2  0  0  0  0  0  0
  -27.5860  -13.3280   19.7550 C   0  0  0  0  0  3  0  0  0  0  0  0
  -28.6530  -13.3770   20.8710 C   0  0  0  0  0  2  0  0  0  0  0  0
  -29.9110  -13.8180   20.2510 N   0  0  0  0  0  0  0  0  0  0  0  0
  -31.6960  -15.1410   20.0130 O   0  0  0  0  0  0  0  0  0  0  0  0
  -29.6830  -16.2790   20.4270 N   0  0  0  0  0  0  0  0  0  0  0  0
  -28.7500  -16.0050   20.6870 H   0  0  0  0  0  0  0  0  0  0  0  0
  -25.2080  -13.8840   20.5150 C   0  0  0  0  0  0  0  0  0  0  0  0
  -24.1520  -13.1040   20.8900 C   0  0  0  0  0  0  0  0  0  0  0  0
  -24.6250  -11.7560   20.8560 C   0  0  0  0  0  0  0  0  0  0  0  0
  -26.2570  -13.0150   20.2670 N   0  0  0  0  0  0  0  0  0  0  0  0
  -25.9160  -11.7280   20.5410 N   0  0  0  0  0  0  0  0  0  0  0  0
  -23.9060  -10.4900   21.0490 C   0  0  0  0  0  0  0  0  0  0  0  0
  -24.3480   -9.5200   21.9770 C   0  0  0  0  0  3  0  0  0  0  0  0
  -23.6260   -8.3210   22.1590 C   0  0  0  0  0  3  0  0  0  0  0  0
  -22.4490   -8.0800   21.4100 C   0  0  0  0  0  0  0  0  0  0  0  0
  -22.0270   -9.0360   20.4700 C   0  0  0  0  0  3  0  0  0  0  0  0
  -22.7490  -10.2280   20.2890 C   0  0  0  0  0  3  0  0  0  0  0  0
  -21.7010   -6.9300   21.4990 O   0  0  0  0  0  0  0  0  0  0  0  0
  -21.6620   -6.1840   22.6490 C   0  0  0  0  0  0  0  0  0  0  0  0
  -21.2220   -6.7280   23.8760 C   0  0  0  0  0  3  0  0  0  0  0  0
  -21.1360   -5.9100   25.0200 C   0  0  0  0  0  3  0  0  0  0  0  0
  -21.4750   -4.5440   24.9360 C   0  0  0  0  0  0  0  0  0  0  0  0
  -21.9070   -3.9990   23.7140 C   0  0  0  0  0  3  0  0  0  0  0  0
  -21.9990   -4.8170   22.5740 C   0  0  0  0  0  0  0  0  0  0  0  0
  -22.3970   -4.2810   21.3940 F   0  0  0  0  0  0  0  0  0  0  0  0
  -21.3820   -3.7550   26.0310 F   0  0  0  0  0  0  0  0  0  0  0  0
  -22.7510  -13.5730   21.1610 C   0  0  0  0  0  0  0  0  0  0  0  0
  -22.0270  -12.8820   22.0330 N   0  0  0  0  0  0  0  0  0  0  0  0
  -22.3080  -14.5930   20.6360 O   0  0  0  0  0  0  0  0  0  0  0  0
  -22.3930  -12.0600   22.4890 H   0  0  0  0  0  0  0  0  0  0  0  0
  -21.0900  -13.1870   22.2520 H   0  0  0  0  0  0  0  0  0  0  0  0
  -25.3590  -15.2580   20.3350 N   0  0  0  0  0  0  0  0  0  0  0  0
  -24.5780  -15.8990   20.4340 H   0  0  0  0  0  0  0  0  0  0  0  0
  -26.1870  -15.7000   19.9600 H   0  0  0  0  0  0  0  0  0  0  0  0
  -28.5200  -21.5890   19.9280 C   0  0  0  0  0  2  0  0  0  0  0  0
  -28.9520  -23.1950   20.3260 C   0  0  0  0  0  3  0  0  0  0  0  0
  -28.0030  -24.5950   20.0050 C   0  0  0  0  0  3  0  0  0  0  0  0
  -28.2400  -26.1330   20.3010 O   0  0  0  0  0  0  0  0  0  0  0  0
  -24.6330  -31.9200   23.2570 C   0  0  0  0  0  0  0  0  0  0  0  0
  -27.1910  -27.1430   20.2380 C   0  0  0  0  0  0  0  0  0  0  0  0
  -23.4290  -30.5200   21.6240 C   0  0  0  0  0  3  0  0  0  0  0  0
  -24.8710  -28.9250   20.2070 C   0  0  0  0  0  0  0  0  0  0  0  0
  -25.9880  -30.7590   21.4670 C   0  0  0  0  0  2  0  0  0  0  0  0
  -26.0540  -29.3590   20.8200 C   0  0  0  0  0  0  0  0  0  0  0  0
  -27.2120  -28.4810   20.8240 C   0  0  0  0  0  3  0  0  0  0  0  0
  -25.9800  -26.8230   19.5850 C   0  0  0  0  0  3  0  0  0  0  0  0
  -24.8490  -27.6710   19.5770 C   0  0  0  0  0  3  0  0  0  0  0  0
  -23.6490  -29.8290   20.2510 C   0  0  0  0  0  2  0  0  0  0  0  0
  -24.7030  -31.0920   22.1690 N   0  0  0  0  0  0  0  0  0  0  0  0
  -23.5470  -32.2120   23.7830 O   0  0  0  0  0  0  0  0  0  0  0  0
  -22.7400  -29.5270   22.5920 C   0  0  0  0  0  0  0  0  0  0  0  0
  -21.4120  -29.3590   22.4610 N   0  0  0  0  0  0  0  0  0  0  0  0
  -23.4030  -28.9040   23.4230 O   0  0  0  0  0  0  0  0  0  0  0  0
  -20.9310  -29.9170   21.7700 H   0  0  0  0  0  0  0  0  0  0  0  0
  -18.0270  -28.1610   22.9630 C   0  0  0  0  0  0  0  0  0  0  0  0
  -20.5860  -28.4270   23.2350 C   0  0  0  0  0  3  0  0  0  0  0  0
  -20.6850  -26.9900   22.6730 C   0  0  0  0  0  2  0  0  0  0  0  0
  -19.5890  -26.6620   21.6560 C   0  0  0  0  0  2  0  0  0  0  0  0
  -18.2040  -26.8100   22.2900 C   0  0  0  0  0  2  0  0  0  0  0  0
  -19.1440  -28.9270   23.3930 C   0  0  0  0  0  0  0  0  0  0  0  0
  -18.9220  -30.1910   23.9820 C   0  0  0  0  0  3  0  0  0  0  0  0
  -17.6160  -30.6910   24.1410 C   0  0  0  0  0  3  0  0  0  0  0  0
  -16.5140  -29.9250   23.7240 C   0  0  0  0  0  3  0  0  0  0  0  0
  -16.7200  -28.6590   23.1460 C   0  0  0  0  0  3  0  0  0  0  0  0
  -25.9120  -32.5520   23.8870 C   0  0  0  0  0  3  0  0  0  0  0  0
  -26.4140  -31.7860   25.1730 C   0  0  1  0  0  0  0  0  0  0  0  0
  -25.3120  -31.5630   26.2360 C   0  0  0  0  0  1  0  0  0  0  0  0
  -26.9910  -30.4020   24.8020 C   0  0  0  0  0  1  0  0  0  0  0  0
  -27.5720  -32.5750   25.8310 C   0  0  0  0  0  1  0  0  0  0  0  0
  -25.6060  -33.9520   24.2190 N   0  0  0  0  0  0  0  0  0  0  0  0
  -25.9260  -35.0070   23.4530 C   0  0  0  0  0  0  0  0  0  0  0  0
  -26.5750  -34.8990   22.4100 O   0  0  0  0  0  0  0  0  0  0  0  0
  -25.0280  -34.1070   25.0310 H   0  0  0  0  0  0  0  0  0  0  0  0
  -24.1870  -36.7990   23.1410 C   0  0  0  0  0  1  0  0  0  0  0  0
  -25.4530  -36.4000   23.9170 C   0  0  0  0  0  3  0  0  0  0  0  0
  -27.6090  -37.2930   24.6810 C   0  0  0  0  0  1  0  0  0  0  0  0
  -26.4830  -37.4520   23.7640 N   0  0  0  0  0  0  0  0  0  0  0  0
  -26.0850  -38.3760   23.9080 H   0  0  0  0  0  0  0  0  0  0  0  0
  2  1  1  0
  3 15  1  0
  3  1  2  0
  4  6  1  0
  5  6  1  0
  5  2  2  0
  6  3  1  0
  7 15  1  0
  8 13  1  0
  9 10  1  0
  9  8  1  0
 11 10  1  0
 11 20  1  0
 11 12  1  0
 13  7  1  0
 13 12  1  0
 14  7  2  0
 15 16  1  0
 17 18  2  0
 18 37  1  0
 19 18  1  0
 19 22  1  0
 20 17  1  0
 20 21  1  0
 21 19  2  0
 22 23  1  0
 23 24  2  0
 25 28  1  0
 25 24  1  0
 26 25  2  0
 27 26  1  0
 27 22  2  0
 28 29  1  0
 29 30  1  0
 30 31  2  0
 32 31  1  0
 32 36  1  0
 33 32  2  0
 34 29  2  0
 34 33  1  0
 35 34  1  0
 37 38  1  0
 38 41  1  0
 38 40  1  0
 39 37  2  0
 42 43  1  0
 42 17  1  0
 44 42  1  0
 45  2  1  0
 45 46  1  0
 47 48  1  0
 47 46  2  0
 49 60  2  0
 50 48  1  0
 50 55  1  0
 51 59  1  0
 51 61  1  0
 52 58  1  0
 52 54  1  0
 53 59  1  0
 54 55  2  0
 54 53  1  0
 56 50  2  0
 57 56  1  0
 57 52  2  0
 58 51  1  0
 59 49  1  0
 61 63  2  0
 62 61  1  0
 64 62  1  0
 65 74  2  0
 65 70  1  0
 66 62  1  0
 66 70  1  0
 67 66  1  0
 68 69  1  0
 68 67  1  0
 69 65  1  0
 70 71  2  0
 71 72  1  0
 73 72  2  0
 74 73  1  0
 75 49  1  0
 75 80  1  0
 75 76  1  0
 76 79  1  1
 76 77  1  0
 78 76  1  0
 80 83  1  0
 81 85  1  0
 81 80  1  0
 82 81  2  0
 85 84  1  0
 87 88  1  0
 87 85  1  0
 87 86  1  0
M  ISO  4   7 100  15 100  47 101  48 101
M  END
>  <TORSDO>  (42) 
F 19

>  <SCORE>  (42) 
-15.421

>  <name>  (42) 
41

>  <ligand_id>  (42) 
41

>  <original_smiles>  (42) 
[H]c1c([H])c([H])c2c(c1[H])C([H])([H])C([H])([H])C([H])([H])C2([H])N([H])C(=O)C1([H])N(C(=O)C([H])(N([H])C(=O)C([H])(N([H])C([H])([H])[H])C([H])([H])[H])C(C([H])([H])[H])(C([H])([H])[H])C([H])([H])[H])C([H])([H])c2c([H])c(OC([H])([H])C([H])([H])C([H])([H])c3nn(C([H])([H])[H])c(N([H])C(=O)N4C([H])([H])C([H])([H])C([H])([H])C([H])(n5nc(-c6c([H])c([H])c(Oc7c([H])c([H])c(F)c([H])c7F)c([H])c6[H])c(C(=O)N([H])[H])c5N([H])[H])C4([H])[H])c3[H])c([H])c([H])c2C1([H])[H]

>  <smiles>  (42) 
[H]c1c([H])c([H])c2c(c1[H])C([H])([H])C([H])([H])C([H])([H])C2([H])N([H])C(=O)C1([H])N(C(=O)C([H])(N([H])C(=O)C([H])(N([H])C([H])([H])[H])C([H])([H])[H])C(C([H])([H])[H])(C([H])([H])[H])C([H])([H])[H])C([H])([H])c2c([H])c(OC([H])([H])C([H])([H])C([H])([H])c3nn(C([H])([H])[H])c(N([H])C(=O)N4C([H])([H])C([H])([H])C([H])([H])C([H])(n5nc(-c6c([H])c([H])c(Oc7c([H])c([H])c(F)c([H])c7F)c([H])c6[H])c(C(=O)N([H])[H])c5N([H])[H])C4([H])[H])c3[H])c([H])c([H])c2C1([H])[H]

$$$$
42:0:0
     RDKit          3D

 90 98  0  0  1  0  0  0  0  0999 V2000
  -29.7220  -18.7840   20.1110 C   0  0  0  0  0  0  0  0  0  0  0  0
  -30.2930  -19.3490   21.2290 N   0  0  0  0  0  0  0  0  0  0  0  0
  -29.1030  -19.7480   19.3920 N   0  0  0  0  0  2  0  0  0  0  0  0
  -30.0100  -20.6430   21.2350 N   0  0  0  0  0  2  0  0  0  0  0  0
  -29.3070  -20.9190   20.1060 N   0  0  0  0  0  0  0  0  0  0  0  0
  -28.6920  -22.2700   19.6940 C   0  0  0  0  0  2  0  0  0  0  0  0
  -29.0430  -23.7220   20.3480 C   0  0  0  0  0  3  0  0  0  0  0  0
  -28.2310  -25.0150   19.7710 C   0  0  0  0  0  3  0  0  0  0  0  0
  -28.3130  -26.4270   20.3150 O   0  0  0  0  0  0  0  0  0  0  0  0
  -24.5970  -31.9680   23.2480 C   0  0  0  0  0  0  0  0  0  0  0  0
  -27.2050  -27.3180   20.2330 C   0  0  0  0  0  0  0  0  0  0  0  0
  -23.3980  -30.5540   21.6190 C   0  0  0  0  0  3  0  0  0  0  0  0
  -24.8490  -28.9810   20.2150 C   0  0  0  0  0  0  0  0  0  0  0  0
  -25.9430  -30.8440   21.4520 C   0  0  0  0  0  2  0  0  0  0  0  0
  -26.0200  -29.4520   20.8190 C   0  0  0  0  0  0  0  0  0  0  0  0
  -27.1960  -28.6320   20.8200 C   0  0  0  0  0  3  0  0  0  0  0  0
  -26.0110  -26.9360   19.5740 C   0  0  0  0  0  3  0  0  0  0  0  0
  -24.8500  -27.7320   19.5850 C   0  0  0  0  0  3  0  0  0  0  0  0
  -23.6200  -29.8690   20.2480 C   0  0  0  0  0  2  0  0  0  0  0  0
  -24.6660  -31.1440   22.1600 N   0  0  0  0  0  0  0  0  0  0  0  0
  -23.5090  -32.2600   23.7680 O   0  0  0  0  0  0  0  0  0  0  0  0
  -22.7230  -29.5550   22.5890 C   0  0  0  0  0  0  0  0  0  0  0  0
  -21.3970  -29.3820   22.4550 N   0  0  0  0  0  0  0  0  0  0  0  0
  -23.3900  -28.9360   23.4220 O   0  0  0  0  0  0  0  0  0  0  0  0
  -20.9200  -29.9280   21.7510 H   0  0  0  0  0  0  0  0  0  0  0  0
  -17.9990  -28.2310   22.9600 C   0  0  0  0  0  0  0  0  0  0  0  0
  -20.5620  -28.4590   23.2280 C   0  0  0  0  0  3  0  0  0  0  0  0
  -20.6460  -27.0260   22.6550 C   0  0  0  0  0  2  0  0  0  0  0  0
  -19.5390  -26.7120   21.6450 C   0  0  0  0  0  2  0  0  0  0  0  0
  -18.1590  -26.8770   22.2890 C   0  0  0  0  0  2  0  0  0  0  0  0
  -19.1280  -28.9820   23.3850 C   0  0  0  0  0  0  0  0  0  0  0  0
  -18.9250  -30.2500   23.9720 C   0  0  0  0  0  3  0  0  0  0  0  0
  -17.6270  -30.7680   24.1390 C   0  0  0  0  0  3  0  0  0  0  0  0
  -16.5130  -30.0160   23.7290 C   0  0  0  0  0  3  0  0  0  0  0  0
  -16.6990  -28.7500   23.1470 C   0  0  0  0  0  3  0  0  0  0  0  0
  -25.8760  -32.5980   23.8760 C   0  0  0  0  0  3  0  0  0  0  0  0
  -25.5680  -33.9990   24.2050 N   0  0  0  0  0  0  0  0  0  0  0  0
  -25.8930  -35.0500   23.4420 C   0  0  0  0  0  0  0  0  0  0  0  0
  -26.5570  -34.9490   22.4080 O   0  0  0  0  0  0  0  0  0  0  0  0
  -24.9820  -34.1610   25.0110 H   0  0  0  0  0  0  0  0  0  0  0  0
  -24.1660  -36.8450   23.1020 C   0  0  0  0  0  1  0  0  0  0  0  0
  -25.4100  -36.4400   23.9050 C   0  0  0  0  0  3  0  0  0  0  0  0
  -27.5470  -37.3280   24.7280 C   0  0  0  0  0  1  0  0  0  0  0  0
  -26.4400  -37.4940   23.7890 N   0  0  0  0  0  0  0  0  0  0  0  0
  -26.0320  -38.4120   23.9430 H   0  0  0  0  0  0  0  0  0  0  0  0
  -26.3900  -31.8280   25.1530 C   0  0  1  0  0  0  0  0  0  0  0  0
  -25.2880  -31.5690   26.2070 C   0  0  0  0  0  1  0  0  0  0  0  0
  -26.9880  -30.4590   24.7510 C   0  0  0  0  0  1  0  0  0  0  0  0
  -27.5180  -32.6340   25.8340 C   0  0  0  0  0  1  0  0  0  0  0  0
  -29.7090  -17.2510   19.6350 C   0  0  0  0  0  3  0  0  0  0  0  0
  -30.7880  -14.8340   20.0600 C   0  0  0  0  0  0  0  0  0  0  0  0
  -30.4920  -12.5780   18.9730 C   0  0  0  0  0  2  0  0  0  0  0  0
  -29.4760  -12.6770   17.8110 C   0  0  0  0  0  2  0  0  0  0  0  0
  -28.0250  -12.5550   18.3160 C   0  0  0  0  0  2  0  0  0  0  0  0
  -27.7560  -13.3840   19.5960 C   0  0  0  0  0  3  0  0  0  0  0  0
  -28.8780  -13.2050   20.6340 C   0  0  0  0  0  2  0  0  0  0  0  0
  -30.1350  -13.6100   19.9860 N   0  0  0  0  0  0  0  0  0  0  0  0
  -31.9050  -14.9360   19.5450 O   0  0  0  0  0  0  0  0  0  0  0  0
  -29.7060  -16.0300   21.8930 C   0  0  0  0  0  1  0  0  0  0  0  0
  -30.0780  -15.9790   20.4670 N   0  0  0  0  0  0  0  0  0  0  0  0
  -25.4200  -13.9780   20.4780 C   0  0  0  0  0  0  0  0  0  0  0  0
  -24.3620  -13.2020   20.8800 C   0  0  0  0  0  0  0  0  0  0  0  0
  -24.8050  -11.8510   20.7700 C   0  0  0  0  0  0  0  0  0  0  0  0
  -26.4390  -13.0950   20.1560 N   0  0  0  0  0  0  0  0  0  0  0  0
  -26.0760  -11.8090   20.3910 N   0  0  0  0  0  0  0  0  0  0  0  0
  -24.0720  -10.5890   20.9520 C   0  0  0  0  0  0  0  0  0  0  0  0
  -24.5180   -9.5930   21.8510 C   0  0  0  0  0  3  0  0  0  0  0  0
  -23.7790   -8.4010   22.0210 C   0  0  0  0  0  3  0  0  0  0  0  0
  -22.5830   -8.1940   21.2930 C   0  0  0  0  0  0  0  0  0  0  0  0
  -22.1620   -9.1760   20.3800 C   0  0  0  0  0  3  0  0  0  0  0  0
  -22.9030  -10.3600   20.2050 C   0  0  0  0  0  3  0  0  0  0  0  0
  -21.8140   -7.0600   21.3820 O   0  0  0  0  0  0  0  0  0  0  0  0
  -21.7540   -6.3160   22.5330 C   0  0  0  0  0  0  0  0  0  0  0  0
  -21.2900   -6.8630   23.7500 C   0  0  0  0  0  3  0  0  0  0  0  0
  -21.1770   -6.0440   24.8910 C   0  0  0  0  0  3  0  0  0  0  0  0
  -21.5170   -4.6800   24.8170 C   0  0  0  0  0  0  0  0  0  0  0  0
  -21.9690   -4.1330   23.6040 C   0  0  0  0  0  3  0  0  0  0  0  0
  -22.0830   -4.9470   22.4650 C   0  0  0  0  0  0  0  0  0  0  0  0
  -22.5040   -4.4090   21.2960 F   0  0  0  0  0  0  0  0  0  0  0  0
  -21.3990   -3.8940   25.9120 F   0  0  0  0  0  0  0  0  0  0  0  0
  -22.9920  -13.6870   21.2500 C   0  0  0  0  0  0  0  0  0  0  0  0
  -22.3070  -12.9600   22.1310 N   0  0  0  0  0  0  0  0  0  0  0  0
  -22.5390  -14.7360   20.7960 O   0  0  0  0  0  0  0  0  0  0  0  0
  -22.6910  -12.1100   22.5150 H   0  0  0  0  0  0  0  0  0  0  0  0
  -21.3890  -13.2630   22.4240 H   0  0  0  0  0  0  0  0  0  0  0  0
  -25.5960  -15.3490   20.3470 N   0  0  0  0  0  0  0  0  0  0  0  0
  -24.8630  -16.0210   20.5450 H   0  0  0  0  0  0  0  0  0  0  0  0
  -26.4520  -15.7910   20.0420 H   0  0  0  0  0  0  0  0  0  0  0  0
  -31.4930  -17.7560   17.7450 C   0  0  0  0  0  1  0  0  0  0  0  0
  -30.1460  -17.1390   18.1410 C   0  0  0  0  0  2  0  0  0  0  0  0
  1  2  2  0
  2  4  1  0
  3  5  1  0
  3  1  1  0
  5  4  1  0
  6  5  1  0
  6  7  1  0
  8  9  1  0
  8  7  2  0
 10 21  2  0
 11  9  1  0
 11 16  1  0
 12 20  1  0
 12 22  1  0
 13 19  1  0
 13 15  1  0
 14 20  1  0
 15 16  2  0
 15 14  1  0
 17 18  1  0
 17 11  2  0
 18 13  2  0
 19 12  1  0
 20 10  1  0
 22 24  2  0
 23 22  1  0
 25 23  1  0
 26 35  2  0
 26 31  1  0
 27 23  1  0
 27 31  1  0
 28 27  1  0
 29 30  1  0
 29 28  1  0
 30 26  1  0
 31 32  2  0
 32 33  1  0
 34 33  2  0
 35 34  1  0
 36 10  1  0
 36 37  1  0
 36 46  1  0
 37 40  1  0
 38 42  1  0
 38 37  1  0
 39 38  2  0
 42 41  1  0
 44 42  1  0
 44 45  1  0
 44 43  1  0
 46 49  1  1
 46 47  1  0
 48 46  1  0
 50 90  1  0
 50  1  1  0
 50 60  1  0
 51 60  1  0
 52 57  1  0
 53 54  1  0
 53 52  1  0
 55 54  1  0
 55 64  1  0
 55 56  1  0
 57 51  1  0
 57 56  1  0
 58 51  2  0
 60 59  1  0
 61 62  2  0
 62 81  1  0
 63 62  1  0
 63 66  1  0
 64 65  1  0
 64 61  1  0
 65 63  2  0
 66 67  1  0
 67 68  2  0
 69 72  1  0
 69 68  1  0
 70 69  2  0
 71 70  1  0
 71 66  2  0
 72 73  1  0
 73 74  1  0
 74 75  2  0
 76 75  1  0
 76 80  1  0
 77 76  2  0
 78 73  2  0
 78 77  1  0
 79 78  1  0
 81 82  1  0
 82 85  1  0
 82 84  1  0
 83 81  2  0
 86 61  1  0
 86 87  1  0
 88 86  1  0
 89 90  1  0
M  ISO  4   8 101   9 101  51 100  60 100
M  END
>  <TORSDO>  (43) 
F 21

>  <SCORE>  (43) 
-12.888

>  <name>  (43) 
42

>  <ligand_id>  (43) 
42

>  <original_smiles>  (43) 
[H]c1c([H])c([H])c2c(c1[H])C([H])([H])C([H])([H])C([H])([H])C2([H])N([H])C(=O)C1([H])N(C(=O)C([H])(N([H])C(=O)C([H])(N([H])C([H])([H])[H])C([H])([H])[H])C(C([H])([H])[H])(C([H])([H])[H])C([H])([H])[H])C([H])([H])c2c([H])c(OC([H])([H])C([H])([H])C([H])([H])n3nnc(C([H])(N(C(=O)N4C([H])([H])C([H])([H])C([H])([H])C([H])(n5nc(-c6c([H])c([H])c(Oc7c([H])c([H])c(F)c([H])c7F)c([H])c6[H])c(C(=O)N([H])[H])c5N([H])[H])C4([H])[H])C([H])([H])[H])C([H])([H])C([H])([H])[H])n3)c([H])c([H])c2C1([H])[H]

>  <smiles>  (43) 
[H]c1c([H])c([H])c2c(c1[H])C([H])([H])C([H])([H])C([H])([H])C2([H])N([H])C(=O)C1([H])N(C(=O)C([H])(N([H])C(=O)C([H])(N([H])C([H])([H])[H])C([H])([H])[H])C(C([H])([H])[H])(C([H])([H])[H])C([H])([H])[H])C([H])([H])c2c([H])c(OC([H])([H])C([H])([H])C([H])([H])n3nnc(C([H])(N(C(=O)N4C([H])([H])C([H])([H])C([H])([H])C([H])(n5nc(-c6c([H])c([H])c(Oc7c([H])c([H])c(F)c([H])c7F)c([H])c6[H])c(C(=O)N([H])[H])c5N([H])[H])C4([H])[H])C([H])([H])[H])C([H])([H])C([H])([H])[H])n3)c([H])c([H])c2C1([H])[H]

$$$$
43:0:0
     RDKit          3D

 92100  0  0  1  0  0  0  0  0999 V2000
  -28.9780  -20.0940   18.2480 C   0  0  0  0  0  3  0  0  0  0  0  0
  -29.4020  -19.9350   19.5530 C   0  0  0  0  0  0  0  0  0  0  0  0
  -28.7290  -17.9900   18.6130 C   0  0  0  0  0  3  0  0  0  0  0  0
  -28.1970  -16.6290   18.3230 C   0  0  0  0  0  1  0  0  0  0  0  0
  -28.4210  -18.9390   17.7600 N   0  0  0  0  0  2  0  0  0  0  0  0
  -29.6010  -18.3630   19.5960 N   0  0  0  0  0  0  0  0  0  0  0  0
  -27.7010  -22.0480   17.2270 C   0  0  0  0  0  1  0  0  0  0  0  0
  -29.0240  -21.2730   17.3240 C   0  0  0  0  0  2  0  0  0  0  0  0
  -29.5550  -21.3770   20.4700 C   0  0  0  0  0  3  0  0  0  0  0  0
  -29.4430  -23.1450   20.0720 C   0  0  0  0  0  2  0  0  0  0  0  0
  -28.2680  -24.4790   20.1250 C   0  0  0  0  0  2  0  0  0  0  0  0
  -28.4390  -26.1020   20.1920 O   0  0  0  0  0  0  0  0  0  0  0  0
  -24.5530  -31.8690   23.0620 C   0  0  0  0  0  0  0  0  0  0  0  0
  -27.3690  -27.1280   20.1130 C   0  0  0  0  0  0  0  0  0  0  0  0
  -23.4500  -30.4350   21.3880 C   0  0  0  0  0  3  0  0  0  0  0  0
  -24.9900  -28.8860   20.0080 C   0  0  0  0  0  0  0  0  0  0  0  0
  -26.0060  -30.7540   21.3010 C   0  0  0  0  0  2  0  0  0  0  0  0
  -26.1460  -29.3500   20.6520 C   0  0  0  0  0  0  0  0  0  0  0  0
  -27.3310  -28.4920   20.6770 C   0  0  0  0  0  3  0  0  0  0  0  0
  -26.1790  -26.8010   19.4240 C   0  0  0  0  0  3  0  0  0  0  0  0
  -25.0320  -27.6340   19.3700 C   0  0  0  0  0  3  0  0  0  0  0  0
  -23.7320  -29.7490   20.0230 C   0  0  0  0  0  2  0  0  0  0  0  0
  -24.6900  -31.0450   21.9740 N   0  0  0  0  0  0  0  0  0  0  0  0
  -23.4380  -32.1290   23.5440 O   0  0  0  0  0  0  0  0  0  0  0  0
  -22.7550  -29.4200   22.3340 C   0  0  0  0  0  0  0  0  0  0  0  0
  -21.4260  -29.2470   22.1920 N   0  0  0  0  0  0  0  0  0  0  0  0
  -23.4230  -28.7800   23.1490 O   0  0  0  0  0  0  0  0  0  0  0  0
  -20.9440  -29.8120   21.5090 H   0  0  0  0  0  0  0  0  0  0  0  0
  -18.0320  -28.0840   22.6790 C   0  0  0  0  0  0  0  0  0  0  0  0
  -20.5980  -28.2870   22.9350 C   0  0  0  0  0  3  0  0  0  0  0  0
  -20.6510  -26.8780   22.2970 C   0  0  0  0  0  2  0  0  0  0  0  0
  -19.5550  -26.6590   21.2500 C   0  0  0  0  0  2  0  0  0  0  0  0
  -18.1840  -26.7730   21.9210 C   0  0  0  0  0  2  0  0  0  0  0  0
  -19.1680  -28.8040   23.1370 C   0  0  0  0  0  0  0  0  0  0  0  0
  -18.9790  -30.0340   23.8010 C   0  0  0  0  0  3  0  0  0  0  0  0
  -17.6840  -30.5550   23.9950 C   0  0  0  0  0  3  0  0  0  0  0  0
  -16.5620  -29.8310   23.5520 C   0  0  0  0  0  3  0  0  0  0  0  0
  -16.7380  -28.5970   22.8990 C   0  0  0  0  0  3  0  0  0  0  0  0
  -25.7910  -32.5420   23.7330 C   0  0  0  0  0  3  0  0  0  0  0  0
  -25.4180  -33.9210   24.0920 N   0  0  0  0  0  0  0  0  0  0  0  0
  -25.7230  -35.0090   23.3720 C   0  0  0  0  0  0  0  0  0  0  0  0
  -26.4110  -34.9600   22.3500 O   0  0  0  0  0  0  0  0  0  0  0  0
  -24.8010  -34.0300   24.8840 H   0  0  0  0  0  0  0  0  0  0  0  0
  -23.9280  -36.7470   23.0550 C   0  0  0  0  0  1  0  0  0  0  0  0
  -25.1790  -36.3670   23.8630 C   0  0  0  0  0  3  0  0  0  0  0  0
  -27.2700  -37.3160   24.7410 C   0  0  0  0  0  1  0  0  0  0  0  0
  -26.1750  -37.4610   23.7840 N   0  0  0  0  0  0  0  0  0  0  0  0
  -25.7300  -38.3600   23.9470 H   0  0  0  0  0  0  0  0  0  0  0  0
  -26.2920  -31.7620   25.0110 C   0  0  1  0  0  0  0  0  0  0  0  0
  -25.1690  -31.4740   26.0340 C   0  0  0  0  0  1  0  0  0  0  0  0
  -26.9320  -30.4110   24.6150 C   0  0  0  0  0  1  0  0  0  0  0  0
  -27.3980  -32.5750   25.7230 C   0  0  0  0  0  1  0  0  0  0  0  0
  -30.5240  -17.1820   20.3170 C   0  0  0  0  0  3  0  0  0  0  0  0
  -30.9570  -15.4870   19.9540 C   0  0  0  0  0  0  0  0  0  0  0  0
  -30.7910  -13.0490   19.0700 C   0  0  0  0  0  2  0  0  0  0  0  0
  -29.8160  -12.7560   17.9000 C   0  0  0  0  0  2  0  0  0  0  0  0
  -28.4210  -12.4600   18.4600 C   0  0  0  0  0  2  0  0  0  0  0  0
  -27.9840  -13.5100   19.4980 C   0  0  0  0  0  3  0  0  0  0  0  0
  -29.0640  -13.7670   20.5770 C   0  0  0  0  0  2  0  0  0  0  0  0
  -30.2960  -14.2220   19.9080 N   0  0  0  0  0  0  0  0  0  0  0  0
  -32.1470  -15.3250   19.6450 O   0  0  0  0  0  0  0  0  0  0  0  0
  -25.6850  -14.1780   20.3670 C   0  0  0  0  0  0  0  0  0  0  0  0
  -24.6030  -13.4440   20.7540 C   0  0  0  0  0  0  0  0  0  0  0  0
  -25.0070  -12.0720   20.6740 C   0  0  0  0  0  0  0  0  0  0  0  0
  -26.6740  -13.2550   20.0660 N   0  0  0  0  0  0  0  0  0  0  0  0
  -26.2800  -11.9830   20.3150 N   0  0  0  0  0  0  0  0  0  0  0  0
  -24.2470  -10.8330   20.8560 C   0  0  0  0  0  0  0  0  0  0  0  0
  -24.6390   -9.8690   21.8090 C   0  0  0  0  0  3  0  0  0  0  0  0
  -23.8920   -8.6840   21.9740 C   0  0  0  0  0  3  0  0  0  0  0  0
  -22.7350   -8.4590   21.1920 C   0  0  0  0  0  0  0  0  0  0  0  0
  -22.3650   -9.4120   20.2260 C   0  0  0  0  0  3  0  0  0  0  0  0
  -23.1110  -10.5880   20.0570 C   0  0  0  0  0  3  0  0  0  0  0  0
  -21.9530   -7.3320   21.2760 O   0  0  0  0  0  0  0  0  0  0  0  0
  -21.7930   -6.6530   22.4570 C   0  0  0  0  0  0  0  0  0  0  0  0
  -21.2570   -7.2730   23.6070 C   0  0  0  0  0  3  0  0  0  0  0  0
  -21.0480   -6.5220   24.7800 C   0  0  0  0  0  3  0  0  0  0  0  0
  -21.3530   -5.1480   24.8020 C   0  0  0  0  0  0  0  0  0  0  0  0
  -21.8810   -4.5270   23.6550 C   0  0  0  0  0  3  0  0  0  0  0  0
  -22.0980   -5.2760   22.4880 C   0  0  0  0  0  0  0  0  0  0  0  0
  -22.5940   -4.6710   21.3820 F   0  0  0  0  0  0  0  0  0  0  0  0
  -21.1450   -4.4240   25.9270 F   0  0  0  0  0  0  0  0  0  0  0  0
  -23.2270  -13.9580   21.0690 C   0  0  0  0  0  0  0  0  0  0  0  0
  -22.5050  -13.2720   21.9430 N   0  0  0  0  0  0  0  0  0  0  0  0
  -22.8030  -15.0020   20.5650 O   0  0  0  0  0  0  0  0  0  0  0  0
  -22.8560  -12.4160   22.3460 H   0  0  0  0  0  0  0  0  0  0  0  0
  -21.5910  -13.6040   22.2150 H   0  0  0  0  0  0  0  0  0  0  0  0
  -25.9310  -15.5430   20.1960 N   0  0  0  0  0  0  0  0  0  0  0  0
  -25.2530  -16.2720   20.3740 H   0  0  0  0  0  0  0  0  0  0  0  0
  -26.8040  -15.8970   19.8180 H   0  0  0  0  0  0  0  0  0  0  0  0
  -30.9220  -16.7900   22.8690 C   0  0  0  0  0  1  0  0  0  0  0  0
  -32.6490  -18.0730   21.5110 C   0  0  0  0  0  1  0  0  0  0  0  0
  -31.1470  -17.7080   21.6520 C   0  0  0  0  0  3  0  0  0  0  0  0
  1  8  1  0
  1  2  1  0
  2  6  1  0
  2  9  2  0
  3  4  1  0
  3  6  1  0
  5  1  1  0
  5  3  1  0
  6 53  1  0
  7  8  1  0
 10 11  1  0
 10  9  1  0
 11 12  1  0
 13 24  2  0
 14 12  1  0
 14 19  1  0
 15 23  1  0
 15 25  1  0
 16 22  1  0
 16 18  1  0
 17 23  1  0
 18 19  2  0
 18 17  1  0
 20 14  2  0
 21 20  1  0
 21 16  2  0
 22 15  1  0
 23 13  1  0
 25 27  2  0
 26 25  1  0
 28 26  1  0
 29 38  2  0
 29 34  1  0
 30 26  1  0
 30 34  1  0
 31 30  1  0
 32 33  1  0
 32 31  1  0
 33 29  1  0
 34 35  2  0
 35 36  1  0
 37 36  2  0
 38 37  1  0
 39 13  1  0
 39 40  1  0
 39 49  1  0
 40 43  1  0
 41 45  1  0
 41 40  1  0
 42 41  2  0
 45 44  1  0
 47 45  1  0
 47 48  1  0
 47 46  1  0
 49 52  1  1
 49 50  1  0
 51 49  1  0
 53 54  1  0
 53 92  1  0
 55 60  1  0
 56 57  1  0
 56 55  1  0
 58 57  1  0
 58 65  1  0
 58 59  1  0
 60 54  1  0
 60 59  1  0
 61 54  2  0
 62 63  2  0
 63 82  1  0
 64 63  1  0
 64 67  1  0
 65 66  1  0
 65 62  1  0
 66 64  2  0
 67 68  1  0
 68 69  2  0
 70 73  1  0
 70 69  1  0
 71 70  2  0
 72 71  1  0
 72 67  2  0
 73 74  1  0
 74 79  2  0
 74 75  1  0
 75 76  2  0
 76 77  1  0
 77 81  1  0
 78 77  2  0
 79 78  1  0
 80 79  1  0
 82 83  1  0
 83 86  1  0
 83 85  1  0
 84 82  2  0
 87 62  1  0
 87 88  1  0
 89 87  1  0
 91 92  1  0
 92 90  1  0
M  ISO  4  11 101  12 101  53 100  54 100
M  END
>  <TORSDO>  (44) 
F 22

>  <SCORE>  (44) 
-12.947

>  <name>  (44) 
43

>  <ligand_id>  (44) 
43

>  <original_smiles>  (44) 
[H]c1c([H])c([H])c2c(c1[H])C([H])([H])C([H])([H])C([H])([H])C2([H])N([H])C(=O)C1([H])N(C(=O)C([H])(N([H])C(=O)C([H])(N([H])C([H])([H])[H])C([H])([H])[H])C(C([H])([H])[H])(C([H])([H])[H])C([H])([H])[H])C([H])([H])c2c([H])c(OC([H])([H])C([H])([H])C([H])([H])c3c(C([H])([H])C([H])([H])[H])nc(C([H])([H])[H])n3C([H])(C(=O)N3C([H])([H])C([H])([H])C([H])([H])C([H])(n4nc(-c5c([H])c([H])c(Oc6c([H])c([H])c(F)c([H])c6F)c([H])c5[H])c(C(=O)N([H])[H])c4N([H])[H])C3([H])[H])C([H])(C([H])([H])[H])C([H])([H])[H])c([H])c([H])c2C1([H])[H]

>  <smiles>  (44) 
[H]c1c([H])c([H])c2c(c1[H])C([H])([H])C([H])([H])C([H])([H])C2([H])N([H])C(=O)C1([H])N(C(=O)C([H])(N([H])C(=O)C([H])(N([H])C([H])([H])[H])C([H])([H])[H])C(C([H])([H])[H])(C([H])([H])[H])C([H])([H])[H])C([H])([H])c2c([H])c(OC([H])([H])C([H])([H])C([H])([H])c3c(C([H])([H])C([H])([H])[H])nc(C([H])([H])[H])n3C([H])(C(=O)N3C([H])([H])C([H])([H])C([H])([H])C([H])(n4nc(-c5c([H])c([H])c(Oc6c([H])c([H])c(F)c([H])c6F)c([H])c5[H])c(C(=O)N([H])[H])c4N([H])[H])C3([H])[H])C([H])(C([H])([H])[H])C([H])([H])[H])c([H])c([H])c2C1([H])[H]

$$$$
44:0:0
     RDKit          3D

 91 99  0  0  1  0  0  0  0  0999 V2000
  -26.9160  -21.6080   20.0580 C   0  0  0  0  0  2  0  0  0  0  0  0
  -28.3980  -23.2530   19.6880 C   0  0  0  0  0  0  0  0  0  0  0  0
  -29.0190  -20.8720   19.6890 C   0  0  0  0  0  0  0  0  0  0  0  0
  -27.1500  -22.9150   19.9850 N   0  0  0  0  0  0  0  0  0  0  0  0
  -27.7450  -20.5770   19.8950 N   0  0  0  0  0  0  0  0  0  0  0  0
  -29.3830  -22.2370   19.5780 N   0  0  0  0  0  2  0  0  0  0  0  0
  -30.0380  -19.2990   21.4810 C   0  0  0  0  0  1  0  0  0  0  0  0
  -31.4460  -19.9110   19.5220 C   0  0  0  0  0  1  0  0  0  0  0  0
  -30.0160  -19.5150   19.9520 C   0  0  2  0  0  0  0  0  0  0  0  0
  -29.8110  -17.9350   19.2710 C   0  0  0  0  0  2  0  0  0  0  0  0
  -30.7650  -15.2840   19.7770 C   0  0  0  0  0  0  0  0  0  0  0  0
  -30.7030  -12.8420   19.0440 C   0  0  0  0  0  2  0  0  0  0  0  0
  -29.7450  -12.6790   17.8390 C   0  0  0  0  0  2  0  0  0  0  0  0
  -28.2990  -12.4580   18.3160 C   0  0  0  0  0  2  0  0  0  0  0  0
  -27.8990  -13.4550   19.4340 C   0  0  0  0  0  3  0  0  0  0  0  0
  -28.9760  -13.5790   20.5330 C   0  0  0  0  0  2  0  0  0  0  0  0
  -30.2230  -13.9940   19.8730 N   0  0  0  0  0  0  0  0  0  0  0  0
  -31.9320  -15.3510   19.3760 O   0  0  0  0  0  0  0  0  0  0  0  0
  -29.9570  -16.4660   19.9480 N   0  0  0  0  0  0  0  0  0  0  0  0
  -29.1000  -16.2140   20.4200 H   0  0  0  0  0  0  0  0  0  0  0  0
  -25.5630  -14.0590   20.2780 C   0  0  0  0  0  0  0  0  0  0  0  0
  -24.5020  -13.2980   20.6820 C   0  0  0  0  0  0  0  0  0  0  0  0
  -24.9420  -11.9400   20.6190 C   0  0  0  0  0  0  0  0  0  0  0  0
  -26.5790  -13.1670   19.9840 N   0  0  0  0  0  0  0  0  0  0  0  0
  -26.2180  -11.8860   20.2560 N   0  0  0  0  0  0  0  0  0  0  0  0
  -24.2010  -10.6880   20.8290 C   0  0  0  0  0  0  0  0  0  0  0  0
  -24.5930   -9.7540   21.8130 C   0  0  0  0  0  3  0  0  0  0  0  0
  -23.8530   -8.5660   22.0080 C   0  0  0  0  0  3  0  0  0  0  0  0
  -22.7060   -8.3080   21.2210 C   0  0  0  0  0  0  0  0  0  0  0  0
  -22.3340   -9.2310   20.2270 C   0  0  0  0  0  3  0  0  0  0  0  0
  -23.0740  -10.4080   20.0310 C   0  0  0  0  0  3  0  0  0  0  0  0
  -21.9410   -7.1710   21.3240 O   0  0  0  0  0  0  0  0  0  0  0  0
  -21.7720   -6.5220   22.5210 C   0  0  0  0  0  0  0  0  0  0  0  0
  -21.1960   -7.1620   23.6400 C   0  0  0  0  0  3  0  0  0  0  0  0
  -20.9780   -6.4370   24.8290 C   0  0  0  0  0  3  0  0  0  0  0  0
  -21.3260   -5.0750   24.8990 C   0  0  0  0  0  0  0  0  0  0  0  0
  -21.8940   -4.4360   23.7830 C   0  0  0  0  0  3  0  0  0  0  0  0
  -22.1140   -5.1570   22.5970 C   0  0  0  0  0  0  0  0  0  0  0  0
  -22.6440   -4.5320   21.5160 F   0  0  0  0  0  0  0  0  0  0  0  0
  -21.1080   -4.3760   26.0360 F   0  0  0  0  0  0  0  0  0  0  0  0
  -23.1260  -13.7980   21.0120 C   0  0  0  0  0  0  0  0  0  0  0  0
  -22.4250  -13.1170   21.9110 N   0  0  0  0  0  0  0  0  0  0  0  0
  -22.6810  -14.8260   20.5030 O   0  0  0  0  0  0  0  0  0  0  0  0
  -22.7970  -12.2850   22.3450 H   0  0  0  0  0  0  0  0  0  0  0  0
  -21.5030  -13.4340   22.1740 H   0  0  0  0  0  0  0  0  0  0  0  0
  -25.7480  -15.4290   20.1090 N   0  0  0  0  0  0  0  0  0  0  0  0
  -25.0010  -16.1010   20.2470 H   0  0  0  0  0  0  0  0  0  0  0  0
  -26.5990  -15.8500   19.7630 H   0  0  0  0  0  0  0  0  0  0  0  0
  -29.9170  -25.0730   18.5960 C   0  0  0  0  0  1  0  0  0  0  0  0
  -28.5060  -24.8570   19.1590 C   0  0  0  0  0  3  0  0  0  0  0  0
  -28.2330  -26.2370   19.8980 O   0  0  0  0  0  0  0  0  0  0  0  0
  -24.6600  -31.8480   23.0970 C   0  0  0  0  0  0  0  0  0  0  0  0
  -27.1660  -27.2250   19.7990 C   0  0  0  0  0  0  0  0  0  0  0  0
  -23.4160  -30.5030   21.4470 C   0  0  0  0  0  3  0  0  0  0  0  0
  -24.8240  -28.9860   19.9030 C   0  0  0  0  0  0  0  0  0  0  0  0
  -25.9610  -30.7810   21.2080 C   0  0  0  0  0  2  0  0  0  0  0  0
  -26.0170  -29.4090   20.4970 C   0  0  0  0  0  0  0  0  0  0  0  0
  -27.1780  -28.5420   20.4320 C   0  0  0  0  0  3  0  0  0  0  0  0
  -25.9470  -26.9180   19.1570 C   0  0  0  0  0  3  0  0  0  0  0  0
  -24.8060  -27.7600   19.2140 C   0  0  0  0  0  3  0  0  0  0  0  0
  -23.5910  -29.8760   20.0330 C   0  0  0  0  0  2  0  0  0  0  0  0
  -24.7010  -31.0680   21.9700 N   0  0  0  0  0  0  0  0  0  0  0  0
  -23.5920  -32.1030   23.6740 O   0  0  0  0  0  0  0  0  0  0  0  0
  -22.7710  -29.4620   22.3980 C   0  0  0  0  0  0  0  0  0  0  0  0
  -21.4440  -29.2690   22.2950 N   0  0  0  0  0  0  0  0  0  0  0  0
  -23.4690  -28.8300   23.1950 O   0  0  0  0  0  0  0  0  0  0  0  0
  -20.9310  -29.8330   21.6320 H   0  0  0  0  0  0  0  0  0  0  0  0
  -18.1100  -27.9430   22.7940 C   0  0  0  0  0  0  0  0  0  0  0  0
  -20.6580  -28.2940   23.0590 C   0  0  0  0  0  3  0  0  0  0  0  0
  -20.8090  -26.8720   22.4640 C   0  0  0  0  0  2  0  0  0  0  0  0
  -19.7170  -26.5280   21.4460 C   0  0  0  0  0  2  0  0  0  0  0  0
  -18.3330  -26.6130   22.0940 C   0  0  0  0  0  2  0  0  0  0  0  0
  -19.2010  -28.7400   23.2340 C   0  0  0  0  0  0  0  0  0  0  0  0
  -18.9360  -29.9830   23.8460 C   0  0  0  0  0  3  0  0  0  0  0  0
  -17.6140  -30.4320   24.0220 C   0  0  0  0  0  3  0  0  0  0  0  0
  -16.5380  -29.6330   23.5990 C   0  0  0  0  0  3  0  0  0  0  0  0
  -16.7860  -28.3900   22.9920 C   0  0  0  0  0  3  0  0  0  0  0  0
  -25.9510  -32.4740   23.7060 C   0  0  0  0  0  3  0  0  0  0  0  0
  -26.4900  -31.6810   24.9630 C   0  0  1  0  0  0  0  0  0  0  0  0
  -25.4200  -31.4330   26.0490 C   0  0  0  0  0  1  0  0  0  0  0  0
  -27.0570  -30.3110   24.5340 C   0  0  0  0  0  1  0  0  0  0  0  0
  -27.6630  -32.4580   25.6100 C   0  0  0  0  0  1  0  0  0  0  0  0
  -25.6520  -33.8670   24.0820 N   0  0  0  0  0  0  0  0  0  0  0  0
  -25.9750  -34.9420   23.3530 C   0  0  0  0  0  0  0  0  0  0  0  0
  -26.6250  -34.8670   22.3070 O   0  0  0  0  0  0  0  0  0  0  0  0
  -25.0810  -33.9990   24.9030 H   0  0  0  0  0  0  0  0  0  0  0  0
  -24.2480  -36.7520   23.0840 C   0  0  0  0  0  1  0  0  0  0  0  0
  -25.5020  -36.3190   23.8610 C   0  0  0  0  0  3  0  0  0  0  0  0
  -27.6550  -37.1690   24.6810 C   0  0  0  0  0  1  0  0  0  0  0  0
  -26.5360  -37.3740   23.7640 N   0  0  0  0  0  0  0  0  0  0  0  0
  -26.1370  -38.2880   23.9550 H   0  0  0  0  0  0  0  0  0  0  0  0
  2  4  2  0
  3  5  2  0
  3  9  1  0
  4  1  1  0
  5  1  1  0
  6  2  1  0
  6  3  1  0
  9  8  1  6
  9  7  1  0
 10 19  1  0
 10  9  1  0
 11 17  1  0
 11 19  1  0
 12 17  1  0
 13 14  1  0
 13 12  1  0
 15 14  1  0
 15 24  1  0
 15 16  1  0
 17 16  1  0
 18 11  2  0
 19 20  1  0
 21 22  2  0
 22 41  1  0
 23 22  1  0
 23 26  1  0
 24 25  1  0
 24 21  1  0
 25 23  2  0
 26 27  1  0
 27 28  2  0
 29 32  1  0
 29 28  1  0
 30 29  2  0
 31 30  1  0
 31 26  2  0
 32 33  1  0
 33 38  2  0
 33 34  1  0
 34 35  2  0
 35 36  1  0
 36 40  1  0
 37 36  2  0
 38 37  1  0
 39 38  1  0
 41 42  1  0
 42 45  1  0
 42 44  1  0
 43 41  2  0
 46 47  1  0
 46 21  1  0
 48 46  1  0
 50 49  1  0
 50  2  1  0
 50 51  1  0
 52 63  2  0
 53 51  1  0
 53 58  1  0
 54 62  1  0
 54 64  1  0
 55 61  1  0
 55 57  1  0
 56 62  1  0
 57 56  1  0
 58 57  2  0
 59 60  1  0
 59 53  2  0
 60 55  2  0
 61 54  1  0
 62 52  1  0
 64 66  2  0
 65 64  1  0
 67 65  1  0
 68 77  2  0
 68 73  1  0
 69 65  1  0
 69 73  1  0
 70 69  1  0
 71 72  1  0
 71 70  1  0
 72 68  1  0
 73 74  2  0
 74 75  1  0
 76 75  2  0
 77 76  1  0
 78 52  1  0
 78 83  1  0
 78 79  1  0
 79 82  1  1
 79 80  1  0
 81 79  1  0
 83 86  1  0
 84 88  1  0
 84 83  1  0
 85 84  2  0
 88 87  1  0
 90 88  1  0
 90 91  1  0
 90 89  1  0
M  ISO  4  11 100  19 100  50 101  51 101
M  END
>  <TORSDO>  (45) 
F 19

>  <SCORE>  (45) 
-14.172

>  <name>  (45) 
44

>  <ligand_id>  (45) 
44

>  <original_smiles>  (45) 
[H]c1nc(C([H])(Oc2c([H])c([H])c3c(c2[H])C([H])([H])N(C(=O)C([H])(N([H])C(=O)C([H])(N([H])C([H])([H])[H])C([H])([H])[H])C(C([H])([H])[H])(C([H])([H])[H])C([H])([H])[H])C([H])(C(=O)N([H])C2([H])c4c([H])c([H])c([H])c([H])c4C([H])([H])C([H])([H])C2([H])[H])C3([H])[H])C([H])([H])[H])nc(C(C([H])([H])[H])(C([H])([H])[H])C([H])([H])N([H])C(=O)N2C([H])([H])C([H])([H])C([H])([H])C([H])(n3nc(-c4c([H])c([H])c(Oc5c([H])c([H])c(F)c([H])c5F)c([H])c4[H])c(C(=O)N([H])[H])c3N([H])[H])C2([H])[H])n1

>  <smiles>  (45) 
[H]c1nc(C([H])(Oc2c([H])c([H])c3c(c2[H])C([H])([H])N(C(=O)C([H])(N([H])C(=O)C([H])(N([H])C([H])([H])[H])C([H])([H])[H])C(C([H])([H])[H])(C([H])([H])[H])C([H])([H])[H])C([H])(C(=O)N([H])C2([H])c4c([H])c([H])c([H])c([H])c4C([H])([H])C([H])([H])C2([H])[H])C3([H])[H])C([H])([H])[H])nc(C(C([H])([H])[H])(C([H])([H])[H])C([H])([H])N([H])C(=O)N2C([H])([H])C([H])([H])C([H])([H])C([H])(n3nc(-c4c([H])c([H])c(Oc5c([H])c([H])c(F)c([H])c5F)c([H])c4[H])c(C(=O)N([H])[H])c3N([H])[H])C2([H])[H])n1

$$$$
45:0:0
     RDKit          3D

 89 97  0  0  1  0  0  0  0  0999 V2000
  -29.2680  -21.1140   19.3240 C   0  0  0  0  0  3  0  0  0  0  0  0
  -29.7830  -18.8020   20.6150 C   0  0  0  0  0  3  0  0  0  0  0  0
  -29.1370  -19.5610   19.6540 C   0  0  0  0  0  0  0  0  0  0  0  0
  -28.5860  -18.5950   18.7770 N   0  0  0  0  0  0  0  0  0  0  0  0
  -28.9870  -17.3700   19.0980 N   0  0  0  0  0  0  0  0  0  0  0  0
  -29.7520  -17.4330   20.2310 N   0  0  0  0  0  0  0  0  0  0  0  0
  -32.1020  -16.9970   20.0920 C   0  0  0  0  0  1  0  0  0  0  0  0
  -30.9140  -16.4400   22.2570 C   0  0  0  0  0  1  0  0  0  0  0  0
  -30.7600  -16.3660   20.7030 C   0  0  1  0  0  0  0  0  0  0  0  0
  -30.8300  -14.7620   20.2940 C   0  0  0  0  0  0  0  0  0  0  0  0
  -30.3000  -12.4860   19.4140 C   0  0  0  0  0  2  0  0  0  0  0  0
  -29.4330  -12.5990   18.1460 C   0  0  0  0  0  2  0  0  0  0  0  0
  -27.9660  -12.4250   18.5770 C   0  0  0  0  0  2  0  0  0  0  0  0
  -27.5880  -13.3220   19.7870 C   0  0  0  0  0  3  0  0  0  0  0  0
  -28.6630  -13.3890   20.9070 C   0  0  0  0  0  2  0  0  0  0  0  0
  -29.9740  -13.6600   20.2870 N   0  0  0  0  0  0  0  0  0  0  0  0
  -31.9590  -14.4840   19.8970 O   0  0  0  0  0  0  0  0  0  0  0  0
  -25.2000  -13.8350   20.5330 C   0  0  0  0  0  0  0  0  0  0  0  0
  -24.1520  -13.0470   20.8940 C   0  0  0  0  0  0  0  0  0  0  0  0
  -24.6320  -11.6980   20.8620 C   0  0  0  0  0  0  0  0  0  0  0  0
  -26.2620  -12.9820   20.2980 N   0  0  0  0  0  0  0  0  0  0  0  0
  -25.9260  -11.6860   20.5530 N   0  0  0  0  0  0  0  0  0  0  0  0
  -23.9200  -10.4240   21.0350 C   0  0  0  0  0  0  0  0  0  0  0  0
  -24.3460   -9.4740   21.9910 C   0  0  0  0  0  3  0  0  0  0  0  0
  -23.6340   -8.2670   22.1690 C   0  0  0  0  0  3  0  0  0  0  0  0
  -22.4830   -8.0000   21.3900 C   0  0  0  0  0  0  0  0  0  0  0  0
  -22.0750   -8.9390   20.4260 C   0  0  0  0  0  3  0  0  0  0  0  0
  -22.7870  -10.1370   20.2440 C   0  0  0  0  0  3  0  0  0  0  0  0
  -21.7460   -6.8430   21.4710 O   0  0  0  0  0  0  0  0  0  0  0  0
  -21.6700   -6.1130   22.6310 C   0  0  0  0  0  0  0  0  0  0  0  0
  -21.1800   -6.6680   23.8340 C   0  0  0  0  0  3  0  0  0  0  0  0
  -21.0640   -5.8640   24.9860 C   0  0  0  0  0  3  0  0  0  0  0  0
  -21.4220   -4.5050   24.9350 C   0  0  0  0  0  0  0  0  0  0  0  0
  -21.9000   -3.9470   23.7360 C   0  0  0  0  0  3  0  0  0  0  0  0
  -22.0250   -4.7480   22.5880 C   0  0  0  0  0  0  0  0  0  0  0  0
  -22.4740   -4.2020   21.4320 F   0  0  0  0  0  0  0  0  0  0  0  0
  -21.3000   -3.7280   26.0360 F   0  0  0  0  0  0  0  0  0  0  0  0
  -22.7410  -13.5010   21.1490 C   0  0  0  0  0  0  0  0  0  0  0  0
  -22.0030  -12.7980   21.9950 N   0  0  0  0  0  0  0  0  0  0  0  0
  -22.2990  -14.5230   20.6190 O   0  0  0  0  0  0  0  0  0  0  0  0
  -22.3590  -11.9780   22.4670 H   0  0  0  0  0  0  0  0  0  0  0  0
  -21.0520  -13.0890   22.1790 H   0  0  0  0  0  0  0  0  0  0  0  0
  -25.3440  -15.2100   20.3510 N   0  0  0  0  0  0  0  0  0  0  0  0
  -24.5730  -15.8580   20.4510 H   0  0  0  0  0  0  0  0  0  0  0  0
  -26.1910  -15.6510   20.0190 H   0  0  0  0  0  0  0  0  0  0  0  0
  -28.2500  -22.2590   19.8490 C   0  0  0  0  0  3  0  0  0  0  0  0
  -28.6810  -23.7990   19.5990 C   0  0  0  0  0  3  0  0  0  0  0  0
  -27.9010  -24.9750   20.3600 C   0  0  0  0  0  3  0  0  0  0  0  0
  -28.2370  -26.4230   20.1390 O   0  0  0  0  0  0  0  0  0  0  0  0
  -24.5960  -31.9120   23.2370 C   0  0  0  0  0  0  0  0  0  0  0  0
  -27.1670  -27.3350   20.1340 C   0  0  0  0  0  0  0  0  0  0  0  0
  -23.3890  -30.5220   21.5970 C   0  0  0  0  0  3  0  0  0  0  0  0
  -24.8330  -28.9840   20.1610 C   0  0  0  0  0  0  0  0  0  0  0  0
  -25.9370  -30.8190   21.4340 C   0  0  0  0  0  2  0  0  0  0  0  0
  -26.0060  -29.4470   20.7670 C   0  0  0  0  0  0  0  0  0  0  0  0
  -27.1780  -28.6270   20.7540 C   0  0  0  0  0  3  0  0  0  0  0  0
  -25.9820  -26.9570   19.4690 C   0  0  0  0  0  3  0  0  0  0  0  0
  -24.8230  -27.7460   19.5090 C   0  0  0  0  0  3  0  0  0  0  0  0
  -23.6020  -29.8650   20.2120 C   0  0  0  0  0  2  0  0  0  0  0  0
  -24.6580  -31.1040   22.1430 N   0  0  0  0  0  0  0  0  0  0  0  0
  -23.5100  -32.1930   23.7660 O   0  0  0  0  0  0  0  0  0  0  0  0
  -22.7290  -29.4960   22.5480 C   0  0  0  0  0  0  0  0  0  0  0  0
  -21.4020  -29.3160   22.4270 N   0  0  0  0  0  0  0  0  0  0  0  0
  -23.4100  -28.8720   23.3690 O   0  0  0  0  0  0  0  0  0  0  0  0
  -20.9100  -29.8780   21.7470 H   0  0  0  0  0  0  0  0  0  0  0  0
  -18.0250  -28.1290   22.9460 C   0  0  0  0  0  0  0  0  0  0  0  0
  -20.5870  -28.3760   23.1960 C   0  0  0  0  0  3  0  0  0  0  0  0
  -20.6770  -26.9450   22.6150 C   0  0  0  0  0  2  0  0  0  0  0  0
  -19.5670  -26.6300   21.6070 C   0  0  0  0  0  2  0  0  0  0  0  0
  -18.1910  -26.7830   22.2600 C   0  0  0  0  0  2  0  0  0  0  0  0
  -19.1520  -28.8820   23.3720 C   0  0  0  0  0  0  0  0  0  0  0  0
  -18.9440  -30.1430   23.9710 C   0  0  0  0  0  3  0  0  0  0  0  0
  -17.6430  -30.6520   24.1470 C   0  0  0  0  0  3  0  0  0  0  0  0
  -16.5310  -29.8950   23.7380 C   0  0  0  0  0  3  0  0  0  0  0  0
  -16.7250  -28.6350   23.1460 C   0  0  0  0  0  3  0  0  0  0  0  0
  -25.8790  -32.5450   23.8620 C   0  0  0  0  0  3  0  0  0  0  0  0
  -25.5710  -33.9450   24.1880 N   0  0  0  0  0  0  0  0  0  0  0  0
  -25.8980  -34.9930   23.4200 C   0  0  0  0  0  0  0  0  0  0  0  0
  -26.5600  -34.8860   22.3880 O   0  0  0  0  0  0  0  0  0  0  0  0
  -24.9900  -34.1010   24.9970 H   0  0  0  0  0  0  0  0  0  0  0  0
  -24.1740  -36.7920   23.0550 C   0  0  0  0  0  1  0  0  0  0  0  0
  -25.4060  -36.3840   23.8790 C   0  0  0  0  0  3  0  0  0  0  0  0
  -27.5350  -37.2690   24.7260 C   0  0  0  0  0  1  0  0  0  0  0  0
  -26.4410  -37.4350   23.7730 N   0  0  0  0  0  0  0  0  0  0  0  0
  -26.0330  -38.3530   23.9220 H   0  0  0  0  0  0  0  0  0  0  0  0
  -26.3970  -31.7800   25.1410 C   0  0  1  0  0  0  0  0  0  0  0  0
  -25.3080  -31.5430   26.2110 C   0  0  0  0  0  1  0  0  0  0  0  0
  -26.9890  -30.4010   24.7610 C   0  0  0  0  0  1  0  0  0  0  0  0
  -27.5440  -32.5830   25.8040 C   0  0  0  0  0  1  0  0  0  0  0  0
  1  3  1  0
  1 46  2  0
  3  2  2  0
  4  5  2  0
  4  3  1  0
  5  6  1  0
  6  2  1  0
  6  9  1  0
  9  7  1  6
  9  8  1  0
 10  9  1  0
 11 16  1  0
 12 13  1  0
 12 11  1  0
 14 13  1  0
 14 21  1  0
 14 15  1  0
 16 10  1  0
 16 15  1  0
 17 10  2  0
 18 19  2  0
 19 38  1  0
 20 19  1  0
 20 23  1  0
 21 18  1  0
 21 22  1  0
 22 20  2  0
 23 24  1  0
 24 25  2  0
 26 29  1  0
 26 25  1  0
 27 26  2  0
 28 27  1  0
 28 23  2  0
 29 30  1  0
 30 31  1  0
 31 32  2  0
 33 32  1  0
 33 37  1  0
 34 33  2  0
 35 30  2  0
 35 34  1  0
 36 35  1  0
 38 39  1  0
 39 42  1  0
 39 41  1  0
 40 38  2  0
 43 44  1  0
 43 18  1  0
 45 43  1  0
 47 46  1  0
 47 48  2  0
 49 48  1  0
 50 61  2  0
 51 49  1  0
 51 56  1  0
 52 60  1  0
 52 62  1  0
 53 59  1  0
 53 55  1  0
 54 60  1  0
 55 54  1  0
 56 55  2  0
 57 58  1  0
 57 51  2  0
 58 53  2  0
 59 52  1  0
 60 50  1  0
 62 64  2  0
 63 62  1  0
 65 63  1  0
 66 75  2  0
 66 71  1  0
 67 63  1  0
 67 71  1  0
 68 67  1  0
 69 70  1  0
 69 68  1  0
 70 66  1  0
 71 72  2  0
 72 73  1  0
 74 73  2  0
 75 74  1  0
 76 50  1  0
 76 77  1  0
 76 86  1  0
 77 80  1  0
 78 82  1  0
 78 77  1  0
 79 78  2  0
 82 81  1  0
 84 82  1  0
 84 85  1  0
 84 83  1  0
 86 89  1  1
 86 87  1  0
 88 86  1  0
M  ISO  4   9 100  10 100  48 101  49 101
M  END
>  <TORSDO>  (46) 
F 21

>  <SCORE>  (46) 
-13.546

>  <name>  (46) 
45

>  <ligand_id>  (46) 
45

>  <original_smiles>  (46) 
[H]c1c([H])c([H])c2c(c1[H])C([H])([H])C([H])([H])C([H])([H])C2([H])N([H])C(=O)C1([H])N(C(=O)C([H])(N([H])C(=O)C([H])(N([H])C([H])([H])[H])C([H])([H])[H])C(C([H])([H])[H])(C([H])([H])[H])C([H])([H])[H])C([H])([H])c2c([H])c(OC([H])([H])C([H])([H])C([H])([H])C([H])([H])c3nnn(C(C(=O)N4C([H])([H])C([H])([H])C([H])([H])C([H])(n5nc(-c6c([H])c([H])c(Oc7c([H])c([H])c(F)c([H])c7F)c([H])c6[H])c(C(=O)N([H])[H])c5N([H])[H])C4([H])[H])(C([H])([H])[H])C([H])([H])[H])c3[H])c([H])c([H])c2C1([H])[H]

>  <smiles>  (46) 
[H]c1c([H])c([H])c2c(c1[H])C([H])([H])C([H])([H])C([H])([H])C2([H])N([H])C(=O)C1([H])N(C(=O)C([H])(N([H])C(=O)C([H])(N([H])C([H])([H])[H])C([H])([H])[H])C(C([H])([H])[H])(C([H])([H])[H])C([H])([H])[H])C([H])([H])c2c([H])c(OC([H])([H])C([H])([H])C([H])([H])C([H])([H])c3nnn(C(C(=O)N4C([H])([H])C([H])([H])C([H])([H])C([H])(n5nc(-c6c([H])c([H])c(Oc7c([H])c([H])c(F)c([H])c7F)c([H])c6[H])c(C(=O)N([H])[H])c5N([H])[H])C4([H])[H])(C([H])([H])[H])C([H])([H])[H])c3[H])c([H])c([H])c2C1([H])[H]

$$$$
46:0:0
     RDKit          3D

 88 96  0  0  1  0  0  0  0  0999 V2000
  -27.6640  -22.5990   18.7390 C   0  0  0  0  0  1  0  0  0  0  0  0
  -30.0620  -23.3180   18.8740 C   0  0  0  0  0  1  0  0  0  0  0  0
  -28.8550  -22.8010   19.7020 C   0  0  2  0  0  0  0  0  0  0  0  0
  -30.6550  -20.6330   20.5170 C   0  0  0  0  0  3  0  0  0  0  0  0
  -28.8080  -19.7750   20.1120 C   0  0  0  0  0  3  0  0  0  0  0  0
  -29.3380  -21.1370   20.1660 C   0  0  0  0  0  0  0  0  0  0  0  0
  -30.8420  -19.2700   20.6390 N   0  0  0  0  0  0  0  0  0  0  0  0
  -29.6950  -18.5750   20.3530 N   0  0  0  0  0  0  0  0  0  0  0  0
  -27.9700  -16.6990   20.3750 C   0  0  0  0  0  1  0  0  0  0  0  0
  -29.4730  -16.8990   20.6110 C   0  0  0  0  0  3  0  0  0  0  0  0
  -30.3250  -15.3550   20.2510 C   0  0  0  0  0  0  0  0  0  0  0  0
  -30.3880  -12.8790   19.3610 C   0  0  0  0  0  2  0  0  0  0  0  0
  -29.4510  -12.6650   18.1410 C   0  0  0  0  0  2  0  0  0  0  0  0
  -28.0140  -12.3420   18.5890 C   0  0  0  0  0  2  0  0  0  0  0  0
  -27.5590  -13.2820   19.7320 C   0  0  0  0  0  3  0  0  0  0  0  0
  -28.6250  -13.4180   20.8470 C   0  0  0  0  0  2  0  0  0  0  0  0
  -29.8350  -13.9990   20.2250 N   0  0  0  0  0  0  0  0  0  0  0  0
  -31.5250  -15.3760   19.9310 O   0  0  0  0  0  0  0  0  0  0  0  0
  -25.1770  -13.8180   20.4730 C   0  0  0  0  0  0  0  0  0  0  0  0
  -24.1310  -13.0430   20.8710 C   0  0  0  0  0  0  0  0  0  0  0  0
  -24.6100  -11.6970   20.8470 C   0  0  0  0  0  0  0  0  0  0  0  0
  -26.2360  -12.9560   20.2430 N   0  0  0  0  0  0  0  0  0  0  0  0
  -25.9020  -11.6700   20.5250 N   0  0  0  0  0  0  0  0  0  0  0  0
  -23.8850  -10.4390   21.0450 C   0  0  0  0  0  0  0  0  0  0  0  0
  -24.3340   -9.4720   21.9690 C   0  0  0  0  0  3  0  0  0  0  0  0
  -23.6120   -8.2730   22.1560 C   0  0  0  0  0  3  0  0  0  0  0  0
  -22.4260   -8.0360   21.4210 C   0  0  0  0  0  0  0  0  0  0  0  0
  -21.9960   -8.9950   20.4860 C   0  0  0  0  0  3  0  0  0  0  0  0
  -22.7180  -10.1840   20.2970 C   0  0  0  0  0  3  0  0  0  0  0  0
  -21.6730   -6.8910   21.5180 O   0  0  0  0  0  0  0  0  0  0  0  0
  -21.6510   -6.1420   22.6680 C   0  0  0  0  0  0  0  0  0  0  0  0
  -21.2660   -6.6900   23.9120 C   0  0  0  0  0  3  0  0  0  0  0  0
  -21.1940   -5.8640   25.0530 C   0  0  0  0  0  3  0  0  0  0  0  0
  -21.4990   -4.4930   24.9500 C   0  0  0  0  0  0  0  0  0  0  0  0
  -21.8810   -3.9470   23.7120 C   0  0  0  0  0  3  0  0  0  0  0  0
  -21.9560   -4.7700   22.5750 C   0  0  0  0  0  0  0  0  0  0  0  0
  -22.3030   -4.2350   21.3800 F   0  0  0  0  0  0  0  0  0  0  0  0
  -21.4230   -3.6980   26.0420 F   0  0  0  0  0  0  0  0  0  0  0  0
  -22.7370  -13.5200   21.1570 C   0  0  0  0  0  0  0  0  0  0  0  0
  -22.0160  -12.8380   22.0370 N   0  0  0  0  0  0  0  0  0  0  0  0
  -22.2950  -14.5450   20.6360 O   0  0  0  0  0  0  0  0  0  0  0  0
  -22.3800  -12.0140   22.4950 H   0  0  0  0  0  0  0  0  0  0  0  0
  -21.0800  -13.1490   22.2600 H   0  0  0  0  0  0  0  0  0  0  0  0
  -25.2930  -15.1830   20.2590 N   0  0  0  0  0  0  0  0  0  0  0  0
  -24.5100  -15.8160   20.3680 H   0  0  0  0  0  0  0  0  0  0  0  0
  -26.1320  -15.6390   19.9300 H   0  0  0  0  0  0  0  0  0  0  0  0
  -28.3720  -24.3040   20.5770 C   0  0  0  0  0  2  0  0  0  0  0  0
  -28.3330  -25.9180   20.1960 O   0  0  0  0  0  0  0  0  0  0  0  0
  -24.6470  -31.8350   23.1820 C   0  0  0  0  0  0  0  0  0  0  0  0
  -27.2520  -26.9460   20.2380 C   0  0  0  0  0  0  0  0  0  0  0  0
  -23.4590  -30.4170   21.5580 C   0  0  0  0  0  3  0  0  0  0  0  0
  -24.9190  -28.7940   20.1630 C   0  0  0  0  0  0  0  0  0  0  0  0
  -26.0190  -30.6450   21.4010 C   0  0  0  0  0  2  0  0  0  0  0  0
  -26.1050  -29.2220   20.7790 C   0  0  0  0  0  0  0  0  0  0  0  0
  -27.2620  -28.3220   20.7880 C   0  0  0  0  0  3  0  0  0  0  0  0
  -26.0300  -26.6600   19.5830 C   0  0  0  0  0  3  0  0  0  0  0  0
  -24.9090  -27.5320   19.5430 C   0  0  0  0  0  3  0  0  0  0  0  0
  -23.6950  -29.7130   20.1920 C   0  0  0  0  0  2  0  0  0  0  0  0
  -24.7300  -30.9900   22.1040 N   0  0  0  0  0  0  0  0  0  0  0  0
  -23.5560  -32.1230   23.7010 O   0  0  0  0  0  0  0  0  0  0  0  0
  -22.7650  -29.4330   22.5350 C   0  0  0  0  0  0  0  0  0  0  0  0
  -21.4320  -29.2820   22.4270 N   0  0  0  0  0  0  0  0  0  0  0  0
  -23.4340  -28.8010   23.3560 O   0  0  0  0  0  0  0  0  0  0  0  0
  -20.9410  -29.8550   21.7570 H   0  0  0  0  0  0  0  0  0  0  0  0
  -18.0470  -28.0810   22.9480 C   0  0  0  0  0  0  0  0  0  0  0  0
  -20.6100  -28.3430   23.1980 C   0  0  0  0  0  3  0  0  0  0  0  0
  -20.7070  -26.9110   22.6220 C   0  0  0  0  0  2  0  0  0  0  0  0
  -19.5950  -26.5810   21.6190 C   0  0  0  0  0  2  0  0  0  0  0  0
  -18.2170  -26.7320   22.2690 C   0  0  0  0  0  2  0  0  0  0  0  0
  -19.1690  -28.8420   23.3720 C   0  0  0  0  0  0  0  0  0  0  0  0
  -18.9550  -30.1030   23.9710 C   0  0  0  0  0  3  0  0  0  0  0  0
  -17.6480  -30.6000   24.1510 C   0  0  0  0  0  3  0  0  0  0  0  0
  -16.5420  -29.8380   23.7380 C   0  0  0  0  0  3  0  0  0  0  0  0
  -16.7410  -28.5810   23.1420 C   0  0  0  0  0  3  0  0  0  0  0  0
  -25.9160  -32.4870   23.8120 C   0  0  0  0  0  3  0  0  0  0  0  0
  -26.4330  -31.7210   25.0910 C   0  0  1  0  0  0  0  0  0  0  0  0
  -25.3400  -31.4850   26.1610 C   0  0  0  0  0  1  0  0  0  0  0  0
  -27.0160  -30.3410   24.7080 C   0  0  0  0  0  1  0  0  0  0  0  0
  -27.5860  -32.5160   25.7480 C   0  0  0  0  0  1  0  0  0  0  0  0
  -25.5920  -33.8840   24.1500 N   0  0  0  0  0  0  0  0  0  0  0  0
  -25.9170  -34.9490   23.4050 C   0  0  0  0  0  0  0  0  0  0  0  0
  -26.5800  -34.8590   22.3680 O   0  0  0  0  0  0  0  0  0  0  0  0
  -25.0110  -34.0320   24.9620 H   0  0  0  0  0  0  0  0  0  0  0  0
  -24.1790  -36.7420   23.0790 C   0  0  0  0  0  1  0  0  0  0  0  0
  -25.4280  -36.3330   23.8780 C   0  0  0  0  0  3  0  0  0  0  0  0
  -27.5690  -37.2250   24.6930 C   0  0  0  0  0  1  0  0  0  0  0  0
  -26.4560  -37.3920   23.7630 N   0  0  0  0  0  0  0  0  0  0  0  0
  -26.0470  -38.3090   23.9240 H   0  0  0  0  0  0  0  0  0  0  0  0
  3  1  1  6
  2  3  1  0
  3  6  1  0
  3 47  1  0
  4  7  2  0
  5  6  2  0
  5  8  1  0
  6  4  1  0
  8 10  1  0
  8  7  1  0
 10  9  1  0
 11 10  1  0
 12 17  1  0
 13 14  1  0
 13 12  1  0
 15 14  1  0
 15 22  1  0
 15 16  1  0
 17 11  1  0
 17 16  1  0
 18 11  2  0
 19 20  2  0
 20 39  1  0
 21 20  1  0
 21 24  1  0
 22 19  1  0
 22 23  1  0
 23 21  2  0
 24 25  1  0
 25 26  2  0
 27 30  1  0
 27 26  1  0
 28 27  2  0
 29 28  1  0
 29 24  2  0
 30 31  1  0
 31 32  1  0
 32 33  2  0
 34 33  1  0
 34 38  1  0
 35 34  2  0
 36 31  2  0
 36 35  1  0
 37 36  1  0
 39 40  1  0
 40 43  1  0
 40 42  1  0
 41 39  2  0
 44 45  1  0
 44 19  1  0
 46 44  1  0
 48 50  1  0
 48 47  1  0
 49 60  2  0
 50 55  1  0
 51 59  1  0
 51 61  1  0
 52 58  1  0
 52 54  1  0
 53 59  1  0
 54 55  2  0
 54 53  1  0
 56 50  2  0
 57 56  1  0
 57 52  2  0
 58 51  1  0
 59 49  1  0
 61 63  2  0
 62 61  1  0
 64 62  1  0
 65 74  2  0
 65 70  1  0
 66 62  1  0
 66 70  1  0
 67 66  1  0
 68 69  1  0
 68 67  1  0
 69 65  1  0
 70 71  2  0
 71 72  1  0
 73 72  2  0
 74 73  1  0
 75 49  1  0
 75 80  1  0
 75 76  1  0
 76 79  1  1
 76 77  1  0
 78 76  1  0
 80 83  1  0
 81 85  1  0
 81 80  1  0
 82 81  2  0
 85 84  1  0
 87 85  1  0
 87 88  1  0
 87 86  1  0
M  ISO  4  10 100  11 100  47 101  48 101
M  END
>  <TORSDO>  (47) 
F 19

>  <SCORE>  (47) 
-16.718

>  <name>  (47) 
46

>  <ligand_id>  (47) 
46

>  <original_smiles>  (47) 
[H]c1nn(C([H])(C(=O)N2C([H])([H])C([H])([H])C([H])([H])C([H])(n3nc(-c4c([H])c([H])c(Oc5c([H])c([H])c(F)c([H])c5F)c([H])c4[H])c(C(=O)N([H])[H])c3N([H])[H])C2([H])[H])C([H])([H])[H])c([H])c1C(C([H])([H])[H])(C([H])([H])[H])C([H])([H])Oc1c([H])c([H])c2c(c1[H])C([H])([H])N(C(=O)C([H])(N([H])C(=O)C([H])(N([H])C([H])([H])[H])C([H])([H])[H])C(C([H])([H])[H])(C([H])([H])[H])C([H])([H])[H])C([H])(C(=O)N([H])C1([H])c3c([H])c([H])c([H])c([H])c3C([H])([H])C([H])([H])C1([H])[H])C2([H])[H]

>  <smiles>  (47) 
[H]c1nn(C([H])(C(=O)N2C([H])([H])C([H])([H])C([H])([H])C([H])(n3nc(-c4c([H])c([H])c(Oc5c([H])c([H])c(F)c([H])c5F)c([H])c4[H])c(C(=O)N([H])[H])c3N([H])[H])C2([H])[H])C([H])([H])[H])c([H])c1C(C([H])([H])[H])(C([H])([H])[H])C([H])([H])Oc1c([H])c([H])c2c(c1[H])C([H])([H])N(C(=O)C([H])(N([H])C(=O)C([H])(N([H])C([H])([H])[H])C([H])([H])[H])C(C([H])([H])[H])(C([H])([H])[H])C([H])([H])[H])C([H])(C(=O)N([H])C1([H])c3c([H])c([H])c([H])c([H])c3C([H])([H])C([H])([H])C1([H])[H])C2([H])[H]

$$$$
47:0:0
     RDKit          3D

 95104  0  0  1  0  0  0  0  0999 V2000
  -28.0780  -22.3920   19.7120 C   0  0  0  0  0  2  0  0  0  0  0  0
  -26.3550  -23.7380   21.0070 C   0  0  0  0  0  2  0  0  0  0  0  0
  -29.1730  -23.0250   20.5940 C   0  0  0  0  0  2  0  0  0  0  0  0
  -27.4760  -24.3040   21.8940 C   0  0  0  0  0  2  0  0  0  0  0  0
  -26.7010  -22.3570   20.4170 C   0  0  0  0  0  3  0  0  0  0  0  0
  -28.7700  -24.4320   21.0680 C   0  0  0  0  0  3  0  0  0  0  0  0
  -25.5630  -21.8920   19.4700 C   0  0  0  0  0  2  0  0  0  0  0  0
  -25.4200  -20.9350   17.1410 C   0  0  0  0  0  2  0  0  0  0  0  0
  -26.8870  -19.5000   17.2760 C   0  0  0  0  0  0  0  0  0  0  0  0
  -25.9630  -19.9820   16.3940 N   0  0  0  0  0  0  0  0  0  0  0  0
  -26.9030  -20.0750   18.4780 N   0  0  0  0  0  2  0  0  0  0  0  0
  -25.9490  -21.0300   18.3640 N   0  0  0  0  0  0  0  0  0  0  0  0
  -27.9730  -18.5640   16.8760 C   0  0  0  0  0  2  0  0  0  0  0  0
  -29.2990  -19.3230   16.8920 C   0  0  0  0  0  2  0  0  0  0  0  0
  -30.2350  -18.9840   18.0540 C   0  0  0  0  0  2  0  0  0  0  0  0
  -32.1440  -20.1880   19.0800 C   0  0  0  0  0  0  0  0  0  0  0  0
  -34.5490  -20.0490   19.5800 C   0  0  0  0  0  2  0  0  0  0  0  0
  -35.3470  -20.4380   18.3200 C   0  0  0  0  0  2  0  0  0  0  0  0
  -35.5720  -19.2100   17.4110 C   0  0  0  0  0  2  0  0  0  0  0  0
  -34.2740  -18.3940   17.1630 C   0  0  0  0  0  3  0  0  0  0  0  0
  -33.5090  -18.1420   18.4810 C   0  0  0  0  0  2  0  0  0  0  0  0
  -33.2850  -19.4470   19.1290 N   0  0  0  0  0  0  0  0  0  0  0  0
  -32.0010  -21.2540   19.6790 O   0  0  0  0  0  0  0  0  0  0  0  0
  -31.3330  -19.9450   18.0510 N   0  0  0  0  0  0  0  0  0  0  0  0
  -31.0220  -20.8220   17.6570 H   0  0  0  0  0  0  0  0  0  0  0  0
  -34.1180  -16.7250   15.2100 C   0  0  0  0  0  0  0  0  0  0  0  0
  -34.7320  -15.5210   14.9800 C   0  0  0  0  0  0  0  0  0  0  0  0
  -35.5450  -15.2700   16.1280 C   0  0  0  0  0  0  0  0  0  0  0  0
  -34.5600  -17.1470   16.4540 N   0  0  0  0  0  0  0  0  0  0  0  0
  -35.3850  -16.2320   17.0270 N   0  0  0  0  0  0  0  0  0  0  0  0
  -36.5120  -14.1950   16.3990 C   0  0  0  0  0  0  0  0  0  0  0  0
  -36.5450  -13.5260   17.6420 C   0  0  0  0  0  3  0  0  0  0  0  0
  -37.4690  -12.4840   17.8700 C   0  0  0  0  0  3  0  0  0  0  0  0
  -38.3720  -12.1000   16.8510 C   0  0  0  0  0  0  0  0  0  0  0  0
  -38.3510  -12.7850   15.6230 C   0  0  0  0  0  3  0  0  0  0  0  0
  -37.4330  -13.8250   15.4000 C   0  0  0  0  0  3  0  0  0  0  0  0
  -39.3220  -11.1190   16.9940 O   0  0  0  0  0  0  0  0  0  0  0  0
  -39.2500  -10.1880   17.9990 C   0  0  0  0  0  0  0  0  0  0  0  0
  -38.0840   -9.4240   18.2250 C   0  0  0  0  0  3  0  0  0  0  0  0
  -38.0780   -8.4300   19.2230 C   0  0  0  0  0  3  0  0  0  0  0  0
  -39.2330   -8.1940   19.9910 C   0  0  0  0  0  0  0  0  0  0  0  0
  -40.3970   -8.9510   19.7640 C   0  0  0  0  0  3  0  0  0  0  0  0
  -40.4050   -9.9430   18.7680 C   0  0  0  0  0  0  0  0  0  0  0  0
  -41.5340  -10.6570   18.5390 F   0  0  0  0  0  0  0  0  0  0  0  0
  -39.2300   -7.2340   20.9440 F   0  0  0  0  0  0  0  0  0  0  0  0
  -34.6430  -14.6940   13.7290 C   0  0  0  0  0  0  0  0  0  0  0  0
  -34.6970  -13.3720   13.8640 N   0  0  0  0  0  0  0  0  0  0  0  0
  -34.4790  -15.2150   12.6280 O   0  0  0  0  0  0  0  0  0  0  0  0
  -34.8130  -12.9420   14.7690 H   0  0  0  0  0  0  0  0  0  0  0  0
  -34.6200  -12.7820   13.0480 H   0  0  0  0  0  0  0  0  0  0  0  0
  -33.2400  -17.5000   14.4650 N   0  0  0  0  0  0  0  0  0  0  0  0
  -32.7950  -17.1490   13.6260 H   0  0  0  0  0  0  0  0  0  0  0  0
  -32.8020  -18.3390   14.8200 H   0  0  0  0  0  0  0  0  0  0  0  0
  -29.9410  -25.1820   21.7640 C   0  0  0  0  0  2  0  0  0  0  0  0
  -29.6800  -25.8510   23.0090 O   0  0  0  0  0  0  0  0  0  0  0  0
  -24.9880  -28.3380   27.7160 C   0  0  0  0  0  0  0  0  0  0  0  0
  -28.5770  -26.6680   23.1730 C   0  0  0  0  0  0  0  0  0  0  0  0
  -24.4150  -28.7070   25.3380 C   0  0  0  0  0  3  0  0  0  0  0  0
  -26.2830  -28.2460   23.6650 C   0  0  0  0  0  0  0  0  0  0  0  0
  -26.8550  -28.5180   26.0810 C   0  0  0  0  0  2  0  0  0  0  0  0
  -27.1650  -27.9530   24.7120 C   0  0  0  0  0  0  0  0  0  0  0  0
  -28.3030  -27.1520   24.4720 C   0  0  0  0  0  3  0  0  0  0  0  0
  -27.7020  -27.0240   22.1230 C   0  0  0  0  0  3  0  0  0  0  0  0
  -26.5430  -27.7740   22.3710 C   0  0  0  0  0  3  0  0  0  0  0  0
  -25.0800  -29.0990   23.9930 C   0  0  0  0  0  2  0  0  0  0  0  0
  -25.4170  -28.4880   26.4310 N   0  0  0  0  0  0  0  0  0  0  0  0
  -23.7860  -28.4170   27.9990 O   0  0  0  0  0  0  0  0  0  0  0  0
  -23.5040  -27.4830   25.1000 C   0  0  0  0  0  0  0  0  0  0  0  0
  -22.6360  -27.5810   24.0800 N   0  0  0  0  0  0  0  0  0  0  0  0
  -23.6000  -26.4740   25.8040 O   0  0  0  0  0  0  0  0  0  0  0  0
  -22.5910  -28.4610   23.5870 H   0  0  0  0  0  0  0  0  0  0  0  0
  -20.3000  -26.6740   21.4720 C   0  0  0  0  0  0  0  0  0  0  0  0
  -21.7110  -26.5380   23.6370 C   0  0  0  0  0  3  0  0  0  0  0  0
  -22.4620  -25.3730   22.9530 C   0  0  0  0  0  2  0  0  0  0  0  0
  -22.5520  -25.5180   21.4290 C   0  0  0  0  0  2  0  0  0  0  0  0
  -21.1550  -25.6080   20.8080 C   0  0  0  0  0  2  0  0  0  0  0  0
  -20.5740  -27.1220   22.7930 C   0  0  0  0  0  0  0  0  0  0  0  0
  -19.7800  -28.1470   23.3480 C   0  0  0  0  0  3  0  0  0  0  0  0
  -18.7290  -28.7200   22.6110 C   0  0  0  0  0  3  0  0  0  0  0  0
  -18.4420  -28.2550   21.3180 C   0  0  0  0  0  3  0  0  0  0  0  0
  -19.2240  -27.2320   20.7520 C   0  0  0  0  0  3  0  0  0  0  0  0
  -25.9890  -28.0870   28.8890 C   0  0  0  0  0  3  0  0  0  0  0  0
  -25.3560  -28.5780   30.1190 N   0  0  0  0  0  0  0  0  0  0  0  0
  -25.7340  -29.6810   30.7760 C   0  0  0  0  0  0  0  0  0  0  0  0
  -26.7100  -30.3590   30.4450 O   0  0  0  0  0  0  0  0  0  0  0  0
  -24.5130  -28.1100   30.4150 H   0  0  0  0  0  0  0  0  0  0  0  0
  -23.9290  -31.2280   31.5970 C   0  0  0  0  0  1  0  0  0  0  0  0
  -24.8970  -30.1030   31.9960 C   0  0  0  0  0  3  0  0  0  0  0  0
  -26.4660  -29.4440   33.7650 C   0  0  0  0  0  1  0  0  0  0  0  0
  -25.7150  -30.5370   33.1510 N   0  0  0  0  0  0  0  0  0  0  0  0
  -25.1280  -30.9540   33.8670 H   0  0  0  0  0  0  0  0  0  0  0  0
  -26.4020  -26.5710   29.0340 C   0  0  1  0  0  0  0  0  0  0  0  0
  -25.1970  -25.6080   29.1360 C   0  0  0  0  0  1  0  0  0  0  0  0
  -27.2700  -26.1210   27.8340 C   0  0  0  0  0  1  0  0  0  0  0  0
  -27.2680  -26.3900   30.3010 C   0  0  0  0  0  1  0  0  0  0  0  0
  1  5  1  0
  1  3  1  0
  2  4  1  0
  3  6  1  0
  5  7  1  0
  5  2  1  0
  6 54  1  0
  6  4  1  0
  8 12  1  0
  9 11  1  0
 10  8  1  0
 10  9  2  0
 12 11  1  0
 12  7  1  0
 13 14  1  0
 13  9  1  0
 14 15  1  0
 16 22  1  0
 16 23  2  0
 18 17  1  0
 19 18  1  0
 20 29  1  0
 20 19  1  0
 20 21  1  0
 21 22  1  0
 22 17  1  0
 24 15  1  0
 24 16  1  0
 25 24  1  0
 26 29  1  0
 27 26  2  0
 27 28  1  0
 28 31  1  0
 28 30  2  0
 29 30  1  0
 31 32  1  0
 32 33  2  0
 34 37  1  0
 34 33  1  0
 35 34  2  0
 36 35  1  0
 36 31  2  0
 37 38  1  0
 38 39  2  0
 38 43  1  0
 39 40  1  0
 40 41  2  0
 41 45  1  0
 42 41  1  0
 43 42  2  0
 44 43  1  0
 46 47  1  0
 46 27  1  0
 47 49  1  0
 48 46  2  0
 50 47  1  0
 51 53  1  0
 51 26  1  0
 52 51  1  0
 54 55  1  0
 55 57  1  0
 56 67  2  0
 57 62  1  0
 58 68  1  0
 58 66  1  0
 59 65  1  0
 59 61  1  0
 60 66  1  0
 61 60  1  0
 62 61  2  0
 63 64  1  0
 63 57  2  0
 64 59  2  0
 65 58  1  0
 66 56  1  0
 68 70  2  0
 69 68  1  0
 71 69  1  0
 72 77  1  0
 73 69  1  0
 74 73  1  0
 75 74  1  0
 76 75  1  0
 76 72  1  0
 77 78  2  0
 77 73  1  0
 79 78  1  0
 80 79  2  0
 81 80  1  0
 81 72  2  0
 82 56  1  0
 82 92  1  0
 82 83  1  0
 83 86  1  0
 83 84  1  0
 84 88  1  0
 85 84  2  0
 88 87  1  0
 88 90  1  0
 90 89  1  0
 90 91  1  0
 92 93  1  1
 92 95  1  0
 94 92  1  0
M  ISO  4  16 100  24 100  54 101  55 101
M  END
>  <TORSDO>  (48) 
F 22

>  <SCORE>  (48) 
-1.583

>  <name>  (48) 
47

>  <ligand_id>  (48) 
47

>  <original_smiles>  (48) 
[H]c1c([H])c([H])c2c(c1[H])C([H])([H])C([H])([H])C([H])([H])C2([H])N([H])C(=O)C1([H])N(C(=O)C([H])(N([H])C(=O)C([H])(N([H])C([H])([H])[H])C([H])([H])[H])C(C([H])([H])[H])(C([H])([H])[H])C([H])([H])[H])C([H])([H])c2c([H])c(OC([H])([H])C3([H])C([H])([H])C([H])([H])C([H])(C([H])([H])n4nc(C([H])([H])C([H])([H])C([H])([H])N([H])C(=O)N5C([H])([H])C([H])([H])C([H])([H])C([H])(n6nc(-c7c([H])c([H])c(Oc8c([H])c([H])c(F)c([H])c8F)c([H])c7[H])c(C(=O)N([H])[H])c6N([H])[H])C5([H])[H])nc4[H])C([H])([H])C3([H])[H])c([H])c([H])c2C1([H])[H]

>  <smiles>  (48) 
[H]c1c([H])c([H])c2c(c1[H])C([H])([H])C([H])([H])C([H])([H])C2([H])N([H])C(=O)C1([H])N(C(=O)C([H])(N([H])C(=O)C([H])(N([H])C([H])([H])[H])C([H])([H])[H])C(C([H])([H])[H])(C([H])([H])[H])C([H])([H])[H])C([H])([H])c2c([H])c(OC([H])([H])C3([H])C([H])([H])C([H])([H])C([H])(C([H])([H])n4nc(C([H])([H])C([H])([H])C([H])([H])N([H])C(=O)N5C([H])([H])C([H])([H])C([H])([H])C([H])(n6nc(-c7c([H])c([H])c(Oc8c([H])c([H])c(F)c([H])c8F)c([H])c7[H])c(C(=O)N([H])[H])c6N([H])[H])C5([H])[H])nc4[H])C([H])([H])C3([H])[H])c([H])c([H])c2C1([H])[H]

$$$$
48:0:0
     RDKit          3D

 88 96  0  0  1  0  0  0  0  0999 V2000
  -30.2790  -21.6310   21.3650 C   0  0  0  0  0  3  0  0  0  0  0  0
  -29.1140  -21.9630   20.6310 C   0  0  0  0  0  0  0  0  0  0  0  0
  -29.7900  -19.3480   20.7240 C   0  0  0  0  0  3  0  0  0  0  0  0
  -31.9420  -19.7640   22.0180 C   0  0  0  0  0  1  0  0  0  0  0  0
  -30.6730  -20.2250   21.3540 N   0  0  0  0  0  0  0  0  0  0  0  0
  -28.8810  -20.4630   20.3060 N   0  0  0  0  0  0  0  0  0  0  0  0
  -28.0300  -20.2230   19.8060 H   0  0  0  0  0  0  0  0  0  0  0  0
  -30.1260  -17.1730   22.3260 C   0  0  0  0  0  1  0  0  0  0  0  0
  -28.1900  -17.2240   20.8940 C   0  0  0  0  0  1  0  0  0  0  0  0
  -29.7150  -17.4170   20.8320 C   0  0  1  0  0  0  0  0  0  0  0  0
  -30.4150  -15.7810   20.0860 C   0  0  0  0  0  0  0  0  0  0  0  0
  -30.4510  -13.3110   18.9540 C   0  0  0  0  0  2  0  0  0  0  0  0
  -29.4470  -13.0670   17.7830 C   0  0  0  0  0  2  0  0  0  0  0  0
  -28.0520  -12.6430   18.2940 C   0  0  0  0  0  2  0  0  0  0  0  0
  -27.6650  -13.4750   19.5350 C   0  0  0  0  0  3  0  0  0  0  0  0
  -28.8110  -13.6340   20.5720 C   0  0  0  0  0  2  0  0  0  0  0  0
  -29.9230  -14.3850   19.9290 N   0  0  0  0  0  0  0  0  0  0  0  0
  -31.5610  -15.7640   19.5980 O   0  0  0  0  0  0  0  0  0  0  0  0
  -25.3500  -13.9130   20.4980 C   0  0  0  0  0  0  0  0  0  0  0  0
  -24.3440  -13.1110   20.9320 C   0  0  0  0  0  0  0  0  0  0  0  0
  -24.8140  -11.7650   20.7740 C   0  0  0  0  0  0  0  0  0  0  0  0
  -26.3840  -13.0770   20.1210 N   0  0  0  0  0  0  0  0  0  0  0  0
  -26.0740  -11.7660   20.3370 N   0  0  0  0  0  0  0  0  0  0  0  0
  -24.1050  -10.4910   20.9580 C   0  0  0  0  0  0  0  0  0  0  0  0
  -24.5670   -9.5010   21.8580 C   0  0  0  0  0  3  0  0  0  0  0  0
  -23.8490   -8.3000   22.0260 C   0  0  0  0  0  3  0  0  0  0  0  0
  -22.6520   -8.0780   21.3080 C   0  0  0  0  0  0  0  0  0  0  0  0
  -22.2060   -9.0530   20.4000 C   0  0  0  0  0  3  0  0  0  0  0  0
  -22.9250  -10.2480   20.2240 C   0  0  0  0  0  3  0  0  0  0  0  0
  -21.9000   -6.9300   21.3980 O   0  0  0  0  0  0  0  0  0  0  0  0
  -21.8150   -6.2110   22.5660 C   0  0  0  0  0  0  0  0  0  0  0  0
  -21.3300   -6.7860   23.7620 C   0  0  0  0  0  3  0  0  0  0  0  0
  -21.1950   -5.9940   24.9220 C   0  0  0  0  0  3  0  0  0  0  0  0
  -21.5370   -4.6280   24.8850 C   0  0  0  0  0  0  0  0  0  0  0  0
  -22.0120   -4.0500   23.6940 C   0  0  0  0  0  3  0  0  0  0  0  0
  -22.1470   -4.8400   22.5360 C   0  0  0  0  0  0  0  0  0  0  0  0
  -22.5850   -4.2720   21.3850 F   0  0  0  0  0  0  0  0  0  0  0  0
  -21.3970   -3.8660   25.9940 F   0  0  0  0  0  0  0  0  0  0  0  0
  -22.9770  -13.5650   21.3750 C   0  0  0  0  0  0  0  0  0  0  0  0
  -22.3420  -12.8340   22.2770 N   0  0  0  0  0  0  0  0  0  0  0  0
  -22.4910  -14.6160   20.9470 O   0  0  0  0  0  0  0  0  0  0  0  0
  -22.7410  -11.9830   22.6450 H   0  0  0  0  0  0  0  0  0  0  0  0
  -21.4340  -13.1270   22.6120 H   0  0  0  0  0  0  0  0  0  0  0  0
  -25.4710  -15.2940   20.3500 N   0  0  0  0  0  0  0  0  0  0  0  0
  -24.6980  -15.9340   20.5010 H   0  0  0  0  0  0  0  0  0  0  0  0
  -26.2400  -15.7150   19.8450 H   0  0  0  0  0  0  0  0  0  0  0  0
  -28.1900  -23.6150   20.2620 C   0  0  0  0  0  2  0  0  0  0  0  0
  -28.2960  -25.4060   20.4310 O   0  0  0  0  0  0  0  0  0  0  0  0
  -24.6800  -31.7350   23.1660 C   0  0  0  0  0  0  0  0  0  0  0  0
  -27.3080  -26.6330   20.2720 C   0  0  0  0  0  0  0  0  0  0  0  0
  -23.5250  -30.3330   21.5040 C   0  0  0  0  0  3  0  0  0  0  0  0
  -25.0180  -28.6920   20.1060 C   0  0  0  0  0  0  0  0  0  0  0  0
  -26.1000  -30.4890   21.4250 C   0  0  0  0  0  2  0  0  0  0  0  0
  -26.1880  -29.0480   20.7850 C   0  0  0  0  0  0  0  0  0  0  0  0
  -27.3020  -28.0470   20.8410 C   0  0  0  0  0  3  0  0  0  0  0  0
  -26.1090  -26.5140   19.5030 C   0  0  0  0  0  3  0  0  0  0  0  0
  -25.0260  -27.4570   19.4330 C   0  0  0  0  0  3  0  0  0  0  0  0
  -23.7990  -29.6430   20.1310 C   0  0  0  0  0  2  0  0  0  0  0  0
  -24.7910  -30.8850   22.0880 N   0  0  0  0  0  0  0  0  0  0  0  0
  -23.5800  -32.0250   23.6680 O   0  0  0  0  0  0  0  0  0  0  0  0
  -22.8000  -29.3520   22.4670 C   0  0  0  0  0  0  0  0  0  0  0  0
  -21.4670  -29.1950   22.3380 N   0  0  0  0  0  0  0  0  0  0  0  0
  -23.4550  -28.7280   23.3050 O   0  0  0  0  0  0  0  0  0  0  0  0
  -20.9810  -29.7480   21.6430 H   0  0  0  0  0  0  0  0  0  0  0  0
  -18.0850  -27.9730   22.8620 C   0  0  0  0  0  0  0  0  0  0  0  0
  -20.6480  -28.2480   23.1090 C   0  0  0  0  0  3  0  0  0  0  0  0
  -20.7480  -26.8220   22.5170 C   0  0  0  0  0  2  0  0  0  0  0  0
  -19.6410  -26.5100   21.5050 C   0  0  0  0  0  2  0  0  0  0  0  0
  -18.2640  -26.6380   22.1590 C   0  0  0  0  0  2  0  0  0  0  0  0
  -19.2040  -28.7340   23.2950 C   0  0  0  0  0  0  0  0  0  0  0  0
  -18.9780  -29.9790   23.9230 C   0  0  0  0  0  3  0  0  0  0  0  0
  -17.6690  -30.4670   24.1090 C   0  0  0  0  0  3  0  0  0  0  0  0
  -16.5690  -29.7020   23.6880 C   0  0  0  0  0  3  0  0  0  0  0  0
  -16.7760  -28.4570   23.0720 C   0  0  0  0  0  3  0  0  0  0  0  0
  -25.9320  -32.3970   23.8200 C   0  0  0  0  0  3  0  0  0  0  0  0
  -25.5980  -33.7970   24.1640 N   0  0  0  0  0  0  0  0  0  0  0  0
  -25.9100  -34.8690   23.4180 C   0  0  0  0  0  0  0  0  0  0  0  0
  -26.5640  -34.7820   22.3770 O   0  0  0  0  0  0  0  0  0  0  0  0
  -25.0130  -33.9400   24.9740 H   0  0  0  0  0  0  0  0  0  0  0  0
  -24.1500  -36.6530   23.1370 C   0  0  0  0  0  1  0  0  0  0  0  0
  -25.4220  -36.2510   23.9010 C   0  0  0  0  0  3  0  0  0  0  0  0
  -27.5640  -37.1780   24.6730 C   0  0  0  0  0  1  0  0  0  0  0  0
  -26.4340  -37.3210   23.7580 N   0  0  0  0  0  0  0  0  0  0  0  0
  -26.0150  -38.2340   23.9110 H   0  0  0  0  0  0  0  0  0  0  0  0
  -26.4290  -31.6370   25.1130 C   0  0  1  0  0  0  0  0  0  0  0  0
  -25.3240  -31.4020   26.1680 C   0  0  0  0  0  1  0  0  0  0  0  0
  -27.0220  -30.2580   24.7540 C   0  0  0  0  0  1  0  0  0  0  0  0
  -27.5710  -32.4390   25.7910 C   0  0  0  0  0  1  0  0  0  0  0  0
  2  1  2  0
  3 10  1  0
  3  5  1  0
  5  1  1  0
  5  4  1  0
  6  2  1  0
  6  3  1  0
  7  6  1  0
 10  9  1  1
 10  8  1  0
 11 10  1  0
 12 17  1  0
 13 14  1  0
 13 12  1  0
 15 14  1  0
 15 22  1  0
 15 16  1  0
 17 11  1  0
 17 16  1  0
 18 11  2  0
 19 20  2  0
 20 39  1  0
 21 20  1  0
 21 24  1  0
 22 23  1  0
 22 19  1  0
 23 21  2  0
 24 25  1  0
 25 26  2  0
 27 30  1  0
 27 26  1  0
 28 27  2  0
 29 28  1  0
 29 24  2  0
 30 31  1  0
 31 32  1  0
 32 33  2  0
 34 33  1  0
 34 38  1  0
 35 34  2  0
 36 31  2  0
 36 35  1  0
 37 36  1  0
 39 40  1  0
 40 43  1  0
 40 42  1  0
 41 39  2  0
 44 19  1  0
 44 45  1  0
 46 44  1  0
 47 48  1  0
 47  2  1  0
 49 60  2  0
 50 48  1  0
 50 55  1  0
 51 59  1  0
 51 61  1  0
 52 58  1  0
 52 54  1  0
 53 59  1  0
 54 55  2  0
 54 53  1  0
 56 50  2  0
 57 56  1  0
 57 52  2  0
 58 51  1  0
 59 49  1  0
 61 63  2  0
 62 61  1  0
 64 62  1  0
 65 74  2  0
 65 70  1  0
 66 62  1  0
 66 70  1  0
 67 66  1  0
 68 69  1  0
 68 67  1  0
 69 65  1  0
 70 71  2  0
 71 72  1  0
 73 72  2  0
 74 73  1  0
 75 49  1  0
 75 76  1  0
 75 85  1  0
 76 79  1  0
 77 81  1  0
 77 76  1  0
 78 77  2  0
 81 80  1  0
 83 81  1  0
 83 84  1  0
 83 82  1  0
 85 88  1  1
 85 86  1  0
 87 85  1  0
M  ISO  4  10 100  11 100  47 101  48 101
M  END
>  <TORSDO>  (49) 
F 18

>  <SCORE>  (49) 
-15.708

>  <name>  (49) 
48

>  <ligand_id>  (49) 
48

>  <original_smiles>  (49) 
[H]c1c([H])c([H])c2c(c1[H])C([H])([H])C([H])([H])C([H])([H])C2([H])N([H])C(=O)C1([H])N(C(=O)C([H])(N([H])C(=O)C([H])(N([H])C([H])([H])[H])C([H])([H])[H])C(C([H])([H])[H])(C([H])([H])[H])C([H])([H])[H])C([H])([H])c2c([H])c(OC([H])([H])c3c([H])n(C([H])([H])[H])c(C(C(=O)N4C([H])([H])C([H])([H])C([H])([H])C([H])(n5nc(-c6c([H])c([H])c(Oc7c([H])c([H])c(F)c([H])c7F)c([H])c6[H])c(C(=O)N([H])[H])c5N([H])[H])C4([H])[H])(C([H])([H])[H])C([H])([H])[H])[n+]3[H])c([H])c([H])c2C1([H])[H]

>  <smiles>  (49) 
[H]c1c([H])c([H])c2c(c1[H])C([H])([H])C([H])([H])C([H])([H])C2([H])N([H])C(=O)C1([H])N(C(=O)C([H])(N([H])C(=O)C([H])(N([H])C([H])([H])[H])C([H])([H])[H])C(C([H])([H])[H])(C([H])([H])[H])C([H])([H])[H])C([H])([H])c2c([H])c(OC([H])([H])c3c([H])n(C([H])([H])[H])c(C(C(=O)N4C([H])([H])C([H])([H])C([H])([H])C([H])(n5nc(-c6c([H])c([H])c(Oc7c([H])c([H])c(F)c([H])c7F)c([H])c6[H])c(C(=O)N([H])[H])c5N([H])[H])C4([H])[H])(C([H])([H])[H])C([H])([H])[H])[n+]3[H])c([H])c([H])c2C1([H])[H]

$$$$
49:0:0
     RDKit          3D

 91 99  0  0  1  0  0  0  0  0999 V2000
  -29.8600  -22.8520   20.9020 C   0  0  0  0  0  3  0  0  0  0  0  0
  -28.8750  -23.2170   19.9960 C   0  0  0  0  0  0  0  0  0  0  0  0
  -29.3980  -20.8360   19.8750 C   0  0  0  0  0  3  0  0  0  0  0  0
  -31.0880  -20.7340   21.6420 C   0  0  0  0  0  1  0  0  0  0  0  0
  -30.1380  -21.4730   20.8110 N   0  0  0  0  0  0  0  0  0  0  0  0
  -28.6510  -21.9220   19.3950 N   0  0  0  0  0  0  0  0  0  0  0  0
  -27.9570  -21.8080   18.6650 H   0  0  0  0  0  0  0  0  0  0  0  0
  -29.4400  -19.1280   17.9500 C   0  0  0  0  0  1  0  0  0  0  0  0
  -27.8370  -18.8260   19.8340 C   0  0  0  0  0  1  0  0  0  0  0  0
  -29.3050  -19.1910   19.4930 C   0  0  2  0  0  0  0  0  0  0  0  0
  -30.3420  -17.9020   20.0410 C   0  0  0  0  0  2  0  0  0  0  0  0
  -30.7210  -15.1090   19.9310 C   0  0  0  0  0  0  0  0  0  0  0  0
  -30.5810  -12.7470   18.9510 C   0  0  0  0  0  2  0  0  0  0  0  0
  -29.5540  -12.6800   17.7920 C   0  0  0  0  0  2  0  0  0  0  0  0
  -28.1120  -12.4860   18.3100 C   0  0  0  0  0  2  0  0  0  0  0  0
  -27.7990  -13.3780   19.5390 C   0  0  0  0  0  3  0  0  0  0  0  0
  -28.9370  -13.2900   20.5790 C   0  0  0  0  0  2  0  0  0  0  0  0
  -30.1420  -13.8170   19.9050 N   0  0  0  0  0  0  0  0  0  0  0  0
  -31.8700  -15.1670   19.4730 O   0  0  0  0  0  0  0  0  0  0  0  0
  -29.2090  -16.2600   21.5040 C   0  0  0  0  0  1  0  0  0  0  0  0
  -29.9960  -16.3320   20.2580 N   0  0  0  0  0  0  0  0  0  0  0  0
  -25.4630  -13.9890   20.3890 C   0  0  0  0  0  0  0  0  0  0  0  0
  -24.4030  -13.2330   20.8040 C   0  0  0  0  0  0  0  0  0  0  0  0
  -24.8340  -11.8740   20.7190 C   0  0  0  0  0  0  0  0  0  0  0  0
  -26.4800  -13.0950   20.0940 N   0  0  0  0  0  0  0  0  0  0  0  0
  -26.1100  -11.8150   20.3500 N   0  0  0  0  0  0  0  0  0  0  0  0
  -24.0910  -10.6240   20.9180 C   0  0  0  0  0  0  0  0  0  0  0  0
  -24.5220   -9.6510   21.8460 C   0  0  0  0  0  3  0  0  0  0  0  0
  -23.7830   -8.4640   22.0410 C   0  0  0  0  0  3  0  0  0  0  0  0
  -22.5960   -8.2390   21.3010 C   0  0  0  0  0  0  0  0  0  0  0  0
  -22.1820   -9.2000   20.3630 C   0  0  0  0  0  3  0  0  0  0  0  0
  -22.9220  -10.3780   20.1680 C   0  0  0  0  0  3  0  0  0  0  0  0
  -21.8230   -7.1080   21.4000 O   0  0  0  0  0  0  0  0  0  0  0  0
  -21.7260   -6.4070   22.5730 C   0  0  0  0  0  0  0  0  0  0  0  0
  -21.2710   -7.0100   23.7680 C   0  0  0  0  0  3  0  0  0  0  0  0
  -21.1300   -6.2350   24.9370 C   0  0  0  0  0  3  0  0  0  0  0  0
  -21.4260   -4.8580   24.9080 C   0  0  0  0  0  0  0  0  0  0  0  0
  -21.8700   -4.2550   23.7190 C   0  0  0  0  0  3  0  0  0  0  0  0
  -22.0160   -5.0270   22.5530 C   0  0  0  0  0  0  0  0  0  0  0  0
  -22.4220   -4.4390   21.4020 F   0  0  0  0  0  0  0  0  0  0  0  0
  -21.2850   -4.1120   26.0290 F   0  0  0  0  0  0  0  0  0  0  0  0
  -23.0320  -13.7360   21.1610 C   0  0  0  0  0  0  0  0  0  0  0  0
  -22.3450  -13.0410   22.0580 N   0  0  0  0  0  0  0  0  0  0  0  0
  -22.5870  -14.7800   20.6830 O   0  0  0  0  0  0  0  0  0  0  0  0
  -22.7310  -12.2050   22.4670 H   0  0  0  0  0  0  0  0  0  0  0  0
  -21.4260  -13.3480   22.3530 H   0  0  0  0  0  0  0  0  0  0  0  0
  -25.6450  -15.3540   20.2030 N   0  0  0  0  0  0  0  0  0  0  0  0
  -24.8660  -16.0010   20.2540 H   0  0  0  0  0  0  0  0  0  0  0  0
  -26.4270  -15.7050   19.6710 H   0  0  0  0  0  0  0  0  0  0  0  0
  -28.0620  -24.6340   19.6670 C   0  0  0  0  0  2  0  0  0  0  0  0
  -28.2860  -26.1010   20.1910 O   0  0  0  0  0  0  0  0  0  0  0  0
  -24.6190  -31.8360   23.1760 C   0  0  0  0  0  0  0  0  0  0  0  0
  -27.2360  -27.1120   20.1150 C   0  0  0  0  0  0  0  0  0  0  0  0
  -23.4400  -30.4290   21.5350 C   0  0  0  0  0  3  0  0  0  0  0  0
  -24.9020  -28.8740   20.1030 C   0  0  0  0  0  0  0  0  0  0  0  0
  -25.9960  -30.7000   21.3900 C   0  0  0  0  0  2  0  0  0  0  0  0
  -26.0780  -29.3080   20.7280 C   0  0  0  0  0  0  0  0  0  0  0  0
  -27.2400  -28.4360   20.7270 C   0  0  0  0  0  3  0  0  0  0  0  0
  -26.0340  -26.8050   19.4420 C   0  0  0  0  0  3  0  0  0  0  0  0
  -24.8920  -27.6350   19.4500 C   0  0  0  0  0  3  0  0  0  0  0  0
  -23.6680  -29.7570   20.1550 C   0  0  0  0  0  2  0  0  0  0  0  0
  -24.7050  -31.0100   22.0900 N   0  0  0  0  0  0  0  0  0  0  0  0
  -23.5290  -32.1080   23.7000 O   0  0  0  0  0  0  0  0  0  0  0  0
  -22.7600  -29.4170   22.4950 C   0  0  0  0  0  0  0  0  0  0  0  0
  -21.4310  -29.2510   22.3820 N   0  0  0  0  0  0  0  0  0  0  0  0
  -23.4370  -28.7810   23.3080 O   0  0  0  0  0  0  0  0  0  0  0  0
  -20.9370  -29.8120   21.7010 H   0  0  0  0  0  0  0  0  0  0  0  0
  -18.0480  -28.0710   22.9240 C   0  0  0  0  0  0  0  0  0  0  0  0
  -20.6130  -28.3100   23.1530 C   0  0  0  0  0  3  0  0  0  0  0  0
  -20.6970  -26.8850   22.5600 C   0  0  0  0  0  2  0  0  0  0  0  0
  -19.5760  -26.5830   21.5590 C   0  0  0  0  0  2  0  0  0  0  0  0
  -18.2050  -26.7300   22.2240 C   0  0  0  0  0  2  0  0  0  0  0  0
  -19.1790  -28.8180   23.3450 C   0  0  0  0  0  0  0  0  0  0  0  0
  -18.9780  -30.0730   23.9610 C   0  0  0  0  0  3  0  0  0  0  0  0
  -17.6800  -30.5810   24.1560 C   0  0  0  0  0  3  0  0  0  0  0  0
  -16.5630  -29.8300   23.7520 C   0  0  0  0  0  3  0  0  0  0  0  0
  -16.7480  -28.5750   23.1420 C   0  0  0  0  0  3  0  0  0  0  0  0
  -25.8870  -32.4880   23.8070 C   0  0  0  0  0  3  0  0  0  0  0  0
  -26.3910  -31.7330   25.0990 C   0  0  1  0  0  0  0  0  0  0  0  0
  -25.2850  -31.5030   26.1550 C   0  0  0  0  0  1  0  0  0  0  0  0
  -26.9870  -30.3540   24.7340 C   0  0  0  0  0  1  0  0  0  0  0  0
  -27.5300  -32.5410   25.7650 C   0  0  0  0  0  1  0  0  0  0  0  0
  -25.5620  -33.8860   24.1300 N   0  0  0  0  0  0  0  0  0  0  0  0
  -25.8850  -34.9440   23.3710 C   0  0  0  0  0  0  0  0  0  0  0  0
  -26.5460  -34.8420   22.3350 O   0  0  0  0  0  0  0  0  0  0  0  0
  -24.9770  -34.0360   24.9380 H   0  0  0  0  0  0  0  0  0  0  0  0
  -24.1330  -36.7180   23.0370 C   0  0  0  0  0  1  0  0  0  0  0  0
  -25.3910  -36.3290   23.8310 C   0  0  0  0  0  3  0  0  0  0  0  0
  -27.5270  -37.2410   24.6270 C   0  0  0  0  0  1  0  0  0  0  0  0
  -26.4100  -37.3940   23.6990 N   0  0  0  0  0  0  0  0  0  0  0  0
  -25.9940  -38.3090   23.8530 H   0  0  0  0  0  0  0  0  0  0  0  0
  2  1  2  0
  3 10  1  0
  3  5  1  0
  5  1  1  0
  5  4  1  0
  6  3  1  0
  6  2  1  0
  7  6  1  0
 10  8  1  6
 10  9  1  0
 10 11  1  0
 11 21  1  0
 12 21  1  0
 13 18  1  0
 14 15  1  0
 14 13  1  0
 16 15  1  0
 16 25  1  0
 16 17  1  0
 18 12  1  0
 18 17  1  0
 19 12  2  0
 21 20  1  0
 22 23  2  0
 23 42  1  0
 24 23  1  0
 24 27  1  0
 25 26  1  0
 25 22  1  0
 26 24  2  0
 27 28  1  0
 28 29  2  0
 30 33  1  0
 30 29  1  0
 31 30  2  0
 32 31  1  0
 32 27  2  0
 33 34  1  0
 34 35  1  0
 35 36  2  0
 37 36  1  0
 37 41  1  0
 38 37  2  0
 39 34  2  0
 39 38  1  0
 40 39  1  0
 42 43  1  0
 43 46  1  0
 43 45  1  0
 44 42  2  0
 47 48  1  0
 47 22  1  0
 49 47  1  0
 50  2  1  0
 50 51  1  0
 52 63  2  0
 53 51  1  0
 53 58  1  0
 54 62  1  0
 54 64  1  0
 55 61  1  0
 55 57  1  0
 56 62  1  0
 57 56  1  0
 58 57  2  0
 59 60  1  0
 59 53  2  0
 60 55  2  0
 61 54  1  0
 62 52  1  0
 64 66  2  0
 65 64  1  0
 67 65  1  0
 68 77  2  0
 68 73  1  0
 69 65  1  0
 69 73  1  0
 70 69  1  0
 71 72  1  0
 71 70  1  0
 72 68  1  0
 73 74  2  0
 74 75  1  0
 76 75  2  0
 77 76  1  0
 78 52  1  0
 78 83  1  0
 78 79  1  0
 79 82  1  1
 79 80  1  0
 81 79  1  0
 83 86  1  0
 84 88  1  0
 84 83  1  0
 85 84  2  0
 88 87  1  0
 90 88  1  0
 90 91  1  0
 90 89  1  0
M  ISO  4  12 100  21 100  50 101  51 101
M  END
>  <TORSDO>  (50) 
F 19

>  <SCORE>  (50) 
-14.548

>  <name>  (50) 
49

>  <ligand_id>  (50) 
49

>  <original_smiles>  (50) 
[H]c1c([H])c([H])c2c(c1[H])C([H])([H])C([H])([H])C([H])([H])C2([H])N([H])C(=O)C1([H])N(C(=O)C([H])(N([H])C(=O)C([H])(N([H])C([H])([H])[H])C([H])([H])[H])C(C([H])([H])[H])(C([H])([H])[H])C([H])([H])[H])C([H])([H])c2c([H])c(OC([H])([H])c3c([H])n(C([H])([H])[H])c(C(C([H])([H])[H])(C([H])([H])[H])C([H])([H])N(C(=O)N4C([H])([H])C([H])([H])C([H])([H])C([H])(n5nc(-c6c([H])c([H])c(Oc7c([H])c([H])c(F)c([H])c7F)c([H])c6[H])c(C(=O)N([H])[H])c5N([H])[H])C4([H])[H])C([H])([H])[H])[n+]3[H])c([H])c([H])c2C1([H])[H]

>  <smiles>  (50) 
[H]c1c([H])c([H])c2c(c1[H])C([H])([H])C([H])([H])C([H])([H])C2([H])N([H])C(=O)C1([H])N(C(=O)C([H])(N([H])C(=O)C([H])(N([H])C([H])([H])[H])C([H])([H])[H])C(C([H])([H])[H])(C([H])([H])[H])C([H])([H])[H])C([H])([H])c2c([H])c(OC([H])([H])c3c([H])n(C([H])([H])[H])c(C(C([H])([H])[H])(C([H])([H])[H])C([H])([H])N(C(=O)N4C([H])([H])C([H])([H])C([H])([H])C([H])(n5nc(-c6c([H])c([H])c(Oc7c([H])c([H])c(F)c([H])c7F)c([H])c6[H])c(C(=O)N([H])[H])c5N([H])[H])C4([H])[H])C([H])([H])[H])[n+]3[H])c([H])c([H])c2C1([H])[H]

$$$$
50:0:0
     RDKit          3D

 97105  0  0  1  0  0  0  0  0999 V2000
  -28.7190  -19.6720   20.7540 C   0  0  0  0  0  3  0  0  0  0  0  0
  -29.8970  -20.3600   20.6330 C   0  0  0  0  0  0  0  0  0  0  0  0
  -30.1620  -18.0120   20.0820 C   0  0  0  0  0  3  0  0  0  0  0  0
  -28.8640  -18.3420   20.3470 N   0  0  0  0  0  0  0  0  0  0  0  0
  -30.7700  -19.2660   20.2860 N   0  0  0  0  0  0  0  0  0  0  0  0
  -31.7720  -19.4040   20.2190 H   0  0  0  0  0  0  0  0  0  0  0  0
  -30.2060  -21.9390   21.0010 C   0  0  0  0  0  2  0  0  0  0  0  0
  -29.3620  -23.3250   20.5190 C   0  0  0  0  0  2  0  0  0  0  0  0
  -29.2520  -24.8080   21.3390 C   0  0  0  0  0  2  0  0  0  0  0  0
  -29.2250  -26.2950   20.8820 O   0  0  0  0  0  0  0  0  0  0  0  0
  -24.9580  -31.8140   23.3690 C   0  0  0  0  0  0  0  0  0  0  0  0
  -28.0700  -27.1490   20.8130 C   0  0  0  0  0  0  0  0  0  0  0  0
  -23.9960  -30.2920   21.6800 C   0  0  0  0  0  3  0  0  0  0  0  0
  -25.6560  -28.7370   20.4830 C   0  0  0  0  0  0  0  0  0  0  0  0
  -26.5350  -30.6950   21.7480 C   0  0  0  0  0  2  0  0  0  0  0  0
  -26.7450  -29.2830   21.1740 C   0  0  0  0  0  0  0  0  0  0  0  0
  -27.9550  -28.5080   21.3140 C   0  0  0  0  0  3  0  0  0  0  0  0
  -26.9490  -26.6860   20.0970 C   0  0  0  0  0  3  0  0  0  0  0  0
  -25.7690  -27.4490   19.9300 C   0  0  0  0  0  3  0  0  0  0  0  0
  -24.3850  -29.5630   20.3670 C   0  0  0  0  0  2  0  0  0  0  0  0
  -25.1750  -30.9590   22.3210 N   0  0  0  0  0  0  0  0  0  0  0  0
  -23.8120  -32.0570   23.7790 O   0  0  0  0  0  0  0  0  0  0  0  0
  -23.2780  -29.2900   22.6180 C   0  0  0  0  0  0  0  0  0  0  0  0
  -21.9670  -29.0790   22.4020 N   0  0  0  0  0  0  0  0  0  0  0  0
  -23.9050  -28.6990   23.5010 O   0  0  0  0  0  0  0  0  0  0  0  0
  -21.5200  -29.6010   21.6620 H   0  0  0  0  0  0  0  0  0  0  0  0
  -18.5640  -27.9050   22.7940 C   0  0  0  0  0  0  0  0  0  0  0  0
  -21.1170  -28.1390   23.1340 C   0  0  0  0  0  3  0  0  0  0  0  0
  -21.2220  -26.7150   22.5400 C   0  0  0  0  0  2  0  0  0  0  0  0
  -20.1450  -26.4190   21.4910 C   0  0  0  0  0  2  0  0  0  0  0  0
  -18.7480  -26.5650   22.1030 C   0  0  0  0  0  2  0  0  0  0  0  0
  -19.6780  -28.6510   23.2660 C   0  0  0  0  0  0  0  0  0  0  0  0
  -19.4520  -29.9040   23.8770 C   0  0  0  0  0  3  0  0  0  0  0  0
  -18.1470  -30.4110   24.0200 C   0  0  0  0  0  3  0  0  0  0  0  0
  -17.0480  -29.6630   23.5620 C   0  0  0  0  0  3  0  0  0  0  0  0
  -17.2580  -28.4110   22.9550 C   0  0  0  0  0  3  0  0  0  0  0  0
  -26.1360  -32.5370   24.0910 C   0  0  0  0  0  3  0  0  0  0  0  0
  -26.5510  -31.8450   25.4470 C   0  0  1  0  0  0  0  0  0  0  0  0
  -25.3580  -31.5350   26.3810 C   0  0  0  0  0  1  0  0  0  0  0  0
  -27.2970  -30.5180   25.1820 C   0  0  0  0  0  1  0  0  0  0  0  0
  -27.5380  -32.7560   26.2180 C   0  0  0  0  0  1  0  0  0  0  0  0
  -25.7240  -33.9290   24.3340 N   0  0  0  0  0  0  0  0  0  0  0  0
  -26.0360  -34.9670   23.5460 C   0  0  0  0  0  0  0  0  0  0  0  0
  -26.7700  -34.8600   22.5610 O   0  0  0  0  0  0  0  0  0  0  0  0
  -25.0780  -34.0820   25.0950 H   0  0  0  0  0  0  0  0  0  0  0  0
  -24.2190  -36.6300   23.0300 C   0  0  0  0  0  1  0  0  0  0  0  0
  -25.4460  -36.3440   23.9130 C   0  0  0  0  0  3  0  0  0  0  0  0
  -27.4800  -37.4080   24.7860 C   0  0  0  0  0  1  0  0  0  0  0  0
  -26.4150  -37.4560   23.7870 N   0  0  0  0  0  0  0  0  0  0  0  0
  -25.9450  -38.3550   23.8660 H   0  0  0  0  0  0  0  0  0  0  0  0
  -27.7240  -17.4110   20.2290 C   0  0  0  0  0  2  0  0  0  0  0  0
  -26.3460  -18.0630   19.8830 C   0  0  0  0  0  2  0  0  0  0  0  0
  -27.0890  -20.1560   18.4560 C   0  0  0  0  0  1  0  0  0  0  0  0
  -24.7320  -19.3300   18.3690 C   0  0  0  0  0  1  0  0  0  0  0  0
  -26.1980  -18.9090   18.5790 C   0  0  0  0  0  3  0  0  0  0  0  0
  -30.7290  -16.6110   19.3470 C   0  0  0  0  0  3  0  0  0  0  0  0
  -31.4840  -15.1990   19.9010 C   0  0  0  0  0  0  0  0  0  0  0  0
  -31.3180  -12.7890   19.1120 C   0  0  0  0  0  2  0  0  0  0  0  0
  -30.3720  -12.6840   17.8920 C   0  0  0  0  0  2  0  0  0  0  0  0
  -28.9050  -12.5260   18.3400 C   0  0  0  0  0  2  0  0  0  0  0  0
  -28.5210  -13.5110   19.4720 C   0  0  0  0  0  3  0  0  0  0  0  0
  -29.5910  -13.5850   20.5790 C   0  0  0  0  0  2  0  0  0  0  0  0
  -30.8680  -13.9410   19.9480 N   0  0  0  0  0  0  0  0  0  0  0  0
  -32.7180  -15.1680   19.8230 O   0  0  0  0  0  0  0  0  0  0  0  0
  -26.1900  -14.1800   20.2700 C   0  0  0  0  0  0  0  0  0  0  0  0
  -25.1020  -13.4600   20.6760 C   0  0  0  0  0  0  0  0  0  0  0  0
  -25.5070  -12.0910   20.6280 C   0  0  0  0  0  0  0  0  0  0  0  0
  -27.1870  -13.2610   20.0050 N   0  0  0  0  0  0  0  0  0  0  0  0
  -26.7880  -11.9950   20.2890 N   0  0  0  0  0  0  0  0  0  0  0  0
  -24.7240  -10.8660   20.8200 C   0  0  0  0  0  0  0  0  0  0  0  0
  -25.0920   -9.9000   21.7810 C   0  0  0  0  0  3  0  0  0  0  0  0
  -24.3130   -8.7380   21.9580 C   0  0  0  0  0  3  0  0  0  0  0  0
  -23.1530   -8.5330   21.1760 C   0  0  0  0  0  0  0  0  0  0  0  0
  -22.8050   -9.4870   20.2030 C   0  0  0  0  0  3  0  0  0  0  0  0
  -23.5840  -10.6420   20.0240 C   0  0  0  0  0  3  0  0  0  0  0  0
  -22.3500   -7.4220   21.2640 O   0  0  0  0  0  0  0  0  0  0  0  0
  -22.1060   -6.8050   22.4640 C   0  0  0  0  0  0  0  0  0  0  0  0
  -21.5080   -7.4880   23.5460 C   0  0  0  0  0  3  0  0  0  0  0  0
  -21.2140   -6.7970   24.7390 C   0  0  0  0  0  3  0  0  0  0  0  0
  -21.5050   -5.4250   24.8490 C   0  0  0  0  0  0  0  0  0  0  0  0
  -22.0970   -4.7420   23.7710 C   0  0  0  0  0  3  0  0  0  0  0  0
  -22.3940   -5.4300   22.5820 C   0  0  0  0  0  0  0  0  0  0  0  0
  -22.9440   -4.7640   21.5380 F   0  0  0  0  0  0  0  0  0  0  0  0
  -21.2150   -4.7580   25.9900 F   0  0  0  0  0  0  0  0  0  0  0  0
  -23.7360  -14.0070   20.9690 C   0  0  0  0  0  0  0  0  0  0  0  0
  -23.0040  -13.3720   21.8780 N   0  0  0  0  0  0  0  0  0  0  0  0
  -23.3270  -15.0320   20.4270 O   0  0  0  0  0  0  0  0  0  0  0  0
  -23.3470  -12.5450   22.3420 H   0  0  0  0  0  0  0  0  0  0  0  0
  -22.0870  -13.7240   22.1140 H   0  0  0  0  0  0  0  0  0  0  0  0
  -26.3950  -15.5310   20.0610 N   0  0  0  0  0  0  0  0  0  0  0  0
  -25.6030  -16.1600   20.1210 H   0  0  0  0  0  0  0  0  0  0  0  0
  -27.1510  -15.9020   19.5060 H   0  0  0  0  0  0  0  0  0  0  0  0
  -31.5830  -17.0440   18.1110 C   0  0  0  0  0  2  0  0  0  0  0  0
  -30.8340  -17.7420   17.0360 N   0  0  0  0  0  4  0  0  0  0  0  0
  -31.4840  -18.0480   16.3320 H   0  0  0  0  0  0  0  0  0  0  0  0
  -30.3460  -18.5590   17.3590 H   0  0  0  0  0  0  0  0  0  0  0  0
  -30.1800  -17.1320   16.5760 H   0  0  0  0  0  0  0  0  0  0  0  0
  2  1  2  0
  2  7  1  0
  3 56  1  0
  3  5  1  0
  3  4  1  0
  4  1  1  0
  5  2  1  0
  6  5  1  0
  8  7  1  0
  8  9  1  0
 10  9  1  0
 11 22  2  0
 12 10  1  0
 12 17  1  0
 13 21  1  0
 13 23  1  0
 14 16  1  0
 15 21  1  0
 16 17  2  0
 16 15  1  0
 18 12  2  0
 19 18  1  0
 19 14  2  0
 20 14  1  0
 20 13  1  0
 21 11  1  0
 23 25  2  0
 24 23  1  0
 26 24  1  0
 27 36  2  0
 27 32  1  0
 28 24  1  0
 28 32  1  0
 29 28  1  0
 30 31  1  0
 30 29  1  0
 31 27  1  0
 32 33  2  0
 33 34  1  0
 35 34  2  0
 36 35  1  0
 37 11  1  0
 37 42  1  0
 37 38  1  0
 38 41  1  1
 38 39  1  0
 40 38  1  0
 42 45  1  0
 43 47  1  0
 43 42  1  0
 44 43  2  0
 47 46  1  0
 49 50  1  0
 49 47  1  0
 49 48  1  0
 51  4  1  0
 52 51  1  0
 53 55  1  0
 54 55  1  0
 55 52  1  0
 56 93  1  0
 56 57  1  0
 57 63  1  0
 58 63  1  0
 59 60  1  0
 59 58  1  0
 61 60  1  0
 61 68  1  0
 61 62  1  0
 63 62  1  0
 64 57  2  0
 65 66  2  0
 66 85  1  0
 67 66  1  0
 67 70  1  0
 68 65  1  0
 68 69  1  0
 69 67  2  0
 70 71  1  0
 71 72  2  0
 73 76  1  0
 73 72  1  0
 74 73  2  0
 75 74  1  0
 75 70  2  0
 76 77  1  0
 77 82  2  0
 77 78  1  0
 78 79  2  0
 79 80  1  0
 80 84  1  0
 81 80  2  0
 82 81  1  0
 83 82  1  0
 85 86  1  0
 86 89  1  0
 86 88  1  0
 87 85  2  0
 90 91  1  0
 90 65  1  0
 92 90  1  0
 94 96  1  0
 94 93  1  0
 95 94  1  0
 97 94  1  0
M  ISO  4   9 101  10 101  56 100  57 100
M  END
>  <TORSDO>  (51) 
F 25

>  <SCORE>  (51) 
-10.974

>  <name>  (51) 
50

>  <ligand_id>  (51) 
50

>  <original_smiles>  (51) 
[H]c1c([H])c([H])c2c(c1[H])C([H])([H])C([H])([H])C([H])([H])C2([H])N([H])C(=O)C1([H])N(C(=O)C([H])(N([H])C(=O)C([H])(N([H])C([H])([H])[H])C([H])([H])[H])C(C([H])([H])[H])(C([H])([H])[H])C([H])([H])[H])C([H])([H])c2c([H])c(OC([H])([H])C([H])([H])C([H])([H])c3c([H])n(C([H])([H])C([H])([H])C([H])(C([H])([H])[H])C([H])([H])[H])c(C([H])(C(=O)N4C([H])([H])C([H])([H])C([H])([H])C([H])(n5nc(-c6c([H])c([H])c(Oc7c([H])c([H])c(F)c([H])c7F)c([H])c6[H])c(C(=O)N([H])[H])c5N([H])[H])C4([H])[H])C([H])([H])[N+]([H])([H])[H])[n+]3[H])c([H])c([H])c2C1([H])[H]

>  <smiles>  (51) 
[H]c1c([H])c([H])c2c(c1[H])C([H])([H])C([H])([H])C([H])([H])C2([H])N([H])C(=O)C1([H])N(C(=O)C([H])(N([H])C(=O)C([H])(N([H])C([H])([H])[H])C([H])([H])[H])C(C([H])([H])[H])(C([H])([H])[H])C([H])([H])[H])C([H])([H])c2c([H])c(OC([H])([H])C([H])([H])C([H])([H])c3c([H])n(C([H])([H])C([H])([H])C([H])(C([H])([H])[H])C([H])([H])[H])c(C([H])(C(=O)N4C([H])([H])C([H])([H])C([H])([H])C([H])(n5nc(-c6c([H])c([H])c(Oc7c([H])c([H])c(F)c([H])c7F)c([H])c6[H])c(C(=O)N([H])[H])c5N([H])[H])C4([H])[H])C([H])([H])[N+]([H])([H])[H])[n+]3[H])c([H])c([H])c2C1([H])[H]

$$$$
51:0:0
     RDKit          3D

 93101  0  0  1  0  0  0  0  0999 V2000
  -30.4910  -21.3090   18.8710 C   0  0  0  0  0  0  0  0  0  0  0  0
  -31.0720  -19.0740   19.2540 C   0  0  0  0  0  0  0  0  0  0  0  0
  -30.2320  -20.3690   20.8890 C   0  0  0  0  0  0  0  0  0  0  0  0
  -30.9820  -20.1260   18.3790 N   0  0  0  0  0  4  0  0  0  0  0  0
  -30.0930  -21.4560   20.1220 N   0  0  0  0  0  0  0  0  0  0  0  0
  -30.6760  -19.1710   20.5060 N   0  0  0  0  0  2  0  0  0  0  0  0
  -29.7430  -20.4540   22.3460 C   0  0  1  0  0  0  0  0  0  0  0  0
  -29.4760  -21.7110   22.7170 F   0  0  0  0  0  0  0  0  0  0  0  0
  -28.6310  -19.7280   22.4800 F   0  0  0  0  0  0  0  0  0  0  0  0
  -30.6630  -19.9650   23.1840 F   0  0  0  0  0  0  0  0  0  0  0  0
  -30.1570  -22.5560   17.9260 C   0  0  0  0  0  2  0  0  0  0  0  0
  -29.9190  -24.0630   18.5020 C   0  0  0  0  0  3  0  0  0  0  0  0
  -29.2510  -25.2030   17.5610 C   0  0  0  0  0  3  0  0  0  0  0  0
  -28.9860  -26.6090   18.0280 O   0  0  0  0  0  0  0  0  0  0  0  0
  -24.7740  -30.6690   22.3240 C   0  0  0  0  0  0  0  0  0  0  0  0
  -27.7150  -27.2010   18.2300 C   0  0  0  0  0  0  0  0  0  0  0  0
  -23.6210  -29.3320   20.5980 C   0  0  0  0  0  3  0  0  0  0  0  0
  -25.1190  -28.3190   18.7800 C   0  0  0  0  0  0  0  0  0  0  0  0
  -26.0260  -30.1450   20.2150 C   0  0  0  0  0  2  0  0  0  0  0  0
  -26.2570  -28.9220   19.3250 C   0  0  0  0  0  0  0  0  0  0  0  0
  -27.5490  -28.3740   19.0430 C   0  0  0  0  0  3  0  0  0  0  0  0
  -26.5350  -26.6520   17.6790 C   0  0  0  0  0  3  0  0  0  0  0  0
  -25.2590  -27.1890   17.9570 C   0  0  0  0  0  3  0  0  0  0  0  0
  -23.7670  -28.9280   19.1070 C   0  0  0  0  0  2  0  0  0  0  0  0
  -24.8280  -30.0650   21.1010 N   0  0  0  0  0  0  0  0  0  0  0  0
  -23.7380  -30.6550   23.0070 O   0  0  0  0  0  0  0  0  0  0  0  0
  -23.2720  -28.0770   21.4310 C   0  0  0  0  0  0  0  0  0  0  0  0
  -22.0040  -27.6370   21.3570 N   0  0  0  0  0  0  0  0  0  0  0  0
  -24.1340  -27.5080   22.1030 O   0  0  0  0  0  0  0  0  0  0  0  0
  -21.3560  -28.1600   20.7850 H   0  0  0  0  0  0  0  0  0  0  0  0
  -19.0060  -25.6660   21.8200 C   0  0  0  0  0  0  0  0  0  0  0  0
  -21.4640  -26.4460   22.0130 C   0  0  0  0  0  3  0  0  0  0  0  0
  -21.8260  -25.1680   21.2200 C   0  0  0  0  0  2  0  0  0  0  0  0
  -20.7420  -24.7530   20.2200 C   0  0  0  0  0  2  0  0  0  0  0  0
  -19.4150  -24.4950   20.9420 C   0  0  0  0  0  2  0  0  0  0  0  0
  -19.9660  -26.5920   22.3070 C   0  0  0  0  0  0  0  0  0  0  0  0
  -19.5270  -27.6840   23.0880 C   0  0  0  0  0  3  0  0  0  0  0  0
  -18.1630  -27.8530   23.3890 C   0  0  0  0  0  3  0  0  0  0  0  0
  -17.2200  -26.9230   22.9210 C   0  0  0  0  0  3  0  0  0  0  0  0
  -17.6420  -25.8300   22.1420 C   0  0  0  0  0  3  0  0  0  0  0  0
  -26.0030  -31.4260   22.9170 C   0  0  0  0  0  3  0  0  0  0  0  0
  -25.4950  -32.6030   23.6340 N   0  0  0  0  0  0  0  0  0  0  0  0
  -25.5260  -33.8570   23.1630 C   0  0  0  0  0  0  0  0  0  0  0  0
  -26.0530  -34.1570   22.0900 O   0  0  0  0  0  0  0  0  0  0  0  0
  -24.9920  -32.4280   24.4910 H   0  0  0  0  0  0  0  0  0  0  0  0
  -23.4740  -35.2870   23.4640 C   0  0  0  0  0  1  0  0  0  0  0  0
  -24.8660  -34.9520   24.0240 C   0  0  0  0  0  3  0  0  0  0  0  0
  -26.8940  -36.0240   24.9020 C   0  0  0  0  0  1  0  0  0  0  0  0
  -25.6680  -36.1900   24.1260 N   0  0  0  0  0  0  0  0  0  0  0  0
  -25.1230  -36.9330   24.5520 H   0  0  0  0  0  0  0  0  0  0  0  0
  -26.8820  -30.5310   23.8770 C   0  0  1  0  0  0  0  0  0  0  0  0
  -26.0630  -29.8010   24.9650 C   0  0  0  0  0  1  0  0  0  0  0  0
  -27.6520  -29.4590   23.0710 C   0  0  0  0  0  1  0  0  0  0  0  0
  -27.9450  -31.4070   24.5850 C   0  0  0  0  0  1  0  0  0  0  0  0
  -31.6470  -17.6340   18.8210 C   0  0  0  0  0  2  0  0  0  0  0  0
  -32.1430  -15.1460   19.2520 C   0  0  0  0  0  0  0  0  0  0  0  0
  -31.7300  -12.7820   18.5300 C   0  0  0  0  0  2  0  0  0  0  0  0
  -30.6000  -12.7400   17.4780 C   0  0  0  0  0  2  0  0  0  0  0  0
  -29.2260  -12.6410   18.1650 C   0  0  0  0  0  2  0  0  0  0  0  0
  -29.0620  -13.6550   19.3280 C   0  0  0  0  0  3  0  0  0  0  0  0
  -30.2970  -13.6720   20.2560 C   0  0  0  0  0  2  0  0  0  0  0  0
  -31.4790  -13.9450   19.4200 N   0  0  0  0  0  0  0  0  0  0  0  0
  -33.1670  -15.1720   18.5650 O   0  0  0  0  0  0  0  0  0  0  0  0
  -31.6530  -16.5640   21.1260 C   0  0  0  0  0  1  0  0  0  0  0  0
  -31.5710  -16.3440   19.6740 N   0  0  0  0  0  0  0  0  0  0  0  0
  -27.0430  -14.3510   20.7560 C   0  0  0  0  0  0  0  0  0  0  0  0
  -25.9470  -13.6620   21.1950 C   0  0  0  0  0  0  0  0  0  0  0  0
  -26.1140  -12.3170   20.7370 C   0  0  0  0  0  0  0  0  0  0  0  0
  -27.8210  -13.4350   20.0660 N   0  0  0  0  0  0  0  0  0  0  0  0
  -27.2780  -12.1890   20.1090 N   0  0  0  0  0  0  0  0  0  0  0  0
  -25.2070  -11.1630   20.8090 C   0  0  0  0  0  0  0  0  0  0  0  0
  -25.4640  -10.0710   21.6680 C   0  0  0  0  0  3  0  0  0  0  0  0
  -24.5630   -8.9870   21.7360 C   0  0  0  0  0  3  0  0  0  0  0  0
  -23.3890   -8.9870   20.9450 C   0  0  0  0  0  0  0  0  0  0  0  0
  -23.1510  -10.0640   20.0740 C   0  0  0  0  0  3  0  0  0  0  0  0
  -24.0520  -11.1410   20.0030 C   0  0  0  0  0  3  0  0  0  0  0  0
  -22.4720   -7.9640   20.9240 O   0  0  0  0  0  0  0  0  0  0  0  0
  -22.0060   -7.3920   22.0810 C   0  0  0  0  0  0  0  0  0  0  0  0
  -21.3380   -8.1490   23.0690 C   0  0  0  0  0  3  0  0  0  0  0  0
  -20.8150   -7.5100   24.2120 C   0  0  0  0  0  3  0  0  0  0  0  0
  -20.9490   -6.1170   24.3640 C   0  0  0  0  0  0  0  0  0  0  0  0
  -21.6080   -5.3620   23.3790 C   0  0  0  0  0  3  0  0  0  0  0  0
  -22.1320   -5.9970   22.2390 C   0  0  0  0  0  0  0  0  0  0  0  0
  -22.7470   -5.2610   21.2830 F   0  0  0  0  0  0  0  0  0  0  0  0
  -20.4400   -5.5020   25.4570 F   0  0  0  0  0  0  0  0  0  0  0  0
  -24.7610  -14.2350   21.9170 C   0  0  0  0  0  0  0  0  0  0  0  0
  -24.1550  -13.4620   22.8110 N   0  0  0  0  0  0  0  0  0  0  0  0
  -24.3950  -15.3940   21.7230 O   0  0  0  0  0  0  0  0  0  0  0  0
  -24.4720  -12.5190   22.9840 H   0  0  0  0  0  0  0  0  0  0  0  0
  -23.3670  -13.8180   23.3330 H   0  0  0  0  0  0  0  0  0  0  0  0
  -27.4380  -15.6810   20.8680 N   0  0  0  0  0  0  0  0  0  0  0  0
  -26.8710  -16.3770   21.3420 H   0  0  0  0  0  0  0  0  0  0  0  0
  -28.2980  -16.0590   20.4930 H   0  0  0  0  0  0  0  0  0  0  0  0
  1  5  1  0
  2  6  1  0
  3  7  1  0
  4  1  2  0
  4  2  2  0
  5  3  2  0
  6  3  1  0
  7  9  1  6
  7  8  1  0
  7 10  1  0
 11 12  1  0
 11  1  1  0
 13 14  1  0
 13 12  2  0
 14 16  1  0
 15 26  2  0
 16 21  1  0
 17 25  1  0
 17 27  1  0
 18 24  1  0
 18 20  1  0
 19 25  1  0
 20 19  1  0
 21 20  2  0
 22 23  1  0
 22 16  2  0
 23 18  2  0
 24 17  1  0
 25 15  1  0
 27 29  2  0
 28 27  1  0
 30 28  1  0
 31 40  2  0
 31 36  1  0
 32 28  1  0
 32 36  1  0
 33 32  1  0
 34 35  1  0
 34 33  1  0
 35 31  1  0
 36 37  2  0
 37 38  1  0
 39 38  2  0
 40 39  1  0
 41 15  1  0
 41 42  1  0
 41 51  1  0
 42 45  1  0
 43 42  1  0
 43 47  1  0
 44 43  2  0
 47 46  1  0
 47 49  1  0
 49 50  1  0
 49 48  1  0
 51 54  1  1
 51 52  1  0
 53 51  1  0
 55  2  1  0
 55 65  1  0
 56 62  1  0
 56 65  1  0
 57 62  1  0
 58 59  1  0
 58 57  1  0
 60 59  1  0
 60 69  1  0
 60 61  1  0
 62 61  1  0
 63 56  2  0
 65 64  1  0
 66 91  1  0
 66 67  2  0
 67 86  1  0
 68 71  1  0
 68 67  1  0
 69 70  1  0
 69 66  1  0
 70 68  2  0
 71 72  1  0
 72 73  2  0
 74 73  1  0
 75 74  2  0
 76 75  1  0
 76 71  2  0
 77 74  1  0
 77 78  1  0
 78 83  2  0
 78 79  1  0
 79 80  2  0
 80 81  1  0
 81 85  1  0
 82 81  2  0
 83 82  1  0
 84 83  1  0
 86 87  1  0
 87 89  1  0
 87 90  1  0
 88 86  2  0
 91 92  1  0
 93 91  1  0
M  ISO  4  13 101  14 101  56 100  65 100
M  END
>  <TORSDO>  (52) 
F 21

>  <SCORE>  (52) 
-3.723

>  <name>  (52) 
51

>  <ligand_id>  (52) 
51

>  <original_smiles>  (52) 
[H]c1c([H])c([H])c2c(c1[H])C([H])([H])C([H])([H])C([H])([H])C2([H])N([H])C(=O)C1([H])N(C(=O)C([H])(N([H])C(=O)C([H])(N([H])C([H])([H])[H])C([H])([H])[H])C(C([H])([H])[H])(C([H])([H])[H])C([H])([H])[H])C([H])([H])c2c([H])c(OC([H])([H])C([H])([H])C([H])([H])c3nc(C(F)(F)F)nc(C([H])([H])N(C(=O)N4C([H])([H])C([H])([H])C([H])([H])C([H])(n5nc(-c6c([H])c([H])c(Oc7c([H])c([H])c(F)c([H])c7F)c([H])c6[H])c(C(=O)N([H])[H])c5N([H])[H])C4([H])[H])C([H])([H])[H])n3)c([H])c([H])c2C1([H])[H]

>  <smiles>  (52) 
[H]c1c([H])c([H])c2c(c1[H])C([H])([H])C([H])([H])C([H])([H])C2([H])N([H])C(=O)C1([H])N(C(=O)C([H])(N([H])C(=O)C([H])(N([H])C([H])([H])[H])C([H])([H])[H])C(C([H])([H])[H])(C([H])([H])[H])C([H])([H])[H])C([H])([H])c2c([H])c(OC([H])([H])C([H])([H])C([H])([H])c3nc(C(F)(F)F)nc(C([H])([H])N(C(=O)N4C([H])([H])C([H])([H])C([H])([H])C([H])(n5nc(-c6c([H])c([H])c(Oc7c([H])c([H])c(F)c([H])c7F)c([H])c6[H])c(C(=O)N([H])[H])c5N([H])[H])C4([H])[H])C([H])([H])[H])n3)c([H])c([H])c2C1([H])[H]

$$$$
52:0:0
     RDKit          3D

 92100  0  0  1  0  0  0  0  0999 V2000
  -28.5880  -21.7880   19.4570 C   0  0  0  0  0  2  0  0  0  0  0  0
  -26.9990  -22.7150   21.0890 C   0  0  0  0  0  1  0  0  0  0  0  0
  -28.2970  -22.9190   20.3920 N   0  0  2  0  0  4  0  0  0  0  0  0
  -29.0000  -22.8680   21.1160 H   0  0  0  0  0  0  0  0  0  0  0  0
  -28.4160  -24.2690   19.7520 C   0  0  0  0  0  2  0  0  0  0  0  0
  -28.4000  -25.4580   20.7500 C   0  0  0  0  0  2  0  0  0  0  0  0
  -28.4520  -26.7410   20.1060 O   0  0  0  0  0  0  0  0  0  0  0  0
  -24.6350  -31.8850   23.2270 C   0  0  0  0  0  0  0  0  0  0  0  0
  -27.2760  -27.4600   20.1220 C   0  0  0  0  0  0  0  0  0  0  0  0
  -23.4220  -30.4810   21.5920 C   0  0  0  0  0  3  0  0  0  0  0  0
  -24.8710  -28.9440   20.1640 C   0  0  0  0  0  0  0  0  0  0  0  0
  -25.9440  -30.8480   21.3780 C   0  0  0  0  0  2  0  0  0  0  0  0
  -26.0320  -29.4770   20.7390 C   0  0  0  0  0  0  0  0  0  0  0  0
  -27.2400  -28.7440   20.7080 C   0  0  0  0  0  3  0  0  0  0  0  0
  -26.0990  -26.9370   19.5450 C   0  0  0  0  0  3  0  0  0  0  0  0
  -24.8980  -27.6730   19.5650 C   0  0  0  0  0  3  0  0  0  0  0  0
  -23.6220  -29.7950   20.2150 C   0  0  0  0  0  2  0  0  0  0  0  0
  -24.6850  -31.0840   22.1260 N   0  0  0  0  0  0  0  0  0  0  0  0
  -23.5560  -32.1550   23.7720 O   0  0  0  0  0  0  0  0  0  0  0  0
  -22.7770  -29.4600   22.5580 C   0  0  0  0  0  0  0  0  0  0  0  0
  -21.4520  -29.2770   22.4380 N   0  0  0  0  0  0  0  0  0  0  0  0
  -23.4660  -28.8340   23.3660 O   0  0  0  0  0  0  0  0  0  0  0  0
  -20.9550  -29.8340   21.7570 H   0  0  0  0  0  0  0  0  0  0  0  0
  -18.0870  -28.0730   22.9510 C   0  0  0  0  0  0  0  0  0  0  0  0
  -20.6450  -28.3370   23.2130 C   0  0  0  0  0  3  0  0  0  0  0  0
  -20.7480  -26.9060   22.6370 C   0  0  0  0  0  2  0  0  0  0  0  0
  -19.6430  -26.5790   21.6280 C   0  0  0  0  0  2  0  0  0  0  0  0
  -18.2630  -26.7230   22.2770 C   0  0  0  0  0  2  0  0  0  0  0  0
  -19.2050  -28.8360   23.3770 C   0  0  0  0  0  0  0  0  0  0  0  0
  -18.9870  -30.1000   23.9700 C   0  0  0  0  0  3  0  0  0  0  0  0
  -17.6830  -30.6020   24.1370 C   0  0  0  0  0  3  0  0  0  0  0  0
  -16.5780  -29.8340   23.7290 C   0  0  0  0  0  3  0  0  0  0  0  0
  -16.7810  -28.5720   23.1430 C   0  0  0  0  0  3  0  0  0  0  0  0
  -25.9220  -32.5180   23.8410 C   0  0  0  0  0  3  0  0  0  0  0  0
  -25.6120  -33.9110   24.1860 N   0  0  0  0  0  0  0  0  0  0  0  0
  -25.9280  -34.9700   23.4290 C   0  0  0  0  0  0  0  0  0  0  0  0
  -26.5860  -34.8750   22.3880 O   0  0  0  0  0  0  0  0  0  0  0  0
  -25.0260  -34.0590   24.9950 H   0  0  0  0  0  0  0  0  0  0  0  0
  -24.1830  -36.7510   23.1080 C   0  0  0  0  0  1  0  0  0  0  0  0
  -25.4390  -36.3530   23.9000 C   0  0  0  0  0  3  0  0  0  0  0  0
  -27.5820  -37.2460   24.6980 C   0  0  0  0  0  1  0  0  0  0  0  0
  -26.4630  -37.4120   23.7740 N   0  0  0  0  0  0  0  0  0  0  0  0
  -26.0540  -38.3300   23.9320 H   0  0  0  0  0  0  0  0  0  0  0  0
  -26.4560  -31.7370   25.1030 C   0  0  1  0  0  0  0  0  0  0  0  0
  -25.3760  -31.4830   26.1800 C   0  0  0  0  0  1  0  0  0  0  0  0
  -27.0430  -30.3680   24.6880 C   0  0  0  0  0  1  0  0  0  0  0  0
  -27.6140  -32.5300   25.7570 C   0  0  0  0  0  1  0  0  0  0  0  0
  -30.0300  -21.2440   19.5740 C   0  0  0  0  0  2  0  0  0  0  0  0
  -30.3160  -20.3840   20.8290 C   0  0  0  0  0  2  0  0  0  0  0  0
  -30.8200  -17.8480   21.0680 C   0  0  0  0  0  3  0  0  0  0  0  0
  -28.8570  -17.0990   20.5460 C   0  0  0  0  0  3  0  0  0  0  0  0
  -30.0120  -18.9080   20.7170 C   0  0  0  0  0  0  0  0  0  0  0  0
  -28.7520  -18.4160   20.3760 N   0  0  0  0  0  0  0  0  0  0  0  0
  -30.0480  -16.6840   21.0070 N   0  0  0  0  0  0  0  0  0  0  0  0
  -31.6270  -15.3040   22.3540 C   0  0  0  0  0  1  0  0  0  0  0  0
  -30.4110  -15.3130   21.4060 C   0  0  0  0  0  3  0  0  0  0  0  0
  -30.6770  -14.3650   20.2040 C   0  0  0  0  0  0  0  0  0  0  0  0
  -30.2110  -12.3330   18.8610 C   0  0  0  0  0  2  0  0  0  0  0  0
  -29.2010  -12.6110   17.7310 C   0  0  0  0  0  2  0  0  0  0  0  0
  -27.7570  -12.4570   18.2410 C   0  0  0  0  0  2  0  0  0  0  0  0
  -27.5120  -13.2360   19.5590 C   0  0  0  0  0  3  0  0  0  0  0  0
  -28.6210  -12.9200   20.5880 C   0  0  0  0  0  2  0  0  0  0  0  0
  -29.9200  -13.2510   19.9780 N   0  0  0  0  0  0  0  0  0  0  0  0
  -31.6470  -14.6340   19.4870 O   0  0  0  0  0  0  0  0  0  0  0  0
  -25.1540  -13.8510   20.3940 C   0  0  0  0  0  0  0  0  0  0  0  0
  -24.1050  -13.0810   20.8180 C   0  0  0  0  0  0  0  0  0  0  0  0
  -24.5580  -11.7280   20.7520 C   0  0  0  0  0  0  0  0  0  0  0  0
  -26.1820  -12.9670   20.1030 N   0  0  0  0  0  0  0  0  0  0  0  0
  -25.8280  -11.6850   20.3730 N   0  0  0  0  0  0  0  0  0  0  0  0
  -23.8350  -10.4690   20.9700 C   0  0  0  0  0  0  0  0  0  0  0  0
  -24.3040   -9.5000   21.8840 C   0  0  0  0  0  3  0  0  0  0  0  0
  -23.5830   -8.3030   22.0900 C   0  0  0  0  0  3  0  0  0  0  0  0
  -22.3800   -8.0700   21.3820 C   0  0  0  0  0  0  0  0  0  0  0  0
  -21.9300   -9.0270   20.4570 C   0  0  0  0  0  3  0  0  0  0  0  0
  -22.6520  -10.2160   20.2490 C   0  0  0  0  0  3  0  0  0  0  0  0
  -21.6260   -6.9270   21.4990 O   0  0  0  0  0  0  0  0  0  0  0  0
  -21.6150   -6.1870   22.6540 C   0  0  0  0  0  0  0  0  0  0  0  0
  -21.2510   -6.7510   23.8970 C   0  0  0  0  0  3  0  0  0  0  0  0
  -21.1860   -5.9380   25.0460 C   0  0  0  0  0  3  0  0  0  0  0  0
  -21.4740   -4.5630   24.9550 C   0  0  0  0  0  0  0  0  0  0  0  0
  -21.8300   -3.9990   23.7180 C   0  0  0  0  0  3  0  0  0  0  0  0
  -21.8980   -4.8080   22.5700 C   0  0  0  0  0  0  0  0  0  0  0  0
  -22.2220   -4.2560   21.3760 F   0  0  0  0  0  0  0  0  0  0  0  0
  -21.4030   -3.7810   26.0570 F   0  0  0  0  0  0  0  0  0  0  0  0
  -22.7270  -13.5640   21.1670 C   0  0  0  0  0  0  0  0  0  0  0  0
  -22.0430  -12.8670   22.0690 N   0  0  0  0  0  0  0  0  0  0  0  0
  -22.2660  -14.5930   20.6750 O   0  0  0  0  0  0  0  0  0  0  0  0
  -22.4290  -12.0340   22.4880 H   0  0  0  0  0  0  0  0  0  0  0  0
  -21.1200  -13.1720   22.3440 H   0  0  0  0  0  0  0  0  0  0  0  0
  -25.3080  -15.2220   20.2090 N   0  0  0  0  0  0  0  0  0  0  0  0
  -24.5250  -15.8560   20.3250 H   0  0  0  0  0  0  0  0  0  0  0  0
  -26.0880  -15.6460   19.7260 H   0  0  0  0  0  0  0  0  0  0  0  0
  1 48  1  0
  1  3  1  0
  3  2  1  0
  3  4  1  1
  5  3  1  0
  5  6  1  0
  7  9  1  0
  7  6  1  0
  8 19  2  0
  9 14  1  0
 10 18  1  0
 10 20  1  0
 11 17  1  0
 11 13  1  0
 12 18  1  0
 13 12  1  0
 14 13  2  0
 15 16  1  0
 15  9  2  0
 16 11  2  0
 17 10  1  0
 18  8  1  0
 20 22  2  0
 21 20  1  0
 23 21  1  0
 24 33  2  0
 24 29  1  0
 25 21  1  0
 25 29  1  0
 26 25  1  0
 27 28  1  0
 27 26  1  0
 28 24  1  0
 29 30  2  0
 30 31  1  0
 32 31  2  0
 33 32  1  0
 34  8  1  0
 34 35  1  0
 34 44  1  0
 35 38  1  0
 36 40  1  0
 36 35  1  0
 37 36  2  0
 40 39  1  0
 42 40  1  0
 42 43  1  0
 42 41  1  0
 44 47  1  1
 44 45  1  0
 46 44  1  0
 48 49  1  0
 51 54  1  0
 52 49  1  0
 52 50  2  0
 53 51  2  0
 53 52  1  0
 54 50  1  0
 54 56  1  0
 56 55  1  0
 57 56  1  0
 58 63  1  0
 59 60  1  0
 59 58  1  0
 61 60  1  0
 61 68  1  0
 61 62  1  0
 63 57  1  0
 63 62  1  0
 64 57  2  0
 65 66  2  0
 66 85  1  0
 67 66  1  0
 67 70  1  0
 68 69  1  0
 68 65  1  0
 69 67  2  0
 70 71  1  0
 71 72  2  0
 73 76  1  0
 73 72  1  0
 74 73  2  0
 75 74  1  0
 75 70  2  0
 76 77  1  0
 77 78  1  0
 78 79  2  0
 80 79  1  0
 80 84  1  0
 81 80  2  0
 82 77  2  0
 82 81  1  0
 83 82  1  0
 85 86  1  0
 86 89  1  0
 86 88  1  0
 87 85  2  0
 90 91  1  0
 90 65  1  0
 92 90  1  0
M  ISO  4   6 101   7 101  56 100  57 100
M  END
>  <TORSDO>  (53) 
F 23

>  <SCORE>  (53) 
-11.922

>  <name>  (53) 
52

>  <ligand_id>  (53) 
52

>  <original_smiles>  (53) 
[H]c1c([H])c([H])c2c(c1[H])C([H])([H])C([H])([H])C([H])([H])C2([H])N([H])C(=O)C1([H])N(C(=O)C([H])(N([H])C(=O)C([H])(N([H])C([H])([H])[H])C([H])([H])[H])C(C([H])([H])[H])(C([H])([H])[H])C([H])([H])[H])C([H])([H])c2c([H])c(OC([H])([H])C([H])([H])[N+]([H])(C([H])([H])[H])C([H])([H])C([H])([H])C([H])([H])c3nc([H])n(C([H])(C(=O)N4C([H])([H])C([H])([H])C([H])([H])C([H])(n5nc(-c6c([H])c([H])c(Oc7c([H])c([H])c(F)c([H])c7F)c([H])c6[H])c(C(=O)N([H])[H])c5N([H])[H])C4([H])[H])C([H])([H])[H])c3[H])c([H])c([H])c2C1([H])[H]

>  <smiles>  (53) 
[H]c1c([H])c([H])c2c(c1[H])C([H])([H])C([H])([H])C([H])([H])C2([H])N([H])C(=O)C1([H])N(C(=O)C([H])(N([H])C(=O)C([H])(N([H])C([H])([H])[H])C([H])([H])[H])C(C([H])([H])[H])(C([H])([H])[H])C([H])([H])[H])C([H])([H])c2c([H])c(OC([H])([H])C([H])([H])[N+]([H])(C([H])([H])[H])C([H])([H])C([H])([H])C([H])([H])c3nc([H])n(C([H])(C(=O)N4C([H])([H])C([H])([H])C([H])([H])C([H])(n5nc(-c6c([H])c([H])c(Oc7c([H])c([H])c(F)c([H])c7F)c([H])c6[H])c(C(=O)N([H])[H])c5N([H])[H])C4([H])[H])C([H])([H])[H])c3[H])c([H])c([H])c2C1([H])[H]

$$$$
53:0:0
     RDKit          3D

 93101  0  0  1  0  0  0  0  0999 V2000
  -27.4330  -21.9300   20.5110 C   0  0  0  0  0  1  0  0  0  0  0  0
  -28.7660  -22.3030   19.8260 C   0  0  2  0  0  0  0  0  0  0  0  0
  -28.6240  -22.0870   18.2910 C   0  0  1  0  0  0  0  0  0  0  0  0
  -27.7050  -22.8990   17.7720 F   0  0  0  0  0  0  0  0  0  0  0  0
  -29.7820  -22.3350   17.6790 F   0  0  0  0  0  0  0  0  0  0  0  0
  -28.2350  -20.8480   17.9950 F   0  0  0  0  0  0  0  0  0  0  0  0
  -29.8880  -21.2920   20.4000 C   0  0  0  0  0  2  0  0  0  0  0  0
  -29.7160  -18.6320   20.9190 C   0  0  0  0  0  3  0  0  0  0  0  0
  -30.5620  -17.8790   19.0890 C   0  0  0  0  0  3  0  0  0  0  0  0
  -29.9510  -19.7430   20.0990 C   0  0  0  0  0  0  0  0  0  0  0  0
  -30.5060  -19.2130   18.9260 N   0  0  0  0  0  0  0  0  0  0  0  0
  -30.1450  -17.4280   20.2860 N   0  0  0  0  0  0  0  0  0  0  0  0
  -30.5520  -15.9900   22.2860 C   0  0  0  0  0  1  0  0  0  0  0  0
  -30.0560  -16.0070   20.8260 C   0  0  0  0  0  3  0  0  0  0  0  0
  -30.7300  -14.7760   20.0540 C   0  0  0  0  0  0  0  0  0  0  0  0
  -30.4250  -12.5840   18.8760 C   0  0  0  0  0  2  0  0  0  0  0  0
  -29.4020  -12.7520   17.7310 C   0  0  0  0  0  2  0  0  0  0  0  0
  -27.9590  -12.5870   18.2490 C   0  0  0  0  0  2  0  0  0  0  0  0
  -27.6930  -13.4110   19.5370 C   0  0  0  0  0  3  0  0  0  0  0  0
  -28.8190  -13.1940   20.5730 C   0  0  0  0  0  2  0  0  0  0  0  0
  -30.0890  -13.5640   19.9300 N   0  0  0  0  0  0  0  0  0  0  0  0
  -31.8330  -14.9380   19.5200 O   0  0  0  0  0  0  0  0  0  0  0  0
  -25.3600  -14.0240   20.4210 C   0  0  0  0  0  0  0  0  0  0  0  0
  -24.3050  -13.2560   20.8320 C   0  0  0  0  0  0  0  0  0  0  0  0
  -24.7400  -11.9000   20.7310 C   0  0  0  0  0  0  0  0  0  0  0  0
  -26.3730  -13.1350   20.0960 N   0  0  0  0  0  0  0  0  0  0  0  0
  -26.0090  -11.8510   20.3410 N   0  0  0  0  0  0  0  0  0  0  0  0
  -24.0040  -10.6430   20.9270 C   0  0  0  0  0  0  0  0  0  0  0  0
  -24.4680   -9.6460   21.8130 C   0  0  0  0  0  3  0  0  0  0  0  0
  -23.7340   -8.4550   21.9980 C   0  0  0  0  0  3  0  0  0  0  0  0
  -22.5210   -8.2530   21.2970 C   0  0  0  0  0  0  0  0  0  0  0  0
  -22.0760   -9.2390   20.3990 C   0  0  0  0  0  3  0  0  0  0  0  0
  -22.8110  -10.4210   20.2120 C   0  0  0  0  0  3  0  0  0  0  0  0
  -21.7540   -7.1170   21.3940 O   0  0  0  0  0  0  0  0  0  0  0  0
  -21.7330   -6.3590   22.5370 C   0  0  0  0  0  0  0  0  0  0  0  0
  -21.3790   -6.9070   23.7900 C   0  0  0  0  0  3  0  0  0  0  0  0
  -21.3030   -6.0760   24.9260 C   0  0  0  0  0  3  0  0  0  0  0  0
  -21.5700   -4.7000   24.8110 C   0  0  0  0  0  0  0  0  0  0  0  0
  -21.9180   -4.1510   23.5640 C   0  0  0  0  0  3  0  0  0  0  0  0
  -21.9960   -4.9780   22.4300 C   0  0  0  0  0  0  0  0  0  0  0  0
  -22.3110   -4.4400   21.2270 F   0  0  0  0  0  0  0  0  0  0  0  0
  -21.4900   -3.9000   25.9000 F   0  0  0  0  0  0  0  0  0  0  0  0
  -22.9350  -13.7460   21.2050 C   0  0  0  0  0  0  0  0  0  0  0  0
  -22.2550  -13.0410   22.1030 N   0  0  0  0  0  0  0  0  0  0  0  0
  -22.4790  -14.7890   20.7370 O   0  0  0  0  0  0  0  0  0  0  0  0
  -22.6380  -12.1970   22.5020 H   0  0  0  0  0  0  0  0  0  0  0  0
  -21.3400  -13.3510   22.3970 H   0  0  0  0  0  0  0  0  0  0  0  0
  -25.5370  -15.3970   20.2770 N   0  0  0  0  0  0  0  0  0  0  0  0
  -24.7900  -16.0580   20.4560 H   0  0  0  0  0  0  0  0  0  0  0  0
  -26.3710  -15.8350   19.9080 H   0  0  0  0  0  0  0  0  0  0  0  0
  -29.0780  -23.8750   20.1350 C   0  0  0  0  0  3  0  0  0  0  0  0
  -28.0040  -25.0250   19.7910 C   0  0  0  0  0  3  0  0  0  0  0  0
  -28.2350  -26.4750   20.0650 O   0  0  0  0  0  0  0  0  0  0  0  0
  -24.5750  -31.9100   23.1530 C   0  0  0  0  0  0  0  0  0  0  0  0
  -27.1240  -27.3480   20.0260 C   0  0  0  0  0  0  0  0  0  0  0  0
  -23.3390  -30.5150   21.5370 C   0  0  0  0  0  3  0  0  0  0  0  0
  -24.7600  -28.9750   20.0730 C   0  0  0  0  0  0  0  0  0  0  0  0
  -25.8760  -30.8310   21.3040 C   0  0  0  0  0  2  0  0  0  0  0  0
  -25.9440  -29.4550   20.6480 C   0  0  0  0  0  0  0  0  0  0  0  0
  -27.1270  -28.6530   20.6170 C   0  0  0  0  0  3  0  0  0  0  0  0
  -25.9150  -26.9350   19.4170 C   0  0  0  0  0  3  0  0  0  0  0  0
  -24.7490  -27.7210   19.4480 C   0  0  0  0  0  3  0  0  0  0  0  0
  -23.5240  -29.8470   20.1500 C   0  0  0  0  0  2  0  0  0  0  0  0
  -24.6170  -31.1030   22.0540 N   0  0  0  0  0  0  0  0  0  0  0  0
  -23.5020  -32.1860   23.7110 O   0  0  0  0  0  0  0  0  0  0  0  0
  -22.6970  -29.4950   22.5070 C   0  0  0  0  0  0  0  0  0  0  0  0
  -21.3710  -29.3070   22.4000 N   0  0  0  0  0  0  0  0  0  0  0  0
  -23.3920  -28.8740   23.3160 O   0  0  0  0  0  0  0  0  0  0  0  0
  -20.8690  -29.8590   21.7180 H   0  0  0  0  0  0  0  0  0  0  0  0
  -18.0130  -28.0680   22.9290 C   0  0  0  0  0  0  0  0  0  0  0  0
  -20.5690  -28.3660   23.1840 C   0  0  0  0  0  3  0  0  0  0  0  0
  -20.6880  -26.9300   22.6230 C   0  0  0  0  0  2  0  0  0  0  0  0
  -19.5860  -26.5810   21.6190 C   0  0  0  0  0  2  0  0  0  0  0  0
  -18.2060  -26.7140   22.2670 C   0  0  0  0  0  2  0  0  0  0  0  0
  -19.1230  -28.8510   23.3450 C   0  0  0  0  0  0  0  0  0  0  0  0
  -18.8890  -30.1160   23.9250 C   0  0  0  0  0  3  0  0  0  0  0  0
  -17.5770  -30.6000   24.0930 C   0  0  0  0  0  3  0  0  0  0  0  0
  -16.4820  -29.8140   23.6940 C   0  0  0  0  0  3  0  0  0  0  0  0
  -16.7010  -28.5510   23.1170 C   0  0  0  0  0  3  0  0  0  0  0  0
  -25.8690  -32.5440   23.7490 C   0  0  0  0  0  3  0  0  0  0  0  0
  -25.5610  -33.9370   24.1020 N   0  0  0  0  0  0  0  0  0  0  0  0
  -25.8650  -35.0000   23.3450 C   0  0  0  0  0  0  0  0  0  0  0  0
  -26.5040  -34.9110   22.2940 O   0  0  0  0  0  0  0  0  0  0  0  0
  -24.9890  -34.0790   24.9220 H   0  0  0  0  0  0  0  0  0  0  0  0
  -24.1120  -36.7830   23.0670 C   0  0  0  0  0  1  0  0  0  0  0  0
  -25.3830  -36.3810   23.8310 C   0  0  0  0  0  3  0  0  0  0  0  0
  -27.5390  -37.2720   24.5950 C   0  0  0  0  0  1  0  0  0  0  0  0
  -26.4030  -37.4420   23.6930 N   0  0  0  0  0  0  0  0  0  0  0  0
  -25.9960  -38.3580   23.8660 H   0  0  0  0  0  0  0  0  0  0  0  0
  -26.4200  -31.7630   25.0060 C   0  0  1  0  0  0  0  0  0  0  0  0
  -25.3540  -31.5130   26.0990 C   0  0  0  0  0  1  0  0  0  0  0  0
  -26.9980  -30.3910   24.5890 C   0  0  0  0  0  1  0  0  0  0  0  0
  -27.5840  -32.5560   25.6460 C   0  0  0  0  0  1  0  0  0  0  0  0
  2 51  1  0
  2  7  1  0
  2  1  1  1
  3  2  1  0
  3  4  1  6
  5  3  1  0
  6  3  1  0
  9 12  1  0
 10  7  1  0
 10  8  2  0
 11  9  2  0
 11 10  1  0
 12 14  1  0
 12  8  1  0
 14 13  1  0
 15 14  1  0
 16 21  1  0
 17 18  1  0
 17 16  1  0
 19 18  1  0
 19 26  1  0
 19 20  1  0
 21 15  1  0
 21 20  1  0
 22 15  2  0
 23 24  2  0
 24 43  1  0
 25 24  1  0
 25 28  1  0
 26 27  1  0
 26 23  1  0
 27 25  2  0
 28 29  1  0
 29 30  2  0
 31 34  1  0
 31 30  1  0
 32 31  2  0
 33 32  1  0
 33 28  2  0
 34 35  1  0
 35 36  1  0
 36 37  2  0
 38 37  1  0
 38 42  1  0
 39 38  2  0
 40 35  2  0
 40 39  1  0
 41 40  1  0
 43 44  1  0
 44 47  1  0
 44 46  1  0
 45 43  2  0
 48 23  1  0
 48 49  1  0
 50 48  1  0
 52 53  1  0
 52 51  2  0
 54 65  2  0
 55 53  1  0
 55 60  1  0
 56 64  1  0
 56 66  1  0
 57 63  1  0
 57 59  1  0
 58 64  1  0
 59 58  1  0
 60 59  2  0
 61 62  1  0
 61 55  2  0
 62 57  2  0
 63 56  1  0
 64 54  1  0
 66 68  2  0
 67 66  1  0
 69 67  1  0
 70 79  2  0
 70 75  1  0
 71 67  1  0
 71 75  1  0
 72 71  1  0
 73 74  1  0
 73 72  1  0
 74 70  1  0
 75 76  2  0
 76 77  1  0
 78 77  2  0
 79 78  1  0
 80 54  1  0
 80 81  1  0
 80 90  1  0
 81 84  1  0
 82 86  1  0
 82 81  1  0
 83 82  2  0
 86 85  1  0
 88 86  1  0
 88 89  1  0
 88 87  1  0
 90 93  1  1
 90 91  1  0
 92 90  1  0
M  ISO  4  14 100  15 100  52 101  53 101
M  END
>  <TORSDO>  (54) 
F 22

>  <SCORE>  (54) 
-12.758

>  <name>  (54) 
53

>  <ligand_id>  (54) 
53

>  <original_smiles>  (54) 
[H]c1c([H])c([H])c2c(c1[H])C([H])([H])C([H])([H])C([H])([H])C2([H])N([H])C(=O)C1([H])N(C(=O)C([H])(N([H])C(=O)C([H])(N([H])C([H])([H])[H])C([H])([H])[H])C(C([H])([H])[H])(C([H])([H])[H])C([H])([H])[H])C([H])([H])c2c([H])c(OC([H])([H])C([H])([H])C(C([H])([H])[H])(C(F)(F)F)C([H])([H])c3nc([H])n(C([H])(C(=O)N4C([H])([H])C([H])([H])C([H])([H])C([H])(n5nc(-c6c([H])c([H])c(Oc7c([H])c([H])c(F)c([H])c7F)c([H])c6[H])c(C(=O)N([H])[H])c5N([H])[H])C4([H])[H])C([H])([H])[H])c3[H])c([H])c([H])c2C1([H])[H]

>  <smiles>  (54) 
[H]c1c([H])c([H])c2c(c1[H])C([H])([H])C([H])([H])C([H])([H])C2([H])N([H])C(=O)C1([H])N(C(=O)C([H])(N([H])C(=O)C([H])(N([H])C([H])([H])[H])C([H])([H])[H])C(C([H])([H])[H])(C([H])([H])[H])C([H])([H])[H])C([H])([H])c2c([H])c(OC([H])([H])C([H])([H])C(C([H])([H])[H])(C(F)(F)F)C([H])([H])c3nc([H])n(C([H])(C(=O)N4C([H])([H])C([H])([H])C([H])([H])C([H])(n5nc(-c6c([H])c([H])c(Oc7c([H])c([H])c(F)c([H])c7F)c([H])c6[H])c(C(=O)N([H])[H])c5N([H])[H])C4([H])[H])C([H])([H])[H])c3[H])c([H])c([H])c2C1([H])[H]

$$$$
54:0:0
     RDKit          3D

 89 97  0  0  1  0  0  0  0  0999 V2000
  -29.8850  -18.7370   20.0860 C   0  0  0  0  0  0  0  0  0  0  0  0
  -29.2090  -20.8100   20.2750 C   0  0  0  0  0  3  0  0  0  0  0  0
  -28.2710  -21.0110   17.9300 C   0  0  0  0  0  1  0  0  0  0  0  0
  -29.8350  -19.8190   20.9750 N   0  0  0  0  0  0  0  0  0  0  0  0
  -29.3550  -19.0500   18.9030 N   0  0  0  0  0  2  0  0  0  0  0  0
  -28.9420  -20.3530   19.0370 N   0  0  0  0  0  0  0  0  0  0  0  0
  -30.6860  -17.3870   20.2660 C   0  0  0  0  0  2  0  0  0  0  0  0
  -30.7020  -14.8080   20.1040 C   0  0  0  0  0  0  0  0  0  0  0  0
  -30.4160  -12.5990   18.9380 C   0  0  0  0  0  2  0  0  0  0  0  0
  -29.4060  -12.7150   17.7740 C   0  0  0  0  0  2  0  0  0  0  0  0
  -27.9580  -12.5200   18.2720 C   0  0  0  0  0  2  0  0  0  0  0  0
  -27.6650  -13.3280   19.5630 C   0  0  0  0  0  3  0  0  0  0  0  0
  -28.7860  -13.1270   20.6020 C   0  0  0  0  0  2  0  0  0  0  0  0
  -30.0320  -13.5970   19.9740 N   0  0  0  0  0  0  0  0  0  0  0  0
  -31.8510  -14.8720   19.6500 O   0  0  0  0  0  0  0  0  0  0  0  0
  -29.0390  -16.0650   21.5270 C   0  0  0  0  0  1  0  0  0  0  0  0
  -30.0540  -16.0030   20.4710 N   0  0  0  0  0  0  0  0  0  0  0  0
  -25.3030  -13.8940   20.3990 C   0  0  0  0  0  0  0  0  0  0  0  0
  -24.2630  -13.1050   20.8110 C   0  0  0  0  0  0  0  0  0  0  0  0
  -24.7370  -11.7600   20.7430 C   0  0  0  0  0  0  0  0  0  0  0  0
  -26.3450  -13.0260   20.1090 N   0  0  0  0  0  0  0  0  0  0  0  0
  -26.0110  -11.7370   20.3740 N   0  0  0  0  0  0  0  0  0  0  0  0
  -24.0310  -10.4890   20.9480 C   0  0  0  0  0  0  0  0  0  0  0  0
  -24.4890   -9.5290   21.8780 C   0  0  0  0  0  3  0  0  0  0  0  0
  -23.7800   -8.3240   22.0690 C   0  0  0  0  0  3  0  0  0  0  0  0
  -22.5990   -8.0710   21.3320 C   0  0  0  0  0  0  0  0  0  0  0  0
  -22.1610   -9.0190   20.3910 C   0  0  0  0  0  3  0  0  0  0  0  0
  -22.8700  -10.2150   20.1970 C   0  0  0  0  0  3  0  0  0  0  0  0
  -21.8580   -6.9170   21.4350 O   0  0  0  0  0  0  0  0  0  0  0  0
  -21.7990   -6.2040   22.6050 C   0  0  0  0  0  0  0  0  0  0  0  0
  -21.3180   -6.7750   23.8040 C   0  0  0  0  0  3  0  0  0  0  0  0
  -21.2090   -5.9850   24.9660 C   0  0  0  0  0  3  0  0  0  0  0  0
  -21.5690   -4.6240   24.9300 C   0  0  0  0  0  0  0  0  0  0  0  0
  -22.0430   -4.0530   23.7360 C   0  0  0  0  0  3  0  0  0  0  0  0
  -22.1550   -4.8390   22.5770 C   0  0  0  0  0  0  0  0  0  0  0  0
  -22.5910   -4.2780   21.4230 F   0  0  0  0  0  0  0  0  0  0  0  0
  -21.4580   -3.8630   26.0440 F   0  0  0  0  0  0  0  0  0  0  0  0
  -22.8760  -13.5660   21.1540 C   0  0  0  0  0  0  0  0  0  0  0  0
  -22.1920  -12.8510   22.0410 N   0  0  0  0  0  0  0  0  0  0  0  0
  -22.4090  -14.5970   20.6730 O   0  0  0  0  0  0  0  0  0  0  0  0
  -22.5840  -12.0180   22.4540 H   0  0  0  0  0  0  0  0  0  0  0  0
  -21.2640  -13.1420   22.3130 H   0  0  0  0  0  0  0  0  0  0  0  0
  -25.4390  -15.2670   20.2250 N   0  0  0  0  0  0  0  0  0  0  0  0
  -24.6690  -15.9080   20.3840 H   0  0  0  0  0  0  0  0  0  0  0  0
  -26.2620  -15.7220   19.8500 H   0  0  0  0  0  0  0  0  0  0  0  0
  -28.6320  -22.1890   20.8010 C   0  0  0  0  0  2  0  0  0  0  0  0
  -29.1850  -23.6780   20.4490 C   0  0  0  0  0  3  0  0  0  0  0  0
  -28.1120  -24.8960   20.5250 C   0  0  0  0  0  3  0  0  0  0  0  0
  -28.4160  -26.3760   20.4160 O   0  0  0  0  0  0  0  0  0  0  0  0
  -24.6550  -31.9350   23.2610 C   0  0  0  0  0  0  0  0  0  0  0  0
  -27.3240  -27.2800   20.3370 C   0  0  0  0  0  0  0  0  0  0  0  0
  -23.4870  -30.5030   21.6320 C   0  0  0  0  0  3  0  0  0  0  0  0
  -24.9650  -28.9340   20.2550 C   0  0  0  0  0  0  0  0  0  0  0  0
  -26.0330  -30.8120   21.4880 C   0  0  0  0  0  2  0  0  0  0  0  0
  -26.1280  -29.4190   20.8660 C   0  0  0  0  0  0  0  0  0  0  0  0
  -27.3110  -28.6060   20.8950 C   0  0  0  0  0  3  0  0  0  0  0  0
  -26.1340  -26.8760   19.6850 C   0  0  0  0  0  3  0  0  0  0  0  0
  -24.9740  -27.6690   19.6560 C   0  0  0  0  0  3  0  0  0  0  0  0
  -23.7270  -29.8090   20.2670 C   0  0  0  0  0  2  0  0  0  0  0  0
  -24.7430  -31.1050   22.1820 N   0  0  0  0  0  0  0  0  0  0  0  0
  -23.5610  -32.2190   23.7710 O   0  0  0  0  0  0  0  0  0  0  0  0
  -22.8120  -29.4980   22.5980 C   0  0  0  0  0  0  0  0  0  0  0  0
  -21.4930  -29.2930   22.4390 N   0  0  0  0  0  0  0  0  0  0  0  0
  -23.4750  -28.9070   23.4530 O   0  0  0  0  0  0  0  0  0  0  0  0
  -21.0120  -29.8260   21.7260 H   0  0  0  0  0  0  0  0  0  0  0  0
  -18.1230  -28.0440   22.8800 C   0  0  0  0  0  0  0  0  0  0  0  0
  -20.6670  -28.3620   23.2130 C   0  0  0  0  0  3  0  0  0  0  0  0
  -20.8110  -26.9160   22.6830 C   0  0  0  0  0  2  0  0  0  0  0  0
  -19.7450  -26.5440   21.6480 C   0  0  0  0  0  2  0  0  0  0  0  0
  -18.3420  -26.6800   22.2490 C   0  0  0  0  0  2  0  0  0  0  0  0
  -19.2150  -28.8400   23.3180 C   0  0  0  0  0  0  0  0  0  0  0  0
  -18.9550  -30.1150   23.8670 C   0  0  0  0  0  3  0  0  0  0  0  0
  -17.6380  -30.5950   23.9820 C   0  0  0  0  0  3  0  0  0  0  0  0
  -16.5600  -29.7980   23.5590 C   0  0  0  0  0  3  0  0  0  0  0  0
  -16.8040  -28.5240   23.0150 C   0  0  0  0  0  3  0  0  0  0  0  0
  -25.9220  -32.5880   23.8920 C   0  0  0  0  0  3  0  0  0  0  0  0
  -26.4270  -31.8400   25.1850 C   0  0  1  0  0  0  0  0  0  0  0  0
  -25.3230  -31.5980   26.2410 C   0  0  0  0  0  1  0  0  0  0  0  0
  -27.0370  -30.4640   24.8230 C   0  0  0  0  0  1  0  0  0  0  0  0
  -27.5530  -32.6610   25.8570 C   0  0  0  0  0  1  0  0  0  0  0  0
  -25.5930  -33.9880   24.1990 N   0  0  0  0  0  0  0  0  0  0  0  0
  -25.9240  -35.0360   23.4340 C   0  0  0  0  0  0  0  0  0  0  0  0
  -26.6090  -34.9280   22.4120 O   0  0  0  0  0  0  0  0  0  0  0  0
  -24.9880  -34.1470   24.9910 H   0  0  0  0  0  0  0  0  0  0  0  0
  -24.1940  -36.8180   23.0280 C   0  0  0  0  0  1  0  0  0  0  0  0
  -25.4190  -36.4260   23.8680 C   0  0  0  0  0  3  0  0  0  0  0  0
  -27.5280  -37.3350   24.7420 C   0  0  0  0  0  1  0  0  0  0  0  0
  -26.4470  -37.4850   23.7700 N   0  0  0  0  0  0  0  0  0  0  0  0
  -26.0310  -38.4030   23.8970 H   0  0  0  0  0  0  0  0  0  0  0  0
  1  7  1  0
  1  4  2  0
  2 46  1  0
  2  4  1  0
  3  6  1  0
  5  6  1  0
  5  1  1  0
  6  2  1  0
  7 17  1  0
  8 17  1  0
  9 14  1  0
 10 11  1  0
 10  9  1  0
 12 11  1  0
 12 21  1  0
 12 13  1  0
 14  8  1  0
 14 13  1  0
 15  8  2  0
 17 16  1  0
 18 19  2  0
 19 38  1  0
 20 19  1  0
 20 23  1  0
 21 22  1  0
 21 18  1  0
 22 20  2  0
 23 24  1  0
 24 25  2  0
 26 29  1  0
 26 25  1  0
 27 26  2  0
 28 27  1  0
 28 23  2  0
 29 30  1  0
 30 31  1  0
 31 32  2  0
 33 32  1  0
 33 37  1  0
 34 33  2  0
 35 30  2  0
 35 34  1  0
 36 35  1  0
 38 39  1  0
 39 42  1  0
 39 41  1  0
 40 38  2  0
 43 44  1  0
 43 18  1  0
 45 43  1  0
 47 48  2  0
 47 46  1  0
 49 48  1  0
 50 61  2  0
 51 49  1  0
 51 56  1  0
 52 60  1  0
 52 62  1  0
 53 59  1  0
 53 55  1  0
 54 60  1  0
 55 56  2  0
 55 54  1  0
 57 51  2  0
 58 57  1  0
 58 53  2  0
 59 52  1  0
 60 50  1  0
 62 64  2  0
 63 62  1  0
 65 63  1  0
 66 75  2  0
 66 71  1  0
 67 63  1  0
 67 71  1  0
 68 67  1  0
 69 70  1  0
 69 68  1  0
 70 66  1  0
 71 72  2  0
 72 73  1  0
 74 73  2  0
 75 74  1  0
 76 50  1  0
 76 81  1  0
 76 77  1  0
 77 80  1  1
 77 78  1  0
 79 77  1  0
 81 84  1  0
 82 86  1  0
 82 81  1  0
 83 82  2  0
 86 85  1  0
 88 86  1  0
 88 89  1  0
 88 87  1  0
M  ISO  4   8 100  17 100  48 101  49 101
M  END
>  <TORSDO>  (55) 
F 20

>  <SCORE>  (55) 
-13.393

>  <name>  (55) 
54

>  <ligand_id>  (55) 
54

>  <original_smiles>  (55) 
[H]c1c([H])c([H])c2c(c1[H])C([H])([H])C([H])([H])C([H])([H])C2([H])N([H])C(=O)C1([H])N(C(=O)C([H])(N([H])C(=O)C([H])(N([H])C([H])([H])[H])C([H])([H])[H])C(C([H])([H])[H])(C([H])([H])[H])C([H])([H])[H])C([H])([H])c2c([H])c(OC([H])([H])C([H])([H])C([H])([H])c3nc(C([H])([H])N(C(=O)N4C([H])([H])C([H])([H])C([H])([H])C([H])(n5nc(-c6c([H])c([H])c(Oc7c([H])c([H])c(F)c([H])c7F)c([H])c6[H])c(C(=O)N([H])[H])c5N([H])[H])C4([H])[H])C([H])([H])[H])nn3C([H])([H])[H])c([H])c([H])c2C1([H])[H]

>  <smiles>  (55) 
[H]c1c([H])c([H])c2c(c1[H])C([H])([H])C([H])([H])C([H])([H])C2([H])N([H])C(=O)C1([H])N(C(=O)C([H])(N([H])C(=O)C([H])(N([H])C([H])([H])[H])C([H])([H])[H])C(C([H])([H])[H])(C([H])([H])[H])C([H])([H])[H])C([H])([H])c2c([H])c(OC([H])([H])C([H])([H])C([H])([H])c3nc(C([H])([H])N(C(=O)N4C([H])([H])C([H])([H])C([H])([H])C([H])(n5nc(-c6c([H])c([H])c(Oc7c([H])c([H])c(F)c([H])c7F)c([H])c6[H])c(C(=O)N([H])[H])c5N([H])[H])C4([H])[H])C([H])([H])[H])nn3C([H])([H])[H])c([H])c([H])c2C1([H])[H]

$$$$
55:0:0
     RDKit          3D

 94102  0  0  1  0  0  0  0  0999 V2000
  -27.9560  -20.4260   19.9240 C   0  0  0  0  0  3  0  0  0  0  0  0
  -30.2420  -20.3040   21.3310 C   0  0  0  0  0  3  0  0  0  0  0  0
  -28.6550  -21.6160   20.2670 C   0  0  0  0  0  0  0  0  0  0  0  0
  -29.5360  -19.1130   21.0120 C   0  0  0  0  0  0  0  0  0  0  0  0
  -29.8030  -21.5460   20.9860 N   0  0  0  0  0  0  0  0  0  0  0  0
  -28.3700  -19.1870   20.3160 N   0  0  0  0  0  0  0  0  0  0  0  0
  -28.0530  -23.0110   19.9750 C   0  0  0  0  0  3  0  0  0  0  0  0
  -29.0460  -24.2060   19.8380 C   0  0  0  0  0  3  0  0  0  0  0  0
  -28.5000  -25.5060   19.1580 C   0  0  0  0  0  2  0  0  0  0  0  0
  -28.3190  -26.6460   20.0360 O   0  0  0  0  0  0  0  0  0  0  0  0
  -24.5940  -31.8690   23.1960 C   0  0  0  0  0  0  0  0  0  0  0  0
  -27.1440  -27.3910   20.0290 C   0  0  0  0  0  0  0  0  0  0  0  0
  -23.3530  -30.4890   21.5680 C   0  0  0  0  0  3  0  0  0  0  0  0
  -24.7650  -28.9510   20.1040 C   0  0  0  0  0  0  0  0  0  0  0  0
  -25.8820  -30.8160   21.3340 C   0  0  0  0  0  2  0  0  0  0  0  0
  -25.9420  -29.4490   20.6740 C   0  0  0  0  0  0  0  0  0  0  0  0
  -27.1300  -28.6760   20.6330 C   0  0  0  0  0  3  0  0  0  0  0  0
  -25.9330  -26.9080   19.4820 C   0  0  0  0  0  3  0  0  0  0  0  0
  -24.7570  -27.6800   19.5110 C   0  0  0  0  0  3  0  0  0  0  0  0
  -23.5320  -29.8230   20.1800 C   0  0  0  0  0  2  0  0  0  0  0  0
  -24.6290  -31.0730   22.0900 N   0  0  0  0  0  0  0  0  0  0  0  0
  -23.5230  -32.1460   23.7560 O   0  0  0  0  0  0  0  0  0  0  0  0
  -22.7110  -29.4620   22.5320 C   0  0  0  0  0  0  0  0  0  0  0  0
  -21.3830  -29.2830   22.4230 N   0  0  0  0  0  0  0  0  0  0  0  0
  -23.4040  -28.8320   23.3340 O   0  0  0  0  0  0  0  0  0  0  0  0
  -20.8840  -29.8430   21.7470 H   0  0  0  0  0  0  0  0  0  0  0  0
  -18.0190  -28.0740   22.9440 C   0  0  0  0  0  0  0  0  0  0  0  0
  -20.5770  -28.3430   23.2020 C   0  0  0  0  0  3  0  0  0  0  0  0
  -20.6840  -26.9120   22.6290 C   0  0  0  0  0  2  0  0  0  0  0  0
  -19.5780  -26.5820   21.6210 C   0  0  0  0  0  2  0  0  0  0  0  0
  -18.1980  -26.7240   22.2710 C   0  0  0  0  0  2  0  0  0  0  0  0
  -19.1360  -28.8410   23.3660 C   0  0  0  0  0  0  0  0  0  0  0  0
  -18.9160  -30.1050   23.9570 C   0  0  0  0  0  3  0  0  0  0  0  0
  -17.6100  -30.6020   24.1260 C   0  0  0  0  0  3  0  0  0  0  0  0
  -16.5060  -29.8310   23.7230 C   0  0  0  0  0  3  0  0  0  0  0  0
  -16.7130  -28.5690   23.1380 C   0  0  0  0  0  3  0  0  0  0  0  0
  -25.8940  -32.4910   23.7940 C   0  0  0  0  0  3  0  0  0  0  0  0
  -25.5960  -33.8850   24.1490 N   0  0  0  0  0  0  0  0  0  0  0  0
  -25.9140  -34.9490   23.3980 C   0  0  0  0  0  0  0  0  0  0  0  0
  -26.5650  -34.8570   22.3540 O   0  0  0  0  0  0  0  0  0  0  0  0
  -25.0210  -34.0280   24.9660 H   0  0  0  0  0  0  0  0  0  0  0  0
  -24.1830  -36.7480   23.0990 C   0  0  0  0  0  1  0  0  0  0  0  0
  -25.4380  -36.3310   23.8830 C   0  0  0  0  0  3  0  0  0  0  0  0
  -27.5860  -37.2000   24.6910 C   0  0  0  0  0  1  0  0  0  0  0  0
  -26.4700  -37.3840   23.7680 N   0  0  0  0  0  0  0  0  0  0  0  0
  -26.0690  -38.3020   23.9390 H   0  0  0  0  0  0  0  0  0  0  0  0
  -26.4390  -31.7040   25.0500 C   0  0  1  0  0  0  0  0  0  0  0  0
  -25.3710  -31.4560   26.1400 C   0  0  0  0  0  1  0  0  0  0  0  0
  -27.0120  -30.3310   24.6290 C   0  0  0  0  0  1  0  0  0  0  0  0
  -27.6040  -32.4890   25.6970 C   0  0  0  0  0  1  0  0  0  0  0  0
  -29.9710  -17.7680   21.6470 C   0  0  0  0  0  2  0  0  0  0  0  0
  -29.5020  -16.3800   21.0690 C   0  0  0  0  0  2  0  0  0  0  0  0
  -30.9740  -14.5250   20.1250 C   0  0  0  0  0  0  0  0  0  0  0  0
  -30.5720  -12.3460   19.0340 C   0  0  0  0  0  2  0  0  0  0  0  0
  -29.6180  -12.5110   17.8340 C   0  0  0  0  0  2  0  0  0  0  0  0
  -28.1470  -12.4210   18.2860 C   0  0  0  0  0  2  0  0  0  0  0  0
  -27.8420  -13.2950   19.5330 C   0  0  0  0  0  3  0  0  0  0  0  0
  -28.9150  -13.1140   20.6250 C   0  0  0  0  0  2  0  0  0  0  0  0
  -30.2190  -13.3900   20.0120 N   0  0  0  0  0  0  0  0  0  0  0  0
  -32.1720  -14.4850   19.8600 O   0  0  0  0  0  0  0  0  0  0  0  0
  -30.3230  -15.7270   20.0130 N   0  0  0  0  0  0  0  0  0  0  0  0
  -25.4760  -13.9530   20.2850 C   0  0  0  0  0  0  0  0  0  0  0  0
  -24.4000  -13.2060   20.6820 C   0  0  0  0  0  0  0  0  0  0  0  0
  -24.8320  -11.8450   20.6640 C   0  0  0  0  0  0  0  0  0  0  0  0
  -26.4970  -13.0480   20.0470 N   0  0  0  0  0  0  0  0  0  0  0  0
  -26.1180  -11.7760   20.3400 N   0  0  0  0  0  0  0  0  0  0  0  0
  -24.0820  -10.6010   20.8820 C   0  0  0  0  0  0  0  0  0  0  0  0
  -24.4980   -9.6430   21.8320 C   0  0  0  0  0  3  0  0  0  0  0  0
  -23.7490   -8.4630   22.0360 C   0  0  0  0  0  3  0  0  0  0  0  0
  -22.5700   -8.2330   21.2880 C   0  0  0  0  0  0  0  0  0  0  0  0
  -22.1720   -9.1800   20.3270 C   0  0  0  0  0  3  0  0  0  0  0  0
  -22.9220  -10.3500   20.1210 C   0  0  0  0  0  3  0  0  0  0  0  0
  -21.7920   -7.1060   21.4020 O   0  0  0  0  0  0  0  0  0  0  0  0
  -21.7160   -6.3990   22.5750 C   0  0  0  0  0  0  0  0  0  0  0  0
  -21.3020   -7.0010   23.7830 C   0  0  0  0  0  3  0  0  0  0  0  0
  -21.1690   -6.2200   24.9490 C   0  0  0  0  0  3  0  0  0  0  0  0
  -21.4410   -4.8400   24.9090 C   0  0  0  0  0  0  0  0  0  0  0  0
  -21.8500   -4.2380   23.7050 C   0  0  0  0  0  3  0  0  0  0  0  0
  -21.9840   -5.0160   22.5420 C   0  0  0  0  0  0  0  0  0  0  0  0
  -22.3550   -4.4260   21.3790 F   0  0  0  0  0  0  0  0  0  0  0  0
  -21.3080   -4.0880   26.0260 F   0  0  0  0  0  0  0  0  0  0  0  0
  -23.0170  -13.7160   20.9650 C   0  0  0  0  0  0  0  0  0  0  0  0
  -22.2870  -13.0560   21.8570 N   0  0  0  0  0  0  0  0  0  0  0  0
  -22.5900  -14.7370   20.4260 O   0  0  0  0  0  0  0  0  0  0  0  0
  -22.6480  -12.2330   22.3180 H   0  0  0  0  0  0  0  0  0  0  0  0
  -21.3560  -13.3810   22.0840 H   0  0  0  0  0  0  0  0  0  0  0  0
  -25.6660  -15.3160   20.0840 N   0  0  0  0  0  0  0  0  0  0  0  0
  -24.9140  -15.9870   20.1920 H   0  0  0  0  0  0  0  0  0  0  0  0
  -26.5150  -15.7290   19.7180 H   0  0  0  0  0  0  0  0  0  0  0  0
  -30.3280  -16.4710   18.7340 C   0  0  0  0  0  2  0  0  0  0  0  0
  -32.5480  -17.6890   19.4090 C   0  0  0  0  0  1  0  0  0  0  0  0
  -32.4550  -16.2890   17.3080 C   0  0  0  0  0  1  0  0  0  0  0  0
  -31.2210  -18.4270   17.4440 C   0  0  0  0  0  1  0  0  0  0  0  0
  -31.6410  -17.1900   18.2620 C   0  0  1  0  0  0  0  0  0  0  0  0
  1  3  2  0
  1  6  1  0
  3  5  1  0
  4  2  1  0
  4 51  1  0
  5  2  2  0
  6  4  2  0
  7  3  1  0
  8  7  2  0
  9  8  1  0
  9 10  1  0
 11 22  2  0
 12 10  1  0
 12 17  1  0
 13 21  1  0
 13 23  1  0
 14 20  1  0
 14 16  1  0
 15 21  1  0
 16 15  1  0
 17 16  2  0
 18 19  1  0
 18 12  2  0
 19 14  2  0
 20 13  1  0
 21 11  1  0
 23 25  2  0
 24 23  1  0
 26 24  1  0
 27 36  2  0
 27 32  1  0
 28 24  1  0
 28 32  1  0
 29 28  1  0
 30 31  1  0
 30 29  1  0
 31 27  1  0
 32 33  2  0
 33 34  1  0
 35 34  2  0
 36 35  1  0
 37 11  1  0
 37 38  1  0
 37 47  1  0
 38 41  1  0
 39 43  1  0
 39 38  1  0
 40 39  2  0
 43 42  1  0
 45 43  1  0
 45 46  1  0
 45 44  1  0
 47 50  1  1
 47 48  1  0
 49 47  1  0
 52 51  1  0
 54 59  1  0
 55 56  1  0
 55 54  1  0
 57 56  1  0
 57 65  1  0
 57 58  1  0
 59 53  1  0
 59 58  1  0
 60 53  2  0
 61 53  1  0
 61 52  1  0
 62 63  2  0
 63 82  1  0
 64 63  1  0
 64 67  1  0
 65 62  1  0
 65 66  1  0
 66 64  2  0
 67 68  1  0
 68 69  2  0
 70 73  1  0
 70 69  1  0
 71 70  2  0
 72 71  1  0
 72 67  2  0
 73 74  1  0
 74 75  1  0
 75 76  2  0
 77 76  1  0
 77 81  1  0
 78 77  2  0
 79 74  2  0
 79 78  1  0
 80 79  1  0
 82 83  1  0
 83 86  1  0
 83 85  1  0
 84 82  2  0
 87 88  1  0
 87 62  1  0
 89 87  1  0
 90 61  1  0
 94 92  1  6
 93 94  1  0
 94 90  1  0
 94 91  1  0
M  ISO  4   9 101  10 101  53 100  61 100
M  END
>  <TORSDO>  (56) 
F 23

>  <SCORE>  (56) 
-12.703

>  <name>  (56) 
55

>  <ligand_id>  (56) 
55

>  <original_smiles>  (56) 
[H]c1nc(C([H])([H])C([H])([H])C([H])([H])Oc2c([H])c([H])c3c(c2[H])C([H])([H])N(C(=O)C([H])(N([H])C(=O)C([H])(N([H])C([H])([H])[H])C([H])([H])[H])C(C([H])([H])[H])(C([H])([H])[H])C([H])([H])[H])C([H])(C(=O)N([H])C2([H])c4c([H])c([H])c([H])c([H])c4C([H])([H])C([H])([H])C2([H])[H])C3([H])[H])c([H])nc1C([H])([H])C([H])([H])N(C(=O)N1C([H])([H])C([H])([H])C([H])([H])C([H])(n2nc(-c3c([H])c([H])c(Oc4c([H])c([H])c(F)c([H])c4F)c([H])c3[H])c(C(=O)N([H])[H])c2N([H])[H])C1([H])[H])C([H])([H])C(C([H])([H])[H])(C([H])([H])[H])C([H])([H])[H]

>  <smiles>  (56) 
[H]c1nc(C([H])([H])C([H])([H])C([H])([H])Oc2c([H])c([H])c3c(c2[H])C([H])([H])N(C(=O)C([H])(N([H])C(=O)C([H])(N([H])C([H])([H])[H])C([H])([H])[H])C(C([H])([H])[H])(C([H])([H])[H])C([H])([H])[H])C([H])(C(=O)N([H])C2([H])c4c([H])c([H])c([H])c([H])c4C([H])([H])C([H])([H])C2([H])[H])C3([H])[H])c([H])nc1C([H])([H])C([H])([H])N(C(=O)N1C([H])([H])C([H])([H])C([H])([H])C([H])(n2nc(-c3c([H])c([H])c(Oc4c([H])c([H])c(F)c([H])c4F)c([H])c3[H])c(C(=O)N([H])[H])c2N([H])[H])C1([H])[H])C([H])([H])C(C([H])([H])[H])(C([H])([H])[H])C([H])([H])[H]

$$$$
56:0:0
     RDKit          3D

 96104  0  0  1  0  0  0  0  0999 V2000
  -27.7120  -22.5730   19.5070 N   0  0  1  0  0  4  0  0  0  0  0  0
  -28.5570  -22.8300   19.0150 H   0  0  0  0  0  0  0  0  0  0  0  0
  -28.0860  -21.4790   20.4550 C   0  0  0  0  0  2  0  0  0  0  0  0
  -28.8040  -20.2240   19.8650 C   0  0  0  0  0  2  0  0  0  0  0  0
  -30.5400  -20.5060   21.7570 C   0  0  0  0  0  3  0  0  0  0  0  0
  -29.9580  -19.7710   20.7550 C   0  0  0  0  0  0  0  0  0  0  0  0
  -30.6880  -18.5260   20.7840 C   0  0  0  0  0  0  0  0  0  0  0  0
  -32.4590  -20.1220   23.3650 C   0  0  0  0  0  1  0  0  0  0  0  0
  -31.7040  -18.5980   21.6390 N   0  0  0  0  0  0  0  0  0  0  0  0
  -31.5710  -19.7730   22.2770 N   0  0  0  0  0  0  0  0  0  0  0  0
  -30.4730  -17.2550   19.9550 C   0  0  0  0  0  2  0  0  0  0  0  0
  -31.2350  -14.9040   19.8110 C   0  0  0  0  0  0  0  0  0  0  0  0
  -30.9460  -12.6230   18.8720 C   0  0  0  0  0  2  0  0  0  0  0  0
  -29.9620  -12.6150   17.6860 C   0  0  0  0  0  2  0  0  0  0  0  0
  -28.5070  -12.4800   18.1690 C   0  0  0  0  0  2  0  0  0  0  0  0
  -28.1730  -13.4730   19.3110 C   0  0  0  0  0  3  0  0  0  0  0  0
  -29.2510  -13.4240   20.4080 C   0  0  0  0  0  2  0  0  0  0  0  0
  -30.5660  -13.7080   19.7950 N   0  0  0  0  0  0  0  0  0  0  0  0
  -32.2130  -15.1110   19.0800 O   0  0  0  0  0  0  0  0  0  0  0  0
  -30.6860  -15.7450   22.0280 C   0  0  0  0  0  1  0  0  0  0  0  0
  -30.6910  -15.9000   20.5600 N   0  0  0  0  0  0  0  0  0  0  0  0
  -25.8410  -14.1510   20.1640 C   0  0  0  0  0  0  0  0  0  0  0  0
  -24.7780  -13.4110   20.6040 C   0  0  0  0  0  0  0  0  0  0  0  0
  -25.1970  -12.0450   20.5450 C   0  0  0  0  0  0  0  0  0  0  0  0
  -26.8420  -13.2380   19.8670 N   0  0  0  0  0  0  0  0  0  0  0  0
  -26.4610  -11.9660   20.1520 N   0  0  0  0  0  0  0  0  0  0  0  0
  -24.4470  -10.8060   20.7850 C   0  0  0  0  0  0  0  0  0  0  0  0
  -24.8240   -9.9000   21.8010 C   0  0  0  0  0  3  0  0  0  0  0  0
  -24.0780   -8.7240   22.0210 C   0  0  0  0  0  3  0  0  0  0  0  0
  -22.9410   -8.4450   21.2260 C   0  0  0  0  0  0  0  0  0  0  0  0
  -22.5840   -9.3400   20.2020 C   0  0  0  0  0  3  0  0  0  0  0  0
  -23.3290  -10.5100   19.9800 C   0  0  0  0  0  3  0  0  0  0  0  0
  -22.1700   -7.3170   21.3530 O   0  0  0  0  0  0  0  0  0  0  0  0
  -21.9640   -6.7180   22.5700 C   0  0  0  0  0  0  0  0  0  0  0  0
  -21.3730   -7.4090   23.6510 C   0  0  0  0  0  3  0  0  0  0  0  0
  -21.1150   -6.7360   24.8610 C   0  0  0  0  0  3  0  0  0  0  0  0
  -21.4380   -5.3720   24.9900 C   0  0  0  0  0  0  0  0  0  0  0  0
  -22.0190   -4.6800   23.9140 C   0  0  0  0  0  3  0  0  0  0  0  0
  -22.2780   -5.3510   22.7060 C   0  0  0  0  0  0  0  0  0  0  0  0
  -22.8200   -4.6750   21.6640 F   0  0  0  0  0  0  0  0  0  0  0  0
  -21.1830   -4.7210   26.1500 F   0  0  0  0  0  0  0  0  0  0  0  0
  -23.4160  -13.9310   20.9610 C   0  0  0  0  0  0  0  0  0  0  0  0
  -22.7400  -13.2790   21.9000 N   0  0  0  0  0  0  0  0  0  0  0  0
  -22.9650  -14.9510   20.4440 O   0  0  0  0  0  0  0  0  0  0  0  0
  -23.1250  -12.4590   22.3450 H   0  0  0  0  0  0  0  0  0  0  0  0
  -21.8260  -13.6060   22.1790 H   0  0  0  0  0  0  0  0  0  0  0  0
  -26.0320  -15.5140   19.9760 N   0  0  0  0  0  0  0  0  0  0  0  0
  -25.2870  -16.1800   20.1400 H   0  0  0  0  0  0  0  0  0  0  0  0
  -26.8740  -15.9350   19.6050 H   0  0  0  0  0  0  0  0  0  0  0  0
  -26.7520  -22.1550   18.4410 C   0  0  0  0  0  2  0  0  0  0  0  0
  -24.5840  -23.1310   17.4780 C   0  0  0  0  0  1  0  0  0  0  0  0
  -25.2740  -22.5360   18.7130 C   0  0  0  0  0  2  0  0  0  0  0  0
  -27.2260  -23.8150   20.1990 C   0  0  0  0  0  2  0  0  0  0  0  0
  -28.2940  -24.8080   20.7350 C   0  0  0  0  0  2  0  0  0  0  0  0
  -28.8910  -25.8200   19.7250 C   0  0  0  0  0  2  0  0  0  0  0  0
  -28.7960  -27.1740   20.2050 O   0  0  0  0  0  0  0  0  0  0  0  0
  -24.6580  -32.0640   23.3410 C   0  0  0  0  0  0  0  0  0  0  0  0
  -27.5730  -27.8230   20.2010 C   0  0  0  0  0  0  0  0  0  0  0  0
  -23.5620  -30.6820   21.6110 C   0  0  0  0  0  3  0  0  0  0  0  0
  -25.1190  -29.2450   20.1940 C   0  0  0  0  0  0  0  0  0  0  0  0
  -26.0810  -31.1300   21.5200 C   0  0  0  0  0  2  0  0  0  0  0  0
  -26.2370  -29.7870   20.8370 C   0  0  0  0  0  0  0  0  0  0  0  0
  -27.4650  -29.0840   20.8400 C   0  0  0  0  0  3  0  0  0  0  0  0
  -26.4270  -27.2920   19.5700 C   0  0  0  0  0  3  0  0  0  0  0  0
  -25.2090  -27.9940   19.5600 C   0  0  0  0  0  3  0  0  0  0  0  0
  -23.8470  -30.0610   20.2180 C   0  0  0  0  0  2  0  0  0  0  0  0
  -24.7830  -31.3030   22.2200 N   0  0  0  0  0  0  0  0  0  0  0  0
  -23.5490  -32.2810   23.8500 O   0  0  0  0  0  0  0  0  0  0  0  0
  -22.9130  -29.6040   22.5110 C   0  0  0  0  0  0  0  0  0  0  0  0
  -21.5960  -29.3930   22.3440 N   0  0  0  0  0  0  0  0  0  0  0  0
  -23.5950  -28.9530   23.3070 O   0  0  0  0  0  0  0  0  0  0  0  0
  -21.1070  -29.9590   21.6650 H   0  0  0  0  0  0  0  0  0  0  0  0
  -18.2320  -28.1580   22.7890 C   0  0  0  0  0  0  0  0  0  0  0  0
  -20.7910  -28.4020   23.0580 C   0  0  0  0  0  3  0  0  0  0  0  0
  -20.8980  -27.0100   22.3910 C   0  0  0  0  0  2  0  0  0  0  0  0
  -19.7840  -26.7440   21.3730 C   0  0  0  0  0  2  0  0  0  0  0  0
  -18.4060  -26.8530   22.0310 C   0  0  0  0  0  2  0  0  0  0  0  0
  -19.3520  -28.8900   23.2610 C   0  0  0  0  0  0  0  0  0  0  0  0
  -19.1360  -30.1110   23.9380 C   0  0  0  0  0  3  0  0  0  0  0  0
  -17.8310  -30.5970   24.1440 C   0  0  0  0  0  3  0  0  0  0  0  0
  -16.7260  -29.8610   23.6870 C   0  0  0  0  0  3  0  0  0  0  0  0
  -16.9280  -28.6440   23.0110 C   0  0  0  0  0  3  0  0  0  0  0  0
  -25.8970  -32.7200   24.0270 C   0  0  0  0  0  3  0  0  0  0  0  0
  -26.3700  -31.9510   25.3220 C   0  0  1  0  0  0  0  0  0  0  0  0
  -25.2270  -31.6630   26.3240 C   0  0  0  0  0  1  0  0  0  0  0  0
  -27.0230  -30.5990   24.9520 C   0  0  0  0  0  1  0  0  0  0  0  0
  -27.4560  -32.7750   26.0520 C   0  0  0  0  0  1  0  0  0  0  0  0
  -25.5410  -34.1080   24.3470 N   0  0  0  0  0  0  0  0  0  0  0  0
  -25.9080  -35.1720   23.6190 C   0  0  0  0  0  0  0  0  0  0  0  0
  -26.6470  -35.0870   22.6330 O   0  0  0  0  0  0  0  0  0  0  0  0
  -24.8880  -34.2490   25.1040 H   0  0  0  0  0  0  0  0  0  0  0  0
  -24.1910  -36.9450   23.1400 C   0  0  0  0  0  1  0  0  0  0  0  0
  -25.3650  -36.5470   24.0490 C   0  0  0  0  0  3  0  0  0  0  0  0
  -27.4120  -37.4420   25.0650 C   0  0  0  0  0  1  0  0  0  0  0  0
  -26.3910  -37.6140   24.0360 N   0  0  0  0  0  0  0  0  0  0  0  0
  -25.9640  -38.5270   24.1620 H   0  0  0  0  0  0  0  0  0  0  0  0
  1 53  1  0
  1  3  1  0
  1  2  1  6
  4  3  1  0
  4  6  1  0
  5 10  1  0
  6  7  1  0
  6  5  2  0
  7  9  2  0
  9 10  1  0
 10  8  1  0
 11 21  1  0
 11  7  1  0
 12 21  1  0
 13 18  1  0
 14 15  1  0
 14 13  1  0
 16 15  1  0
 16 25  1  0
 16 17  1  0
 18 12  1  0
 18 17  1  0
 19 12  2  0
 21 20  1  0
 22 23  2  0
 23 42  1  0
 24 23  1  0
 24 27  1  0
 25 26  1  0
 25 22  1  0
 26 24  2  0
 27 28  1  0
 28 29  2  0
 30 33  1  0
 30 29  1  0
 31 30  2  0
 32 31  1  0
 32 27  2  0
 33 34  1  0
 34 39  2  0
 34 35  1  0
 35 36  2  0
 36 37  1  0
 37 41  1  0
 38 37  2  0
 39 38  1  0
 40 39  1  0
 42 43  1  0
 43 46  1  0
 43 45  1  0
 44 42  2  0
 47 48  1  0
 47 22  1  0
 49 47  1  0
 50 52  1  0
 50  1  1  0
 51 52  1  0
 53 54  1  0
 55 56  1  0
 55 54  1  0
 57 68  2  0
 58 56  1  0
 58 63  1  0
 59 67  1  0
 59 69  1  0
 60 66  1  0
 60 62  1  0
 61 67  1  0
 62 63  2  0
 62 61  1  0
 64 58  2  0
 65 64  1  0
 65 60  2  0
 66 59  1  0
 67 57  1  0
 69 71  2  0
 70 69  1  0
 72 70  1  0
 73 82  2  0
 73 78  1  0
 74 70  1  0
 74 78  1  0
 75 74  1  0
 76 77  1  0
 76 75  1  0
 77 73  1  0
 78 79  2  0
 79 80  1  0
 81 80  2  0
 82 81  1  0
 83 57  1  0
 83 88  1  0
 83 84  1  0
 84 87  1  1
 84 85  1  0
 86 84  1  0
 88 91  1  0
 89 93  1  0
 89 88  1  0
 90 89  2  0
 93 92  1  0
 95 93  1  0
 95 96  1  0
 95 94  1  0
M  ISO  4  12 100  21 100  55 101  56 101
M  END
>  <TORSDO>  (57) 
F 25

>  <SCORE>  (57) 
-11.591

>  <name>  (57) 
56

>  <ligand_id>  (57) 
56

>  <original_smiles>  (57) 
[H]c1c([H])c([H])c2c(c1[H])C([H])([H])C([H])([H])C([H])([H])C2([H])N([H])C(=O)C1([H])N(C(=O)C([H])(N([H])C(=O)C([H])(N([H])C([H])([H])[H])C([H])([H])[H])C(C([H])([H])[H])(C([H])([H])[H])C([H])([H])[H])C([H])([H])c2c([H])c(OC([H])([H])C([H])([H])C([H])([H])[N+]([H])(C([H])([H])C([H])([H])c3c(C([H])([H])N(C(=O)N4C([H])([H])C([H])([H])C([H])([H])C([H])(n5nc(-c6c([H])c([H])c(Oc7c([H])c([H])c(F)c([H])c7F)c([H])c6[H])c(C(=O)N([H])[H])c5N([H])[H])C4([H])[H])C([H])([H])[H])nn(C([H])([H])[H])c3[H])C([H])([H])C([H])([H])C([H])([H])[H])c([H])c([H])c2C1([H])[H]

>  <smiles>  (57) 
[H]c1c([H])c([H])c2c(c1[H])C([H])([H])C([H])([H])C([H])([H])C2([H])N([H])C(=O)C1([H])N(C(=O)C([H])(N([H])C(=O)C([H])(N([H])C([H])([H])[H])C([H])([H])[H])C(C([H])([H])[H])(C([H])([H])[H])C([H])([H])[H])C([H])([H])c2c([H])c(OC([H])([H])C([H])([H])C([H])([H])[N+]([H])(C([H])([H])C([H])([H])c3c(C([H])([H])N(C(=O)N4C([H])([H])C([H])([H])C([H])([H])C([H])(n5nc(-c6c([H])c([H])c(Oc7c([H])c([H])c(F)c([H])c7F)c([H])c6[H])c(C(=O)N([H])[H])c5N([H])[H])C4([H])[H])C([H])([H])[H])nn(C([H])([H])[H])c3[H])C([H])([H])C([H])([H])C([H])([H])[H])c([H])c([H])c2C1([H])[H]

$$$$
57:0:0
     RDKit          3D

 94103  0  0  1  0  0  0  0  0999 V2000
  -28.9780  -22.1960   20.3880 C   0  0  0  0  0  2  0  0  0  0  0  0
  -29.0320  -25.0240   18.0640 C   0  0  0  0  0  3  0  0  0  0  0  0
  -29.4150  -22.9170   18.0090 C   0  0  0  0  0  3  0  0  0  0  0  0
  -28.7870  -24.5370   19.3280 C   0  0  0  0  0  0  0  0  0  0  0  0
  -29.4290  -23.9860   17.2220 N   0  0  0  0  0  0  0  0  0  0  0  0
  -29.0330  -23.1540   19.2770 N   0  0  0  0  0  0  0  0  0  0  0  0
  -28.3540  -25.2710   20.5720 C   0  0  0  0  0  2  0  0  0  0  0  0
  -28.4740  -26.6910   20.3730 O   0  0  0  0  0  0  0  0  0  0  0  0
  -24.6100  -31.9050   23.3180 C   0  0  0  0  0  0  0  0  0  0  0  0
  -27.2990  -27.4140   20.3450 C   0  0  0  0  0  0  0  0  0  0  0  0
  -23.4290  -30.4780   21.6790 C   0  0  0  0  0  3  0  0  0  0  0  0
  -24.9040  -28.9180   20.2970 C   0  0  0  0  0  0  0  0  0  0  0  0
  -25.9610  -30.8300   21.5210 C   0  0  0  0  0  2  0  0  0  0  0  0
  -26.0550  -29.4540   20.8910 C   0  0  0  0  0  0  0  0  0  0  0  0
  -27.2560  -28.7100   20.9040 C   0  0  0  0  0  3  0  0  0  0  0  0
  -26.1300  -26.8870   19.7520 C   0  0  0  0  0  3  0  0  0  0  0  0
  -24.9360  -27.6320   19.7270 C   0  0  0  0  0  3  0  0  0  0  0  0
  -23.6610  -29.7780   20.3130 C   0  0  0  0  0  2  0  0  0  0  0  0
  -24.6840  -31.0870   22.2300 N   0  0  0  0  0  0  0  0  0  0  0  0
  -23.5190  -32.1870   23.8350 O   0  0  0  0  0  0  0  0  0  0  0  0
  -22.7630  -29.4700   22.6450 C   0  0  0  0  0  0  0  0  0  0  0  0
  -21.4440  -29.2770   22.4900 N   0  0  0  0  0  0  0  0  0  0  0  0
  -23.4310  -28.8670   23.4890 O   0  0  0  0  0  0  0  0  0  0  0  0
  -20.9650  -29.8160   21.7820 H   0  0  0  0  0  0  0  0  0  0  0  0
  -18.0680  -28.0670   22.9360 C   0  0  0  0  0  0  0  0  0  0  0  0
  -20.6160  -28.3490   23.2610 C   0  0  0  0  0  3  0  0  0  0  0  0
  -20.7420  -26.9080   22.7170 C   0  0  0  0  0  2  0  0  0  0  0  0
  -19.6660  -26.5560   21.6850 C   0  0  0  0  0  2  0  0  0  0  0  0
  -18.2680  -26.7060   22.2920 C   0  0  0  0  0  2  0  0  0  0  0  0
  -19.1710  -28.8450   23.3760 C   0  0  0  0  0  0  0  0  0  0  0  0
  -18.9300  -30.1190   23.9350 C   0  0  0  0  0  3  0  0  0  0  0  0
  -17.6180  -30.6150   24.0590 C   0  0  0  0  0  3  0  0  0  0  0  0
  -16.5290  -29.8350   23.6340 C   0  0  0  0  0  3  0  0  0  0  0  0
  -16.7550  -28.5630   23.0790 C   0  0  0  0  0  3  0  0  0  0  0  0
  -25.8860  -32.5430   23.9510 C   0  0  0  0  0  3  0  0  0  0  0  0
  -25.5810  -33.9540   24.2300 N   0  0  0  0  0  0  0  0  0  0  0  0
  -25.9390  -34.9780   23.4450 C   0  0  0  0  0  0  0  0  0  0  0  0
  -26.6310  -34.8380   22.4340 O   0  0  0  0  0  0  0  0  0  0  0  0
  -24.9700  -34.1400   25.0110 H   0  0  0  0  0  0  0  0  0  0  0  0
  -24.2340  -36.7730   22.9980 C   0  0  0  0  0  1  0  0  0  0  0  0
  -25.4530  -36.3830   23.8490 C   0  0  0  0  0  3  0  0  0  0  0  0
  -27.5740  -37.2740   24.7040 C   0  0  0  0  0  1  0  0  0  0  0  0
  -26.4980  -37.4220   23.7270 N   0  0  0  0  0  0  0  0  0  0  0  0
  -26.0970  -38.3500   23.8370 H   0  0  0  0  0  0  0  0  0  0  0  0
  -26.3700  -31.8070   25.2590 C   0  0  1  0  0  0  0  0  0  0  0  0
  -25.2480  -31.5880   26.3000 C   0  0  0  0  0  1  0  0  0  0  0  0
  -26.9810  -30.4270   24.9230 C   0  0  0  0  0  1  0  0  0  0  0  0
  -27.4890  -32.6350   25.9370 C   0  0  0  0  0  1  0  0  0  0  0  0
  -28.2590  -20.0440   18.9950 C   0  0  0  0  0  3  0  0  0  0  0  0
  -29.6970  -19.6960   20.6090 C   0  0  0  0  0  3  0  0  0  0  0  0
  -29.0020  -20.7190   20.0050 C   0  0  0  0  0  0  0  0  0  0  0  0
  -28.4570  -18.7320   18.9980 N   0  0  0  0  0  0  0  0  0  0  0  0
  -29.3320  -18.5030   20.0040 N   0  0  0  0  0  0  0  0  0  0  0  0
  -29.1620  -16.8470   21.8060 C   0  0  0  0  0  1  0  0  0  0  0  0
  -29.6540  -17.1160   20.3770 C   0  0  0  0  0  3  0  0  0  0  0  0
  -31.1460  -16.7260   20.1720 C   0  0  0  0  0  2  0  0  0  0  0  0
  -32.0670  -14.5110   19.6460 C   0  0  0  0  0  0  0  0  0  0  0  0
  -31.6870  -12.1550   19.0980 C   0  0  0  0  0  2  0  0  0  0  0  0
  -30.7480  -12.1030   17.8740 C   0  0  0  0  0  2  0  0  0  0  0  0
  -29.2690  -12.1340   18.3120 C   0  0  0  0  0  2  0  0  0  0  0  0
  -28.9620  -13.2700   19.3250 C   0  0  0  0  0  3  0  0  0  0  0  0
  -30.0160  -13.3090   20.4560 C   0  0  0  0  0  2  0  0  0  0  0  0
  -31.3470  -13.3770   19.8390 N   0  0  0  0  0  0  0  0  0  0  0  0
  -33.2690  -14.5010   19.3710 O   0  0  0  0  0  0  0  0  0  0  0  0
  -31.3480  -15.9580   17.8470 C   0  0  0  0  0  1  0  0  0  0  0  0
  -31.3190  -15.5750   19.2680 N   0  0  0  0  0  0  0  0  0  0  0  0
  -26.6690  -14.1720   20.0590 C   0  0  0  0  0  0  0  0  0  0  0  0
  -25.5290  -13.5440   20.4770 C   0  0  0  0  0  0  0  0  0  0  0  0
  -25.8280  -12.1480   20.4820 C   0  0  0  0  0  0  0  0  0  0  0  0
  -27.6000  -13.1700   19.8420 N   0  0  0  0  0  0  0  0  0  0  0  0
  -27.0970  -11.9470   20.1550 N   0  0  0  0  0  0  0  0  0  0  0  0
  -24.9610  -10.9880   20.7190 C   0  0  0  0  0  0  0  0  0  0  0  0
  -25.2590  -10.0370   21.7190 C   0  0  0  0  0  3  0  0  0  0  0  0
  -24.3950   -8.9450   21.9430 C   0  0  0  0  0  3  0  0  0  0  0  0
  -23.2260   -8.7920   21.1580 C   0  0  0  0  0  0  0  0  0  0  0  0
  -22.9460   -9.7280   20.1480 C   0  0  0  0  0  3  0  0  0  0  0  0
  -23.8120  -10.8140   19.9240 C   0  0  0  0  0  3  0  0  0  0  0  0
  -22.3470   -7.7460   21.2850 O   0  0  0  0  0  0  0  0  0  0  0  0
  -22.1250   -7.1320   22.4910 C   0  0  0  0  0  0  0  0  0  0  0  0
  -21.6740   -7.8490   23.6210 C   0  0  0  0  0  3  0  0  0  0  0  0
  -21.3940   -7.1660   24.8220 C   0  0  0  0  0  3  0  0  0  0  0  0
  -21.5550   -5.7700   24.8940 C   0  0  0  0  0  0  0  0  0  0  0  0
  -22.0040   -5.0560   23.7720 C   0  0  0  0  0  3  0  0  0  0  0  0
  -22.2850   -5.7340   22.5720 C   0  0  0  0  0  0  0  0  0  0  0  0
  -22.6920   -5.0350   21.4870 F   0  0  0  0  0  0  0  0  0  0  0  0
  -21.2800   -5.1130   26.0470 F   0  0  0  0  0  0  0  0  0  0  0  0
  -24.2030  -14.1940   20.7520 C   0  0  0  0  0  0  0  0  0  0  0  0
  -23.4230  -13.6270   21.6620 N   0  0  0  0  0  0  0  0  0  0  0  0
  -23.8750  -15.2400   20.1950 O   0  0  0  0  0  0  0  0  0  0  0  0
  -23.7040  -12.7810   22.1290 H   0  0  0  0  0  0  0  0  0  0  0  0
  -22.5340  -14.0460   21.8930 H   0  0  0  0  0  0  0  0  0  0  0  0
  -26.9720  -15.5070   19.8150 N   0  0  0  0  0  0  0  0  0  0  0  0
  -26.2850  -16.2410   19.9440 H   0  0  0  0  0  0  0  0  0  0  0  0
  -27.8250  -15.8350   19.3820 H   0  0  0  0  0  0  0  0  0  0  0  0
  2  4  2  0
  3  6  1  0
  4  7  1  0
  5  3  2  0
  5  2  1  0
  6  4  1  0
  6  1  1  0
  8  7  1  0
  9 20  2  0
 10  8  1  0
 10 15  1  0
 11 19  1  0
 11 21  1  0
 12 18  1  0
 12 14  1  0
 13 19  1  0
 14 15  2  0
 14 13  1  0
 16 10  2  0
 17 16  1  0
 17 12  2  0
 18 11  1  0
 19  9  1  0
 21 23  2  0
 22 21  1  0
 24 22  1  0
 25 34  2  0
 25 30  1  0
 26 22  1  0
 26 30  1  0
 27 26  1  0
 28 29  1  0
 28 27  1  0
 29 25  1  0
 30 31  2  0
 31 32  1  0
 33 32  2  0
 34 33  1  0
 35  9  1  0
 35 36  1  0
 35 45  1  0
 36 39  1  0
 37 41  1  0
 37 36  1  0
 38 37  2  0
 41 40  1  0
 43 44  1  0
 43 41  1  0
 43 42  1  0
 45 48  1  1
 45 46  1  0
 47 45  1  0
 49 52  2  0
 49 51  1  0
 51  1  1  0
 51 50  2  0
 52 53  1  0
 53 55  1  0
 53 50  1  0
 55 54  1  0
 56 55  1  0
 57 63  1  0
 58 63  1  0
 59 60  1  0
 59 58  1  0
 61 60  1  0
 61 70  1  0
 61 62  1  0
 63 62  1  0
 64 57  2  0
 65 66  1  0
 66 57  1  0
 66 56  1  0
 67 68  2  0
 68 69  1  0
 68 87  1  0
 69 72  1  0
 70 67  1  0
 70 71  1  0
 71 69  2  0
 72 73  1  0
 73 74  2  0
 75 78  1  0
 75 74  1  0
 76 75  2  0
 77 76  1  0
 77 72  2  0
 78 79  1  0
 79 84  2  0
 79 80  1  0
 80 81  2  0
 81 82  1  0
 82 86  1  0
 83 82  2  0
 84 83  1  0
 85 84  1  0
 87 88  1  0
 88 91  1  0
 88 90  1  0
 89 87  2  0
 92 93  1  0
 92 67  1  0
 94 92  1  0
M  ISO  4   7 101   8 101  57 100  66 100
M  END
>  <TORSDO>  (58) 
F 21

>  <SCORE>  (58) 
-11.305

>  <name>  (58) 
57

>  <ligand_id>  (58) 
57

>  <original_smiles>  (58) 
[H]c1nn(C([H])(C([H])([H])[H])C([H])([H])N(C(=O)N2C([H])([H])C([H])([H])C([H])([H])C([H])(n3nc(-c4c([H])c([H])c(Oc5c([H])c([H])c(F)c([H])c5F)c([H])c4[H])c(C(=O)N([H])[H])c3N([H])[H])C2([H])[H])C([H])([H])[H])c([H])c1C([H])([H])n1c([H])nc([H])c1C([H])([H])Oc1c([H])c([H])c2c(c1[H])C([H])([H])N(C(=O)C([H])(N([H])C(=O)C([H])(N([H])C([H])([H])[H])C([H])([H])[H])C(C([H])([H])[H])(C([H])([H])[H])C([H])([H])[H])C([H])(C(=O)N([H])C1([H])c3c([H])c([H])c([H])c([H])c3C([H])([H])C([H])([H])C1([H])[H])C2([H])[H]

>  <smiles>  (58) 
[H]c1nn(C([H])(C([H])([H])[H])C([H])([H])N(C(=O)N2C([H])([H])C([H])([H])C([H])([H])C([H])(n3nc(-c4c([H])c([H])c(Oc5c([H])c([H])c(F)c([H])c5F)c([H])c4[H])c(C(=O)N([H])[H])c3N([H])[H])C2([H])[H])C([H])([H])[H])c([H])c1C([H])([H])n1c([H])nc([H])c1C([H])([H])Oc1c([H])c([H])c2c(c1[H])C([H])([H])N(C(=O)C([H])(N([H])C(=O)C([H])(N([H])C([H])([H])[H])C([H])([H])[H])C(C([H])([H])[H])(C([H])([H])[H])C([H])([H])[H])C([H])(C(=O)N([H])C1([H])c3c([H])c([H])c([H])c([H])c3C([H])([H])C([H])([H])C1([H])[H])C2([H])[H]

$$$$
58:0:0
     RDKit          3D

 89 97  0  0  1  0  0  0  0  0999 V2000
  -28.8730  -21.7040   20.1380 N   0  0  0  0  0  0  0  0  0  0  0  0
  -28.3930  -21.4860   21.0070 H   0  0  0  0  0  0  0  0  0  0  0  0
  -29.9120  -20.5630   19.8240 C   0  0  0  0  0  2  0  0  0  0  0  0
  -30.7010  -15.0830   19.5600 C   0  0  0  0  0  0  0  0  0  0  0  0
  -30.5040  -12.7490   18.5640 C   0  0  0  0  0  2  0  0  0  0  0  0
  -29.4120  -12.7350   17.4630 C   0  0  0  0  0  2  0  0  0  0  0  0
  -28.0150  -12.4760   18.0620 C   0  0  0  0  0  2  0  0  0  0  0  0
  -27.7680  -13.3090   19.3450 C   0  0  0  0  0  3  0  0  0  0  0  0
  -28.9750  -13.2310   20.3010 C   0  0  0  0  0  2  0  0  0  0  0  0
  -30.1430  -13.7850   19.5950 N   0  0  0  0  0  0  0  0  0  0  0  0
  -31.8070  -15.1490   18.9990 O   0  0  0  0  0  0  0  0  0  0  0  0
  -30.4850  -17.7830   19.3920 C   0  0  0  0  0  3  0  0  0  0  0  0
  -29.8020  -18.9060   19.9720 C   0  0  0  0  0  0  0  0  0  0  0  0
  -29.2210  -16.8760   20.9460 C   0  0  0  0  0  3  0  0  0  0  0  0
  -28.6240  -16.0650   22.0460 C   0  0  0  0  0  1  0  0  0  0  0  0
  -30.0980  -16.5250   19.9660 N   0  0  0  0  0  0  0  0  0  0  0  0
  -29.0290  -18.2340   20.9020 N   0  0  0  0  0  0  0  0  0  0  0  0
  -28.4160  -18.7190   21.5470 H   0  0  0  0  0  0  0  0  0  0  0  0
  -25.5190  -13.7990   20.4700 C   0  0  0  0  0  0  0  0  0  0  0  0
  -24.5280  -12.9890   20.9440 C   0  0  0  0  0  0  0  0  0  0  0  0
  -24.9720  -11.6490   20.7240 C   0  0  0  0  0  0  0  0  0  0  0  0
  -26.5140  -12.9550   20.0060 N   0  0  0  0  0  0  0  0  0  0  0  0
  -26.2010  -11.6490   20.2150 N   0  0  0  0  0  0  0  0  0  0  0  0
  -24.2700  -10.3720   20.9100 C   0  0  0  0  0  0  0  0  0  0  0  0
  -24.7220   -9.4070   21.8360 C   0  0  0  0  0  3  0  0  0  0  0  0
  -24.0170   -8.1970   22.0120 C   0  0  0  0  0  3  0  0  0  0  0  0
  -22.8440   -7.9430   21.2610 C   0  0  0  0  0  0  0  0  0  0  0  0
  -22.4110   -8.8970   20.3230 C   0  0  0  0  0  3  0  0  0  0  0  0
  -23.1180  -10.0980   20.1460 C   0  0  0  0  0  3  0  0  0  0  0  0
  -22.1100   -6.7850   21.3470 O   0  0  0  0  0  0  0  0  0  0  0  0
  -21.9340   -6.1300   22.5400 C   0  0  0  0  0  0  0  0  0  0  0  0
  -21.3280   -6.7560   23.6500 C   0  0  0  0  0  3  0  0  0  0  0  0
  -21.1040   -6.0260   24.8340 C   0  0  0  0  0  3  0  0  0  0  0  0
  -21.4750   -4.6690   24.9070 C   0  0  0  0  0  0  0  0  0  0  0  0
  -22.0730   -4.0430   23.8000 C   0  0  0  0  0  3  0  0  0  0  0  0
  -22.2990   -4.7710   22.6190 C   0  0  0  0  0  0  0  0  0  0  0  0
  -22.8550   -4.1570   21.5470 F   0  0  0  0  0  0  0  0  0  0  0  0
  -21.2530   -3.9660   26.0410 F   0  0  0  0  0  0  0  0  0  0  0  0
  -23.1940  -13.4350   21.4690 C   0  0  0  0  0  0  0  0  0  0  0  0
  -22.6220  -12.6890   22.4070 N   0  0  0  0  0  0  0  0  0  0  0  0
  -22.6740  -14.4810   21.0830 O   0  0  0  0  0  0  0  0  0  0  0  0
  -23.0580  -11.8420   22.7400 H   0  0  0  0  0  0  0  0  0  0  0  0
  -21.7330  -12.9690   22.7960 H   0  0  0  0  0  0  0  0  0  0  0  0
  -25.6420  -15.1810   20.3590 N   0  0  0  0  0  0  0  0  0  0  0  0
  -24.8510  -15.7800   20.5680 H   0  0  0  0  0  0  0  0  0  0  0  0
  -26.3170  -15.6260   19.7510 H   0  0  0  0  0  0  0  0  0  0  0  0
  -29.1940  -23.2550   20.0860 C   0  0  0  0  0  3  0  0  0  0  0  0
  -28.0850  -24.5590   20.0780 C   0  0  0  0  0  3  0  0  0  0  0  0
  -28.3420  -26.1130   20.1370 O   0  0  0  0  0  0  0  0  0  0  0  0
  -24.6590  -31.7910   23.1540 C   0  0  0  0  0  0  0  0  0  0  0  0
  -27.2750  -27.0990   20.0890 C   0  0  0  0  0  0  0  0  0  0  0  0
  -23.4700  -30.3960   21.5070 C   0  0  0  0  0  3  0  0  0  0  0  0
  -24.9300  -28.8400   20.0710 C   0  0  0  0  0  0  0  0  0  0  0  0
  -26.0240  -30.6790   21.3410 C   0  0  0  0  0  2  0  0  0  0  0  0
  -26.1090  -29.2910   20.6780 C   0  0  0  0  0  0  0  0  0  0  0  0
  -27.2820  -28.4380   20.6660 C   0  0  0  0  0  3  0  0  0  0  0  0
  -26.0650  -26.7570   19.4470 C   0  0  0  0  0  3  0  0  0  0  0  0
  -24.9220  -27.5880   19.4400 C   0  0  0  0  0  3  0  0  0  0  0  0
  -23.6950  -29.7290   20.1260 C   0  0  0  0  0  2  0  0  0  0  0  0
  -24.7380  -30.9780   22.0560 N   0  0  0  0  0  0  0  0  0  0  0  0
  -23.5710  -32.0610   23.6860 O   0  0  0  0  0  0  0  0  0  0  0  0
  -22.8000  -29.3770   22.4640 C   0  0  0  0  0  0  0  0  0  0  0  0
  -21.4710  -29.2030   22.3460 N   0  0  0  0  0  0  0  0  0  0  0  0
  -23.4790  -28.7460   23.2780 O   0  0  0  0  0  0  0  0  0  0  0  0
  -20.9780  -29.7650   21.6640 H   0  0  0  0  0  0  0  0  0  0  0  0
  -18.0930  -28.0060   22.8880 C   0  0  0  0  0  0  0  0  0  0  0  0
  -20.6580  -28.2540   23.1120 C   0  0  0  0  0  3  0  0  0  0  0  0
  -20.7430  -26.8330   22.5110 C   0  0  0  0  0  2  0  0  0  0  0  0
  -19.6220  -26.5320   21.5100 C   0  0  0  0  0  2  0  0  0  0  0  0
  -18.2520  -26.6700   22.1810 C   0  0  0  0  0  2  0  0  0  0  0  0
  -19.2230  -28.7560   23.3110 C   0  0  0  0  0  0  0  0  0  0  0  0
  -19.0170  -30.0060   23.9340 C   0  0  0  0  0  3  0  0  0  0  0  0
  -17.7170  -30.5070   24.1350 C   0  0  0  0  0  3  0  0  0  0  0  0
  -16.6030  -29.7520   23.7260 C   0  0  0  0  0  3  0  0  0  0  0  0
  -16.7920  -28.5020   23.1100 C   0  0  0  0  0  3  0  0  0  0  0  0
  -25.9320  -32.4350   23.7850 C   0  0  0  0  0  3  0  0  0  0  0  0
  -26.4390  -31.6740   25.0720 C   0  0  1  0  0  0  0  0  0  0  0  0
  -25.3370  -31.4350   26.1310 C   0  0  0  0  0  1  0  0  0  0  0  0
  -27.0350  -30.2980   24.6980 C   0  0  0  0  0  1  0  0  0  0  0  0
  -27.5790  -32.4790   25.7390 C   0  0  0  0  0  1  0  0  0  0  0  0
  -25.6110  -33.8340   24.1120 N   0  0  0  0  0  0  0  0  0  0  0  0
  -25.8910  -34.8860   23.3300 C   0  0  0  0  0  0  0  0  0  0  0  0
  -26.5120  -34.7820   22.2700 O   0  0  0  0  0  0  0  0  0  0  0  0
  -25.0540  -33.9880   24.9400 H   0  0  0  0  0  0  0  0  0  0  0  0
  -24.1110  -36.6450   23.0570 C   0  0  0  0  0  1  0  0  0  0  0  0
  -25.4060  -36.2740   23.7980 C   0  0  0  0  0  3  0  0  0  0  0  0
  -27.5660  -37.2150   24.4920 C   0  0  0  0  0  1  0  0  0  0  0  0
  -26.4090  -37.3440   23.6080 N   0  0  0  0  0  0  0  0  0  0  0  0
  -25.9940  -38.2590   23.7620 H   0  0  0  0  0  0  0  0  0  0  0  0
  1  2  1  0
  3 13  1  0
  3  1  1  0
  4 10  1  0
  4 16  1  0
  5 10  1  0
  6  7  1  0
  6  5  1  0
  8  7  1  0
  8 22  1  0
  8  9  1  0
 10  9  1  0
 11  4  2  0
 12 16  1  0
 12 13  2  0
 13 17  1  0
 14 15  1  0
 16 14  1  0
 17 14  1  0
 17 18  1  0
 19 20  2  0
 20 39  1  0
 21 24  1  0
 21 20  1  0
 22 23  1  0
 22 19  1  0
 23 21  2  0
 24 25  1  0
 25 26  2  0
 27 30  1  0
 27 26  1  0
 28 27  2  0
 29 28  1  0
 29 24  2  0
 30 31  1  0
 31 36  2  0
 31 32  1  0
 32 33  2  0
 33 34  1  0
 34 38  1  0
 35 34  2  0
 36 35  1  0
 37 36  1  0
 39 40  1  0
 40 42  1  0
 40 43  1  0
 41 39  2  0
 44 19  1  0
 44 45  1  0
 46 44  1  0
 47  1  1  0
 48 47  2  0
 48 49  1  0
 50 61  2  0
 51 49  1  0
 51 56  1  0
 52 60  1  0
 52 62  1  0
 53 59  1  0
 53 55  1  0
 54 60  1  0
 55 54  1  0
 56 55  2  0
 57 51  2  0
 58 57  1  0
 58 53  2  0
 59 52  1  0
 60 50  1  0
 62 64  2  0
 63 62  1  0
 65 63  1  0
 66 75  2  0
 66 71  1  0
 67 63  1  0
 67 71  1  0
 68 67  1  0
 69 70  1  0
 69 68  1  0
 70 66  1  0
 71 72  2  0
 72 73  1  0
 74 73  2  0
 75 74  1  0
 76 50  1  0
 76 81  1  0
 76 77  1  0
 77 80  1  1
 77 78  1  0
 79 77  1  0
 81 84  1  0
 82 86  1  0
 82 81  1  0
 83 82  2  0
 86 85  1  0
 88 89  1  0
 88 86  1  0
 88 87  1  0
M  ISO  4   4 100  16 100  48 101  49 101
M  END
>  <TORSDO>  (59) 
F 19

>  <SCORE>  (59) 
-11.859

>  <name>  (59) 
58

>  <ligand_id>  (59) 
58

>  <original_smiles>  (59) 
[H]c1c([H])c([H])c2c(c1[H])C([H])([H])C([H])([H])C([H])([H])C2([H])N([H])C(=O)C1([H])N(C(=O)C([H])(N([H])C(=O)C([H])(N([H])C([H])([H])[H])C([H])([H])[H])C(C([H])([H])[H])(C([H])([H])[H])C([H])([H])[H])C([H])([H])c2c([H])c(OC([H])([H])C([H])([H])N([H])C([H])([H])c3c([H])n(C(=O)N4C([H])([H])C([H])([H])C([H])([H])C([H])(n5nc(-c6c([H])c([H])c(Oc7c([H])c([H])c(F)c([H])c7F)c([H])c6[H])c(C(=O)N([H])[H])c5N([H])[H])C4([H])[H])c(C([H])([H])[H])[n+]3[H])c([H])c([H])c2C1([H])[H]

>  <smiles>  (59) 
[H]c1c([H])c([H])c2c(c1[H])C([H])([H])C([H])([H])C([H])([H])C2([H])N([H])C(=O)C1([H])N(C(=O)C([H])(N([H])C(=O)C([H])(N([H])C([H])([H])[H])C([H])([H])[H])C(C([H])([H])[H])(C([H])([H])[H])C([H])([H])[H])C([H])([H])c2c([H])c(OC([H])([H])C([H])([H])N([H])C([H])([H])c3c([H])n(C(=O)N4C([H])([H])C([H])([H])C([H])([H])C([H])(n5nc(-c6c([H])c([H])c(Oc7c([H])c([H])c(F)c([H])c7F)c([H])c6[H])c(C(=O)N([H])[H])c5N([H])[H])C4([H])[H])c(C([H])([H])[H])[n+]3[H])c([H])c([H])c2C1([H])[H]

$$$$
59:0:0
     RDKit          3D

 94102  0  0  1  0  0  0  0  0999 V2000
  -30.1360  -18.9930   20.2350 C   0  0  0  0  0  0  0  0  0  0  0  0
  -30.7870  -19.5870   21.3710 C   0  0  0  0  0  0  0  0  0  0  0  0
  -29.4650  -20.0070   19.6500 N   0  0  0  0  0  0  0  0  0  0  0  0
  -30.4640  -20.8690   21.4920 N   0  0  0  0  0  0  0  0  0  0  0  0
  -29.6700  -21.1590   20.4290 N   0  0  0  0  0  0  0  0  0  0  0  0
  -31.7950  -18.9680   22.3130 C   0  0  1  0  0  0  0  0  0  0  0  0
  -32.1350  -17.7300   21.9600 F   0  0  0  0  0  0  0  0  0  0  0  0
  -32.9220  -19.6810   22.3490 F   0  0  0  0  0  0  0  0  0  0  0  0
  -31.3200  -18.9160   23.5570 F   0  0  0  0  0  0  0  0  0  0  0  0
  -30.3060  -17.5210   19.6020 C   0  0  0  0  0  2  0  0  0  0  0  0
  -30.7720  -14.9660   20.0590 C   0  0  0  0  0  0  0  0  0  0  0  0
  -30.5760  -12.6650   19.0450 C   0  0  0  0  0  2  0  0  0  0  0  0
  -29.5910  -12.6920   17.8540 C   0  0  0  0  0  2  0  0  0  0  0  0
  -28.1320  -12.5160   18.3270 C   0  0  0  0  0  2  0  0  0  0  0  0
  -27.7990  -13.3920   19.5680 C   0  0  0  0  0  3  0  0  0  0  0  0
  -28.9030  -13.2600   20.6390 C   0  0  0  0  0  2  0  0  0  0  0  0
  -30.1540  -13.7180   20.0110 N   0  0  0  0  0  0  0  0  0  0  0  0
  -31.9190  -15.0390   19.6040 O   0  0  0  0  0  0  0  0  0  0  0  0
  -29.0830  -16.2650   21.4060 C   0  0  0  0  0  1  0  0  0  0  0  0
  -30.0440  -16.1590   20.2990 N   0  0  0  0  0  0  0  0  0  0  0  0
  -25.4380  -13.9930   20.3750 C   0  0  0  0  0  0  0  0  0  0  0  0
  -24.3830  -13.2270   20.7790 C   0  0  0  0  0  0  0  0  0  0  0  0
  -24.8320  -11.8710   20.7140 C   0  0  0  0  0  0  0  0  0  0  0  0
  -26.4700  -13.1090   20.0990 N   0  0  0  0  0  0  0  0  0  0  0  0
  -26.1110  -11.8260   20.3580 N   0  0  0  0  0  0  0  0  0  0  0  0
  -24.1010  -10.6140   20.9150 C   0  0  0  0  0  0  0  0  0  0  0  0
  -24.5290   -9.6550   21.8600 C   0  0  0  0  0  3  0  0  0  0  0  0
  -23.8010   -8.4610   22.0490 C   0  0  0  0  0  3  0  0  0  0  0  0
  -22.6280   -8.2170   21.2950 C   0  0  0  0  0  0  0  0  0  0  0  0
  -22.2190   -9.1640   20.3400 C   0  0  0  0  0  3  0  0  0  0  0  0
  -22.9480  -10.3500   20.1490 C   0  0  0  0  0  3  0  0  0  0  0  0
  -21.8730   -7.0730   21.3920 O   0  0  0  0  0  0  0  0  0  0  0  0
  -21.7890   -6.3640   22.5630 C   0  0  0  0  0  0  0  0  0  0  0  0
  -21.2900   -6.9430   23.7500 C   0  0  0  0  0  3  0  0  0  0  0  0
  -21.1560   -6.1600   24.9130 C   0  0  0  0  0  3  0  0  0  0  0  0
  -21.5070   -4.7970   24.8900 C   0  0  0  0  0  0  0  0  0  0  0  0
  -21.9980   -4.2170   23.7070 C   0  0  0  0  0  3  0  0  0  0  0  0
  -22.1350   -4.9970   22.5460 C   0  0  0  0  0  0  0  0  0  0  0  0
  -22.5880   -4.4290   21.4030 F   0  0  0  0  0  0  0  0  0  0  0  0
  -21.3700   -4.0410   26.0040 F   0  0  0  0  0  0  0  0  0  0  0  0
  -23.0000  -13.7120   21.1090 C   0  0  0  0  0  0  0  0  0  0  0  0
  -22.2990  -13.0170   21.9980 N   0  0  0  0  0  0  0  0  0  0  0  0
  -22.5500  -14.7450   20.6110 O   0  0  0  0  0  0  0  0  0  0  0  0
  -22.6780  -12.1850   22.4260 H   0  0  0  0  0  0  0  0  0  0  0  0
  -21.3710  -13.3250   22.2560 H   0  0  0  0  0  0  0  0  0  0  0  0
  -25.5990  -15.3650   20.2000 N   0  0  0  0  0  0  0  0  0  0  0  0
  -24.8290  -16.0120   20.3330 H   0  0  0  0  0  0  0  0  0  0  0  0
  -26.4280  -15.8050   19.8260 H   0  0  0  0  0  0  0  0  0  0  0  0
  -29.4420  -22.6340   20.0080 C   0  0  0  0  0  2  0  0  0  0  0  0
  -27.0780  -23.4990   19.4770 C   0  0  0  0  0  1  0  0  0  0  0  0
  -27.6400  -22.9190   21.8030 C   0  0  0  0  0  1  0  0  0  0  0  0
  -28.2020  -23.5810   20.5210 C   0  0  1  0  0  0  0  0  0  0  0  0
  -28.4450  -25.1740   20.9230 C   0  0  0  0  0  2  0  0  0  0  0  0
  -28.4240  -26.4310   20.0890 O   0  0  0  0  0  0  0  0  0  0  0  0
  -24.6240  -31.7870   23.2930 C   0  0  0  0  0  0  0  0  0  0  0  0
  -27.3170  -27.3130   20.1400 C   0  0  0  0  0  0  0  0  0  0  0  0
  -23.4520  -30.4180   21.6040 C   0  0  0  0  0  3  0  0  0  0  0  0
  -24.9370  -28.9280   20.1450 C   0  0  0  0  0  0  0  0  0  0  0  0
  -25.9910  -30.7740   21.4470 C   0  0  0  0  0  2  0  0  0  0  0  0
  -26.0970  -29.4080   20.7640 C   0  0  0  0  0  0  0  0  0  0  0  0
  -27.2950  -28.6150   20.7480 C   0  0  0  0  0  3  0  0  0  0  0  0
  -26.1360  -26.9060   19.4880 C   0  0  0  0  0  3  0  0  0  0  0  0
  -24.9610  -27.6840   19.4940 C   0  0  0  0  0  3  0  0  0  0  0  0
  -23.6870  -29.7870   20.2050 C   0  0  0  0  0  2  0  0  0  0  0  0
  -24.7080  -31.0100   22.1720 N   0  0  0  0  0  0  0  0  0  0  0  0
  -23.5330  -32.0280   23.8300 O   0  0  0  0  0  0  0  0  0  0  0  0
  -22.8010  -29.3640   22.5340 C   0  0  0  0  0  0  0  0  0  0  0  0
  -21.4900  -29.1260   22.3560 N   0  0  0  0  0  0  0  0  0  0  0  0
  -23.4770  -28.7620   23.3730 O   0  0  0  0  0  0  0  0  0  0  0  0
  -21.0080  -29.6510   21.6390 H   0  0  0  0  0  0  0  0  0  0  0  0
  -18.1700  -27.7360   22.7100 C   0  0  0  0  0  0  0  0  0  0  0  0
  -20.6930  -28.1470   23.0970 C   0  0  0  0  0  3  0  0  0  0  0  0
  -20.9040  -26.7210   22.5370 C   0  0  0  0  0  2  0  0  0  0  0  0
  -19.8740  -26.3330   21.4700 C   0  0  0  0  0  2  0  0  0  0  0  0
  -18.4570  -26.3970   22.0530 C   0  0  0  0  0  2  0  0  0  0  0  0
  -19.2200  -28.5640   23.1890 C   0  0  0  0  0  0  0  0  0  0  0  0
  -18.9000  -29.8130   23.7660 C   0  0  0  0  0  3  0  0  0  0  0  0
  -17.5600  -30.2310   23.8710 C   0  0  0  0  0  3  0  0  0  0  0  0
  -16.5230  -29.4020   23.4120 C   0  0  0  0  0  3  0  0  0  0  0  0
  -16.8280  -28.1560   22.8350 C   0  0  0  0  0  3  0  0  0  0  0  0
  -25.8910  -32.4250   23.9400 C   0  0  0  0  0  3  0  0  0  0  0  0
  -25.5810  -33.8310   24.2330 N   0  0  0  0  0  0  0  0  0  0  0  0
  -25.9510  -34.8680   23.4670 C   0  0  0  0  0  0  0  0  0  0  0  0
  -26.6570  -34.7400   22.4640 O   0  0  0  0  0  0  0  0  0  0  0  0
  -24.9580  -34.0080   25.0060 H   0  0  0  0  0  0  0  0  0  0  0  0
  -24.2590  -36.6730   23.0160 C   0  0  0  0  0  1  0  0  0  0  0  0
  -25.4620  -36.2700   23.8820 C   0  0  0  0  0  3  0  0  0  0  0  0
  -27.5650  -37.1580   24.7870 C   0  0  0  0  0  1  0  0  0  0  0  0
  -26.5090  -37.3090   23.7890 N   0  0  0  0  0  0  0  0  0  0  0  0
  -26.1070  -38.2360   23.8900 H   0  0  0  0  0  0  0  0  0  0  0  0
  -26.3590  -31.6810   25.2510 C   0  0  1  0  0  0  0  0  0  0  0  0
  -25.2300  -31.4750   26.2870 C   0  0  0  0  0  1  0  0  0  0  0  0
  -26.9480  -30.2920   24.9150 C   0  0  0  0  0  1  0  0  0  0  0  0
  -27.4940  -32.4810   25.9320 C   0  0  0  0  0  1  0  0  0  0  0  0
  1  2  1  0
  2  4  2  0
  2  6  1  0
  3  1  2  0
  3  5  1  0
  5  4  1  0
  6  8  1  1
  6  9  1  0
  7  6  1  0
 10  1  1  0
 10 20  1  0
 11 20  1  0
 12 17  1  0
 13 14  1  0
 13 12  1  0
 15 14  1  0
 15 24  1  0
 15 16  1  0
 17 11  1  0
 17 16  1  0
 18 11  2  0
 20 19  1  0
 21 22  2  0
 22 41  1  0
 23 22  1  0
 23 26  1  0
 24 25  1  0
 24 21  1  0
 25 23  2  0
 26 27  1  0
 27 28  2  0
 29 32  1  0
 29 28  1  0
 30 29  2  0
 31 30  1  0
 31 26  2  0
 32 33  1  0
 33 34  1  0
 34 35  2  0
 36 35  1  0
 36 40  1  0
 37 36  2  0
 38 33  2  0
 38 37  1  0
 39 38  1  0
 41 42  1  0
 42 45  1  0
 42 44  1  0
 43 41  2  0
 46 47  1  0
 46 21  1  0
 48 46  1  0
 49  5  1  0
 49 52  1  0
 52 50  1  6
 52 53  1  0
 52 51  1  0
 54 56  1  0
 54 53  1  0
 55 66  2  0
 56 61  1  0
 57 65  1  0
 57 67  1  0
 58 64  1  0
 58 60  1  0
 59 65  1  0
 60 59  1  0
 61 60  2  0
 62 63  1  0
 62 56  2  0
 63 58  2  0
 64 57  1  0
 65 55  1  0
 67 69  2  0
 68 67  1  0
 70 68  1  0
 71 80  2  0
 71 76  1  0
 72 68  1  0
 72 76  1  0
 73 72  1  0
 74 75  1  0
 74 73  1  0
 75 71  1  0
 76 77  2  0
 77 78  1  0
 79 78  2  0
 80 79  1  0
 81 55  1  0
 81 82  1  0
 81 91  1  0
 82 85  1  0
 83 87  1  0
 83 82  1  0
 84 83  2  0
 87 86  1  0
 89 87  1  0
 89 90  1  0
 89 88  1  0
 91 94  1  1
 91 92  1  0
 93 91  1  0
M  ISO  4  11 100  20 100  53 101  54 101
M  END
>  <TORSDO>  (60) 
F 21

>  <SCORE>  (60) 
-13.118

>  <name>  (60) 
59

>  <ligand_id>  (60) 
59

>  <original_smiles>  (60) 
[H]c1c([H])c([H])c2c(c1[H])C([H])([H])C([H])([H])C([H])([H])C2([H])N([H])C(=O)C1([H])N(C(=O)C([H])(N([H])C(=O)C([H])(N([H])C([H])([H])[H])C([H])([H])[H])C(C([H])([H])[H])(C([H])([H])[H])C([H])([H])[H])C([H])([H])c2c([H])c(OC([H])([H])C(C([H])([H])[H])(C([H])([H])[H])C([H])([H])n3nc(C(F)(F)F)c(C([H])([H])N(C(=O)N4C([H])([H])C([H])([H])C([H])([H])C([H])(n5nc(-c6c([H])c([H])c(Oc7c([H])c([H])c(F)c([H])c7F)c([H])c6[H])c(C(=O)N([H])[H])c5N([H])[H])C4([H])[H])C([H])([H])[H])n3)c([H])c([H])c2C1([H])[H]

>  <smiles>  (60) 
[H]c1c([H])c([H])c2c(c1[H])C([H])([H])C([H])([H])C([H])([H])C2([H])N([H])C(=O)C1([H])N(C(=O)C([H])(N([H])C(=O)C([H])(N([H])C([H])([H])[H])C([H])([H])[H])C(C([H])([H])[H])(C([H])([H])[H])C([H])([H])[H])C([H])([H])c2c([H])c(OC([H])([H])C(C([H])([H])[H])(C([H])([H])[H])C([H])([H])n3nc(C(F)(F)F)c(C([H])([H])N(C(=O)N4C([H])([H])C([H])([H])C([H])([H])C([H])(n5nc(-c6c([H])c([H])c(Oc7c([H])c([H])c(F)c([H])c7F)c([H])c6[H])c(C(=O)N([H])[H])c5N([H])[H])C4([H])[H])C([H])([H])[H])n3)c([H])c([H])c2C1([H])[H]

$$$$
60:0:0
     RDKit          3D

 88 96  0  0  1  0  0  0  0  0999 V2000
  -27.9080  -21.5680   19.5160 C   0  0  0  0  0  3  0  0  0  0  0  0
  -29.9000  -20.8960   21.0880 C   0  0  0  0  0  3  0  0  0  0  0  0
  -28.4670  -22.7330   20.2060 C   0  0  0  0  0  0  0  0  0  0  0  0
  -29.3400  -19.7300   20.3830 C   0  0  0  0  0  0  0  0  0  0  0  0
  -29.4960  -22.2710   21.0320 N   0  0  0  0  0  0  0  0  0  0  0  0
  -28.3050  -20.1990   19.5770 N   0  0  0  0  0  0  0  0  0  0  0  0
  -30.7910  -18.2440   18.8380 C   0  0  0  0  0  1  0  0  0  0  0  0
  -30.1020  -18.1660   20.2110 C   0  0  0  0  0  0  0  0  0  0  0  0
  -30.4110  -15.2800   20.2930 C   0  0  0  0  0  0  0  0  0  0  0  0
  -30.3320  -12.8640   19.3680 C   0  0  0  0  0  2  0  0  0  0  0  0
  -29.4010  -12.7010   18.1430 C   0  0  0  0  0  2  0  0  0  0  0  0
  -27.9530  -12.4350   18.5940 C   0  0  0  0  0  2  0  0  0  0  0  0
  -27.5230  -13.3780   19.7460 C   0  0  0  0  0  3  0  0  0  0  0  0
  -28.5850  -13.4980   20.8620 C   0  0  0  0  0  2  0  0  0  0  0  0
  -29.8140  -13.9930   20.2250 N   0  0  0  0  0  0  0  0  0  0  0  0
  -31.6270  -15.2570   20.0530 O   0  0  0  0  0  0  0  0  0  0  0  0
  -29.6930  -16.5690   20.4120 N   0  0  0  0  0  4  0  0  0  0  0  0
  -28.7100  -16.4430   20.6010 H   0  0  0  0  0  0  0  0  0  0  0  0
  -25.1580  -13.9250   20.5250 C   0  0  0  0  0  0  0  0  0  0  0  0
  -24.1020  -13.1420   20.9010 C   0  0  0  0  0  0  0  0  0  0  0  0
  -24.5740  -11.7950   20.8590 C   0  0  0  0  0  0  0  0  0  0  0  0
  -26.2010  -13.0550   20.2650 N   0  0  0  0  0  0  0  0  0  0  0  0
  -25.8630  -11.7660   20.5350 N   0  0  0  0  0  0  0  0  0  0  0  0
  -23.8520  -10.5280   21.0450 C   0  0  0  0  0  0  0  0  0  0  0  0
  -24.2890   -9.5570   21.9730 C   0  0  0  0  0  3  0  0  0  0  0  0
  -23.5640   -8.3580   22.1500 C   0  0  0  0  0  3  0  0  0  0  0  0
  -22.3890   -8.1220   21.3970 C   0  0  0  0  0  0  0  0  0  0  0  0
  -21.9720   -9.0810   20.4580 C   0  0  0  0  0  3  0  0  0  0  0  0
  -22.6960  -10.2700   20.2800 C   0  0  0  0  0  3  0  0  0  0  0  0
  -21.6350   -6.9770   21.4840 O   0  0  0  0  0  0  0  0  0  0  0  0
  -21.5810   -6.2350   22.6370 C   0  0  0  0  0  0  0  0  0  0  0  0
  -21.1320   -6.7860   23.8580 C   0  0  0  0  0  3  0  0  0  0  0  0
  -21.0280   -5.9690   25.0010 C   0  0  0  0  0  3  0  0  0  0  0  0
  -21.3620   -4.6030   24.9250 C   0  0  0  0  0  0  0  0  0  0  0  0
  -21.8040   -4.0530   23.7090 C   0  0  0  0  0  3  0  0  0  0  0  0
  -21.9100   -4.8660   22.5670 C   0  0  0  0  0  0  0  0  0  0  0  0
  -22.3150   -4.3250   21.3930 F   0  0  0  0  0  0  0  0  0  0  0  0
  -21.2540   -3.8170   26.0220 F   0  0  0  0  0  0  0  0  0  0  0  0
  -22.7050  -13.6140   21.1800 C   0  0  0  0  0  0  0  0  0  0  0  0
  -21.9850  -12.9160   22.0500 N   0  0  0  0  0  0  0  0  0  0  0  0
  -22.2610  -14.6370   20.6610 O   0  0  0  0  0  0  0  0  0  0  0  0
  -22.3600  -12.0890   22.4930 H   0  0  0  0  0  0  0  0  0  0  0  0
  -21.0480  -13.2130   22.2810 H   0  0  0  0  0  0  0  0  0  0  0  0
  -25.3130  -15.2960   20.3530 N   0  0  0  0  0  0  0  0  0  0  0  0
  -24.5390  -15.9440   20.4560 H   0  0  0  0  0  0  0  0  0  0  0  0
  -26.1460  -15.7330   19.9780 H   0  0  0  0  0  0  0  0  0  0  0  0
  -27.7370  -24.3220   20.0960 C   0  0  0  0  0  2  0  0  0  0  0  0
  -28.1450  -25.8940   20.2920 O   0  0  0  0  0  0  0  0  0  0  0  0
  -24.6420  -31.8850   23.2470 C   0  0  0  0  0  0  0  0  0  0  0  0
  -27.1580  -27.0110   20.2230 C   0  0  0  0  0  0  0  0  0  0  0  0
  -23.4360  -30.4970   21.6140 C   0  0  0  0  0  3  0  0  0  0  0  0
  -24.8700  -28.8950   20.1830 C   0  0  0  0  0  0  0  0  0  0  0  0
  -26.0030  -30.7020   21.4550 C   0  0  0  0  0  2  0  0  0  0  0  0
  -26.0630  -29.2940   20.8010 C   0  0  0  0  0  0  0  0  0  0  0  0
  -27.2020  -28.3730   20.7970 C   0  0  0  0  0  3  0  0  0  0  0  0
  -25.9360  -26.7660   19.5540 C   0  0  0  0  0  3  0  0  0  0  0  0
  -24.8320  -27.6520   19.5400 C   0  0  0  0  0  3  0  0  0  0  0  0
  -23.6560  -29.8190   20.2350 C   0  0  0  0  0  2  0  0  0  0  0  0
  -24.7160  -31.0550   22.1580 N   0  0  0  0  0  0  0  0  0  0  0  0
  -23.5560  -32.1770   23.7730 O   0  0  0  0  0  0  0  0  0  0  0  0
  -22.7440  -29.5010   22.5800 C   0  0  0  0  0  0  0  0  0  0  0  0
  -21.4130  -29.3330   22.4560 N   0  0  0  0  0  0  0  0  0  0  0  0
  -23.4100  -28.8790   23.4130 O   0  0  0  0  0  0  0  0  0  0  0  0
  -20.9280  -29.8890   21.7650 H   0  0  0  0  0  0  0  0  0  0  0  0
  -18.0340  -28.1100   22.9580 C   0  0  0  0  0  0  0  0  0  0  0  0
  -20.5920  -28.3980   23.2320 C   0  0  0  0  0  3  0  0  0  0  0  0
  -20.7060  -26.9600   22.6710 C   0  0  0  0  0  2  0  0  0  0  0  0
  -19.6110  -26.6190   21.6560 C   0  0  0  0  0  2  0  0  0  0  0  0
  -18.2250  -26.7580   22.2910 C   0  0  0  0  0  2  0  0  0  0  0  0
  -19.1450  -28.8860   23.3850 C   0  0  0  0  0  0  0  0  0  0  0  0
  -18.9100  -30.1480   23.9730 C   0  0  0  0  0  3  0  0  0  0  0  0
  -17.5990  -30.6360   24.1320 C   0  0  0  0  0  3  0  0  0  0  0  0
  -16.5040  -29.8580   23.7180 C   0  0  0  0  0  3  0  0  0  0  0  0
  -16.7230  -28.5970   23.1380 C   0  0  0  0  0  3  0  0  0  0  0  0
  -25.9190  -32.5240   23.8740 C   0  0  0  0  0  3  0  0  0  0  0  0
  -25.6100  -33.9250   24.2060 N   0  0  0  0  0  0  0  0  0  0  0  0
  -25.9240  -34.9830   23.4450 C   0  0  0  0  0  0  0  0  0  0  0  0
  -26.5700  -34.8800   22.4000 O   0  0  0  0  0  0  0  0  0  0  0  0
  -25.0350  -34.0790   25.0220 H   0  0  0  0  0  0  0  0  0  0  0  0
  -24.1840  -36.7770   23.1500 C   0  0  0  0  0  1  0  0  0  0  0  0
  -25.4510  -36.3730   23.9190 C   0  0  0  0  0  3  0  0  0  0  0  0
  -27.6110  -37.2650   24.6760 C   0  0  0  0  0  1  0  0  0  0  0  0
  -26.4760  -37.4290   23.7710 N   0  0  0  0  0  0  0  0  0  0  0  0
  -26.0720  -38.3470   23.9330 H   0  0  0  0  0  0  0  0  0  0  0  0
  -26.4230  -31.7610   25.1610 C   0  0  1  0  0  0  0  0  0  0  0  0
  -25.3230  -31.5450   26.2270 C   0  0  0  0  0  1  0  0  0  0  0  0
  -26.9950  -30.3740   24.7940 C   0  0  0  0  0  1  0  0  0  0  0  0
  -27.5780  -32.5520   25.8180 C   0  0  0  0  0  1  0  0  0  0  0  0
  1  6  2  0
  1  3  1  0
  3  5  2  0
  4  2  2  0
  5  2  1  0
  6  4  1  0
  7  8  1  0
  8  4  1  0
  8 17  2  0
  9 17  1  0
 10 15  1  0
 11 12  1  0
 11 10  1  0
 13 12  1  0
 13 22  1  0
 13 14  1  0
 15  9  1  0
 15 14  1  0
 16  9  2  0
 17 18  1  0
 19 20  2  0
 20 39  1  0
 21 20  1  0
 21 24  1  0
 22 19  1  0
 22 23  1  0
 23 21  2  0
 24 25  1  0
 25 26  2  0
 27 30  1  0
 27 26  1  0
 28 27  2  0
 29 28  1  0
 29 24  2  0
 30 31  1  0
 31 32  1  0
 32 33  2  0
 34 33  1  0
 34 38  1  0
 35 34  2  0
 36 31  2  0
 36 35  1  0
 37 36  1  0
 39 40  1  0
 40 43  1  0
 40 42  1  0
 41 39  2  0
 44 45  1  0
 44 19  1  0
 46 44  1  0
 47  3  1  0
 47 48  1  0
 49 60  2  0
 50 48  1  0
 50 55  1  0
 51 59  1  0
 51 61  1  0
 52 58  1  0
 52 54  1  0
 53 59  1  0
 54 53  1  0
 55 54  2  0
 56 50  2  0
 57 56  1  0
 57 52  2  0
 58 51  1  0
 59 49  1  0
 61 63  2  0
 62 61  1  0
 64 62  1  0
 65 74  2  0
 65 70  1  0
 66 62  1  0
 66 70  1  0
 67 66  1  0
 68 69  1  0
 68 67  1  0
 69 65  1  0
 70 71  2  0
 71 72  1  0
 73 72  2  0
 74 73  1  0
 75 49  1  0
 75 76  1  0
 75 85  1  0
 76 79  1  0
 77 81  1  0
 77 76  1  0
 78 77  2  0
 81 80  1  0
 83 81  1  0
 83 84  1  0
 83 82  1  0
 85 88  1  1
 85 86  1  0
 87 85  1  0
M  ISO  4   9 100  17 100  47 101  48 101
M  END
>  <TORSDO>  (61) 
F 18

>  <SCORE>  (61) 
-15.726

>  <name>  (61) 
60

>  <ligand_id>  (61) 
60

>  <original_smiles>  (61) 
[H]c1nc(C([H])(N([H])C(=O)N2C([H])([H])C([H])([H])C([H])([H])C([H])(n3nc(-c4c([H])c([H])c(Oc5c([H])c([H])c(F)c([H])c5F)c([H])c4[H])c(C(=O)N([H])[H])c3N([H])[H])C2([H])[H])C([H])([H])[H])c([H])nc1C([H])([H])Oc1c([H])c([H])c2c(c1[H])C([H])([H])N(C(=O)C([H])(N([H])C(=O)C([H])(N([H])C([H])([H])[H])C([H])([H])[H])C(C([H])([H])[H])(C([H])([H])[H])C([H])([H])[H])C([H])(C(=O)N([H])C1([H])c3c([H])c([H])c([H])c([H])c3C([H])([H])C([H])([H])C1([H])[H])C2([H])[H]

>  <smiles>  (61) 
[H]c1nc(C([H])(N([H])C(=O)N2C([H])([H])C([H])([H])C([H])([H])C([H])(n3nc(-c4c([H])c([H])c(Oc5c([H])c([H])c(F)c([H])c5F)c([H])c4[H])c(C(=O)N([H])[H])c3N([H])[H])C2([H])[H])C([H])([H])[H])c([H])nc1C([H])([H])Oc1c([H])c([H])c2c(c1[H])C([H])([H])N(C(=O)C([H])(N([H])C(=O)C([H])(N([H])C([H])([H])[H])C([H])([H])[H])C(C([H])([H])[H])(C([H])([H])[H])C([H])([H])[H])C([H])(C(=O)N([H])C1([H])c3c([H])c([H])c([H])c([H])c3C([H])([H])C([H])([H])C1([H])[H])C2([H])[H]

$$$$
61:0:0
     RDKit          3D

 91 99  0  0  1  0  0  0  0  0999 V2000
  -28.5760  -20.2500   20.2770 C   0  0  0  0  0  3  0  0  0  0  0  0
  -29.1670  -21.6250   20.2430 C   0  0  0  0  0  0  0  0  0  0  0  0
  -29.5410  -19.1910   20.1490 C   0  0  0  0  0  0  0  0  0  0  0  0
  -30.4770  -21.3550   20.2130 N   0  0  0  0  0  0  0  0  0  0  0  0
  -30.6910  -19.9900   20.0620 N   0  0  0  0  0  0  0  0  0  0  0  0
  -33.1560  -19.9810   20.5200 C   0  0  0  0  0  1  0  0  0  0  0  0
  -32.2630  -20.1390   18.1650 C   0  0  0  0  0  1  0  0  0  0  0  0
  -32.0110  -19.5780   19.5830 C   0  0  0  0  0  3  0  0  0  0  0  0
  -28.0940  -17.2840   19.1690 C   0  0  0  0  0  1  0  0  0  0  0  0
  -29.5010  -17.5620   19.7220 C   0  0  0  0  0  3  0  0  0  0  0  0
  -30.5240  -15.0200   20.2630 C   0  0  0  0  0  0  0  0  0  0  0  0
  -30.3460  -12.6400   19.3890 C   0  0  0  0  0  2  0  0  0  0  0  0
  -29.4410  -12.6740   18.1390 C   0  0  0  0  0  2  0  0  0  0  0  0
  -27.9600  -12.5120   18.5150 C   0  0  0  0  0  2  0  0  0  0  0  0
  -27.5720  -13.3490   19.7580 C   0  0  0  0  0  3  0  0  0  0  0  0
  -28.6340  -13.3700   20.8830 C   0  0  0  0  0  2  0  0  0  0  0  0
  -29.9190  -13.7560   20.2880 N   0  0  0  0  0  0  0  0  0  0  0  0
  -31.6830  -15.0650   19.8400 O   0  0  0  0  0  0  0  0  0  0  0  0
  -29.8040  -16.2270   20.5390 N   0  0  0  0  0  0  0  0  0  0  0  0
  -29.0390  -16.0270   21.1620 H   0  0  0  0  0  0  0  0  0  0  0  0
  -25.1930  -13.8970   20.4890 C   0  0  0  0  0  0  0  0  0  0  0  0
  -24.1370  -13.1160   20.8690 C   0  0  0  0  0  0  0  0  0  0  0  0
  -24.6110  -11.7680   20.8410 C   0  0  0  0  0  0  0  0  0  0  0  0
  -26.2410  -13.0250   20.2520 N   0  0  0  0  0  0  0  0  0  0  0  0
  -25.9030  -11.7370   20.5280 N   0  0  0  0  0  0  0  0  0  0  0  0
  -23.8850  -10.5060   21.0330 C   0  0  0  0  0  0  0  0  0  0  0  0
  -24.3130   -9.5380   21.9660 C   0  0  0  0  0  3  0  0  0  0  0  0
  -23.5790   -8.3440   22.1470 C   0  0  0  0  0  3  0  0  0  0  0  0
  -22.4010   -8.1120   21.3950 C   0  0  0  0  0  0  0  0  0  0  0  0
  -21.9960   -9.0700   20.4480 C   0  0  0  0  0  3  0  0  0  0  0  0
  -22.7320  -10.2520   20.2650 C   0  0  0  0  0  3  0  0  0  0  0  0
  -21.6430   -6.9700   21.4810 O   0  0  0  0  0  0  0  0  0  0  0  0
  -21.5940   -6.2270   22.6340 C   0  0  0  0  0  0  0  0  0  0  0  0
  -21.1760   -6.7830   23.8620 C   0  0  0  0  0  3  0  0  0  0  0  0
  -21.0690   -5.9650   25.0050 C   0  0  0  0  0  3  0  0  0  0  0  0
  -21.3790   -4.5940   24.9220 C   0  0  0  0  0  0  0  0  0  0  0  0
  -21.7890   -4.0370   23.6990 C   0  0  0  0  0  3  0  0  0  0  0  0
  -21.8930   -4.8530   22.5580 C   0  0  0  0  0  0  0  0  0  0  0  0
  -22.2700   -4.3070   21.3770 F   0  0  0  0  0  0  0  0  0  0  0  0
  -21.2690   -3.8070   26.0200 F   0  0  0  0  0  0  0  0  0  0  0  0
  -22.7410  -13.5920   21.1440 C   0  0  0  0  0  0  0  0  0  0  0  0
  -22.0140  -12.8880   22.0050 N   0  0  0  0  0  0  0  0  0  0  0  0
  -22.3010  -14.6170   20.6260 O   0  0  0  0  0  0  0  0  0  0  0  0
  -22.3810  -12.0550   22.4400 H   0  0  0  0  0  0  0  0  0  0  0  0
  -21.0730  -13.1830   22.2250 H   0  0  0  0  0  0  0  0  0  0  0  0
  -25.3530  -15.2670   20.3090 N   0  0  0  0  0  0  0  0  0  0  0  0
  -24.5880  -15.9310   20.3620 H   0  0  0  0  0  0  0  0  0  0  0  0
  -26.2070  -15.6810   19.9600 H   0  0  0  0  0  0  0  0  0  0  0  0
  -28.7060  -23.2140   19.8560 C   0  0  0  0  0  2  0  0  0  0  0  0
  -28.1240  -24.5670   20.7230 C   0  0  0  0  0  2  0  0  0  0  0  0
  -28.2790  -26.1070   20.3620 O   0  0  0  0  0  0  0  0  0  0  0  0
  -24.6130  -31.8790   23.2520 C   0  0  0  0  0  0  0  0  0  0  0  0
  -27.2150  -27.0980   20.3250 C   0  0  0  0  0  0  0  0  0  0  0  0
  -23.4310  -30.4600   21.6210 C   0  0  0  0  0  3  0  0  0  0  0  0
  -24.8950  -28.8600   20.2310 C   0  0  0  0  0  0  0  0  0  0  0  0
  -25.9850  -30.7280   21.4570 C   0  0  0  0  0  2  0  0  0  0  0  0
  -26.0740  -29.3210   20.8350 C   0  0  0  0  0  0  0  0  0  0  0  0
  -27.2360  -28.4550   20.8610 C   0  0  0  0  0  3  0  0  0  0  0  0
  -26.0140  -26.7460   19.6820 C   0  0  0  0  0  3  0  0  0  0  0  0
  -24.8810  -27.5900   19.6370 C   0  0  0  0  0  3  0  0  0  0  0  0
  -23.6700  -29.7610   20.2560 C   0  0  0  0  0  2  0  0  0  0  0  0
  -24.6980  -31.0460   22.1660 N   0  0  0  0  0  0  0  0  0  0  0  0
  -23.5220  -32.1640   23.7700 O   0  0  0  0  0  0  0  0  0  0  0  0
  -22.7490  -29.4610   22.5880 C   0  0  0  0  0  0  0  0  0  0  0  0
  -21.4210  -29.2890   22.4570 N   0  0  0  0  0  0  0  0  0  0  0  0
  -23.4170  -28.8370   23.4160 O   0  0  0  0  0  0  0  0  0  0  0  0
  -20.9400  -29.8400   21.7590 H   0  0  0  0  0  0  0  0  0  0  0  0
  -18.0330  -28.0960   22.9560 C   0  0  0  0  0  0  0  0  0  0  0  0
  -20.5930  -28.3580   23.2280 C   0  0  0  0  0  3  0  0  0  0  0  0
  -20.6970  -26.9250   22.6550 C   0  0  0  0  0  2  0  0  0  0  0  0
  -19.5950  -26.6000   21.6420 C   0  0  0  0  0  2  0  0  0  0  0  0
  -18.2100  -26.7460   22.2800 C   0  0  0  0  0  2  0  0  0  0  0  0
  -19.1510  -28.8610   23.3810 C   0  0  0  0  0  0  0  0  0  0  0  0
  -18.9320  -30.1260   23.9710 C   0  0  0  0  0  3  0  0  0  0  0  0
  -17.6260  -30.6260   24.1400 C   0  0  0  0  0  3  0  0  0  0  0  0
  -16.5220  -29.8580   23.7280 C   0  0  0  0  0  3  0  0  0  0  0  0
  -16.7260  -28.5940   23.1440 C   0  0  0  0  0  3  0  0  0  0  0  0
  -25.8860  -32.5240   23.8900 C   0  0  0  0  0  3  0  0  0  0  0  0
  -26.3900  -31.7620   25.1790 C   0  0  1  0  0  0  0  0  0  0  0  0
  -25.2840  -31.5260   26.2350 C   0  0  0  0  0  1  0  0  0  0  0  0
  -26.9840  -30.3860   24.8050 C   0  0  0  0  0  1  0  0  0  0  0  0
  -27.5420  -32.5580   25.8390 C   0  0  0  0  0  1  0  0  0  0  0  0
  -25.5720  -33.9270   24.2080 N   0  0  0  0  0  0  0  0  0  0  0  0
  -25.9050  -34.9770   23.4480 C   0  0  0  0  0  0  0  0  0  0  0  0
  -26.5790  -34.8640   22.4170 O   0  0  0  0  0  0  0  0  0  0  0  0
  -24.9900  -34.0970   25.0160 H   0  0  0  0  0  0  0  0  0  0  0  0
  -24.1790  -36.7700   23.0760 C   0  0  0  0  0  1  0  0  0  0  0  0
  -25.4180  -36.3700   23.8940 C   0  0  0  0  0  3  0  0  0  0  0  0
  -27.5470  -37.2560   24.7300 C   0  0  0  0  0  1  0  0  0  0  0  0
  -26.4500  -37.4220   23.7790 N   0  0  0  0  0  0  0  0  0  0  0  0
  -26.0490  -38.3430   23.9250 H   0  0  0  0  0  0  0  0  0  0  0  0
  2  1  1  0
  3  1  2  0
  4  2  2  0
  5  3  1  0
  5  4  1  0
  7  8  1  0
  8  5  1  0
  8  6  1  0
 10  9  1  0
 10  3  1  0
 10 19  1  0
 11 17  1  0
 11 19  1  0
 12 17  1  0
 13 14  1  0
 13 12  1  0
 15 14  1  0
 15 24  1  0
 15 16  1  0
 17 16  1  0
 18 11  2  0
 19 20  1  0
 21 22  2  0
 22 41  1  0
 23 22  1  0
 23 26  1  0
 24 21  1  0
 24 25  1  0
 25 23  2  0
 26 27  1  0
 27 28  2  0
 29 32  1  0
 29 28  1  0
 30 29  2  0
 31 30  1  0
 31 26  2  0
 32 33  1  0
 33 34  1  0
 34 35  2  0
 36 35  1  0
 36 40  1  0
 37 36  2  0
 38 33  2  0
 38 37  1  0
 39 38  1  0
 41 42  1  0
 42 45  1  0
 42 44  1  0
 43 41  2  0
 46 47  1  0
 46 21  1  0
 48 46  1  0
 49  2  1  0
 49 50  1  0
 51 50  1  0
 52 63  2  0
 53 51  1  0
 53 58  1  0
 54 62  1  0
 54 64  1  0
 55 61  1  0
 55 57  1  0
 56 62  1  0
 57 58  2  0
 57 56  1  0
 59 53  2  0
 60 59  1  0
 60 55  2  0
 61 54  1  0
 62 52  1  0
 64 66  2  0
 65 64  1  0
 67 65  1  0
 68 77  2  0
 68 73  1  0
 69 65  1  0
 69 73  1  0
 70 69  1  0
 71 72  1  0
 71 70  1  0
 72 68  1  0
 73 74  2  0
 74 75  1  0
 76 75  2  0
 77 76  1  0
 78 52  1  0
 78 83  1  0
 78 79  1  0
 79 82  1  1
 79 80  1  0
 81 79  1  0
 83 86  1  0
 84 88  1  0
 84 83  1  0
 85 84  2  0
 88 87  1  0
 90 88  1  0
 90 91  1  0
 90 89  1  0
M  ISO  4  11 100  19 100  50 101  51 101
M  END
>  <TORSDO>  (62) 
F 20

>  <SCORE>  (62) 
-15.096

>  <name>  (62) 
61

>  <ligand_id>  (62) 
61

>  <original_smiles>  (62) 
[H]c1c([H])c([H])c2c(c1[H])C([H])([H])C([H])([H])C([H])([H])C2([H])N([H])C(=O)C1([H])N(C(=O)C([H])(N([H])C(=O)C([H])(N([H])C([H])([H])[H])C([H])([H])[H])C(C([H])([H])[H])(C([H])([H])[H])C([H])([H])[H])C([H])([H])c2c([H])c(OC([H])([H])C([H])([H])c3nn(C([H])(C([H])([H])[H])C([H])([H])[H])c(C([H])(N([H])C(=O)N4C([H])([H])C([H])([H])C([H])([H])C([H])(n5nc(-c6c([H])c([H])c(Oc7c([H])c([H])c(F)c([H])c7F)c([H])c6[H])c(C(=O)N([H])[H])c5N([H])[H])C4([H])[H])C([H])([H])[H])c3[H])c([H])c([H])c2C1([H])[H]

>  <smiles>  (62) 
[H]c1c([H])c([H])c2c(c1[H])C([H])([H])C([H])([H])C([H])([H])C2([H])N([H])C(=O)C1([H])N(C(=O)C([H])(N([H])C(=O)C([H])(N([H])C([H])([H])[H])C([H])([H])[H])C(C([H])([H])[H])(C([H])([H])[H])C([H])([H])[H])C([H])([H])c2c([H])c(OC([H])([H])C([H])([H])c3nn(C([H])(C([H])([H])[H])C([H])([H])[H])c(C([H])(N([H])C(=O)N4C([H])([H])C([H])([H])C([H])([H])C([H])(n5nc(-c6c([H])c([H])c(Oc7c([H])c([H])c(F)c([H])c7F)c([H])c6[H])c(C(=O)N([H])[H])c5N([H])[H])C4([H])[H])C([H])([H])[H])c3[H])c([H])c([H])c2C1([H])[H]

$$$$
62:0:0
     RDKit          3D

 87 95  0  0  1  0  0  0  0  0999 V2000
  -28.9490  -21.3870   21.3010 C   0  0  0  0  0  3  0  0  0  0  0  0
  -29.0570  -19.9910   19.0690 C   0  0  0  0  0  3  0  0  0  0  0  0
  -28.6500  -22.3180   20.1820 C   0  0  0  0  0  0  0  0  0  0  0  0
  -29.3830  -19.0640   20.1850 C   0  0  0  0  0  0  0  0  0  0  0  0
  -28.7360  -21.4230   19.0720 N   0  0  0  0  0  0  0  0  0  0  0  0
  -29.2710  -19.9570   21.2970 N   0  0  0  0  0  0  0  0  0  0  0  0
  -29.3580  -17.2160   20.2910 C   0  0  1  0  0  0  0  0  0  0  0  0
  -29.0510  -17.0860   21.5820 F   0  0  0  0  0  0  0  0  0  0  0  0
  -28.2130  -16.9990   19.6420 F   0  0  0  0  0  0  0  0  0  0  0  0
  -30.3010  -15.6590   19.9520 C   0  0  0  0  0  0  0  0  0  0  0  0
  -30.3970  -13.1520   19.0520 C   0  0  0  0  0  2  0  0  0  0  0  0
  -29.4190  -12.8530   17.8770 C   0  0  0  0  0  2  0  0  0  0  0  0
  -28.0140  -12.4980   18.3940 C   0  0  0  0  0  2  0  0  0  0  0  0
  -27.5830  -13.4450   19.5370 C   0  0  0  0  0  3  0  0  0  0  0  0
  -28.6840  -13.6610   20.5980 C   0  0  0  0  0  2  0  0  0  0  0  0
  -29.8450  -14.2770   19.9220 N   0  0  0  0  0  0  0  0  0  0  0  0
  -31.5040  -15.6720   19.6230 O   0  0  0  0  0  0  0  0  0  0  0  0
  -25.2670  -13.9370   20.4670 C   0  0  0  0  0  0  0  0  0  0  0  0
  -24.2370  -13.1370   20.8730 C   0  0  0  0  0  0  0  0  0  0  0  0
  -24.7130  -11.7930   20.7650 C   0  0  0  0  0  0  0  0  0  0  0  0
  -26.2980  -13.0840   20.1230 N   0  0  0  0  0  0  0  0  0  0  0  0
  -25.9840  -11.7840   20.3700 N   0  0  0  0  0  0  0  0  0  0  0  0
  -24.0080  -10.5190   20.9560 C   0  0  0  0  0  0  0  0  0  0  0  0
  -24.4580   -9.5540   21.8840 C   0  0  0  0  0  3  0  0  0  0  0  0
  -23.7480   -8.3470   22.0650 C   0  0  0  0  0  3  0  0  0  0  0  0
  -22.5720   -8.0960   21.3190 C   0  0  0  0  0  0  0  0  0  0  0  0
  -22.1400   -9.0510   20.3800 C   0  0  0  0  0  3  0  0  0  0  0  0
  -22.8510  -10.2480   20.1980 C   0  0  0  0  0  3  0  0  0  0  0  0
  -21.8320   -6.9420   21.4090 O   0  0  0  0  0  0  0  0  0  0  0  0
  -21.7420   -6.2340   22.5810 C   0  0  0  0  0  0  0  0  0  0  0  0
  -21.2310   -6.8130   23.7630 C   0  0  0  0  0  3  0  0  0  0  0  0
  -21.0900   -6.0310   24.9260 C   0  0  0  0  0  3  0  0  0  0  0  0
  -21.4500   -4.6700   24.9090 C   0  0  0  0  0  0  0  0  0  0  0  0
  -21.9540   -4.0900   23.7310 C   0  0  0  0  0  3  0  0  0  0  0  0
  -22.0960   -4.8700   22.5700 C   0  0  0  0  0  0  0  0  0  0  0  0
  -22.5610   -4.3000   21.4320 F   0  0  0  0  0  0  0  0  0  0  0  0
  -21.3080   -3.9160   26.0240 F   0  0  0  0  0  0  0  0  0  0  0  0
  -22.8560  -13.5920   21.2430 C   0  0  0  0  0  0  0  0  0  0  0  0
  -22.1880  -12.8640   22.1300 N   0  0  0  0  0  0  0  0  0  0  0  0
  -22.3800  -14.6280   20.7790 O   0  0  0  0  0  0  0  0  0  0  0  0
  -22.5890  -12.0260   22.5250 H   0  0  0  0  0  0  0  0  0  0  0  0
  -21.2640  -13.1500   22.4200 H   0  0  0  0  0  0  0  0  0  0  0  0
  -25.4070  -15.3160   20.3290 N   0  0  0  0  0  0  0  0  0  0  0  0
  -24.6430  -15.9550   20.5200 H   0  0  0  0  0  0  0  0  0  0  0  0
  -26.2310  -15.7810   19.9700 H   0  0  0  0  0  0  0  0  0  0  0  0
  -27.8410  -23.9810   20.1480 C   0  0  0  0  0  2  0  0  0  0  0  0
  -28.1580  -25.6740   20.3040 O   0  0  0  0  0  0  0  0  0  0  0  0
  -24.6740  -31.9040   23.2460 C   0  0  0  0  0  0  0  0  0  0  0  0
  -27.1890  -26.8700   20.2480 C   0  0  0  0  0  0  0  0  0  0  0  0
  -23.4750  -30.5080   21.6150 C   0  0  0  0  0  3  0  0  0  0  0  0
  -24.9150  -28.8680   20.1970 C   0  0  0  0  0  0  0  0  0  0  0  0
  -26.0510  -30.6630   21.4780 C   0  0  0  0  0  2  0  0  0  0  0  0
  -26.1130  -29.2360   20.8230 C   0  0  0  0  0  0  0  0  0  0  0  0
  -27.2370  -28.2640   20.8170 C   0  0  0  0  0  3  0  0  0  0  0  0
  -25.9580  -26.7000   19.5670 C   0  0  0  0  0  3  0  0  0  0  0  0
  -24.8730  -27.6250   19.5450 C   0  0  0  0  0  3  0  0  0  0  0  0
  -23.7070  -29.8120   20.2430 C   0  0  0  0  0  2  0  0  0  0  0  0
  -24.7570  -31.0560   22.1650 N   0  0  0  0  0  0  0  0  0  0  0  0
  -23.5840  -32.2040   23.7630 O   0  0  0  0  0  0  0  0  0  0  0  0
  -22.7650  -29.5290   22.5890 C   0  0  0  0  0  0  0  0  0  0  0  0
  -21.4340  -29.3660   22.4610 N   0  0  0  0  0  0  0  0  0  0  0  0
  -23.4220  -28.9130   23.4310 O   0  0  0  0  0  0  0  0  0  0  0  0
  -20.9540  -29.9120   21.7590 H   0  0  0  0  0  0  0  0  0  0  0  0
  -18.0520  -28.1390   22.9650 C   0  0  0  0  0  0  0  0  0  0  0  0
  -20.6090  -28.4320   23.2360 C   0  0  0  0  0  3  0  0  0  0  0  0
  -20.7240  -26.9930   22.6770 C   0  0  0  0  0  2  0  0  0  0  0  0
  -19.6310  -26.6520   21.6610 C   0  0  0  0  0  2  0  0  0  0  0  0
  -18.2440  -26.7880   22.2960 C   0  0  0  0  0  2  0  0  0  0  0  0
  -19.1610  -28.9170   23.3920 C   0  0  0  0  0  0  0  0  0  0  0  0
  -18.9250  -30.1780   23.9810 C   0  0  0  0  0  3  0  0  0  0  0  0
  -17.6130  -30.6610   24.1450 C   0  0  0  0  0  3  0  0  0  0  0  0
  -16.5190  -29.8830   23.7310 C   0  0  0  0  0  3  0  0  0  0  0  0
  -16.7400  -28.6220   23.1470 C   0  0  0  0  0  3  0  0  0  0  0  0
  -25.9420  -32.5500   23.8800 C   0  0  0  0  0  3  0  0  0  0  0  0
  -25.6250  -33.9530   24.2130 N   0  0  0  0  0  0  0  0  0  0  0  0
  -25.9380  -35.0140   23.4580 C   0  0  0  0  0  0  0  0  0  0  0  0
  -26.5810  -34.9160   22.4100 O   0  0  0  0  0  0  0  0  0  0  0  0
  -25.0490  -34.1010   25.0280 H   0  0  0  0  0  0  0  0  0  0  0  0
  -24.1850  -36.8050   23.1860 C   0  0  0  0  0  1  0  0  0  0  0  0
  -25.4660  -36.4040   23.9370 C   0  0  0  0  0  3  0  0  0  0  0  0
  -27.6280  -37.3130   24.6690 C   0  0  0  0  0  1  0  0  0  0  0  0
  -26.4850  -37.4640   23.7720 N   0  0  0  0  0  0  0  0  0  0  0  0
  -26.0790  -38.3830   23.9290 H   0  0  0  0  0  0  0  0  0  0  0  0
  -26.4410  -31.7920   25.1730 C   0  0  1  0  0  0  0  0  0  0  0  0
  -25.3370  -31.5750   26.2350 C   0  0  0  0  0  1  0  0  0  0  0  0
  -27.0200  -30.4050   24.8140 C   0  0  0  0  0  1  0  0  0  0  0  0
  -27.5910  -32.5880   25.8350 C   0  0  0  0  0  1  0  0  0  0  0  0
  2  5  2  0
  2  4  1  0
  3  1  2  0
  4  7  1  0
  4  6  2  0
  5  3  1  0
  6  1  1  0
  7  8  1  1
  9  7  1  0
 10  7  1  0
 11 16  1  0
 12 13  1  0
 12 11  1  0
 14 13  1  0
 14 21  1  0
 14 15  1  0
 16 10  1  0
 16 15  1  0
 17 10  2  0
 18 19  2  0
 19 38  1  0
 20 19  1  0
 20 23  1  0
 21 22  1  0
 21 18  1  0
 22 20  2  0
 23 24  1  0
 24 25  2  0
 26 29  1  0
 26 25  1  0
 27 26  2  0
 28 27  1  0
 28 23  2  0
 29 30  1  0
 30 31  1  0
 31 32  2  0
 33 32  1  0
 33 37  1  0
 34 33  2  0
 35 30  2  0
 35 34  1  0
 36 35  1  0
 38 39  1  0
 39 42  1  0
 39 41  1  0
 40 38  2  0
 43 18  1  0
 43 44  1  0
 45 43  1  0
 46  3  1  0
 46 47  1  0
 48 59  2  0
 49 47  1  0
 49 54  1  0
 50 58  1  0
 50 60  1  0
 51 57  1  0
 51 53  1  0
 52 58  1  0
 53 52  1  0
 54 53  2  0
 55 49  2  0
 56 55  1  0
 56 51  2  0
 57 50  1  0
 58 48  1  0
 60 62  2  0
 61 60  1  0
 63 61  1  0
 64 73  2  0
 64 69  1  0
 65 61  1  0
 65 69  1  0
 66 65  1  0
 67 68  1  0
 67 66  1  0
 68 64  1  0
 69 70  2  0
 70 71  1  0
 72 71  2  0
 73 72  1  0
 74 48  1  0
 74 75  1  0
 74 84  1  0
 75 78  1  0
 76 80  1  0
 76 75  1  0
 77 76  2  0
 80 79  1  0
 82 83  1  0
 82 80  1  0
 82 81  1  0
 84 87  1  1
 84 85  1  0
 86 84  1  0
M  ISO  4   7 100  10 100  46 101  47 101
M  END
>  <TORSDO>  (63) 
F 18

>  <SCORE>  (63) 
-16.607

>  <name>  (63) 
62

>  <ligand_id>  (63) 
62

>  <original_smiles>  (63) 
[H]c1nc(C(F)(F)C(=O)N2C([H])([H])C([H])([H])C([H])([H])C([H])(n3nc(-c4c([H])c([H])c(Oc5c([H])c([H])c(F)c([H])c5F)c([H])c4[H])c(C(=O)N([H])[H])c3N([H])[H])C2([H])[H])c([H])nc1C([H])([H])Oc1c([H])c([H])c2c(c1[H])C([H])([H])N(C(=O)C([H])(N([H])C(=O)C([H])(N([H])C([H])([H])[H])C([H])([H])[H])C(C([H])([H])[H])(C([H])([H])[H])C([H])([H])[H])C([H])(C(=O)N([H])C1([H])c3c([H])c([H])c([H])c([H])c3C([H])([H])C([H])([H])C1([H])[H])C2([H])[H]

>  <smiles>  (63) 
[H]c1nc(C(F)(F)C(=O)N2C([H])([H])C([H])([H])C([H])([H])C([H])(n3nc(-c4c([H])c([H])c(Oc5c([H])c([H])c(F)c([H])c5F)c([H])c4[H])c(C(=O)N([H])[H])c3N([H])[H])C2([H])[H])c([H])nc1C([H])([H])Oc1c([H])c([H])c2c(c1[H])C([H])([H])N(C(=O)C([H])(N([H])C(=O)C([H])(N([H])C([H])([H])[H])C([H])([H])[H])C(C([H])([H])[H])(C([H])([H])[H])C([H])([H])[H])C([H])(C(=O)N([H])C1([H])c3c([H])c([H])c([H])c([H])c3C([H])([H])C([H])([H])C1([H])[H])C2([H])[H]

$$$$
63:0:0
     RDKit          3D

 89 97  0  0  1  0  0  0  0  0999 V2000
  -29.4490  -20.8710   20.3730 C   0  0  0  0  0  3  0  0  0  0  0  0
  -27.1070  -18.4830   19.2170 C   0  0  0  0  0  3  0  0  0  0  0  0
  -29.0800  -18.1900   19.8590 C   0  0  0  0  0  0  0  0  0  0  0  0
  -28.0350  -17.5060   19.3870 N   0  0  0  0  0  0  0  0  0  0  0  0
  -27.5010  -19.7070   19.5350 N   0  0  0  0  0  0  0  0  0  0  0  0
  -28.7890  -19.5610   19.9520 N   0  0  0  0  0  0  0  0  0  0  0  0
  -30.3680  -17.3640   20.1550 C   0  0  0  0  0  2  0  0  0  0  0  0
  -30.7670  -14.7850   20.0660 C   0  0  0  0  0  0  0  0  0  0  0  0
  -30.4720  -12.5630   18.9400 C   0  0  0  0  0  2  0  0  0  0  0  0
  -29.4660  -12.6730   17.7700 C   0  0  0  0  0  2  0  0  0  0  0  0
  -28.0180  -12.4990   18.2670 C   0  0  0  0  0  2  0  0  0  0  0  0
  -27.7230  -13.3410   19.5350 C   0  0  0  0  0  3  0  0  0  0  0  0
  -28.8330  -13.1600   20.5870 C   0  0  0  0  0  2  0  0  0  0  0  0
  -30.1040  -13.5730   19.9660 N   0  0  0  0  0  0  0  0  0  0  0  0
  -31.8590  -14.9140   19.5010 O   0  0  0  0  0  0  0  0  0  0  0  0
  -29.6700  -15.8780   21.9890 C   0  0  0  0  0  1  0  0  0  0  0  0
  -30.1270  -15.9090   20.5920 N   0  0  0  0  0  0  0  0  0  0  0  0
  -25.3790  -13.9320   20.3960 C   0  0  0  0  0  0  0  0  0  0  0  0
  -24.3270  -13.1550   20.8040 C   0  0  0  0  0  0  0  0  0  0  0  0
  -24.7800  -11.8020   20.7210 C   0  0  0  0  0  0  0  0  0  0  0  0
  -26.4020  -13.0510   20.0850 N   0  0  0  0  0  0  0  0  0  0  0  0
  -26.0510  -11.7640   20.3420 N   0  0  0  0  0  0  0  0  0  0  0  0
  -24.0570  -10.5400   20.9260 C   0  0  0  0  0  0  0  0  0  0  0  0
  -24.4980   -9.5780   21.8620 C   0  0  0  0  0  3  0  0  0  0  0  0
  -23.7750   -8.3810   22.0540 C   0  0  0  0  0  3  0  0  0  0  0  0
  -22.5950   -8.1380   21.3100 C   0  0  0  0  0  0  0  0  0  0  0  0
  -22.1730   -9.0880   20.3640 C   0  0  0  0  0  3  0  0  0  0  0  0
  -22.8980  -10.2770   20.1700 C   0  0  0  0  0  3  0  0  0  0  0  0
  -21.8430   -6.9930   21.4100 O   0  0  0  0  0  0  0  0  0  0  0  0
  -21.7500   -6.2920   22.5860 C   0  0  0  0  0  0  0  0  0  0  0  0
  -21.2760   -6.8920   23.7740 C   0  0  0  0  0  3  0  0  0  0  0  0
  -21.1320   -6.1180   24.9430 C   0  0  0  0  0  3  0  0  0  0  0  0
  -21.4500   -4.7470   24.9240 C   0  0  0  0  0  0  0  0  0  0  0  0
  -21.9140   -4.1480   23.7400 C   0  0  0  0  0  3  0  0  0  0  0  0
  -22.0600   -4.9180   22.5740 C   0  0  0  0  0  0  0  0  0  0  0  0
  -22.4890   -4.3310   21.4300 F   0  0  0  0  0  0  0  0  0  0  0  0
  -21.3030   -4.0010   26.0440 F   0  0  0  0  0  0  0  0  0  0  0  0
  -22.9510  -13.6340   21.1620 C   0  0  0  0  0  0  0  0  0  0  0  0
  -22.2750  -12.9330   22.0660 N   0  0  0  0  0  0  0  0  0  0  0  0
  -22.4860  -14.6640   20.6760 O   0  0  0  0  0  0  0  0  0  0  0  0
  -22.6660  -12.0990   22.4800 H   0  0  0  0  0  0  0  0  0  0  0  0
  -21.3550  -13.2360   22.3500 H   0  0  0  0  0  0  0  0  0  0  0  0
  -25.5450  -15.3050   20.2450 N   0  0  0  0  0  0  0  0  0  0  0  0
  -24.7980  -15.9640   20.4280 H   0  0  0  0  0  0  0  0  0  0  0  0
  -26.4110  -15.7530   19.9570 H   0  0  0  0  0  0  0  0  0  0  0  0
  -28.5980  -22.2420   20.1040 C   0  0  0  0  0  3  0  0  0  0  0  0
  -29.0770  -23.7480   20.4640 C   0  0  0  0  0  3  0  0  0  0  0  0
  -28.0500  -24.9460   20.1050 C   0  0  0  0  0  3  0  0  0  0  0  0
  -28.3000  -26.4060   20.3650 O   0  0  0  0  0  0  0  0  0  0  0  0
  -24.5770  -31.8960   23.3150 C   0  0  0  0  0  0  0  0  0  0  0  0
  -27.2030  -27.2990   20.2850 C   0  0  0  0  0  0  0  0  0  0  0  0
  -23.3870  -30.5010   21.6660 C   0  0  0  0  0  3  0  0  0  0  0  0
  -24.8490  -28.9500   20.2500 C   0  0  0  0  0  0  0  0  0  0  0  0
  -25.9340  -30.8040   21.5090 C   0  0  0  0  0  2  0  0  0  0  0  0
  -26.0170  -29.4260   20.8580 C   0  0  0  0  0  0  0  0  0  0  0  0
  -27.1970  -28.6140   20.8640 C   0  0  0  0  0  3  0  0  0  0  0  0
  -26.0080  -26.8950   19.6440 C   0  0  0  0  0  3  0  0  0  0  0  0
  -24.8510  -27.6930   19.6320 C   0  0  0  0  0  3  0  0  0  0  0  0
  -23.6140  -29.8270   20.2880 C   0  0  0  0  0  2  0  0  0  0  0  0
  -24.6520  -31.0850   22.2190 N   0  0  0  0  0  0  0  0  0  0  0  0
  -23.4890  -32.1780   23.8380 O   0  0  0  0  0  0  0  0  0  0  0  0
  -22.7110  -29.4860   22.6200 C   0  0  0  0  0  0  0  0  0  0  0  0
  -21.3860  -29.3080   22.4770 N   0  0  0  0  0  0  0  0  0  0  0  0
  -23.3780  -28.8610   23.4470 O   0  0  0  0  0  0  0  0  0  0  0  0
  -20.9060  -29.8640   21.7830 H   0  0  0  0  0  0  0  0  0  0  0  0
  -18.0000  -28.1170   22.9440 C   0  0  0  0  0  0  0  0  0  0  0  0
  -20.5570  -28.3730   23.2410 C   0  0  0  0  0  3  0  0  0  0  0  0
  -20.6630  -26.9410   22.6680 C   0  0  0  0  0  2  0  0  0  0  0  0
  -19.5700  -26.6200   21.6420 C   0  0  0  0  0  2  0  0  0  0  0  0
  -18.1820  -26.7670   22.2710 C   0  0  0  0  0  2  0  0  0  0  0  0
  -19.1160  -28.8780   23.3850 C   0  0  0  0  0  0  0  0  0  0  0  0
  -18.8920  -30.1410   23.9760 C   0  0  0  0  0  3  0  0  0  0  0  0
  -17.5880  -30.6440   24.1280 C   0  0  0  0  0  3  0  0  0  0  0  0
  -16.4850  -29.8800   23.7030 C   0  0  0  0  0  3  0  0  0  0  0  0
  -16.6930  -28.6190   23.1180 C   0  0  0  0  0  3  0  0  0  0  0  0
  -25.8540  -32.5270   23.9510 C   0  0  0  0  0  3  0  0  0  0  0  0
  -25.5510  -33.9340   24.2540 N   0  0  0  0  0  0  0  0  0  0  0  0
  -25.8910  -34.9720   23.4780 C   0  0  0  0  0  0  0  0  0  0  0  0
  -26.5590  -34.8450   22.4480 O   0  0  0  0  0  0  0  0  0  0  0  0
  -24.9550  -34.1070   25.0500 H   0  0  0  0  0  0  0  0  0  0  0  0
  -24.1630  -36.7610   23.1040 C   0  0  0  0  0  1  0  0  0  0  0  0
  -25.4120  -36.3720   23.9100 C   0  0  0  0  0  3  0  0  0  0  0  0
  -27.5570  -37.2660   24.6990 C   0  0  0  0  0  1  0  0  0  0  0  0
  -26.4460  -37.4190   23.7630 N   0  0  0  0  0  0  0  0  0  0  0  0
  -26.0470  -38.3430   23.8960 H   0  0  0  0  0  0  0  0  0  0  0  0
  -26.3380  -31.7730   25.2490 C   0  0  1  0  0  0  0  0  0  0  0  0
  -25.2210  -31.5640   26.2980 C   0  0  0  0  0  1  0  0  0  0  0  0
  -26.9150  -30.3840   24.8910 C   0  0  0  0  0  1  0  0  0  0  0  0
  -27.4840  -32.5680   25.9180 C   0  0  0  0  0  1  0  0  0  0  0  0
  2  4  1  0
  2  5  2  0
  3  6  1  0
  3  7  1  0
  4  3  2  0
  5  6  1  0
  6  1  1  0
  7 17  1  0
  8 17  1  0
  9 14  1  0
 10 11  1  0
 10  9  1  0
 12 11  1  0
 12 21  1  0
 12 13  1  0
 14  8  1  0
 14 13  1  0
 15  8  2  0
 17 16  1  0
 18 19  2  0
 19 38  1  0
 20 19  1  0
 20 23  1  0
 21 22  1  0
 21 18  1  0
 22 20  2  0
 23 24  1  0
 24 25  2  0
 26 29  1  0
 26 25  1  0
 27 26  2  0
 28 27  1  0
 28 23  2  0
 29 30  1  0
 30 31  1  0
 31 32  2  0
 33 32  1  0
 33 37  1  0
 34 33  2  0
 35 30  2  0
 35 34  1  0
 36 35  1  0
 38 39  1  0
 39 42  1  0
 39 41  1  0
 40 38  2  0
 43 18  1  0
 43 44  1  0
 45 43  1  0
 46  1  2  0
 46 47  1  0
 48 49  1  0
 48 47  2  0
 50 61  2  0
 51 49  1  0
 51 56  1  0
 52 60  1  0
 52 62  1  0
 53 59  1  0
 53 55  1  0
 54 60  1  0
 55 56  2  0
 55 54  1  0
 57 51  2  0
 58 57  1  0
 58 53  2  0
 59 52  1  0
 60 50  1  0
 62 64  2  0
 63 62  1  0
 65 63  1  0
 66 75  2  0
 66 71  1  0
 67 63  1  0
 67 71  1  0
 68 67  1  0
 69 70  1  0
 69 68  1  0
 70 66  1  0
 71 72  2  0
 72 73  1  0
 74 73  2  0
 75 74  1  0
 76 50  1  0
 76 77  1  0
 76 86  1  0
 77 80  1  0
 78 82  1  0
 78 77  1  0
 79 78  2  0
 82 81  1  0
 84 85  1  0
 84 82  1  0
 84 83  1  0
 86 89  1  1
 86 87  1  0
 88 86  1  0
M  ISO  4   8 100  17 100  48 101  49 101
M  END
>  <TORSDO>  (64) 
F 21

>  <SCORE>  (64) 
-12.778

>  <name>  (64) 
63

>  <ligand_id>  (64) 
63

>  <original_smiles>  (64) 
[H]c1nc(C([H])([H])N(C(=O)N2C([H])([H])C([H])([H])C([H])([H])C([H])(n3nc(-c4c([H])c([H])c(Oc5c([H])c([H])c(F)c([H])c5F)c([H])c4[H])c(C(=O)N([H])[H])c3N([H])[H])C2([H])[H])C([H])([H])[H])n(C([H])([H])C([H])([H])C([H])([H])C([H])([H])Oc2c([H])c([H])c3c(c2[H])C([H])([H])N(C(=O)C([H])(N([H])C(=O)C([H])(N([H])C([H])([H])[H])C([H])([H])[H])C(C([H])([H])[H])(C([H])([H])[H])C([H])([H])[H])C([H])(C(=O)N([H])C2([H])c4c([H])c([H])c([H])c([H])c4C([H])([H])C([H])([H])C2([H])[H])C3([H])[H])n1

>  <smiles>  (64) 
[H]c1nc(C([H])([H])N(C(=O)N2C([H])([H])C([H])([H])C([H])([H])C([H])(n3nc(-c4c([H])c([H])c(Oc5c([H])c([H])c(F)c([H])c5F)c([H])c4[H])c(C(=O)N([H])[H])c3N([H])[H])C2([H])[H])C([H])([H])[H])n(C([H])([H])C([H])([H])C([H])([H])C([H])([H])Oc2c([H])c([H])c3c(c2[H])C([H])([H])N(C(=O)C([H])(N([H])C(=O)C([H])(N([H])C([H])([H])[H])C([H])([H])[H])C(C([H])([H])[H])(C([H])([H])[H])C([H])([H])[H])C([H])(C(=O)N([H])C2([H])c4c([H])c([H])c([H])c([H])c4C([H])([H])C([H])([H])C2([H])[H])C3([H])[H])n1

$$$$
64:0:0
     RDKit          3D

 93101  0  0  1  0  0  0  0  0999 V2000
  -30.9890  -20.7460   19.1730 C   0  0  0  0  0  3  0  0  0  0  0  0
  -29.7180  -21.2680   19.4160 C   0  0  0  0  0  0  0  0  0  0  0  0
  -29.8690  -18.7320   19.3720 C   0  0  0  0  0  3  0  0  0  0  0  0
  -29.0240  -19.9340   19.4530 N   0  0  0  0  0  0  0  0  0  0  0  0
  -31.0440  -19.3480   19.1810 N   0  0  0  0  0  0  0  0  0  0  0  0
  -31.9060  -18.8410   19.0250 H   0  0  0  0  0  0  0  0  0  0  0  0
  -26.8140  -21.1080   19.1010 C   0  0  0  0  0  1  0  0  0  0  0  0
  -27.1990  -19.6370   21.1130 C   0  0  0  0  0  1  0  0  0  0  0  0
  -26.8930  -18.7010   18.7990 C   0  0  0  0  0  1  0  0  0  0  0  0
  -27.5310  -19.8370   19.6250 C   0  0  2  0  0  0  0  0  0  0  0  0
  -30.7800  -23.6650   19.3670 C   0  0  0  0  0  1  0  0  0  0  0  0
  -29.4010  -23.0910   21.3040 C   0  0  0  0  0  1  0  0  0  0  0  0
  -29.4400  -23.0020   19.7620 C   0  0  2  0  0  0  0  0  0  0  0  0
  -28.3590  -24.3380   19.2050 C   0  0  0  0  0  2  0  0  0  0  0  0
  -28.4190  -25.9710   19.4910 O   0  0  0  0  0  0  0  0  0  0  0  0
  -24.5280  -31.4720   22.8970 C   0  0  0  0  0  0  0  0  0  0  0  0
  -27.3260  -26.9890   19.5060 C   0  0  0  0  0  0  0  0  0  0  0  0
  -23.3910  -30.1260   21.1770 C   0  0  0  0  0  3  0  0  0  0  0  0
  -24.9100  -28.7170   19.6220 C   0  0  0  0  0  0  0  0  0  0  0  0
  -25.9370  -30.5060   21.0100 C   0  0  0  0  0  2  0  0  0  0  0  0
  -26.0800  -29.1540   20.2540 C   0  0  0  0  0  0  0  0  0  0  0  0
  -27.2780  -28.3120   20.1710 C   0  0  0  0  0  3  0  0  0  0  0  0
  -26.1140  -26.7010   18.8380 C   0  0  0  0  0  3  0  0  0  0  0  0
  -24.9500  -27.5140   18.8940 C   0  0  0  0  0  3  0  0  0  0  0  0
  -23.6360  -29.5530   19.7520 C   0  0  0  0  0  2  0  0  0  0  0  0
  -24.6400  -30.7260   21.7500 N   0  0  0  0  0  0  0  0  0  0  0  0
  -23.4330  -31.6550   23.4530 O   0  0  0  0  0  0  0  0  0  0  0  0
  -22.7750  -29.0250   22.0790 C   0  0  0  0  0  0  0  0  0  0  0  0
  -21.4460  -28.8270   22.0000 N   0  0  0  0  0  0  0  0  0  0  0  0
  -23.4970  -28.3500   22.8170 O   0  0  0  0  0  0  0  0  0  0  0  0
  -20.9120  -29.4250   21.3850 H   0  0  0  0  0  0  0  0  0  0  0  0
  -18.1220  -27.4960   22.5920 C   0  0  0  0  0  0  0  0  0  0  0  0
  -20.6900  -27.7960   22.7180 C   0  0  0  0  0  3  0  0  0  0  0  0
  -20.7780  -26.4340   21.9910 C   0  0  0  0  0  2  0  0  0  0  0  0
  -19.6170  -26.1930   21.0200 C   0  0  0  0  0  2  0  0  0  0  0  0
  -18.2780  -26.2320   21.7620 C   0  0  0  0  0  2  0  0  0  0  0  0
  -19.2520  -28.2380   23.0270 C   0  0  0  0  0  0  0  0  0  0  0  0
  -19.0480  -29.4210   23.7690 C   0  0  0  0  0  3  0  0  0  0  0  0
  -17.7470  -29.8630   24.0770 C   0  0  0  0  0  3  0  0  0  0  0  0
  -16.6340  -29.1170   23.6550 C   0  0  0  0  0  3  0  0  0  0  0  0
  -16.8220  -27.9340   22.9170 C   0  0  0  0  0  3  0  0  0  0  0  0
  -25.7700  -32.1430   23.5590 C   0  0  0  0  0  3  0  0  0  0  0  0
  -26.3510  -31.3140   24.7690 C   0  0  1  0  0  0  0  0  0  0  0  0
  -25.2930  -30.9390   25.8330 C   0  0  0  0  0  1  0  0  0  0  0  0
  -27.0040  -30.0020   24.2780 C   0  0  0  0  0  1  0  0  0  0  0  0
  -27.4660  -32.1230   25.4720 C   0  0  0  0  0  1  0  0  0  0  0  0
  -25.3710  -33.4880   24.0110 N   0  0  0  0  0  0  0  0  0  0  0  0
  -25.6320  -34.6290   23.3600 C   0  0  0  0  0  0  0  0  0  0  0  0
  -26.2970  -34.6630   22.3210 O   0  0  0  0  0  0  0  0  0  0  0  0
  -24.7740  -33.5300   24.8260 H   0  0  0  0  0  0  0  0  0  0  0  0
  -23.7890  -36.3380   23.2000 C   0  0  0  0  0  1  0  0  0  0  0  0
  -25.0700  -35.9390   23.9490 C   0  0  0  0  0  3  0  0  0  0  0  0
  -27.1610  -36.8870   24.8250 C   0  0  0  0  0  1  0  0  0  0  0  0
  -26.0330  -37.0630   23.9160 N   0  0  0  0  0  0  0  0  0  0  0  0
  -25.5720  -37.9390   24.1450 H   0  0  0  0  0  0  0  0  0  0  0  0
  -29.1520  -16.8930   17.7200 C   0  0  0  0  0  1  0  0  0  0  0  0
  -29.6890  -16.9740   19.1740 C   0  0  0  0  0  3  0  0  0  0  0  0
  -30.6550  -15.4800   19.2880 C   0  0  0  0  0  0  0  0  0  0  0  0
  -30.6220  -12.9360   18.7010 C   0  0  0  0  0  2  0  0  0  0  0  0
  -29.5870  -12.6160   17.5860 C   0  0  0  0  0  2  0  0  0  0  0  0
  -28.1790  -12.3980   18.1730 C   0  0  0  0  0  2  0  0  0  0  0  0
  -27.8310  -13.4560   19.2450 C   0  0  0  0  0  3  0  0  0  0  0  0
  -28.9820  -13.7100   20.2420 C   0  0  0  0  0  2  0  0  0  0  0  0
  -30.1590  -14.1500   19.4700 N   0  0  0  0  0  0  0  0  0  0  0  0
  -31.8580  -15.4770   18.9810 O   0  0  0  0  0  0  0  0  0  0  0  0
  -25.6270  -14.1430   20.3200 C   0  0  0  0  0  0  0  0  0  0  0  0
  -24.5590  -13.4260   20.7800 C   0  0  0  0  0  0  0  0  0  0  0  0
  -24.9140  -12.0500   20.6280 C   0  0  0  0  0  0  0  0  0  0  0  0
  -26.5580  -13.2080   19.9050 N   0  0  0  0  0  0  0  0  0  0  0  0
  -26.1520  -11.9390   20.1570 N   0  0  0  0  0  0  0  0  0  0  0  0
  -24.1190  -10.8360   20.8450 C   0  0  0  0  0  0  0  0  0  0  0  0
  -24.5650   -9.8070   21.7040 C   0  0  0  0  0  3  0  0  0  0  0  0
  -23.7740   -8.6560   21.9140 C   0  0  0  0  0  3  0  0  0  0  0  0
  -22.5220   -8.5300   21.2660 C   0  0  0  0  0  0  0  0  0  0  0  0
  -22.0930   -9.5470   20.3940 C   0  0  0  0  0  3  0  0  0  0  0  0
  -22.8840  -10.6880   20.1820 C   0  0  0  0  0  3  0  0  0  0  0  0
  -21.6970   -7.4380   21.3920 O   0  0  0  0  0  0  0  0  0  0  0  0
  -21.6790   -6.6760   22.5310 C   0  0  0  0  0  0  0  0  0  0  0  0
  -21.3720   -7.2300   23.7940 C   0  0  0  0  0  3  0  0  0  0  0  0
  -21.2930   -6.3980   24.9280 C   0  0  0  0  0  3  0  0  0  0  0  0
  -21.5160   -5.0140   24.8020 C   0  0  0  0  0  0  0  0  0  0  0  0
  -21.8180   -4.4600   23.5470 C   0  0  0  0  0  3  0  0  0  0  0  0
  -21.8970   -5.2880   22.4140 C   0  0  0  0  0  0  0  0  0  0  0  0
  -22.1670   -4.7470   21.2020 F   0  0  0  0  0  0  0  0  0  0  0  0
  -21.4340   -4.2120   25.8900 F   0  0  0  0  0  0  0  0  0  0  0  0
  -23.2460  -13.9870   21.2400 C   0  0  0  0  0  0  0  0  0  0  0  0
  -22.5780  -13.2980   22.1580 N   0  0  0  0  0  0  0  0  0  0  0  0
  -22.8310  -15.0660   20.8220 O   0  0  0  0  0  0  0  0  0  0  0  0
  -22.9340  -12.4250   22.5140 H   0  0  0  0  0  0  0  0  0  0  0  0
  -21.6990  -13.6510   22.5090 H   0  0  0  0  0  0  0  0  0  0  0  0
  -25.8710  -15.5050   20.1870 N   0  0  0  0  0  0  0  0  0  0  0  0
  -25.1670  -16.1990   20.4100 H   0  0  0  0  0  0  0  0  0  0  0  0
  -26.6860  -15.8940   19.7350 H   0  0  0  0  0  0  0  0  0  0  0  0
  1  5  1  0
  1  2  2  0
  2  4  1  0
  2 13  1  0
  3 57  1  0
  3  4  1  0
  4 10  1  0
  5  3  1  0
  6  5  1  0
 10  7  1  6
  9 10  1  0
 10  8  1  0
 13 11  1  6
 13 12  1  0
 14 15  1  0
 14 13  1  0
 15 17  1  0
 16 27  2  0
 17 22  1  0
 18 26  1  0
 18 28  1  0
 19 25  1  0
 19 21  1  0
 20 26  1  0
 21 20  1  0
 22 21  2  0
 23 24  1  0
 23 17  2  0
 24 19  2  0
 25 18  1  0
 26 16  1  0
 28 30  2  0
 29 28  1  0
 31 29  1  0
 32 41  2  0
 32 37  1  0
 33 29  1  0
 33 37  1  0
 34 33  1  0
 35 36  1  0
 35 34  1  0
 36 32  1  0
 37 38  2  0
 38 39  1  0
 40 39  2  0
 41 40  1  0
 42 16  1  0
 42 47  1  0
 42 43  1  0
 43 46  1  1
 43 44  1  0
 45 43  1  0
 47 50  1  0
 48 52  1  0
 48 47  1  0
 49 48  2  0
 52 51  1  0
 54 52  1  0
 54 55  1  0
 54 53  1  0
 57 56  1  0
 57 58  1  0
 58 64  1  0
 59 64  1  0
 60 61  1  0
 60 59  1  0
 62 61  1  0
 62 69  1  0
 62 63  1  0
 64 63  1  0
 65 58  2  0
 66 67  2  0
 67 86  1  0
 68 67  1  0
 68 71  1  0
 69 70  1  0
 69 66  1  0
 70 68  2  0
 71 72  1  0
 72 73  2  0
 74 77  1  0
 74 73  1  0
 75 74  2  0
 76 75  1  0
 76 71  2  0
 77 78  1  0
 78 79  1  0
 79 80  2  0
 81 80  1  0
 81 85  1  0
 82 81  2  0
 83 78  2  0
 83 82  1  0
 84 83  1  0
 86 87  1  0
 87 90  1  0
 87 89  1  0
 88 86  2  0
 91 66  1  0
 91 92  1  0
 93 91  1  0
M  ISO  4  14 101  15 101  57 100  58 100
M  END
>  <TORSDO>  (65) 
F 20

>  <SCORE>  (65) 
-10.845

>  <name>  (65) 
64

>  <ligand_id>  (65) 
64

>  <original_smiles>  (65) 
[H]c1c([H])c([H])c2c(c1[H])C([H])([H])C([H])([H])C([H])([H])C2([H])N([H])C(=O)C1([H])N(C(=O)C([H])(N([H])C(=O)C([H])(N([H])C([H])([H])[H])C([H])([H])[H])C(C([H])([H])[H])(C([H])([H])[H])C([H])([H])[H])C([H])([H])c2c([H])c(OC([H])([H])C(c3c([H])[n+]([H])c(C([H])(C(=O)N4C([H])([H])C([H])([H])C([H])([H])C([H])(n5nc(-c6c([H])c([H])c(Oc7c([H])c([H])c(F)c([H])c7F)c([H])c6[H])c(C(=O)N([H])[H])c5N([H])[H])C4([H])[H])C([H])([H])[H])n3C(C([H])([H])[H])(C([H])([H])[H])C([H])([H])[H])(C([H])([H])[H])C([H])([H])[H])c([H])c([H])c2C1([H])[H]

>  <smiles>  (65) 
[H]c1c([H])c([H])c2c(c1[H])C([H])([H])C([H])([H])C([H])([H])C2([H])N([H])C(=O)C1([H])N(C(=O)C([H])(N([H])C(=O)C([H])(N([H])C([H])([H])[H])C([H])([H])[H])C(C([H])([H])[H])(C([H])([H])[H])C([H])([H])[H])C([H])([H])c2c([H])c(OC([H])([H])C(c3c([H])[n+]([H])c(C([H])(C(=O)N4C([H])([H])C([H])([H])C([H])([H])C([H])(n5nc(-c6c([H])c([H])c(Oc7c([H])c([H])c(F)c([H])c7F)c([H])c6[H])c(C(=O)N([H])[H])c5N([H])[H])C4([H])[H])C([H])([H])[H])n3C(C([H])([H])[H])(C([H])([H])[H])C([H])([H])[H])(C([H])([H])[H])C([H])([H])[H])c([H])c([H])c2C1([H])[H]

$$$$
65:0:0
     RDKit          3D

 87 95  0  0  1  0  0  0  0  0999 V2000
  -28.9300  -21.3980   21.3230 C   0  0  0  0  0  2  0  0  0  0  0  0
  -28.7320  -22.2940   20.1720 C   0  0  0  0  0  0  0  0  0  0  0  0
  -29.5330  -19.1320   20.2590 C   0  0  0  0  0  0  0  0  0  0  0  0
  -29.2820  -19.9890   21.3430 N   0  0  0  0  0  0  0  0  0  0  0  0
  -28.9530  -21.3610   19.1010 N   0  0  0  0  0  0  0  0  0  0  0  0
  -29.3040  -19.9480   19.1250 N   0  0  0  0  0  2  0  0  0  0  0  0
  -28.0440  -17.0080   20.3080 C   0  0  0  0  0  1  0  0  0  0  0  0
  -29.8850  -17.1570   21.9640 C   0  0  0  0  0  1  0  0  0  0  0  0
  -29.5400  -17.2800   20.4580 C   0  0  2  0  0  0  0  0  0  0  0  0
  -30.3490  -15.6810   19.9060 C   0  0  0  0  0  0  0  0  0  0  0  0
  -30.3960  -13.1850   18.9330 C   0  0  0  0  0  2  0  0  0  0  0  0
  -29.3910  -12.8910   17.7780 C   0  0  0  0  0  2  0  0  0  0  0  0
  -27.9950  -12.5310   18.3170 C   0  0  0  0  0  2  0  0  0  0  0  0
  -27.5940  -13.4560   19.4870 C   0  0  0  0  0  3  0  0  0  0  0  0
  -28.7310  -13.6230   20.5280 C   0  0  0  0  0  2  0  0  0  0  0  0
  -29.8650  -14.2960   19.8420 N   0  0  0  0  0  0  0  0  0  0  0  0
  -31.5310  -15.6670   19.5130 O   0  0  0  0  0  0  0  0  0  0  0  0
  -25.2710  -13.9480   20.4220 C   0  0  0  0  0  0  0  0  0  0  0  0
  -24.2530  -13.1500   20.8520 C   0  0  0  0  0  0  0  0  0  0  0  0
  -24.7290  -11.8100   20.7390 C   0  0  0  0  0  0  0  0  0  0  0  0
  -26.3110  -13.1000   20.0840 N   0  0  0  0  0  0  0  0  0  0  0  0
  -25.9980  -11.8010   20.3360 N   0  0  0  0  0  0  0  0  0  0  0  0
  -24.0220  -10.5380   20.9340 C   0  0  0  0  0  0  0  0  0  0  0  0
  -24.4800   -9.5700   21.8540 C   0  0  0  0  0  3  0  0  0  0  0  0
  -23.7650   -8.3670   22.0400 C   0  0  0  0  0  3  0  0  0  0  0  0
  -22.5790   -8.1250   21.3080 C   0  0  0  0  0  0  0  0  0  0  0  0
  -22.1400   -9.0820   20.3760 C   0  0  0  0  0  3  0  0  0  0  0  0
  -22.8550  -10.2760   20.1870 C   0  0  0  0  0  3  0  0  0  0  0  0
  -21.8330   -6.9740   21.4050 O   0  0  0  0  0  0  0  0  0  0  0  0
  -21.7540   -6.2660   22.5770 C   0  0  0  0  0  0  0  0  0  0  0  0
  -21.2860   -6.8540   23.7730 C   0  0  0  0  0  3  0  0  0  0  0  0
  -21.1550   -6.0720   24.9370 C   0  0  0  0  0  3  0  0  0  0  0  0
  -21.4820   -4.7020   24.9080 C   0  0  0  0  0  0  0  0  0  0  0  0
  -21.9430   -4.1150   23.7170 C   0  0  0  0  0  3  0  0  0  0  0  0
  -22.0760   -4.8940   22.5550 C   0  0  0  0  0  0  0  0  0  0  0  0
  -22.5020   -4.3170   21.4040 F   0  0  0  0  0  0  0  0  0  0  0  0
  -21.3480   -3.9490   26.0240 F   0  0  0  0  0  0  0  0  0  0  0  0
  -22.8770  -13.6110   21.2370 C   0  0  0  0  0  0  0  0  0  0  0  0
  -22.2220  -12.8920   22.1400 N   0  0  0  0  0  0  0  0  0  0  0  0
  -22.3970  -14.6460   20.7740 O   0  0  0  0  0  0  0  0  0  0  0  0
  -22.6260  -12.0560   22.5350 H   0  0  0  0  0  0  0  0  0  0  0  0
  -21.3030  -13.1820   22.4420 H   0  0  0  0  0  0  0  0  0  0  0  0
  -25.3700  -15.3230   20.2610 N   0  0  0  0  0  0  0  0  0  0  0  0
  -24.5810  -15.9370   20.4340 H   0  0  0  0  0  0  0  0  0  0  0  0
  -26.1610  -15.8000   19.8530 H   0  0  0  0  0  0  0  0  0  0  0  0
  -27.9100  -23.9480   20.0520 C   0  0  0  0  0  2  0  0  0  0  0  0
  -28.1740  -25.6410   20.2990 O   0  0  0  0  0  0  0  0  0  0  0  0
  -24.6490  -31.8600   23.2180 C   0  0  0  0  0  0  0  0  0  0  0  0
  -27.1980  -26.8320   20.2290 C   0  0  0  0  0  0  0  0  0  0  0  0
  -23.4580  -30.4550   21.5880 C   0  0  0  0  0  3  0  0  0  0  0  0
  -24.9090  -28.8170   20.1750 C   0  0  0  0  0  0  0  0  0  0  0  0
  -26.0330  -30.6220   21.4530 C   0  0  0  0  0  2  0  0  0  0  0  0
  -26.1030  -29.1930   20.8010 C   0  0  0  0  0  0  0  0  0  0  0  0
  -27.2330  -28.2260   20.7980 C   0  0  0  0  0  3  0  0  0  0  0  0
  -25.9670  -26.6530   19.5490 C   0  0  0  0  0  3  0  0  0  0  0  0
  -24.8750  -27.5710   19.5260 C   0  0  0  0  0  3  0  0  0  0  0  0
  -23.6950  -29.7560   20.2180 C   0  0  0  0  0  2  0  0  0  0  0  0
  -24.7370  -31.0110   22.1390 N   0  0  0  0  0  0  0  0  0  0  0  0
  -23.5570  -32.1570   23.7330 O   0  0  0  0  0  0  0  0  0  0  0  0
  -22.7510  -29.4760   22.5620 C   0  0  0  0  0  0  0  0  0  0  0  0
  -21.4210  -29.3050   22.4310 N   0  0  0  0  0  0  0  0  0  0  0  0
  -23.4090  -28.8670   23.4090 O   0  0  0  0  0  0  0  0  0  0  0  0
  -20.9390  -29.8470   21.7280 H   0  0  0  0  0  0  0  0  0  0  0  0
  -18.0470  -28.0530   22.9250 C   0  0  0  0  0  0  0  0  0  0  0  0
  -20.6000  -28.3670   23.2080 C   0  0  0  0  0  3  0  0  0  0  0  0
  -20.7290  -26.9280   22.6570 C   0  0  0  0  0  2  0  0  0  0  0  0
  -19.6440  -26.5730   21.6360 C   0  0  0  0  0  2  0  0  0  0  0  0
  -18.2540  -26.7000   22.2640 C   0  0  0  0  0  2  0  0  0  0  0  0
  -19.1480  -28.8420   23.3530 C   0  0  0  0  0  0  0  0  0  0  0  0
  -18.8980  -30.1030   23.9360 C   0  0  0  0  0  3  0  0  0  0  0  0
  -17.5820  -30.5780   24.0910 C   0  0  0  0  0  3  0  0  0  0  0  0
  -16.4960  -29.7870   23.6750 C   0  0  0  0  0  3  0  0  0  0  0  0
  -16.7300  -28.5260   23.0980 C   0  0  0  0  0  3  0  0  0  0  0  0
  -25.9140  -32.5130   23.8530 C   0  0  0  0  0  3  0  0  0  0  0  0
  -25.5900  -33.9140   24.1830 N   0  0  0  0  0  0  0  0  0  0  0  0
  -25.9070  -34.9780   23.4310 C   0  0  0  0  0  0  0  0  0  0  0  0
  -26.5610  -34.8830   22.3900 O   0  0  0  0  0  0  0  0  0  0  0  0
  -25.0050  -34.0610   24.9930 H   0  0  0  0  0  0  0  0  0  0  0  0
  -24.1590  -36.7690   23.1390 C   0  0  0  0  0  1  0  0  0  0  0  0
  -25.4270  -36.3660   23.9080 C   0  0  0  0  0  3  0  0  0  0  0  0
  -27.5810  -37.2710   24.6720 C   0  0  0  0  0  1  0  0  0  0  0  0
  -26.4480  -37.4280   23.7610 N   0  0  0  0  0  0  0  0  0  0  0  0
  -26.0400  -38.3440   23.9180 H   0  0  0  0  0  0  0  0  0  0  0  0
  -26.4140  -31.7600   25.1470 C   0  0  1  0  0  0  0  0  0  0  0  0
  -25.3100  -31.5370   26.2070 C   0  0  0  0  0  1  0  0  0  0  0  0
  -27.0020  -30.3750   24.7900 C   0  0  0  0  0  1  0  0  0  0  0  0
  -27.5590  -32.5630   25.8100 C   0  0  0  0  0  1  0  0  0  0  0  0
  1  4  1  0
  2  1  1  0
  3  9  1  0
  3  4  2  0
  5  6  1  0
  5  2  2  0
  6  3  1  0
  9  7  1  1
  9  8  1  0
 10  9  1  0
 11 16  1  0
 12 13  1  0
 12 11  1  0
 14 13  1  0
 14 21  1  0
 14 15  1  0
 16 10  1  0
 16 15  1  0
 17 10  2  0
 18 19  2  0
 19 38  1  0
 20 19  1  0
 20 23  1  0
 21 22  1  0
 21 18  1  0
 22 20  2  0
 23 24  1  0
 24 25  2  0
 26 29  1  0
 26 25  1  0
 27 26  2  0
 28 27  1  0
 28 23  2  0
 29 30  1  0
 30 31  1  0
 31 32  2  0
 33 32  1  0
 33 37  1  0
 34 33  2  0
 35 30  2  0
 35 34  1  0
 36 35  1  0
 38 39  1  0
 39 42  1  0
 39 41  1  0
 40 38  2  0
 43 18  1  0
 43 44  1  0
 45 43  1  0
 46  2  1  0
 46 47  1  0
 48 59  2  0
 49 47  1  0
 49 54  1  0
 50 58  1  0
 50 60  1  0
 51 57  1  0
 51 53  1  0
 52 58  1  0
 53 52  1  0
 54 53  2  0
 55 49  2  0
 56 55  1  0
 56 51  2  0
 57 50  1  0
 58 48  1  0
 60 62  2  0
 61 60  1  0
 63 61  1  0
 64 73  2  0
 64 69  1  0
 65 61  1  0
 65 69  1  0
 66 65  1  0
 67 68  1  0
 67 66  1  0
 68 64  1  0
 69 70  2  0
 70 71  1  0
 72 71  2  0
 73 72  1  0
 74 48  1  0
 74 75  1  0
 74 84  1  0
 75 78  1  0
 76 80  1  0
 76 75  1  0
 77 76  2  0
 80 79  1  0
 82 80  1  0
 82 83  1  0
 82 81  1  0
 84 87  1  1
 84 85  1  0
 86 84  1  0
M  ISO  4   9 100  10 100  46 101  47 101
M  END
>  <TORSDO>  (66) 
F 18

>  <SCORE>  (66) 
-16.285

>  <name>  (66) 
65

>  <ligand_id>  (66) 
65

>  <original_smiles>  (66) 
[H]c1nc(C(C(=O)N2C([H])([H])C([H])([H])C([H])([H])C([H])(n3nc(-c4c([H])c([H])c(Oc5c([H])c([H])c(F)c([H])c5F)c([H])c4[H])c(C(=O)N([H])[H])c3N([H])[H])C2([H])[H])(C([H])([H])[H])C([H])([H])[H])nnc1C([H])([H])Oc1c([H])c([H])c2c(c1[H])C([H])([H])N(C(=O)C([H])(N([H])C(=O)C([H])(N([H])C([H])([H])[H])C([H])([H])[H])C(C([H])([H])[H])(C([H])([H])[H])C([H])([H])[H])C([H])(C(=O)N([H])C1([H])c3c([H])c([H])c([H])c([H])c3C([H])([H])C([H])([H])C1([H])[H])C2([H])[H]

>  <smiles>  (66) 
[H]c1nc(C(C(=O)N2C([H])([H])C([H])([H])C([H])([H])C([H])(n3nc(-c4c([H])c([H])c(Oc5c([H])c([H])c(F)c([H])c5F)c([H])c4[H])c(C(=O)N([H])[H])c3N([H])[H])C2([H])[H])(C([H])([H])[H])C([H])([H])[H])nnc1C([H])([H])Oc1c([H])c([H])c2c(c1[H])C([H])([H])N(C(=O)C([H])(N([H])C(=O)C([H])(N([H])C([H])([H])[H])C([H])([H])[H])C(C([H])([H])[H])(C([H])([H])[H])C([H])([H])[H])C([H])(C(=O)N([H])C1([H])c3c([H])c([H])c([H])c([H])c3C([H])([H])C([H])([H])C1([H])[H])C2([H])[H]

$$$$
66:0:0
     RDKit          3D

 90 98  0  0  1  0  0  0  0  0999 V2000
  -28.8510  -19.1370   21.1620 C   0  0  0  0  0  3  0  0  0  0  0  0
  -28.4530  -21.2020   20.8230 C   0  0  0  0  0  0  0  0  0  0  0  0
  -29.5190  -20.9040   19.9870 C   0  0  0  0  0  0  0  0  0  0  0  0
  -27.6700  -22.4720   20.9880 C   0  0  0  0  0  1  0  0  0  0  0  0
  -28.0650  -20.1120   21.5680 N   0  0  0  0  0  0  0  0  0  0  0  0
  -29.7560  -19.4210   20.2060 N   0  0  0  0  0  0  0  0  0  0  0  0
  -30.0800  -22.0870   19.0370 C   0  0  0  0  0  2  0  0  0  0  0  0
  -30.0390  -23.7480   19.3860 C   0  0  0  0  0  3  0  0  0  0  0  0
  -28.9500  -24.9220   18.8810 C   0  0  0  0  0  3  0  0  0  0  0  0
  -28.9940  -26.4360   19.2250 O   0  0  0  0  0  0  0  0  0  0  0  0
  -24.6860  -31.1730   22.8340 C   0  0  0  0  0  0  0  0  0  0  0  0
  -27.8150  -27.2620   19.2530 C   0  0  0  0  0  0  0  0  0  0  0  0
  -23.6600  -29.8690   21.0110 C   0  0  0  0  0  3  0  0  0  0  0  0
  -25.2860  -28.6820   19.4130 C   0  0  0  0  0  0  0  0  0  0  0  0
  -26.1600  -30.4660   20.9160 C   0  0  0  0  0  2  0  0  0  0  0  0
  -26.4010  -29.1910   20.0910 C   0  0  0  0  0  0  0  0  0  0  0  0
  -27.6630  -28.4980   19.9980 C   0  0  0  0  0  3  0  0  0  0  0  0
  -26.6640  -26.8520   18.5460 C   0  0  0  0  0  3  0  0  0  0  0  0
  -25.4270  -27.5280   18.6280 C   0  0  0  0  0  3  0  0  0  0  0  0
  -23.9570  -29.4070   19.5590 C   0  0  0  0  0  2  0  0  0  0  0  0
  -24.8530  -30.5190   21.6440 N   0  0  0  0  0  0  0  0  0  0  0  0
  -23.5750  -31.2540   23.3800 O   0  0  0  0  0  0  0  0  0  0  0  0
  -23.1120  -28.6710   21.8250 C   0  0  0  0  0  0  0  0  0  0  0  0
  -21.8100  -28.3680   21.6700 N   0  0  0  0  0  0  0  0  0  0  0  0
  -23.8590  -28.0200   22.5610 O   0  0  0  0  0  0  0  0  0  0  0  0
  -21.2570  -28.9540   21.0600 H   0  0  0  0  0  0  0  0  0  0  0  0
  -18.5890  -26.7420   21.9960 C   0  0  0  0  0  0  0  0  0  0  0  0
  -21.1060  -27.2510   22.3050 C   0  0  0  0  0  3  0  0  0  0  0  0
  -21.3600  -25.9290   21.5420 C   0  0  0  0  0  2  0  0  0  0  0  0
  -20.2890  -25.6250   20.4890 C   0  0  0  0  0  2  0  0  0  0  0  0
  -18.9070  -25.5260   21.1420 C   0  0  0  0  0  2  0  0  0  0  0  0
  -19.6220  -27.5610   22.5280 C   0  0  0  0  0  0  0  0  0  0  0  0
  -19.2690  -28.6980   23.2880 C   0  0  0  0  0  3  0  0  0  0  0  0
  -17.9180  -29.0200   23.5180 C   0  0  0  0  0  3  0  0  0  0  0  0
  -16.9010  -28.1990   23.0000 C   0  0  0  0  0  3  0  0  0  0  0  0
  -17.2380  -27.0610   22.2450 C   0  0  0  0  0  3  0  0  0  0  0  0
  -25.8800  -31.8700   23.5560 C   0  0  0  0  0  3  0  0  0  0  0  0
  -25.4250  -33.2000   23.9930 N   0  0  0  0  0  0  0  0  0  0  0  0
  -25.6910  -34.3470   23.3560 C   0  0  0  0  0  0  0  0  0  0  0  0
  -26.4120  -34.4040   22.3560 O   0  0  0  0  0  0  0  0  0  0  0  0
  -24.7830  -33.2220   24.7720 H   0  0  0  0  0  0  0  0  0  0  0  0
  -23.8210  -36.0100   23.0850 C   0  0  0  0  0  1  0  0  0  0  0  0
  -25.0590  -35.6380   23.9160 C   0  0  0  0  0  3  0  0  0  0  0  0
  -27.0680  -36.6230   24.9290 C   0  0  0  0  0  1  0  0  0  0  0  0
  -25.9950  -36.7840   23.9520 N   0  0  0  0  0  0  0  0  0  0  0  0
  -25.4990  -37.6470   24.1620 H   0  0  0  0  0  0  0  0  0  0  0  0
  -26.4290  -31.0450   24.7840 C   0  0  1  0  0  0  0  0  0  0  0  0
  -25.3340  -30.6250   25.7920 C   0  0  0  0  0  1  0  0  0  0  0  0
  -27.1450  -29.7610   24.3070 C   0  0  0  0  0  1  0  0  0  0  0  0
  -27.4850  -31.8800   25.5460 C   0  0  0  0  0  1  0  0  0  0  0  0
  -30.6460  -18.2030   19.7240 C   0  0  0  0  0  2  0  0  0  0  0  0
  -30.4030  -16.6450   20.3640 C   0  0  2  0  0  0  0  0  0  0  0  0
  -29.1020  -16.4470   20.1640 F   0  0  0  0  0  0  0  0  0  0  0  0
  -30.6020  -16.7710   21.6760 F   0  0  0  0  0  0  0  0  0  0  0  0
  -31.1700  -15.2130   19.9900 C   0  0  0  0  0  0  0  0  0  0  0  0
  -31.0340  -12.7770   19.2640 C   0  0  0  0  0  2  0  0  0  0  0  0
  -30.0980  -12.6470   18.0380 C   0  0  0  0  0  2  0  0  0  0  0  0
  -28.6260  -12.5100   18.4770 C   0  0  0  0  0  2  0  0  0  0  0  0
  -28.2420  -13.5490   19.5610 C   0  0  0  0  0  3  0  0  0  0  0  0
  -29.2930  -13.6120   20.6900 C   0  0  0  0  0  2  0  0  0  0  0  0
  -30.5830  -13.9480   20.0710 N   0  0  0  0  0  0  0  0  0  0  0  0
  -32.3410  -15.2460   19.5890 O   0  0  0  0  0  0  0  0  0  0  0  0
  -25.9290  -14.2920   20.3750 C   0  0  0  0  0  0  0  0  0  0  0  0
  -24.8100  -13.5900   20.7310 C   0  0  0  0  0  0  0  0  0  0  0  0
  -25.1620  -12.2090   20.6280 C   0  0  0  0  0  0  0  0  0  0  0  0
  -26.8910  -13.3430   20.0720 N   0  0  0  0  0  0  0  0  0  0  0  0
  -26.4390  -12.0810   20.2890 N   0  0  0  0  0  0  0  0  0  0  0  0
  -24.3390  -11.0020   20.7780 C   0  0  0  0  0  0  0  0  0  0  0  0
  -24.7190   -9.9510   21.6410 C   0  0  0  0  0  3  0  0  0  0  0  0
  -23.9000   -8.8100   21.7810 C   0  0  0  0  0  3  0  0  0  0  0  0
  -22.6870   -8.7130   21.0590 C   0  0  0  0  0  0  0  0  0  0  0  0
  -22.3250   -9.7520   20.1840 C   0  0  0  0  0  3  0  0  0  0  0  0
  -23.1430  -10.8850   20.0410 C   0  0  0  0  0  3  0  0  0  0  0  0
  -21.8420   -7.6310   21.1130 O   0  0  0  0  0  0  0  0  0  0  0  0
  -21.7790   -6.8200   22.2190 C   0  0  0  0  0  0  0  0  0  0  0  0
  -21.4420   -7.3260   23.4930 C   0  0  0  0  0  3  0  0  0  0  0  0
  -21.3220   -6.4470   24.5890 C   0  0  0  0  0  3  0  0  0  0  0  0
  -21.5260   -5.0650   24.4110 C   0  0  0  0  0  0  0  0  0  0  0  0
  -21.8560   -4.5600   23.1400 C   0  0  0  0  0  3  0  0  0  0  0  0
  -21.9790   -5.4360   22.0470 C   0  0  0  0  0  0  0  0  0  0  0  0
  -22.2760   -4.9420   20.8210 F   0  0  0  0  0  0  0  0  0  0  0  0
  -21.4030   -4.2200   25.4600 F   0  0  0  0  0  0  0  0  0  0  0  0
  -23.4620  -14.1650   21.0550 C   0  0  0  0  0  0  0  0  0  0  0  0
  -22.7010  -13.4960   21.9140 N   0  0  0  0  0  0  0  0  0  0  0  0
  -23.0950  -15.2420   20.5840 O   0  0  0  0  0  0  0  0  0  0  0  0
  -23.0110  -12.6250   22.3180 H   0  0  0  0  0  0  0  0  0  0  0  0
  -21.7960  -13.8630   22.1740 H   0  0  0  0  0  0  0  0  0  0  0  0
  -26.2020  -15.6510   20.2610 N   0  0  0  0  0  0  0  0  0  0  0  0
  -25.5060  -16.3650   20.4440 H   0  0  0  0  0  0  0  0  0  0  0  0
  -27.1070  -16.0310   20.0120 H   0  0  0  0  0  0  0  0  0  0  0  0
  1  5  2  0
  2  4  1  0
  2  5  1  0
  3  6  1  0
  3  2  2  0
  6  1  1  0
  7  8  1  0
  7  3  1  0
  9 10  1  0
  9  8  2  0
 10 12  1  0
 11 22  2  0
 12 17  1  0
 13 21  1  0
 13 23  1  0
 14 20  1  0
 14 16  1  0
 15 21  1  0
 16 15  1  0
 17 16  2  0
 18 19  1  0
 18 12  2  0
 19 14  2  0
 20 13  1  0
 21 11  1  0
 23 25  2  0
 24 23  1  0
 26 24  1  0
 27 36  2  0
 27 32  1  0
 28 24  1  0
 28 32  1  0
 29 28  1  0
 30 31  1  0
 30 29  1  0
 31 27  1  0
 32 33  2  0
 33 34  1  0
 35 34  2  0
 36 35  1  0
 37 11  1  0
 37 38  1  0
 37 47  1  0
 38 41  1  0
 39 43  1  0
 39 38  1  0
 40 39  2  0
 43 42  1  0
 43 45  1  0
 45 46  1  0
 45 44  1  0
 47 50  1  1
 47 48  1  0
 49 47  1  0
 51  6  1  0
 51 52  1  0
 52 54  1  1
 53 52  1  0
 55 61  1  0
 55 52  1  0
 56 61  1  0
 57 58  1  0
 57 56  1  0
 59 58  1  0
 59 66  1  0
 59 60  1  0
 61 60  1  0
 62 55  2  0
 63 64  2  0
 64 83  1  0
 65 64  1  0
 65 68  1  0
 66 67  1  0
 66 63  1  0
 67 65  2  0
 68 69  1  0
 69 70  2  0
 71 74  1  0
 71 70  1  0
 72 71  2  0
 73 72  1  0
 73 68  2  0
 74 75  1  0
 75 76  1  0
 76 77  2  0
 78 77  1  0
 78 82  1  0
 79 78  2  0
 80 75  2  0
 80 79  1  0
 81 80  1  0
 83 84  1  0
 84 87  1  0
 84 86  1  0
 85 83  2  0
 88 63  1  0
 88 89  1  0
 90 88  1  0
M  ISO  4   9 101  10 101  52 100  55 100
M  END
>  <TORSDO>  (67) 
F 21

>  <SCORE>  (67) 
-10.386

>  <name>  (67) 
66

>  <ligand_id>  (67) 
66

>  <original_smiles>  (67) 
[H]c1c([H])c([H])c2c(c1[H])C([H])([H])C([H])([H])C([H])([H])C2([H])N([H])C(=O)C1([H])N(C(=O)C([H])(N([H])C(=O)C([H])(N([H])C([H])([H])[H])C([H])([H])[H])C(C([H])([H])[H])(C([H])([H])[H])C([H])([H])[H])C([H])([H])c2c([H])c(OC([H])([H])C([H])([H])C([H])([H])c3c(C([H])([H])[H])nc([H])n3C([H])([H])C(F)(F)C(=O)N3C([H])([H])C([H])([H])C([H])([H])C([H])(n4nc(-c5c([H])c([H])c(Oc6c([H])c([H])c(F)c([H])c6F)c([H])c5[H])c(C(=O)N([H])[H])c4N([H])[H])C3([H])[H])c([H])c([H])c2C1([H])[H]

>  <smiles>  (67) 
[H]c1c([H])c([H])c2c(c1[H])C([H])([H])C([H])([H])C([H])([H])C2([H])N([H])C(=O)C1([H])N(C(=O)C([H])(N([H])C(=O)C([H])(N([H])C([H])([H])[H])C([H])([H])[H])C(C([H])([H])[H])(C([H])([H])[H])C([H])([H])[H])C([H])([H])c2c([H])c(OC([H])([H])C([H])([H])C([H])([H])c3c(C([H])([H])[H])nc([H])n3C([H])([H])C(F)(F)C(=O)N3C([H])([H])C([H])([H])C([H])([H])C([H])(n4nc(-c5c([H])c([H])c(Oc6c([H])c([H])c(F)c([H])c6F)c([H])c5[H])c(C(=O)N([H])[H])c4N([H])[H])C3([H])[H])c([H])c([H])c2C1([H])[H]

$$$$
67:0:0
     RDKit          3D

 92101  0  0  1  0  0  0  0  0999 V2000
  -29.7570  -22.0130   20.1540 C   0  0  0  0  0  0  0  0  0  0  0  0
  -29.0450  -24.0420   20.4170 C   0  0  0  0  0  0  0  0  0  0  0  0
  -27.6990  -22.2230   21.6000 C   0  0  0  0  0  1  0  0  0  0  0  0
  -30.6370  -22.8170   19.5330 N   0  0  0  0  0  0  0  0  0  0  0  0
  -30.1660  -24.1230   19.6820 N   0  0  0  0  0  0  0  0  0  0  0  0
  -28.7740  -22.7410   20.7640 N   0  0  0  0  0  0  0  0  0  0  0  0
  -30.7700  -19.8430   21.3030 C   0  0  0  0  0  2  0  0  0  0  0  0
  -30.2490  -19.7480   18.8980 C   0  0  0  0  0  2  0  0  0  0  0  0
  -30.5890  -18.2940   21.4780 C   0  0  0  0  0  2  0  0  0  0  0  0
  -30.0160  -18.2020   18.9400 C   0  0  0  0  0  2  0  0  0  0  0  0
  -29.8500  -20.4580   20.2170 C   0  0  0  0  0  3  0  0  0  0  0  0
  -30.6120  -17.4080   20.1690 C   0  0  0  0  0  3  0  0  0  0  0  0
  -30.6430  -14.7960   20.2200 C   0  0  0  0  0  0  0  0  0  0  0  0
  -30.4090  -12.5490   19.1540 C   0  0  0  0  0  2  0  0  0  0  0  0
  -29.4280  -12.5900   17.9600 C   0  0  0  0  0  2  0  0  0  0  0  0
  -27.9740  -12.3730   18.4300 C   0  0  0  0  0  2  0  0  0  0  0  0
  -27.6190  -13.2450   19.6590 C   0  0  0  0  0  3  0  0  0  0  0  0
  -28.7200  -13.1390   20.7440 C   0  0  0  0  0  2  0  0  0  0  0  0
  -29.9750  -13.5860   20.1180 N   0  0  0  0  0  0  0  0  0  0  0  0
  -31.8480  -14.8090   19.9450 O   0  0  0  0  0  0  0  0  0  0  0  0
  -28.5220  -16.2290   20.5300 C   0  0  0  0  0  1  0  0  0  0  0  0
  -29.9740  -16.0290   20.3570 N   0  0  0  0  0  0  0  0  0  0  0  0
  -25.2380  -13.8750   20.4090 C   0  0  0  0  0  0  0  0  0  0  0  0
  -24.1780  -13.1050   20.8020 C   0  0  0  0  0  0  0  0  0  0  0  0
  -24.6420  -11.7570   20.7740 C   0  0  0  0  0  0  0  0  0  0  0  0
  -26.2830  -12.9880   20.1740 N   0  0  0  0  0  0  0  0  0  0  0  0
  -25.9270  -11.7120   20.4540 N   0  0  0  0  0  0  0  0  0  0  0  0
  -23.9230  -10.4950   20.9750 C   0  0  0  0  0  0  0  0  0  0  0  0
  -24.3660   -9.5360   21.9140 C   0  0  0  0  0  3  0  0  0  0  0  0
  -23.6460   -8.3370   22.1010 C   0  0  0  0  0  3  0  0  0  0  0  0
  -22.4720   -8.0890   21.3520 C   0  0  0  0  0  0  0  0  0  0  0  0
  -22.0520   -9.0340   20.3990 C   0  0  0  0  0  3  0  0  0  0  0  0
  -22.7720  -10.2250   20.2080 C   0  0  0  0  0  3  0  0  0  0  0  0
  -21.7230   -6.9410   21.4510 O   0  0  0  0  0  0  0  0  0  0  0  0
  -21.6730   -6.2160   22.6130 C   0  0  0  0  0  0  0  0  0  0  0  0
  -21.2290   -6.7800   23.8280 C   0  0  0  0  0  3  0  0  0  0  0  0
  -21.1310   -5.9800   24.9830 C   0  0  0  0  0  3  0  0  0  0  0  0
  -21.4620   -4.6140   24.9240 C   0  0  0  0  0  0  0  0  0  0  0  0
  -21.8990   -4.0470   23.7140 C   0  0  0  0  0  3  0  0  0  0  0  0
  -22.0040   -4.8460   22.5610 C   0  0  0  0  0  0  0  0  0  0  0  0
  -22.4090   -4.2920   21.3930 F   0  0  0  0  0  0  0  0  0  0  0  0
  -21.3590   -3.8410   26.0300 F   0  0  0  0  0  0  0  0  0  0  0  0
  -22.7830  -13.5830   21.0870 C   0  0  0  0  0  0  0  0  0  0  0  0
  -22.0670  -12.8880   21.9650 N   0  0  0  0  0  0  0  0  0  0  0  0
  -22.3360  -14.6060   20.5700 O   0  0  0  0  0  0  0  0  0  0  0  0
  -22.4440  -12.0640   22.4110 H   0  0  0  0  0  0  0  0  0  0  0  0
  -21.1280  -13.1830   22.1970 H   0  0  0  0  0  0  0  0  0  0  0  0
  -25.3820  -15.2450   20.2100 N   0  0  0  0  0  0  0  0  0  0  0  0
  -24.6060  -15.8880   20.3090 H   0  0  0  0  0  0  0  0  0  0  0  0
  -26.2220  -15.6890   19.8660 H   0  0  0  0  0  0  0  0  0  0  0  0
  -28.1390  -25.2230   20.8560 C   0  0  0  0  0  2  0  0  0  0  0  0
  -28.4100  -26.5380   20.2410 O   0  0  0  0  0  0  0  0  0  0  0  0
  -24.6250  -31.8960   23.2350 C   0  0  0  0  0  0  0  0  0  0  0  0
  -27.2970  -27.3870   20.1970 C   0  0  0  0  0  0  0  0  0  0  0  0
  -23.4400  -30.4890   21.5850 C   0  0  0  0  0  3  0  0  0  0  0  0
  -24.9140  -28.9560   20.1630 C   0  0  0  0  0  0  0  0  0  0  0  0
  -25.9730  -30.8370   21.4140 C   0  0  0  0  0  2  0  0  0  0  0  0
  -26.0720  -29.4600   20.7730 C   0  0  0  0  0  0  0  0  0  0  0  0
  -27.2680  -28.6860   20.7840 C   0  0  0  0  0  3  0  0  0  0  0  0
  -26.1230  -26.9360   19.5540 C   0  0  0  0  0  3  0  0  0  0  0  0
  -24.9410  -27.6980   19.5430 C   0  0  0  0  0  3  0  0  0  0  0  0
  -23.6670  -29.8150   20.2050 C   0  0  0  0  0  2  0  0  0  0  0  0
  -24.6980  -31.0910   22.1350 N   0  0  0  0  0  0  0  0  0  0  0  0
  -23.5380  -32.1670   23.7650 O   0  0  0  0  0  0  0  0  0  0  0  0
  -22.7810  -29.4690   22.5430 C   0  0  0  0  0  0  0  0  0  0  0  0
  -21.4550  -29.2890   22.4140 N   0  0  0  0  0  0  0  0  0  0  0  0
  -23.4610  -28.8400   23.3600 O   0  0  0  0  0  0  0  0  0  0  0  0
  -20.9670  -29.8500   21.7300 H   0  0  0  0  0  0  0  0  0  0  0  0
  -18.0780  -28.0920   22.9110 C   0  0  0  0  0  0  0  0  0  0  0  0
  -20.6370  -28.3490   23.1810 C   0  0  0  0  0  3  0  0  0  0  0  0
  -20.7380  -26.9200   22.6000 C   0  0  0  0  0  2  0  0  0  0  0  0
  -19.6370  -26.6020   21.5840 C   0  0  0  0  0  2  0  0  0  0  0  0
  -18.2540  -26.7460   22.2280 C   0  0  0  0  0  2  0  0  0  0  0  0
  -19.1970  -28.8520   23.3440 C   0  0  0  0  0  0  0  0  0  0  0  0
  -18.9790  -30.1110   23.9440 C   0  0  0  0  0  3  0  0  0  0  0  0
  -17.6740  -30.6130   24.1110 C   0  0  0  0  0  3  0  0  0  0  0  0
  -16.5690  -29.8500   23.6930 C   0  0  0  0  0  3  0  0  0  0  0  0
  -16.7720  -28.5910   23.1010 C   0  0  0  0  0  3  0  0  0  0  0  0
  -25.9030  -32.5350   23.8620 C   0  0  0  0  0  3  0  0  0  0  0  0
  -25.5880  -33.9340   24.1870 N   0  0  0  0  0  0  0  0  0  0  0  0
  -25.9220  -34.9860   23.4270 C   0  0  0  0  0  0  0  0  0  0  0  0
  -26.5990  -34.8800   22.4000 O   0  0  0  0  0  0  0  0  0  0  0  0
  -24.9930  -34.0870   24.9880 H   0  0  0  0  0  0  0  0  0  0  0  0
  -24.1900  -36.7720   23.0550 C   0  0  0  0  0  1  0  0  0  0  0  0
  -25.4260  -36.3730   23.8770 C   0  0  0  0  0  3  0  0  0  0  0  0
  -27.5500  -37.2660   24.7240 C   0  0  0  0  0  1  0  0  0  0  0  0
  -26.4570  -37.4290   23.7700 N   0  0  0  0  0  0  0  0  0  0  0  0
  -26.0460  -38.3470   23.9130 H   0  0  0  0  0  0  0  0  0  0  0  0
  -26.4170  -31.7700   25.1430 C   0  0  1  0  0  0  0  0  0  0  0  0
  -25.3190  -31.5310   26.2050 C   0  0  0  0  0  1  0  0  0  0  0  0
  -27.0080  -30.3930   24.7590 C   0  0  0  0  0  1  0  0  0  0  0  0
  -27.5620  -32.5700   25.8080 C   0  0  0  0  0  1  0  0  0  0  0  0
  1  6  1  0
  2  6  1  0
  2 51  1  0
  4  5  1  0
  4  1  2  0
  5  2  2  0
  6  3  1  0
  7  9  1  0
  8 10  1  0
  8 11  1  0
 10 12  1  0
 11  1  1  0
 11  7  1  0
 12 22  1  0
 12  9  1  0
 13 22  1  0
 14 19  1  0
 15 16  1  0
 15 14  1  0
 17 16  1  0
 17 26  1  0
 17 18  1  0
 19 13  1  0
 19 18  1  0
 20 13  2  0
 22 21  1  0
 23 24  2  0
 24 43  1  0
 25 24  1  0
 25 28  1  0
 26 23  1  0
 26 27  1  0
 27 25  2  0
 28 29  1  0
 29 30  2  0
 31 34  1  0
 31 30  1  0
 32 31  2  0
 33 32  1  0
 33 28  2  0
 34 35  1  0
 35 36  1  0
 36 37  2  0
 38 37  1  0
 38 42  1  0
 39 38  2  0
 40 35  2  0
 40 39  1  0
 41 40  1  0
 43 44  1  0
 44 47  1  0
 44 46  1  0
 45 43  2  0
 48 49  1  0
 48 23  1  0
 50 48  1  0
 52 51  1  0
 53 64  2  0
 54 52  1  0
 54 59  1  0
 55 63  1  0
 55 65  1  0
 56 62  1  0
 56 58  1  0
 57 63  1  0
 58 59  2  0
 58 57  1  0
 60 54  2  0
 61 60  1  0
 61 56  2  0
 62 55  1  0
 63 53  1  0
 65 67  2  0
 66 65  1  0
 68 66  1  0
 69 78  2  0
 69 74  1  0
 70 66  1  0
 70 74  1  0
 71 70  1  0
 72 73  1  0
 72 71  1  0
 73 69  1  0
 74 75  2  0
 75 76  1  0
 77 76  2  0
 78 77  1  0
 79 53  1  0
 79 80  1  0
 79 89  1  0
 80 83  1  0
 81 85  1  0
 81 80  1  0
 82 81  2  0
 85 84  1  0
 87 85  1  0
 87 88  1  0
 87 86  1  0
 89 92  1  1
 89 90  1  0
 91 89  1  0
M  ISO  4  13 100  22 100  51 101  52 101
M  END
>  <TORSDO>  (68) 
F 18

>  <SCORE>  (68) 
-14.775

>  <name>  (68) 
67

>  <ligand_id>  (68) 
67

>  <original_smiles>  (68) 
[H]c1c([H])c([H])c2c(c1[H])C([H])([H])C([H])([H])C([H])([H])C2([H])N([H])C(=O)C1([H])N(C(=O)C([H])(N([H])C(=O)C([H])(N([H])C([H])([H])[H])C([H])([H])[H])C(C([H])([H])[H])(C([H])([H])[H])C([H])([H])[H])C([H])([H])c2c([H])c(OC([H])([H])c3nnc(C4([H])C([H])([H])C([H])([H])C([H])(N(C(=O)N5C([H])([H])C([H])([H])C([H])([H])C([H])(n6nc(-c7c([H])c([H])c(Oc8c([H])c([H])c(F)c([H])c8F)c([H])c7[H])c(C(=O)N([H])[H])c6N([H])[H])C5([H])[H])C([H])([H])[H])C([H])([H])C4([H])[H])n3C([H])([H])[H])c([H])c([H])c2C1([H])[H]

>  <smiles>  (68) 
[H]c1c([H])c([H])c2c(c1[H])C([H])([H])C([H])([H])C([H])([H])C2([H])N([H])C(=O)C1([H])N(C(=O)C([H])(N([H])C(=O)C([H])(N([H])C([H])([H])[H])C([H])([H])[H])C(C([H])([H])[H])(C([H])([H])[H])C([H])([H])[H])C([H])([H])c2c([H])c(OC([H])([H])c3nnc(C4([H])C([H])([H])C([H])([H])C([H])(N(C(=O)N5C([H])([H])C([H])([H])C([H])([H])C([H])(n6nc(-c7c([H])c([H])c(Oc8c([H])c([H])c(F)c([H])c8F)c([H])c7[H])c(C(=O)N([H])[H])c6N([H])[H])C5([H])[H])C([H])([H])[H])C([H])([H])C4([H])[H])n3C([H])([H])[H])c([H])c([H])c2C1([H])[H]

$$$$
68:0:0
     RDKit          3D

 91 99  0  0  1  0  0  0  0  0999 V2000
  -30.2380  -20.0280   20.2480 C   0  0  0  0  0  3  0  0  0  0  0  0
  -29.2240  -21.0310   19.9530 C   0  0  0  0  0  0  0  0  0  0  0  0
  -29.6250  -18.7930   20.4770 C   0  0  0  0  0  0  0  0  0  0  0  0
  -28.0510  -20.4170   19.9730 N   0  0  0  0  0  0  0  0  0  0  0  0
  -28.2760  -19.0990   20.2870 N   0  0  0  0  0  0  0  0  0  0  0  0
  -26.0900  -18.3470   19.3340 C   0  0  0  0  0  1  0  0  0  0  0  0
  -27.1200  -18.2340   20.4730 C   0  0  0  0  0  2  0  0  0  0  0  0
  -29.3440  -22.5350   19.4570 C   0  0  0  0  0  3  0  0  0  0  0  0
  -28.6140  -23.7940   20.1660 C   0  0  0  0  0  3  0  0  0  0  0  0
  -28.6580  -25.2170   19.3920 C   0  0  0  0  0  2  0  0  0  0  0  0
  -28.4990  -26.5460   20.0630 O   0  0  0  0  0  0  0  0  0  0  0  0
  -24.6110  -31.8640   23.0720 C   0  0  0  0  0  0  0  0  0  0  0  0
  -27.3490  -27.3630   19.9870 C   0  0  0  0  0  0  0  0  0  0  0  0
  -23.4590  -30.4700   21.3940 C   0  0  0  0  0  3  0  0  0  0  0  0
  -24.9570  -28.9580   19.9680 C   0  0  0  0  0  0  0  0  0  0  0  0
  -25.9970  -30.8210   21.2600 C   0  0  0  0  0  2  0  0  0  0  0  0
  -26.1090  -29.4500   20.5940 C   0  0  0  0  0  0  0  0  0  0  0  0
  -27.3010  -28.6630   20.5960 C   0  0  0  0  0  3  0  0  0  0  0  0
  -26.1670  -26.9250   19.3490 C   0  0  0  0  0  3  0  0  0  0  0  0
  -24.9900  -27.7030   19.3400 C   0  0  0  0  0  3  0  0  0  0  0  0
  -23.7090  -29.8170   20.0070 C   0  0  0  0  0  2  0  0  0  0  0  0
  -24.7080  -31.0700   21.9660 N   0  0  0  0  0  0  0  0  0  0  0  0
  -23.5130  -32.1170   23.5910 O   0  0  0  0  0  0  0  0  0  0  0  0
  -22.7960  -29.4290   22.3280 C   0  0  0  0  0  0  0  0  0  0  0  0
  -21.4640  -29.2820   22.2240 N   0  0  0  0  0  0  0  0  0  0  0  0
  -23.4780  -28.7600   23.1090 O   0  0  0  0  0  0  0  0  0  0  0  0
  -20.9730  -29.8760   21.5710 H   0  0  0  0  0  0  0  0  0  0  0  0
  -18.0660  -28.1910   22.8180 C   0  0  0  0  0  0  0  0  0  0  0  0
  -20.6430  -28.3320   22.9760 C   0  0  0  0  0  3  0  0  0  0  0  0
  -20.6560  -26.9350   22.3110 C   0  0  0  0  0  2  0  0  0  0  0  0
  -19.4960  -26.7210   21.3350 C   0  0  0  0  0  2  0  0  0  0  0  0
  -18.1530  -26.8800   22.0530 C   0  0  0  0  0  2  0  0  0  0  0  0
  -19.2350  -28.8800   23.2370 C   0  0  0  0  0  0  0  0  0  0  0  0
  -19.0980  -30.1090   23.9150 C   0  0  0  0  0  3  0  0  0  0  0  0
  -17.8250  -30.6510   24.1760 C   0  0  0  0  0  3  0  0  0  0  0  0
  -16.6710  -29.9580   23.7720 C   0  0  0  0  0  3  0  0  0  0  0  0
  -16.7930  -28.7290   23.0980 C   0  0  0  0  0  3  0  0  0  0  0  0
  -25.8710  -32.5100   23.7270 C   0  0  0  0  0  3  0  0  0  0  0  0
  -25.5290  -33.8950   24.0790 N   0  0  0  0  0  0  0  0  0  0  0  0
  -25.8570  -34.9700   23.3500 C   0  0  0  0  0  0  0  0  0  0  0  0
  -26.5480  -34.9010   22.3310 O   0  0  0  0  0  0  0  0  0  0  0  0
  -24.9140  -34.0220   24.8710 H   0  0  0  0  0  0  0  0  0  0  0  0
  -24.1230  -36.7560   22.9830 C   0  0  0  0  0  1  0  0  0  0  0  0
  -25.3370  -36.3410   23.8290 C   0  0  0  0  0  3  0  0  0  0  0  0
  -27.4210  -37.2340   24.7740 C   0  0  0  0  0  1  0  0  0  0  0  0
  -26.3600  -37.4070   23.7840 N   0  0  0  0  0  0  0  0  0  0  0  0
  -25.9380  -38.3200   23.9280 H   0  0  0  0  0  0  0  0  0  0  0  0
  -26.3830  -31.7250   24.9980 C   0  0  1  0  0  0  0  0  0  0  0  0
  -25.2790  -31.4490   26.0460 C   0  0  0  0  0  1  0  0  0  0  0  0
  -26.9970  -30.3650   24.5900 C   0  0  0  0  0  1  0  0  0  0  0  0
  -27.5100  -32.5270   25.6890 C   0  0  0  0  0  1  0  0  0  0  0  0
  -30.1680  -17.3910   21.0070 C   0  0  0  0  0  2  0  0  0  0  0  0
  -30.8110  -14.9280   20.6170 C   0  0  0  0  0  0  0  0  0  0  0  0
  -30.7140  -12.5650   19.8300 C   0  0  0  0  0  2  0  0  0  0  0  0
  -29.8770  -12.4950   18.5360 C   0  0  0  0  0  2  0  0  0  0  0  0
  -28.3820  -12.3290   18.8700 C   0  0  0  0  0  2  0  0  0  0  0  0
  -27.8920  -13.3010   19.9800 C   0  0  0  0  0  3  0  0  0  0  0  0
  -28.8680  -13.3740   21.1700 C   0  0  0  0  0  2  0  0  0  0  0  0
  -30.1860  -13.7000   20.6160 N   0  0  0  0  0  0  0  0  0  0  0  0
  -32.0450  -14.9720   20.5690 O   0  0  0  0  0  0  0  0  0  0  0  0
  -30.0820  -16.0660   20.2360 N   0  0  0  0  0  0  0  0  0  0  0  0
  -25.4700  -13.8980   20.5610 C   0  0  0  0  0  0  0  0  0  0  0  0
  -24.3800  -13.1310   20.8670 C   0  0  0  0  0  0  0  0  0  0  0  0
  -24.8420  -11.7790   20.8700 C   0  0  0  0  0  0  0  0  0  0  0  0
  -26.5240  -13.0150   20.3950 N   0  0  0  0  0  0  0  0  0  0  0  0
  -26.1500  -11.7360   20.6450 N   0  0  0  0  0  0  0  0  0  0  0  0
  -24.1010  -10.5200   21.0150 C   0  0  0  0  0  0  0  0  0  0  0  0
  -24.4660   -9.5560   21.9800 C   0  0  0  0  0  3  0  0  0  0  0  0
  -23.7250   -8.3620   22.1130 C   0  0  0  0  0  3  0  0  0  0  0  0
  -22.6060   -8.1250   21.2790 C   0  0  0  0  0  0  0  0  0  0  0  0
  -22.2610   -9.0780   20.3050 C   0  0  0  0  0  3  0  0  0  0  0  0
  -23.0030  -10.2640   20.1700 C   0  0  0  0  0  3  0  0  0  0  0  0
  -21.8420   -6.9830   21.3210 O   0  0  0  0  0  0  0  0  0  0  0  0
  -21.7050   -6.2520   22.4730 C   0  0  0  0  0  0  0  0  0  0  0  0
  -21.1200   -6.7970   23.6370 C   0  0  0  0  0  3  0  0  0  0  0  0
  -20.9350   -5.9880   24.7770 C   0  0  0  0  0  3  0  0  0  0  0  0
  -21.3240   -4.6360   24.7520 C   0  0  0  0  0  0  0  0  0  0  0  0
  -21.9000   -4.0900   23.5920 C   0  0  0  0  0  3  0  0  0  0  0  0
  -22.0880   -4.8950   22.4550 C   0  0  0  0  0  0  0  0  0  0  0  0
  -22.6250   -4.3590   21.3330 F   0  0  0  0  0  0  0  0  0  0  0  0
  -21.1390   -3.8570   25.8430 F   0  0  0  0  0  0  0  0  0  0  0  0
  -22.9710  -13.6160   21.0440 C   0  0  0  0  0  0  0  0  0  0  0  0
  -22.1880  -12.9370   21.8750 N   0  0  0  0  0  0  0  0  0  0  0  0
  -22.5710  -14.6350   20.4820 O   0  0  0  0  0  0  0  0  0  0  0  0
  -22.5240  -12.1160   22.3580 H   0  0  0  0  0  0  0  0  0  0  0  0
  -21.2410  -13.2470   22.0350 H   0  0  0  0  0  0  0  0  0  0  0  0
  -25.6470  -15.2630   20.3810 N   0  0  0  0  0  0  0  0  0  0  0  0
  -24.8710  -15.9110   20.4310 H   0  0  0  0  0  0  0  0  0  0  0  0
  -26.5080  -15.6910   20.0710 H   0  0  0  0  0  0  0  0  0  0  0  0
  -28.7940  -16.6520   18.1390 C   0  0  0  0  0  1  0  0  0  0  0  0
  -30.1590  -16.3670   18.7870 C   0  0  0  0  0  2  0  0  0  0  0  0
  1  3  2  0
  2  4  2  0
  2  1  1  0
  3 52  1  0
  4  5  1  0
  5  7  1  0
  5  3  1  0
  6  7  1  0
  8  2  1  0
  8  9  2  0
 10 11  1  0
 10  9  1  0
 12 23  2  0
 13 11  1  0
 13 18  1  0
 14 22  1  0
 14 24  1  0
 15 21  1  0
 15 17  1  0
 16 22  1  0
 17 18  2  0
 17 16  1  0
 19 13  2  0
 20 19  1  0
 20 15  2  0
 21 14  1  0
 22 12  1  0
 24 26  2  0
 25 24  1  0
 27 25  1  0
 28 37  2  0
 28 33  1  0
 29 25  1  0
 29 33  1  0
 30 29  1  0
 31 32  1  0
 31 30  1  0
 32 28  1  0
 33 34  2  0
 34 35  1  0
 36 35  2  0
 37 36  1  0
 38 12  1  0
 38 39  1  0
 38 48  1  0
 39 42  1  0
 40 44  1  0
 40 39  1  0
 41 40  2  0
 44 43  1  0
 46 44  1  0
 46 47  1  0
 46 45  1  0
 48 51  1  1
 48 49  1  0
 50 48  1  0
 54 59  1  0
 55 56  1  0
 55 54  1  0
 57 56  1  0
 57 65  1  0
 57 58  1  0
 59 53  1  0
 59 58  1  0
 60 53  2  0
 61 53  1  0
 61 52  1  0
 62 63  2  0
 63 64  1  0
 63 82  1  0
 64 67  1  0
 65 62  1  0
 65 66  1  0
 66 64  2  0
 67 68  1  0
 68 69  2  0
 70 73  1  0
 70 69  1  0
 71 70  2  0
 72 71  1  0
 72 67  2  0
 73 74  1  0
 74 75  1  0
 75 76  2  0
 77 76  1  0
 77 81  1  0
 78 77  2  0
 79 74  2  0
 79 78  1  0
 80 79  1  0
 82 83  1  0
 83 86  1  0
 83 85  1  0
 84 82  2  0
 87 88  1  0
 87 62  1  0
 89 87  1  0
 90 91  1  0
 91 61  1  0
M  ISO  4  10 101  11 101  53 100  61 100
M  END
>  <TORSDO>  (69) 
F 22

>  <SCORE>  (69) 
-11.775

>  <name>  (69) 
68

>  <ligand_id>  (69) 
68

>  <original_smiles>  (69) 
[H]c1c([H])c([H])c2c(c1[H])C([H])([H])C([H])([H])C([H])([H])C2([H])N([H])C(=O)C1([H])N(C(=O)C([H])(N([H])C(=O)C([H])(N([H])C([H])([H])[H])C([H])([H])[H])C(C([H])([H])[H])(C([H])([H])[H])C([H])([H])[H])C([H])([H])c2c([H])c(OC([H])([H])C([H])([H])C([H])([H])c3nn(C([H])([H])C([H])([H])[H])c(C([H])([H])N(C(=O)N4C([H])([H])C([H])([H])C([H])([H])C([H])(n5nc(-c6c([H])c([H])c(Oc7c([H])c([H])c(F)c([H])c7F)c([H])c6[H])c(C(=O)N([H])[H])c5N([H])[H])C4([H])[H])C([H])([H])C([H])([H])[H])c3[H])c([H])c([H])c2C1([H])[H]

>  <smiles>  (69) 
[H]c1c([H])c([H])c2c(c1[H])C([H])([H])C([H])([H])C([H])([H])C2([H])N([H])C(=O)C1([H])N(C(=O)C([H])(N([H])C(=O)C([H])(N([H])C([H])([H])[H])C([H])([H])[H])C(C([H])([H])[H])(C([H])([H])[H])C([H])([H])[H])C([H])([H])c2c([H])c(OC([H])([H])C([H])([H])C([H])([H])c3nn(C([H])([H])C([H])([H])[H])c(C([H])([H])N(C(=O)N4C([H])([H])C([H])([H])C([H])([H])C([H])(n5nc(-c6c([H])c([H])c(Oc7c([H])c([H])c(F)c([H])c7F)c([H])c6[H])c(C(=O)N([H])[H])c5N([H])[H])C4([H])[H])C([H])([H])C([H])([H])[H])c3[H])c([H])c([H])c2C1([H])[H]

$$$$
69:0:0
     RDKit          3D

 89 97  0  0  1  0  0  0  0  0999 V2000
  -28.3250  -20.5240   20.5070 C   0  0  0  0  0  3  0  0  0  0  0  0
  -28.7030  -21.9780   20.2970 C   0  0  0  0  0  0  0  0  0  0  0  0
  -30.0320  -21.5510   19.9270 N   0  0  0  0  0  0  0  0  0  0  0  0
  -30.3340  -20.1890   19.9190 N   0  0  0  0  0  0  0  0  0  0  0  0
  -29.3100  -19.3210   20.3140 N   0  0  0  0  0  0  0  0  0  0  0  0
  -27.8680  -23.7130   20.2410 C   0  0  0  0  0  2  0  0  0  0  0  0
  -28.1440  -25.4790   20.3300 O   0  0  0  0  0  0  0  0  0  0  0  0
  -24.6590  -31.8810   23.2130 C   0  0  0  0  0  0  0  0  0  0  0  0
  -27.1860  -26.7280   20.2740 C   0  0  0  0  0  0  0  0  0  0  0  0
  -23.4740  -30.4690   21.5900 C   0  0  0  0  0  3  0  0  0  0  0  0
  -24.9230  -28.7990   20.1960 C   0  0  0  0  0  0  0  0  0  0  0  0
  -26.0570  -30.5930   21.4750 C   0  0  0  0  0  2  0  0  0  0  0  0
  -26.1210  -29.1490   20.8300 C   0  0  0  0  0  0  0  0  0  0  0  0
  -27.2350  -28.1440   20.8340 C   0  0  0  0  0  3  0  0  0  0  0  0
  -25.9520  -26.6040   19.5810 C   0  0  0  0  0  3  0  0  0  0  0  0
  -24.8820  -27.5530   19.5460 C   0  0  0  0  0  3  0  0  0  0  0  0
  -23.7180  -29.7560   20.2270 C   0  0  0  0  0  2  0  0  0  0  0  0
  -24.7540  -31.0160   22.1450 N   0  0  0  0  0  0  0  0  0  0  0  0
  -23.5640  -32.1890   23.7180 O   0  0  0  0  0  0  0  0  0  0  0  0
  -22.7510  -29.5050   22.5710 C   0  0  0  0  0  0  0  0  0  0  0  0
  -21.4180  -29.3530   22.4460 N   0  0  0  0  0  0  0  0  0  0  0  0
  -23.4030  -28.8900   23.4170 O   0  0  0  0  0  0  0  0  0  0  0  0
  -20.9400  -29.8990   21.7420 H   0  0  0  0  0  0  0  0  0  0  0  0
  -18.0290  -28.1460   22.9710 C   0  0  0  0  0  0  0  0  0  0  0  0
  -20.5900  -28.4250   23.2270 C   0  0  0  0  0  3  0  0  0  0  0  0
  -20.6930  -26.9850   22.6700 C   0  0  0  0  0  2  0  0  0  0  0  0
  -19.5920  -26.6500   21.6580 C   0  0  0  0  0  2  0  0  0  0  0  0
  -18.2100  -26.7940   22.3010 C   0  0  0  0  0  2  0  0  0  0  0  0
  -19.1450  -28.9190   23.3900 C   0  0  0  0  0  0  0  0  0  0  0  0
  -18.9170  -30.1800   23.9820 C   0  0  0  0  0  3  0  0  0  0  0  0
  -17.6090  -30.6700   24.1540 C   0  0  0  0  0  3  0  0  0  0  0  0
  -16.5080  -29.8960   23.7460 C   0  0  0  0  0  3  0  0  0  0  0  0
  -16.7200  -28.6350   23.1600 C   0  0  0  0  0  3  0  0  0  0  0  0
  -25.9200  -32.5400   23.8520 C   0  0  0  0  0  3  0  0  0  0  0  0
  -26.4120  -31.7960   25.1560 C   0  0  1  0  0  0  0  0  0  0  0  0
  -25.3010  -31.5880   26.2130 C   0  0  0  0  0  1  0  0  0  0  0  0
  -26.9940  -30.4060   24.8180 C   0  0  0  0  0  1  0  0  0  0  0  0
  -27.5570  -32.5990   25.8170 C   0  0  0  0  0  1  0  0  0  0  0  0
  -25.5950  -33.9450   24.1740 N   0  0  0  0  0  0  0  0  0  0  0  0
  -25.9230  -35.0060   23.4250 C   0  0  0  0  0  0  0  0  0  0  0  0
  -26.5870  -34.9070   22.3900 O   0  0  0  0  0  0  0  0  0  0  0  0
  -25.0050  -34.0950   24.9780 H   0  0  0  0  0  0  0  0  0  0  0  0
  -24.1910  -36.8090   23.1030 C   0  0  0  0  0  1  0  0  0  0  0  0
  -25.4450  -36.3980   23.8930 C   0  0  0  0  0  3  0  0  0  0  0  0
  -27.5890  -37.2910   24.6960 C   0  0  0  0  0  1  0  0  0  0  0  0
  -26.4750  -37.4530   23.7650 N   0  0  0  0  0  0  0  0  0  0  0  0
  -26.0690  -38.3730   23.9150 H   0  0  0  0  0  0  0  0  0  0  0  0
  -29.2610  -17.4850   20.1700 C   0  0  0  0  0  3  0  0  0  0  0  0
  -30.2280  -15.8330   20.3150 C   0  0  0  0  0  0  0  0  0  0  0  0
  -30.4600  -13.2410   19.5850 C   0  0  0  0  0  2  0  0  0  0  0  0
  -29.6130  -12.7810   18.3590 C   0  0  0  0  0  2  0  0  0  0  0  0
  -28.1820  -12.3990   18.7720 C   0  0  0  0  0  2  0  0  0  0  0  0
  -27.6170  -13.4070   19.7950 C   0  0  0  0  0  3  0  0  0  0  0  0
  -28.6070  -13.7700   20.9250 C   0  0  0  0  0  2  0  0  0  0  0  0
  -29.7910  -14.4210   20.3080 N   0  0  0  0  0  0  0  0  0  0  0  0
  -31.4730  -15.7920   20.2080 O   0  0  0  0  0  0  0  0  0  0  0  0
  -25.2330  -13.9130   20.5030 C   0  0  0  0  0  0  0  0  0  0  0  0
  -24.1700  -13.1240   20.8350 C   0  0  0  0  0  0  0  0  0  0  0  0
  -24.6580  -11.7800   20.8270 C   0  0  0  0  0  0  0  0  0  0  0  0
  -26.2930  -13.0530   20.2890 N   0  0  0  0  0  0  0  0  0  0  0  0
  -25.9610  -11.7620   20.5530 N   0  0  0  0  0  0  0  0  0  0  0  0
  -23.9400  -10.5100   21.0070 C   0  0  0  0  0  0  0  0  0  0  0  0
  -24.3450   -9.5590   21.9690 C   0  0  0  0  0  3  0  0  0  0  0  0
  -23.6220   -8.3580   22.1380 C   0  0  0  0  0  3  0  0  0  0  0  0
  -22.4800   -8.1000   21.3440 C   0  0  0  0  0  0  0  0  0  0  0  0
  -22.0910   -9.0410   20.3740 C   0  0  0  0  0  3  0  0  0  0  0  0
  -22.8150  -10.2330   20.2040 C   0  0  0  0  0  3  0  0  0  0  0  0
  -21.7310   -6.9500   21.4210 O   0  0  0  0  0  0  0  0  0  0  0  0
  -21.6330   -6.2290   22.5830 C   0  0  0  0  0  0  0  0  0  0  0  0
  -21.1220   -6.7960   23.7710 C   0  0  0  0  0  3  0  0  0  0  0  0
  -20.9750   -6.0000   24.9250 C   0  0  0  0  0  3  0  0  0  0  0  0
  -21.3280   -4.6370   24.8910 C   0  0  0  0  0  0  0  0  0  0  0  0
  -21.8320   -4.0700   23.7080 C   0  0  0  0  0  3  0  0  0  0  0  0
  -21.9810   -4.8640   22.5560 C   0  0  0  0  0  0  0  0  0  0  0  0
  -22.4470   -4.3060   21.4120 F   0  0  0  0  0  0  0  0  0  0  0  0
  -21.1790   -3.8710   25.9960 F   0  0  0  0  0  0  0  0  0  0  0  0
  -22.7620  -13.5860   21.0610 C   0  0  0  0  0  0  0  0  0  0  0  0
  -22.0180  -12.8950   21.9160 N   0  0  0  0  0  0  0  0  0  0  0  0
  -22.3300  -14.6010   20.5150 O   0  0  0  0  0  0  0  0  0  0  0  0
  -22.3810  -12.0760   22.3810 H   0  0  0  0  0  0  0  0  0  0  0  0
  -21.0710  -13.1900   22.1090 H   0  0  0  0  0  0  0  0  0  0  0  0
  -25.3930  -15.2870   20.3430 N   0  0  0  0  0  0  0  0  0  0  0  0
  -24.6330  -15.8970   20.6260 H   0  0  0  0  0  0  0  0  0  0  0  0
  -26.3020  -15.6880   20.5200 H   0  0  0  0  0  0  0  0  0  0  0  0
  -28.7030  -17.3230   18.7290 C   0  0  0  0  0  2  0  0  0  0  0  0
  -27.4180  -18.0140   18.4870 N   0  0  0  0  0  4  0  0  0  0  0  0
  -26.6750  -17.6500   19.0560 H   0  0  0  0  0  0  0  0  0  0  0  0
  -27.1500  -17.8980   17.5240 H   0  0  0  0  0  0  0  0  0  0  0  0
  -27.5130  -19.0010   18.6590 H   0  0  0  0  0  0  0  0  0  0  0  0
  2  1  2  0
  3  2  1  0
  4  3  2  0
  4  5  1  0
  5  1  1  0
  6  2  1  0
  6  7  1  0
  8 19  2  0
  9  7  1  0
  9 14  1  0
 10 18  1  0
 10 20  1  0
 11 17  1  0
 11 13  1  0
 12 18  1  0
 13 14  2  0
 13 12  1  0
 15  9  2  0
 16 15  1  0
 16 11  2  0
 17 10  1  0
 18  8  1  0
 20 22  2  0
 21 20  1  0
 23 21  1  0
 24 33  2  0
 24 29  1  0
 25 21  1  0
 25 29  1  0
 26 25  1  0
 27 28  1  0
 27 26  1  0
 28 24  1  0
 29 30  2  0
 30 31  1  0
 32 31  2  0
 33 32  1  0
 34  8  1  0
 34 39  1  0
 34 35  1  0
 35 38  1  1
 35 36  1  0
 37 35  1  0
 39 42  1  0
 40 44  1  0
 40 39  1  0
 41 40  2  0
 44 43  1  0
 46 44  1  0
 46 47  1  0
 46 45  1  0
 48 85  1  0
 48  5  1  0
 48 49  1  0
 50 55  1  0
 51 52  1  0
 51 50  1  0
 53 52  1  0
 53 60  1  0
 53 54  1  0
 55 49  1  0
 55 54  1  0
 56 49  2  0
 57 58  2  0
 58 77  1  0
 59 58  1  0
 59 62  1  0
 60 57  1  0
 60 61  1  0
 61 59  2  0
 62 63  1  0
 63 64  2  0
 65 68  1  0
 65 64  1  0
 66 65  2  0
 67 66  1  0
 67 62  2  0
 68 69  1  0
 69 70  1  0
 70 71  2  0
 72 71  1  0
 72 76  1  0
 73 72  2  0
 74 69  2  0
 74 73  1  0
 75 74  1  0
 77 78  1  0
 78 81  1  0
 78 80  1  0
 79 77  2  0
 82 57  1  0
 82 84  1  0
 82 83  1  0
 86 89  1  0
 86 85  1  0
 86 87  1  0
 88 86  1  0
M  ISO  4   6 101   7 101  48 100  49 100
M  END
>  <TORSDO>  (70) 
F 20

>  <SCORE>  (70) 
-15.884

>  <name>  (70) 
69

>  <ligand_id>  (70) 
69

>  <original_smiles>  (70) 
[H]c1c([H])c([H])c2c(c1[H])C([H])([H])C([H])([H])C([H])([H])C2([H])N([H])C(=O)C1([H])N(C(=O)C([H])(N([H])C(=O)C([H])(N([H])C([H])([H])[H])C([H])([H])[H])C(C([H])([H])[H])(C([H])([H])[H])C([H])([H])[H])C([H])([H])c2c([H])c(OC([H])([H])c3nnn(C([H])(C(=O)N4C([H])([H])C([H])([H])C([H])([H])C([H])(n5nc(-c6c([H])c([H])c(Oc7c([H])c([H])c(F)c([H])c7F)c([H])c6[H])c(C(=O)N([H])[H])c5N([H])[H])C4([H])[H])C([H])([H])[N+]([H])([H])[H])c3[H])c([H])c([H])c2C1([H])[H]

>  <smiles>  (70) 
[H]c1c([H])c([H])c2c(c1[H])C([H])([H])C([H])([H])C([H])([H])C2([H])N([H])C(=O)C1([H])N(C(=O)C([H])(N([H])C(=O)C([H])(N([H])C([H])([H])[H])C([H])([H])[H])C(C([H])([H])[H])(C([H])([H])[H])C([H])([H])[H])C([H])([H])c2c([H])c(OC([H])([H])c3nnn(C([H])(C(=O)N4C([H])([H])C([H])([H])C([H])([H])C([H])(n5nc(-c6c([H])c([H])c(Oc7c([H])c([H])c(F)c([H])c7F)c([H])c6[H])c(C(=O)N([H])[H])c5N([H])[H])C4([H])[H])C([H])([H])[N+]([H])([H])[H])c3[H])c([H])c([H])c2C1([H])[H]

$$$$
70:0:0
     RDKit          3D

 94102  0  0  1  0  0  0  0  0999 V2000
  -29.2640  -21.2680   20.6970 C   0  0  0  0  0  0  0  0  0  0  0  0
  -29.2230  -22.1870   19.5810 C   0  0  0  0  0  0  0  0  0  0  0  0
  -29.7730  -19.2980   19.3860 C   0  0  0  0  0  0  0  0  0  0  0  0
  -29.6930  -20.2190   18.2650 C   0  0  0  0  0  0  0  0  0  0  0  0
  -29.5260  -19.8960   20.6030 N   0  0  0  0  0  0  0  0  0  0  0  0
  -29.4350  -21.5850   18.3740 N   0  0  0  0  0  0  0  0  0  0  0  0
  -29.9220  -19.7410   16.8220 C   0  0  1  0  0  0  0  0  0  0  0  0
  -31.1450  -19.2250   16.6820 F   0  0  0  0  0  0  0  0  0  0  0  0
  -29.0200  -18.8160   16.4940 F   0  0  0  0  0  0  0  0  0  0  0  0
  -29.8060  -20.7470   15.9490 F   0  0  0  0  0  0  0  0  0  0  0  0
  -30.3230  -22.3610   22.7330 C   0  0  0  0  0  1  0  0  0  0  0  0
  -29.0500  -21.7810   22.1090 C   0  0  0  0  0  2  0  0  0  0  0  0
  -29.2800  -23.8280   19.6600 C   0  0  0  0  0  3  0  0  0  0  0  0
  -28.0980  -24.9440   19.3350 C   0  0  0  0  0  3  0  0  0  0  0  0
  -28.2760  -26.4630   19.5580 O   0  0  0  0  0  0  0  0  0  0  0  0
  -24.6560  -31.7680   23.0840 C   0  0  0  0  0  0  0  0  0  0  0  0
  -27.1780  -27.3820   19.5940 C   0  0  0  0  0  0  0  0  0  0  0  0
  -23.4000  -30.4570   21.4130 C   0  0  0  0  0  3  0  0  0  0  0  0
  -24.8050  -29.0300   19.8060 C   0  0  0  0  0  0  0  0  0  0  0  0
  -25.9300  -30.8160   21.1280 C   0  0  0  0  0  2  0  0  0  0  0  0
  -26.0020  -29.4780   20.3800 C   0  0  0  0  0  0  0  0  0  0  0  0
  -27.1870  -28.6680   20.2600 C   0  0  0  0  0  3  0  0  0  0  0  0
  -25.9560  -27.0310   18.9810 C   0  0  0  0  0  3  0  0  0  0  0  0
  -24.7910  -27.8230   19.0910 C   0  0  0  0  0  3  0  0  0  0  0  0
  -23.5580  -29.8800   19.9820 C   0  0  0  0  0  2  0  0  0  0  0  0
  -24.6860  -31.0310   21.9320 N   0  0  0  0  0  0  0  0  0  0  0  0
  -23.5940  -31.9870   23.6880 O   0  0  0  0  0  0  0  0  0  0  0  0
  -22.8000  -29.3680   22.3380 C   0  0  0  0  0  0  0  0  0  0  0  0
  -21.4800  -29.1350   22.2310 N   0  0  0  0  0  0  0  0  0  0  0  0
  -23.5230  -28.7350   23.1110 O   0  0  0  0  0  0  0  0  0  0  0  0
  -20.9530  -29.7050   21.5840 H   0  0  0  0  0  0  0  0  0  0  0  0
  -18.1890  -27.6890   22.6850 C   0  0  0  0  0  0  0  0  0  0  0  0
  -20.7250  -28.1190   22.9680 C   0  0  0  0  0  3  0  0  0  0  0  0
  -20.9220  -26.7160   22.3490 C   0  0  0  0  0  2  0  0  0  0  0  0
  -19.8460  -26.3500   21.3210 C   0  0  0  0  0  2  0  0  0  0  0  0
  -18.4570  -26.3770   21.9670 C   0  0  0  0  0  2  0  0  0  0  0  0
  -19.2520  -28.5130   23.1410 C   0  0  0  0  0  0  0  0  0  0  0  0
  -18.9460  -29.7360   23.7740 C   0  0  0  0  0  3  0  0  0  0  0  0
  -17.6090  -30.1390   23.9550 C   0  0  0  0  0  3  0  0  0  0  0  0
  -16.5610  -29.3130   23.5130 C   0  0  0  0  0  3  0  0  0  0  0  0
  -16.8520  -28.0900   22.8840 C   0  0  0  0  0  3  0  0  0  0  0  0
  -25.9520  -32.3900   23.6890 C   0  0  0  0  0  3  0  0  0  0  0  0
  -25.6370  -33.7680   24.0980 N   0  0  0  0  0  0  0  0  0  0  0  0
  -25.9250  -34.8630   23.3810 C   0  0  0  0  0  0  0  0  0  0  0  0
  -26.5510  -34.8180   22.3190 O   0  0  0  0  0  0  0  0  0  0  0  0
  -25.0730  -33.8730   24.9280 H   0  0  0  0  0  0  0  0  0  0  0  0
  -24.1610  -36.6500   23.1940 C   0  0  0  0  0  1  0  0  0  0  0  0
  -25.4430  -36.2220   23.9270 C   0  0  0  0  0  3  0  0  0  0  0  0
  -27.5970  -37.1040   24.7110 C   0  0  0  0  0  1  0  0  0  0  0  0
  -26.4570  -37.2940   23.8170 N   0  0  0  0  0  0  0  0  0  0  0  0
  -26.0460  -38.2020   24.0180 H   0  0  0  0  0  0  0  0  0  0  0  0
  -26.5220  -31.5690   24.9100 C   0  0  1  0  0  0  0  0  0  0  0  0
  -25.4750  -31.2720   26.0100 C   0  0  0  0  0  1  0  0  0  0  0  0
  -27.0990  -30.2150   24.4360 C   0  0  0  0  0  1  0  0  0  0  0  0
  -27.6950  -32.3440   25.5560 C   0  0  0  0  0  1  0  0  0  0  0  0
  -30.2520  -17.7220   19.1860 C   0  0  0  0  0  2  0  0  0  0  0  0
  -30.6720  -15.1640   19.7570 C   0  0  0  0  0  0  0  0  0  0  0  0
  -30.5380  -12.7720   18.9370 C   0  0  0  0  0  2  0  0  0  0  0  0
  -29.5200  -12.6280   17.7820 C   0  0  0  0  0  2  0  0  0  0  0  0
  -28.1010  -12.3940   18.3310 C   0  0  0  0  0  2  0  0  0  0  0  0
  -27.7490  -13.3600   19.4920 C   0  0  0  0  0  3  0  0  0  0  0  0
  -28.8840  -13.4390   20.5310 C   0  0  0  0  0  2  0  0  0  0  0  0
  -30.0890  -13.8950   19.8160 N   0  0  0  0  0  0  0  0  0  0  0  0
  -31.8090  -15.2200   19.2740 O   0  0  0  0  0  0  0  0  0  0  0  0
  -29.2110  -16.5720   21.1960 C   0  0  0  0  0  1  0  0  0  0  0  0
  -29.9380  -16.3780   19.9410 N   0  0  0  0  0  0  0  0  0  0  0  0
  -25.4580  -13.9050   20.4940 C   0  0  0  0  0  0  0  0  0  0  0  0
  -24.4290  -13.1120   20.9200 C   0  0  0  0  0  0  0  0  0  0  0  0
  -24.8740  -11.7650   20.7620 C   0  0  0  0  0  0  0  0  0  0  0  0
  -26.4640  -13.0380   20.1000 N   0  0  0  0  0  0  0  0  0  0  0  0
  -26.1270  -11.7410   20.3230 N   0  0  0  0  0  0  0  0  0  0  0  0
  -24.1590  -10.4960   20.9500 C   0  0  0  0  0  0  0  0  0  0  0  0
  -24.6120   -9.5200   21.8640 C   0  0  0  0  0  3  0  0  0  0  0  0
  -23.8950   -8.3170   22.0400 C   0  0  0  0  0  3  0  0  0  0  0  0
  -22.7120   -8.0810   21.3010 C   0  0  0  0  0  0  0  0  0  0  0  0
  -22.2770   -9.0460   20.3750 C   0  0  0  0  0  3  0  0  0  0  0  0
  -22.9940  -10.2410   20.1990 C   0  0  0  0  0  3  0  0  0  0  0  0
  -21.9650   -6.9310   21.3860 O   0  0  0  0  0  0  0  0  0  0  0  0
  -21.8550   -6.2290   22.5590 C   0  0  0  0  0  0  0  0  0  0  0  0
  -21.2960   -6.8040   23.7210 C   0  0  0  0  0  3  0  0  0  0  0  0
  -21.1400   -6.0250   24.8850 C   0  0  0  0  0  3  0  0  0  0  0  0
  -21.5310   -4.6730   24.8870 C   0  0  0  0  0  0  0  0  0  0  0  0
  -22.0820   -4.0970   23.7290 C   0  0  0  0  0  3  0  0  0  0  0  0
  -22.2410   -4.8740   22.5670 C   0  0  0  0  0  0  0  0  0  0  0  0
  -22.7520   -4.3090   21.4460 F   0  0  0  0  0  0  0  0  0  0  0  0
  -21.3750   -3.9220   26.0030 F   0  0  0  0  0  0  0  0  0  0  0  0
  -23.0710  -13.5760   21.3590 C   0  0  0  0  0  0  0  0  0  0  0  0
  -22.4340  -12.8380   22.2610 N   0  0  0  0  0  0  0  0  0  0  0  0
  -22.5870  -14.6270   20.9400 O   0  0  0  0  0  0  0  0  0  0  0  0
  -22.8410  -11.9870   22.6230 H   0  0  0  0  0  0  0  0  0  0  0  0
  -21.5260  -13.1250   22.5980 H   0  0  0  0  0  0  0  0  0  0  0  0
  -25.6170  -15.2820   20.3840 N   0  0  0  0  0  0  0  0  0  0  0  0
  -24.8720  -15.9320   20.6140 H   0  0  0  0  0  0  0  0  0  0  0  0
  -26.4380  -15.7390   20.0080 H   0  0  0  0  0  0  0  0  0  0  0  0
  1 12  1  0
  2 13  1  0
  2  1  2  0
  3  5  2  0
  4  6  2  0
  4  3  1  0
  5  1  1  0
  6  2  1  0
  7  4  1  0
  7  8  1  1
  9  7  1  0
 10  7  1  0
 12 11  1  0
 14 15  1  0
 14 13  2  0
 15 17  1  0
 16 27  2  0
 17 22  1  0
 18 26  1  0
 18 28  1  0
 19 25  1  0
 19 21  1  0
 20 26  1  0
 21 20  1  0
 22 21  2  0
 23 24  1  0
 23 17  2  0
 24 19  2  0
 25 18  1  0
 26 16  1  0
 28 30  2  0
 29 28  1  0
 31 29  1  0
 32 41  2  0
 32 37  1  0
 33 29  1  0
 33 37  1  0
 34 33  1  0
 35 36  1  0
 35 34  1  0
 36 32  1  0
 37 38  2  0
 38 39  1  0
 40 39  2  0
 41 40  1  0
 42 16  1  0
 42 43  1  0
 42 52  1  0
 43 46  1  0
 44 48  1  0
 44 43  1  0
 45 44  2  0
 48 47  1  0
 50 48  1  0
 50 51  1  0
 50 49  1  0
 52 55  1  1
 52 53  1  0
 54 52  1  0
 56  3  1  0
 56 66  1  0
 57 63  1  0
 57 66  1  0
 58 63  1  0
 59 60  1  0
 59 58  1  0
 61 60  1  0
 61 70  1  0
 61 62  1  0
 63 62  1  0
 64 57  2  0
 66 65  1  0
 67 68  2  0
 68 87  1  0
 69 68  1  0
 69 72  1  0
 70 71  1  0
 70 67  1  0
 71 69  2  0
 72 73  1  0
 73 74  2  0
 75 78  1  0
 75 74  1  0
 76 75  2  0
 77 76  1  0
 77 72  2  0
 78 79  1  0
 79 84  2  0
 79 80  1  0
 80 81  2  0
 81 82  1  0
 82 86  1  0
 83 82  2  0
 84 83  1  0
 85 84  1  0
 87 88  1  0
 88 91  1  0
 88 90  1  0
 89 87  2  0
 92 67  1  0
 92 93  1  0
 94 92  1  0
M  ISO  4  14 101  15 101  57 100  66 100
M  END
>  <TORSDO>  (71) 
F 21

>  <SCORE>  (71) 
-13.218

>  <name>  (71) 
70

>  <ligand_id>  (71) 
70

>  <original_smiles>  (71) 
[H]c1c([H])c([H])c2c(c1[H])C([H])([H])C([H])([H])C([H])([H])C2([H])N([H])C(=O)C1([H])N(C(=O)C([H])(N([H])C(=O)C([H])(N([H])C([H])([H])[H])C([H])([H])[H])C(C([H])([H])[H])(C([H])([H])[H])C([H])([H])[H])C([H])([H])c2c([H])c(OC([H])([H])C([H])([H])c3nc(C(F)(F)F)c(C([H])([H])N(C(=O)N4C([H])([H])C([H])([H])C([H])([H])C([H])(n5nc(-c6c([H])c([H])c(Oc7c([H])c([H])c(F)c([H])c7F)c([H])c6[H])c(C(=O)N([H])[H])c5N([H])[H])C4([H])[H])C([H])([H])[H])nc3C([H])([H])C([H])([H])[H])c([H])c([H])c2C1([H])[H]

>  <smiles>  (71) 
[H]c1c([H])c([H])c2c(c1[H])C([H])([H])C([H])([H])C([H])([H])C2([H])N([H])C(=O)C1([H])N(C(=O)C([H])(N([H])C(=O)C([H])(N([H])C([H])([H])[H])C([H])([H])[H])C(C([H])([H])[H])(C([H])([H])[H])C([H])([H])[H])C([H])([H])c2c([H])c(OC([H])([H])C([H])([H])c3nc(C(F)(F)F)c(C([H])([H])N(C(=O)N4C([H])([H])C([H])([H])C([H])([H])C([H])(n5nc(-c6c([H])c([H])c(Oc7c([H])c([H])c(F)c([H])c7F)c([H])c6[H])c(C(=O)N([H])[H])c5N([H])[H])C4([H])[H])C([H])([H])[H])nc3C([H])([H])C([H])([H])[H])c([H])c([H])c2C1([H])[H]

$$$$
71:0:0
     RDKit          3D

 88 96  0  0  1  0  0  0  0  0999 V2000
  -27.9310  -21.6240   19.6210 C   0  0  0  0  0  2  0  0  0  0  0  0
  -29.1520  -20.0680   20.3830 C   0  0  0  0  0  0  0  0  0  0  0  0
  -28.0180  -20.2820   19.6370 N   0  0  0  0  0  0  0  0  0  0  0  0
  -29.7250  -21.2430   20.7760 N   0  0  0  0  0  2  0  0  0  0  0  0
  -28.8980  -22.2690   20.2850 N   0  0  0  0  0  0  0  0  0  0  0  0
  -29.5200  -18.6230   20.9310 C   0  0  0  0  0  3  0  0  0  0  0  0
  -30.1590  -17.3890   20.0560 C   0  0  0  0  0  3  0  0  0  0  0  0
  -30.7160  -14.7970   20.0180 C   0  0  0  0  0  0  0  0  0  0  0  0
  -30.3710  -12.5620   18.9120 C   0  0  0  0  0  2  0  0  0  0  0  0
  -29.3580  -12.7010   17.7530 C   0  0  0  0  0  2  0  0  0  0  0  0
  -27.9160  -12.5250   18.2690 C   0  0  0  0  0  2  0  0  0  0  0  0
  -27.6410  -13.3590   19.5510 C   0  0  0  0  0  3  0  0  0  0  0  0
  -28.7740  -13.2140   20.5900 C   0  0  0  0  0  2  0  0  0  0  0  0
  -30.0360  -13.5880   19.9350 N   0  0  0  0  0  0  0  0  0  0  0  0
  -31.7960  -14.9060   19.4280 O   0  0  0  0  0  0  0  0  0  0  0  0
  -30.0130  -15.9070   22.0510 C   0  0  0  0  0  1  0  0  0  0  0  0
  -30.1180  -15.9310   20.5900 N   0  0  0  0  0  0  0  0  0  0  0  0
  -25.3120  -13.9480   20.4620 C   0  0  0  0  0  0  0  0  0  0  0  0
  -24.2600  -13.1730   20.8780 C   0  0  0  0  0  0  0  0  0  0  0  0
  -24.7030  -11.8210   20.7720 C   0  0  0  0  0  0  0  0  0  0  0  0
  -26.3260  -13.0650   20.1230 N   0  0  0  0  0  0  0  0  0  0  0  0
  -25.9710  -11.7780   20.3740 N   0  0  0  0  0  0  0  0  0  0  0  0
  -23.9720  -10.5630   20.9720 C   0  0  0  0  0  0  0  0  0  0  0  0
  -24.4380   -9.5690   21.8600 C   0  0  0  0  0  3  0  0  0  0  0  0
  -23.7070   -8.3760   22.0490 C   0  0  0  0  0  3  0  0  0  0  0  0
  -22.4930   -8.1690   21.3560 C   0  0  0  0  0  0  0  0  0  0  0  0
  -22.0420   -9.1510   20.4560 C   0  0  0  0  0  3  0  0  0  0  0  0
  -22.7740  -10.3360   20.2640 C   0  0  0  0  0  3  0  0  0  0  0  0
  -21.7250   -7.0350   21.4640 O   0  0  0  0  0  0  0  0  0  0  0  0
  -21.7100   -6.2790   22.6070 C   0  0  0  0  0  0  0  0  0  0  0  0
  -21.3580   -6.8270   23.8610 C   0  0  0  0  0  3  0  0  0  0  0  0
  -21.2940   -5.9980   24.9990 C   0  0  0  0  0  3  0  0  0  0  0  0
  -21.5650   -4.6220   24.8830 C   0  0  0  0  0  0  0  0  0  0  0  0
  -21.9070   -4.0710   23.6350 C   0  0  0  0  0  3  0  0  0  0  0  0
  -21.9780   -4.8990   22.5010 C   0  0  0  0  0  0  0  0  0  0  0  0
  -22.2880   -4.3590   21.2960 F   0  0  0  0  0  0  0  0  0  0  0  0
  -21.4940   -3.8240   25.9740 F   0  0  0  0  0  0  0  0  0  0  0  0
  -22.8930  -13.6610   21.2590 C   0  0  0  0  0  0  0  0  0  0  0  0
  -22.2180  -12.9590   22.1640 N   0  0  0  0  0  0  0  0  0  0  0  0
  -22.4340  -14.7030   20.7940 O   0  0  0  0  0  0  0  0  0  0  0  0
  -22.6010  -12.1200   22.5740 H   0  0  0  0  0  0  0  0  0  0  0  0
  -21.3020  -13.2690   22.4570 H   0  0  0  0  0  0  0  0  0  0  0  0
  -25.4870  -15.3200   20.3200 N   0  0  0  0  0  0  0  0  0  0  0  0
  -24.7470  -15.9840   20.5220 H   0  0  0  0  0  0  0  0  0  0  0  0
  -26.3350  -15.7650   19.9880 H   0  0  0  0  0  0  0  0  0  0  0  0
  -29.1510  -23.7700   20.4860 C   0  0  0  0  0  3  0  0  0  0  0  0
  -28.0670  -24.8860   20.0260 C   0  0  0  0  0  3  0  0  0  0  0  0
  -28.3090  -26.3680   20.1940 O   0  0  0  0  0  0  0  0  0  0  0  0
  -24.6620  -31.8750   23.1920 C   0  0  0  0  0  0  0  0  0  0  0  0
  -27.2170  -27.2670   20.1210 C   0  0  0  0  0  0  0  0  0  0  0  0
  -23.4400  -30.4850   21.5570 C   0  0  0  0  0  3  0  0  0  0  0  0
  -24.8710  -28.9320   20.1110 C   0  0  0  0  0  0  0  0  0  0  0  0
  -25.9850  -30.7780   21.3630 C   0  0  0  0  0  2  0  0  0  0  0  0
  -26.0490  -29.4010   20.7080 C   0  0  0  0  0  0  0  0  0  0  0  0
  -27.2240  -28.5810   20.6970 C   0  0  0  0  0  3  0  0  0  0  0  0
  -26.0170  -26.8700   19.4890 C   0  0  0  0  0  3  0  0  0  0  0  0
  -24.8610  -27.6770   19.4860 C   0  0  0  0  0  3  0  0  0  0  0  0
  -23.6430  -29.8230   20.1700 C   0  0  0  0  0  2  0  0  0  0  0  0
  -24.7140  -31.0670   22.0940 N   0  0  0  0  0  0  0  0  0  0  0  0
  -23.5850  -32.1530   23.7380 O   0  0  0  0  0  0  0  0  0  0  0  0
  -22.7830  -29.4630   22.5220 C   0  0  0  0  0  0  0  0  0  0  0  0
  -21.4540  -29.2940   22.4160 N   0  0  0  0  0  0  0  0  0  0  0  0
  -23.4700  -28.8350   23.3330 O   0  0  0  0  0  0  0  0  0  0  0  0
  -20.9580  -29.8660   21.7470 H   0  0  0  0  0  0  0  0  0  0  0  0
  -18.0790  -28.0890   22.9360 C   0  0  0  0  0  0  0  0  0  0  0  0
  -20.6390  -28.3570   23.1930 C   0  0  0  0  0  3  0  0  0  0  0  0
  -20.7400  -26.9220   22.6230 C   0  0  0  0  0  2  0  0  0  0  0  0
  -19.6340  -26.5930   21.6160 C   0  0  0  0  0  2  0  0  0  0  0  0
  -18.2560  -26.7360   22.2670 C   0  0  0  0  0  2  0  0  0  0  0  0
  -19.2000  -28.8560   23.3570 C   0  0  0  0  0  0  0  0  0  0  0  0
  -18.9810  -30.1200   23.9450 C   0  0  0  0  0  3  0  0  0  0  0  0
  -17.6770  -30.6180   24.1190 C   0  0  0  0  0  3  0  0  0  0  0  0
  -16.5710  -29.8490   23.7160 C   0  0  0  0  0  3  0  0  0  0  0  0
  -16.7730  -28.5870   23.1290 C   0  0  0  0  0  3  0  0  0  0  0  0
  -25.9500  -32.5080   23.8000 C   0  0  0  0  0  3  0  0  0  0  0  0
  -26.4860  -31.7330   25.0660 C   0  0  1  0  0  0  0  0  0  0  0  0
  -25.4130  -31.4950   26.1550 C   0  0  0  0  0  1  0  0  0  0  0  0
  -27.0630  -30.3580   24.6640 C   0  0  0  0  0  1  0  0  0  0  0  0
  -27.6420  -32.5300   25.7160 C   0  0  0  0  0  1  0  0  0  0  0  0
  -25.6400  -33.9030   24.1470 N   0  0  0  0  0  0  0  0  0  0  0  0
  -25.9480  -34.9660   23.3910 C   0  0  0  0  0  0  0  0  0  0  0  0
  -26.5980  -34.8770   22.3450 O   0  0  0  0  0  0  0  0  0  0  0  0
  -25.0710  -34.0470   24.9690 H   0  0  0  0  0  0  0  0  0  0  0  0
  -24.2020  -36.7560   23.0980 C   0  0  0  0  0  1  0  0  0  0  0  0
  -25.4640  -36.3480   23.8750 C   0  0  0  0  0  3  0  0  0  0  0  0
  -27.6140  -37.2370   24.6580 C   0  0  0  0  0  1  0  0  0  0  0  0
  -26.4860  -37.4120   23.7490 N   0  0  0  0  0  0  0  0  0  0  0  0
  -26.0760  -38.3250   23.9250 H   0  0  0  0  0  0  0  0  0  0  0  0
  1  3  1  0
  1  5  1  0
  2  4  1  0
  2  6  1  0
  3  2  2  0
  5 46  1  0
  5  4  1  0
  7 17  1  0
  7  6  2  0
  8 17  1  0
  9 14  1  0
 10 11  1  0
 10  9  1  0
 12 11  1  0
 12 21  1  0
 12 13  1  0
 14  8  1  0
 14 13  1  0
 15  8  2  0
 17 16  1  0
 18 19  2  0
 19 38  1  0
 20 19  1  0
 20 23  1  0
 21 22  1  0
 21 18  1  0
 22 20  2  0
 23 24  1  0
 24 25  2  0
 26 29  1  0
 26 25  1  0
 27 26  2  0
 28 27  1  0
 28 23  2  0
 29 30  1  0
 30 31  1  0
 31 32  2  0
 33 32  1  0
 33 37  1  0
 34 33  2  0
 35 30  2  0
 35 34  1  0
 36 35  1  0
 38 39  1  0
 39 42  1  0
 39 41  1  0
 40 38  2  0
 43 18  1  0
 43 44  1  0
 45 43  1  0
 47 48  1  0
 47 46  2  0
 49 60  2  0
 50 48  1  0
 50 55  1  0
 51 59  1  0
 51 61  1  0
 52 58  1  0
 52 54  1  0
 53 59  1  0
 54 53  1  0
 55 54  2  0
 56 50  2  0
 57 56  1  0
 57 52  2  0
 58 51  1  0
 59 49  1  0
 61 63  2  0
 62 61  1  0
 64 62  1  0
 65 74  2  0
 65 70  1  0
 66 62  1  0
 66 70  1  0
 67 66  1  0
 68 69  1  0
 68 67  1  0
 69 65  1  0
 70 71  2  0
 71 72  1  0
 73 72  2  0
 74 73  1  0
 75 49  1  0
 75 80  1  0
 75 76  1  0
 76 79  1  1
 76 77  1  0
 78 76  1  0
 80 83  1  0
 81 85  1  0
 81 80  1  0
 82 81  2  0
 85 84  1  0
 87 85  1  0
 87 88  1  0
 87 86  1  0
M  ISO  4   8 100  17 100  47 101  48 101
M  END
>  <TORSDO>  (72) 
F 20

>  <SCORE>  (72) 
-13.194

>  <name>  (72) 
71

>  <ligand_id>  (72) 
71

>  <original_smiles>  (72) 
[H]c1c([H])c([H])c2c(c1[H])C([H])([H])C([H])([H])C([H])([H])C2([H])N([H])C(=O)C1([H])N(C(=O)C([H])(N([H])C(=O)C([H])(N([H])C([H])([H])[H])C([H])([H])[H])C(C([H])([H])[H])(C([H])([H])[H])C([H])([H])[H])C([H])([H])c2c([H])c(OC([H])([H])C([H])([H])n3nc(C([H])([H])C([H])([H])N(C(=O)N4C([H])([H])C([H])([H])C([H])([H])C([H])(n5nc(-c6c([H])c([H])c(Oc7c([H])c([H])c(F)c([H])c7F)c([H])c6[H])c(C(=O)N([H])[H])c5N([H])[H])C4([H])[H])C([H])([H])[H])nc3[H])c([H])c([H])c2C1([H])[H]

>  <smiles>  (72) 
[H]c1c([H])c([H])c2c(c1[H])C([H])([H])C([H])([H])C([H])([H])C2([H])N([H])C(=O)C1([H])N(C(=O)C([H])(N([H])C(=O)C([H])(N([H])C([H])([H])[H])C([H])([H])[H])C(C([H])([H])[H])(C([H])([H])[H])C([H])([H])[H])C([H])([H])c2c([H])c(OC([H])([H])C([H])([H])n3nc(C([H])([H])C([H])([H])N(C(=O)N4C([H])([H])C([H])([H])C([H])([H])C([H])(n5nc(-c6c([H])c([H])c(Oc7c([H])c([H])c(F)c([H])c7F)c([H])c6[H])c(C(=O)N([H])[H])c5N([H])[H])C4([H])[H])C([H])([H])[H])nc3[H])c([H])c([H])c2C1([H])[H]

$$$$
72:0:0
     RDKit          3D

 92100  0  0  1  0  0  0  0  0999 V2000
  -28.3340  -22.0760   18.6160 C   0  0  0  0  0  3  0  0  0  0  0  0
  -28.2760  -20.7840   18.0760 C   0  0  0  0  0  0  0  0  0  0  0  0
  -28.9360  -22.2560   19.8700 C   0  0  0  0  0  0  0  0  0  0  0  0
  -29.3480  -19.8880   19.9060 C   0  0  0  0  0  0  0  0  0  0  0  0
  -27.6500  -20.5310   16.7190 C   0  0  0  0  0  1  0  0  0  0  0  0
  -28.7630  -19.7110   18.7260 N   0  0  0  0  0  0  0  0  0  0  0  0
  -29.4530  -21.1210   20.4900 N   0  0  0  0  0  0  0  0  0  0  0  0
  -30.5740  -24.0990   20.4630 C   0  0  0  0  0  1  0  0  0  0  0  0
  -28.6030  -23.6650   21.9640 C   0  0  0  0  0  1  0  0  0  0  0  0
  -29.0830  -23.7220   20.5020 C   0  0  2  0  0  0  0  0  0  0  0  0
  -28.2410  -24.9210   19.7980 C   0  0  0  0  0  2  0  0  0  0  0  0
  -28.3550  -26.3680   20.2060 O   0  0  0  0  0  0  0  0  0  0  0  0
  -24.6450  -31.8340   23.1840 C   0  0  0  0  0  0  0  0  0  0  0  0
  -27.2430  -27.2420   20.1230 C   0  0  0  0  0  0  0  0  0  0  0  0
  -23.4310  -30.4220   21.5620 C   0  0  0  0  0  3  0  0  0  0  0  0
  -24.8770  -28.8760   20.1230 C   0  0  0  0  0  0  0  0  0  0  0  0
  -25.9710  -30.7420   21.3580 C   0  0  0  0  0  2  0  0  0  0  0  0
  -26.0490  -29.3590   20.7160 C   0  0  0  0  0  0  0  0  0  0  0  0
  -27.2330  -28.5520   20.7090 C   0  0  0  0  0  3  0  0  0  0  0  0
  -26.0500  -26.8400   19.4780 C   0  0  0  0  0  3  0  0  0  0  0  0
  -24.8830  -27.6230   19.4940 C   0  0  0  0  0  3  0  0  0  0  0  0
  -23.6340  -29.7440   20.1830 C   0  0  0  0  0  2  0  0  0  0  0  0
  -24.7020  -31.0190   22.0890 N   0  0  0  0  0  0  0  0  0  0  0  0
  -23.5640  -32.1100   23.7260 O   0  0  0  0  0  0  0  0  0  0  0  0
  -22.7810  -29.4080   22.5340 C   0  0  0  0  0  0  0  0  0  0  0  0
  -21.4540  -29.2260   22.4220 N   0  0  0  0  0  0  0  0  0  0  0  0
  -23.4700  -28.7870   23.3470 O   0  0  0  0  0  0  0  0  0  0  0  0
  -20.9560  -29.7780   21.7400 H   0  0  0  0  0  0  0  0  0  0  0  0
  -18.0890  -28.0070   22.9530 C   0  0  0  0  0  0  0  0  0  0  0  0
  -20.6470  -28.2870   23.2030 C   0  0  0  0  0  3  0  0  0  0  0  0
  -20.7550  -26.8520   22.6360 C   0  0  0  0  0  2  0  0  0  0  0  0
  -19.6490  -26.5140   21.6310 C   0  0  0  0  0  2  0  0  0  0  0  0
  -18.2700  -26.6560   22.2840 C   0  0  0  0  0  2  0  0  0  0  0  0
  -19.2040  -28.7810   23.3690 C   0  0  0  0  0  0  0  0  0  0  0  0
  -18.9820  -30.0470   23.9540 C   0  0  0  0  0  3  0  0  0  0  0  0
  -17.6750  -30.5390   24.1270 C   0  0  0  0  0  3  0  0  0  0  0  0
  -16.5720  -29.7630   23.7280 C   0  0  0  0  0  3  0  0  0  0  0  0
  -16.7810  -28.4990   23.1470 C   0  0  0  0  0  3  0  0  0  0  0  0
  -25.9300  -32.4760   23.7910 C   0  0  0  0  0  3  0  0  0  0  0  0
  -26.4720  -31.7030   25.0570 C   0  0  1  0  0  0  0  0  0  0  0  0
  -25.3960  -31.4470   26.1390 C   0  0  0  0  0  1  0  0  0  0  0  0
  -27.0640  -30.3340   24.6500 C   0  0  0  0  0  1  0  0  0  0  0  0
  -27.6250  -32.5060   25.7060 C   0  0  0  0  0  1  0  0  0  0  0  0
  -25.6120  -33.8690   24.1370 N   0  0  0  0  0  0  0  0  0  0  0  0
  -25.9110  -34.9310   23.3760 C   0  0  0  0  0  0  0  0  0  0  0  0
  -26.5590  -34.8420   22.3290 O   0  0  0  0  0  0  0  0  0  0  0  0
  -25.0450  -34.0130   24.9590 H   0  0  0  0  0  0  0  0  0  0  0  0
  -24.1480  -36.7000   23.0820 C   0  0  0  0  0  1  0  0  0  0  0  0
  -25.4170  -36.3090   23.8560 C   0  0  0  0  0  3  0  0  0  0  0  0
  -27.5610  -37.2210   24.6320 C   0  0  0  0  0  1  0  0  0  0  0  0
  -26.4300  -37.3790   23.7210 N   0  0  0  0  0  0  0  0  0  0  0  0
  -26.0140  -38.2910   23.8840 H   0  0  0  0  0  0  0  0  0  0  0  0
  -29.6800  -18.5450   20.6890 C   0  0  0  0  0  3  0  0  0  0  0  0
  -30.2780  -17.2360   19.9300 C   0  0  0  0  0  3  0  0  0  0  0  0
  -30.8860  -14.7110   20.0840 C   0  0  0  0  0  0  0  0  0  0  0  0
  -30.5590  -12.5110   18.9340 C   0  0  0  0  0  2  0  0  0  0  0  0
  -29.5540  -12.6780   17.7700 C   0  0  0  0  0  2  0  0  0  0  0  0
  -28.1020  -12.5220   18.2650 C   0  0  0  0  0  2  0  0  0  0  0  0
  -27.8270  -13.3390   19.5550 C   0  0  0  0  0  3  0  0  0  0  0  0
  -28.9370  -13.1170   20.6010 C   0  0  0  0  0  2  0  0  0  0  0  0
  -30.2140  -13.5060   19.9790 N   0  0  0  0  0  0  0  0  0  0  0  0
  -31.9830  -14.8390   19.5300 O   0  0  0  0  0  0  0  0  0  0  0  0
  -29.8650  -15.8670   21.9960 C   0  0  0  0  0  1  0  0  0  0  0  0
  -30.2230  -15.8380   20.5730 N   0  0  0  0  0  0  0  0  0  0  0  0
  -25.4870  -13.9510   20.4080 C   0  0  0  0  0  0  0  0  0  0  0  0
  -24.4290  -13.1850   20.8180 C   0  0  0  0  0  0  0  0  0  0  0  0
  -24.8700  -11.8280   20.7390 C   0  0  0  0  0  0  0  0  0  0  0  0
  -26.5030  -13.0610   20.1020 N   0  0  0  0  0  0  0  0  0  0  0  0
  -26.1420  -11.7780   20.3610 N   0  0  0  0  0  0  0  0  0  0  0  0
  -24.1370  -10.5720   20.9430 C   0  0  0  0  0  0  0  0  0  0  0  0
  -24.5830   -9.5970   21.8620 C   0  0  0  0  0  3  0  0  0  0  0  0
  -23.8490   -8.4060   22.0550 C   0  0  0  0  0  3  0  0  0  0  0  0
  -22.6550   -8.1830   21.3280 C   0  0  0  0  0  0  0  0  0  0  0  0
  -22.2280   -9.1470   20.3980 C   0  0  0  0  0  3  0  0  0  0  0  0
  -22.9620  -10.3280   20.2030 C   0  0  0  0  0  3  0  0  0  0  0  0
  -21.8920   -7.0450   21.4310 O   0  0  0  0  0  0  0  0  0  0  0  0
  -21.8300   -6.3220   22.5940 C   0  0  0  0  0  0  0  0  0  0  0  0
  -21.4130   -6.9050   23.8120 C   0  0  0  0  0  3  0  0  0  0  0  0
  -21.2970   -6.1090   24.9690 C   0  0  0  0  0  3  0  0  0  0  0  0
  -21.5850   -4.7330   24.9110 C   0  0  0  0  0  0  0  0  0  0  0  0
  -21.9950   -4.1490   23.6980 C   0  0  0  0  0  3  0  0  0  0  0  0
  -22.1130   -4.9420   22.5420 C   0  0  0  0  0  0  0  0  0  0  0  0
  -22.4870   -4.3720   21.3720 F   0  0  0  0  0  0  0  0  0  0  0  0
  -21.4660   -3.9670   26.0200 F   0  0  0  0  0  0  0  0  0  0  0  0
  -23.0560  -13.6760   21.1710 C   0  0  0  0  0  0  0  0  0  0  0  0
  -22.3680  -12.9780   22.0690 N   0  0  0  0  0  0  0  0  0  0  0  0
  -22.6030  -14.7130   20.6890 O   0  0  0  0  0  0  0  0  0  0  0  0
  -22.7460  -12.1350   22.4760 H   0  0  0  0  0  0  0  0  0  0  0  0
  -21.4510  -13.2910   22.3530 H   0  0  0  0  0  0  0  0  0  0  0  0
  -25.6650  -15.3210   20.2480 N   0  0  0  0  0  0  0  0  0  0  0  0
  -24.9210  -15.9900   20.4110 H   0  0  0  0  0  0  0  0  0  0  0  0
  -26.5110  -15.7470   19.8910 H   0  0  0  0  0  0  0  0  0  0  0  0
  1  3  1  0
  2  1  2  0
  2  6  1  0
  3  7  2  0
  3 10  1  0
  4  7  1  0
  4 53  1  0
  5  2  1  0
  6  4  2  0
 10  8  1  1
 10  9  1  0
 11 12  1  0
 11 10  1  0
 13 24  2  0
 14 12  1  0
 14 19  1  0
 15 23  1  0
 15 25  1  0
 16 22  1  0
 16 18  1  0
 17 23  1  0
 18 17  1  0
 19 18  2  0
 20 21  1  0
 20 14  2  0
 21 16  2  0
 22 15  1  0
 23 13  1  0
 25 27  2  0
 26 25  1  0
 28 26  1  0
 29 38  2  0
 29 34  1  0
 30 26  1  0
 30 34  1  0
 31 30  1  0
 32 33  1  0
 32 31  1  0
 33 29  1  0
 34 35  2  0
 35 36  1  0
 37 36  2  0
 38 37  1  0
 39 13  1  0
 39 44  1  0
 39 40  1  0
 40 43  1  1
 40 41  1  0
 42 40  1  0
 44 47  1  0
 45 49  1  0
 45 44  1  0
 46 45  2  0
 49 48  1  0
 51 49  1  0
 51 52  1  0
 51 50  1  0
 54 64  1  0
 54 53  2  0
 55 64  1  0
 56 61  1  0
 57 58  1  0
 57 56  1  0
 59 58  1  0
 59 68  1  0
 59 60  1  0
 61 55  1  0
 61 60  1  0
 62 55  2  0
 64 63  1  0
 65 66  2  0
 66 85  1  0
 67 66  1  0
 67 70  1  0
 68 69  1  0
 68 65  1  0
 69 67  2  0
 70 71  1  0
 71 72  2  0
 73 76  1  0
 73 72  1  0
 74 73  2  0
 75 74  1  0
 75 70  2  0
 76 77  1  0
 77 78  1  0
 78 79  2  0
 80 79  1  0
 80 84  1  0
 81 80  2  0
 82 77  2  0
 82 81  1  0
 83 82  1  0
 85 86  1  0
 86 89  1  0
 86 88  1  0
 87 85  2  0
 90 65  1  0
 90 91  1  0
 92 90  1  0
M  ISO  4  11 101  12 101  55 100  64 100
M  END
>  <TORSDO>  (73) 
F 20

>  <SCORE>  (73) 
-12.949

>  <name>  (73) 
72

>  <ligand_id>  (73) 
72

>  <original_smiles>  (73) 
[H]c1c(C([H])([H])[H])nc(C([H])([H])C([H])([H])N(C(=O)N2C([H])([H])C([H])([H])C([H])([H])C([H])(n3nc(-c4c([H])c([H])c(Oc5c([H])c([H])c(F)c([H])c5F)c([H])c4[H])c(C(=O)N([H])[H])c3N([H])[H])C2([H])[H])C([H])([H])[H])nc1C(C([H])([H])[H])(C([H])([H])[H])C([H])([H])Oc1c([H])c([H])c2c(c1[H])C([H])([H])N(C(=O)C([H])(N([H])C(=O)C([H])(N([H])C([H])([H])[H])C([H])([H])[H])C(C([H])([H])[H])(C([H])([H])[H])C([H])([H])[H])C([H])(C(=O)N([H])C1([H])c3c([H])c([H])c([H])c([H])c3C([H])([H])C([H])([H])C1([H])[H])C2([H])[H]

>  <smiles>  (73) 
[H]c1c(C([H])([H])[H])nc(C([H])([H])C([H])([H])N(C(=O)N2C([H])([H])C([H])([H])C([H])([H])C([H])(n3nc(-c4c([H])c([H])c(Oc5c([H])c([H])c(F)c([H])c5F)c([H])c4[H])c(C(=O)N([H])[H])c3N([H])[H])C2([H])[H])C([H])([H])[H])nc1C(C([H])([H])[H])(C([H])([H])[H])C([H])([H])Oc1c([H])c([H])c2c(c1[H])C([H])([H])N(C(=O)C([H])(N([H])C(=O)C([H])(N([H])C([H])([H])[H])C([H])([H])[H])C(C([H])([H])[H])(C([H])([H])[H])C([H])([H])[H])C([H])(C(=O)N([H])C1([H])c3c([H])c([H])c([H])c([H])c3C([H])([H])C([H])([H])C1([H])[H])C2([H])[H]

$$$$
73:0:0
     RDKit          3D

 88 92  0  0  1  0  0  0  0  0999 V2000
  -27.8400  -19.9340   20.1320 C   0  0  0  0  0 15  0  0  0  0  0  0
  -31.4040  -19.3090   19.4170 C   0  0  0  0  0  2  0  0  0  0  0  0
  -28.2590  -18.4110   18.7970 C   0  0  0  0  0  1  0  0  0  0  0  0
  -28.9370  -21.5320   20.5960 C   0  0  0  0  0  1  0  0  0  0  0  0
  -30.2270  -18.1720   18.3340 N   0  0  0  0  0  2  0  0  0  0  0  0
  -30.6390  -20.6560   20.5820 N   0  0  0  0  0  1  0  0  0  0  0  0
  -28.5790  -23.6880   20.7970 O   0  0  0  0  0 15  0  0  0  0  0  0
  -24.9510  -31.8640   23.4490 C   0  0  0  0  0  0  0  0  0  0  0  0
  -27.6740  -25.4920   20.8170 C   0  0  0  0  0  3  0  0  0  0  0  0
  -23.9450  -30.3520   21.8080 C   0  0  0  0  0  3  0  0  0  0  0  0
  -25.4820  -28.3620   20.6420 C   0  0  0  0  0  0  0  0  0  0  0  0
  -26.5490  -30.1020   22.0190 C   0  0  0  0  0  2  0  0  0  0  0  0
  -26.6540  -28.4900   21.3970 C   0  0  0  0  0  0  0  0  0  0  0  0
  -27.6550  -27.1420   21.4140 C   0  0  0  0  0  3  0  0  0  0  0  0
  -26.4710  -25.9440   20.0130 C   0  0  0  0  0  3  0  0  0  0  0  0
  -25.5100  -27.1120   19.9450 C   0  0  0  0  0  3  0  0  0  0  0  0
  -24.3360  -29.4680   20.5500 C   0  0  0  0  0  2  0  0  0  0  0  0
  -25.1920  -30.8410   22.4900 N   0  0  0  0  0  0  0  0  0  0  0  0
  -23.7980  -32.2330   23.7830 O   0  0  0  0  0  0  0  0  0  0  0  0
  -23.0210  -29.5590   22.7880 C   0  0  0  0  0  0  0  0  0  0  0  0
  -21.6850  -29.4860   22.5830 N   0  0  0  0  0  0  0  0  0  0  0  0
  -23.5550  -28.9890   23.7370 O   0  0  0  0  0  0  0  0  0  0  0  0
  -21.2960  -29.9990   21.8040 H   0  0  0  0  0  0  0  0  0  0  0  0
  -18.2350  -28.2840   22.9360 C   0  0  0  0  0  0  0  0  0  0  0  0
  -20.7770  -28.5850   23.3280 C   0  0  0  0  0  3  0  0  0  0  0  0
  -20.9050  -27.1300   22.8100 C   0  0  0  0  0  2  0  0  0  0  0  0
  -19.8690  -26.7770   21.7370 C   0  0  0  0  0  2  0  0  0  0  0  0
  -18.4530  -26.9260   22.2950 C   0  0  0  0  0  2  0  0  0  0  0  0
  -19.3230  -29.0730   23.4000 C   0  0  0  0  0  0  0  0  0  0  0  0
  -19.0480  -30.3350   23.9690 C   0  0  0  0  0  3  0  0  0  0  0  0
  -17.7250  -30.8110   24.0700 C   0  0  0  0  0  3  0  0  0  0  0  0
  -16.6560  -30.0230   23.6090 C   0  0  0  0  0  3  0  0  0  0  0  0
  -16.9120  -28.7580   23.0540 C   0  0  0  0  0  3  0  0  0  0  0  0
  -26.0840  -32.6470   24.2120 C   0  0  0  0  0  3  0  0  0  0  0  0
  -26.4080  -32.0130   25.6240 C   0  0  1  0  0  0  0  0  0  0  0  0
  -25.1730  -31.8420   26.5440 C   0  0  0  0  0  1  0  0  0  0  0  0
  -27.0550  -30.6300   25.4660 C   0  0  0  0  0  1  0  0  0  0  0  0
  -27.4440  -32.8840   26.3720 C   0  0  0  0  0  1  0  0  0  0  0  0
  -25.6870  -34.0740   24.4400 N   0  0  0  0  0  0  0  0  0  0  0  0
  -26.1400  -35.1490   23.7720 C   0  0  0  0  0  0  0  0  0  0  0  0
  -26.9460  -35.0500   22.8490 O   0  0  0  0  0  0  0  0  0  0  0  0
  -24.9720  -34.2200   25.1410 H   0  0  0  0  0  0  0  0  0  0  0  0
  -24.4850  -36.9870   23.2370 C   0  0  0  0  0  1  0  0  0  0  0  0
  -25.6290  -36.5580   24.1710 C   0  0  0  0  0  3  0  0  0  0  0  0
  -27.6730  -37.4410   25.2160 C   0  0  0  0  0  1  0  0  0  0  0  0
  -26.6730  -37.6090   24.1690 N   0  0  0  0  0  0  0  0  0  0  0  0
  -26.2500  -38.5260   24.2820 H   0  0  0  0  0  0  0  0  0  0  0  0
  -27.3450  -18.1840   17.6290 C   0  0  0  0  0  2  0  0  0  0  0  0
  -27.9470  -19.1800   16.6370 C   0  0  0  0  0  2  0  0  0  0  0  0
  -28.7900  -20.3080   17.3550 C   0  0  0  0  0  2  0  0  0  0  0  0
  -30.5790  -17.8170   20.0670 C   0  0  2  0  0  0  0  0  0  0  0  0
  -31.0600  -14.6650   19.3810 C   0  0  0  0  0  2  0  0  0  0  0  0
  -30.4190  -13.5170   18.3920 C   0  0  0  0  0  2  0  0  0  0  0  0
  -29.1690  -12.8100   18.9190 C   0  0  0  0  0  2  0  0  0  0  0  0
  -28.4210  -13.8950   19.6930 C   0  0  0  0  0  3  0  0  0  0  0  0
  -29.3170  -14.9200   20.6210 C   0  0  0  0  0  2  0  0  0  0  0  0
  -30.2460  -16.0580   19.9040 N   0  0  0  0  0  0  0  0  0  0  0  0
  -31.7350  -17.2550   20.4130 O   0  0  0  0  0  1  0  0  0  0  0  0
  -30.9290  -20.8720   17.3120 C   0  0  0  0  0  1  0  0  0  0  0  0
  -30.0830  -19.8900   18.2550 N   0  0  1  0  0  4  0  0  0  0  0  0
  -26.0580  -14.3220   20.4260 C   0  0  0  0  0  0  0  0  0  0  0  0
  -24.9520  -13.5860   20.7360 C   0  0  0  0  0  0  0  0  0  0  0  0
  -25.3590  -12.2130   20.6940 C   0  0  0  0  0  0  0  0  0  0  0  0
  -27.1010  -13.4510   20.2260 N   0  0  0  0  0  0  0  0  0  0  0  0
  -26.6830  -12.1500   20.4190 N   0  0  0  0  0  0  0  0  0  0  0  0
  -24.5210  -10.9930   20.8320 C   0  0  0  0  0  0  0  0  0  0  0  0
  -24.8300   -9.9660   21.7550 C   0  0  0  0  0  3  0  0  0  0  0  0
  -23.9870   -8.8390   21.9010 C   0  0  0  0  0  3  0  0  0  0  0  0
  -22.8080   -8.7190   21.1290 C   0  0  0  0  0  0  0  0  0  0  0  0
  -22.5090   -9.7310   20.2000 C   0  0  0  0  0  3  0  0  0  0  0  0
  -23.3530  -10.8510   20.0500 C   0  0  0  0  0  3  0  0  0  0  0  0
  -21.9460   -7.6450   21.1810 O   0  0  0  0  0  0  0  0  0  0  0  0
  -21.8150   -6.8660   22.3040 C   0  0  0  0  0  0  0  0  0  0  0  0
  -21.4100   -7.4100   23.5430 C   0  0  0  0  0  3  0  0  0  0  0  0
  -21.2330   -6.5730   24.6620 C   0  0  0  0  0  3  0  0  0  0  0  0
  -21.4340   -5.1840   24.5440 C   0  0  0  0  0  0  0  0  0  0  0  0
  -21.8190   -4.6310   23.3070 C   0  0  0  0  0  3  0  0  0  0  0  0
  -22.0080   -5.4710   22.1910 C   0  0  0  0  0  0  0  0  0  0  0  0
  -22.3620   -4.9320   21.0000 F   0  0  0  0  0  0  0  0  0  0  0  0
  -21.2570   -4.3720   25.6130 F   0  0  0  0  0  0  0  0  0  0  0  0
  -23.5730  -14.1510   20.9360 C   0  0  0  0  0  0  0  0  0  0  0  0
  -22.7490  -13.5180   21.7630 N   0  0  0  0  0  0  0  0  0  0  0  0
  -23.2320  -15.2020   20.3940 O   0  0  0  0  0  0  0  0  0  0  0  0
  -23.0220  -12.6650   22.2330 H   0  0  0  0  0  0  0  0  0  0  0  0
  -21.8240  -13.8980   21.9270 H   0  0  0  0  0  0  0  0  0  0  0  0
  -26.2840  -15.6820   20.2470 N   0  0  0  0  0  0  0  0  0  0  0  0
  -25.5990  -16.4190   20.3730 H   0  0  0  0  0  0  0  0  0  0  0  0
  -27.2260  -16.0200   20.0960 H   0  0  0  0  0  0  0  0  0  0  0  0
  2 51  1  0
  5 51  1  0
  6  4  1  0
  8 19  2  0
  9 14  1  0
 10 18  1  0
 10 20  1  0
 11 13  1  0
 12 18  1  0
 13 14  2  0
 13 12  1  0
 15  9  2  0
 16 15  1  0
 16 11  2  0
 17 11  1  0
 17 10  1  0
 18  8  1  0
 20 22  2  0
 21 20  1  0
 23 21  1  0
 24 33  2  0
 24 29  1  0
 25 21  1  0
 25 29  1  0
 26 25  1  0
 27 28  1  0
 27 26  1  0
 28 24  1  0
 29 30  2  0
 30 31  1  0
 32 31  2  0
 33 32  1  0
 34  8  1  0
 34 39  1  0
 34 35  1  0
 35 38  1  1
 35 36  1  0
 37 35  1  0
 39 42  1  0
 40 44  1  0
 40 39  1  0
 41 40  2  0
 44 43  1  0
 46 44  1  0
 46 47  1  0
 46 45  1  0
 48  3  1  0
 49 50  1  0
 49 48  1  0
 50 60  1  0
 51 58  1  6
 53 54  1  0
 53 52  1  0
 55 54  1  0
 55 64  1  0
 55 56  1  0
 57 52  1  0
 57 51  1  0
 57 56  1  0
 60 59  1  6
 60  5  1  0
 60  2  1  0
 61 62  2  0
 62 81  1  0
 63 62  1  0
 63 66  1  0
 64 65  1  0
 64 61  1  0
 65 63  2  0
 66 67  1  0
 67 68  2  0
 69 72  1  0
 69 68  1  0
 70 69  2  0
 71 70  1  0
 71 66  2  0
 72 73  1  0
 73 74  1  0
 74 75  2  0
 76 75  1  0
 76 80  1  0
 77 76  2  0
 78 73  2  0
 78 77  1  0
 79 78  1  0
 81 82  1  0
 82 85  1  0
 82 84  1  0
 83 81  2  0
 86 87  1  0
 86 61  1  0
 88 86  1  0
M  ISO  4   4 101   7 101  51 100  60 100
M  END
>  <TORSDO>  (74) 
F 19

>  <SCORE>  (74) 
-12.890

>  <name>  (74) 
73

>  <ligand_id>  (74) 
73

>  <original_smiles>  (74) 
[H]c1nc(Oc2c([H])c([H])c3c(c2[H])C([H])([H])N(C(=O)C([H])(N([H])C(=O)C([H])(N([H])C([H])([H])[H])C([H])([H])[H])C(C([H])([H])[H])(C([H])([H])[H])C([H])([H])[H])C([H])(C(=O)N([H])C2([H])c4c([H])c([H])c([H])c([H])c4C([H])([H])C([H])([H])C2([H])[H])C3([H])[H])c([H])c(C([H])([H])C([H])([H])C([H])([H])N(C(=O)N2C([H])([H])C([H])([H])C([H])([H])C([H])(n3nc(-c4c([H])c([H])c(Oc5c([H])c([H])c(F)c([H])c5F)c([H])c4[H])c(C(=O)N([H])[H])c3N([H])[H])C2([H])[H])C([H])([H])[H])n1

>  <smiles>  (74) 
[H]c1nc(Oc2c([H])c([H])c3c(c2[H])C([H])([H])N(C(=O)C([H])(N([H])C(=O)C([H])(N([H])C([H])([H])[H])C([H])([H])[H])C(C([H])([H])[H])(C([H])([H])[H])C([H])([H])[H])C([H])(C(=O)N([H])C2([H])c4c([H])c([H])c([H])c([H])c4C([H])([H])C([H])([H])C2([H])[H])C3([H])[H])c([H])c(C([H])([H])C([H])([H])C([H])([H])N(C(=O)N2C([H])([H])C([H])([H])C([H])([H])C([H])(n3nc(-c4c([H])c([H])c(Oc5c([H])c([H])c(F)c([H])c5F)c([H])c4[H])c(C(=O)N([H])[H])c3N([H])[H])C2([H])[H])C([H])([H])[H])n1

$$$$
74:0:0
     RDKit          3D

 92100  0  0  1  0  0  0  0  0999 V2000
  -29.5680  -21.4340   20.0780 C   0  0  0  0  0  3  0  0  0  0  0  0
  -29.6530  -22.7160   20.7110 C   0  0  0  0  0  0  0  0  0  0  0  0
  -29.8050  -20.2450   20.8440 C   0  0  0  0  0  0  0  0  0  0  0  0
  -30.1880  -21.5930   22.6630 C   0  0  0  0  0  0  0  0  0  0  0  0
  -30.5280  -21.6970   24.1320 C   0  0  0  0  0  1  0  0  0  0  0  0
  -29.9780  -22.7430   22.0180 N   0  0  0  0  0  0  0  0  0  0  0  0
  -30.1220  -20.3640   22.1480 N   0  0  0  0  0  0  0  0  0  0  0  0
  -29.5790  -24.1150   19.9820 C   0  0  0  0  0  3  0  0  0  0  0  0
  -28.4080  -25.1380   20.3220 C   0  0  0  0  0  3  0  0  0  0  0  0
  -28.5560  -26.5700   19.9360 O   0  0  0  0  0  0  0  0  0  0  0  0
  -24.6680  -31.7590   23.1160 C   0  0  0  0  0  0  0  0  0  0  0  0
  -27.4040  -27.3740   19.9310 C   0  0  0  0  0  0  0  0  0  0  0  0
  -23.4940  -30.3540   21.4600 C   0  0  0  0  0  3  0  0  0  0  0  0
  -24.9800  -28.8930   19.9810 C   0  0  0  0  0  0  0  0  0  0  0  0
  -26.0160  -30.7730   21.2500 C   0  0  0  0  0  2  0  0  0  0  0  0
  -26.1380  -29.4130   20.5730 C   0  0  0  0  0  0  0  0  0  0  0  0
  -27.3530  -28.6670   20.5350 C   0  0  0  0  0  3  0  0  0  0  0  0
  -26.2240  -26.9110   19.3050 C   0  0  0  0  0  3  0  0  0  0  0  0
  -25.0260  -27.6480   19.3360 C   0  0  0  0  0  3  0  0  0  0  0  0
  -23.7130  -29.7170   20.0620 C   0  0  0  0  0  2  0  0  0  0  0  0
  -24.7450  -30.9790   21.9980 N   0  0  0  0  0  0  0  0  0  0  0  0
  -23.5830  -31.9830   23.6700 O   0  0  0  0  0  0  0  0  0  0  0  0
  -22.8830  -29.2910   22.4040 C   0  0  0  0  0  0  0  0  0  0  0  0
  -21.5680  -29.0520   22.2760 N   0  0  0  0  0  0  0  0  0  0  0  0
  -23.5930  -28.6860   23.2140 O   0  0  0  0  0  0  0  0  0  0  0  0
  -21.0530  -29.5960   21.5970 H   0  0  0  0  0  0  0  0  0  0  0  0
  -18.2580  -27.6630   22.7310 C   0  0  0  0  0  0  0  0  0  0  0  0
  -20.7940  -28.0660   23.0330 C   0  0  0  0  0  3  0  0  0  0  0  0
  -20.9840  -26.6450   22.4510 C   0  0  0  0  0  2  0  0  0  0  0  0
  -19.9130  -26.2650   21.4240 C   0  0  0  0  0  2  0  0  0  0  0  0
  -18.5180  -26.3280   22.0520 C   0  0  0  0  0  2  0  0  0  0  0  0
  -19.3270  -28.4850   23.1770 C   0  0  0  0  0  0  0  0  0  0  0  0
  -19.0290  -29.7310   23.7710 C   0  0  0  0  0  3  0  0  0  0  0  0
  -17.6960  -30.1560   23.9250 C   0  0  0  0  0  3  0  0  0  0  0  0
  -16.6420  -29.3300   23.4940 C   0  0  0  0  0  3  0  0  0  0  0  0
  -16.9240  -28.0860   22.9030 C   0  0  0  0  0  3  0  0  0  0  0  0
  -25.9360  -32.4240   23.7350 C   0  0  0  0  0  3  0  0  0  0  0  0
  -25.5790  -33.8010   24.1040 N   0  0  0  0  0  0  0  0  0  0  0  0
  -25.8700  -34.8850   23.3730 C   0  0  0  0  0  0  0  0  0  0  0  0
  -26.5380  -34.8340   22.3360 O   0  0  0  0  0  0  0  0  0  0  0  0
  -24.9830  -33.9130   24.9120 H   0  0  0  0  0  0  0  0  0  0  0  0
  -24.0760  -36.6250   23.0790 C   0  0  0  0  0  1  0  0  0  0  0  0
  -25.3370  -36.2430   23.8700 C   0  0  0  0  0  3  0  0  0  0  0  0
  -27.4470  -37.1800   24.7080 C   0  0  0  0  0  1  0  0  0  0  0  0
  -26.3310  -37.3360   23.7790 N   0  0  0  0  0  0  0  0  0  0  0  0
  -25.8930  -38.2360   23.9570 H   0  0  0  0  0  0  0  0  0  0  0  0
  -26.4990  -31.6420   24.9850 C   0  0  1  0  0  0  0  0  0  0  0  0
  -25.4310  -31.3430   26.0640 C   0  0  0  0  0  1  0  0  0  0  0  0
  -27.1210  -30.2940   24.5530 C   0  0  0  0  0  1  0  0  0  0  0  0
  -27.6310  -32.4610   25.6480 C   0  0  0  0  0  1  0  0  0  0  0  0
  -29.6030  -18.7840   20.3020 C   0  0  0  0  0  2  0  0  0  0  0  0
  -31.8330  -17.8100   20.8230 C   0  0  0  0  0  1  0  0  0  0  0  0
  -30.3680  -17.5940   20.8910 N   0  0  2  0  0  4  0  0  0  0  0  0
  -30.1570  -17.6520   21.8770 H   0  0  0  0  0  0  0  0  0  0  0  0
  -29.4470  -16.2430   18.9500 C   0  0  0  0  0  1  0  0  0  0  0  0
  -29.8850  -16.1910   20.4410 C   0  0  0  0  0  3  0  0  0  0  0  0
  -30.7680  -14.8440   20.5820 C   0  0  0  0  0  0  0  0  0  0  0  0
  -30.6330  -12.5440   19.6430 C   0  0  0  0  0  2  0  0  0  0  0  0
  -29.7430  -12.5900   18.3720 C   0  0  0  0  0  2  0  0  0  0  0  0
  -28.2410  -12.4910   18.7240 C   0  0  0  0  0  2  0  0  0  0  0  0
  -27.8210  -13.3710   19.9320 C   0  0  0  0  0  3  0  0  0  0  0  0
  -28.8370  -13.2700   21.0870 C   0  0  0  0  0  2  0  0  0  0  0  0
  -30.1710  -13.6030   20.5680 N   0  0  0  0  0  0  0  0  0  0  0  0
  -31.9840  -14.9250   20.3790 O   0  0  0  0  0  0  0  0  0  0  0  0
  -25.4080  -13.9670   20.5740 C   0  0  0  0  0  0  0  0  0  0  0  0
  -24.3320  -13.1940   20.9130 C   0  0  0  0  0  0  0  0  0  0  0  0
  -24.8000  -11.8440   20.9110 C   0  0  0  0  0  0  0  0  0  0  0  0
  -26.4610  -13.0870   20.3790 N   0  0  0  0  0  0  0  0  0  0  0  0
  -26.1000  -11.8070   20.6500 N   0  0  0  0  0  0  0  0  0  0  0  0
  -24.0710  -10.5820   21.0830 C   0  0  0  0  0  0  0  0  0  0  0  0
  -24.4750   -9.6210   22.0360 C   0  0  0  0  0  3  0  0  0  0  0  0
  -23.7480   -8.4210   22.1950 C   0  0  0  0  0  3  0  0  0  0  0  0
  -22.6050   -8.1740   21.4000 C   0  0  0  0  0  0  0  0  0  0  0  0
  -22.2210   -9.1230   20.4350 C   0  0  0  0  0  3  0  0  0  0  0  0
  -22.9480  -10.3140   20.2750 C   0  0  0  0  0  3  0  0  0  0  0  0
  -21.8530   -7.0250   21.4670 O   0  0  0  0  0  0  0  0  0  0  0  0
  -21.7640   -6.2900   22.6220 C   0  0  0  0  0  0  0  0  0  0  0  0
  -21.2980   -6.8540   23.8290 C   0  0  0  0  0  3  0  0  0  0  0  0
  -21.1540   -6.0460   24.9740 C   0  0  0  0  0  3  0  0  0  0  0  0
  -21.4700   -4.6750   24.9130 C   0  0  0  0  0  0  0  0  0  0  0  0
  -21.9310   -4.1120   23.7100 C   0  0  0  0  0  3  0  0  0  0  0  0
  -22.0740   -4.9170   22.5680 C   0  0  0  0  0  0  0  0  0  0  0  0
  -22.4980   -4.3640   21.4060 F   0  0  0  0  0  0  0  0  0  0  0  0
  -21.3270   -3.8970   26.0120 F   0  0  0  0  0  0  0  0  0  0  0  0
  -22.9240  -13.6680   21.1250 C   0  0  0  0  0  0  0  0  0  0  0  0
  -22.1660  -12.9800   21.9730 N   0  0  0  0  0  0  0  0  0  0  0  0
  -22.5010  -14.6840   20.5750 O   0  0  0  0  0  0  0  0  0  0  0  0
  -22.5190  -12.1580   22.4380 H   0  0  0  0  0  0  0  0  0  0  0  0
  -21.2210  -13.2810   22.1580 H   0  0  0  0  0  0  0  0  0  0  0  0
  -25.5730  -15.3380   20.3900 N   0  0  0  0  0  0  0  0  0  0  0  0
  -24.7880  -15.9780   20.4460 H   0  0  0  0  0  0  0  0  0  0  0  0
  -26.4050  -15.7710   20.0150 H   0  0  0  0  0  0  0  0  0  0  0  0
  1  2  2  0
  1  3  1  0
  2  6  1  0
  3  7  2  0
  4  5  1  0
  6  4  2  0
  7  4  1  0
  8  9  2  0
  8  2  1  0
 10  9  1  0
 11 22  2  0
 12 10  1  0
 12 17  1  0
 13 21  1  0
 13 23  1  0
 14 20  1  0
 14 16  1  0
 15 21  1  0
 16 15  1  0
 17 16  2  0
 18 19  1  0
 18 12  2  0
 19 14  2  0
 20 13  1  0
 21 11  1  0
 23 25  2  0
 24 23  1  0
 26 24  1  0
 27 36  2  0
 27 32  1  0
 28 24  1  0
 28 32  1  0
 29 28  1  0
 30 31  1  0
 30 29  1  0
 31 27  1  0
 32 33  2  0
 33 34  1  0
 35 34  2  0
 36 35  1  0
 37 11  1  0
 37 38  1  0
 37 47  1  0
 38 41  1  0
 39 43  1  0
 39 38  1  0
 40 39  2  0
 43 42  1  0
 45 43  1  0
 45 46  1  0
 45 44  1  0
 47 50  1  1
 47 48  1  0
 49 47  1  0
 51  3  1  0
 51 53  1  0
 52 53  1  0
 53 54  1  1
 56 55  1  0
 56 57  1  0
 56 53  1  0
 58 63  1  0
 59 60  1  0
 59 58  1  0
 61 60  1  0
 61 68  1  0
 61 62  1  0
 63 57  1  0
 63 62  1  0
 64 57  2  0
 65 66  2  0
 66 85  1  0
 67 66  1  0
 67 70  1  0
 68 65  1  0
 68 69  1  0
 69 67  2  0
 70 71  1  0
 71 72  2  0
 73 76  1  0
 73 72  1  0
 74 73  2  0
 75 74  1  0
 75 70  2  0
 76 77  1  0
 77 78  1  0
 78 79  2  0
 80 79  1  0
 80 84  1  0
 81 80  2  0
 82 77  2  0
 82 81  1  0
 83 82  1  0
 85 86  1  0
 86 89  1  0
 86 88  1  0
 87 85  2  0
 90 91  1  0
 90 65  1  0
 92 90  1  0
M  ISO  4   9 101  10 101  56 100  57 100
M  END
>  <TORSDO>  (75) 
F 21

>  <SCORE>  (75) 
-13.451

>  <name>  (75) 
74

>  <ligand_id>  (75) 
74

>  <original_smiles>  (75) 
[H]c1c(C([H])([H])C([H])([H])Oc2c([H])c([H])c3c(c2[H])C([H])([H])N(C(=O)C([H])(N([H])C(=O)C([H])(N([H])C([H])([H])[H])C([H])([H])[H])C(C([H])([H])[H])(C([H])([H])[H])C([H])([H])[H])C([H])(C(=O)N([H])C2([H])c4c([H])c([H])c([H])c([H])c4C([H])([H])C([H])([H])C2([H])[H])C3([H])[H])nc(C([H])([H])[H])nc1C([H])([H])[N+]([H])(C([H])([H])[H])C([H])(C(=O)N1C([H])([H])C([H])([H])C([H])([H])C([H])(n2nc(-c3c([H])c([H])c(Oc4c([H])c([H])c(F)c([H])c4F)c([H])c3[H])c(C(=O)N([H])[H])c2N([H])[H])C1([H])[H])C([H])([H])[H]

>  <smiles>  (75) 
[H]c1c(C([H])([H])C([H])([H])Oc2c([H])c([H])c3c(c2[H])C([H])([H])N(C(=O)C([H])(N([H])C(=O)C([H])(N([H])C([H])([H])[H])C([H])([H])[H])C(C([H])([H])[H])(C([H])([H])[H])C([H])([H])[H])C([H])(C(=O)N([H])C2([H])c4c([H])c([H])c([H])c([H])c4C([H])([H])C([H])([H])C2([H])[H])C3([H])[H])nc(C([H])([H])[H])nc1C([H])([H])[N+]([H])(C([H])([H])[H])C([H])(C(=O)N1C([H])([H])C([H])([H])C([H])([H])C([H])(n2nc(-c3c([H])c([H])c(Oc4c([H])c([H])c(F)c([H])c4F)c([H])c3[H])c(C(=O)N([H])[H])c2N([H])[H])C1([H])[H])C([H])([H])[H]

$$$$
75:0:0
     RDKit          3D

 90 98  0  0  1  0  0  0  0  0999 V2000
  -28.0350  -20.9110   19.0300 C   0  0  0  0  0  3  0  0  0  0  0  0
  -28.8020  -21.5190   20.0070 C   0  0  0  0  0  0  0  0  0  0  0  0
  -29.0980  -19.0980   19.9790 C   0  0  0  0  0  3  0  0  0  0  0  0
  -27.3970  -18.5960   18.2360 C   0  0  0  0  0  1  0  0  0  0  0  0
  -28.1980  -19.5190   19.0530 N   0  0  0  0  0  0  0  0  0  0  0  0
  -29.4540  -20.3330   20.5440 N   0  0  0  0  0  0  0  0  0  0  0  0
  -30.0980  -20.3850   21.3210 H   0  0  0  0  0  0  0  0  0  0  0  0
  -29.5990  -17.4770   21.9920 C   0  0  0  0  0  1  0  0  0  0  0  0
  -29.3530  -17.5090   20.4770 C   0  0  0  0  0  0  0  0  0  0  0  0
  -30.7640  -15.0690   19.9350 C   0  0  0  0  0  0  0  0  0  0  0  0
  -30.5010  -12.7400   18.9340 C   0  0  0  0  0  2  0  0  0  0  0  0
  -29.5060  -12.6920   17.7570 C   0  0  0  0  0  2  0  0  0  0  0  0
  -28.0820  -12.4600   18.2870 C   0  0  0  0  0  2  0  0  0  0  0  0
  -27.7430  -13.3830   19.4830 C   0  0  0  0  0  3  0  0  0  0  0  0
  -28.8580  -13.4440   20.5410 C   0  0  0  0  0  2  0  0  0  0  0  0
  -30.0730  -13.8540   19.8360 N   0  0  0  0  0  0  0  0  0  0  0  0
  -31.9760  -14.9820   19.7090 O   0  0  0  0  0  0  0  0  0  0  0  0
  -30.1860  -16.3760   19.7220 N   0  0  0  0  0  4  0  0  0  0  0  0
  -30.8380  -16.8550   19.1130 H   0  0  0  0  0  0  0  0  0  0  0  0
  -25.4300  -13.9580   20.3870 C   0  0  0  0  0  0  0  0  0  0  0  0
  -24.3780  -13.1860   20.7910 C   0  0  0  0  0  0  0  0  0  0  0  0
  -24.8270  -11.8310   20.7070 C   0  0  0  0  0  0  0  0  0  0  0  0
  -26.4460  -13.0770   20.0680 N   0  0  0  0  0  0  0  0  0  0  0  0
  -26.1010  -11.7930   20.3300 N   0  0  0  0  0  0  0  0  0  0  0  0
  -24.1000  -10.5710   20.9050 C   0  0  0  0  0  0  0  0  0  0  0  0
  -24.5210   -9.6140   21.8530 C   0  0  0  0  0  3  0  0  0  0  0  0
  -23.7870   -8.4210   22.0360 C   0  0  0  0  0  3  0  0  0  0  0  0
  -22.6240   -8.1760   21.2690 C   0  0  0  0  0  0  0  0  0  0  0  0
  -22.2250   -9.1230   20.3080 C   0  0  0  0  0  3  0  0  0  0  0  0
  -22.9580  -10.3070   20.1230 C   0  0  0  0  0  3  0  0  0  0  0  0
  -21.8660   -7.0360   21.3640 O   0  0  0  0  0  0  0  0  0  0  0  0
  -21.7330   -6.3510   22.5470 C   0  0  0  0  0  0  0  0  0  0  0  0
  -21.2160   -6.9650   23.7090 C   0  0  0  0  0  3  0  0  0  0  0  0
  -21.0370   -6.2080   24.8840 C   0  0  0  0  0  3  0  0  0  0  0  0
  -21.3600   -4.8390   24.8980 C   0  0  0  0  0  0  0  0  0  0  0  0
  -21.8690   -4.2250   23.7420 C   0  0  0  0  0  3  0  0  0  0  0  0
  -22.0520   -4.9780   22.5680 C   0  0  0  0  0  0  0  0  0  0  0  0
  -22.5250   -4.3770   21.4500 F   0  0  0  0  0  0  0  0  0  0  0  0
  -21.1790   -4.1100   26.0240 F   0  0  0  0  0  0  0  0  0  0  0  0
  -23.0000  -13.6690   21.1320 C   0  0  0  0  0  0  0  0  0  0  0  0
  -22.3100  -12.9730   22.0270 N   0  0  0  0  0  0  0  0  0  0  0  0
  -22.5440  -14.7020   20.6410 O   0  0  0  0  0  0  0  0  0  0  0  0
  -22.6920  -12.1400   22.4530 H   0  0  0  0  0  0  0  0  0  0  0  0
  -21.3870  -13.2800   22.3010 H   0  0  0  0  0  0  0  0  0  0  0  0
  -25.6100  -15.3330   20.2370 N   0  0  0  0  0  0  0  0  0  0  0  0
  -24.8750  -16.0130   20.4080 H   0  0  0  0  0  0  0  0  0  0  0  0
  -26.4740  -15.7530   19.9240 H   0  0  0  0  0  0  0  0  0  0  0  0
  -28.9640  -23.1260   20.4310 C   0  0  0  0  0  3  0  0  0  0  0  0
  -28.0320  -24.4870   19.9410 C   0  0  0  0  0  3  0  0  0  0  0  0
  -28.2700  -26.0330   20.2050 O   0  0  0  0  0  0  0  0  0  0  0  0
  -24.6090  -31.8030   23.1030 C   0  0  0  0  0  0  0  0  0  0  0  0
  -27.2330  -27.0490   20.1170 C   0  0  0  0  0  0  0  0  0  0  0  0
  -23.4350  -30.3960   21.4570 C   0  0  0  0  0  3  0  0  0  0  0  0
  -24.9070  -28.8130   20.0600 C   0  0  0  0  0  0  0  0  0  0  0  0
  -25.9920  -30.6570   21.3270 C   0  0  0  0  0  2  0  0  0  0  0  0
  -26.0790  -29.2580   20.6830 C   0  0  0  0  0  0  0  0  0  0  0  0
  -27.2420  -28.3870   20.7020 C   0  0  0  0  0  3  0  0  0  0  0  0
  -26.0330  -26.7230   19.4480 C   0  0  0  0  0  3  0  0  0  0  0  0
  -24.8970  -27.5580   19.4340 C   0  0  0  0  0  3  0  0  0  0  0  0
  -23.6850  -29.7200   20.0820 C   0  0  0  0  0  2  0  0  0  0  0  0
  -24.7000  -30.9720   22.0180 N   0  0  0  0  0  0  0  0  0  0  0  0
  -23.5160  -32.0790   23.6200 O   0  0  0  0  0  0  0  0  0  0  0  0
  -22.7490  -29.3860   22.4130 C   0  0  0  0  0  0  0  0  0  0  0  0
  -21.4200  -29.2120   22.2760 N   0  0  0  0  0  0  0  0  0  0  0  0
  -23.4140  -28.7600   23.2460 O   0  0  0  0  0  0  0  0  0  0  0  0
  -20.9340  -29.7810   21.5950 H   0  0  0  0  0  0  0  0  0  0  0  0
  -18.0510  -27.9430   22.7430 C   0  0  0  0  0  0  0  0  0  0  0  0
  -20.6000  -28.2610   23.0400 C   0  0  0  0  0  3  0  0  0  0  0  0
  -20.7460  -26.8240   22.4830 C   0  0  0  0  0  2  0  0  0  0  0  0
  -19.6470  -26.4200   21.4880 C   0  0  0  0  0  2  0  0  0  0  0  0
  -18.2540  -26.5810   22.1030 C   0  0  0  0  0  2  0  0  0  0  0  0
  -19.1480  -28.7290   23.1790 C   0  0  0  0  0  0  0  0  0  0  0  0
  -18.8920  -29.9830   23.7770 C   0  0  0  0  0  3  0  0  0  0  0  0
  -17.5720  -30.4490   23.9420 C   0  0  0  0  0  3  0  0  0  0  0  0
  -16.4880  -29.6610   23.5110 C   0  0  0  0  0  3  0  0  0  0  0  0
  -16.7310  -28.4080   22.9210 C   0  0  0  0  0  3  0  0  0  0  0  0
  -25.8760  -32.4570   23.7390 C   0  0  0  0  0  3  0  0  0  0  0  0
  -26.3990  -31.6830   25.0110 C   0  0  1  0  0  0  0  0  0  0  0  0
  -25.3050  -31.4240   26.0730 C   0  0  0  0  0  1  0  0  0  0  0  0
  -27.0070  -30.3170   24.6150 C   0  0  0  0  0  1  0  0  0  0  0  0
  -27.5320  -32.4920   25.6840 C   0  0  0  0  0  1  0  0  0  0  0  0
  -25.5350  -33.8450   24.0880 N   0  0  0  0  0  0  0  0  0  0  0  0
  -25.8490  -34.9200   23.3550 C   0  0  0  0  0  0  0  0  0  0  0  0
  -26.5250  -34.8460   22.3250 O   0  0  0  0  0  0  0  0  0  0  0  0
  -24.9460  -33.9740   24.8970 H   0  0  0  0  0  0  0  0  0  0  0  0
  -24.1050  -36.7030   23.0280 C   0  0  0  0  0  1  0  0  0  0  0  0
  -25.3420  -36.2920   23.8410 C   0  0  0  0  0  3  0  0  0  0  0  0
  -27.4550  -37.1920   24.7130 C   0  0  0  0  0  1  0  0  0  0  0  0
  -26.3610  -37.3610   23.7610 N   0  0  0  0  0  0  0  0  0  0  0  0
  -25.9420  -38.2730   23.9230 H   0  0  0  0  0  0  0  0  0  0  0  0
  1  5  1  0
  1  2  2  0
  2 48  1  0
  2  6  1  0
  3  9  1  0
  3  6  1  0
  4  5  1  0
  5  3  1  0
  6  7  1  0
  9  8  1  0
 11 16  1  0
 12 13  1  0
 12 11  1  0
 14 13  1  0
 14 23  1  0
 14 15  1  0
 16 10  1  0
 16 15  1  0
 17 10  2  0
 18 10  1  0
 18  9  2  0
 19 18  1  0
 20 21  2  0
 21 40  1  0
 22 21  1  0
 22 25  1  0
 23 24  1  0
 23 20  1  0
 24 22  2  0
 25 26  1  0
 26 27  2  0
 28 31  1  0
 28 27  1  0
 29 28  2  0
 30 29  1  0
 30 25  2  0
 31 32  1  0
 32 37  2  0
 32 33  1  0
 33 34  2  0
 34 35  1  0
 35 39  1  0
 36 35  2  0
 37 36  1  0
 38 37  1  0
 40 41  1  0
 41 44  1  0
 41 43  1  0
 42 40  2  0
 45 20  1  0
 45 46  1  0
 47 45  1  0
 49 50  1  0
 49 48  2  0
 51 62  2  0
 52 50  1  0
 52 57  1  0
 53 61  1  0
 53 63  1  0
 54 60  1  0
 54 56  1  0
 55 61  1  0
 56 57  2  0
 56 55  1  0
 58 52  2  0
 59 58  1  0
 59 54  2  0
 60 53  1  0
 61 51  1  0
 63 65  2  0
 64 63  1  0
 66 64  1  0
 67 76  2  0
 67 72  1  0
 68 64  1  0
 68 72  1  0
 69 68  1  0
 70 71  1  0
 70 69  1  0
 71 67  1  0
 72 73  2  0
 73 74  1  0
 75 74  2  0
 76 75  1  0
 77 51  1  0
 77 82  1  0
 77 78  1  0
 78 81  1  1
 78 79  1  0
 80 78  1  0
 82 85  1  0
 83 87  1  0
 83 82  1  0
 84 83  2  0
 87 86  1  0
 89 87  1  0
 89 90  1  0
 89 88  1  0
M  ISO  4  10 100  18 100  49 101  50 101
M  END
>  <TORSDO>  (76) 
F 19

>  <SCORE>  (76) 
-14.215

>  <name>  (76) 
75

>  <ligand_id>  (76) 
75

>  <original_smiles>  (76) 
[H]c1c([H])c([H])c2c(c1[H])C([H])([H])C([H])([H])C([H])([H])C2([H])N([H])C(=O)C1([H])N(C(=O)C([H])(N([H])C(=O)C([H])(N([H])C([H])([H])[H])C([H])([H])[H])C(C([H])([H])[H])(C([H])([H])[H])C([H])([H])[H])C([H])([H])c2c([H])c(OC([H])([H])C([H])([H])c3c([H])n(C([H])([H])[H])c(C([H])(N([H])C(=O)N4C([H])([H])C([H])([H])C([H])([H])C([H])(n5nc(-c6c([H])c([H])c(Oc7c([H])c([H])c(F)c([H])c7F)c([H])c6[H])c(C(=O)N([H])[H])c5N([H])[H])C4([H])[H])C([H])([H])[H])[n+]3[H])c([H])c([H])c2C1([H])[H]

>  <smiles>  (76) 
[H]c1c([H])c([H])c2c(c1[H])C([H])([H])C([H])([H])C([H])([H])C2([H])N([H])C(=O)C1([H])N(C(=O)C([H])(N([H])C(=O)C([H])(N([H])C([H])([H])[H])C([H])([H])[H])C(C([H])([H])[H])(C([H])([H])[H])C([H])([H])[H])C([H])([H])c2c([H])c(OC([H])([H])C([H])([H])c3c([H])n(C([H])([H])[H])c(C([H])(N([H])C(=O)N4C([H])([H])C([H])([H])C([H])([H])C([H])(n5nc(-c6c([H])c([H])c(Oc7c([H])c([H])c(F)c([H])c7F)c([H])c6[H])c(C(=O)N([H])[H])c5N([H])[H])C4([H])[H])C([H])([H])[H])[n+]3[H])c([H])c([H])c2C1([H])[H]

$$$$
76:0:0
     RDKit          3D

 95103  0  0  1  0  0  0  0  0999 V2000
  -27.6980  -22.4520   19.6170 C   0  0  0  0  0  3  0  0  0  0  0  0
  -28.9100  -21.8280   19.9420 C   0  0  0  0  0  0  0  0  0  0  0  0
  -30.0750  -22.5220   19.5740 C   0  0  0  0  0  0  0  0  0  0  0  0
  -28.8170  -24.2090   18.6720 C   0  0  0  0  0  0  0  0  0  0  0  0
  -27.6580  -23.6370   18.9820 N   0  0  0  0  0  0  0  0  0  0  0  0
  -30.0190  -23.7010   18.9250 N   0  0  0  0  0  0  0  0  0  0  0  0
  -31.6290  -21.8560   19.9280 Cl  0  0  0  0  0  0  0  0  0  0  0  0
  -28.9310  -20.5100   20.7210 C   0  0  0  0  0  2  0  0  0  0  0  0
  -28.5450  -19.0950   18.7010 C   0  0  0  0  0  1  0  0  0  0  0  0
  -29.3380  -19.3070   19.9380 N   0  0  2  0  0  4  0  0  0  0  0  0
  -30.2890  -19.4640   19.6350 H   0  0  0  0  0  0  0  0  0  0  0  0
  -29.4040  -18.0800   20.7800 C   0  0  0  0  0  2  0  0  0  0  0  0
  -30.8470  -17.5530   20.9000 C   0  0  0  0  0  2  0  0  0  0  0  0
  -31.0000  -16.3410   21.8440 C   0  0  0  0  0  2  0  0  0  0  0  0
  -30.7380  -14.3280   20.4010 C   0  0  0  0  0  0  0  0  0  0  0  0
  -30.3180  -12.2650   19.1170 C   0  0  0  0  0  2  0  0  0  0  0  0
  -29.3550  -12.5280   17.9440 C   0  0  0  0  0  2  0  0  0  0  0  0
  -27.8900  -12.4030   18.4020 C   0  0  0  0  0  2  0  0  0  0  0  0
  -27.5970  -13.2130   19.6930 C   0  0  0  0  0  3  0  0  0  0  0  0
  -28.6660  -12.9310   20.7730 C   0  0  0  0  0  2  0  0  0  0  0  0
  -29.9950  -13.2090   20.1960 N   0  0  0  0  0  0  0  0  0  0  0  0
  -31.7540  -14.5920   19.7540 O   0  0  0  0  0  0  0  0  0  0  0  0
  -30.3060  -15.1380   21.3760 N   0  0  0  0  0  0  0  0  0  0  0  0
  -29.4880  -14.8410   21.8860 H   0  0  0  0  0  0  0  0  0  0  0  0
  -25.2110  -13.8440   20.4240 C   0  0  0  0  0  0  0  0  0  0  0  0
  -24.1410  -13.0820   20.8100 C   0  0  0  0  0  0  0  0  0  0  0  0
  -24.5910  -11.7250   20.7800 C   0  0  0  0  0  0  0  0  0  0  0  0
  -26.2460  -12.9530   20.1860 N   0  0  0  0  0  0  0  0  0  0  0  0
  -25.8760  -11.6750   20.4530 N   0  0  0  0  0  0  0  0  0  0  0  0
  -23.8580  -10.4700   20.9870 C   0  0  0  0  0  0  0  0  0  0  0  0
  -24.2980   -9.5020   21.9180 C   0  0  0  0  0  3  0  0  0  0  0  0
  -23.5660   -8.3120   22.1120 C   0  0  0  0  0  3  0  0  0  0  0  0
  -22.3790   -8.0790   21.3770 C   0  0  0  0  0  0  0  0  0  0  0  0
  -21.9580   -9.0350   20.4350 C   0  0  0  0  0  3  0  0  0  0  0  0
  -22.6900  -10.2180   20.2400 C   0  0  0  0  0  3  0  0  0  0  0  0
  -21.6170   -6.9410   21.4800 O   0  0  0  0  0  0  0  0  0  0  0  0
  -21.5890   -6.1960   22.6330 C   0  0  0  0  0  0  0  0  0  0  0  0
  -21.2050   -6.7560   23.8720 C   0  0  0  0  0  3  0  0  0  0  0  0
  -21.1230   -5.9400   25.0170 C   0  0  0  0  0  3  0  0  0  0  0  0
  -21.4120   -4.5650   24.9250 C   0  0  0  0  0  0  0  0  0  0  0  0
  -21.7910   -4.0050   23.6930 C   0  0  0  0  0  3  0  0  0  0  0  0
  -21.8740   -4.8180   22.5490 C   0  0  0  0  0  0  0  0  0  0  0  0
  -22.2170   -4.2700   21.3570 F   0  0  0  0  0  0  0  0  0  0  0  0
  -21.3260   -3.7790   26.0240 F   0  0  0  0  0  0  0  0  0  0  0  0
  -22.7510  -13.5710   21.0990 C   0  0  0  0  0  0  0  0  0  0  0  0
  -22.0300  -12.8810   21.9770 N   0  0  0  0  0  0  0  0  0  0  0  0
  -22.3140  -14.5970   20.5810 O   0  0  0  0  0  0  0  0  0  0  0  0
  -22.3940  -12.0460   22.4100 H   0  0  0  0  0  0  0  0  0  0  0  0
  -21.0960  -13.1890   22.2100 H   0  0  0  0  0  0  0  0  0  0  0  0
  -25.3840  -15.2120   20.2370 N   0  0  0  0  0  0  0  0  0  0  0  0
  -24.6220  -15.8730   20.3460 H   0  0  0  0  0  0  0  0  0  0  0  0
  -26.2340  -15.6370   19.8920 H   0  0  0  0  0  0  0  0  0  0  0  0
  -28.7540  -25.5630   17.9800 C   0  0  0  0  0  2  0  0  0  0  0  0
  -29.0970  -26.7570   18.8920 C   0  0  0  0  0  2  0  0  0  0  0  0
  -28.3920  -26.7720   20.1340 O   0  0  0  0  0  0  0  0  0  0  0  0
  -24.5790  -31.9040   23.2310 C   0  0  0  0  0  0  0  0  0  0  0  0
  -27.2190  -27.4820   20.1400 C   0  0  0  0  0  0  0  0  0  0  0  0
  -23.3650  -30.4910   21.6000 C   0  0  0  0  0  3  0  0  0  0  0  0
  -24.8140  -28.9490   20.1760 C   0  0  0  0  0  0  0  0  0  0  0  0
  -25.8870  -30.8560   21.3920 C   0  0  0  0  0  2  0  0  0  0  0  0
  -25.9710  -29.4860   20.7580 C   0  0  0  0  0  0  0  0  0  0  0  0
  -27.1760  -28.7530   20.7470 C   0  0  0  0  0  3  0  0  0  0  0  0
  -26.0470  -26.9380   19.5780 C   0  0  0  0  0  3  0  0  0  0  0  0
  -24.8430  -27.6700   19.5900 C   0  0  0  0  0  3  0  0  0  0  0  0
  -23.5680  -29.8040   20.2230 C   0  0  0  0  0  2  0  0  0  0  0  0
  -24.6280  -31.0980   22.1330 N   0  0  0  0  0  0  0  0  0  0  0  0
  -23.5000  -32.1790   23.7750 O   0  0  0  0  0  0  0  0  0  0  0  0
  -22.7200  -29.4750   22.5690 C   0  0  0  0  0  0  0  0  0  0  0  0
  -21.3940  -29.2940   22.4490 N   0  0  0  0  0  0  0  0  0  0  0  0
  -23.4060  -28.8500   23.3820 O   0  0  0  0  0  0  0  0  0  0  0  0
  -20.9020  -29.8480   21.7610 H   0  0  0  0  0  0  0  0  0  0  0  0
  -18.0200  -28.1140   22.9670 C   0  0  0  0  0  0  0  0  0  0  0  0
  -20.5780  -28.3650   23.2290 C   0  0  0  0  0  3  0  0  0  0  0  0
  -20.6740  -26.9300   22.6590 C   0  0  0  0  0  2  0  0  0  0  0  0
  -19.5680  -26.6060   21.6500 C   0  0  0  0  0  2  0  0  0  0  0  0
  -18.1890  -26.7620   22.2960 C   0  0  0  0  0  2  0  0  0  0  0  0
  -19.1430  -28.8730   23.3900 C   0  0  0  0  0  0  0  0  0  0  0  0
  -18.9320  -30.1400   23.9760 C   0  0  0  0  0  3  0  0  0  0  0  0
  -17.6300  -30.6490   24.1430 C   0  0  0  0  0  3  0  0  0  0  0  0
  -16.5210  -29.8860   23.7380 C   0  0  0  0  0  3  0  0  0  0  0  0
  -16.7170  -28.6190   23.1570 C   0  0  0  0  0  3  0  0  0  0  0  0
  -25.8690  -32.5360   23.8410 C   0  0  0  0  0  3  0  0  0  0  0  0
  -25.5610  -33.9340   24.1700 N   0  0  0  0  0  0  0  0  0  0  0  0
  -25.8920  -34.9830   23.4050 C   0  0  0  0  0  0  0  0  0  0  0  0
  -26.5600  -34.8760   22.3730 O   0  0  0  0  0  0  0  0  0  0  0  0
  -24.9720  -34.0910   24.9730 H   0  0  0  0  0  0  0  0  0  0  0  0
  -24.1620  -36.7710   23.0440 C   0  0  0  0  0  1  0  0  0  0  0  0
  -25.4040  -36.3730   23.8580 C   0  0  0  0  0  3  0  0  0  0  0  0
  -27.5400  -37.2600   24.6810 C   0  0  0  0  0  1  0  0  0  0  0  0
  -26.4350  -37.4270   23.7410 N   0  0  0  0  0  0  0  0  0  0  0  0
  -26.0290  -38.3460   23.8920 H   0  0  0  0  0  0  0  0  0  0  0  0
  -26.3970  -31.7670   25.1130 C   0  0  1  0  0  0  0  0  0  0  0  0
  -25.3090  -31.5200   26.1850 C   0  0  0  0  0  1  0  0  0  0  0  0
  -26.9860  -30.3940   24.7150 C   0  0  0  0  0  1  0  0  0  0  0  0
  -27.5470  -32.5650   25.7720 C   0  0  0  0  0  1  0  0  0  0  0  0
  1  2  2  0
  2  8  1  0
  3  7  1  0
  3  2  1  0
  4  6  1  0
  4  5  2  0
  5  1  1  0
  6  3  2  0
  9 10  1  0
 10  8  1  0
 10 12  1  0
 10 11  1  6
 12 13  1  0
 13 14  1  0
 15 23  1  0
 16 21  1  0
 17 18  1  0
 17 16  1  0
 19 18  1  0
 19 28  1  0
 19 20  1  0
 21 15  1  0
 21 20  1  0
 22 15  2  0
 23 14  1  0
 23 24  1  0
 25 26  2  0
 26 45  1  0
 27 26  1  0
 27 30  1  0
 28 25  1  0
 28 29  1  0
 29 27  2  0
 30 31  1  0
 31 32  2  0
 33 36  1  0
 33 32  1  0
 34 33  2  0
 35 34  1  0
 35 30  2  0
 36 37  1  0
 37 38  1  0
 38 39  2  0
 40 39  1  0
 40 44  1  0
 41 40  2  0
 42 37  2  0
 42 41  1  0
 43 42  1  0
 45 46  1  0
 46 49  1  0
 46 48  1  0
 47 45  2  0
 50 51  1  0
 50 25  1  0
 52 50  1  0
 53  4  1  0
 53 54  1  0
 54 55  1  0
 55 57  1  0
 56 67  2  0
 57 62  1  0
 58 66  1  0
 58 68  1  0
 59 65  1  0
 59 61  1  0
 60 66  1  0
 61 60  1  0
 62 61  2  0
 63 64  1  0
 63 57  2  0
 64 59  2  0
 65 58  1  0
 66 56  1  0
 68 70  2  0
 69 68  1  0
 71 69  1  0
 72 81  2  0
 72 77  1  0
 73 69  1  0
 73 77  1  0
 74 73  1  0
 75 76  1  0
 75 74  1  0
 76 72  1  0
 77 78  2  0
 78 79  1  0
 80 79  2  0
 81 80  1  0
 82 56  1  0
 82 83  1  0
 82 92  1  0
 83 86  1  0
 84 88  1  0
 84 83  1  0
 85 84  2  0
 88 87  1  0
 90 88  1  0
 90 91  1  0
 90 89  1  0
 92 95  1  1
 92 93  1  0
 94 92  1  0
M  ISO  4  15 100  23 100  54 101  55 101
M  END
>  <TORSDO>  (77) 
F 23

>  <SCORE>  (77) 
-13.009

>  <name>  (77) 
76

>  <ligand_id>  (77) 
76

>  <original_smiles>  (77) 
[H]c1nc(C([H])([H])C([H])([H])Oc2c([H])c([H])c3c(c2[H])C([H])([H])N(C(=O)C([H])(N([H])C(=O)C([H])(N([H])C([H])([H])[H])C([H])([H])[H])C(C([H])([H])[H])(C([H])([H])[H])C([H])([H])[H])C([H])(C(=O)N([H])C2([H])c4c([H])c([H])c([H])c([H])c4C([H])([H])C([H])([H])C2([H])[H])C3([H])[H])nc(Cl)c1C([H])([H])[N+]([H])(C([H])([H])[H])C([H])([H])C([H])([H])C([H])([H])N([H])C(=O)N1C([H])([H])C([H])([H])C([H])([H])C([H])(n2nc(-c3c([H])c([H])c(Oc4c([H])c([H])c(F)c([H])c4F)c([H])c3[H])c(C(=O)N([H])[H])c2N([H])[H])C1([H])[H]

>  <smiles>  (77) 
[H]c1nc(C([H])([H])C([H])([H])Oc2c([H])c([H])c3c(c2[H])C([H])([H])N(C(=O)C([H])(N([H])C(=O)C([H])(N([H])C([H])([H])[H])C([H])([H])[H])C(C([H])([H])[H])(C([H])([H])[H])C([H])([H])[H])C([H])(C(=O)N([H])C2([H])c4c([H])c([H])c([H])c([H])c4C([H])([H])C([H])([H])C2([H])[H])C3([H])[H])nc(Cl)c1C([H])([H])[N+]([H])(C([H])([H])[H])C([H])([H])C([H])([H])C([H])([H])N([H])C(=O)N1C([H])([H])C([H])([H])C([H])([H])C([H])(n2nc(-c3c([H])c([H])c(Oc4c([H])c([H])c(F)c([H])c4F)c([H])c3[H])c(C(=O)N([H])[H])c2N([H])[H])C1([H])[H]

$$$$
77:0:0
     RDKit          3D

 91 99  0  0  1  0  0  0  0  0999 V2000
  -27.5050  -22.5600   19.5500 C   0  0  0  0  0  2  0  0  0  0  0  0
  -28.8510  -20.9030   20.0160 C   0  0  0  0  0  0  0  0  0  0  0  0
  -27.6570  -21.2180   19.3900 N   0  0  0  0  0  0  0  0  0  0  0  0
  -29.3190  -22.0890   20.6060 N   0  0  0  0  0  2  0  0  0  0  0  0
  -28.4370  -23.2100   20.2630 N   0  0  0  0  0  0  0  0  0  0  0  0
  -31.0170  -19.6840   19.3540 C   0  0  0  0  0  1  0  0  0  0  0  0
  -28.9100  -18.8220   18.4490 C   0  0  0  0  0  1  0  0  0  0  0  0
  -29.5640  -19.3630   19.7410 C   0  0  2  0  0  0  0  0  0  0  0  0
  -29.6820  -17.9290   20.7190 C   0  0  0  0  0  2  0  0  0  0  0  0
  -30.4680  -15.1490   20.2370 C   0  0  0  0  0  0  0  0  0  0  0  0
  -30.4150  -12.7570   19.2890 C   0  0  0  0  0  2  0  0  0  0  0  0
  -29.4740  -12.6330   18.0670 C   0  0  0  0  0  2  0  0  0  0  0  0
  -28.0160  -12.4010   18.5080 C   0  0  0  0  0  2  0  0  0  0  0  0
  -27.5960  -13.3350   19.6730 C   0  0  0  0  0  3  0  0  0  0  0  0
  -28.6580  -13.3950   20.7880 C   0  0  0  0  0  2  0  0  0  0  0  0
  -29.9000  -13.8650   20.1560 N   0  0  0  0  0  0  0  0  0  0  0  0
  -31.6910  -15.2010   20.0570 O   0  0  0  0  0  0  0  0  0  0  0  0
  -29.6430  -16.3420   20.3130 N   0  0  0  0  0  0  0  0  0  0  0  0
  -28.6810  -16.0480   20.2540 H   0  0  0  0  0  0  0  0  0  0  0  0
  -25.2220  -13.9040   20.4260 C   0  0  0  0  0  0  0  0  0  0  0  0
  -24.1630  -13.1270   20.8020 C   0  0  0  0  0  0  0  0  0  0  0  0
  -24.6330  -11.7780   20.7790 C   0  0  0  0  0  0  0  0  0  0  0  0
  -26.2660  -13.0270   20.1840 N   0  0  0  0  0  0  0  0  0  0  0  0
  -25.9220  -11.7430   20.4650 N   0  0  0  0  0  0  0  0  0  0  0  0
  -23.9090  -10.5150   20.9790 C   0  0  0  0  0  0  0  0  0  0  0  0
  -24.3380   -9.5580   21.9240 C   0  0  0  0  0  3  0  0  0  0  0  0
  -23.6140   -8.3610   22.1120 C   0  0  0  0  0  3  0  0  0  0  0  0
  -22.4450   -8.1120   21.3540 C   0  0  0  0  0  0  0  0  0  0  0  0
  -22.0340   -9.0580   20.3980 C   0  0  0  0  0  3  0  0  0  0  0  0
  -22.7580  -10.2460   20.2080 C   0  0  0  0  0  3  0  0  0  0  0  0
  -21.6930   -6.9670   21.4510 O   0  0  0  0  0  0  0  0  0  0  0  0
  -21.6380   -6.2380   22.6120 C   0  0  0  0  0  0  0  0  0  0  0  0
  -21.1970   -6.8040   23.8270 C   0  0  0  0  0  3  0  0  0  0  0  0
  -21.0890   -6.0020   24.9800 C   0  0  0  0  0  3  0  0  0  0  0  0
  -21.4110   -4.6330   24.9190 C   0  0  0  0  0  0  0  0  0  0  0  0
  -21.8450   -4.0640   23.7080 C   0  0  0  0  0  3  0  0  0  0  0  0
  -21.9550   -4.8650   22.5570 C   0  0  0  0  0  0  0  0  0  0  0  0
  -22.3530   -4.3080   21.3860 F   0  0  0  0  0  0  0  0  0  0  0  0
  -21.3010   -3.8590   26.0240 F   0  0  0  0  0  0  0  0  0  0  0  0
  -22.7640  -13.6010   21.0670 C   0  0  0  0  0  0  0  0  0  0  0  0
  -22.0360  -12.9110   21.9370 N   0  0  0  0  0  0  0  0  0  0  0  0
  -22.3240  -14.6220   20.5380 O   0  0  0  0  0  0  0  0  0  0  0  0
  -22.4030  -12.0860   22.3880 H   0  0  0  0  0  0  0  0  0  0  0  0
  -21.0970  -13.2130   22.1550 H   0  0  0  0  0  0  0  0  0  0  0  0
  -25.3780  -15.2750   20.2390 N   0  0  0  0  0  0  0  0  0  0  0  0
  -24.6080  -15.9230   20.3540 H   0  0  0  0  0  0  0  0  0  0  0  0
  -26.2090  -15.7160   19.8670 H   0  0  0  0  0  0  0  0  0  0  0  0
  -29.6890  -24.9070   21.6720 C   0  0  0  0  0  1  0  0  0  0  0  0
  -27.2200  -24.6990   21.9400 C   0  0  0  0  0  1  0  0  0  0  0  0
  -28.3680  -24.7140   20.9100 C   0  0  2  0  0  0  0  0  0  0  0  0
  -28.2590  -26.0470   20.0910 O   0  0  0  0  0  0  0  0  0  0  0  0
  -24.6250  -31.8610   23.1790 C   0  0  0  0  0  0  0  0  0  0  0  0
  -27.2080  -27.0660   20.1870 C   0  0  0  0  0  0  0  0  0  0  0  0
  -23.4370  -30.4600   21.5390 C   0  0  0  0  0  3  0  0  0  0  0  0
  -24.8930  -28.8680   20.1320 C   0  0  0  0  0  0  0  0  0  0  0  0
  -25.9980  -30.7030   21.3920 C   0  0  0  0  0  2  0  0  0  0  0  0
  -26.0740  -29.2980   20.7500 C   0  0  0  0  0  0  0  0  0  0  0  0
  -27.2350  -28.4170   20.7540 C   0  0  0  0  0  3  0  0  0  0  0  0
  -25.9990  -26.7590   19.5300 C   0  0  0  0  0  3  0  0  0  0  0  0
  -24.8720  -27.6130   19.5040 C   0  0  0  0  0  3  0  0  0  0  0  0
  -23.6690  -29.7770   20.1650 C   0  0  0  0  0  2  0  0  0  0  0  0
  -24.7070  -31.0350   22.0900 N   0  0  0  0  0  0  0  0  0  0  0  0
  -23.5350  -32.1460   23.6990 O   0  0  0  0  0  0  0  0  0  0  0  0
  -22.7510  -29.4580   22.5020 C   0  0  0  0  0  0  0  0  0  0  0  0
  -21.4210  -29.2930   22.3790 N   0  0  0  0  0  0  0  0  0  0  0  0
  -23.4190  -28.8270   23.3250 O   0  0  0  0  0  0  0  0  0  0  0  0
  -20.9360  -29.8520   21.6900 H   0  0  0  0  0  0  0  0  0  0  0  0
  -18.0360  -28.1000   22.8940 C   0  0  0  0  0  0  0  0  0  0  0  0
  -20.5980  -28.3550   23.1480 C   0  0  0  0  0  3  0  0  0  0  0  0
  -20.6930  -26.9260   22.5680 C   0  0  0  0  0  2  0  0  0  0  0  0
  -19.5860  -26.6090   21.5570 C   0  0  0  0  0  2  0  0  0  0  0  0
  -18.2070  -26.7540   22.2080 C   0  0  0  0  0  2  0  0  0  0  0  0
  -19.1590  -28.8590   23.3210 C   0  0  0  0  0  0  0  0  0  0  0  0
  -18.9450  -30.1170   23.9230 C   0  0  0  0  0  3  0  0  0  0  0  0
  -17.6410  -30.6170   24.1030 C   0  0  0  0  0  3  0  0  0  0  0  0
  -16.5330  -29.8560   23.6900 C   0  0  0  0  0  3  0  0  0  0  0  0
  -16.7320  -28.5990   23.0920 C   0  0  0  0  0  3  0  0  0  0  0  0
  -25.8960  -32.5030   23.8130 C   0  0  0  0  0  3  0  0  0  0  0  0
  -26.4040  -31.7370   25.0960 C   0  0  1  0  0  0  0  0  0  0  0  0
  -25.3040  -31.5050   26.1570 C   0  0  0  0  0  1  0  0  0  0  0  0
  -26.9900  -30.3570   24.7190 C   0  0  0  0  0  1  0  0  0  0  0  0
  -27.5500  -32.5350   25.7630 C   0  0  0  0  0  1  0  0  0  0  0  0
  -25.5760  -33.9010   24.1470 N   0  0  0  0  0  0  0  0  0  0  0  0
  -25.9070  -34.9640   23.4010 C   0  0  0  0  0  0  0  0  0  0  0  0
  -26.5800  -34.8710   22.3700 O   0  0  0  0  0  0  0  0  0  0  0  0
  -24.9780  -34.0470   24.9460 H   0  0  0  0  0  0  0  0  0  0  0  0
  -24.1770  -36.7610   23.0620 C   0  0  0  0  0  1  0  0  0  0  0  0
  -25.4170  -36.3490   23.8710 C   0  0  0  0  0  3  0  0  0  0  0  0
  -27.5480  -37.2330   24.7150 C   0  0  0  0  0  1  0  0  0  0  0  0
  -26.4490  -37.4050   23.7680 N   0  0  0  0  0  0  0  0  0  0  0  0
  -26.0410  -38.3230   23.9210 H   0  0  0  0  0  0  0  0  0  0  0  0
  1  5  1  0
  2  4  1  0
  3  1  1  0
  3  2  2  0
  5  4  1  0
  5 50  1  0
  8  6  1  6
  7  8  1  0
  8  2  1  0
  8  9  1  0
 10 18  1  0
 11 16  1  0
 12 13  1  0
 12 11  1  0
 14 13  1  0
 14 23  1  0
 14 15  1  0
 16 10  1  0
 16 15  1  0
 17 10  2  0
 18  9  1  0
 19 18  1  0
 20 21  2  0
 21 40  1  0
 22 21  1  0
 22 25  1  0
 23 20  1  0
 23 24  1  0
 24 22  2  0
 25 26  1  0
 26 27  2  0
 28 31  1  0
 28 27  1  0
 29 28  2  0
 30 29  1  0
 30 25  2  0
 31 32  1  0
 32 33  1  0
 33 34  2  0
 35 34  1  0
 35 39  1  0
 36 35  2  0
 37 32  2  0
 37 36  1  0
 38 37  1  0
 40 41  1  0
 41 44  1  0
 41 43  1  0
 42 40  2  0
 45 46  1  0
 45 20  1  0
 47 45  1  0
 50 48  1  1
 50 49  1  0
 51 53  1  0
 51 50  1  0
 52 63  2  0
 53 58  1  0
 54 62  1  0
 54 64  1  0
 55 61  1  0
 55 57  1  0
 56 62  1  0
 57 58  2  0
 57 56  1  0
 59 53  2  0
 60 59  1  0
 60 55  2  0
 61 54  1  0
 62 52  1  0
 64 66  2  0
 65 64  1  0
 67 65  1  0
 68 77  2  0
 68 73  1  0
 69 65  1  0
 69 73  1  0
 70 69  1  0
 71 72  1  0
 71 70  1  0
 72 68  1  0
 73 74  2  0
 74 75  1  0
 76 75  2  0
 77 76  1  0
 78 52  1  0
 78 83  1  0
 78 79  1  0
 79 82  1  1
 79 80  1  0
 81 79  1  0
 83 86  1  0
 84 88  1  0
 84 83  1  0
 85 84  2  0
 88 87  1  0
 90 88  1  0
 90 91  1  0
 90 89  1  0
M  ISO  4  10 100  18 100  50 101  51 101
M  END
>  <TORSDO>  (78) 
F 19

>  <SCORE>  (78) 
-15.432

>  <name>  (78) 
77

>  <ligand_id>  (78) 
77

>  <original_smiles>  (78) 
[H]c1c([H])c([H])c2c(c1[H])C([H])([H])C([H])([H])C([H])([H])C2([H])N([H])C(=O)C1([H])N(C(=O)C([H])(N([H])C(=O)C([H])(N([H])C([H])([H])[H])C([H])([H])[H])C(C([H])([H])[H])(C([H])([H])[H])C([H])([H])[H])C([H])([H])c2c([H])c(OC(n3nc(C(C([H])([H])[H])(C([H])([H])[H])C([H])([H])N([H])C(=O)N4C([H])([H])C([H])([H])C([H])([H])C([H])(n5nc(-c6c([H])c([H])c(Oc7c([H])c([H])c(F)c([H])c7F)c([H])c6[H])c(C(=O)N([H])[H])c5N([H])[H])C4([H])[H])nc3[H])(C([H])([H])[H])C([H])([H])[H])c([H])c([H])c2C1([H])[H]

>  <smiles>  (78) 
[H]c1c([H])c([H])c2c(c1[H])C([H])([H])C([H])([H])C([H])([H])C2([H])N([H])C(=O)C1([H])N(C(=O)C([H])(N([H])C(=O)C([H])(N([H])C([H])([H])[H])C([H])([H])[H])C(C([H])([H])[H])(C([H])([H])[H])C([H])([H])[H])C([H])([H])c2c([H])c(OC(n3nc(C(C([H])([H])[H])(C([H])([H])[H])C([H])([H])N([H])C(=O)N4C([H])([H])C([H])([H])C([H])([H])C([H])(n5nc(-c6c([H])c([H])c(Oc7c([H])c([H])c(F)c([H])c7F)c([H])c6[H])c(C(=O)N([H])[H])c5N([H])[H])C4([H])[H])nc3[H])(C([H])([H])[H])C([H])([H])[H])c([H])c([H])c2C1([H])[H]

$$$$
78:0:0
     RDKit          3D

 93101  0  0  1  0  0  0  0  0999 V2000
  -28.7690  -24.5220   21.7410 C   0  0  0  0  0  3  0  0  0  0  0  0
  -29.1580  -23.4150   22.5120 C   0  0  0  0  0  0  0  0  0  0  0  0
  -28.6590  -24.3380   20.3540 C   0  0  0  0  0  0  0  0  0  0  0  0
  -29.3000  -22.1330   20.6210 C   0  0  0  0  0  0  0  0  0  0  0  0
  -29.3250  -23.5110   24.0140 C   0  0  0  0  0  1  0  0  0  0  0  0
  -29.4150  -22.2170   21.9450 N   0  0  0  0  0  0  0  0  0  0  0  0
  -28.9360  -23.1310   19.8130 N   0  0  0  0  0  0  0  0  0  0  0  0
  -28.2690  -25.4610   19.3810 C   0  0  0  0  0  2  0  0  0  0  0  0
  -28.1380  -26.7680   19.9640 O   0  0  0  0  0  0  0  0  0  0  0  0
  -24.4840  -31.9070   23.2070 C   0  0  0  0  0  0  0  0  0  0  0  0
  -26.9390  -27.4580   19.9760 C   0  0  0  0  0  0  0  0  0  0  0  0
  -23.1950  -30.5690   21.5700 C   0  0  0  0  0  3  0  0  0  0  0  0
  -24.5720  -29.0200   20.0790 C   0  0  0  0  0  0  0  0  0  0  0  0
  -25.7210  -30.8710   21.3070 C   0  0  0  0  0  2  0  0  0  0  0  0
  -25.7550  -29.5090   20.6420 C   0  0  0  0  0  0  0  0  0  0  0  0
  -26.9340  -28.7360   20.5860 C   0  0  0  0  0  3  0  0  0  0  0  0
  -25.7280  -26.9780   19.4220 C   0  0  0  0  0  3  0  0  0  0  0  0
  -24.5520  -27.7540   19.4680 C   0  0  0  0  0  3  0  0  0  0  0  0
  -23.3530  -29.9110   20.1710 C   0  0  0  0  0  2  0  0  0  0  0  0
  -24.4870  -31.1290   22.0870 N   0  0  0  0  0  0  0  0  0  0  0  0
  -23.4270  -32.1960   23.7830 O   0  0  0  0  0  0  0  0  0  0  0  0
  -22.5450  -29.5470   22.5300 C   0  0  0  0  0  0  0  0  0  0  0  0
  -21.2210  -29.3600   22.4000 N   0  0  0  0  0  0  0  0  0  0  0  0
  -23.2270  -28.9260   23.3490 O   0  0  0  0  0  0  0  0  0  0  0  0
  -20.7300  -29.9160   21.7140 H   0  0  0  0  0  0  0  0  0  0  0  0
  -17.8630  -28.1040   22.8340 C   0  0  0  0  0  0  0  0  0  0  0  0
  -20.4060  -28.4200   23.1690 C   0  0  0  0  0  3  0  0  0  0  0  0
  -20.5540  -26.9800   22.6240 C   0  0  0  0  0  2  0  0  0  0  0  0
  -19.4880  -26.6150   21.5870 C   0  0  0  0  0  2  0  0  0  0  0  0
  -18.0860  -26.7450   22.1920 C   0  0  0  0  0  2  0  0  0  0  0  0
  -18.9530  -28.8970   23.2790 C   0  0  0  0  0  0  0  0  0  0  0  0
  -18.6910  -30.1680   23.8370 C   0  0  0  0  0  3  0  0  0  0  0  0
  -17.3720  -30.6440   23.9580 C   0  0  0  0  0  3  0  0  0  0  0  0
  -16.2970  -29.8480   23.5290 C   0  0  0  0  0  3  0  0  0  0  0  0
  -16.5420  -28.5800   22.9710 C   0  0  0  0  0  3  0  0  0  0  0  0
  -25.8040  -32.4910   23.8010 C   0  0  0  0  0  3  0  0  0  0  0  0
  -25.5500  -33.8940   24.1510 N   0  0  0  0  0  0  0  0  0  0  0  0
  -25.9210  -34.9420   23.4040 C   0  0  0  0  0  0  0  0  0  0  0  0
  -26.5830  -34.8260   22.3680 O   0  0  0  0  0  0  0  0  0  0  0  0
  -24.9630  -34.0620   24.9550 H   0  0  0  0  0  0  0  0  0  0  0  0
  -24.2730  -36.8090   23.0630 C   0  0  0  0  0  1  0  0  0  0  0  0
  -25.4870  -36.3410   23.8800 C   0  0  0  0  0  3  0  0  0  0  0  0
  -27.6440  -37.1250   24.7550 C   0  0  0  0  0  1  0  0  0  0  0  0
  -26.5640  -37.3510   23.7970 N   0  0  0  0  0  0  0  0  0  0  0  0
  -26.1950  -38.2850   23.9530 H   0  0  0  0  0  0  0  0  0  0  0  0
  -26.3320  -31.6880   25.0520 C   0  0  1  0  0  0  0  0  0  0  0  0
  -25.2600  -31.4620   26.1430 C   0  0  0  0  0  1  0  0  0  0  0  0
  -26.8630  -30.3010   24.6220 C   0  0  0  0  0  1  0  0  0  0  0  0
  -27.5270  -32.4360   25.6910 C   0  0  0  0  0  1  0  0  0  0  0  0
  -29.5670  -20.7760   19.9660 C   0  0  0  0  0  2  0  0  0  0  0  0
  -31.5010  -19.8300   21.1820 C   0  0  0  0  0  1  0  0  0  0  0  0
  -30.0510  -19.7090   20.8960 N   0  0  2  0  0  4  0  0  0  0  0  0
  -29.5710  -19.9570   21.7520 H   0  0  0  0  0  0  0  0  0  0  0  0
  -29.6070  -18.3490   20.4400 C   0  0  0  0  0  3  0  0  0  0  0  0
  -30.4260  -17.0680   20.8720 C   0  0  0  0  0  3  0  0  0  0  0  0
  -30.7760  -14.6520   20.3460 C   0  0  0  0  0  0  0  0  0  0  0  0
  -30.5240  -12.3910   19.3930 C   0  0  0  0  0  2  0  0  0  0  0  0
  -29.6110  -12.4390   18.1480 C   0  0  0  0  0  2  0  0  0  0  0  0
  -28.1160  -12.3970   18.5440 C   0  0  0  0  0  2  0  0  0  0  0  0
  -27.7420  -13.2860   19.7660 C   0  0  0  0  0  3  0  0  0  0  0  0
  -28.7880  -13.1910   20.8980 C   0  0  0  0  0  2  0  0  0  0  0  0
  -30.1040  -13.4650   20.3060 N   0  0  0  0  0  0  0  0  0  0  0  0
  -31.9950  -14.7230   20.1860 O   0  0  0  0  0  0  0  0  0  0  0  0
  -29.5460  -16.0380   18.8340 C   0  0  0  0  0  1  0  0  0  0  0  0
  -30.0220  -15.7870   20.2080 N   0  0  0  0  0  0  0  0  0  0  0  0
  -25.3410  -13.9040   20.4370 C   0  0  0  0  0  0  0  0  0  0  0  0
  -24.2660  -13.1380   20.7940 C   0  0  0  0  0  0  0  0  0  0  0  0
  -24.7300  -11.7870   20.7990 C   0  0  0  0  0  0  0  0  0  0  0  0
  -26.3890  -13.0180   20.2410 N   0  0  0  0  0  0  0  0  0  0  0  0
  -26.0260  -11.7420   20.5220 N   0  0  0  0  0  0  0  0  0  0  0  0
  -24.0020  -10.5280   20.9950 C   0  0  0  0  0  0  0  0  0  0  0  0
  -24.4020   -9.5920   21.9740 C   0  0  0  0  0  3  0  0  0  0  0  0
  -23.6820   -8.3930   22.1550 C   0  0  0  0  0  3  0  0  0  0  0  0
  -22.5470   -8.1210   21.3570 C   0  0  0  0  0  0  0  0  0  0  0  0
  -22.1630   -9.0440   20.3690 C   0  0  0  0  0  3  0  0  0  0  0  0
  -22.8850  -10.2370   20.1880 C   0  0  0  0  0  3  0  0  0  0  0  0
  -21.8010   -6.9700   21.4440 O   0  0  0  0  0  0  0  0  0  0  0  0
  -21.6860   -6.2740   22.6200 C   0  0  0  0  0  0  0  0  0  0  0  0
  -21.1440   -6.8610   23.7830 C   0  0  0  0  0  3  0  0  0  0  0  0
  -20.9840   -6.0910   24.9520 C   0  0  0  0  0  3  0  0  0  0  0  0
  -21.3510   -4.7320   24.9560 C   0  0  0  0  0  0  0  0  0  0  0  0
  -21.8830   -4.1420   23.7960 C   0  0  0  0  0  3  0  0  0  0  0  0
  -22.0470   -4.9120   22.6310 C   0  0  0  0  0  0  0  0  0  0  0  0
  -22.5430   -4.3350   21.5100 F   0  0  0  0  0  0  0  0  0  0  0  0
  -21.1880   -3.9890   26.0770 F   0  0  0  0  0  0  0  0  0  0  0  0
  -22.8630  -13.6170   21.0280 C   0  0  0  0  0  0  0  0  0  0  0  0
  -22.1210  -12.9280   21.8890 N   0  0  0  0  0  0  0  0  0  0  0  0
  -22.4340  -14.6340   20.4890 O   0  0  0  0  0  0  0  0  0  0  0  0
  -22.4860  -12.1030   22.3420 H   0  0  0  0  0  0  0  0  0  0  0  0
  -21.1770  -13.2230   22.0920 H   0  0  0  0  0  0  0  0  0  0  0  0
  -25.5130  -15.2720   20.2420 N   0  0  0  0  0  0  0  0  0  0  0  0
  -24.7470  -15.9310   20.3180 H   0  0  0  0  0  0  0  0  0  0  0  0
  -26.3810  -15.7030   19.9530 H   0  0  0  0  0  0  0  0  0  0  0  0
  1  2  2  0
  2  5  1  0
  3  1  1  0
  4  6  2  0
  6  2  1  0
  7  3  2  0
  7  4  1  0
  8  9  1  0
  8  3  1  0
  9 11  1  0
 10 21  2  0
 11 16  1  0
 12 20  1  0
 12 22  1  0
 13 19  1  0
 13 15  1  0
 14 20  1  0
 15 14  1  0
 16 15  2  0
 17 18  1  0
 17 11  2  0
 18 13  2  0
 19 12  1  0
 20 10  1  0
 22 24  2  0
 23 22  1  0
 25 23  1  0
 26 35  2  0
 26 31  1  0
 27 23  1  0
 27 31  1  0
 28 27  1  0
 29 30  1  0
 29 28  1  0
 30 26  1  0
 31 32  2  0
 32 33  1  0
 34 33  2  0
 35 34  1  0
 36 10  1  0
 36 37  1  0
 36 46  1  0
 37 40  1  0
 38 42  1  0
 38 37  1  0
 39 38  2  0
 42 41  1  0
 44 42  1  0
 44 45  1  0
 44 43  1  0
 46 49  1  1
 46 47  1  0
 48 46  1  0
 50  4  1  0
 50 52  1  0
 52 51  1  0
 52 53  1  1
 54 55  2  0
 54 52  1  0
 57 62  1  0
 58 59  1  0
 58 57  1  0
 60 59  1  0
 60 69  1  0
 60 61  1  0
 62 56  1  0
 62 61  1  0
 63 56  2  0
 64 65  1  0
 65 56  1  0
 65 55  1  0
 66 67  2  0
 67 68  1  0
 67 86  1  0
 68 71  1  0
 69 66  1  0
 69 70  1  0
 70 68  2  0
 71 72  1  0
 72 73  2  0
 74 77  1  0
 74 73  1  0
 75 74  2  0
 76 75  1  0
 76 71  2  0
 77 78  1  0
 78 83  2  0
 78 79  1  0
 79 80  2  0
 80 81  1  0
 81 85  1  0
 82 81  2  0
 83 82  1  0
 84 83  1  0
 86 87  1  0
 87 90  1  0
 87 89  1  0
 88 86  2  0
 91 92  1  0
 91 66  1  0
 93 91  1  0
M  ISO  4   8 101   9 101  56 100  65 100
M  END
>  <TORSDO>  (79) 
F 21

>  <SCORE>  (79) 
-12.860

>  <name>  (79) 
78

>  <ligand_id>  (79) 
78

>  <original_smiles>  (79) 
[H]c1c(C([H])([H])[H])nc(C([H])([H])[N+]([H])(C([H])([H])[H])C([H])([H])C([H])([H])N(C(=O)N2C([H])([H])C([H])([H])C([H])([H])C([H])(n3nc(-c4c([H])c([H])c(Oc5c([H])c([H])c(F)c([H])c5F)c([H])c4[H])c(C(=O)N([H])[H])c3N([H])[H])C2([H])[H])C([H])([H])[H])nc1C([H])([H])Oc1c([H])c([H])c2c(c1[H])C([H])([H])N(C(=O)C([H])(N([H])C(=O)C([H])(N([H])C([H])([H])[H])C([H])([H])[H])C(C([H])([H])[H])(C([H])([H])[H])C([H])([H])[H])C([H])(C(=O)N([H])C1([H])c3c([H])c([H])c([H])c([H])c3C([H])([H])C([H])([H])C1([H])[H])C2([H])[H]

>  <smiles>  (79) 
[H]c1c(C([H])([H])[H])nc(C([H])([H])[N+]([H])(C([H])([H])[H])C([H])([H])C([H])([H])N(C(=O)N2C([H])([H])C([H])([H])C([H])([H])C([H])(n3nc(-c4c([H])c([H])c(Oc5c([H])c([H])c(F)c([H])c5F)c([H])c4[H])c(C(=O)N([H])[H])c3N([H])[H])C2([H])[H])C([H])([H])[H])nc1C([H])([H])Oc1c([H])c([H])c2c(c1[H])C([H])([H])N(C(=O)C([H])(N([H])C(=O)C([H])(N([H])C([H])([H])[H])C([H])([H])[H])C(C([H])([H])[H])(C([H])([H])[H])C([H])([H])[H])C([H])(C(=O)N([H])C1([H])c3c([H])c([H])c([H])c([H])c3C([H])([H])C([H])([H])C1([H])[H])C2([H])[H]

$$$$
79:0:0
     RDKit          3D

 90 98  0  0  1  0  0  0  0  0999 V2000
  -28.3290  -20.9770   19.8630 C   0  0  0  0  0  3  0  0  0  0  0  0
  -29.3030  -21.9210   20.3160 C   0  0  0  0  0  0  0  0  0  0  0  0
  -30.4960  -21.2020   20.6650 C   0  0  0  0  0  0  0  0  0  0  0  0
  -29.7130  -19.0230   20.0930 C   0  0  0  0  0  0  0  0  0  0  0  0
  -28.5400  -19.6040   19.7430 N   0  0  0  0  0  0  0  0  0  0  0  0
  -30.6760  -19.8390   20.5450 N   0  0  0  0  0  0  0  0  0  0  0  0
  -32.6880  -22.2810   19.9850 C   0  0  0  0  0  1  0  0  0  0  0  0
  -31.7420  -21.9330   21.1420 C   0  0  0  0  0  2  0  0  0  0  0  0
  -29.2180  -23.5690   20.4640 C   0  0  0  0  0  3  0  0  0  0  0  0
  -28.0590  -24.6880   20.0540 C   0  0  0  0  0  3  0  0  0  0  0  0
  -28.2740  -26.2100   20.2440 O   0  0  0  0  0  0  0  0  0  0  0  0
  -24.6480  -31.8620   23.2120 C   0  0  0  0  0  0  0  0  0  0  0  0
  -27.2030  -27.1630   20.1760 C   0  0  0  0  0  0  0  0  0  0  0  0
  -23.4350  -30.4670   21.5810 C   0  0  0  0  0  3  0  0  0  0  0  0
  -24.8710  -28.8880   20.1520 C   0  0  0  0  0  0  0  0  0  0  0  0
  -25.9850  -30.7340   21.4000 C   0  0  0  0  0  2  0  0  0  0  0  0
  -26.0530  -29.3430   20.7510 C   0  0  0  0  0  0  0  0  0  0  0  0
  -27.2190  -28.4960   20.7440 C   0  0  0  0  0  3  0  0  0  0  0  0
  -25.9950  -26.7980   19.5420 C   0  0  0  0  0  3  0  0  0  0  0  0
  -24.8530  -27.6270   19.5330 C   0  0  0  0  0  3  0  0  0  0  0  0
  -23.6460  -29.7850   20.2030 C   0  0  0  0  0  2  0  0  0  0  0  0
  -24.7090  -31.0430   22.1190 N   0  0  0  0  0  0  0  0  0  0  0  0
  -23.5660  -32.1510   23.7460 O   0  0  0  0  0  0  0  0  0  0  0  0
  -22.7610  -29.4630   22.5480 C   0  0  0  0  0  0  0  0  0  0  0  0
  -21.4310  -29.2950   22.4300 N   0  0  0  0  0  0  0  0  0  0  0  0
  -23.4350  -28.8360   23.3700 O   0  0  0  0  0  0  0  0  0  0  0  0
  -20.9430  -29.8520   21.7430 H   0  0  0  0  0  0  0  0  0  0  0  0
  -18.0500  -28.1100   22.9530 C   0  0  0  0  0  0  0  0  0  0  0  0
  -20.6100  -28.3640   23.2090 C   0  0  0  0  0  3  0  0  0  0  0  0
  -20.7050  -26.9290   22.6400 C   0  0  0  0  0  2  0  0  0  0  0  0
  -19.5980  -26.6070   21.6300 C   0  0  0  0  0  2  0  0  0  0  0  0
  -18.2190  -26.7580   22.2800 C   0  0  0  0  0  2  0  0  0  0  0  0
  -19.1730  -28.8700   23.3750 C   0  0  0  0  0  0  0  0  0  0  0  0
  -18.9590  -30.1340   23.9660 C   0  0  0  0  0  3  0  0  0  0  0  0
  -17.6550  -30.6390   24.1370 C   0  0  0  0  0  3  0  0  0  0  0  0
  -16.5480  -29.8750   23.7300 C   0  0  0  0  0  3  0  0  0  0  0  0
  -16.7460  -28.6130   23.1440 C   0  0  0  0  0  3  0  0  0  0  0  0
  -25.9310  -32.4960   23.8290 C   0  0  0  0  0  3  0  0  0  0  0  0
  -26.4550  -31.7200   25.1000 C   0  0  1  0  0  0  0  0  0  0  0  0
  -25.3700  -31.4790   26.1750 C   0  0  0  0  0  1  0  0  0  0  0  0
  -27.0350  -30.3430   24.7030 C   0  0  0  0  0  1  0  0  0  0  0  0
  -27.6090  -32.5120   25.7590 C   0  0  0  0  0  1  0  0  0  0  0  0
  -25.6200  -33.8910   24.1760 N   0  0  0  0  0  0  0  0  0  0  0  0
  -25.9360  -34.9540   23.4230 C   0  0  0  0  0  0  0  0  0  0  0  0
  -26.5880  -34.8630   22.3790 O   0  0  0  0  0  0  0  0  0  0  0  0
  -25.0390  -34.0350   24.9870 H   0  0  0  0  0  0  0  0  0  0  0  0
  -24.1940  -36.7460   23.1250 C   0  0  0  0  0  1  0  0  0  0  0  0
  -25.4550  -36.3380   23.9040 C   0  0  0  0  0  3  0  0  0  0  0  0
  -27.6050  -37.2260   24.6920 C   0  0  0  0  0  1  0  0  0  0  0  0
  -26.4800  -37.3970   23.7750 N   0  0  0  0  0  0  0  0  0  0  0  0
  -26.0740  -38.3130   23.9390 H   0  0  0  0  0  0  0  0  0  0  0  0
  -30.1280  -17.5030   19.6180 C   0  0  0  0  0  2  0  0  0  0  0  0
  -30.6390  -14.9140   20.0110 C   0  0  0  0  0  0  0  0  0  0  0  0
  -30.4010  -12.6270   18.9430 C   0  0  0  0  0  2  0  0  0  0  0  0
  -29.3910  -12.6740   17.7710 C   0  0  0  0  0  2  0  0  0  0  0  0
  -27.9510  -12.4730   18.2790 C   0  0  0  0  0  2  0  0  0  0  0  0
  -27.6450  -13.3250   19.5390 C   0  0  0  0  0  3  0  0  0  0  0  0
  -28.7690  -13.2090   20.5890 C   0  0  0  0  0  2  0  0  0  0  0  0
  -30.0070  -13.6690   19.9380 N   0  0  0  0  0  0  0  0  0  0  0  0
  -31.7780  -14.9800   19.5310 O   0  0  0  0  0  0  0  0  0  0  0  0
  -29.2440  -16.2320   21.6090 C   0  0  0  0  0  1  0  0  0  0  0  0
  -29.9400  -16.1160   20.3250 N   0  0  0  0  0  0  0  0  0  0  0  0
  -25.3090  -13.8980   20.4150 C   0  0  0  0  0  0  0  0  0  0  0  0
  -24.2630  -13.1200   20.8280 C   0  0  0  0  0  0  0  0  0  0  0  0
  -24.7200  -11.7680   20.7440 C   0  0  0  0  0  0  0  0  0  0  0  0
  -26.3340  -13.0220   20.1000 N   0  0  0  0  0  0  0  0  0  0  0  0
  -25.9910  -11.7350   20.3600 N   0  0  0  0  0  0  0  0  0  0  0  0
  -23.9990  -10.5040   20.9480 C   0  0  0  0  0  0  0  0  0  0  0  0
  -24.4570   -9.5320   21.8650 C   0  0  0  0  0  3  0  0  0  0  0  0
  -23.7360   -8.3350   22.0590 C   0  0  0  0  0  3  0  0  0  0  0  0
  -22.5440   -8.0980   21.3350 C   0  0  0  0  0  0  0  0  0  0  0  0
  -22.1040   -9.0590   20.4060 C   0  0  0  0  0  3  0  0  0  0  0  0
  -22.8260  -10.2480   20.2110 C   0  0  0  0  0  3  0  0  0  0  0  0
  -21.7910   -6.9530   21.4380 O   0  0  0  0  0  0  0  0  0  0  0  0
  -21.7390   -6.2300   22.6030 C   0  0  0  0  0  0  0  0  0  0  0  0
  -21.3080   -6.8050   23.8180 C   0  0  0  0  0  3  0  0  0  0  0  0
  -21.2040   -6.0070   24.9750 C   0  0  0  0  0  3  0  0  0  0  0  0
  -21.5190   -4.6360   24.9170 C   0  0  0  0  0  0  0  0  0  0  0  0
  -21.9430   -4.0610   23.7060 C   0  0  0  0  0  3  0  0  0  0  0  0
  -22.0490   -4.8560   22.5520 C   0  0  0  0  0  0  0  0  0  0  0  0
  -22.4390   -4.2930   21.3830 F   0  0  0  0  0  0  0  0  0  0  0  0
  -21.4120   -3.8680   26.0270 F   0  0  0  0  0  0  0  0  0  0  0  0
  -22.8850  -13.5960   21.1860 C   0  0  0  0  0  0  0  0  0  0  0  0
  -22.2080  -12.8890   22.0830 N   0  0  0  0  0  0  0  0  0  0  0  0
  -22.4230  -14.6300   20.7080 O   0  0  0  0  0  0  0  0  0  0  0  0
  -22.5980  -12.0520   22.4910 H   0  0  0  0  0  0  0  0  0  0  0  0
  -21.2850  -13.1900   22.3660 H   0  0  0  0  0  0  0  0  0  0  0  0
  -25.4660  -15.2720   20.2550 N   0  0  0  0  0  0  0  0  0  0  0  0
  -24.7040  -15.9220   20.4160 H   0  0  0  0  0  0  0  0  0  0  0  0
  -26.2920  -15.7160   19.8750 H   0  0  0  0  0  0  0  0  0  0  0  0
  1  2  2  0
  2  9  1  0
  2  3  1  0
  3  8  1  0
  4  6  1  0
  5  1  1  0
  5  4  2  0
  6  3  2  0
  7  8  1  0
 10 11  1  0
 10  9  2  0
 12 23  2  0
 13 11  1  0
 13 18  1  0
 14 22  1  0
 14 24  1  0
 15 21  1  0
 15 17  1  0
 16 22  1  0
 17 16  1  0
 18 17  2  0
 19 13  2  0
 20 19  1  0
 20 15  2  0
 21 14  1  0
 22 12  1  0
 24 26  2  0
 25 24  1  0
 27 25  1  0
 28 37  2  0
 28 33  1  0
 29 25  1  0
 29 33  1  0
 30 29  1  0
 31 32  1  0
 31 30  1  0
 32 28  1  0
 33 34  2  0
 34 35  1  0
 36 35  2  0
 37 36  1  0
 38 12  1  0
 38 43  1  0
 38 39  1  0
 39 42  1  1
 39 40  1  0
 41 39  1  0
 43 46  1  0
 44 48  1  0
 44 43  1  0
 45 44  2  0
 48 47  1  0
 50 48  1  0
 50 51  1  0
 50 49  1  0
 52  4  1  0
 52 62  1  0
 53 62  1  0
 54 59  1  0
 55 56  1  0
 55 54  1  0
 57 56  1  0
 57 66  1  0
 57 58  1  0
 59 53  1  0
 59 58  1  0
 60 53  2  0
 62 61  1  0
 63 64  2  0
 64 83  1  0
 65 64  1  0
 65 68  1  0
 66 67  1  0
 66 63  1  0
 67 65  2  0
 68 69  1  0
 69 70  2  0
 71 74  1  0
 71 70  1  0
 72 71  2  0
 73 72  1  0
 73 68  2  0
 74 75  1  0
 75 76  1  0
 76 77  2  0
 78 77  1  0
 78 82  1  0
 79 78  2  0
 80 75  2  0
 80 79  1  0
 81 80  1  0
 83 84  1  0
 84 87  1  0
 84 86  1  0
 85 83  2  0
 88 63  1  0
 88 89  1  0
 90 88  1  0
M  ISO  4  10 101  11 101  53 100  62 100
M  END
>  <TORSDO>  (80) 
F 20

>  <SCORE>  (80) 
-13.464

>  <name>  (80) 
79

>  <ligand_id>  (80) 
79

>  <original_smiles>  (80) 
[H]c1nc(C([H])([H])N(C(=O)N2C([H])([H])C([H])([H])C([H])([H])C([H])(n3nc(-c4c([H])c([H])c(Oc5c([H])c([H])c(F)c([H])c5F)c([H])c4[H])c(C(=O)N([H])[H])c3N([H])[H])C2([H])[H])C([H])([H])[H])nc(C([H])([H])C([H])([H])[H])c1C([H])([H])C([H])([H])Oc1c([H])c([H])c2c(c1[H])C([H])([H])N(C(=O)C([H])(N([H])C(=O)C([H])(N([H])C([H])([H])[H])C([H])([H])[H])C(C([H])([H])[H])(C([H])([H])[H])C([H])([H])[H])C([H])(C(=O)N([H])C1([H])c3c([H])c([H])c([H])c([H])c3C([H])([H])C([H])([H])C1([H])[H])C2([H])[H]

>  <smiles>  (80) 
[H]c1nc(C([H])([H])N(C(=O)N2C([H])([H])C([H])([H])C([H])([H])C([H])(n3nc(-c4c([H])c([H])c(Oc5c([H])c([H])c(F)c([H])c5F)c([H])c4[H])c(C(=O)N([H])[H])c3N([H])[H])C2([H])[H])C([H])([H])[H])nc(C([H])([H])C([H])([H])[H])c1C([H])([H])C([H])([H])Oc1c([H])c([H])c2c(c1[H])C([H])([H])N(C(=O)C([H])(N([H])C(=O)C([H])(N([H])C([H])([H])[H])C([H])([H])[H])C(C([H])([H])[H])(C([H])([H])[H])C([H])([H])[H])C([H])(C(=O)N([H])C1([H])c3c([H])c([H])c([H])c([H])c3C([H])([H])C([H])([H])C1([H])[H])C2([H])[H]

$$$$
80:0:0
     RDKit          3D

 93101  0  0  1  0  0  0  0  0999 V2000
  -29.0670  -22.5190   20.5960 C   0  0  0  0  0  3  0  0  0  0  0  0
  -30.1790  -21.4580   20.0780 C   0  0  0  0  0  2  0  0  0  0  0  0
  -30.9290  -18.8640   20.1620 C   0  0  0  0  0  3  0  0  0  0  0  0
  -30.0010  -19.8740   20.1930 C   0  0  0  0  0  0  0  0  0  0  0  0
  -28.7210  -19.1770   20.2420 C   0  0  0  0  0  0  0  0  0  0  0  0
  -28.0110  -16.8780   19.7670 C   0  0  0  0  0  1  0  0  0  0  0  0
  -30.3620  -17.5750   20.1350 N   0  0  0  0  0  0  0  0  0  0  0  0
  -28.9860  -17.8450   20.2040 N   0  0  0  0  0  0  0  0  0  0  0  0
  -27.5910  -19.6670   20.2420 O   0  0  0  0  0  0  0  0  0  0  0  0
  -30.4400  -15.9980   22.2070 C   0  0  0  0  0  1  0  0  0  0  0  0
  -30.8260  -16.2300   20.7310 C   0  0  0  0  0  3  0  0  0  0  0  0
  -31.1340  -14.8450   19.9340 C   0  0  0  0  0  0  0  0  0  0  0  0
  -30.7430  -12.5450   18.9820 C   0  0  0  0  0  2  0  0  0  0  0  0
  -29.7720  -12.6080   17.7830 C   0  0  0  0  0  2  0  0  0  0  0  0
  -28.3190  -12.4620   18.2700 C   0  0  0  0  0  2  0  0  0  0  0  0
  -28.0110  -13.3980   19.4710 C   0  0  0  0  0  3  0  0  0  0  0  0
  -29.1190  -13.3540   20.5540 C   0  0  0  0  0  2  0  0  0  0  0  0
  -30.4090  -13.6600   19.9140 N   0  0  0  0  0  0  0  0  0  0  0  0
  -32.1960  -14.8570   19.3040 O   0  0  0  0  0  0  0  0  0  0  0  0
  -25.6620  -14.0320   20.3020 C   0  0  0  0  0  0  0  0  0  0  0  0
  -24.6110  -13.2950   20.7560 C   0  0  0  0  0  0  0  0  0  0  0  0
  -25.0330  -11.9360   20.6810 C   0  0  0  0  0  0  0  0  0  0  0  0
  -26.6840  -13.1380   20.0280 N   0  0  0  0  0  0  0  0  0  0  0  0
  -26.3070  -11.8630   20.3070 N   0  0  0  0  0  0  0  0  0  0  0  0
  -24.2690  -10.7020   20.8780 C   0  0  0  0  0  0  0  0  0  0  0  0
  -24.6630   -9.7350   21.8250 C   0  0  0  0  0  3  0  0  0  0  0  0
  -23.8980   -8.5630   22.0110 C   0  0  0  0  0  3  0  0  0  0  0  0
  -22.7230   -8.3560   21.2500 C   0  0  0  0  0  0  0  0  0  0  0  0
  -22.3500   -9.3120   20.2890 C   0  0  0  0  0  3  0  0  0  0  0  0
  -23.1160  -10.4720   20.1000 C   0  0  0  0  0  3  0  0  0  0  0  0
  -21.9270   -7.2410   21.3500 O   0  0  0  0  0  0  0  0  0  0  0  0
  -21.7880   -6.5620   22.5340 C   0  0  0  0  0  0  0  0  0  0  0  0
  -21.3160   -7.1940   23.7060 C   0  0  0  0  0  3  0  0  0  0  0  0
  -21.1240   -6.4420   24.8830 C   0  0  0  0  0  3  0  0  0  0  0  0
  -21.3930   -5.0590   24.8860 C   0  0  0  0  0  0  0  0  0  0  0  0
  -21.8600   -4.4290   23.7200 C   0  0  0  0  0  3  0  0  0  0  0  0
  -22.0540   -5.1780   22.5460 C   0  0  0  0  0  0  0  0  0  0  0  0
  -22.4810   -4.5630   21.4180 F   0  0  0  0  0  0  0  0  0  0  0  0
  -21.2030   -4.3330   26.0130 F   0  0  0  0  0  0  0  0  0  0  0  0
  -23.2520  -13.8210   21.1150 C   0  0  0  0  0  0  0  0  0  0  0  0
  -22.5580  -13.1480   22.0230 N   0  0  0  0  0  0  0  0  0  0  0  0
  -22.8220  -14.8670   20.6290 O   0  0  0  0  0  0  0  0  0  0  0  0
  -22.9230  -12.3030   22.4370 H   0  0  0  0  0  0  0  0  0  0  0  0
  -21.6520  -13.4840   22.3170 H   0  0  0  0  0  0  0  0  0  0  0  0
  -25.7920  -15.3850   20.0570 N   0  0  0  0  0  0  0  0  0  0  0  0
  -24.9660  -15.9710   20.1070 H   0  0  0  0  0  0  0  0  0  0  0  0
  -26.4800  -15.7380   19.4080 H   0  0  0  0  0  0  0  0  0  0  0  0
  -29.0810  -24.0750   20.1230 C   0  0  0  0  0  3  0  0  0  0  0  0
  -28.2230  -25.0950   20.8470 N   0  0  0  0  0  0  0  0  0  0  0  0
  -28.3310  -26.4830   20.1600 O   0  0  0  0  0  0  0  0  0  0  0  0
  -24.5910  -31.8770   23.2320 C   0  0  0  0  0  0  0  0  0  0  0  0
  -27.2190  -27.3520   20.1490 C   0  0  0  0  0  0  0  0  0  0  0  0
  -23.3890  -30.4890   21.5790 C   0  0  0  0  0  3  0  0  0  0  0  0
  -24.8490  -28.9620   20.1320 C   0  0  0  0  0  0  0  0  0  0  0  0
  -25.9270  -30.8130   21.4060 C   0  0  0  0  0  2  0  0  0  0  0  0
  -26.0110  -29.4410   20.7500 C   0  0  0  0  0  0  0  0  0  0  0  0
  -27.1960  -28.6470   20.7580 C   0  0  0  0  0  3  0  0  0  0  0  0
  -26.0610  -26.9630   19.4430 C   0  0  0  0  0  3  0  0  0  0  0  0
  -24.8770  -27.7260   19.4640 C   0  0  0  0  0  3  0  0  0  0  0  0
  -23.6040  -29.8250   20.1920 C   0  0  0  0  0  2  0  0  0  0  0  0
  -24.6520  -31.0790   22.1250 N   0  0  0  0  0  0  0  0  0  0  0  0
  -23.5070  -32.1450   23.7700 O   0  0  0  0  0  0  0  0  0  0  0  0
  -22.7330  -29.4620   22.5310 C   0  0  0  0  0  0  0  0  0  0  0  0
  -21.4080  -29.2830   22.4100 N   0  0  0  0  0  0  0  0  0  0  0  0
  -23.4160  -28.8310   23.3400 O   0  0  0  0  0  0  0  0  0  0  0  0
  -20.9150  -29.8470   21.7320 H   0  0  0  0  0  0  0  0  0  0  0  0
  -18.0340  -28.0790   22.9060 C   0  0  0  0  0  0  0  0  0  0  0  0
  -20.5920  -28.3410   23.1740 C   0  0  0  0  0  3  0  0  0  0  0  0
  -20.6960  -26.9130   22.5860 C   0  0  0  0  0  2  0  0  0  0  0  0
  -19.5920  -26.5960   21.5710 C   0  0  0  0  0  2  0  0  0  0  0  0
  -18.2120  -26.7350   22.2190 C   0  0  0  0  0  2  0  0  0  0  0  0
  -19.1520  -28.8400   23.3400 C   0  0  0  0  0  0  0  0  0  0  0  0
  -18.9310  -30.0980   23.9390 C   0  0  0  0  0  3  0  0  0  0  0  0
  -17.6260  -30.5940   24.1160 C   0  0  0  0  0  3  0  0  0  0  0  0
  -16.5220  -29.8290   23.6990 C   0  0  0  0  0  3  0  0  0  0  0  0
  -16.7280  -28.5740   23.0990 C   0  0  0  0  0  3  0  0  0  0  0  0
  -25.8720  -32.5060   23.8570 C   0  0  0  0  0  3  0  0  0  0  0  0
  -25.5650  -33.9060   24.1880 N   0  0  0  0  0  0  0  0  0  0  0  0
  -25.8990  -34.9610   23.4320 C   0  0  0  0  0  0  0  0  0  0  0  0
  -26.5710  -34.8590   22.3990 O   0  0  0  0  0  0  0  0  0  0  0  0
  -24.9740  -34.0620   24.9940 H   0  0  0  0  0  0  0  0  0  0  0  0
  -24.1710  -36.7580   23.0790 C   0  0  0  0  0  1  0  0  0  0  0  0
  -25.4130  -36.3510   23.8900 C   0  0  0  0  0  3  0  0  0  0  0  0
  -27.5480  -37.2320   24.7230 C   0  0  0  0  0  1  0  0  0  0  0  0
  -26.4450  -37.4030   23.7810 N   0  0  0  0  0  0  0  0  0  0  0  0
  -26.0380  -38.3230   23.9300 H   0  0  0  0  0  0  0  0  0  0  0  0
  -26.3850  -31.7360   25.1340 C   0  0  1  0  0  0  0  0  0  0  0  0
  -25.2870  -31.4900   26.1930 C   0  0  0  0  0  1  0  0  0  0  0  0
  -26.9770  -30.3600   24.7480 C   0  0  0  0  0  1  0  0  0  0  0  0
  -27.5290  -32.5350   25.8040 C   0  0  0  0  0  1  0  0  0  0  0  0
  -26.8280  -24.6620   21.0490 C   0  0  0  0  0  2  0  0  0  0  0  0
  -24.6420  -25.0130   22.3400 C   0  0  0  0  0  1  0  0  0  0  0  0
  -26.1510  -25.2990   22.2860 C   0  0  0  0  0  2  0  0  0  0  0  0
  2  4  1  0
  2  1  1  0
  3  4  2  0
  4  5  1  0
  6  8  1  0
  7  3  1  0
  7  8  1  0
  7 11  1  0
  8  5  1  0
  9  5  2  0
 11 10  1  0
 12 11  1  0
 13 18  1  0
 14 15  1  0
 14 13  1  0
 16 15  1  0
 16 23  1  0
 16 17  1  0
 18 12  1  0
 18 17  1  0
 19 12  2  0
 20 21  2  0
 21 40  1  0
 22 21  1  0
 22 25  1  0
 23 20  1  0
 23 24  1  0
 24 22  2  0
 25 26  1  0
 26 27  2  0
 28 31  1  0
 28 27  1  0
 29 28  2  0
 30 29  1  0
 30 25  2  0
 31 32  1  0
 32 37  2  0
 32 33  1  0
 33 34  2  0
 34 35  1  0
 35 39  1  0
 36 35  2  0
 37 36  1  0
 38 37  1  0
 40 41  1  0
 41 44  1  0
 41 43  1  0
 42 40  2  0
 45 46  1  0
 45 20  1  0
 47 45  1  0
 48  1  2  0
 48 49  1  0
 49 91  1  0
 50 49  1  0
 51 62  2  0
 52 50  1  0
 52 57  1  0
 53 61  1  0
 53 63  1  0
 54 60  1  0
 54 56  1  0
 55 61  1  0
 56 57  2  0
 56 55  1  0
 58 59  1  0
 58 52  2  0
 59 54  2  0
 60 53  1  0
 61 51  1  0
 63 65  2  0
 64 63  1  0
 66 64  1  0
 67 76  2  0
 67 72  1  0
 68 64  1  0
 68 72  1  0
 69 68  1  0
 70 71  1  0
 70 69  1  0
 71 67  1  0
 72 73  2  0
 73 74  1  0
 75 74  2  0
 76 75  1  0
 77 51  1  0
 77 78  1  0
 77 87  1  0
 78 81  1  0
 79 83  1  0
 79 78  1  0
 80 79  2  0
 83 82  1  0
 85 83  1  0
 85 86  1  0
 85 84  1  0
 87 90  1  1
 87 88  1  0
 89 87  1  0
 91 93  1  0
 93 92  1  0
M  ISO  4  11 100  12 100  49 101  50 101
M  END
>  <TORSDO>  (81) 
F 23

>  <SCORE>  (81) 
-12.724

>  <name>  (81) 
80

>  <ligand_id>  (81) 
80

>  <original_smiles>  (81) 
[H]c1c([H])c([H])c2c(c1[H])C([H])([H])C([H])([H])C([H])([H])C2([H])N([H])C(=O)C1([H])N(C(=O)C([H])(N([H])C(=O)C([H])(N([H])C([H])([H])[H])C([H])([H])[H])C(C([H])([H])[H])(C([H])([H])[H])C([H])([H])[H])C([H])([H])c2c([H])c(ON(C([H])([H])C([H])([H])C([H])([H])[H])C([H])([H])C([H])([H])C([H])([H])c3c([H])n(C([H])(C(=O)N4C([H])([H])C([H])([H])C([H])([H])C([H])(n5nc(-c6c([H])c([H])c(Oc7c([H])c([H])c(F)c([H])c7F)c([H])c6[H])c(C(=O)N([H])[H])c5N([H])[H])C4([H])[H])C([H])([H])[H])n(C([H])([H])[H])c3=O)c([H])c([H])c2C1([H])[H]

>  <smiles>  (81) 
[H]c1c([H])c([H])c2c(c1[H])C([H])([H])C([H])([H])C([H])([H])C2([H])N([H])C(=O)C1([H])N(C(=O)C([H])(N([H])C(=O)C([H])(N([H])C([H])([H])[H])C([H])([H])[H])C(C([H])([H])[H])(C([H])([H])[H])C([H])([H])[H])C([H])([H])c2c([H])c(ON(C([H])([H])C([H])([H])C([H])([H])[H])C([H])([H])C([H])([H])C([H])([H])c3c([H])n(C([H])(C(=O)N4C([H])([H])C([H])([H])C([H])([H])C([H])(n5nc(-c6c([H])c([H])c(Oc7c([H])c([H])c(F)c([H])c7F)c([H])c6[H])c(C(=O)N([H])[H])c5N([H])[H])C4([H])[H])C([H])([H])[H])n(C([H])([H])[H])c3=O)c([H])c([H])c2C1([H])[H]

$$$$
81:0:0
     RDKit          3D

 93101  0  0  1  0  0  0  0  0999 V2000
  -30.0340  -19.9990   19.7830 C   0  0  0  0  0  3  0  0  0  0  0  0
  -29.9600  -21.2820   20.4250 C   0  0  0  0  0  0  0  0  0  0  0  0
  -30.6570  -18.8870   20.4470 C   0  0  0  0  0  0  0  0  0  0  0  0
  -31.0760  -20.3340   22.2110 C   0  0  0  0  0  0  0  0  0  0  0  0
  -30.4850  -21.4010   21.6530 N   0  0  0  0  0  0  0  0  0  0  0  0
  -31.1600  -19.1130   21.6700 N   0  0  0  0  0  0  0  0  0  0  0  0
  -31.6520  -20.5000   23.6300 C   0  0  1  0  0  0  0  0  0  0  0  0
  -31.8060  -21.7890   23.9560 F   0  0  0  0  0  0  0  0  0  0  0  0
  -30.8350  -19.9390   24.5250 F   0  0  0  0  0  0  0  0  0  0  0  0
  -32.8470  -19.9080   23.7240 F   0  0  0  0  0  0  0  0  0  0  0  0
  -29.0970  -22.5130   19.9390 C   0  0  0  0  0  2  0  0  0  0  0  0
  -29.4720  -24.0380   20.2920 C   0  0  0  0  0  3  0  0  0  0  0  0
  -28.3470  -25.1390   19.9800 C   0  0  0  0  0  3  0  0  0  0  0  0
  -28.5160  -26.6040   20.2340 O   0  0  0  0  0  0  0  0  0  0  0  0
  -24.6130  -31.9190   23.2240 C   0  0  0  0  0  0  0  0  0  0  0  0
  -27.3870  -27.4510   20.1470 C   0  0  0  0  0  0  0  0  0  0  0  0
  -23.4680  -30.4970   21.5620 C   0  0  0  0  0  3  0  0  0  0  0  0
  -24.9780  -29.0120   20.1300 C   0  0  0  0  0  0  0  0  0  0  0  0
  -26.0000  -30.8900   21.4070 C   0  0  0  0  0  2  0  0  0  0  0  0
  -26.1270  -29.5200   20.7470 C   0  0  0  0  0  0  0  0  0  0  0  0
  -27.3320  -28.7490   20.7520 C   0  0  0  0  0  3  0  0  0  0  0  0
  -26.2170  -27.0220   19.4770 C   0  0  0  0  0  3  0  0  0  0  0  0
  -25.0270  -27.7690   19.4840 C   0  0  0  0  0  3  0  0  0  0  0  0
  -23.7140  -29.8470   20.1770 C   0  0  0  0  0  2  0  0  0  0  0  0
  -24.7120  -31.1200   22.1210 N   0  0  0  0  0  0  0  0  0  0  0  0
  -23.5170  -32.1570   23.7510 O   0  0  0  0  0  0  0  0  0  0  0  0
  -22.8310  -29.4500   22.5080 C   0  0  0  0  0  0  0  0  0  0  0  0
  -21.5180  -29.2090   22.3490 N   0  0  0  0  0  0  0  0  0  0  0  0
  -23.5170  -28.8580   23.3440 O   0  0  0  0  0  0  0  0  0  0  0  0
  -21.0210  -29.7400   21.6480 H   0  0  0  0  0  0  0  0  0  0  0  0
  -18.1980  -27.8260   22.7420 C   0  0  0  0  0  0  0  0  0  0  0  0
  -20.7260  -28.2350   23.1020 C   0  0  0  0  0  3  0  0  0  0  0  0
  -20.9300  -26.8050   22.5520 C   0  0  0  0  0  2  0  0  0  0  0  0
  -19.8870  -26.4070   21.5020 C   0  0  0  0  0  2  0  0  0  0  0  0
  -18.4760  -26.4800   22.0920 C   0  0  0  0  0  2  0  0  0  0  0  0
  -19.2540  -28.6560   23.2020 C   0  0  0  0  0  0  0  0  0  0  0  0
  -18.9420  -29.9120   23.7670 C   0  0  0  0  0  3  0  0  0  0  0  0
  -17.6050  -30.3390   23.8770 C   0  0  0  0  0  3  0  0  0  0  0  0
  -16.5630  -29.5070   23.4330 C   0  0  0  0  0  3  0  0  0  0  0  0
  -16.8590  -28.2510   22.8720 C   0  0  0  0  0  3  0  0  0  0  0  0
  -25.8690  -32.5870   23.8610 C   0  0  0  0  0  3  0  0  0  0  0  0
  -25.5180  -33.9790   24.1790 N   0  0  0  0  0  0  0  0  0  0  0  0
  -25.8370  -35.0380   23.4230 C   0  0  0  0  0  0  0  0  0  0  0  0
  -26.5280  -34.9480   22.4040 O   0  0  0  0  0  0  0  0  0  0  0  0
  -24.9060  -34.1200   24.9690 H   0  0  0  0  0  0  0  0  0  0  0  0
  -24.0750  -36.7890   23.0290 C   0  0  0  0  0  1  0  0  0  0  0  0
  -25.3070  -36.4150   23.8670 C   0  0  0  0  0  3  0  0  0  0  0  0
  -27.4030  -37.3510   24.7410 C   0  0  0  0  0  1  0  0  0  0  0  0
  -26.3170  -37.4920   23.7740 N   0  0  0  0  0  0  0  0  0  0  0  0
  -25.8860  -38.4020   23.9110 H   0  0  0  0  0  0  0  0  0  0  0  0
  -26.3850  -31.8370   25.1490 C   0  0  1  0  0  0  0  0  0  0  0  0
  -25.2820  -31.5780   26.2020 C   0  0  0  0  0  1  0  0  0  0  0  0
  -27.0090  -30.4720   24.7760 C   0  0  0  0  0  1  0  0  0  0  0  0
  -27.5060  -32.6630   25.8230 C   0  0  0  0  0  1  0  0  0  0  0  0
  -30.8220  -17.4340   19.8160 C   0  0  0  0  0  2  0  0  0  0  0  0
  -31.2290  -14.9420   20.1220 C   0  0  0  0  0  0  0  0  0  0  0  0
  -30.9270  -12.6400   19.1910 C   0  0  0  0  0  2  0  0  0  0  0  0
  -29.9820  -12.6780   17.9700 C   0  0  0  0  0  2  0  0  0  0  0  0
  -28.5130  -12.5610   18.4170 C   0  0  0  0  0  2  0  0  0  0  0  0
  -28.1720  -13.5180   19.5890 C   0  0  0  0  0  3  0  0  0  0  0  0
  -29.2330  -13.4410   20.7050 C   0  0  0  0  0  2  0  0  0  0  0  0
  -30.5420  -13.7440   20.1040 N   0  0  0  0  0  0  0  0  0  0  0  0
  -32.3390  -15.0130   19.5840 O   0  0  0  0  0  0  0  0  0  0  0  0
  -30.3780  -16.1970   21.9960 C   0  0  0  0  0  1  0  0  0  0  0  0
  -30.5970  -16.1010   20.5460 N   0  0  0  0  0  0  0  0  0  0  0  0
  -25.8440  -14.2130   20.4200 C   0  0  0  0  0  0  0  0  0  0  0  0
  -24.7450  -13.4840   20.7830 C   0  0  0  0  0  0  0  0  0  0  0  0
  -25.1230  -12.1110   20.6670 C   0  0  0  0  0  0  0  0  0  0  0  0
  -26.8250  -13.2870   20.1040 N   0  0  0  0  0  0  0  0  0  0  0  0
  -26.3990  -12.0140   20.3130 N   0  0  0  0  0  0  0  0  0  0  0  0
  -24.3280  -10.8860   20.8160 C   0  0  0  0  0  0  0  0  0  0  0  0
  -24.7140   -9.8570   21.7030 C   0  0  0  0  0  3  0  0  0  0  0  0
  -23.9210   -8.6970   21.8420 C   0  0  0  0  0  3  0  0  0  0  0  0
  -22.7280   -8.5580   21.0930 C   0  0  0  0  0  0  0  0  0  0  0  0
  -22.3610   -9.5750   20.1950 C   0  0  0  0  0  3  0  0  0  0  0  0
  -23.1530  -10.7260   20.0530 C   0  0  0  0  0  3  0  0  0  0  0  0
  -21.9100   -7.4560   21.1440 O   0  0  0  0  0  0  0  0  0  0  0  0
  -21.7920   -6.6980   22.2820 C   0  0  0  0  0  0  0  0  0  0  0  0
  -21.3640   -7.2550   23.5070 C   0  0  0  0  0  3  0  0  0  0  0  0
  -21.1900   -6.4270   24.6340 C   0  0  0  0  0  3  0  0  0  0  0  0
  -21.4340   -5.0450   24.5370 C   0  0  0  0  0  0  0  0  0  0  0  0
  -21.8560   -4.4880   23.3170 C   0  0  0  0  0  3  0  0  0  0  0  0
  -22.0310   -5.3120   22.1920 C   0  0  0  0  0  0  0  0  0  0  0  0
  -22.4170   -4.7670   21.0130 F   0  0  0  0  0  0  0  0  0  0  0  0
  -21.2600   -4.2470   25.6170 F   0  0  0  0  0  0  0  0  0  0  0  0
  -23.3870  -14.0270   21.1260 C   0  0  0  0  0  0  0  0  0  0  0  0
  -22.6550  -13.3420   21.9970 N   0  0  0  0  0  0  0  0  0  0  0  0
  -22.9890  -15.0940   20.6590 O   0  0  0  0  0  0  0  0  0  0  0  0
  -22.9910  -12.4790   22.3970 H   0  0  0  0  0  0  0  0  0  0  0  0
  -21.7450  -13.6870   22.2690 H   0  0  0  0  0  0  0  0  0  0  0  0
  -26.0860  -15.5780   20.3120 N   0  0  0  0  0  0  0  0  0  0  0  0
  -25.3700  -16.2730   20.4940 H   0  0  0  0  0  0  0  0  0  0  0  0
  -26.9650  -15.9850   20.0160 H   0  0  0  0  0  0  0  0  0  0  0  0
  1  2  2  0
  1  3  1  0
  2  5  1  0
  3  6  2  0
  4  7  1  0
  5  4  2  0
  6  4  1  0
  7 10  1  6
  7  8  1  0
  7  9  1  0
 11 12  1  0
 11  2  1  0
 13 14  1  0
 13 12  2  0
 15 26  2  0
 16 14  1  0
 16 21  1  0
 17 25  1  0
 17 27  1  0
 18 24  1  0
 18 20  1  0
 19 25  1  0
 20 21  2  0
 20 19  1  0
 22 23  1  0
 22 16  2  0
 23 18  2  0
 24 17  1  0
 25 15  1  0
 27 29  2  0
 28 27  1  0
 30 28  1  0
 31 40  2  0
 31 36  1  0
 32 28  1  0
 32 36  1  0
 33 32  1  0
 34 35  1  0
 34 33  1  0
 35 31  1  0
 36 37  2  0
 37 38  1  0
 39 38  2  0
 40 39  1  0
 41 15  1  0
 41 42  1  0
 41 51  1  0
 42 45  1  0
 43 47  1  0
 43 42  1  0
 44 43  2  0
 47 46  1  0
 49 47  1  0
 49 50  1  0
 49 48  1  0
 51 54  1  1
 51 52  1  0
 53 51  1  0
 55  3  1  0
 55 65  1  0
 56 65  1  0
 57 62  1  0
 58 59  1  0
 58 57  1  0
 60 59  1  0
 60 69  1  0
 60 61  1  0
 62 56  1  0
 62 61  1  0
 63 56  2  0
 65 64  1  0
 66 67  2  0
 67 86  1  0
 68 67  1  0
 68 71  1  0
 69 70  1  0
 69 66  1  0
 70 68  2  0
 71 72  1  0
 72 73  2  0
 74 77  1  0
 74 73  1  0
 75 74  2  0
 76 75  1  0
 76 71  2  0
 77 78  1  0
 78 79  1  0
 79 80  2  0
 81 80  1  0
 81 85  1  0
 82 81  2  0
 83 78  2  0
 83 82  1  0
 84 83  1  0
 86 87  1  0
 87 90  1  0
 87 89  1  0
 88 86  2  0
 91 66  1  0
 91 92  1  0
 93 91  1  0
M  ISO  4  13 101  14 101  56 100  65 100
M  END
>  <TORSDO>  (82) 
F 21

>  <SCORE>  (82) 
-13.432

>  <name>  (82) 
81

>  <ligand_id>  (82) 
81

>  <original_smiles>  (82) 
[H]c1c(C([H])([H])N(C(=O)N2C([H])([H])C([H])([H])C([H])([H])C([H])(n3nc(-c4c([H])c([H])c(Oc5c([H])c([H])c(F)c([H])c5F)c([H])c4[H])c(C(=O)N([H])[H])c3N([H])[H])C2([H])[H])C([H])([H])[H])nc(C(F)(F)F)nc1C([H])([H])C([H])([H])C([H])([H])Oc1c([H])c([H])c2c(c1[H])C([H])([H])N(C(=O)C([H])(N([H])C(=O)C([H])(N([H])C([H])([H])[H])C([H])([H])[H])C(C([H])([H])[H])(C([H])([H])[H])C([H])([H])[H])C([H])(C(=O)N([H])C1([H])c3c([H])c([H])c([H])c([H])c3C([H])([H])C([H])([H])C1([H])[H])C2([H])[H]

>  <smiles>  (82) 
[H]c1c(C([H])([H])N(C(=O)N2C([H])([H])C([H])([H])C([H])([H])C([H])(n3nc(-c4c([H])c([H])c(Oc5c([H])c([H])c(F)c([H])c5F)c([H])c4[H])c(C(=O)N([H])[H])c3N([H])[H])C2([H])[H])C([H])([H])[H])nc(C(F)(F)F)nc1C([H])([H])C([H])([H])C([H])([H])Oc1c([H])c([H])c2c(c1[H])C([H])([H])N(C(=O)C([H])(N([H])C(=O)C([H])(N([H])C([H])([H])[H])C([H])([H])[H])C(C([H])([H])[H])(C([H])([H])[H])C([H])([H])[H])C([H])(C(=O)N([H])C1([H])c3c([H])c([H])c([H])c([H])c3C([H])([H])C([H])([H])C1([H])[H])C2([H])[H]

$$$$
82:0:0
     RDKit          3D

 90 98  0  0  1  0  0  0  0  0999 V2000
  -28.2400  -18.5460   20.4040 C   0  0  0  0  0  3  0  0  0  0  0  0
  -29.4580  -19.0380   19.9990 C   0  0  0  0  0  0  0  0  0  0  0  0
  -27.8640  -20.6940   20.0460 C   0  0  0  0  0  3  0  0  0  0  0  0
  -27.0130  -21.9140   19.8520 C   0  0  0  0  0  1  0  0  0  0  0  0
  -29.1880  -20.5090   19.8100 N   0  0  0  0  0  0  0  0  0  0  0  0
  -27.3360  -19.5490   20.4590 N   0  0  0  0  0  0  0  0  0  0  0  0
  -26.3680  -19.4310   20.7330 H   0  0  0  0  0  0  0  0  0  0  0  0
  -30.6540  -17.9180   19.8310 C   0  0  0  0  0  2  0  0  0  0  0  0
  -31.2480  -15.2010   20.0510 C   0  0  0  0  0  0  0  0  0  0  0  0
  -31.0640  -12.7870   19.2500 C   0  0  0  0  0  2  0  0  0  0  0  0
  -30.1210  -12.6730   18.0290 C   0  0  0  0  0  2  0  0  0  0  0  0
  -28.6590  -12.5130   18.4880 C   0  0  0  0  0  2  0  0  0  0  0  0
  -28.2830  -13.5210   19.6030 C   0  0  0  0  0  3  0  0  0  0  0  0
  -29.3450  -13.5760   20.7200 C   0  0  0  0  0  2  0  0  0  0  0  0
  -30.6220  -13.9450   20.0890 N   0  0  0  0  0  0  0  0  0  0  0  0
  -32.3830  -15.2280   19.5590 O   0  0  0  0  0  0  0  0  0  0  0  0
  -30.4660  -16.5040   21.9000 C   0  0  0  0  0  1  0  0  0  0  0  0
  -30.5840  -16.4220   20.4320 N   0  0  0  0  0  0  0  0  0  0  0  0
  -25.9760  -14.2100   20.4710 C   0  0  0  0  0  0  0  0  0  0  0  0
  -24.8750  -13.4860   20.8350 C   0  0  0  0  0  0  0  0  0  0  0  0
  -25.2420  -12.1120   20.7000 C   0  0  0  0  0  0  0  0  0  0  0  0
  -26.9450  -13.2800   20.1310 N   0  0  0  0  0  0  0  0  0  0  0  0
  -26.5140  -12.0080   20.3350 N   0  0  0  0  0  0  0  0  0  0  0  0
  -24.4360  -10.8920   20.8390 C   0  0  0  0  0  0  0  0  0  0  0  0
  -24.7920   -9.8670   21.7450 C   0  0  0  0  0  3  0  0  0  0  0  0
  -23.9880   -8.7140   21.8710 C   0  0  0  0  0  3  0  0  0  0  0  0
  -22.8140   -8.5760   21.0920 C   0  0  0  0  0  0  0  0  0  0  0  0
  -22.4780   -9.5880   20.1750 C   0  0  0  0  0  3  0  0  0  0  0  0
  -23.2810  -10.7330   20.0470 C   0  0  0  0  0  3  0  0  0  0  0  0
  -21.9840   -7.4810   21.1350 O   0  0  0  0  0  0  0  0  0  0  0  0
  -21.8200   -6.7450   22.2800 C   0  0  0  0  0  0  0  0  0  0  0  0
  -21.3190   -7.3200   23.4700 C   0  0  0  0  0  3  0  0  0  0  0  0
  -21.1020   -6.5130   24.6050 C   0  0  0  0  0  3  0  0  0  0  0  0
  -21.3730   -5.1320   24.5490 C   0  0  0  0  0  0  0  0  0  0  0  0
  -21.8670   -4.5570   23.3650 C   0  0  0  0  0  3  0  0  0  0  0  0
  -22.0860   -5.3620   22.2330 C   0  0  0  0  0  0  0  0  0  0  0  0
  -22.5420   -4.8000   21.0880 F   0  0  0  0  0  0  0  0  0  0  0  0
  -21.1560   -4.3540   25.6360 F   0  0  0  0  0  0  0  0  0  0  0  0
  -23.5250  -14.0380   21.1890 C   0  0  0  0  0  0  0  0  0  0  0  0
  -22.7860  -13.3480   22.0500 N   0  0  0  0  0  0  0  0  0  0  0  0
  -23.1400  -15.1160   20.7370 O   0  0  0  0  0  0  0  0  0  0  0  0
  -23.1120  -12.4740   22.4360 H   0  0  0  0  0  0  0  0  0  0  0  0
  -21.8810  -13.6980   22.3280 H   0  0  0  0  0  0  0  0  0  0  0  0
  -26.2280  -15.5750   20.3710 N   0  0  0  0  0  0  0  0  0  0  0  0
  -25.4780  -16.2490   20.4890 H   0  0  0  0  0  0  0  0  0  0  0  0
  -27.0350  -15.9550   19.8960 H   0  0  0  0  0  0  0  0  0  0  0  0
  -29.8970  -21.8580   19.2880 C   0  0  0  0  0  2  0  0  0  0  0  0
  -29.7160  -23.4580   19.9000 C   0  0  0  0  0  3  0  0  0  0  0  0
  -28.8110  -24.7860   19.3250 C   0  0  0  0  0  3  0  0  0  0  0  0
  -28.8600  -26.2890   19.7830 O   0  0  0  0  0  0  0  0  0  0  0  0
  -24.7030  -31.4610   23.0260 C   0  0  0  0  0  0  0  0  0  0  0  0
  -27.7350  -27.2020   19.7270 C   0  0  0  0  0  0  0  0  0  0  0  0
  -23.6700  -30.1240   21.2320 C   0  0  0  0  0  3  0  0  0  0  0  0
  -25.2820  -28.7850   19.7370 C   0  0  0  0  0  0  0  0  0  0  0  0
  -26.2030  -30.5830   21.1940 C   0  0  0  0  0  2  0  0  0  0  0  0
  -26.4020  -29.2570   20.4330 C   0  0  0  0  0  0  0  0  0  0  0  0
  -27.6240  -28.4810   20.4160 C   0  0  0  0  0  3  0  0  0  0  0  0
  -26.5840  -26.8440   18.9880 C   0  0  0  0  0  3  0  0  0  0  0  0
  -25.3880  -27.5960   19.0000 C   0  0  0  0  0  3  0  0  0  0  0  0
  -23.9890  -29.5860   19.8100 C   0  0  0  0  0  2  0  0  0  0  0  0
  -24.8750  -30.7410   21.8750 N   0  0  0  0  0  0  0  0  0  0  0  0
  -23.5810  -31.6210   23.5300 O   0  0  0  0  0  0  0  0  0  0  0  0
  -23.0390  -28.9920   22.0820 C   0  0  0  0  0  0  0  0  0  0  0  0
  -21.7260  -28.7520   21.9120 N   0  0  0  0  0  0  0  0  0  0  0  0
  -23.7360  -28.3340   22.8600 O   0  0  0  0  0  0  0  0  0  0  0  0
  -21.2190  -29.3400   21.2650 H   0  0  0  0  0  0  0  0  0  0  0  0
  -18.4160  -27.3140   22.2510 C   0  0  0  0  0  0  0  0  0  0  0  0
  -20.9530  -27.7000   22.5790 C   0  0  0  0  0  3  0  0  0  0  0  0
  -21.1450  -26.3360   21.8740 C   0  0  0  0  0  2  0  0  0  0  0  0
  -20.0730  -26.0480   20.8190 C   0  0  0  0  0  2  0  0  0  0  0  0
  -18.6780  -26.0490   21.4510 C   0  0  0  0  0  2  0  0  0  0  0  0
  -19.4840  -28.0960   22.7680 C   0  0  0  0  0  0  0  0  0  0  0  0
  -19.1830  -29.2770   23.4790 C   0  0  0  0  0  3  0  0  0  0  0  0
  -17.8480  -29.6810   23.6740 C   0  0  0  0  0  3  0  0  0  0  0  0
  -16.7970  -28.8970   23.1700 C   0  0  0  0  0  3  0  0  0  0  0  0
  -17.0810  -27.7140   22.4650 C   0  0  0  0  0  3  0  0  0  0  0  0
  -25.9050  -32.1380   23.7520 C   0  0  0  0  0  3  0  0  0  0  0  0
  -26.3640  -31.3590   25.0460 C   0  0  1  0  0  0  0  0  0  0  0  0
  -25.2140  -31.0600   26.0360 C   0  0  0  0  0  1  0  0  0  0  0  0
  -27.0240  -30.0100   24.6720 C   0  0  0  0  0  1  0  0  0  0  0  0
  -27.4400  -32.1810   25.7950 C   0  0  0  0  0  1  0  0  0  0  0  0
  -25.5050  -33.5130   24.0970 N   0  0  0  0  0  0  0  0  0  0  0  0
  -25.8400  -34.6050   23.3980 C   0  0  0  0  0  0  0  0  0  0  0  0
  -26.5850  -34.5650   22.4160 O   0  0  0  0  0  0  0  0  0  0  0  0
  -24.8560  -33.6150   24.8630 H   0  0  0  0  0  0  0  0  0  0  0  0
  -24.0520  -36.3300   22.9870 C   0  0  0  0  0  1  0  0  0  0  0  0
  -25.2600  -35.9570   23.8610 C   0  0  0  0  0  3  0  0  0  0  0  0
  -27.2900  -36.9260   24.8500 C   0  0  0  0  0  1  0  0  0  0  0  0
  -26.2460  -37.0610   23.8370 N   0  0  0  0  0  0  0  0  0  0  0  0
  -25.7860  -37.9570   23.9710 H   0  0  0  0  0  0  0  0  0  0  0  0
  1  6  1  0
  2  1  2  0
  3  4  1  0
  3  6  1  0
  5  2  1  0
  5  3  1  0
  6  7  1  0
  8  2  1  0
  8 18  1  0
  9 15  1  0
  9 18  1  0
 10 15  1  0
 11 12  1  0
 11 10  1  0
 13 12  1  0
 13 22  1  0
 13 14  1  0
 15 14  1  0
 16  9  2  0
 18 17  1  0
 19 20  2  0
 20 39  1  0
 21 20  1  0
 21 24  1  0
 22 23  1  0
 22 19  1  0
 23 21  2  0
 24 25  1  0
 25 26  2  0
 27 30  1  0
 27 26  1  0
 28 27  2  0
 29 28  1  0
 29 24  2  0
 30 31  1  0
 31 32  1  0
 32 33  2  0
 34 33  1  0
 34 38  1  0
 35 34  2  0
 36 31  2  0
 36 35  1  0
 37 36  1  0
 39 40  1  0
 40 43  1  0
 40 42  1  0
 41 39  2  0
 44 19  1  0
 44 45  1  0
 46 44  1  0
 47  5  1  0
 47 48  1  0
 49 50  1  0
 49 48  2  0
 51 62  2  0
 52 50  1  0
 52 57  1  0
 53 61  1  0
 53 63  1  0
 54 60  1  0
 54 56  1  0
 55 61  1  0
 56 55  1  0
 57 56  2  0
 58 59  1  0
 58 52  2  0
 59 54  2  0
 60 53  1  0
 61 51  1  0
 63 65  2  0
 64 63  1  0
 66 64  1  0
 67 76  2  0
 67 72  1  0
 68 64  1  0
 68 72  1  0
 69 68  1  0
 70 71  1  0
 70 69  1  0
 71 67  1  0
 72 73  2  0
 73 74  1  0
 75 74  2  0
 76 75  1  0
 77 51  1  0
 77 82  1  0
 77 78  1  0
 78 81  1  1
 78 79  1  0
 80 78  1  0
 82 85  1  0
 83 87  1  0
 83 82  1  0
 84 83  2  0
 87 86  1  0
 89 87  1  0
 89 90  1  0
 89 88  1  0
M  ISO  4   9 100  18 100  49 101  50 101
M  END
>  <TORSDO>  (83) 
F 20

>  <SCORE>  (83) 
-12.952

>  <name>  (83) 
82

>  <ligand_id>  (83) 
82

>  <original_smiles>  (83) 
[H]c1c([H])c([H])c2c(c1[H])C([H])([H])C([H])([H])C([H])([H])C2([H])N([H])C(=O)C1([H])N(C(=O)C([H])(N([H])C(=O)C([H])(N([H])C([H])([H])[H])C([H])([H])[H])C(C([H])([H])[H])(C([H])([H])[H])C([H])([H])[H])C([H])([H])c2c([H])c(OC([H])([H])C([H])([H])C([H])([H])n3c(C([H])([H])N(C(=O)N4C([H])([H])C([H])([H])C([H])([H])C([H])(n5nc(-c6c([H])c([H])c(Oc7c([H])c([H])c(F)c([H])c7F)c([H])c6[H])c(C(=O)N([H])[H])c5N([H])[H])C4([H])[H])C([H])([H])[H])c([H])[n+]([H])c3C([H])([H])[H])c([H])c([H])c2C1([H])[H]

>  <smiles>  (83) 
[H]c1c([H])c([H])c2c(c1[H])C([H])([H])C([H])([H])C([H])([H])C2([H])N([H])C(=O)C1([H])N(C(=O)C([H])(N([H])C(=O)C([H])(N([H])C([H])([H])[H])C([H])([H])[H])C(C([H])([H])[H])(C([H])([H])[H])C([H])([H])[H])C([H])([H])c2c([H])c(OC([H])([H])C([H])([H])C([H])([H])n3c(C([H])([H])N(C(=O)N4C([H])([H])C([H])([H])C([H])([H])C([H])(n5nc(-c6c([H])c([H])c(Oc7c([H])c([H])c(F)c([H])c7F)c([H])c6[H])c(C(=O)N([H])[H])c5N([H])[H])C4([H])[H])C([H])([H])[H])c([H])[n+]([H])c3C([H])([H])[H])c([H])c([H])c2C1([H])[H]

$$$$
83:0:0
     RDKit          3D

 92100  0  0  1  0  0  0  0  0999 V2000
  -29.4900  -20.8110   17.9250 C   0  0  0  0  0  3  0  0  0  0  0  0
  -29.7800  -19.5530   18.4900 C   0  0  0  0  0  0  0  0  0  0  0  0
  -29.8220  -19.4420   19.8950 C   0  0  0  0  0  0  0  0  0  0  0  0
  -29.1330  -21.8830   19.9520 C   0  0  0  0  0  0  0  0  0  0  0  0
  -29.1970  -21.9290   18.6290 N   0  0  0  0  0  0  0  0  0  0  0  0
  -29.4600  -20.6550   20.5920 N   0  0  0  0  0  0  0  0  0  0  0  0
  -30.0890  -18.3770   17.5690 C   0  0  1  0  0  0  0  0  0  0  0  0
  -29.9860  -18.7130   16.2840 F   0  0  0  0  0  0  0  0  0  0  0  0
  -31.3290  -17.9360   17.7750 F   0  0  0  0  0  0  0  0  0  0  0  0
  -29.2280  -17.3840   17.7950 F   0  0  0  0  0  0  0  0  0  0  0  0
  -30.4850  -18.0440   20.5500 C   0  0  0  0  0  2  0  0  0  0  0  0
  -30.7310  -15.2530   20.2700 C   0  0  0  0  0  0  0  0  0  0  0  0
  -30.6530  -12.8770   19.2870 C   0  0  0  0  0  2  0  0  0  0  0  0
  -29.7080  -12.7370   18.0670 C   0  0  0  0  0  2  0  0  0  0  0  0
  -28.2580  -12.4650   18.5130 C   0  0  0  0  0  2  0  0  0  0  0  0
  -27.8320  -13.3970   19.6700 C   0  0  0  0  0  3  0  0  0  0  0  0
  -28.9010  -13.4350   20.7880 C   0  0  0  0  0  2  0  0  0  0  0  0
  -30.1330  -13.9710   20.1750 N   0  0  0  0  0  0  0  0  0  0  0  0
  -31.9330  -15.2710   19.9760 O   0  0  0  0  0  0  0  0  0  0  0  0
  -28.6870  -16.5240   21.0890 C   0  0  0  0  0  1  0  0  0  0  0  0
  -30.0110  -16.5110   20.4720 N   0  0  0  0  0  0  0  0  0  0  0  0
  -25.4480  -13.9700   20.4230 C   0  0  0  0  0  0  0  0  0  0  0  0
  -24.3950  -13.1910   20.8090 C   0  0  0  0  0  0  0  0  0  0  0  0
  -24.8690  -11.8450   20.7750 C   0  0  0  0  0  0  0  0  0  0  0  0
  -26.4990  -13.0990   20.1800 N   0  0  0  0  0  0  0  0  0  0  0  0
  -26.1580  -11.8140   20.4580 N   0  0  0  0  0  0  0  0  0  0  0  0
  -24.1490  -10.5810   20.9640 C   0  0  0  0  0  0  0  0  0  0  0  0
  -24.5590   -9.6340   21.9270 C   0  0  0  0  0  3  0  0  0  0  0  0
  -23.8370   -8.4350   22.1030 C   0  0  0  0  0  3  0  0  0  0  0  0
  -22.6920   -8.1740   21.3150 C   0  0  0  0  0  0  0  0  0  0  0  0
  -22.3010   -9.1100   20.3400 C   0  0  0  0  0  3  0  0  0  0  0  0
  -23.0250  -10.3010   20.1620 C   0  0  0  0  0  3  0  0  0  0  0  0
  -21.9430   -7.0260   21.3990 O   0  0  0  0  0  0  0  0  0  0  0  0
  -21.8200   -6.3320   22.5760 C   0  0  0  0  0  0  0  0  0  0  0  0
  -21.2480   -6.9150   23.7270 C   0  0  0  0  0  3  0  0  0  0  0  0
  -21.0780   -6.1440   24.8960 C   0  0  0  0  0  3  0  0  0  0  0  0
  -21.4710   -4.7930   24.9110 C   0  0  0  0  0  0  0  0  0  0  0  0
  -22.0360   -4.2100   23.7640 C   0  0  0  0  0  3  0  0  0  0  0  0
  -22.2080   -4.9770   22.5980 C   0  0  0  0  0  0  0  0  0  0  0  0
  -22.7340   -4.4060   21.4880 F   0  0  0  0  0  0  0  0  0  0  0  0
  -21.3000   -4.0500   26.0300 F   0  0  0  0  0  0  0  0  0  0  0  0
  -22.9980  -13.6640   21.0850 C   0  0  0  0  0  0  0  0  0  0  0  0
  -22.2750  -12.9650   21.9520 N   0  0  0  0  0  0  0  0  0  0  0  0
  -22.5560  -14.6900   20.5700 O   0  0  0  0  0  0  0  0  0  0  0  0
  -22.6450  -12.1360   22.3920 H   0  0  0  0  0  0  0  0  0  0  0  0
  -21.3370  -13.2630   22.1810 H   0  0  0  0  0  0  0  0  0  0  0  0
  -25.5730  -15.3400   20.2270 N   0  0  0  0  0  0  0  0  0  0  0  0
  -24.7810  -15.9660   20.3290 H   0  0  0  0  0  0  0  0  0  0  0  0
  -26.3860  -15.7920   19.8310 H   0  0  0  0  0  0  0  0  0  0  0  0
  -28.3240  -23.2160   20.5710 C   0  0  0  0  0  2  0  0  0  0  0  0
  -28.7220  -24.8670   20.8650 C   0  0  0  0  0  2  0  0  0  0  0  0
  -28.5140  -26.2940   20.2140 O   0  0  0  0  0  0  0  0  0  0  0  0
  -24.6810  -31.9390   23.2400 C   0  0  0  0  0  0  0  0  0  0  0  0
  -27.3940  -27.2120   20.3080 C   0  0  0  0  0  0  0  0  0  0  0  0
  -23.5290  -30.5010   21.6030 C   0  0  0  0  0  3  0  0  0  0  0  0
  -25.0250  -28.9230   20.2260 C   0  0  0  0  0  0  0  0  0  0  0  0
  -26.0790  -30.8090   21.4630 C   0  0  0  0  0  2  0  0  0  0  0  0
  -26.1900  -29.4020   20.8380 C   0  0  0  0  0  0  0  0  0  0  0  0
  -27.3760  -28.5670   20.8510 C   0  0  0  0  0  3  0  0  0  0  0  0
  -26.1940  -26.8330   19.6710 C   0  0  0  0  0  3  0  0  0  0  0  0
  -25.0410  -27.6520   19.6270 C   0  0  0  0  0  3  0  0  0  0  0  0
  -23.7820  -29.8040   20.2380 C   0  0  0  0  0  2  0  0  0  0  0  0
  -24.7830  -31.1080   22.1570 N   0  0  0  0  0  0  0  0  0  0  0  0
  -23.5840  -32.2070   23.7540 O   0  0  0  0  0  0  0  0  0  0  0  0
  -22.8560  -29.4960   22.5710 C   0  0  0  0  0  0  0  0  0  0  0  0
  -21.5310  -29.3070   22.4390 N   0  0  0  0  0  0  0  0  0  0  0  0
  -23.5320  -28.8850   23.4050 O   0  0  0  0  0  0  0  0  0  0  0  0
  -21.0420  -29.8500   21.7420 H   0  0  0  0  0  0  0  0  0  0  0  0
  -18.1610  -28.0770   22.9530 C   0  0  0  0  0  0  0  0  0  0  0  0
  -20.7180  -28.3620   23.2120 C   0  0  0  0  0  3  0  0  0  0  0  0
  -20.8300  -26.9310   22.6360 C   0  0  0  0  0  2  0  0  0  0  0  0
  -19.7270  -26.6000   21.6240 C   0  0  0  0  0  2  0  0  0  0  0  0
  -18.3470  -26.7310   22.2740 C   0  0  0  0  0  2  0  0  0  0  0  0
  -19.2740  -28.8500   23.3790 C   0  0  0  0  0  0  0  0  0  0  0  0
  -19.0440  -30.1080   23.9770 C   0  0  0  0  0  3  0  0  0  0  0  0
  -17.7340  -30.5950   24.1520 C   0  0  0  0  0  3  0  0  0  0  0  0
  -16.6370  -29.8200   23.7400 C   0  0  0  0  0  3  0  0  0  0  0  0
  -16.8500  -28.5630   23.1470 C   0  0  0  0  0  3  0  0  0  0  0  0
  -25.9380  -32.6090   23.8760 C   0  0  0  0  0  3  0  0  0  0  0  0
  -26.4430  -31.8680   25.1770 C   0  0  1  0  0  0  0  0  0  0  0  0
  -25.3330  -31.6260   26.2260 C   0  0  0  0  0  1  0  0  0  0  0  0
  -27.0620  -30.4970   24.8240 C   0  0  0  0  0  1  0  0  0  0  0  0
  -27.5620  -32.6980   25.8490 C   0  0  0  0  0  1  0  0  0  0  0  0
  -25.5950  -34.0060   24.1850 N   0  0  0  0  0  0  0  0  0  0  0  0
  -25.9230  -35.0600   23.4250 C   0  0  0  0  0  0  0  0  0  0  0  0
  -26.6090  -34.9590   22.4060 O   0  0  0  0  0  0  0  0  0  0  0  0
  -24.9860  -34.1570   24.9750 H   0  0  0  0  0  0  0  0  0  0  0  0
  -24.1930  -36.8420   23.0110 C   0  0  0  0  0  1  0  0  0  0  0  0
  -25.4090  -36.4460   23.8650 C   0  0  0  0  0  3  0  0  0  0  0  0
  -27.4960  -37.3600   24.7800 C   0  0  0  0  0  1  0  0  0  0  0  0
  -26.4350  -37.5080   23.7880 N   0  0  0  0  0  0  0  0  0  0  0  0
  -26.0140  -38.4260   23.9080 H   0  0  0  0  0  0  0  0  0  0  0  0
  1  2  2  0
  1  5  1  0
  2  3  1  0
  3 11  1  0
  3  6  2  0
  4 50  1  0
  4  6  1  0
  5  4  2  0
  7  9  1  6
  7 10  1  0
  7  2  1  0
  8  7  1  0
 12 21  1  0
 13 18  1  0
 14 15  1  0
 14 13  1  0
 16 15  1  0
 16 25  1  0
 16 17  1  0
 18 12  1  0
 18 17  1  0
 19 12  2  0
 21 11  1  0
 21 20  1  0
 22 23  2  0
 23 42  1  0
 24 23  1  0
 24 27  1  0
 25 22  1  0
 25 26  1  0
 26 24  2  0
 27 28  1  0
 28 29  2  0
 30 33  1  0
 30 29  1  0
 31 30  2  0
 32 31  1  0
 32 27  2  0
 33 34  1  0
 34 39  2  0
 34 35  1  0
 35 36  2  0
 36 37  1  0
 37 41  1  0
 38 37  2  0
 39 38  1  0
 40 39  1  0
 42 43  1  0
 43 46  1  0
 43 45  1  0
 44 42  2  0
 47 48  1  0
 47 22  1  0
 49 47  1  0
 50 51  1  0
 52 54  1  0
 52 51  1  0
 53 64  2  0
 54 59  1  0
 55 63  1  0
 55 65  1  0
 56 62  1  0
 56 58  1  0
 57 63  1  0
 58 59  2  0
 58 57  1  0
 60 54  2  0
 61 60  1  0
 61 56  2  0
 62 55  1  0
 63 53  1  0
 65 67  2  0
 66 65  1  0
 68 66  1  0
 69 78  2  0
 69 74  1  0
 70 66  1  0
 70 74  1  0
 71 70  1  0
 72 73  1  0
 72 71  1  0
 73 69  1  0
 74 75  2  0
 75 76  1  0
 77 76  2  0
 78 77  1  0
 79 53  1  0
 79 84  1  0
 79 80  1  0
 80 83  1  1
 80 81  1  0
 82 80  1  0
 84 87  1  0
 85 89  1  0
 85 84  1  0
 86 85  2  0
 89 88  1  0
 91 89  1  0
 91 92  1  0
 91 90  1  0
M  ISO  4  12 100  21 100  51 101  52 101
M  END
>  <TORSDO>  (84) 
F 20

>  <SCORE>  (84) 
-14.397

>  <name>  (84) 
83

>  <ligand_id>  (84) 
83

>  <original_smiles>  (84) 
[H]c1nc(C([H])([H])C([H])([H])Oc2c([H])c([H])c3c(c2[H])C([H])([H])N(C(=O)C([H])(N([H])C(=O)C([H])(N([H])C([H])([H])[H])C([H])([H])[H])C(C([H])([H])[H])(C([H])([H])[H])C([H])([H])[H])C([H])(C(=O)N([H])C2([H])c4c([H])c([H])c([H])c([H])c4C([H])([H])C([H])([H])C2([H])[H])C3([H])[H])nc(C([H])([H])N(C(=O)N2C([H])([H])C([H])([H])C([H])([H])C([H])(n3nc(-c4c([H])c([H])c(Oc5c([H])c([H])c(F)c([H])c5F)c([H])c4[H])c(C(=O)N([H])[H])c3N([H])[H])C2([H])[H])C([H])([H])[H])c1C(F)(F)F

>  <smiles>  (84) 
[H]c1nc(C([H])([H])C([H])([H])Oc2c([H])c([H])c3c(c2[H])C([H])([H])N(C(=O)C([H])(N([H])C(=O)C([H])(N([H])C([H])([H])[H])C([H])([H])[H])C(C([H])([H])[H])(C([H])([H])[H])C([H])([H])[H])C([H])(C(=O)N([H])C2([H])c4c([H])c([H])c([H])c([H])c4C([H])([H])C([H])([H])C2([H])[H])C3([H])[H])nc(C([H])([H])N(C(=O)N2C([H])([H])C([H])([H])C([H])([H])C([H])(n3nc(-c4c([H])c([H])c(Oc5c([H])c([H])c(F)c([H])c5F)c([H])c4[H])c(C(=O)N([H])[H])c3N([H])[H])C2([H])[H])C([H])([H])[H])c1C(F)(F)F

$$$$
84:0:0
     RDKit          3D

 93101  0  0  1  0  0  0  0  0999 V2000
  -29.3760  -21.1630   20.7870 C   0  0  0  0  0  3  0  0  0  0  0  0
  -29.2490  -22.3400   20.0420 C   0  0  0  0  0  0  0  0  0  0  0  0
  -29.2430  -21.7690   18.7230 C   0  0  0  0  0  0  0  0  0  0  0  0
  -29.1440  -22.4970   17.4130 C   0  0  0  0  0  1  0  0  0  0  0  0
  -29.3520  -20.4240   18.6970 N   0  0  0  0  0  0  0  0  0  0  0  0
  -29.4640  -20.0040   19.9810 N   0  0  0  0  0  0  0  0  0  0  0  0
  -30.6700  -24.4120   20.2900 C   0  0  0  0  0  1  0  0  0  0  0  0
  -28.9590  -23.9090   22.0320 C   0  0  0  0  0  1  0  0  0  0  0  0
  -29.2430  -23.8800   20.5170 C   0  0  2  0  0  0  0  0  0  0  0  0
  -28.2300  -24.9630   19.8570 C   0  0  0  0  0  2  0  0  0  0  0  0
  -28.3740  -26.4240   20.2040 O   0  0  0  0  0  0  0  0  0  0  0  0
  -24.7090  -31.8950   23.2500 C   0  0  0  0  0  0  0  0  0  0  0  0
  -27.2660  -27.3020   20.1490 C   0  0  0  0  0  0  0  0  0  0  0  0
  -23.4800  -30.4990   21.6260 C   0  0  0  0  0  3  0  0  0  0  0  0
  -24.9080  -28.9480   20.1720 C   0  0  0  0  0  0  0  0  0  0  0  0
  -26.0200  -30.8060   21.4070 C   0  0  0  0  0  2  0  0  0  0  0  0
  -26.0880  -29.4260   20.7550 C   0  0  0  0  0  0  0  0  0  0  0  0
  -27.2670  -28.6140   20.7330 C   0  0  0  0  0  3  0  0  0  0  0  0
  -26.0640  -26.8960   19.5270 C   0  0  0  0  0  3  0  0  0  0  0  0
  -24.9010  -27.6920   19.5460 C   0  0  0  0  0  3  0  0  0  0  0  0
  -23.6730  -29.8260   20.2410 C   0  0  0  0  0  2  0  0  0  0  0  0
  -24.7570  -31.0850   22.1500 N   0  0  0  0  0  0  0  0  0  0  0  0
  -23.6330  -32.1720   23.8000 O   0  0  0  0  0  0  0  0  0  0  0  0
  -22.8300  -29.4830   22.5960 C   0  0  0  0  0  0  0  0  0  0  0  0
  -21.5200  -29.2360   22.4280 N   0  0  0  0  0  0  0  0  0  0  0  0
  -23.5070  -28.9170   23.4590 O   0  0  0  0  0  0  0  0  0  0  0  0
  -21.0310  -29.7460   21.7070 H   0  0  0  0  0  0  0  0  0  0  0  0
  -18.2050  -27.8300   22.7960 C   0  0  0  0  0  0  0  0  0  0  0  0
  -20.7190  -28.2840   23.2010 C   0  0  0  0  0  3  0  0  0  0  0  0
  -20.9530  -26.8350   22.7130 C   0  0  0  0  0  2  0  0  0  0  0  0
  -19.9400  -26.3840   21.6540 C   0  0  0  0  0  2  0  0  0  0  0  0
  -18.5140  -26.4640   22.2070 C   0  0  0  0  0  2  0  0  0  0  0  0
  -19.2420  -28.6910   23.2480 C   0  0  0  0  0  0  0  0  0  0  0  0
  -18.9010  -29.9630   23.7570 C   0  0  0  0  0  3  0  0  0  0  0  0
  -17.5570  -30.3770   23.8190 C   0  0  0  0  0  3  0  0  0  0  0  0
  -16.5350  -29.5150   23.3830 C   0  0  0  0  0  3  0  0  0  0  0  0
  -16.8600  -28.2440   22.8780 C   0  0  0  0  0  3  0  0  0  0  0  0
  -26.0000  -32.5270   23.8530 C   0  0  0  0  0  3  0  0  0  0  0  0
  -25.6890  -33.9200   24.2070 N   0  0  0  0  0  0  0  0  0  0  0  0
  -25.9940  -34.9850   23.4520 C   0  0  0  0  0  0  0  0  0  0  0  0
  -26.6350  -34.8970   22.4010 O   0  0  0  0  0  0  0  0  0  0  0  0
  -25.1170  -34.0610   25.0260 H   0  0  0  0  0  0  0  0  0  0  0  0
  -24.2490  -36.7740   23.1650 C   0  0  0  0  0  1  0  0  0  0  0  0
  -25.5120  -36.3660   23.9390 C   0  0  0  0  0  3  0  0  0  0  0  0
  -27.6610  -37.2530   24.7310 C   0  0  0  0  0  1  0  0  0  0  0  0
  -26.5370  -37.4250   23.8140 N   0  0  0  0  0  0  0  0  0  0  0  0
  -26.1300  -38.3410   23.9790 H   0  0  0  0  0  0  0  0  0  0  0  0
  -26.5440  -31.7460   25.1120 C   0  0  1  0  0  0  0  0  0  0  0  0
  -25.4650  -31.4620   26.1830 C   0  0  0  0  0  1  0  0  0  0  0  0
  -27.1600  -30.3910   24.6920 C   0  0  0  0  0  1  0  0  0  0  0  0
  -27.6790  -32.5570   25.7810 C   0  0  0  0  0  1  0  0  0  0  0  0
  -29.4190  -18.5250   20.3730 C   0  0  0  0  0  3  0  0  0  0  0  0
  -30.2110  -17.3330   19.5930 C   0  0  0  0  0  3  0  0  0  0  0  0
  -30.6580  -14.7880   19.3390 C   0  0  0  0  0  0  0  0  0  0  0  0
  -30.1950  -12.6290   18.1390 C   0  0  0  0  0  2  0  0  0  0  0  0
  -29.0580  -12.8180   17.1090 C   0  0  0  0  0  2  0  0  0  0  0  0
  -27.6790  -12.6210   17.7690 C   0  0  0  0  0  2  0  0  0  0  0  0
  -27.5530  -13.3970   19.1060 C   0  0  0  0  0  3  0  0  0  0  0  0
  -28.7810  -13.1610   20.0060 C   0  0  0  0  0  2  0  0  0  0  0  0
  -29.9740  -13.5860   19.2550 N   0  0  0  0  0  0  0  0  0  0  0  0
  -31.6550  -14.9530   18.6270 O   0  0  0  0  0  0  0  0  0  0  0  0
  -30.1440  -15.8610   20.0840 N   0  0  0  0  0  0  0  0  0  0  0  0
  -25.3440  -13.9580   20.2890 C   0  0  0  0  0  0  0  0  0  0  0  0
  -24.3390  -13.1700   20.7790 C   0  0  0  0  0  0  0  0  0  0  0  0
  -24.7520  -11.8200   20.5580 C   0  0  0  0  0  0  0  0  0  0  0  0
  -26.3050  -13.0870   19.7990 N   0  0  0  0  0  0  0  0  0  0  0  0
  -25.9650  -11.7910   20.0200 N   0  0  0  0  0  0  0  0  0  0  0  0
  -24.0360  -10.5560   20.7740 C   0  0  0  0  0  0  0  0  0  0  0  0
  -24.5390   -9.5590   21.6400 C   0  0  0  0  0  3  0  0  0  0  0  0
  -23.8230   -8.3610   21.8450 C   0  0  0  0  0  3  0  0  0  0  0  0
  -22.5890   -8.1490   21.1850 C   0  0  0  0  0  0  0  0  0  0  0  0
  -22.1040   -9.1340   20.3070 C   0  0  0  0  0  3  0  0  0  0  0  0
  -22.8200  -10.3240   20.0990 C   0  0  0  0  0  3  0  0  0  0  0  0
  -21.8370   -7.0050   21.3030 O   0  0  0  0  0  0  0  0  0  0  0  0
  -21.7990   -6.2860   22.4710 C   0  0  0  0  0  0  0  0  0  0  0  0
  -21.3990   -6.8700   23.6920 C   0  0  0  0  0  3  0  0  0  0  0  0
  -21.3060   -6.0780   24.8540 C   0  0  0  0  0  3  0  0  0  0  0  0
  -21.6050   -4.7030   24.7960 C   0  0  0  0  0  0  0  0  0  0  0  0
  -22.0000   -4.1190   23.5800 C   0  0  0  0  0  3  0  0  0  0  0  0
  -22.0930   -4.9080   22.4200 C   0  0  0  0  0  0  0  0  0  0  0  0
  -22.4530   -4.3370   21.2450 F   0  0  0  0  0  0  0  0  0  0  0  0
  -21.5100   -3.9410   25.9100 F   0  0  0  0  0  0  0  0  0  0  0  0
  -23.0270  -13.6410   21.3340 C   0  0  0  0  0  0  0  0  0  0  0  0
  -22.4710  -12.9120   22.2950 N   0  0  0  0  0  0  0  0  0  0  0  0
  -22.5090  -14.6890   20.9490 O   0  0  0  0  0  0  0  0  0  0  0  0
  -22.9060  -12.0640   22.6260 H   0  0  0  0  0  0  0  0  0  0  0  0
  -21.5980  -13.2090   22.7090 H   0  0  0  0  0  0  0  0  0  0  0  0
  -25.5130  -15.3360   20.1960 N   0  0  0  0  0  0  0  0  0  0  0  0
  -24.8000  -15.9900   20.5000 H   0  0  0  0  0  0  0  0  0  0  0  0
  -26.3110  -15.7900   19.7720 H   0  0  0  0  0  0  0  0  0  0  0  0
  -31.4270  -16.4870   22.1790 C   0  0  0  0  0  1  0  0  0  0  0  0
  -28.9210  -15.8370   22.3140 C   0  0  0  0  0  1  0  0  0  0  0  0
  -30.2590  -15.6930   21.5600 C   0  0  0  0  0  3  0  0  0  0  0  0
  2  9  1  0
  2  1  2  0
  3  2  1  0
  4  3  1  0
  5  3  2  0
  5  6  1  0
  6 52  1  0
  6  1  1  0
  9  7  1  1
  9  8  1  0
 10 11  1  0
 10  9  1  0
 12 23  2  0
 13 11  1  0
 13 18  1  0
 14 22  1  0
 14 24  1  0
 15 21  1  0
 15 17  1  0
 16 22  1  0
 17 16  1  0
 18 17  2  0
 19 20  1  0
 19 13  2  0
 20 15  2  0
 21 14  1  0
 22 12  1  0
 24 26  2  0
 25 24  1  0
 27 25  1  0
 28 37  2  0
 28 33  1  0
 29 25  1  0
 29 33  1  0
 30 29  1  0
 31 32  1  0
 31 30  1  0
 32 28  1  0
 33 34  2  0
 34 35  1  0
 36 35  2  0
 37 36  1  0
 38 12  1  0
 38 39  1  0
 38 48  1  0
 39 42  1  0
 40 44  1  0
 40 39  1  0
 41 40  2  0
 44 43  1  0
 46 44  1  0
 46 47  1  0
 46 45  1  0
 48 51  1  1
 48 49  1  0
 50 48  1  0
 53 62  1  0
 53 52  2  0
 54 62  1  0
 55 60  1  0
 56 57  1  0
 56 55  1  0
 58 57  1  0
 58 66  1  0
 58 59  1  0
 60 54  1  0
 60 59  1  0
 61 54  2  0
 62 93  1  0
 63 64  2  0
 64 83  1  0
 65 68  1  0
 65 64  1  0
 66 67  1  0
 66 63  1  0
 67 65  2  0
 68 69  1  0
 69 70  2  0
 71 74  1  0
 71 70  1  0
 72 71  2  0
 73 72  1  0
 73 68  2  0
 74 75  1  0
 75 76  1  0
 76 77  2  0
 78 77  1  0
 78 82  1  0
 79 78  2  0
 80 75  2  0
 80 79  1  0
 81 80  1  0
 83 84  1  0
 84 86  1  0
 84 87  1  0
 85 83  2  0
 88 63  1  0
 88 89  1  0
 90 88  1  0
 93 91  1  0
 93 92  1  0
M  ISO  4  10 101  11 101  54 100  62 100
M  END
>  <TORSDO>  (85) 
F 21

>  <SCORE>  (85) 
-9.446

>  <name>  (85) 
84

>  <ligand_id>  (85) 
84

>  <original_smiles>  (85) 
[H]c1c([H])c([H])c2c(c1[H])C([H])([H])C([H])([H])C([H])([H])C2([H])N([H])C(=O)C1([H])N(C(=O)C([H])(N([H])C(=O)C([H])(N([H])C([H])([H])[H])C([H])([H])[H])C(C([H])([H])[H])(C([H])([H])[H])C([H])([H])[H])C([H])([H])c2c([H])c(OC([H])([H])C(c3c(C([H])([H])[H])nn(C([H])([H])C([H])([H])N(C(=O)N4C([H])([H])C([H])([H])C([H])([H])C([H])(n5nc(-c6c([H])c([H])c(Oc7c([H])c([H])c(F)c([H])c7F)c([H])c6[H])c(C(=O)N([H])[H])c5N([H])[H])C4([H])[H])C([H])(C([H])([H])[H])C([H])([H])[H])c3[H])(C([H])([H])[H])C([H])([H])[H])c([H])c([H])c2C1([H])[H]

>  <smiles>  (85) 
[H]c1c([H])c([H])c2c(c1[H])C([H])([H])C([H])([H])C([H])([H])C2([H])N([H])C(=O)C1([H])N(C(=O)C([H])(N([H])C(=O)C([H])(N([H])C([H])([H])[H])C([H])([H])[H])C(C([H])([H])[H])(C([H])([H])[H])C([H])([H])[H])C([H])([H])c2c([H])c(OC([H])([H])C(c3c(C([H])([H])[H])nn(C([H])([H])C([H])([H])N(C(=O)N4C([H])([H])C([H])([H])C([H])([H])C([H])(n5nc(-c6c([H])c([H])c(Oc7c([H])c([H])c(F)c([H])c7F)c([H])c6[H])c(C(=O)N([H])[H])c5N([H])[H])C4([H])[H])C([H])(C([H])([H])[H])C([H])([H])[H])c3[H])(C([H])([H])[H])C([H])([H])[H])c([H])c([H])c2C1([H])[H]

$$$$
85:0:0
     RDKit          3D

 95103  0  0  1  0  0  0  0  0999 V2000
  -29.3650  -21.2430   19.3550 C   0  0  0  0  0  0  0  0  0  0  0  0
  -29.3860  -20.2590   18.3240 C   0  0  0  0  0  0  0  0  0  0  0  0
  -29.5160  -20.6560   20.6550 C   0  0  0  0  0  0  0  0  0  0  0  0
  -29.5650  -18.4620   19.7970 C   0  0  0  0  0  0  0  0  0  0  0  0
  -29.5000  -18.9240   18.5550 N   0  0  0  0  0  0  0  0  0  0  0  0
  -29.5840  -19.2930   20.8380 N   0  0  0  0  0  0  0  0  0  0  0  0
  -29.5690  -21.4820   21.9480 C   0  0  1  0  0  0  0  0  0  0  0  0
  -30.5050  -22.4290   21.8590 F   0  0  0  0  0  0  0  0  0  0  0  0
  -28.3850  -22.0430   22.1920 F   0  0  0  0  0  0  0  0  0  0  0  0
  -29.8760  -20.7190   23.0020 F   0  0  0  0  0  0  0  0  0  0  0  0
  -30.5990  -20.8700   16.1620 C   0  0  0  0  0  1  0  0  0  0  0  0
  -29.2480  -20.6010   16.8430 C   0  0  0  0  0  2  0  0  0  0  0  0
  -29.1160  -22.7760   18.9630 C   0  0  0  0  0  2  0  0  0  0  0  0
  -29.0760  -24.0680   19.9140 C   0  0  0  0  0  3  0  0  0  0  0  0
  -28.7850  -25.4640   19.1740 C   0  0  0  0  0  3  0  0  0  0  0  0
  -28.6270  -26.7360   19.9280 O   0  0  0  0  0  0  0  0  0  0  0  0
  -24.6940  -31.8320   23.2210 C   0  0  0  0  0  0  0  0  0  0  0  0
  -27.4460  -27.5030   19.9300 C   0  0  0  0  0  0  0  0  0  0  0  0
  -23.5240  -30.4520   21.5410 C   0  0  0  0  0  3  0  0  0  0  0  0
  -25.0130  -29.0170   20.0380 C   0  0  0  0  0  0  0  0  0  0  0  0
  -26.0470  -30.8760   21.3410 C   0  0  0  0  0  2  0  0  0  0  0  0
  -26.1700  -29.5290   20.6370 C   0  0  0  0  0  0  0  0  0  0  0  0
  -27.3860  -28.7810   20.5750 C   0  0  0  0  0  3  0  0  0  0  0  0
  -26.2510  -27.0360   19.3370 C   0  0  0  0  0  3  0  0  0  0  0  0
  -25.0550  -27.7780   19.3840 C   0  0  0  0  0  3  0  0  0  0  0  0
  -23.7440  -29.8370   20.1360 C   0  0  0  0  0  2  0  0  0  0  0  0
  -24.7740  -31.0720   22.0910 N   0  0  0  0  0  0  0  0  0  0  0  0
  -23.6080  -32.0460   23.7790 O   0  0  0  0  0  0  0  0  0  0  0  0
  -22.9140  -29.3760   22.4710 C   0  0  0  0  0  0  0  0  0  0  0  0
  -21.6010  -29.1260   22.3290 N   0  0  0  0  0  0  0  0  0  0  0  0
  -23.6220  -28.7670   23.2780 O   0  0  0  0  0  0  0  0  0  0  0  0
  -21.0850  -29.6730   21.6530 H   0  0  0  0  0  0  0  0  0  0  0  0
  -18.3030  -27.6920   22.7350 C   0  0  0  0  0  0  0  0  0  0  0  0
  -20.8330  -28.1210   23.0660 C   0  0  0  0  0  3  0  0  0  0  0  0
  -21.0440  -26.7090   22.4720 C   0  0  0  0  0  2  0  0  0  0  0  0
  -19.9900  -26.3280   21.4280 C   0  0  0  0  0  2  0  0  0  0  0  0
  -18.5870  -26.3690   22.0420 C   0  0  0  0  0  2  0  0  0  0  0  0
  -19.3590  -28.5210   23.2020 C   0  0  0  0  0  0  0  0  0  0  0  0
  -19.0440  -29.7570   23.8090 C   0  0  0  0  0  3  0  0  0  0  0  0
  -17.7060  -30.1670   23.9510 C   0  0  0  0  0  3  0  0  0  0  0  0
  -16.6640  -29.3350   23.5040 C   0  0  0  0  0  3  0  0  0  0  0  0
  -16.9630  -28.0990   22.9020 C   0  0  0  0  0  3  0  0  0  0  0  0
  -25.9600  -32.4910   23.8550 C   0  0  0  0  0  3  0  0  0  0  0  0
  -25.6160  -33.8790   24.1960 N   0  0  0  0  0  0  0  0  0  0  0  0
  -25.9120  -34.9460   23.4420 C   0  0  0  0  0  0  0  0  0  0  0  0
  -26.5770  -34.8680   22.4050 O   0  0  0  0  0  0  0  0  0  0  0  0
  -25.0270  -34.0120   25.0060 H   0  0  0  0  0  0  0  0  0  0  0  0
  -24.1270  -36.6890   23.1240 C   0  0  0  0  0  1  0  0  0  0  0  0
  -25.3910  -36.3170   23.9140 C   0  0  0  0  0  3  0  0  0  0  0  0
  -27.5110  -37.2610   24.7180 C   0  0  0  0  0  1  0  0  0  0  0  0
  -26.3900  -37.4020   23.7920 N   0  0  0  0  0  0  0  0  0  0  0  0
  -25.9570  -38.3070   23.9580 H   0  0  0  0  0  0  0  0  0  0  0  0
  -26.4890  -31.7220   25.1280 C   0  0  1  0  0  0  0  0  0  0  0  0
  -25.3960  -31.4520   26.1890 C   0  0  0  0  0  1  0  0  0  0  0  0
  -27.1070  -30.3630   24.7310 C   0  0  0  0  0  1  0  0  0  0  0  0
  -27.6200  -32.5380   25.7980 C   0  0  0  0  0  1  0  0  0  0  0  0
  -29.2400  -16.9360   20.0160 C   0  0  0  0  0  2  0  0  0  0  0  0
  -30.7810  -14.9260   20.1440 C   0  0  0  0  0  0  0  0  0  0  0  0
  -30.5050  -12.7200   19.0270 C   0  0  0  0  0  2  0  0  0  0  0  0
  -29.5030  -12.8510   17.8610 C   0  0  0  0  0  2  0  0  0  0  0  0
  -28.0580  -12.6580   18.3600 C   0  0  0  0  0  2  0  0  0  0  0  0
  -27.7470  -13.4940   19.6300 C   0  0  0  0  0  3  0  0  0  0  0  0
  -28.8620  -13.3520   20.6900 C   0  0  0  0  0  2  0  0  0  0  0  0
  -30.1310  -13.7200   20.0480 N   0  0  0  0  0  0  0  0  0  0  0  0
  -31.9060  -15.0790   19.6610 O   0  0  0  0  0  0  0  0  0  0  0  0
  -30.7240  -16.4960   21.9870 C   0  0  0  0  0  1  0  0  0  0  0  0
  -30.1400  -15.9770   20.7500 N   0  0  0  0  0  0  0  0  0  0  0  0
  -25.3860  -14.0380   20.4830 C   0  0  0  0  0  0  0  0  0  0  0  0
  -24.3480  -13.2410   20.8800 C   0  0  0  0  0  0  0  0  0  0  0  0
  -24.8260  -11.8950   20.7890 C   0  0  0  0  0  0  0  0  0  0  0  0
  -26.4290  -13.1790   20.1740 N   0  0  0  0  0  0  0  0  0  0  0  0
  -26.1000  -11.8840   20.4180 N   0  0  0  0  0  0  0  0  0  0  0  0
  -24.1240  -10.6200   20.9740 C   0  0  0  0  0  0  0  0  0  0  0  0
  -24.5700   -9.6630   21.9120 C   0  0  0  0  0  3  0  0  0  0  0  0
  -23.8670   -8.4510   22.0880 C   0  0  0  0  0  3  0  0  0  0  0  0
  -22.7040   -8.1890   21.3250 C   0  0  0  0  0  0  0  0  0  0  0  0
  -22.2780   -9.1350   20.3760 C   0  0  0  0  0  3  0  0  0  0  0  0
  -22.9820  -10.3370   20.1990 C   0  0  0  0  0  3  0  0  0  0  0  0
  -21.9730   -7.0280   21.4090 O   0  0  0  0  0  0  0  0  0  0  0  0
  -21.8670   -6.3290   22.5840 C   0  0  0  0  0  0  0  0  0  0  0  0
  -21.3290   -6.9100   23.7530 C   0  0  0  0  0  3  0  0  0  0  0  0
  -21.1750   -6.1340   24.9190 C   0  0  0  0  0  3  0  0  0  0  0  0
  -21.5490   -4.7760   24.9160 C   0  0  0  0  0  0  0  0  0  0  0  0
  -22.0800   -4.1940   23.7520 C   0  0  0  0  0  3  0  0  0  0  0  0
  -22.2360   -4.9690   22.5890 C   0  0  0  0  0  0  0  0  0  0  0  0
  -22.7290   -4.3970   21.4630 F   0  0  0  0  0  0  0  0  0  0  0  0
  -21.3930   -4.0290   26.0340 F   0  0  0  0  0  0  0  0  0  0  0  0
  -22.9600  -13.6920   21.2300 C   0  0  0  0  0  0  0  0  0  0  0  0
  -22.2860  -12.9680   22.1160 N   0  0  0  0  0  0  0  0  0  0  0  0
  -22.4840  -14.7210   20.7540 O   0  0  0  0  0  0  0  0  0  0  0  0
  -22.6840  -12.1360   22.5250 H   0  0  0  0  0  0  0  0  0  0  0  0
  -21.3560  -13.2510   22.3910 H   0  0  0  0  0  0  0  0  0  0  0  0
  -25.5210  -15.4150   20.3330 N   0  0  0  0  0  0  0  0  0  0  0  0
  -24.7440  -16.0470   20.4920 H   0  0  0  0  0  0  0  0  0  0  0  0
  -26.3260  -15.8720   19.9310 H   0  0  0  0  0  0  0  0  0  0  0  0
  1  3  1  0
  2  5  1  0
  2  1  2  0
  3  6  2  0
  3  7  1  0
  4 57  1  0
  4  6  1  0
  5  4  2  0
  7  9  1  1
  7 10  1  0
  8  7  1  0
 11 12  1  0
 12  2  1  0
 13  1  1  0
 13 14  1  0
 15 14  2  0
 15 16  1  0
 16 18  1  0
 17 28  2  0
 18 23  1  0
 19 27  1  0
 19 29  1  0
 20 26  1  0
 20 22  1  0
 21 27  1  0
 22 21  1  0
 23 22  2  0
 24 25  1  0
 24 18  2  0
 25 20  2  0
 26 19  1  0
 27 17  1  0
 29 31  2  0
 30 29  1  0
 32 30  1  0
 33 42  2  0
 33 38  1  0
 34 30  1  0
 34 38  1  0
 35 34  1  0
 36 37  1  0
 36 35  1  0
 37 33  1  0
 38 39  2  0
 39 40  1  0
 41 40  2  0
 42 41  1  0
 43 17  1  0
 43 44  1  0
 43 53  1  0
 44 47  1  0
 45 49  1  0
 45 44  1  0
 46 45  2  0
 49 48  1  0
 51 49  1  0
 51 52  1  0
 51 50  1  0
 53 56  1  1
 53 54  1  0
 55 53  1  0
 57 67  1  0
 58 67  1  0
 59 64  1  0
 60 61  1  0
 60 59  1  0
 62 61  1  0
 62 71  1  0
 62 63  1  0
 64 58  1  0
 64 63  1  0
 65 58  2  0
 67 66  1  0
 68 69  2  0
 69 88  1  0
 70 69  1  0
 70 73  1  0
 71 72  1  0
 71 68  1  0
 72 70  2  0
 73 74  1  0
 74 75  2  0
 76 79  1  0
 76 75  1  0
 77 76  2  0
 78 77  1  0
 78 73  2  0
 79 80  1  0
 80 85  2  0
 80 81  1  0
 81 82  2  0
 83 82  1  0
 83 87  1  0
 84 83  2  0
 85 84  1  0
 86 85  1  0
 88 89  1  0
 89 92  1  0
 89 91  1  0
 90 88  2  0
 93 68  1  0
 93 94  1  0
 95 93  1  0
M  ISO  4  15 101  16 101  58 100  67 100
M  END
>  <TORSDO>  (86) 
F 22

>  <SCORE>  (86) 
-13.323

>  <name>  (86) 
85

>  <ligand_id>  (86) 
85

>  <original_smiles>  (86) 
[H]c1c([H])c([H])c2c(c1[H])C([H])([H])C([H])([H])C([H])([H])C2([H])N([H])C(=O)C1([H])N(C(=O)C([H])(N([H])C(=O)C([H])(N([H])C([H])([H])[H])C([H])([H])[H])C(C([H])([H])[H])(C([H])([H])[H])C([H])([H])[H])C([H])([H])c2c([H])c(OC([H])([H])C([H])([H])C([H])([H])c3c(C(F)(F)F)nc(C([H])([H])N(C(=O)N4C([H])([H])C([H])([H])C([H])([H])C([H])(n5nc(-c6c([H])c([H])c(Oc7c([H])c([H])c(F)c([H])c7F)c([H])c6[H])c(C(=O)N([H])[H])c5N([H])[H])C4([H])[H])C([H])([H])[H])nc3C([H])([H])C([H])([H])[H])c([H])c([H])c2C1([H])[H]

>  <smiles>  (86) 
[H]c1c([H])c([H])c2c(c1[H])C([H])([H])C([H])([H])C([H])([H])C2([H])N([H])C(=O)C1([H])N(C(=O)C([H])(N([H])C(=O)C([H])(N([H])C([H])([H])[H])C([H])([H])[H])C(C([H])([H])[H])(C([H])([H])[H])C([H])([H])[H])C([H])([H])c2c([H])c(OC([H])([H])C([H])([H])C([H])([H])c3c(C(F)(F)F)nc(C([H])([H])N(C(=O)N4C([H])([H])C([H])([H])C([H])([H])C([H])(n5nc(-c6c([H])c([H])c(Oc7c([H])c([H])c(F)c([H])c7F)c([H])c6[H])c(C(=O)N([H])[H])c5N([H])[H])C4([H])[H])C([H])([H])[H])nc3C([H])([H])C([H])([H])[H])c([H])c([H])c2C1([H])[H]

$$$$
86:0:0
     RDKit          3D

 91 99  0  0  1  0  0  0  0  0999 V2000
  -29.8550  -23.1910   20.2190 C   0  0  0  0  0  3  0  0  0  0  0  0
  -29.4170  -21.8880   19.7330 C   0  0  0  0  0  0  0  0  0  0  0  0
  -28.7840  -24.0900   20.1950 C   0  0  0  0  0  0  0  0  0  0  0  0
  -28.1520  -22.0180   19.3530 N   0  0  0  0  0  0  0  0  0  0  0  0
  -27.7550  -23.3060   19.6500 N   0  0  0  0  0  0  0  0  0  0  0  0
  -25.4580  -22.5340   18.8920 C   0  0  0  0  0  1  0  0  0  0  0  0
  -26.3580  -23.6810   19.4020 C   0  0  0  0  0  2  0  0  0  0  0  0
  -30.2110  -20.5110   19.5860 C   0  0  0  0  0  2  0  0  0  0  0  0
  -29.2550  -19.1360   21.4520 C   0  0  0  0  0  1  0  0  0  0  0  0
  -29.6120  -19.1530   20.0140 N   0  0  2  0  0  4  0  0  0  0  0  0
  -28.7340  -19.1260   19.5190 H   0  0  0  0  0  0  0  0  0  0  0  0
  -30.4050  -17.8800   19.6140 C   0  0  0  0  0  3  0  0  0  0  0  0
  -29.9850  -16.4210   20.2120 C   0  0  0  0  0  3  0  0  0  0  0  0
  -30.7920  -15.0880   19.8090 C   0  0  0  0  0  0  0  0  0  0  0  0
  -30.6260  -12.7310   18.9590 C   0  0  0  0  0  2  0  0  0  0  0  0
  -29.6300  -12.7000   17.7760 C   0  0  0  0  0  2  0  0  0  0  0  0
  -28.1800  -12.5360   18.2820 C   0  0  0  0  0  2  0  0  0  0  0  0
  -27.8470  -13.4920   19.4590 C   0  0  0  0  0  3  0  0  0  0  0  0
  -28.9610  -13.4910   20.5270 C   0  0  0  0  0  2  0  0  0  0  0  0
  -30.2230  -13.8330   19.8630 N   0  0  0  0  0  0  0  0  0  0  0  0
  -31.9260  -15.2100   19.3350 O   0  0  0  0  0  0  0  0  0  0  0  0
  -25.5350  -14.0990   20.3950 C   0  0  0  0  0  0  0  0  0  0  0  0
  -24.4860  -13.3280   20.8170 C   0  0  0  0  0  0  0  0  0  0  0  0
  -24.9170  -11.9720   20.6960 C   0  0  0  0  0  0  0  0  0  0  0  0
  -26.5380  -13.2100   20.0390 N   0  0  0  0  0  0  0  0  0  0  0  0
  -26.1780  -11.9230   20.2830 N   0  0  0  0  0  0  0  0  0  0  0  0
  -24.1800  -10.7160   20.8930 C   0  0  0  0  0  0  0  0  0  0  0  0
  -24.5950   -9.7560   21.8400 C   0  0  0  0  0  3  0  0  0  0  0  0
  -23.8580   -8.5650   22.0200 C   0  0  0  0  0  3  0  0  0  0  0  0
  -22.6920   -8.3300   21.2530 C   0  0  0  0  0  0  0  0  0  0  0  0
  -22.2980   -9.2780   20.2940 C   0  0  0  0  0  3  0  0  0  0  0  0
  -23.0360  -10.4600   20.1120 C   0  0  0  0  0  3  0  0  0  0  0  0
  -21.9270   -7.1920   21.3440 O   0  0  0  0  0  0  0  0  0  0  0  0
  -21.7860   -6.5090   22.5260 C   0  0  0  0  0  0  0  0  0  0  0  0
  -21.2330   -7.1160   23.6730 C   0  0  0  0  0  3  0  0  0  0  0  0
  -21.0420   -6.3600   24.8460 C   0  0  0  0  0  3  0  0  0  0  0  0
  -21.3960   -4.9970   24.8720 C   0  0  0  0  0  0  0  0  0  0  0  0
  -21.9420   -4.3910   23.7270 C   0  0  0  0  0  3  0  0  0  0  0  0
  -22.1340   -5.1450   22.5570 C   0  0  0  0  0  0  0  0  0  0  0  0
  -22.6410   -4.5500   21.4510 F   0  0  0  0  0  0  0  0  0  0  0  0
  -21.2050   -4.2680   25.9960 F   0  0  0  0  0  0  0  0  0  0  0  0
  -23.1250  -13.8210   21.2150 C   0  0  0  0  0  0  0  0  0  0  0  0
  -22.4490  -13.1040   22.1070 N   0  0  0  0  0  0  0  0  0  0  0  0
  -22.6720  -14.8750   20.7710 O   0  0  0  0  0  0  0  0  0  0  0  0
  -22.8250  -12.2470   22.4830 H   0  0  0  0  0  0  0  0  0  0  0  0
  -21.5400  -13.4200   22.4170 H   0  0  0  0  0  0  0  0  0  0  0  0
  -25.7120  -15.4710   20.2600 N   0  0  0  0  0  0  0  0  0  0  0  0
  -24.9570  -16.1230   20.4440 H   0  0  0  0  0  0  0  0  0  0  0  0
  -26.5210  -15.9110   19.8430 H   0  0  0  0  0  0  0  0  0  0  0  0
  -28.5630  -25.5140   20.8710 C   0  0  0  0  0  2  0  0  0  0  0  0
  -28.5880  -26.7680   20.0660 O   0  0  0  0  0  0  0  0  0  0  0  0
  -24.5200  -31.8990   23.2730 C   0  0  0  0  0  0  0  0  0  0  0  0
  -27.4540  -27.6020   20.1060 C   0  0  0  0  0  0  0  0  0  0  0  0
  -23.4370  -30.5120   21.5430 C   0  0  0  0  0  3  0  0  0  0  0  0
  -25.0110  -29.1030   20.0930 C   0  0  0  0  0  0  0  0  0  0  0  0
  -25.9630  -30.9700   21.4460 C   0  0  0  0  0  2  0  0  0  0  0  0
  -26.1390  -29.6240   20.7420 C   0  0  0  0  0  0  0  0  0  0  0  0
  -27.3700  -28.8900   20.7340 C   0  0  0  0  0  3  0  0  0  0  0  0
  -26.3030  -27.1350   19.4440 C   0  0  0  0  0  3  0  0  0  0  0  0
  -25.0960  -27.8650   19.4330 C   0  0  0  0  0  3  0  0  0  0  0  0
  -23.7240  -29.9080   20.1420 C   0  0  0  0  0  2  0  0  0  0  0  0
  -24.6560  -31.1470   22.1420 N   0  0  0  0  0  0  0  0  0  0  0  0
  -23.4090  -32.0930   23.7890 O   0  0  0  0  0  0  0  0  0  0  0  0
  -22.8070  -29.4180   22.4390 C   0  0  0  0  0  0  0  0  0  0  0  0
  -21.4940  -29.1900   22.2840 N   0  0  0  0  0  0  0  0  0  0  0  0
  -23.5040  -28.7790   23.2320 O   0  0  0  0  0  0  0  0  0  0  0  0
  -20.9900  -29.7660   21.6230 H   0  0  0  0  0  0  0  0  0  0  0  0
  -18.1530  -27.8660   22.7230 C   0  0  0  0  0  0  0  0  0  0  0  0
  -20.7060  -28.1770   22.9910 C   0  0  0  0  0  3  0  0  0  0  0  0
  -20.8420  -26.7940   22.3140 C   0  0  0  0  0  2  0  0  0  0  0  0
  -19.7390  -26.5110   21.2890 C   0  0  0  0  0  2  0  0  0  0  0  0
  -18.3600  -26.5720   21.9490 C   0  0  0  0  0  2  0  0  0  0  0  0
  -19.2560  -28.6280   23.1950 C   0  0  0  0  0  0  0  0  0  0  0  0
  -19.0090  -29.8400   23.8760 C   0  0  0  0  0  3  0  0  0  0  0  0
  -17.6930  -30.2920   24.0900 C   0  0  0  0  0  3  0  0  0  0  0  0
  -16.6060  -29.5260   23.6340 C   0  0  0  0  0  3  0  0  0  0  0  0
  -16.8370  -28.3140   22.9580 C   0  0  0  0  0  3  0  0  0  0  0  0
  -25.7500  -32.5720   23.9560 C   0  0  0  0  0  3  0  0  0  0  0  0
  -25.3860  -33.9650   24.2520 N   0  0  0  0  0  0  0  0  0  0  0  0
  -25.7020  -35.0170   23.4830 C   0  0  0  0  0  0  0  0  0  0  0  0
  -26.4020  -34.9180   22.4700 O   0  0  0  0  0  0  0  0  0  0  0  0
  -24.7640  -34.1130   25.0330 H   0  0  0  0  0  0  0  0  0  0  0  0
  -23.9160  -36.7400   23.0670 C   0  0  0  0  0  1  0  0  0  0  0  0
  -25.1580  -36.3940   23.9030 C   0  0  0  0  0  3  0  0  0  0  0  0
  -27.2390  -37.3740   24.7610 C   0  0  0  0  0  1  0  0  0  0  0  0
  -26.1530  -37.4810   23.7910 N   0  0  0  0  0  0  0  0  0  0  0  0
  -25.7090  -38.3870   23.9150 H   0  0  0  0  0  0  0  0  0  0  0  0
  -26.2130  -31.8340   25.2740 C   0  0  1  0  0  0  0  0  0  0  0  0
  -25.0620  -31.5660   26.2690 C   0  0  0  0  0  1  0  0  0  0  0  0
  -26.8740  -30.4770   24.9390 C   0  0  0  0  0  1  0  0  0  0  0  0
  -27.2880  -32.6810   25.9960 C   0  0  0  0  0  1  0  0  0  0  0  0
  2  1  1  0
  3  1  2  0
  3 50  1  0
  4  5  1  0
  4  2  2  0
  5  3  1  0
  6  7  1  0
  7  5  1  0
  8  2  1  0
  8 10  1  0
 10  9  1  0
 10 11  1  6
 12 10  1  0
 12 13  2  0
 14 20  1  0
 14 13  1  0
 15 20  1  0
 16 17  1  0
 16 15  1  0
 18 17  1  0
 18 25  1  0
 18 19  1  0
 20 19  1  0
 21 14  2  0
 22 23  2  0
 23 42  1  0
 24 23  1  0
 24 27  1  0
 25 26  1  0
 25 22  1  0
 26 24  2  0
 27 28  1  0
 28 29  2  0
 30 33  1  0
 30 29  1  0
 31 30  2  0
 32 31  1  0
 32 27  2  0
 33 34  1  0
 34 39  2  0
 34 35  1  0
 35 36  2  0
 36 37  1  0
 37 41  1  0
 38 37  2  0
 39 38  1  0
 40 39  1  0
 42 43  1  0
 43 46  1  0
 43 45  1  0
 44 42  2  0
 47 22  1  0
 47 48  1  0
 49 47  1  0
 51 53  1  0
 51 50  1  0
 52 63  2  0
 53 58  1  0
 54 62  1  0
 54 64  1  0
 55 61  1  0
 55 57  1  0
 56 62  1  0
 57 56  1  0
 58 57  2  0
 59 53  2  0
 60 59  1  0
 60 55  2  0
 61 54  1  0
 62 52  1  0
 64 66  2  0
 65 64  1  0
 67 65  1  0
 68 77  2  0
 68 73  1  0
 69 65  1  0
 69 73  1  0
 70 69  1  0
 71 72  1  0
 71 70  1  0
 72 68  1  0
 73 74  2  0
 74 75  1  0
 76 75  2  0
 77 76  1  0
 78 52  1  0
 78 79  1  0
 78 88  1  0
 79 82  1  0
 80 84  1  0
 80 79  1  0
 81 80  2  0
 84 83  1  0
 86 84  1  0
 86 87  1  0
 86 85  1  0
 88 91  1  1
 88 89  1  0
 90 88  1  0
M  ISO  4  13 100  14 100  50 101  51 101
M  END
>  <TORSDO>  (87) 
F 22

>  <SCORE>  (87) 
-12.080

>  <name>  (87) 
86

>  <ligand_id>  (87) 
86

>  <original_smiles>  (87) 
[H]c1c([H])c([H])c2c(c1[H])C([H])([H])C([H])([H])C([H])([H])C2([H])N([H])C(=O)C1([H])N(C(=O)C([H])(N([H])C(=O)C([H])(N([H])C([H])([H])[H])C([H])([H])[H])C(C([H])([H])[H])(C([H])([H])[H])C([H])([H])[H])C([H])([H])c2c([H])c(OC([H])([H])c3c([H])c(C([H])([H])[N+]([H])(C([H])([H])[H])C([H])([H])C([H])([H])C(=O)N4C([H])([H])C([H])([H])C([H])([H])C([H])(n5nc(-c6c([H])c([H])c(Oc7c([H])c([H])c(F)c([H])c7F)c([H])c6[H])c(C(=O)N([H])[H])c5N([H])[H])C4([H])[H])nn3C([H])([H])C([H])([H])[H])c([H])c([H])c2C1([H])[H]

>  <smiles>  (87) 
[H]c1c([H])c([H])c2c(c1[H])C([H])([H])C([H])([H])C([H])([H])C2([H])N([H])C(=O)C1([H])N(C(=O)C([H])(N([H])C(=O)C([H])(N([H])C([H])([H])[H])C([H])([H])[H])C(C([H])([H])[H])(C([H])([H])[H])C([H])([H])[H])C([H])([H])c2c([H])c(OC([H])([H])c3c([H])c(C([H])([H])[N+]([H])(C([H])([H])[H])C([H])([H])C([H])([H])C(=O)N4C([H])([H])C([H])([H])C([H])([H])C([H])(n5nc(-c6c([H])c([H])c(Oc7c([H])c([H])c(F)c([H])c7F)c([H])c6[H])c(C(=O)N([H])[H])c5N([H])[H])C4([H])[H])nn3C([H])([H])C([H])([H])[H])c([H])c([H])c2C1([H])[H]

$$$$
87:0:0
     RDKit          3D

 90 98  0  0  1  0  0  0  0  0999 V2000
  -27.8360  -22.3660   22.2100 C   0  0  0  0  0  1  0  0  0  0  0  0
  -28.4910  -22.3060   20.8100 C   0  0  0  0  0  3  0  0  0  0  0  0
  -30.6620  -20.8830   20.9160 C   0  0  0  0  0  3  0  0  0  0  0  0
  -28.8650  -19.7100   20.6660 C   0  0  0  0  0  0  0  0  0  0  0  0
  -31.0780  -19.6490   20.9670 N   0  0  0  0  0  0  0  0  0  0  0  0
  -29.2980  -21.0020   20.7190 N   0  0  0  0  0  0  0  0  0  0  0  0
  -29.9500  -18.8920   20.8150 N   0  0  0  0  0  0  0  0  0  0  0  0
  -27.6920  -19.3400   20.5750 O   0  0  0  0  0  0  0  0  0  0  0  0
  -30.0080  -17.3960   21.1500 C   0  0  0  0  0  2  0  0  0  0  0  0
  -29.2430  -16.4530   18.8560 C   0  0  0  0  0  1  0  0  0  0  0  0
  -30.2800  -16.3340   19.9840 C   0  0  0  0  0  3  0  0  0  0  0  0
  -30.9170  -14.8570   20.2110 C   0  0  0  0  0  0  0  0  0  0  0  0
  -30.6430  -12.5620   19.2840 C   0  0  0  0  0  2  0  0  0  0  0  0
  -29.7220  -12.6090   18.0450 C   0  0  0  0  0  2  0  0  0  0  0  0
  -28.2470  -12.4590   18.4660 C   0  0  0  0  0  2  0  0  0  0  0  0
  -27.8640  -13.3670   19.6620 C   0  0  0  0  0  3  0  0  0  0  0  0
  -28.9250  -13.3600   20.7830 C   0  0  0  0  0  2  0  0  0  0  0  0
  -30.2300  -13.6620   20.1850 N   0  0  0  0  0  0  0  0  0  0  0  0
  -32.1410  -14.8130   20.0690 O   0  0  0  0  0  0  0  0  0  0  0  0
  -25.4870  -13.9880   20.3800 C   0  0  0  0  0  0  0  0  0  0  0  0
  -24.4150  -13.2260   20.7480 C   0  0  0  0  0  0  0  0  0  0  0  0
  -24.8730  -11.8720   20.7400 C   0  0  0  0  0  0  0  0  0  0  0  0
  -26.5250  -13.0970   20.1630 N   0  0  0  0  0  0  0  0  0  0  0  0
  -26.1640  -11.8210   20.4470 N   0  0  0  0  0  0  0  0  0  0  0  0
  -24.1420  -10.6170   20.9370 C   0  0  0  0  0  0  0  0  0  0  0  0
  -24.5520   -9.6700   21.9000 C   0  0  0  0  0  3  0  0  0  0  0  0
  -23.8220   -8.4770   22.0840 C   0  0  0  0  0  3  0  0  0  0  0  0
  -22.6680   -8.2250   21.3040 C   0  0  0  0  0  0  0  0  0  0  0  0
  -22.2790   -9.1600   20.3290 C   0  0  0  0  0  3  0  0  0  0  0  0
  -23.0100  -10.3440   20.1440 C   0  0  0  0  0  3  0  0  0  0  0  0
  -21.9100   -7.0830   21.3980 O   0  0  0  0  0  0  0  0  0  0  0  0
  -21.8140   -6.3790   22.5710 C   0  0  0  0  0  0  0  0  0  0  0  0
  -21.3450   -6.9740   23.7630 C   0  0  0  0  0  3  0  0  0  0  0  0
  -21.1970   -6.1950   24.9280 C   0  0  0  0  0  3  0  0  0  0  0  0
  -21.5080   -4.8230   24.9020 C   0  0  0  0  0  0  0  0  0  0  0  0
  -21.9690   -4.2270   23.7150 C   0  0  0  0  0  3  0  0  0  0  0  0
  -22.1200   -5.0030   22.5530 C   0  0  0  0  0  0  0  0  0  0  0  0
  -22.5470   -4.4200   21.4060 F   0  0  0  0  0  0  0  0  0  0  0  0
  -21.3580   -4.0720   26.0190 F   0  0  0  0  0  0  0  0  0  0  0  0
  -23.0170  -13.7130   20.9970 C   0  0  0  0  0  0  0  0  0  0  0  0
  -22.2770  -13.0350   21.8670 N   0  0  0  0  0  0  0  0  0  0  0  0
  -22.5900  -14.7310   20.4540 O   0  0  0  0  0  0  0  0  0  0  0  0
  -22.6350  -12.2100   22.3270 H   0  0  0  0  0  0  0  0  0  0  0  0
  -21.3410  -13.3460   22.0810 H   0  0  0  0  0  0  0  0  0  0  0  0
  -25.6600  -15.3560   20.1890 N   0  0  0  0  0  0  0  0  0  0  0  0
  -24.8990  -16.0180   20.2990 H   0  0  0  0  0  0  0  0  0  0  0  0
  -26.5230  -15.7890   19.8920 H   0  0  0  0  0  0  0  0  0  0  0  0
  -29.1220  -23.7610   20.4680 C   0  0  0  0  0  3  0  0  0  0  0  0
  -28.0820  -24.9620   20.1640 C   0  0  0  0  0  3  0  0  0  0  0  0
  -28.3950  -26.4310   20.2040 O   0  0  0  0  0  0  0  0  0  0  0  0
  -24.6550  -31.8650   23.2260 C   0  0  0  0  0  0  0  0  0  0  0  0
  -27.2980  -27.3230   20.1410 C   0  0  0  0  0  0  0  0  0  0  0  0
  -23.4620  -30.4660   21.5810 C   0  0  0  0  0  3  0  0  0  0  0  0
  -24.9260  -28.9480   20.1360 C   0  0  0  0  0  0  0  0  0  0  0  0
  -26.0020  -30.8070   21.3950 C   0  0  0  0  0  2  0  0  0  0  0  0
  -26.0960  -29.4310   20.7370 C   0  0  0  0  0  0  0  0  0  0  0  0
  -27.2850  -28.6320   20.7290 C   0  0  0  0  0  3  0  0  0  0  0  0
  -26.1020  -26.9140   19.5020 C   0  0  0  0  0  3  0  0  0  0  0  0
  -24.9340  -27.6960   19.5080 C   0  0  0  0  0  3  0  0  0  0  0  0
  -23.6820  -29.8110   20.1930 C   0  0  0  0  0  2  0  0  0  0  0  0
  -24.7260  -31.0630   22.1250 N   0  0  0  0  0  0  0  0  0  0  0  0
  -23.5690  -32.1270   23.7650 O   0  0  0  0  0  0  0  0  0  0  0  0
  -22.8150  -29.4330   22.5340 C   0  0  0  0  0  0  0  0  0  0  0  0
  -21.4910  -29.2360   22.4060 N   0  0  0  0  0  0  0  0  0  0  0  0
  -23.5010  -28.8110   23.3490 O   0  0  0  0  0  0  0  0  0  0  0  0
  -20.9950  -29.7900   21.7220 H   0  0  0  0  0  0  0  0  0  0  0  0
  -18.1310  -27.9870   22.8950 C   0  0  0  0  0  0  0  0  0  0  0  0
  -20.6840  -28.2850   23.1720 C   0  0  0  0  0  3  0  0  0  0  0  0
  -20.8100  -26.8560   22.5940 C   0  0  0  0  0  2  0  0  0  0  0  0
  -19.7160  -26.5190   21.5770 C   0  0  0  0  0  2  0  0  0  0  0  0
  -18.3310  -26.6410   22.2170 C   0  0  0  0  0  2  0  0  0  0  0  0
  -19.2360  -28.7650   23.3290 C   0  0  0  0  0  0  0  0  0  0  0  0
  -18.9940  -30.0220   23.9240 C   0  0  0  0  0  3  0  0  0  0  0  0
  -17.6810  -30.5020   24.0870 C   0  0  0  0  0  3  0  0  0  0  0  0
  -16.5910  -29.7200   23.6690 C   0  0  0  0  0  3  0  0  0  0  0  0
  -16.8160  -28.4650   23.0770 C   0  0  0  0  0  3  0  0  0  0  0  0
  -25.9310  -32.5090   23.8490 C   0  0  0  0  0  3  0  0  0  0  0  0
  -25.6090  -33.9020   24.1850 N   0  0  0  0  0  0  0  0  0  0  0  0
  -25.9310  -34.9610   23.4300 C   0  0  0  0  0  0  0  0  0  0  0  0
  -26.6020  -34.8690   22.3970 O   0  0  0  0  0  0  0  0  0  0  0  0
  -25.0150  -34.0480   24.9880 H   0  0  0  0  0  0  0  0  0  0  0  0
  -24.1910  -36.7430   23.0770 C   0  0  0  0  0  1  0  0  0  0  0  0
  -25.4320  -36.3430   23.8920 C   0  0  0  0  0  3  0  0  0  0  0  0
  -27.5550  -37.2400   24.7370 C   0  0  0  0  0  1  0  0  0  0  0  0
  -26.4570  -37.4040   23.7880 N   0  0  0  0  0  0  0  0  0  0  0  0
  -26.0440  -38.3210   23.9380 H   0  0  0  0  0  0  0  0  0  0  0  0
  -26.4560  -31.7380   25.1220 C   0  0  1  0  0  0  0  0  0  0  0  0
  -25.3640  -31.4850   26.1890 C   0  0  0  0  0  1  0  0  0  0  0  0
  -27.0510  -30.3670   24.7250 C   0  0  0  0  0  1  0  0  0  0  0  0
  -27.6010  -32.5370   25.7840 C   0  0  0  0  0  1  0  0  0  0  0  0
  2  1  1  0
  3  5  2  0
  4  6  1  0
  4  7  1  0
  6  2  1  0
  6  3  1  0
  7  5  1  0
  7  9  1  0
  8  4  2  0
 11 10  1  0
 11 12  1  0
 11  9  1  0
 13 18  1  0
 14 15  1  0
 14 13  1  0
 16 15  1  0
 16 23  1  0
 16 17  1  0
 18 12  1  0
 18 17  1  0
 19 12  2  0
 20 21  2  0
 21 40  1  0
 22 21  1  0
 22 25  1  0
 23 20  1  0
 23 24  1  0
 24 22  2  0
 25 26  1  0
 26 27  2  0
 28 31  1  0
 28 27  1  0
 29 28  2  0
 30 29  1  0
 30 25  2  0
 31 32  1  0
 32 33  1  0
 33 34  2  0
 35 34  1  0
 35 39  1  0
 36 35  2  0
 37 32  2  0
 37 36  1  0
 38 37  1  0
 40 41  1  0
 41 44  1  0
 41 43  1  0
 42 40  2  0
 45 46  1  0
 45 20  1  0
 47 45  1  0
 48  2  1  0
 49 50  1  0
 49 48  2  0
 51 62  2  0
 52 50  1  0
 52 57  1  0
 53 61  1  0
 53 63  1  0
 54 60  1  0
 54 56  1  0
 55 61  1  0
 56 55  1  0
 57 56  2  0
 58 59  1  0
 58 52  2  0
 59 54  2  0
 60 53  1  0
 61 51  1  0
 63 65  2  0
 64 63  1  0
 66 64  1  0
 67 76  2  0
 67 72  1  0
 68 64  1  0
 68 72  1  0
 69 68  1  0
 70 71  1  0
 70 69  1  0
 71 67  1  0
 72 73  2  0
 73 74  1  0
 75 74  2  0
 76 75  1  0
 77 51  1  0
 77 78  1  0
 77 87  1  0
 78 81  1  0
 79 83  1  0
 79 78  1  0
 80 79  2  0
 83 82  1  0
 85 83  1  0
 85 86  1  0
 85 84  1  0
 87 90  1  1
 87 88  1  0
 89 87  1  0
M  ISO  4  11 100  12 100  49 101  50 101
M  END
>  <TORSDO>  (88) 
F 21

>  <SCORE>  (88) 
-13.018

>  <name>  (88) 
87

>  <ligand_id>  (88) 
87

>  <original_smiles>  (88) 
[H]c1c([H])c([H])c2c(c1[H])C([H])([H])C([H])([H])C([H])([H])C2([H])N([H])C(=O)C1([H])N(C(=O)C([H])(N([H])C(=O)C([H])(N([H])C([H])([H])[H])C([H])([H])[H])C(C([H])([H])[H])(C([H])([H])[H])C([H])([H])[H])C([H])([H])c2c([H])c(OC([H])([H])C([H])([H])C([H])(n3c([H])nn(C([H])([H])C([H])(C(=O)N4C([H])([H])C([H])([H])C([H])([H])C([H])(n5nc(-c6c([H])c([H])c(Oc7c([H])c([H])c(F)c([H])c7F)c([H])c6[H])c(C(=O)N([H])[H])c5N([H])[H])C4([H])[H])C([H])([H])[H])c3=O)C([H])([H])[H])c([H])c([H])c2C1([H])[H]

>  <smiles>  (88) 
[H]c1c([H])c([H])c2c(c1[H])C([H])([H])C([H])([H])C([H])([H])C2([H])N([H])C(=O)C1([H])N(C(=O)C([H])(N([H])C(=O)C([H])(N([H])C([H])([H])[H])C([H])([H])[H])C(C([H])([H])[H])(C([H])([H])[H])C([H])([H])[H])C([H])([H])c2c([H])c(OC([H])([H])C([H])([H])C([H])(n3c([H])nn(C([H])([H])C([H])(C(=O)N4C([H])([H])C([H])([H])C([H])([H])C([H])(n5nc(-c6c([H])c([H])c(Oc7c([H])c([H])c(F)c([H])c7F)c([H])c6[H])c(C(=O)N([H])[H])c5N([H])[H])C4([H])[H])C([H])([H])[H])c3=O)C([H])([H])[H])c([H])c([H])c2C1([H])[H]

$$$$
88:0:0
     RDKit          3D

 91 99  0  0  1  0  0  0  0  0999 V2000
  -29.7190  -23.1660   20.0200 N   0  0  1  0  0  4  0  0  0  0  0  0
  -29.8450  -23.1980   19.0180 H   0  0  0  0  0  0  0  0  0  0  0  0
  -31.7030  -24.7840   20.1780 C   0  0  0  0  0  1  0  0  0  0  0  0
  -31.0420  -23.4810   20.6510 C   0  0  0  0  0  2  0  0  0  0  0  0
  -29.2860  -21.7410   20.2980 C   0  0  0  0  0  3  0  0  0  0  0  0
  -30.2580  -20.6240   19.7630 C   0  0  0  0  0  3  0  0  0  0  0  0
  -30.4440  -18.2360   20.8690 C   0  0  0  0  0  3  0  0  0  0  0  0
  -29.0440  -17.2080   19.5780 C   0  0  0  0  0  3  0  0  0  0  0  0
  -29.8950  -19.1580   19.9890 C   0  0  0  0  0  0  0  0  0  0  0  0
  -28.9930  -18.4780   19.1680 N   0  0  0  0  0  0  0  0  0  0  0  0
  -29.8890  -16.9770   20.5950 N   0  0  0  0  0  0  0  0  0  0  0  0
  -30.1050  -15.7040   21.3160 C   0  0  0  0  0  2  0  0  0  0  0  0
  -30.6650  -14.5220   20.4630 C   0  0  0  0  0  0  0  0  0  0  0  0
  -30.3610  -12.3690   19.2660 C   0  0  0  0  0  2  0  0  0  0  0  0
  -29.4010  -12.5600   18.0730 C   0  0  0  0  0  2  0  0  0  0  0  0
  -27.9320  -12.4130   18.5200 C   0  0  0  0  0  2  0  0  0  0  0  0
  -27.6100  -13.2410   19.7920 C   0  0  0  0  0  3  0  0  0  0  0  0
  -28.6770  -13.0010   20.8810 C   0  0  0  0  0  2  0  0  0  0  0  0
  -29.9890  -13.3430   20.3090 N   0  0  0  0  0  0  0  0  0  0  0  0
  -31.7490  -14.7100   19.8980 O   0  0  0  0  0  0  0  0  0  0  0  0
  -25.2180  -13.8560   20.5150 C   0  0  0  0  0  0  0  0  0  0  0  0
  -24.1500  -13.0850   20.8940 C   0  0  0  0  0  0  0  0  0  0  0  0
  -24.6090  -11.7340   20.8620 C   0  0  0  0  0  0  0  0  0  0  0  0
  -26.2580  -12.9710   20.2800 N   0  0  0  0  0  0  0  0  0  0  0  0
  -25.8960  -11.6890   20.5450 N   0  0  0  0  0  0  0  0  0  0  0  0
  -23.8820  -10.4740   21.0620 C   0  0  0  0  0  0  0  0  0  0  0  0
  -24.3350   -9.4950   21.9750 C   0  0  0  0  0  3  0  0  0  0  0  0
  -23.6100   -8.3000   22.1620 C   0  0  0  0  0  3  0  0  0  0  0  0
  -22.4150   -8.0740   21.4370 C   0  0  0  0  0  0  0  0  0  0  0  0
  -21.9810   -9.0390   20.5130 C   0  0  0  0  0  3  0  0  0  0  0  0
  -22.7070  -10.2280   20.3240 C   0  0  0  0  0  3  0  0  0  0  0  0
  -21.6570   -6.9310   21.5340 O   0  0  0  0  0  0  0  0  0  0  0  0
  -21.6560   -6.1650   22.6710 C   0  0  0  0  0  0  0  0  0  0  0  0
  -21.3010   -6.6990   23.9290 C   0  0  0  0  0  3  0  0  0  0  0  0
  -21.2460   -5.8590   25.0600 C   0  0  0  0  0  3  0  0  0  0  0  0
  -21.5340   -4.4860   24.9340 C   0  0  0  0  0  0  0  0  0  0  0  0
  -21.8810   -3.9530   23.6800 C   0  0  0  0  0  3  0  0  0  0  0  0
  -21.9390   -4.7890   22.5520 C   0  0  0  0  0  0  0  0  0  0  0  0
  -22.2540   -4.2650   21.3430 F   0  0  0  0  0  0  0  0  0  0  0  0
  -21.4720   -3.6780   26.0180 F   0  0  0  0  0  0  0  0  0  0  0  0
  -22.7550  -13.5660   21.1750 C   0  0  0  0  0  0  0  0  0  0  0  0
  -22.0340  -12.8730   22.0490 N   0  0  0  0  0  0  0  0  0  0  0  0
  -22.3150  -14.5910   20.6560 O   0  0  0  0  0  0  0  0  0  0  0  0
  -22.4050  -12.0460   22.4930 H   0  0  0  0  0  0  0  0  0  0  0  0
  -21.0990  -13.1750   22.2800 H   0  0  0  0  0  0  0  0  0  0  0  0
  -25.3840  -15.2240   20.3350 N   0  0  0  0  0  0  0  0  0  0  0  0
  -24.6180  -15.8790   20.4500 H   0  0  0  0  0  0  0  0  0  0  0  0
  -26.2330  -15.6620   20.0010 H   0  0  0  0  0  0  0  0  0  0  0  0
  -28.6700  -24.2040   20.3610 C   0  0  0  0  0  2  0  0  0  0  0  0
  -28.5960  -25.4510   19.4110 C   0  0  0  0  0  2  0  0  0  0  0  0
  -28.4200  -26.7120   20.1070 O   0  0  0  0  0  0  0  0  0  0  0  0
  -24.5950  -31.8780   23.2260 C   0  0  0  0  0  0  0  0  0  0  0  0
  -27.2190  -27.4120   20.1060 C   0  0  0  0  0  0  0  0  0  0  0  0
  -23.3730  -30.4730   21.6000 C   0  0  0  0  0  3  0  0  0  0  0  0
  -24.8140  -28.9330   20.1630 C   0  0  0  0  0  0  0  0  0  0  0  0
  -25.8980  -30.8320   21.3690 C   0  0  0  0  0  2  0  0  0  0  0  0
  -25.9800  -29.4580   20.7270 C   0  0  0  0  0  0  0  0  0  0  0  0
  -27.1830  -28.7080   20.6880 C   0  0  0  0  0  3  0  0  0  0  0  0
  -26.0180  -26.8990   19.5620 C   0  0  0  0  0  3  0  0  0  0  0  0
  -24.8280  -27.6540   19.5790 C   0  0  0  0  0  3  0  0  0  0  0  0
  -23.5700  -29.7930   20.2190 C   0  0  0  0  0  2  0  0  0  0  0  0
  -24.6420  -31.0750   22.1250 N   0  0  0  0  0  0  0  0  0  0  0  0
  -23.5180  -32.1520   23.7750 O   0  0  0  0  0  0  0  0  0  0  0  0
  -22.7280  -29.4550   22.5680 C   0  0  0  0  0  0  0  0  0  0  0  0
  -21.4020  -29.2770   22.4530 N   0  0  0  0  0  0  0  0  0  0  0  0
  -23.4160  -28.8310   23.3790 O   0  0  0  0  0  0  0  0  0  0  0  0
  -20.9080  -29.8340   21.7720 H   0  0  0  0  0  0  0  0  0  0  0  0
  -18.0300  -28.0790   22.9660 C   0  0  0  0  0  0  0  0  0  0  0  0
  -20.5890  -28.3400   23.2280 C   0  0  0  0  0  3  0  0  0  0  0  0
  -20.6900  -26.9080   22.6540 C   0  0  0  0  0  2  0  0  0  0  0  0
  -19.5840  -26.5820   21.6450 C   0  0  0  0  0  2  0  0  0  0  0  0
  -18.2050  -26.7280   22.2940 C   0  0  0  0  0  2  0  0  0  0  0  0
  -19.1490  -28.8430   23.3900 C   0  0  0  0  0  0  0  0  0  0  0  0
  -18.9320  -30.1090   23.9770 C   0  0  0  0  0  3  0  0  0  0  0  0
  -17.6290  -30.6100   24.1440 C   0  0  0  0  0  3  0  0  0  0  0  0
  -16.5230  -29.8440   23.7360 C   0  0  0  0  0  3  0  0  0  0  0  0
  -16.7240  -28.5810   23.1530 C   0  0  0  0  0  3  0  0  0  0  0  0
  -25.8860  -32.5080   23.8360 C   0  0  0  0  0  3  0  0  0  0  0  0
  -25.5800  -33.9050   24.1750 N   0  0  0  0  0  0  0  0  0  0  0  0
  -25.9120  -34.9610   23.4190 C   0  0  0  0  0  0  0  0  0  0  0  0
  -26.5780  -34.8620   22.3850 O   0  0  0  0  0  0  0  0  0  0  0  0
  -24.9800  -34.0560   24.9720 H   0  0  0  0  0  0  0  0  0  0  0  0
  -24.1830  -36.7570   23.0800 C   0  0  0  0  0  1  0  0  0  0  0  0
  -25.4260  -36.3470   23.8840 C   0  0  0  0  0  3  0  0  0  0  0  0
  -27.5680  -37.2240   24.7080 C   0  0  0  0  0  1  0  0  0  0  0  0
  -26.4600  -37.4000   23.7720 N   0  0  0  0  0  0  0  0  0  0  0  0
  -26.0580  -38.3200   23.9300 H   0  0  0  0  0  0  0  0  0  0  0  0
  -26.4180  -31.7290   25.1000 C   0  0  1  0  0  0  0  0  0  0  0  0
  -25.3360  -31.4870   26.1790 C   0  0  0  0  0  1  0  0  0  0  0  0
  -26.9900  -30.3520   24.6890 C   0  0  0  0  0  1  0  0  0  0  0  0
  -27.5780  -32.5150   25.7550 C   0  0  0  0  0  1  0  0  0  0  0  0
  1  5  1  0
  1 49  1  0
  1  4  1  0
  1  2  1  6
  3  4  1  0
  6  9  1  0
  6  5  2  0
  8 11  1  0
  9  7  2  0
 10  8  2  0
 10  9  1  0
 11  7  1  0
 11 12  1  0
 13 12  1  0
 14 19  1  0
 15 16  1  0
 15 14  1  0
 17 16  1  0
 17 24  1  0
 17 18  1  0
 19 13  1  0
 19 18  1  0
 20 13  2  0
 21 22  2  0
 22 41  1  0
 23 22  1  0
 23 26  1  0
 24 21  1  0
 24 25  1  0
 25 23  2  0
 26 27  1  0
 27 28  2  0
 29 32  1  0
 29 28  1  0
 30 29  2  0
 31 30  1  0
 31 26  2  0
 32 33  1  0
 33 34  1  0
 34 35  2  0
 36 35  1  0
 36 40  1  0
 37 36  2  0
 38 33  2  0
 38 37  1  0
 39 38  1  0
 41 42  1  0
 42 45  1  0
 42 44  1  0
 43 41  2  0
 46 47  1  0
 46 21  1  0
 48 46  1  0
 50 51  1  0
 50 49  1  0
 52 63  2  0
 53 51  1  0
 53 58  1  0
 54 62  1  0
 54 64  1  0
 55 61  1  0
 55 57  1  0
 56 62  1  0
 57 56  1  0
 58 57  2  0
 59 60  1  0
 59 53  2  0
 60 55  2  0
 61 54  1  0
 62 52  1  0
 64 66  2  0
 65 64  1  0
 67 65  1  0
 68 77  2  0
 68 73  1  0
 69 65  1  0
 69 73  1  0
 70 69  1  0
 71 72  1  0
 71 70  1  0
 72 68  1  0
 73 74  2  0
 74 75  1  0
 76 75  2  0
 77 76  1  0
 78 52  1  0
 78 79  1  0
 78 88  1  0
 79 82  1  0
 80 84  1  0
 80 79  1  0
 81 80  2  0
 84 83  1  0
 86 84  1  0
 86 87  1  0
 86 85  1  0
 88 91  1  1
 88 89  1  0
 90 88  1  0
M  ISO  4  12 100  13 100  50 101  51 101
M  END
>  <TORSDO>  (89) 
F 23

>  <SCORE>  (89) 
-12.830

>  <name>  (89) 
88

>  <ligand_id>  (89) 
88

>  <original_smiles>  (89) 
[H]c1c([H])c([H])c2c(c1[H])C([H])([H])C([H])([H])C([H])([H])C2([H])N([H])C(=O)C1([H])N(C(=O)C([H])(N([H])C(=O)C([H])(N([H])C([H])([H])[H])C([H])([H])[H])C(C([H])([H])[H])(C([H])([H])[H])C([H])([H])[H])C([H])([H])c2c([H])c(OC([H])([H])C([H])([H])[N+]([H])(C([H])([H])C([H])([H])[H])C([H])([H])C([H])([H])c3nc([H])n(C([H])([H])C(=O)N4C([H])([H])C([H])([H])C([H])([H])C([H])(n5nc(-c6c([H])c([H])c(Oc7c([H])c([H])c(F)c([H])c7F)c([H])c6[H])c(C(=O)N([H])[H])c5N([H])[H])C4([H])[H])c3[H])c([H])c([H])c2C1([H])[H]

>  <smiles>  (89) 
[H]c1c([H])c([H])c2c(c1[H])C([H])([H])C([H])([H])C([H])([H])C2([H])N([H])C(=O)C1([H])N(C(=O)C([H])(N([H])C(=O)C([H])(N([H])C([H])([H])[H])C([H])([H])[H])C(C([H])([H])[H])(C([H])([H])[H])C([H])([H])[H])C([H])([H])c2c([H])c(OC([H])([H])C([H])([H])[N+]([H])(C([H])([H])C([H])([H])[H])C([H])([H])C([H])([H])c3nc([H])n(C([H])([H])C(=O)N4C([H])([H])C([H])([H])C([H])([H])C([H])(n5nc(-c6c([H])c([H])c(Oc7c([H])c([H])c(F)c([H])c7F)c([H])c6[H])c(C(=O)N([H])[H])c5N([H])[H])C4([H])[H])c3[H])c([H])c([H])c2C1([H])[H]

$$$$
89:0:0
     RDKit          3D

 89 97  0  0  1  0  0  0  0  0999 V2000
  -29.6890  -18.7390   20.4190 C   0  0  0  0  0  0  0  0  0  0  0  0
  -29.8720  -19.1410   19.1210 N   0  0  0  0  0  0  0  0  0  0  0  0
  -29.2300  -19.7770   21.1620 N   0  0  0  0  0  2  0  0  0  0  0  0
  -29.5110  -20.4060   19.0260 N   0  0  0  0  0  2  0  0  0  0  0  0
  -29.1450  -20.8330   20.2630 N   0  0  0  0  0  0  0  0  0  0  0  0
  -31.7360  -17.5490   21.3040 C   0  0  0  0  0  1  0  0  0  0  0  0
  -30.2270  -17.3860   21.0460 C   0  0  0  0  0  0  0  0  0  0  0  0
  -30.5890  -14.8250   20.2910 C   0  0  0  0  0  0  0  0  0  0  0  0
  -30.3730  -12.5540   19.2460 C   0  0  0  0  0  2  0  0  0  0  0  0
  -29.4180  -12.6110   18.0340 C   0  0  0  0  0  2  0  0  0  0  0  0
  -27.9530  -12.4330   18.4830 C   0  0  0  0  0  2  0  0  0  0  0  0
  -27.5900  -13.3110   19.7090 C   0  0  0  0  0  3  0  0  0  0  0  0
  -28.6650  -13.2360   20.8130 C   0  0  0  0  0  2  0  0  0  0  0  0
  -29.9450  -13.6080   20.1950 N   0  0  0  0  0  0  0  0  0  0  0  0
  -31.7780  -14.8950   19.9740 O   0  0  0  0  0  0  0  0  0  0  0  0
  -29.8450  -15.9670   20.5730 N   0  0  0  0  0  4  0  0  0  0  0  0
  -28.8550  -15.7890   20.6520 H   0  0  0  0  0  0  0  0  0  0  0  0
  -25.2050  -13.8760   20.4610 C   0  0  0  0  0  0  0  0  0  0  0  0
  -24.1510  -13.0910   20.8410 C   0  0  0  0  0  0  0  0  0  0  0  0
  -24.6280  -11.7460   20.8120 C   0  0  0  0  0  0  0  0  0  0  0  0
  -26.2560  -13.0070   20.2170 N   0  0  0  0  0  0  0  0  0  0  0  0
  -25.9170  -11.7210   20.4930 N   0  0  0  0  0  0  0  0  0  0  0  0
  -23.9160  -10.4760   21.0100 C   0  0  0  0  0  0  0  0  0  0  0  0
  -24.3640   -9.5150   21.9440 C   0  0  0  0  0  3  0  0  0  0  0  0
  -23.6510   -8.3110   22.1290 C   0  0  0  0  0  3  0  0  0  0  0  0
  -22.4740   -8.0600   21.3820 C   0  0  0  0  0  0  0  0  0  0  0  0
  -22.0470   -9.0090   20.4380 C   0  0  0  0  0  3  0  0  0  0  0  0
  -22.7610  -10.2050   20.2510 C   0  0  0  0  0  3  0  0  0  0  0  0
  -21.7310   -6.9090   21.4790 O   0  0  0  0  0  0  0  0  0  0  0  0
  -21.6950   -6.1700   22.6350 C   0  0  0  0  0  0  0  0  0  0  0  0
  -21.2630   -6.7240   23.8600 C   0  0  0  0  0  3  0  0  0  0  0  0
  -21.1750   -5.9100   25.0070 C   0  0  0  0  0  3  0  0  0  0  0  0
  -21.5080   -4.5450   24.9320 C   0  0  0  0  0  0  0  0  0  0  0  0
  -21.9330   -3.9910   23.7120 C   0  0  0  0  0  3  0  0  0  0  0  0
  -22.0220   -4.8010   22.5650 C   0  0  0  0  0  0  0  0  0  0  0  0
  -22.4110   -4.2560   21.3870 F   0  0  0  0  0  0  0  0  0  0  0  0
  -21.4160   -3.7620   26.0320 F   0  0  0  0  0  0  0  0  0  0  0  0
  -22.7500  -13.5550   21.1170 C   0  0  0  0  0  0  0  0  0  0  0  0
  -22.0330  -12.8550   21.9880 N   0  0  0  0  0  0  0  0  0  0  0  0
  -22.3010  -14.5750   20.5960 O   0  0  0  0  0  0  0  0  0  0  0  0
  -22.4100  -12.0310   22.4340 H   0  0  0  0  0  0  0  0  0  0  0  0
  -21.0920  -13.1460   22.2140 H   0  0  0  0  0  0  0  0  0  0  0  0
  -25.3550  -15.2470   20.2750 N   0  0  0  0  0  0  0  0  0  0  0  0
  -24.5850  -15.8980   20.3910 H   0  0  0  0  0  0  0  0  0  0  0  0
  -26.1810  -15.6860   19.8880 H   0  0  0  0  0  0  0  0  0  0  0  0
  -28.3730  -22.1410   20.4980 C   0  0  0  0  0  2  0  0  0  0  0  0
  -28.9910  -23.6440   20.3430 C   0  0  0  0  0  3  0  0  0  0  0  0
  -27.9400  -24.8840   20.1770 C   0  0  0  0  0  3  0  0  0  0  0  0
  -28.2450  -26.3690   20.2520 O   0  0  0  0  0  0  0  0  0  0  0  0
  -24.5870  -31.9220   23.2530 C   0  0  0  0  0  0  0  0  0  0  0  0
  -27.1590  -27.2890   20.2000 C   0  0  0  0  0  0  0  0  0  0  0  0
  -23.3730  -30.5290   21.6210 C   0  0  0  0  0  3  0  0  0  0  0  0
  -24.8120  -28.9680   20.1900 C   0  0  0  0  0  0  0  0  0  0  0  0
  -25.9190  -30.8200   21.4310 C   0  0  0  0  0  2  0  0  0  0  0  0
  -25.9910  -29.4340   20.7830 C   0  0  0  0  0  0  0  0  0  0  0  0
  -27.1670  -28.6100   20.7760 C   0  0  0  0  0  3  0  0  0  0  0  0
  -25.9490  -26.9010   19.5760 C   0  0  0  0  0  3  0  0  0  0  0  0
  -24.7980  -27.7100   19.5740 C   0  0  0  0  0  3  0  0  0  0  0  0
  -23.5830  -29.8550   20.2390 C   0  0  0  0  0  2  0  0  0  0  0  0
  -24.6450  -31.1080   22.1570 N   0  0  0  0  0  0  0  0  0  0  0  0
  -23.5060  -32.2040   23.7910 O   0  0  0  0  0  0  0  0  0  0  0  0
  -22.7060  -29.5150   22.5840 C   0  0  0  0  0  0  0  0  0  0  0  0
  -21.3790  -29.3380   22.4580 N   0  0  0  0  0  0  0  0  0  0  0  0
  -23.3830  -28.8930   23.4070 O   0  0  0  0  0  0  0  0  0  0  0  0
  -20.8920  -29.8920   21.7690 H   0  0  0  0  0  0  0  0  0  0  0  0
  -18.0020  -28.1370   22.9620 C   0  0  0  0  0  0  0  0  0  0  0  0
  -20.5600  -28.4030   23.2340 C   0  0  0  0  0  3  0  0  0  0  0  0
  -20.6650  -26.9690   22.6670 C   0  0  0  0  0  2  0  0  0  0  0  0
  -19.5650  -26.6390   21.6540 C   0  0  0  0  0  2  0  0  0  0  0  0
  -18.1810  -26.7850   22.2950 C   0  0  0  0  0  2  0  0  0  0  0  0
  -19.1190  -28.9040   23.3890 C   0  0  0  0  0  0  0  0  0  0  0  0
  -18.8970  -30.1690   23.9750 C   0  0  0  0  0  3  0  0  0  0  0  0
  -17.5900  -30.6670   24.1390 C   0  0  0  0  0  3  0  0  0  0  0  0
  -16.4870  -29.8990   23.7270 C   0  0  0  0  0  3  0  0  0  0  0  0
  -16.6940  -28.6350   23.1440 C   0  0  0  0  0  3  0  0  0  0  0  0
  -25.8720  -32.5530   23.8690 C   0  0  0  0  0  3  0  0  0  0  0  0
  -26.3880  -31.7840   25.1470 C   0  0  1  0  0  0  0  0  0  0  0  0
  -25.2970  -31.5580   26.2200 C   0  0  0  0  0  1  0  0  0  0  0  0
  -26.9650  -30.4020   24.7600 C   0  0  0  0  0  1  0  0  0  0  0  0
  -27.5420  -32.5760   25.8070 C   0  0  0  0  0  1  0  0  0  0  0  0
  -25.5670  -33.9530   24.2000 N   0  0  0  0  0  0  0  0  0  0  0  0
  -25.8930  -35.0060   23.4370 C   0  0  0  0  0  0  0  0  0  0  0  0
  -26.5530  -34.9000   22.4000 O   0  0  0  0  0  0  0  0  0  0  0  0
  -24.9820  -34.1080   25.0060 H   0  0  0  0  0  0  0  0  0  0  0  0
  -24.1680  -36.8050   23.0960 C   0  0  0  0  0  1  0  0  0  0  0  0
  -25.4130  -36.3950   23.8980 C   0  0  0  0  0  3  0  0  0  0  0  0
  -27.5540  -37.2750   24.7170 C   0  0  0  0  0  1  0  0  0  0  0  0
  -26.4480  -37.4460   23.7800 N   0  0  0  0  0  0  0  0  0  0  0  0
  -26.0450  -38.3670   23.9320 H   0  0  0  0  0  0  0  0  0  0  0  0
  1  7  1  0
  1  3  1  0
  2  1  2  0
  4  2  1  0
  4  5  1  0
  5 46  1  0
  5  3  1  0
  7  6  1  0
  8 16  1  0
  9 14  1  0
 10 11  1  0
 10  9  1  0
 12 11  1  0
 12 21  1  0
 12 13  1  0
 14  8  1  0
 14 13  1  0
 15  8  2  0
 16 17  1  0
 16  7  2  0
 18 19  2  0
 19 38  1  0
 20 19  1  0
 20 23  1  0
 21 18  1  0
 21 22  1  0
 22 20  2  0
 23 24  1  0
 24 25  2  0
 26 29  1  0
 26 25  1  0
 27 26  2  0
 28 27  1  0
 28 23  2  0
 29 30  1  0
 30 31  1  0
 31 32  2  0
 33 32  1  0
 33 37  1  0
 34 33  2  0
 35 30  2  0
 35 34  1  0
 36 35  1  0
 38 39  1  0
 39 42  1  0
 39 41  1  0
 40 38  2  0
 43 44  1  0
 43 18  1  0
 45 43  1  0
 47 46  1  0
 48 49  1  0
 48 47  2  0
 50 61  2  0
 51 49  1  0
 51 56  1  0
 52 60  1  0
 52 62  1  0
 53 59  1  0
 53 55  1  0
 54 60  1  0
 55 54  1  0
 56 55  2  0
 57 51  2  0
 58 57  1  0
 58 53  2  0
 59 52  1  0
 60 50  1  0
 62 64  2  0
 63 62  1  0
 65 63  1  0
 66 75  2  0
 66 71  1  0
 67 63  1  0
 67 71  1  0
 68 67  1  0
 69 70  1  0
 69 68  1  0
 70 66  1  0
 71 72  2  0
 72 73  1  0
 74 73  2  0
 75 74  1  0
 76 50  1  0
 76 81  1  0
 76 77  1  0
 77 80  1  1
 77 78  1  0
 79 77  1  0
 81 84  1  0
 82 86  1  0
 82 81  1  0
 83 82  2  0
 86 85  1  0
 88 86  1  0
 88 89  1  0
 88 87  1  0
M  ISO  4   8 100  16 100  48 101  49 101
M  END
>  <TORSDO>  (90) 
F 20

>  <SCORE>  (90) 
-13.701

>  <name>  (90) 
89

>  <ligand_id>  (90) 
89

>  <original_smiles>  (90) 
[H]c1c([H])c([H])c2c(c1[H])C([H])([H])C([H])([H])C([H])([H])C2([H])N([H])C(=O)C1([H])N(C(=O)C([H])(N([H])C(=O)C([H])(N([H])C([H])([H])[H])C([H])([H])[H])C(C([H])([H])[H])(C([H])([H])[H])C([H])([H])[H])C([H])([H])c2c([H])c(OC([H])([H])C([H])([H])C([H])([H])n3nnc(C([H])(N([H])C(=O)N4C([H])([H])C([H])([H])C([H])([H])C([H])(n5nc(-c6c([H])c([H])c(Oc7c([H])c([H])c(F)c([H])c7F)c([H])c6[H])c(C(=O)N([H])[H])c5N([H])[H])C4([H])[H])C([H])([H])[H])n3)c([H])c([H])c2C1([H])[H]

>  <smiles>  (90) 
[H]c1c([H])c([H])c2c(c1[H])C([H])([H])C([H])([H])C([H])([H])C2([H])N([H])C(=O)C1([H])N(C(=O)C([H])(N([H])C(=O)C([H])(N([H])C([H])([H])[H])C([H])([H])[H])C(C([H])([H])[H])(C([H])([H])[H])C([H])([H])[H])C([H])([H])c2c([H])c(OC([H])([H])C([H])([H])C([H])([H])n3nnc(C([H])(N([H])C(=O)N4C([H])([H])C([H])([H])C([H])([H])C([H])(n5nc(-c6c([H])c([H])c(Oc7c([H])c([H])c(F)c([H])c7F)c([H])c6[H])c(C(=O)N([H])[H])c5N([H])[H])C4([H])[H])C([H])([H])[H])n3)c([H])c([H])c2C1([H])[H]

$$$$
90:0:0
     RDKit          3D

 94102  0  0  1  0  0  0  0  0999 V2000
  -30.3700  -21.3620   18.3520 C   0  0  0  0  0  1  0  0  0  0  0  0
  -29.0840  -20.9920   19.1370 C   0  0  2  0  0  0  0  0  0  0  0  0
  -30.1380  -18.1430   19.0640 C   0  0  0  0  0  3  0  0  0  0  0  0
  -29.9030  -16.7890   19.7320 C   0  0  0  0  0  0  0  0  0  0  0  0
  -29.4550  -19.3140   19.6330 C   0  0  0  0  0  0  0  0  0  0  0  0
  -28.0740  -19.1000   21.7880 C   0  0  0  0  0  1  0  0  0  0  0  0
  -29.1400  -17.2040   20.7560 N   0  0  0  0  0  0  0  0  0  0  0  0
  -28.8970  -18.5880   20.7100 N   0  0  0  0  0  0  0  0  0  0  0  0
  -30.5600  -15.2520   19.4290 C   0  0  0  0  0  0  0  0  0  0  0  0
  -30.3970  -12.7830   18.6150 C   0  0  0  0  0  2  0  0  0  0  0  0
  -29.3460  -12.5810   17.4930 C   0  0  0  0  0  2  0  0  0  0  0  0
  -27.9550  -12.3240   18.0920 C   0  0  0  0  0  2  0  0  0  0  0  0
  -27.6390  -13.3020   19.2490 C   0  0  0  0  0  3  0  0  0  0  0  0
  -28.8050  -13.4730   20.2440 C   0  0  0  0  0  2  0  0  0  0  0  0
  -29.9770  -13.9480   19.4890 N   0  0  0  0  0  0  0  0  0  0  0  0
  -31.7180  -15.2040   18.9850 O   0  0  0  0  0  0  0  0  0  0  0  0
  -25.4170  -13.8750   20.3530 C   0  0  0  0  0  0  0  0  0  0  0  0
  -24.3860  -13.1080   20.8170 C   0  0  0  0  0  0  0  0  0  0  0  0
  -24.7920  -11.7470   20.6390 C   0  0  0  0  0  0  0  0  0  0  0  0
  -26.3810  -12.9890   19.9150 N   0  0  0  0  0  0  0  0  0  0  0  0
  -26.0280  -11.6980   20.1550 N   0  0  0  0  0  0  0  0  0  0  0  0
  -24.0470  -10.4970   20.8460 C   0  0  0  0  0  0  0  0  0  0  0  0
  -24.5090   -9.4990   21.7320 C   0  0  0  0  0  3  0  0  0  0  0  0
  -23.7600   -8.3190   21.9320 C   0  0  0  0  0  3  0  0  0  0  0  0
  -22.5370   -8.1270   21.2460 C   0  0  0  0  0  0  0  0  0  0  0  0
  -22.0930   -9.1150   20.3500 C   0  0  0  0  0  3  0  0  0  0  0  0
  -22.8420  -10.2860   20.1460 C   0  0  0  0  0  3  0  0  0  0  0  0
  -21.7610   -7.0000   21.3570 O   0  0  0  0  0  0  0  0  0  0  0  0
  -21.6950   -6.2800   22.5240 C   0  0  0  0  0  0  0  0  0  0  0  0
  -21.2660   -6.8660   23.7360 C   0  0  0  0  0  3  0  0  0  0  0  0
  -21.1400   -6.0740   24.8950 C   0  0  0  0  0  3  0  0  0  0  0  0
  -21.4410   -4.6990   24.8470 C   0  0  0  0  0  0  0  0  0  0  0  0
  -21.8660   -4.1150   23.6420 C   0  0  0  0  0  3  0  0  0  0  0  0
  -21.9890   -4.9020   22.4840 C   0  0  0  0  0  0  0  0  0  0  0  0
  -22.3770   -4.3280   21.3200 F   0  0  0  0  0  0  0  0  0  0  0  0
  -21.3160   -3.9390   25.9600 F   0  0  0  0  0  0  0  0  0  0  0  0
  -23.0550  -13.6050   21.2970 C   0  0  0  0  0  0  0  0  0  0  0  0
  -22.4230  -12.8830   22.2150 N   0  0  0  0  0  0  0  0  0  0  0  0
  -22.5890  -14.6710   20.8950 O   0  0  0  0  0  0  0  0  0  0  0  0
  -22.8150  -12.0200   22.5630 H   0  0  0  0  0  0  0  0  0  0  0  0
  -21.5350  -13.1990   22.5760 H   0  0  0  0  0  0  0  0  0  0  0  0
  -25.6050  -15.2520   20.2400 N   0  0  0  0  0  0  0  0  0  0  0  0
  -24.8950  -15.9260   20.5050 H   0  0  0  0  0  0  0  0  0  0  0  0
  -26.4300  -15.6840   19.8410 H   0  0  0  0  0  0  0  0  0  0  0  0
  -26.5310  -20.7090   18.8090 C   0  0  0  0  0  1  0  0  0  0  0  0
  -27.7040  -22.0810   17.1230 C   0  0  0  0  0  1  0  0  0  0  0  0
  -27.8780  -20.8540   18.0680 C   0  0  1  0  0  0  0  0  0  0  0  0
  -27.1660  -19.4530   15.8990 C   0  0  0  0  0  1  0  0  0  0  0  0
  -28.0420  -19.5800   17.1590 C   0  0  0  0  0  2  0  0  0  0  0  0
  -28.8290  -22.5770   20.0360 C   0  0  1  0  0  0  0  0  0  0  0  0
  -28.0180  -22.2910   21.0490 F   0  0  0  0  0  0  0  0  0  0  0  0
  -30.0120  -22.8350   20.5920 F   0  0  0  0  0  0  0  0  0  0  0  0
  -28.2110  -24.2200   19.5320 C   0  0  0  0  0  2  0  0  0  0  0  0
  -28.2530  -25.7900   20.0460 O   0  0  0  0  0  0  0  0  0  0  0  0
  -24.5460  -31.6350   23.0320 C   0  0  0  0  0  0  0  0  0  0  0  0
  -27.2160  -26.8630   19.9490 C   0  0  0  0  0  0  0  0  0  0  0  0
  -23.3850  -30.2410   21.3680 C   0  0  0  0  0  3  0  0  0  0  0  0
  -24.8730  -28.6980   19.9150 C   0  0  0  0  0  0  0  0  0  0  0  0
  -25.9440  -30.5080   21.2350 C   0  0  0  0  0  2  0  0  0  0  0  0
  -26.0470  -29.1140   20.5550 C   0  0  0  0  0  0  0  0  0  0  0  0
  -27.2080  -28.2180   20.5510 C   0  0  0  0  0  3  0  0  0  0  0  0
  -26.0110  -26.6000   19.2600 C   0  0  0  0  0  3  0  0  0  0  0  0
  -24.8820  -27.4640   19.2420 C   0  0  0  0  0  3  0  0  0  0  0  0
  -23.6320  -29.5900   19.9770 C   0  0  0  0  0  2  0  0  0  0  0  0
  -24.6460  -30.8200   21.9340 N   0  0  0  0  0  0  0  0  0  0  0  0
  -23.4490  -31.8940   23.5530 O   0  0  0  0  0  0  0  0  0  0  0  0
  -22.7090  -29.2150   22.3110 C   0  0  0  0  0  0  0  0  0  0  0  0
  -21.3790  -29.0430   22.1900 N   0  0  0  0  0  0  0  0  0  0  0  0
  -23.3840  -28.5780   23.1230 O   0  0  0  0  0  0  0  0  0  0  0  0
  -20.8820  -29.6070   21.5150 H   0  0  0  0  0  0  0  0  0  0  0  0
  -18.0110  -27.8090   22.7150 C   0  0  0  0  0  0  0  0  0  0  0  0
  -20.5720  -28.0800   22.9460 C   0  0  0  0  0  3  0  0  0  0  0  0
  -20.6720  -26.6670   22.3270 C   0  0  0  0  0  2  0  0  0  0  0  0
  -19.5570  -26.3680   21.3210 C   0  0  0  0  0  2  0  0  0  0  0  0
  -18.1860  -26.4840   21.9920 C   0  0  0  0  0  2  0  0  0  0  0  0
  -19.1320  -28.5650   23.1490 C   0  0  0  0  0  0  0  0  0  0  0  0
  -18.9120  -29.8040   23.7900 C   0  0  0  0  0  3  0  0  0  0  0  0
  -17.6060  -30.2860   23.9990 C   0  0  0  0  0  3  0  0  0  0  0  0
  -16.5010  -29.5260   23.5790 C   0  0  0  0  0  3  0  0  0  0  0  0
  -16.7040  -28.2890   22.9410 C   0  0  0  0  0  3  0  0  0  0  0  0
  -25.8020  -32.2910   23.6790 C   0  0  0  0  0  3  0  0  0  0  0  0
  -25.4520  -33.6780   24.0380 N   0  0  0  0  0  0  0  0  0  0  0  0
  -25.7560  -34.7590   23.3090 C   0  0  0  0  0  0  0  0  0  0  0  0
  -26.4210  -34.7010   22.2730 O   0  0  0  0  0  0  0  0  0  0  0  0
  -24.8530  -33.7980   24.8410 H   0  0  0  0  0  0  0  0  0  0  0  0
  -23.9770  -36.5250   23.0330 C   0  0  0  0  0  1  0  0  0  0  0  0
  -25.2430  -36.1270   23.8080 C   0  0  0  0  0  3  0  0  0  0  0  0
  -27.3650  -37.0560   24.6280 C   0  0  0  0  0  1  0  0  0  0  0  0
  -26.2450  -37.2090   23.7030 N   0  0  0  0  0  0  0  0  0  0  0  0
  -25.8150  -38.1140   23.8770 H   0  0  0  0  0  0  0  0  0  0  0  0
  -26.3210  -31.5160   24.9540 C   0  0  1  0  0  0  0  0  0  0  0  0
  -25.2230  -31.2450   26.0070 C   0  0  0  0  0  1  0  0  0  0  0  0
  -26.9370  -30.1540   24.5580 C   0  0  0  0  0  1  0  0  0  0  0  0
  -27.4450  -32.3280   25.6400 C   0  0  0  0  0  1  0  0  0  0  0  0
  2  1  1  6
  2  5  1  0
  2 50  1  0
  3  5  2  0
  3  4  1  0
  4  7  2  0
  5  8  1  0
  8  7  1  0
  8  6  1  0
  9 15  1  0
  9  4  1  0
 10 15  1  0
 11 12  1  0
 11 10  1  0
 13 12  1  0
 13 20  1  0
 13 14  1  0
 15 14  1  0
 16  9  2  0
 17 18  2  0
 18 37  1  0
 19 18  1  0
 19 22  1  0
 20 21  1  0
 20 17  1  0
 21 19  2  0
 22 23  1  0
 23 24  2  0
 25 28  1  0
 25 24  1  0
 26 25  2  0
 27 26  1  0
 27 22  2  0
 28 29  1  0
 29 30  1  0
 30 31  2  0
 32 31  1  0
 32 36  1  0
 33 32  2  0
 34 29  2  0
 34 33  1  0
 35 34  1  0
 37 38  1  0
 38 40  1  0
 38 41  1  0
 39 37  2  0
 42 17  1  0
 42 43  1  0
 44 42  1  0
 47 46  1  6
 47 45  1  0
 47  2  1  0
 48 49  1  0
 49 47  1  0
 50 52  1  1
 50 51  1  0
 53 50  1  0
 53 54  1  0
 55 66  2  0
 56 54  1  0
 56 61  1  0
 57 65  1  0
 57 67  1  0
 58 64  1  0
 58 60  1  0
 59 65  1  0
 60 59  1  0
 61 60  2  0
 62 56  2  0
 63 62  1  0
 63 58  2  0
 64 57  1  0
 65 55  1  0
 67 69  2  0
 68 67  1  0
 70 68  1  0
 71 80  2  0
 71 76  1  0
 72 68  1  0
 72 76  1  0
 73 72  1  0
 74 75  1  0
 74 73  1  0
 75 71  1  0
 76 77  2  0
 77 78  1  0
 79 78  2  0
 80 79  1  0
 81 55  1  0
 81 82  1  0
 81 91  1  0
 82 85  1  0
 83 87  1  0
 83 82  1  0
 84 83  2  0
 87 86  1  0
 89 87  1  0
 89 90  1  0
 89 88  1  0
 91 94  1  1
 91 92  1  0
 93 91  1  0
M  ISO  4   4 100   9 100  53 101  54 101
M  END
>  <TORSDO>  (91) 
F 21

>  <SCORE>  (91) 
-11.210

>  <name>  (91) 
90

>  <ligand_id>  (91) 
90

>  <original_smiles>  (91) 
[H]c1c([H])c([H])c2c(c1[H])C([H])([H])C([H])([H])C([H])([H])C2([H])N([H])C(=O)C1([H])N(C(=O)C([H])(N([H])C(=O)C([H])(N([H])C([H])([H])[H])C([H])([H])[H])C(C([H])([H])[H])(C([H])([H])[H])C([H])([H])[H])C([H])([H])c2c([H])c(OC([H])([H])C(F)(F)C(c3c([H])c(C(=O)N4C([H])([H])C([H])([H])C([H])([H])C([H])(n5nc(-c6c([H])c([H])c(Oc7c([H])c([H])c(F)c([H])c7F)c([H])c6[H])c(C(=O)N([H])[H])c5N([H])[H])C4([H])[H])nn3C([H])([H])[H])(C([H])([H])[H])C(C([H])([H])[H])(C([H])([H])[H])C([H])([H])C([H])([H])[H])c([H])c([H])c2C1([H])[H]

>  <smiles>  (91) 
[H]c1c([H])c([H])c2c(c1[H])C([H])([H])C([H])([H])C([H])([H])C2([H])N([H])C(=O)C1([H])N(C(=O)C([H])(N([H])C(=O)C([H])(N([H])C([H])([H])[H])C([H])([H])[H])C(C([H])([H])[H])(C([H])([H])[H])C([H])([H])[H])C([H])([H])c2c([H])c(OC([H])([H])C(F)(F)C(c3c([H])c(C(=O)N4C([H])([H])C([H])([H])C([H])([H])C([H])(n5nc(-c6c([H])c([H])c(Oc7c([H])c([H])c(F)c([H])c7F)c([H])c6[H])c(C(=O)N([H])[H])c5N([H])[H])C4([H])[H])nn3C([H])([H])[H])(C([H])([H])[H])C(C([H])([H])[H])(C([H])([H])[H])C([H])([H])C([H])([H])[H])c([H])c([H])c2C1([H])[H]

$$$$
91:0:0
     RDKit          3D

 88 96  0  0  1  0  0  0  0  0999 V2000
  -29.1390  -21.7050   20.4870 C   0  0  0  0  0  2  0  0  0  0  0  0
  -27.3940  -19.2820   18.2960 C   0  0  0  0  0  3  0  0  0  0  0  0
  -27.6530  -20.4730   18.9070 C   0  0  0  0  0  3  0  0  0  0  0  0
  -29.1740  -18.9560   19.5470 C   0  0  0  0  0  0  0  0  0  0  0  0
  -28.3380  -18.3600   18.6940 N   0  0  0  0  0  0  0  0  0  0  0  0
  -28.7980  -20.3670   19.7020 N   0  0  0  0  0  0  0  0  0  0  0  0
  -30.3150  -17.8920   20.0430 C   0  0  0  0  0  2  0  0  0  0  0  0
  -30.7000  -15.1240   19.9590 C   0  0  0  0  0  0  0  0  0  0  0  0
  -30.5780  -12.7720   18.9520 C   0  0  0  0  0  2  0  0  0  0  0  0
  -29.5730  -12.6980   17.7760 C   0  0  0  0  0  2  0  0  0  0  0  0
  -28.1340  -12.4610   18.2780 C   0  0  0  0  0  2  0  0  0  0  0  0
  -27.7880  -13.3540   19.4970 C   0  0  0  0  0  3  0  0  0  0  0  0
  -28.9090  -13.2970   20.5540 C   0  0  0  0  0  2  0  0  0  0  0  0
  -30.1190  -13.8370   19.9040 N   0  0  0  0  0  0  0  0  0  0  0  0
  -31.8600  -15.1890   19.5270 O   0  0  0  0  0  0  0  0  0  0  0  0
  -28.9560  -16.3040   21.3200 C   0  0  0  0  0  1  0  0  0  0  0  0
  -29.9700  -16.3410   20.2620 N   0  0  0  0  0  0  0  0  0  0  0  0
  -25.4420  -13.9170   20.3600 C   0  0  0  0  0  0  0  0  0  0  0  0
  -24.4030  -13.1320   20.7770 C   0  0  0  0  0  0  0  0  0  0  0  0
  -24.8690  -11.7850   20.6970 C   0  0  0  0  0  0  0  0  0  0  0  0
  -26.4760  -13.0450   20.0560 N   0  0  0  0  0  0  0  0  0  0  0  0
  -26.1420  -11.7560   20.3190 N   0  0  0  0  0  0  0  0  0  0  0  0
  -24.1540  -10.5180   20.9010 C   0  0  0  0  0  0  0  0  0  0  0  0
  -24.5870   -9.5690   21.8510 C   0  0  0  0  0  3  0  0  0  0  0  0
  -23.8700   -8.3680   22.0420 C   0  0  0  0  0  3  0  0  0  0  0  0
  -22.7050   -8.1080   21.2800 C   0  0  0  0  0  0  0  0  0  0  0  0
  -22.2910   -9.0470   20.3190 C   0  0  0  0  0  3  0  0  0  0  0  0
  -23.0090  -10.2390   20.1270 C   0  0  0  0  0  3  0  0  0  0  0  0
  -21.9590   -6.9600   21.3800 O   0  0  0  0  0  0  0  0  0  0  0  0
  -21.8430   -6.2770   22.5650 C   0  0  0  0  0  0  0  0  0  0  0  0
  -21.3090   -6.8830   23.7230 C   0  0  0  0  0  3  0  0  0  0  0  0
  -21.1430   -6.1250   24.9000 C   0  0  0  0  0  3  0  0  0  0  0  0
  -21.5000   -4.7630   24.9180 C   0  0  0  0  0  0  0  0  0  0  0  0
  -22.0250   -4.1570   23.7630 C   0  0  0  0  0  3  0  0  0  0  0  0
  -22.1930   -4.9120   22.5890 C   0  0  0  0  0  0  0  0  0  0  0  0
  -22.6810   -4.3190   21.4730 F   0  0  0  0  0  0  0  0  0  0  0  0
  -21.3340   -4.0330   26.0450 F   0  0  0  0  0  0  0  0  0  0  0  0
  -23.0240  -13.6030   21.1310 C   0  0  0  0  0  0  0  0  0  0  0  0
  -22.3410  -12.8890   22.0190 N   0  0  0  0  0  0  0  0  0  0  0  0
  -22.5600  -14.6390   20.6580 O   0  0  0  0  0  0  0  0  0  0  0  0
  -22.7300  -12.0500   22.4250 H   0  0  0  0  0  0  0  0  0  0  0  0
  -21.4180  -13.1850   22.2990 H   0  0  0  0  0  0  0  0  0  0  0  0
  -25.5800  -15.2900   20.1870 N   0  0  0  0  0  0  0  0  0  0  0  0
  -24.8080  -15.9280   20.3490 H   0  0  0  0  0  0  0  0  0  0  0  0
  -26.3940  -15.7460   19.7960 H   0  0  0  0  0  0  0  0  0  0  0  0
  -28.9040  -23.2990   19.8740 C   0  0  0  0  0  2  0  0  0  0  0  0
  -28.2280  -24.6730   20.6300 C   0  0  0  0  0  2  0  0  0  0  0  0
  -28.4050  -26.2040   20.3130 O   0  0  0  0  0  0  0  0  0  0  0  0
  -24.6620  -31.9050   23.2360 C   0  0  0  0  0  0  0  0  0  0  0  0
  -27.3240  -27.1670   20.2960 C   0  0  0  0  0  0  0  0  0  0  0  0
  -23.4990  -30.4860   21.5910 C   0  0  0  0  0  3  0  0  0  0  0  0
  -24.9810  -28.9000   20.2080 C   0  0  0  0  0  0  0  0  0  0  0  0
  -26.0540  -30.7650   21.4620 C   0  0  0  0  0  2  0  0  0  0  0  0
  -26.1480  -29.3650   20.8280 C   0  0  0  0  0  0  0  0  0  0  0  0
  -27.3230  -28.5160   20.8450 C   0  0  0  0  0  3  0  0  0  0  0  0
  -26.1270  -26.8030   19.6460 C   0  0  0  0  0  3  0  0  0  0  0  0
  -24.9830  -27.6350   19.6000 C   0  0  0  0  0  3  0  0  0  0  0  0
  -23.7470  -29.7930   20.2240 C   0  0  0  0  0  2  0  0  0  0  0  0
  -24.7570  -31.0760   22.1520 N   0  0  0  0  0  0  0  0  0  0  0  0
  -23.5650  -32.1880   23.7440 O   0  0  0  0  0  0  0  0  0  0  0  0
  -22.8100  -29.4860   22.5530 C   0  0  0  0  0  0  0  0  0  0  0  0
  -21.4820  -29.3200   22.4180 N   0  0  0  0  0  0  0  0  0  0  0  0
  -23.4730  -28.8610   23.3830 O   0  0  0  0  0  0  0  0  0  0  0  0
  -21.0020  -29.8750   21.7230 H   0  0  0  0  0  0  0  0  0  0  0  0
  -18.0890  -28.1570   22.9320 C   0  0  0  0  0  0  0  0  0  0  0  0
  -20.6520  -28.3870   23.1860 C   0  0  0  0  0  3  0  0  0  0  0  0
  -20.7330  -26.9580   22.5980 C   0  0  0  0  0  2  0  0  0  0  0  0
  -19.6210  -26.6570   21.5880 C   0  0  0  0  0  2  0  0  0  0  0  0
  -18.2460  -26.8110   22.2420 C   0  0  0  0  0  2  0  0  0  0  0  0
  -19.2180  -28.9030   23.3600 C   0  0  0  0  0  0  0  0  0  0  0  0
  -19.0170  -30.1600   23.9680 C   0  0  0  0  0  3  0  0  0  0  0  0
  -17.7190  -30.6730   24.1490 C   0  0  0  0  0  3  0  0  0  0  0  0
  -16.6030  -29.9240   23.7350 C   0  0  0  0  0  3  0  0  0  0  0  0
  -16.7890  -28.6680   23.1320 C   0  0  0  0  0  3  0  0  0  0  0  0
  -25.9250  -32.5570   23.8790 C   0  0  0  0  0  3  0  0  0  0  0  0
  -26.4120  -31.8090   25.1820 C   0  0  1  0  0  0  0  0  0  0  0  0
  -25.2940  -31.5840   26.2260 C   0  0  0  0  0  1  0  0  0  0  0  0
  -27.0110  -30.4280   24.8320 C   0  0  0  0  0  1  0  0  0  0  0  0
  -27.5410  -32.6210   25.8590 C   0  0  0  0  0  1  0  0  0  0  0  0
  -25.6000  -33.9590   24.1860 N   0  0  0  0  0  0  0  0  0  0  0  0
  -25.9520  -35.0090   23.4300 C   0  0  0  0  0  0  0  0  0  0  0  0
  -26.6480  -34.8970   22.4180 O   0  0  0  0  0  0  0  0  0  0  0  0
  -24.9840  -34.1180   24.9680 H   0  0  0  0  0  0  0  0  0  0  0  0
  -24.2390  -36.8060   23.0140 C   0  0  0  0  0  1  0  0  0  0  0  0
  -25.4540  -36.4010   23.8650 C   0  0  0  0  0  3  0  0  0  0  0  0
  -27.5590  -37.2930   24.7620 C   0  0  0  0  0  1  0  0  0  0  0  0
  -26.4920  -37.4520   23.7780 N   0  0  0  0  0  0  0  0  0  0  0  0
  -26.0830  -38.3750   23.9000 H   0  0  0  0  0  0  0  0  0  0  0  0
  2  5  1  0
  2  3  2  0
  3  6  1  0
  4  6  1  0
  4  7  1  0
  5  4  2  0
  6  1  1  0
  7 17  1  0
  8 17  1  0
  9 14  1  0
 10 11  1  0
 10  9  1  0
 12 11  1  0
 12 21  1  0
 12 13  1  0
 14  8  1  0
 14 13  1  0
 15  8  2  0
 17 16  1  0
 18 19  2  0
 19 38  1  0
 20 19  1  0
 20 23  1  0
 21 22  1  0
 21 18  1  0
 22 20  2  0
 23 24  1  0
 24 25  2  0
 26 29  1  0
 26 25  1  0
 27 26  2  0
 28 27  1  0
 28 23  2  0
 29 30  1  0
 30 35  2  0
 30 31  1  0
 31 32  2  0
 32 33  1  0
 33 37  1  0
 34 33  2  0
 35 34  1  0
 36 35  1  0
 38 39  1  0
 39 42  1  0
 39 41  1  0
 40 38  2  0
 43 44  1  0
 43 18  1  0
 45 43  1  0
 46  1  1  0
 46 47  1  0
 48 47  1  0
 49 60  2  0
 50 48  1  0
 50 55  1  0
 51 59  1  0
 51 61  1  0
 52 58  1  0
 52 54  1  0
 53 59  1  0
 54 55  2  0
 54 53  1  0
 56 50  2  0
 57 56  1  0
 57 52  2  0
 58 51  1  0
 59 49  1  0
 61 63  2  0
 62 61  1  0
 64 62  1  0
 65 74  2  0
 65 70  1  0
 66 62  1  0
 66 70  1  0
 67 66  1  0
 68 69  1  0
 68 67  1  0
 69 65  1  0
 70 71  2  0
 71 72  1  0
 73 72  2  0
 74 73  1  0
 75 49  1  0
 75 80  1  0
 75 76  1  0
 76 79  1  1
 76 77  1  0
 78 76  1  0
 80 83  1  0
 81 85  1  0
 81 80  1  0
 82 81  2  0
 85 84  1  0
 87 85  1  0
 87 88  1  0
 87 86  1  0
M  ISO  4   8 100  17 100  47 101  48 101
M  END
>  <TORSDO>  (92) 
F 20

>  <SCORE>  (92) 
-14.546

>  <name>  (92) 
91

>  <ligand_id>  (92) 
91

>  <original_smiles>  (92) 
[H]c1nc(C([H])([H])N(C(=O)N2C([H])([H])C([H])([H])C([H])([H])C([H])(n3nc(-c4c([H])c([H])c(Oc5c([H])c([H])c(F)c([H])c5F)c([H])c4[H])c(C(=O)N([H])[H])c3N([H])[H])C2([H])[H])C([H])([H])[H])n(C([H])([H])C([H])([H])C([H])([H])Oc2c([H])c([H])c3c(c2[H])C([H])([H])N(C(=O)C([H])(N([H])C(=O)C([H])(N([H])C([H])([H])[H])C([H])([H])[H])C(C([H])([H])[H])(C([H])([H])[H])C([H])([H])[H])C([H])(C(=O)N([H])C2([H])c4c([H])c([H])c([H])c([H])c4C([H])([H])C([H])([H])C2([H])[H])C3([H])[H])c1[H]

>  <smiles>  (92) 
[H]c1nc(C([H])([H])N(C(=O)N2C([H])([H])C([H])([H])C([H])([H])C([H])(n3nc(-c4c([H])c([H])c(Oc5c([H])c([H])c(F)c([H])c5F)c([H])c4[H])c(C(=O)N([H])[H])c3N([H])[H])C2([H])[H])C([H])([H])[H])n(C([H])([H])C([H])([H])C([H])([H])Oc2c([H])c([H])c3c(c2[H])C([H])([H])N(C(=O)C([H])(N([H])C(=O)C([H])(N([H])C([H])([H])[H])C([H])([H])[H])C(C([H])([H])[H])(C([H])([H])[H])C([H])([H])[H])C([H])(C(=O)N([H])C2([H])c4c([H])c([H])c([H])c([H])c4C([H])([H])C([H])([H])C2([H])[H])C3([H])[H])c1[H]

$$$$
92:0:0
     RDKit          3D

 89 97  0  0  1  0  0  0  0  0999 V2000
  -30.4280  -22.9360   21.1070 C   0  0  0  0  0  1  0  0  0  0  0  0
  -30.4510  -23.0360   18.6120 C   0  0  0  0  0  1  0  0  0  0  0  0
  -29.5290  -22.8120   19.8470 C   0  0  1  0  0  0  0  0  0  0  0  0
  -29.2710  -19.6890   19.7660 C   0  0  0  0  0  0  0  0  0  0  0  0
  -28.0630  -19.1190   19.6860 N   0  0  0  0  0  0  0  0  0  0  0  0
  -27.1250  -20.1040   19.6910 N   0  0  0  0  0  0  0  0  0  0  0  0
  -27.6470  -21.2810   19.7500 N   0  0  0  0  0  0  0  0  0  0  0  0
  -29.0090  -21.2010   19.7870 N   0  0  0  0  0  0  0  0  0  0  0  0
  -30.4580  -18.4110   19.7750 C   0  0  0  0  0  2  0  0  0  0  0  0
  -30.9260  -15.4770   19.9230 C   0  0  0  0  0  0  0  0  0  0  0  0
  -30.8150  -12.9940   19.1130 C   0  0  0  0  0  2  0  0  0  0  0  0
  -29.8670  -12.7890   17.9010 C   0  0  0  0  0  2  0  0  0  0  0  0
  -28.4320  -12.5250   18.3890 C   0  0  0  0  0  2  0  0  0  0  0  0
  -28.0300  -13.5010   19.5230 C   0  0  0  0  0  3  0  0  0  0  0  0
  -29.1170  -13.6660   20.6110 C   0  0  0  0  0  2  0  0  0  0  0  0
  -30.3280  -14.1700   19.9360 N   0  0  0  0  0  0  0  0  0  0  0  0
  -32.0820  -15.4430   19.4700 O   0  0  0  0  0  0  0  0  0  0  0  0
  -29.8590  -16.8120   21.6520 C   0  0  0  0  0  1  0  0  0  0  0  0
  -30.2680  -16.7910   20.2370 N   0  0  0  0  0  0  0  0  0  0  0  0
  -25.7320  -14.1150   20.4340 C   0  0  0  0  0  0  0  0  0  0  0  0
  -24.6550  -13.3640   20.8150 C   0  0  0  0  0  0  0  0  0  0  0  0
  -25.0540  -12.0010   20.6860 C   0  0  0  0  0  0  0  0  0  0  0  0
  -26.7170  -13.2080   20.0810 N   0  0  0  0  0  0  0  0  0  0  0  0
  -26.3260  -11.9260   20.2990 N   0  0  0  0  0  0  0  0  0  0  0  0
  -24.2800  -10.7600   20.8490 C   0  0  0  0  0  0  0  0  0  0  0  0
  -24.6720   -9.7610   21.7600 C   0  0  0  0  0  3  0  0  0  0  0  0
  -23.9030   -8.5870   21.9120 C   0  0  0  0  0  3  0  0  0  0  0  0
  -22.7240   -8.4100   21.1550 C   0  0  0  0  0  0  0  0  0  0  0  0
  -22.3480   -9.4000   20.2280 C   0  0  0  0  0  3  0  0  0  0  0  0
  -23.1180  -10.5640   20.0740 C   0  0  0  0  0  3  0  0  0  0  0  0
  -21.9250   -7.2960   21.2210 O   0  0  0  0  0  0  0  0  0  0  0  0
  -21.7810   -6.5750   22.3790 C   0  0  0  0  0  0  0  0  0  0  0  0
  -21.3150   -7.1670   23.5720 C   0  0  0  0  0  3  0  0  0  0  0  0
  -21.1200   -6.3760   24.7210 C   0  0  0  0  0  3  0  0  0  0  0  0
  -21.3800   -4.9950   24.6790 C   0  0  0  0  0  0  0  0  0  0  0  0
  -21.8330   -4.4000   23.4910 C   0  0  0  0  0  3  0  0  0  0  0  0
  -22.0320   -5.1890   22.3410 C   0  0  0  0  0  0  0  0  0  0  0  0
  -22.4540   -4.6060   21.1930 F   0  0  0  0  0  0  0  0  0  0  0  0
  -21.1820   -4.2330   25.7810 F   0  0  0  0  0  0  0  0  0  0  0  0
  -23.2960  -13.8980   21.1800 C   0  0  0  0  0  0  0  0  0  0  0  0
  -22.5770  -13.2000   22.0520 N   0  0  0  0  0  0  0  0  0  0  0  0
  -22.8840  -14.9620   20.7250 O   0  0  0  0  0  0  0  0  0  0  0  0
  -22.9160  -12.3370   22.4420 H   0  0  0  0  0  0  0  0  0  0  0  0
  -21.6660  -13.5460   22.3300 H   0  0  0  0  0  0  0  0  0  0  0  0
  -25.9460  -15.4840   20.3230 N   0  0  0  0  0  0  0  0  0  0  0  0
  -25.2140  -16.1650   20.5110 H   0  0  0  0  0  0  0  0  0  0  0  0
  -26.7970  -15.9120   19.9860 H   0  0  0  0  0  0  0  0  0  0  0  0
  -28.4300  -24.2790   19.9150 C   0  0  0  0  0  2  0  0  0  0  0  0
  -28.5980  -25.9380   19.9750 O   0  0  0  0  0  0  0  0  0  0  0  0
  -24.8570  -31.7120   23.1950 C   0  0  0  0  0  0  0  0  0  0  0  0
  -27.5440  -27.0110   19.9840 C   0  0  0  0  0  0  0  0  0  0  0  0
  -23.7160  -30.3860   21.4640 C   0  0  0  0  0  3  0  0  0  0  0  0
  -25.2080  -28.8660   19.9950 C   0  0  0  0  0  0  0  0  0  0  0  0
  -26.2810  -30.6410   21.3690 C   0  0  0  0  0  2  0  0  0  0  0  0
  -26.3840  -29.2610   20.6480 C   0  0  0  0  0  0  0  0  0  0  0  0
  -27.5440  -28.3590   20.6120 C   0  0  0  0  0  3  0  0  0  0  0  0
  -26.3350  -26.7790   19.2900 C   0  0  0  0  0  3  0  0  0  0  0  0
  -25.2110  -27.6500   19.2910 C   0  0  0  0  0  3  0  0  0  0  0  0
  -23.9790  -29.7730   20.0620 C   0  0  0  0  0  2  0  0  0  0  0  0
  -24.9720  -30.9400   22.0650 N   0  0  0  0  0  0  0  0  0  0  0  0
  -23.7550  -31.9520   23.7130 O   0  0  0  0  0  0  0  0  0  0  0  0
  -23.0120  -29.3330   22.3680 C   0  0  0  0  0  0  0  0  0  0  0  0
  -21.6780  -29.1880   22.2390 N   0  0  0  0  0  0  0  0  0  0  0  0
  -23.6740  -28.6500   23.1520 O   0  0  0  0  0  0  0  0  0  0  0  0
  -21.2000  -29.8010   21.5940 H   0  0  0  0  0  0  0  0  0  0  0  0
  -18.2740  -28.0120   22.7240 C   0  0  0  0  0  0  0  0  0  0  0  0
  -20.8490  -28.2040   22.9410 C   0  0  0  0  0  3  0  0  0  0  0  0
  -20.9030  -26.8250   22.2420 C   0  0  0  0  0  2  0  0  0  0  0  0
  -19.7690  -26.6160   21.2330 C   0  0  0  0  0  2  0  0  0  0  0  0
  -18.4050  -26.7280   21.9230 C   0  0  0  0  0  2  0  0  0  0  0  0
  -19.4210  -28.7150   23.1860 C   0  0  0  0  0  0  0  0  0  0  0  0
  -19.2390  -29.9210   23.8980 C   0  0  0  0  0  3  0  0  0  0  0  0
  -17.9480  -30.4240   24.1460 C   0  0  0  0  0  3  0  0  0  0  0  0
  -16.8190  -29.7170   23.6990 C   0  0  0  0  0  3  0  0  0  0  0  0
  -16.9840  -28.5130   22.9940 C   0  0  0  0  0  3  0  0  0  0  0  0
  -26.1050  -32.3420   23.8900 C   0  0  0  0  0  3  0  0  0  0  0  0
  -26.5930  -31.5180   25.1440 C   0  0  1  0  0  0  0  0  0  0  0  0
  -25.4800  -31.2180   26.1750 C   0  0  0  0  0  1  0  0  0  0  0  0
  -27.1990  -30.1670   24.7110 C   0  0  0  0  0  1  0  0  0  0  0  0
  -27.7250  -32.2850   25.8660 C   0  0  0  0  0  1  0  0  0  0  0  0
  -25.7630  -33.7170   24.2980 N   0  0  0  0  0  0  0  0  0  0  0  0
  -26.0810  -34.8240   23.6120 C   0  0  0  0  0  0  0  0  0  0  0  0
  -26.7550  -34.7940   22.5790 O   0  0  0  0  0  0  0  0  0  0  0  0
  -25.1930  -33.8100   25.1250 H   0  0  0  0  0  0  0  0  0  0  0  0
  -24.3230  -36.6050   23.3580 C   0  0  0  0  0  1  0  0  0  0  0  0
  -25.5720  -36.1790   24.1490 C   0  0  0  0  0  3  0  0  0  0  0  0
  -27.6930  -37.0480   25.0290 C   0  0  0  0  0  1  0  0  0  0  0  0
  -26.5890  -37.2550   24.0960 N   0  0  0  0  0  0  0  0  0  0  0  0
  -26.1720  -38.1620   24.2950 H   0  0  0  0  0  0  0  0  0  0  0  0
  3  2  1  6
  3 48  1  0
  3  1  1  0
  4  9  1  0
  4  8  1  0
  5  6  1  0
  5  4  2  0
  6  7  2  0
  7  8  1  0
  8  3  1  0
  9 19  1  0
 10 16  1  0
 10 19  1  0
 11 16  1  0
 12 13  1  0
 12 11  1  0
 14 13  1  0
 14 23  1  0
 14 15  1  0
 16 15  1  0
 17 10  2  0
 19 18  1  0
 20 21  2  0
 21 40  1  0
 22 21  1  0
 22 25  1  0
 23 24  1  0
 23 20  1  0
 24 22  2  0
 25 26  1  0
 26 27  2  0
 28 31  1  0
 28 27  1  0
 29 28  2  0
 30 29  1  0
 30 25  2  0
 31 32  1  0
 32 33  1  0
 33 34  2  0
 35 34  1  0
 35 39  1  0
 36 35  2  0
 37 32  2  0
 37 36  1  0
 38 37  1  0
 40 41  1  0
 41 44  1  0
 41 43  1  0
 42 40  2  0
 45 20  1  0
 45 46  1  0
 47 45  1  0
 48 49  1  0
 49 51  1  0
 50 61  2  0
 51 56  1  0
 52 60  1  0
 52 62  1  0
 53 59  1  0
 53 55  1  0
 54 60  1  0
 55 54  1  0
 56 55  2  0
 57 58  1  0
 57 51  2  0
 58 53  2  0
 59 52  1  0
 60 50  1  0
 62 64  2  0
 63 62  1  0
 65 63  1  0
 66 75  2  0
 66 71  1  0
 67 63  1  0
 67 71  1  0
 68 67  1  0
 69 70  1  0
 69 68  1  0
 70 66  1  0
 71 72  2  0
 72 73  1  0
 74 73  2  0
 75 74  1  0
 76 50  1  0
 76 81  1  0
 76 77  1  0
 77 80  1  1
 77 78  1  0
 79 77  1  0
 81 84  1  0
 82 86  1  0
 82 81  1  0
 83 82  2  0
 86 85  1  0
 88 86  1  0
 88 89  1  0
 88 87  1  0
M  ISO  4  10 100  19 100  48 101  49 101
M  END
>  <TORSDO>  (93) 
F 19

>  <SCORE>  (93) 
-15.597

>  <name>  (93) 
92

>  <ligand_id>  (93) 
92

>  <original_smiles>  (93) 
[H]c1c([H])c([H])c2c(c1[H])C([H])([H])C([H])([H])C([H])([H])C2([H])N([H])C(=O)C1([H])N(C(=O)C([H])(N([H])C(=O)C([H])(N([H])C([H])([H])[H])C([H])([H])[H])C(C([H])([H])[H])(C([H])([H])[H])C([H])([H])[H])C([H])([H])c2c([H])c(OC([H])([H])C(n3nnnc3C([H])([H])N(C(=O)N3C([H])([H])C([H])([H])C([H])([H])C([H])(n4nc(-c5c([H])c([H])c(Oc6c([H])c([H])c(F)c([H])c6F)c([H])c5[H])c(C(=O)N([H])[H])c4N([H])[H])C3([H])[H])C([H])([H])[H])(C([H])([H])[H])C([H])([H])[H])c([H])c([H])c2C1([H])[H]

>  <smiles>  (93) 
[H]c1c([H])c([H])c2c(c1[H])C([H])([H])C([H])([H])C([H])([H])C2([H])N([H])C(=O)C1([H])N(C(=O)C([H])(N([H])C(=O)C([H])(N([H])C([H])([H])[H])C([H])([H])[H])C(C([H])([H])[H])(C([H])([H])[H])C([H])([H])[H])C([H])([H])c2c([H])c(OC([H])([H])C(n3nnnc3C([H])([H])N(C(=O)N3C([H])([H])C([H])([H])C([H])([H])C([H])(n4nc(-c5c([H])c([H])c(Oc6c([H])c([H])c(F)c([H])c6F)c([H])c5[H])c(C(=O)N([H])[H])c4N([H])[H])C3([H])[H])C([H])([H])[H])(C([H])([H])[H])C([H])([H])[H])c([H])c([H])c2C1([H])[H]

$$$$
93:0:0
     RDKit          3D

 89 97  0  0  1  0  0  0  0  0999 V2000
  -29.8850  -18.7370   20.0860 C   0  0  0  0  0  0  0  0  0  0  0  0
  -29.2090  -20.8100   20.2750 C   0  0  0  0  0  3  0  0  0  0  0  0
  -28.2710  -21.0110   17.9300 C   0  0  0  0  0  1  0  0  0  0  0  0
  -29.8350  -19.8190   20.9750 N   0  0  0  0  0  0  0  0  0  0  0  0
  -29.3550  -19.0500   18.9030 N   0  0  0  0  0  2  0  0  0  0  0  0
  -28.9420  -20.3530   19.0370 N   0  0  0  0  0  0  0  0  0  0  0  0
  -30.6860  -17.3870   20.2660 C   0  0  0  0  0  2  0  0  0  0  0  0
  -30.7020  -14.8080   20.1040 C   0  0  0  0  0  0  0  0  0  0  0  0
  -30.4160  -12.5990   18.9380 C   0  0  0  0  0  2  0  0  0  0  0  0
  -29.4060  -12.7150   17.7740 C   0  0  0  0  0  2  0  0  0  0  0  0
  -27.9580  -12.5200   18.2720 C   0  0  0  0  0  2  0  0  0  0  0  0
  -27.6650  -13.3280   19.5630 C   0  0  0  0  0  3  0  0  0  0  0  0
  -28.7860  -13.1270   20.6020 C   0  0  0  0  0  2  0  0  0  0  0  0
  -30.0320  -13.5970   19.9740 N   0  0  0  0  0  0  0  0  0  0  0  0
  -31.8510  -14.8720   19.6500 O   0  0  0  0  0  0  0  0  0  0  0  0
  -29.0390  -16.0650   21.5270 C   0  0  0  0  0  1  0  0  0  0  0  0
  -30.0540  -16.0030   20.4710 N   0  0  0  0  0  0  0  0  0  0  0  0
  -25.3030  -13.8940   20.3990 C   0  0  0  0  0  0  0  0  0  0  0  0
  -24.2630  -13.1050   20.8110 C   0  0  0  0  0  0  0  0  0  0  0  0
  -24.7370  -11.7600   20.7430 C   0  0  0  0  0  0  0  0  0  0  0  0
  -26.3450  -13.0260   20.1090 N   0  0  0  0  0  0  0  0  0  0  0  0
  -26.0110  -11.7370   20.3740 N   0  0  0  0  0  0  0  0  0  0  0  0
  -24.0310  -10.4890   20.9480 C   0  0  0  0  0  0  0  0  0  0  0  0
  -24.4890   -9.5290   21.8780 C   0  0  0  0  0  3  0  0  0  0  0  0
  -23.7800   -8.3240   22.0690 C   0  0  0  0  0  3  0  0  0  0  0  0
  -22.5990   -8.0710   21.3320 C   0  0  0  0  0  0  0  0  0  0  0  0
  -22.1610   -9.0190   20.3910 C   0  0  0  0  0  3  0  0  0  0  0  0
  -22.8700  -10.2150   20.1970 C   0  0  0  0  0  3  0  0  0  0  0  0
  -21.8580   -6.9170   21.4350 O   0  0  0  0  0  0  0  0  0  0  0  0
  -21.7990   -6.2040   22.6050 C   0  0  0  0  0  0  0  0  0  0  0  0
  -21.3180   -6.7750   23.8040 C   0  0  0  0  0  3  0  0  0  0  0  0
  -21.2090   -5.9850   24.9660 C   0  0  0  0  0  3  0  0  0  0  0  0
  -21.5690   -4.6240   24.9300 C   0  0  0  0  0  0  0  0  0  0  0  0
  -22.0430   -4.0530   23.7360 C   0  0  0  0  0  3  0  0  0  0  0  0
  -22.1550   -4.8390   22.5770 C   0  0  0  0  0  0  0  0  0  0  0  0
  -22.5910   -4.2780   21.4230 F   0  0  0  0  0  0  0  0  0  0  0  0
  -21.4580   -3.8630   26.0440 F   0  0  0  0  0  0  0  0  0  0  0  0
  -22.8760  -13.5660   21.1540 C   0  0  0  0  0  0  0  0  0  0  0  0
  -22.1920  -12.8510   22.0410 N   0  0  0  0  0  0  0  0  0  0  0  0
  -22.4090  -14.5970   20.6730 O   0  0  0  0  0  0  0  0  0  0  0  0
  -22.5840  -12.0180   22.4540 H   0  0  0  0  0  0  0  0  0  0  0  0
  -21.2640  -13.1420   22.3130 H   0  0  0  0  0  0  0  0  0  0  0  0
  -25.4390  -15.2670   20.2250 N   0  0  0  0  0  0  0  0  0  0  0  0
  -24.6690  -15.9080   20.3840 H   0  0  0  0  0  0  0  0  0  0  0  0
  -26.2620  -15.7220   19.8500 H   0  0  0  0  0  0  0  0  0  0  0  0
  -28.6320  -22.1890   20.8010 C   0  0  0  0  0  2  0  0  0  0  0  0
  -29.1850  -23.6780   20.4490 C   0  0  0  0  0  3  0  0  0  0  0  0
  -28.1120  -24.8960   20.5250 C   0  0  0  0  0  3  0  0  0  0  0  0
  -28.4160  -26.3760   20.4160 O   0  0  0  0  0  0  0  0  0  0  0  0
  -24.6550  -31.9350   23.2610 C   0  0  0  0  0  0  0  0  0  0  0  0
  -27.3240  -27.2800   20.3370 C   0  0  0  0  0  0  0  0  0  0  0  0
  -23.4870  -30.5030   21.6320 C   0  0  0  0  0  3  0  0  0  0  0  0
  -24.9650  -28.9340   20.2550 C   0  0  0  0  0  0  0  0  0  0  0  0
  -26.0330  -30.8120   21.4880 C   0  0  0  0  0  2  0  0  0  0  0  0
  -26.1280  -29.4190   20.8660 C   0  0  0  0  0  0  0  0  0  0  0  0
  -27.3110  -28.6060   20.8950 C   0  0  0  0  0  3  0  0  0  0  0  0
  -26.1340  -26.8760   19.6850 C   0  0  0  0  0  3  0  0  0  0  0  0
  -24.9740  -27.6690   19.6560 C   0  0  0  0  0  3  0  0  0  0  0  0
  -23.7270  -29.8090   20.2670 C   0  0  0  0  0  2  0  0  0  0  0  0
  -24.7430  -31.1050   22.1820 N   0  0  0  0  0  0  0  0  0  0  0  0
  -23.5610  -32.2190   23.7710 O   0  0  0  0  0  0  0  0  0  0  0  0
  -22.8120  -29.4980   22.5980 C   0  0  0  0  0  0  0  0  0  0  0  0
  -21.4930  -29.2930   22.4390 N   0  0  0  0  0  0  0  0  0  0  0  0
  -23.4750  -28.9070   23.4530 O   0  0  0  0  0  0  0  0  0  0  0  0
  -21.0120  -29.8260   21.7260 H   0  0  0  0  0  0  0  0  0  0  0  0
  -18.1230  -28.0440   22.8800 C   0  0  0  0  0  0  0  0  0  0  0  0
  -20.6670  -28.3620   23.2130 C   0  0  0  0  0  3  0  0  0  0  0  0
  -20.8110  -26.9160   22.6830 C   0  0  0  0  0  2  0  0  0  0  0  0
  -19.7450  -26.5440   21.6480 C   0  0  0  0  0  2  0  0  0  0  0  0
  -18.3420  -26.6800   22.2490 C   0  0  0  0  0  2  0  0  0  0  0  0
  -19.2150  -28.8400   23.3180 C   0  0  0  0  0  0  0  0  0  0  0  0
  -18.9550  -30.1150   23.8670 C   0  0  0  0  0  3  0  0  0  0  0  0
  -17.6380  -30.5950   23.9820 C   0  0  0  0  0  3  0  0  0  0  0  0
  -16.5600  -29.7980   23.5590 C   0  0  0  0  0  3  0  0  0  0  0  0
  -16.8040  -28.5240   23.0150 C   0  0  0  0  0  3  0  0  0  0  0  0
  -25.9220  -32.5880   23.8920 C   0  0  0  0  0  3  0  0  0  0  0  0
  -26.4270  -31.8400   25.1850 C   0  0  1  0  0  0  0  0  0  0  0  0
  -25.3230  -31.5980   26.2410 C   0  0  0  0  0  1  0  0  0  0  0  0
  -27.0370  -30.4640   24.8230 C   0  0  0  0  0  1  0  0  0  0  0  0
  -27.5530  -32.6610   25.8570 C   0  0  0  0  0  1  0  0  0  0  0  0
  -25.5930  -33.9880   24.1990 N   0  0  0  0  0  0  0  0  0  0  0  0
  -25.9240  -35.0360   23.4340 C   0  0  0  0  0  0  0  0  0  0  0  0
  -26.6090  -34.9280   22.4120 O   0  0  0  0  0  0  0  0  0  0  0  0
  -24.9880  -34.1470   24.9910 H   0  0  0  0  0  0  0  0  0  0  0  0
  -24.1940  -36.8180   23.0280 C   0  0  0  0  0  1  0  0  0  0  0  0
  -25.4190  -36.4260   23.8680 C   0  0  0  0  0  3  0  0  0  0  0  0
  -27.5280  -37.3350   24.7420 C   0  0  0  0  0  1  0  0  0  0  0  0
  -26.4470  -37.4850   23.7700 N   0  0  0  0  0  0  0  0  0  0  0  0
  -26.0310  -38.4030   23.8970 H   0  0  0  0  0  0  0  0  0  0  0  0
  1  7  1  0
  1  4  2  0
  2 46  1  0
  2  4  1  0
  3  6  1  0
  5  6  1  0
  5  1  1  0
  6  2  1  0
  7 17  1  0
  8 17  1  0
  9 14  1  0
 10 11  1  0
 10  9  1  0
 12 11  1  0
 12 21  1  0
 12 13  1  0
 14  8  1  0
 14 13  1  0
 15  8  2  0
 17 16  1  0
 18 19  2  0
 19 38  1  0
 20 19  1  0
 20 23  1  0
 21 22  1  0
 21 18  1  0
 22 20  2  0
 23 24  1  0
 24 25  2  0
 26 29  1  0
 26 25  1  0
 27 26  2  0
 28 27  1  0
 28 23  2  0
 29 30  1  0
 30 31  1  0
 31 32  2  0
 33 32  1  0
 33 37  1  0
 34 33  2  0
 35 30  2  0
 35 34  1  0
 36 35  1  0
 38 39  1  0
 39 42  1  0
 39 41  1  0
 40 38  2  0
 43 44  1  0
 43 18  1  0
 45 43  1  0
 47 48  2  0
 47 46  1  0
 49 48  1  0
 50 61  2  0
 51 49  1  0
 51 56  1  0
 52 60  1  0
 52 62  1  0
 53 59  1  0
 53 55  1  0
 54 60  1  0
 55 56  2  0
 55 54  1  0
 57 51  2  0
 58 57  1  0
 58 53  2  0
 59 52  1  0
 60 50  1  0
 62 64  2  0
 63 62  1  0
 65 63  1  0
 66 75  2  0
 66 71  1  0
 67 63  1  0
 67 71  1  0
 68 67  1  0
 69 70  1  0
 69 68  1  0
 70 66  1  0
 71 72  2  0
 72 73  1  0
 74 73  2  0
 75 74  1  0
 76 50  1  0
 76 81  1  0
 76 77  1  0
 77 80  1  1
 77 78  1  0
 79 77  1  0
 81 84  1  0
 82 86  1  0
 82 81  1  0
 83 82  2  0
 86 85  1  0
 88 86  1  0
 88 89  1  0
 88 87  1  0
M  ISO  4   8 100  17 100  48 101  49 101
M  END
>  <TORSDO>  (94) 
F 20

>  <SCORE>  (94) 
-13.393

>  <name>  (94) 
93

>  <ligand_id>  (94) 
93

>  <original_smiles>  (94) 
[H]c1c([H])c([H])c2c(c1[H])C([H])([H])C([H])([H])C([H])([H])C2([H])N([H])C(=O)C1([H])N(C(=O)C([H])(N([H])C(=O)C([H])(N([H])C([H])([H])[H])C([H])([H])[H])C(C([H])([H])[H])(C([H])([H])[H])C([H])([H])[H])C([H])([H])c2c([H])c(OC([H])([H])C([H])([H])C([H])([H])c3nc(C([H])([H])N(C(=O)N4C([H])([H])C([H])([H])C([H])([H])C([H])(n5nc(-c6c([H])c([H])c(Oc7c([H])c([H])c(F)c([H])c7F)c([H])c6[H])c(C(=O)N([H])[H])c5N([H])[H])C4([H])[H])C([H])([H])[H])nn3C([H])([H])[H])c([H])c([H])c2C1([H])[H]

>  <smiles>  (94) 
[H]c1c([H])c([H])c2c(c1[H])C([H])([H])C([H])([H])C([H])([H])C2([H])N([H])C(=O)C1([H])N(C(=O)C([H])(N([H])C(=O)C([H])(N([H])C([H])([H])[H])C([H])([H])[H])C(C([H])([H])[H])(C([H])([H])[H])C([H])([H])[H])C([H])([H])c2c([H])c(OC([H])([H])C([H])([H])C([H])([H])c3nc(C([H])([H])N(C(=O)N4C([H])([H])C([H])([H])C([H])([H])C([H])(n5nc(-c6c([H])c([H])c(Oc7c([H])c([H])c(F)c([H])c7F)c([H])c6[H])c(C(=O)N([H])[H])c5N([H])[H])C4([H])[H])C([H])([H])[H])nn3C([H])([H])[H])c([H])c([H])c2C1([H])[H]

$$$$
94:0:0
     RDKit          3D

 93101  0  0  1  0  0  0  0  0999 V2000
  -30.2720  -20.9500   21.3160 C   0  0  0  0  0  3  0  0  0  0  0  0
  -29.3640  -21.2890   20.3410 C   0  0  0  0  0  0  0  0  0  0  0  0
  -29.8280  -18.9910   20.2350 C   0  0  0  0  0  3  0  0  0  0  0  0
  -30.5150  -19.5780   21.2610 N   0  0  0  0  0  0  0  0  0  0  0  0
  -29.1310  -20.0500   19.7180 N   0  0  0  0  0  0  0  0  0  0  0  0
  -28.5230  -19.9480   18.9150 H   0  0  0  0  0  0  0  0  0  0  0  0
  -31.2720  -19.4050   23.6320 C   0  0  0  0  0  1  0  0  0  0  0  0
  -32.9270  -19.1510   21.7710 C   0  0  0  0  0  1  0  0  0  0  0  0
  -31.4610  -18.9070   22.1810 C   0  0  0  0  0  3  0  0  0  0  0  0
  -29.0020  -17.4110   18.2720 C   0  0  0  0  0  1  0  0  0  0  0  0
  -29.9300  -17.5380   19.5420 C   0  0  0  0  0  3  0  0  0  0  0  0
  -30.5610  -15.0670   20.2080 C   0  0  0  0  0  0  0  0  0  0  0  0
  -30.4020  -12.7520   19.2910 C   0  0  0  0  0  2  0  0  0  0  0  0
  -29.4400  -12.7340   18.0820 C   0  0  0  0  0  2  0  0  0  0  0  0
  -27.9820  -12.5560   18.5470 C   0  0  0  0  0  2  0  0  0  0  0  0
  -27.5980  -13.4560   19.7430 C   0  0  0  0  0  3  0  0  0  0  0  0
  -28.6870  -13.4360   20.8430 C   0  0  0  0  0  2  0  0  0  0  0  0
  -29.9550  -13.8230   20.2090 N   0  0  0  0  0  0  0  0  0  0  0  0
  -31.7370  -15.1540   19.8500 O   0  0  0  0  0  0  0  0  0  0  0  0
  -29.7860  -16.2200   20.3310 N   0  0  0  0  0  0  0  0  0  0  0  0
  -28.8530  -16.0640   20.6790 H   0  0  0  0  0  0  0  0  0  0  0  0
  -25.2240  -13.9850   20.5470 C   0  0  0  0  0  0  0  0  0  0  0  0
  -24.1720  -13.1890   20.8980 C   0  0  0  0  0  0  0  0  0  0  0  0
  -24.6530  -11.8420   20.8340 C   0  0  0  0  0  0  0  0  0  0  0  0
  -26.2710  -13.1310   20.2600 N   0  0  0  0  0  0  0  0  0  0  0  0
  -25.9380  -11.8340   20.5030 N   0  0  0  0  0  0  0  0  0  0  0  0
  -23.9500  -10.5660   21.0100 C   0  0  0  0  0  0  0  0  0  0  0  0
  -24.3960   -9.6010   21.9420 C   0  0  0  0  0  3  0  0  0  0  0  0
  -23.6890   -8.3920   22.1180 C   0  0  0  0  0  3  0  0  0  0  0  0
  -22.5240   -8.1310   21.3560 C   0  0  0  0  0  0  0  0  0  0  0  0
  -22.0950   -9.0850   20.4160 C   0  0  0  0  0  3  0  0  0  0  0  0
  -22.8010  -10.2860   20.2390 C   0  0  0  0  0  3  0  0  0  0  0  0
  -21.7890   -6.9680   21.4330 O   0  0  0  0  0  0  0  0  0  0  0  0
  -21.7200   -6.2360   22.5900 C   0  0  0  0  0  0  0  0  0  0  0  0
  -21.2040   -6.7830   23.7850 C   0  0  0  0  0  3  0  0  0  0  0  0
  -21.0780   -5.9770   24.9350 C   0  0  0  0  0  3  0  0  0  0  0  0
  -21.4650   -4.6230   24.8900 C   0  0  0  0  0  0  0  0  0  0  0  0
  -21.9760   -4.0740   23.6990 C   0  0  0  0  0  3  0  0  0  0  0  0
  -22.1000   -4.8790   22.5520 C   0  0  0  0  0  0  0  0  0  0  0  0
  -22.5680   -4.3400   21.4010 F   0  0  0  0  0  0  0  0  0  0  0  0
  -21.3400   -3.8470   25.9900 F   0  0  0  0  0  0  0  0  0  0  0  0
  -22.7720  -13.6300   21.2130 C   0  0  0  0  0  0  0  0  0  0  0  0
  -22.0750  -12.8930   22.0650 N   0  0  0  0  0  0  0  0  0  0  0  0
  -22.3060  -14.6700   20.7410 O   0  0  0  0  0  0  0  0  0  0  0  0
  -22.4730  -12.0590   22.4750 H   0  0  0  0  0  0  0  0  0  0  0  0
  -21.1390  -13.1740   22.3280 H   0  0  0  0  0  0  0  0  0  0  0  0
  -25.3930  -15.3650   20.4220 N   0  0  0  0  0  0  0  0  0  0  0  0
  -24.6760  -16.0410   20.6670 H   0  0  0  0  0  0  0  0  0  0  0  0
  -26.2780  -15.7960   20.1970 H   0  0  0  0  0  0  0  0  0  0  0  0
  -28.5970  -22.6140   19.9820 C   0  0  0  0  0  2  0  0  0  0  0  0
  -29.1090  -24.1230   20.2130 C   0  0  0  0  0  2  0  0  0  0  0  0
  -27.9930  -25.2330   19.8790 C   0  0  0  0  0  2  0  0  0  0  0  0
  -28.1660  -26.6840   20.1250 O   0  0  0  0  0  0  0  0  0  0  0  0
  -24.4960  -32.0670   23.2260 C   0  0  0  0  0  0  0  0  0  0  0  0
  -27.0240  -27.5120   20.1020 C   0  0  0  0  0  0  0  0  0  0  0  0
  -23.2400  -30.6680   21.6240 C   0  0  0  0  0  3  0  0  0  0  0  0
  -24.6480  -29.1210   20.1590 C   0  0  0  0  0  0  0  0  0  0  0  0
  -25.7660  -30.9890   21.3650 C   0  0  0  0  0  2  0  0  0  0  0  0
  -25.8300  -29.6070   20.7280 C   0  0  0  0  0  0  0  0  0  0  0  0
  -27.0130  -28.8090   20.7040 C   0  0  0  0  0  3  0  0  0  0  0  0
  -25.8120  -27.0820   19.5030 C   0  0  0  0  0  3  0  0  0  0  0  0
  -24.6390  -27.8610   19.5400 C   0  0  0  0  0  3  0  0  0  0  0  0
  -23.4130  -29.9960   20.2370 C   0  0  0  0  0  2  0  0  0  0  0  0
  -24.5200  -31.2600   22.1280 N   0  0  0  0  0  0  0  0  0  0  0  0
  -23.4330  -32.3440   23.8000 O   0  0  0  0  0  0  0  0  0  0  0  0
  -22.6120  -29.6480   22.6030 C   0  0  0  0  0  0  0  0  0  0  0  0
  -21.2930  -29.4310   22.4820 N   0  0  0  0  0  0  0  0  0  0  0  0
  -23.3080  -29.0610   23.4340 O   0  0  0  0  0  0  0  0  0  0  0  0
  -20.7810  -29.9580   21.7870 H   0  0  0  0  0  0  0  0  0  0  0  0
  -17.9600  -28.1260   22.9770 C   0  0  0  0  0  0  0  0  0  0  0  0
  -20.5040  -28.4820   23.2710 C   0  0  0  0  0  3  0  0  0  0  0  0
  -20.6650  -27.0400   22.7380 C   0  0  0  0  0  2  0  0  0  0  0  0
  -19.5890  -26.6500   21.7200 C   0  0  0  0  0  2  0  0  0  0  0  0
  -18.1940  -26.7640   22.3430 C   0  0  0  0  0  2  0  0  0  0  0  0
  -19.0450  -28.9370   23.3980 C   0  0  0  0  0  0  0  0  0  0  0  0
  -18.7750  -30.2110   23.9450 C   0  0  0  0  0  3  0  0  0  0  0  0
  -17.4520  -30.6700   24.0850 C   0  0  0  0  0  3  0  0  0  0  0  0
  -16.3800  -29.8550   23.6820 C   0  0  0  0  0  3  0  0  0  0  0  0
  -16.6340  -28.5850   23.1330 C   0  0  0  0  0  3  0  0  0  0  0  0
  -25.7990  -32.7010   23.8030 C   0  0  0  0  0  3  0  0  0  0  0  0
  -25.5020  -34.0980   24.1420 N   0  0  0  0  0  0  0  0  0  0  0  0
  -25.8340  -35.1550   23.3840 C   0  0  0  0  0  0  0  0  0  0  0  0
  -26.4890  -35.0520   22.3450 O   0  0  0  0  0  0  0  0  0  0  0  0
  -24.9270  -34.2470   24.9550 H   0  0  0  0  0  0  0  0  0  0  0  0
  -24.1350  -36.9840   23.0400 C   0  0  0  0  0  1  0  0  0  0  0  0
  -25.3590  -36.5440   23.8570 C   0  0  0  0  0  3  0  0  0  0  0  0
  -27.4900  -37.3960   24.7380 C   0  0  0  0  0  1  0  0  0  0  0  0
  -26.4070  -37.5850   23.7790 N   0  0  0  0  0  0  0  0  0  0  0  0
  -26.0050  -38.5040   23.9360 H   0  0  0  0  0  0  0  0  0  0  0  0
  -26.3610  -31.9300   25.0590 C   0  0  1  0  0  0  0  0  0  0  0  0
  -25.3000  -31.6790   26.1550 C   0  0  0  0  0  1  0  0  0  0  0  0
  -26.9480  -30.5580   24.6430 C   0  0  0  0  0  1  0  0  0  0  0  0
  -27.5150  -32.7370   25.6980 C   0  0  0  0  0  1  0  0  0  0  0  0
  2  1  2  0
  3 11  1  0
  3  4  1  0
  4  1  1  0
  4  9  1  0
  5  3  1  0
  5  2  1  0
  6  5  1  0
  8  9  1  0
  9  7  1  0
 11 10  1  0
 11 20  1  0
 12 18  1  0
 12 20  1  0
 13 18  1  0
 14 15  1  0
 14 13  1  0
 16 15  1  0
 16 25  1  0
 16 17  1  0
 18 17  1  0
 19 12  2  0
 20 21  1  0
 22 23  2  0
 23 42  1  0
 24 23  1  0
 24 27  1  0
 25 26  1  0
 25 22  1  0
 26 24  2  0
 27 28  1  0
 28 29  2  0
 30 33  1  0
 30 29  1  0
 31 30  2  0
 32 31  1  0
 32 27  2  0
 33 34  1  0
 34 35  1  0
 35 36  2  0
 37 36  1  0
 37 41  1  0
 38 37  2  0
 39 34  2  0
 39 38  1  0
 40 39  1  0
 42 43  1  0
 43 46  1  0
 43 45  1  0
 44 42  2  0
 47 22  1  0
 47 48  1  0
 49 47  1  0
 50 51  1  0
 50  2  1  0
 52 53  1  0
 52 51  1  0
 54 65  2  0
 55 53  1  0
 55 60  1  0
 56 64  1  0
 56 66  1  0
 57 63  1  0
 57 59  1  0
 58 64  1  0
 59 58  1  0
 60 59  2  0
 61 62  1  0
 61 55  2  0
 62 57  2  0
 63 56  1  0
 64 54  1  0
 66 68  2  0
 67 66  1  0
 69 67  1  0
 70 79  2  0
 70 75  1  0
 71 67  1  0
 71 75  1  0
 72 71  1  0
 73 74  1  0
 73 72  1  0
 74 70  1  0
 75 76  2  0
 76 77  1  0
 78 77  2  0
 79 78  1  0
 80 54  1  0
 80 81  1  0
 80 90  1  0
 81 84  1  0
 82 86  1  0
 82 81  1  0
 83 82  2  0
 86 85  1  0
 88 86  1  0
 88 89  1  0
 88 87  1  0
 90 93  1  1
 90 91  1  0
 92 90  1  0
M  ISO  4  12 100  20 100  52 101  53 101
M  END
>  <TORSDO>  (95) 
F 21

>  <SCORE>  (95) 
-13.263

>  <name>  (95) 
94

>  <ligand_id>  (95) 
94

>  <original_smiles>  (95) 
[H]c1c([H])c([H])c2c(c1[H])C([H])([H])C([H])([H])C([H])([H])C2([H])N([H])C(=O)C1([H])N(C(=O)C([H])(N([H])C(=O)C([H])(N([H])C([H])([H])[H])C([H])([H])[H])C(C([H])([H])[H])(C([H])([H])[H])C([H])([H])[H])C([H])([H])c2c([H])c(OC([H])([H])C([H])([H])C([H])([H])c3c([H])n(C([H])(C([H])([H])[H])C([H])([H])[H])c(C([H])(N([H])C(=O)N4C([H])([H])C([H])([H])C([H])([H])C([H])(n5nc(-c6c([H])c([H])c(Oc7c([H])c([H])c(F)c([H])c7F)c([H])c6[H])c(C(=O)N([H])[H])c5N([H])[H])C4([H])[H])C([H])([H])[H])[n+]3[H])c([H])c([H])c2C1([H])[H]

>  <smiles>  (95) 
[H]c1c([H])c([H])c2c(c1[H])C([H])([H])C([H])([H])C([H])([H])C2([H])N([H])C(=O)C1([H])N(C(=O)C([H])(N([H])C(=O)C([H])(N([H])C([H])([H])[H])C([H])([H])[H])C(C([H])([H])[H])(C([H])([H])[H])C([H])([H])[H])C([H])([H])c2c([H])c(OC([H])([H])C([H])([H])C([H])([H])c3c([H])n(C([H])(C([H])([H])[H])C([H])([H])[H])c(C([H])(N([H])C(=O)N4C([H])([H])C([H])([H])C([H])([H])C([H])(n5nc(-c6c([H])c([H])c(Oc7c([H])c([H])c(F)c([H])c7F)c([H])c6[H])c(C(=O)N([H])[H])c5N([H])[H])C4([H])[H])C([H])([H])[H])[n+]3[H])c([H])c([H])c2C1([H])[H]

$$$$
95:0:0
     RDKit          3D

 91 99  0  0  1  0  0  0  0  0999 V2000
  -30.9240  -19.7210   17.8450 C   0  0  0  0  0  3  0  0  0  0  0  0
  -30.2200  -18.4560   20.0800 C   0  0  0  0  0  0  0  0  0  0  0  0
  -31.5620  -18.4880   19.6460 C   0  0  0  0  0  0  0  0  0  0  0  0
  -29.4910  -19.6290   19.6280 C   0  0  0  0  0  0  0  0  0  0  0  0
  -32.7020  -17.8430   20.4070 C   0  0  0  0  0  1  0  0  0  0  0  0
  -31.9000  -19.1030   18.4980 N   0  0  0  0  0  0  0  0  0  0  0  0
  -29.7440  -20.0290   18.3650 N   0  0  0  0  0  0  0  0  0  0  0  0
  -29.5560  -17.0100   20.0250 C   0  0  0  0  0  2  0  0  0  0  0  0
  -30.7270  -14.6590   20.0500 C   0  0  0  0  0  0  0  0  0  0  0  0
  -30.3860  -12.4590   18.9240 C   0  0  0  0  0  2  0  0  0  0  0  0
  -29.3650  -12.6130   17.7740 C   0  0  0  0  0  2  0  0  0  0  0  0
  -27.9300  -12.4190   18.2880 C   0  0  0  0  0  2  0  0  0  0  0  0
  -27.6520  -13.2710   19.5540 C   0  0  0  0  0  3  0  0  0  0  0  0
  -28.7800  -13.1060   20.5990 C   0  0  0  0  0  2  0  0  0  0  0  0
  -30.0520  -13.4620   19.9580 N   0  0  0  0  0  0  0  0  0  0  0  0
  -31.8080  -14.8060   19.4710 O   0  0  0  0  0  0  0  0  0  0  0  0
  -30.1690  -15.8270   22.1290 C   0  0  0  0  0  1  0  0  0  0  0  0
  -30.1100  -15.7390   20.6660 N   0  0  0  0  0  0  0  0  0  0  0  0
  -25.3260  -13.8610   20.4680 C   0  0  0  0  0  0  0  0  0  0  0  0
  -24.2800  -13.0840   20.8810 C   0  0  0  0  0  0  0  0  0  0  0  0
  -24.7240  -11.7300   20.7660 C   0  0  0  0  0  0  0  0  0  0  0  0
  -26.3400  -12.9810   20.1220 N   0  0  0  0  0  0  0  0  0  0  0  0
  -25.9900  -11.6940   20.3670 N   0  0  0  0  0  0  0  0  0  0  0  0
  -23.9990  -10.4690   20.9580 C   0  0  0  0  0  0  0  0  0  0  0  0
  -24.4340   -9.5030   21.8910 C   0  0  0  0  0  3  0  0  0  0  0  0
  -23.7130   -8.3040   22.0690 C   0  0  0  0  0  3  0  0  0  0  0  0
  -22.5420   -8.0610   21.3150 C   0  0  0  0  0  0  0  0  0  0  0  0
  -22.1270   -9.0140   20.3680 C   0  0  0  0  0  3  0  0  0  0  0  0
  -22.8480  -10.2050   20.1880 C   0  0  0  0  0  3  0  0  0  0  0  0
  -21.7910   -6.9160   21.4050 O   0  0  0  0  0  0  0  0  0  0  0  0
  -21.6800   -6.2160   22.5810 C   0  0  0  0  0  0  0  0  0  0  0  0
  -21.1500   -6.8030   23.7500 C   0  0  0  0  0  3  0  0  0  0  0  0
  -20.9900   -6.0280   24.9160 C   0  0  0  0  0  3  0  0  0  0  0  0
  -21.3500   -4.6670   24.9100 C   0  0  0  0  0  0  0  0  0  0  0  0
  -21.8780   -4.0800   23.7460 C   0  0  0  0  0  3  0  0  0  0  0  0
  -22.0390   -4.8540   22.5820 C   0  0  0  0  0  0  0  0  0  0  0  0
  -22.5250   -4.2800   21.4570 F   0  0  0  0  0  0  0  0  0  0  0  0
  -21.1900   -3.9180   26.0280 F   0  0  0  0  0  0  0  0  0  0  0  0
  -22.9080  -13.5580   21.2660 C   0  0  0  0  0  0  0  0  0  0  0  0
  -22.2290  -12.8360   22.1510 N   0  0  0  0  0  0  0  0  0  0  0  0
  -22.4500  -14.6070   20.8160 O   0  0  0  0  0  0  0  0  0  0  0  0
  -22.6120  -11.9870   22.5370 H   0  0  0  0  0  0  0  0  0  0  0  0
  -21.3120  -13.1410   22.4470 H   0  0  0  0  0  0  0  0  0  0  0  0
  -25.4980  -15.2370   20.3310 N   0  0  0  0  0  0  0  0  0  0  0  0
  -24.7520  -15.8960   20.5150 H   0  0  0  0  0  0  0  0  0  0  0  0
  -26.3400  -15.6730   19.9740 H   0  0  0  0  0  0  0  0  0  0  0  0
  -29.3230  -20.9330   20.5210 C   0  0  0  0  0  3  0  0  0  0  0  0
  -28.6020  -22.2430   19.9190 C   0  0  0  0  0  3  0  0  0  0  0  0
  -28.7180  -23.6930   20.6210 C   0  0  0  0  0  3  0  0  0  0  0  0
  -28.2180  -24.9530   19.7610 C   0  0  0  0  0  3  0  0  0  0  0  0
  -28.2840  -26.3730   20.2450 O   0  0  0  0  0  0  0  0  0  0  0  0
  -24.6360  -31.8910   23.1910 C   0  0  0  0  0  0  0  0  0  0  0  0
  -27.1850  -27.2610   20.1480 C   0  0  0  0  0  0  0  0  0  0  0  0
  -23.4230  -30.5010   21.5560 C   0  0  0  0  0  3  0  0  0  0  0  0
  -24.8550  -28.9420   20.1300 C   0  0  0  0  0  0  0  0  0  0  0  0
  -25.9740  -30.7860   21.3760 C   0  0  0  0  0  2  0  0  0  0  0  0
  -26.0320  -29.4060   20.7250 C   0  0  0  0  0  0  0  0  0  0  0  0
  -27.2010  -28.5780   20.7190 C   0  0  0  0  0  3  0  0  0  0  0  0
  -25.9760  -26.8710   19.5190 C   0  0  0  0  0  3  0  0  0  0  0  0
  -24.8300  -27.6840   19.5190 C   0  0  0  0  0  3  0  0  0  0  0  0
  -23.6380  -29.8380   20.1730 C   0  0  0  0  0  2  0  0  0  0  0  0
  -24.6980  -31.0780   22.0960 N   0  0  0  0  0  0  0  0  0  0  0  0
  -23.5520  -32.1780   23.7210 O   0  0  0  0  0  0  0  0  0  0  0  0
  -22.7520  -29.4850   22.5150 C   0  0  0  0  0  0  0  0  0  0  0  0
  -21.4220  -29.3210   22.3990 N   0  0  0  0  0  0  0  0  0  0  0  0
  -23.4280  -28.8500   23.3300 O   0  0  0  0  0  0  0  0  0  0  0  0
  -20.9350  -29.8940   21.7210 H   0  0  0  0  0  0  0  0  0  0  0  0
  -18.0300  -28.1730   22.9330 C   0  0  0  0  0  0  0  0  0  0  0  0
  -20.5950  -28.3930   23.1730 C   0  0  0  0  0  3  0  0  0  0  0  0
  -20.6680  -26.9630   22.5900 C   0  0  0  0  0  2  0  0  0  0  0  0
  -19.5490  -26.6610   21.5890 C   0  0  0  0  0  2  0  0  0  0  0  0
  -18.1780  -26.8240   22.2510 C   0  0  0  0  0  2  0  0  0  0  0  0
  -19.1650  -28.9170   23.3540 C   0  0  0  0  0  0  0  0  0  0  0  0
  -18.9720  -30.1780   23.9570 C   0  0  0  0  0  3  0  0  0  0  0  0
  -17.6770  -30.6980   24.1420 C   0  0  0  0  0  3  0  0  0  0  0  0
  -16.5560  -29.9530   23.7350 C   0  0  0  0  0  3  0  0  0  0  0  0
  -16.7340  -28.6930   23.1370 C   0  0  0  0  0  3  0  0  0  0  0  0
  -25.9200  -32.5210   23.8120 C   0  0  0  0  0  3  0  0  0  0  0  0
  -25.6090  -33.9170   24.1590 N   0  0  0  0  0  0  0  0  0  0  0  0
  -25.9190  -34.9790   23.4030 C   0  0  0  0  0  0  0  0  0  0  0  0
  -26.5660  -34.8880   22.3560 O   0  0  0  0  0  0  0  0  0  0  0  0
  -25.0340  -34.0590   24.9770 H   0  0  0  0  0  0  0  0  0  0  0  0
  -24.1760  -36.7700   23.1050 C   0  0  0  0  0  1  0  0  0  0  0  0
  -25.4370  -36.3620   23.8860 C   0  0  0  0  0  3  0  0  0  0  0  0
  -27.5820  -37.2520   24.6810 C   0  0  0  0  0  1  0  0  0  0  0  0
  -26.4630  -37.4190   23.7570 N   0  0  0  0  0  0  0  0  0  0  0  0
  -26.0550  -38.3370   23.9150 H   0  0  0  0  0  0  0  0  0  0  0  0
  -26.4470  -31.7370   25.0750 C   0  0  1  0  0  0  0  0  0  0  0  0
  -25.3640  -31.4850   26.1480 C   0  0  0  0  0  1  0  0  0  0  0  0
  -27.0290  -30.3650   24.6660 C   0  0  0  0  0  1  0  0  0  0  0  0
  -27.5970  -32.5300   25.7400 C   0  0  0  0  0  1  0  0  0  0  0  0
  1  7  2  0
  1  6  1  0
  3  2  1  0
  3  5  1  0
  4  2  2  3
  4 47  1  0
  6  3  2  0
  7  4  1  0
  8  2  1  0
  8 18  1  0
  9 18  1  0
 10 15  1  0
 11 12  1  0
 11 10  1  0
 13 12  1  0
 13 22  1  0
 13 14  1  0
 15  9  1  0
 15 14  1  0
 16  9  2  0
 18 17  1  0
 19 20  2  0
 20 39  1  0
 21 20  1  0
 21 24  1  0
 22 23  1  0
 22 19  1  0
 23 21  2  0
 24 25  1  0
 25 26  2  0
 27 30  1  0
 27 26  1  0
 28 27  2  0
 29 28  1  0
 29 24  2  0
 30 31  1  0
 31 36  2  0
 31 32  1  0
 32 33  2  0
 34 33  1  0
 34 38  1  0
 35 34  2  0
 36 35  1  0
 37 36  1  0
 39 40  1  0
 40 43  1  0
 40 42  1  0
 41 39  2  0
 44 19  1  0
 44 45  1  0
 46 44  1  0
 48 47  2  0
 48 49  1  0
 50 51  1  0
 50 49  2  0
 52 63  2  0
 53 51  1  0
 53 58  1  0
 54 62  1  0
 54 64  1  0
 55 61  1  0
 55 57  1  0
 56 62  1  0
 57 56  1  0
 58 57  2  0
 59 53  2  0
 60 59  1  0
 60 55  2  0
 61 54  1  0
 62 52  1  0
 64 66  2  0
 65 64  1  0
 67 65  1  0
 68 77  2  0
 68 73  1  0
 69 65  1  0
 69 73  1  0
 70 69  1  0
 71 72  1  0
 71 70  1  0
 72 68  1  0
 73 74  2  0
 74 75  1  0
 76 75  2  0
 77 76  1  0
 78 52  1  0
 78 79  1  0
 78 88  1  0
 79 82  1  0
 80 84  1  0
 80 79  1  0
 81 80  2  0
 84 83  1  0
 86 84  1  0
 86 87  1  0
 86 85  1  0
 88 91  1  1
 88 89  1  0
 90 88  1  0
M  ISO  4   9 100  18 100  50 101  51 101
M  END
>  <TORSDO>  (96) 
F 21

>  <SCORE>  (96) 
-13.059

>  <name>  (96) 
95

>  <ligand_id>  (96) 
95

>  <original_smiles>  (96) 
[H]c1nc(C([H])([H])[H])c(C([H])([H])N(C(=O)N2C([H])([H])C([H])([H])C([H])([H])C([H])(n3nc(-c4c([H])c([H])c(Oc5c([H])c([H])c(F)c([H])c5F)c([H])c4[H])c(C(=O)N([H])[H])c3N([H])[H])C2([H])[H])C([H])([H])[H])c(C([H])([H])C([H])([H])C([H])([H])C([H])([H])Oc2c([H])c([H])c3c(c2[H])C([H])([H])N(C(=O)C([H])(N([H])C(=O)C([H])(N([H])C([H])([H])[H])C([H])([H])[H])C(C([H])([H])[H])(C([H])([H])[H])C([H])([H])[H])C([H])(C(=O)N([H])C2([H])c4c([H])c([H])c([H])c([H])c4C([H])([H])C([H])([H])C2([H])[H])C3([H])[H])n1

>  <smiles>  (96) 
[H]c1nc(C([H])([H])[H])c(C([H])([H])N(C(=O)N2C([H])([H])C([H])([H])C([H])([H])C([H])(n3nc(-c4c([H])c([H])c(Oc5c([H])c([H])c(F)c([H])c5F)c([H])c4[H])c(C(=O)N([H])[H])c3N([H])[H])C2([H])[H])C([H])([H])[H])c(C([H])([H])C([H])([H])C([H])([H])C([H])([H])Oc2c([H])c([H])c3c(c2[H])C([H])([H])N(C(=O)C([H])(N([H])C(=O)C([H])(N([H])C([H])([H])[H])C([H])([H])[H])C(C([H])([H])[H])(C([H])([H])[H])C([H])([H])[H])C([H])(C(=O)N([H])C2([H])c4c([H])c([H])c([H])c([H])c4C([H])([H])C([H])([H])C2([H])[H])C3([H])[H])n1

$$$$
96:0:0
     RDKit          3D

 93101  0  0  1  0  0  0  0  0999 V2000
  -27.6280  -17.6640   20.4080 C   0  0  0  0  0  0  0  0  0  0  0  0
  -29.3410  -18.8700   20.6490 C   0  0  0  0  0  0  0  0  0  0  0  0
  -26.1980  -17.2780   20.2670 C   0  0  0  0  0  1  0  0  0  0  0  0
  -28.0250  -18.9610   20.4540 N   0  0  0  0  0  0  0  0  0  0  0  0
  -28.5880  -16.7550   20.5150 N   0  0  0  0  0  2  0  0  0  0  0  0
  -29.7180  -17.4780   20.7200 N   0  0  0  0  0  0  0  0  0  0  0  0
  -30.0590  -20.3190   20.8100 C   0  0  0  0  0  3  0  0  0  0  0  0
  -29.2530  -21.7630   20.4370 C   0  0  0  0  0  2  0  0  0  0  0  0
  -29.7730  -23.3520   20.6480 C   0  0  0  0  0  3  0  0  0  0  0  0
  -28.8640  -24.7150   20.2650 C   0  0  0  0  0  3  0  0  0  0  0  0
  -29.1820  -26.2170   20.5170 O   0  0  0  0  0  0  0  0  0  0  0  0
  -25.3520  -31.6550   23.6910 C   0  0  0  0  0  0  0  0  0  0  0  0
  -28.1440  -27.2150   20.4580 C   0  0  0  0  0  0  0  0  0  0  0  0
  -24.2830  -30.4260   21.8420 C   0  0  0  0  0  3  0  0  0  0  0  0
  -25.8340  -28.9780   20.3990 C   0  0  0  0  0  0  0  0  0  0  0  0
  -26.8430  -30.6800   21.9070 C   0  0  0  0  0  2  0  0  0  0  0  0
  -26.9630  -29.3540   21.1380 C   0  0  0  0  0  0  0  0  0  0  0  0
  -28.1210  -28.4910   21.1520 C   0  0  0  0  0  3  0  0  0  0  0  0
  -26.9940  -26.9490   19.6820 C   0  0  0  0  0  3  0  0  0  0  0  0
  -25.8630  -27.7900   19.6580 C   0  0  0  0  0  3  0  0  0  0  0  0
  -24.6110  -29.8790   20.4290 C   0  0  0  0  0  2  0  0  0  0  0  0
  -25.5090  -30.9380   22.5370 N   0  0  0  0  0  0  0  0  0  0  0  0
  -24.2290  -31.9010   24.1550 O   0  0  0  0  0  0  0  0  0  0  0  0
  -23.5290  -29.3410   22.6510 C   0  0  0  0  0  0  0  0  0  0  0  0
  -22.2130  -29.1970   22.4080 N   0  0  0  0  0  0  0  0  0  0  0  0
  -24.1310  -28.6330   23.4620 O   0  0  0  0  0  0  0  0  0  0  0  0
  -21.7850  -29.8200   21.7370 H   0  0  0  0  0  0  0  0  0  0  0  0
  -18.7750  -28.0810   22.6330 C   0  0  0  0  0  0  0  0  0  0  0  0
  -21.3300  -28.2060   23.0250 C   0  0  0  0  0  3  0  0  0  0  0  0
  -21.4050  -26.8530   22.2780 C   0  0  0  0  0  2  0  0  0  0  0  0
  -20.3340  -26.7030   21.1930 C   0  0  0  0  0  2  0  0  0  0  0  0
  -18.9320  -26.8210   21.7980 C   0  0  0  0  0  2  0  0  0  0  0  0
  -19.9020  -28.7390   23.1960 C   0  0  0  0  0  0  0  0  0  0  0  0
  -19.7010  -29.9250   23.9360 C   0  0  0  0  0  3  0  0  0  0  0  0
  -18.4090  -30.4500   24.1200 C   0  0  0  0  0  3  0  0  0  0  0  0
  -17.2960  -29.7870   23.5730 C   0  0  0  0  0  3  0  0  0  0  0  0
  -17.4810  -28.6030   22.8350 C   0  0  0  0  0  3  0  0  0  0  0  0
  -26.5780  -32.2180   24.4730 C   0  0  0  0  0  3  0  0  0  0  0  0
  -26.2760  -33.6120   24.8330 N   0  0  0  0  0  0  0  0  0  0  0  0
  -26.7040  -34.6860   24.1560 C   0  0  0  0  0  0  0  0  0  0  0  0
  -27.4590  -34.6050   23.1850 O   0  0  0  0  0  0  0  0  0  0  0  0
  -25.6170  -33.7510   25.5840 H   0  0  0  0  0  0  0  0  0  0  0  0
  -25.0580  -36.5450   23.7440 C   0  0  0  0  0  1  0  0  0  0  0  0
  -26.2180  -36.0700   24.6320 C   0  0  0  0  0  3  0  0  0  0  0  0
  -28.2950  -36.8650   25.6740 C   0  0  0  0  0  1  0  0  0  0  0  0
  -27.2840  -37.0960   24.6460 N   0  0  0  0  0  0  0  0  0  0  0  0
  -26.8910  -38.0220   24.7900 H   0  0  0  0  0  0  0  0  0  0  0  0
  -26.9280  -31.3790   25.7640 C   0  0  1  0  0  0  0  0  0  0  0  0
  -25.7100  -31.0940   26.6730 C   0  0  0  0  0  1  0  0  0  0  0  0
  -27.5570  -30.0170   25.3840 C   0  0  0  0  0  1  0  0  0  0  0  0
  -27.9860  -32.1320   26.6030 C   0  0  0  0  0  1  0  0  0  0  0  0
  -30.9700  -16.6020   20.9980 C   0  0  0  0  0  3  0  0  0  0  0  0
  -31.3050  -14.9610   20.7960 C   0  0  0  0  0  0  0  0  0  0  0  0
  -30.9600  -12.8800   19.4120 C   0  0  0  0  0  2  0  0  0  0  0  0
  -30.0500  -13.1320   18.1900 C   0  0  0  0  0  2  0  0  0  0  0  0
  -28.5760  -12.9090   18.5690 C   0  0  0  0  0  2  0  0  0  0  0  0
  -28.1980  -13.5780   19.9180 C   0  0  0  0  0  3  0  0  0  0  0  0
  -29.2530  -13.3690   21.0220 C   0  0  0  0  0  2  0  0  0  0  0  0
  -30.5420  -13.8280   20.4920 N   0  0  0  0  0  0  0  0  0  0  0  0
  -32.5140  -14.7880   20.6180 O   0  0  0  0  0  0  0  0  0  0  0  0
  -25.7590  -14.0250   20.5230 C   0  0  0  0  0  0  0  0  0  0  0  0
  -24.7160  -13.1990   20.8400 C   0  0  0  0  0  0  0  0  0  0  0  0
  -25.2520  -11.8750   20.8500 C   0  0  0  0  0  0  0  0  0  0  0  0
  -26.8580  -13.2050   20.3560 N   0  0  0  0  0  0  0  0  0  0  0  0
  -26.5610  -11.9050   20.6210 N   0  0  0  0  0  0  0  0  0  0  0  0
  -24.5790  -10.5780   21.0070 C   0  0  0  0  0  0  0  0  0  0  0  0
  -24.9910   -9.6430   21.9800 C   0  0  0  0  0  3  0  0  0  0  0  0
  -24.3150   -8.4120   22.1230 C   0  0  0  0  0  3  0  0  0  0  0  0
  -23.2110   -8.1080   21.2900 C   0  0  0  0  0  0  0  0  0  0  0  0
  -22.8210   -9.0330   20.3060 C   0  0  0  0  0  3  0  0  0  0  0  0
  -23.4990  -10.2550   20.1630 C   0  0  0  0  0  3  0  0  0  0  0  0
  -22.5070   -6.9300   21.3440 O   0  0  0  0  0  0  0  0  0  0  0  0
  -22.3190   -6.2550   22.5240 C   0  0  0  0  0  0  0  0  0  0  0  0
  -21.6820   -6.8550   23.6330 C   0  0  0  0  0  3  0  0  0  0  0  0
  -21.4480   -6.1020   24.8010 C   0  0  0  0  0  3  0  0  0  0  0  0
  -21.8390   -4.7520   24.8600 C   0  0  0  0  0  0  0  0  0  0  0  0
  -22.4680   -4.1510   23.7550 C   0  0  0  0  0  3  0  0  0  0  0  0
  -22.7050   -4.9000   22.5900 C   0  0  0  0  0  0  0  0  0  0  0  0
  -23.2920   -4.3110   21.5200 F   0  0  0  0  0  0  0  0  0  0  0  0
  -21.6070   -4.0260   25.9790 F   0  0  0  0  0  0  0  0  0  0  0  0
  -23.2840  -13.6070   21.0230 C   0  0  0  0  0  0  0  0  0  0  0  0
  -22.5530  -12.9130   21.8870 N   0  0  0  0  0  0  0  0  0  0  0  0
  -22.8190  -14.5810   20.4320 O   0  0  0  0  0  0  0  0  0  0  0  0
  -22.9390  -12.1280   22.3900 H   0  0  0  0  0  0  0  0  0  0  0  0
  -21.5900  -13.1730   22.0480 H   0  0  0  0  0  0  0  0  0  0  0  0
  -25.8630  -15.3980   20.3330 N   0  0  0  0  0  0  0  0  0  0  0  0
  -25.0600  -16.0150   20.3770 H   0  0  0  0  0  0  0  0  0  0  0  0
  -26.7450  -15.8840   20.2310 H   0  0  0  0  0  0  0  0  0  0  0  0
  -32.2650  -17.4300   20.7720 C   0  0  0  0  0  2  0  0  0  0  0  0
  -31.9180  -18.9140   18.8020 C   0  0  0  0  0  1  0  0  0  0  0  0
  -34.0620  -17.7750   19.1220 C   0  0  0  0  0  1  0  0  0  0  0  0
  -32.5980  -17.7130   19.3470 N   0  0  1  0  0  4  0  0  0  0  0  0
  -32.2790  -16.9340   18.7910 H   0  0  0  0  0  0  0  0  0  0  0  0
  1  4  2  0
  1  5  1  0
  2  6  1  0
  2  7  2  0
  3  1  1  0
  4  2  1  0
  5  6  1  0
  6 52  1  0
  8  9  1  0
  8  7  1  0
 10 11  1  0
 10  9  2  0
 12 23  2  0
 13 11  1  0
 13 18  1  0
 14 22  1  0
 14 24  1  0
 15 21  1  0
 15 17  1  0
 16 22  1  0
 17 18  2  0
 17 16  1  0
 19 13  2  0
 20 19  1  0
 20 15  2  0
 21 14  1  0
 22 12  1  0
 24 26  2  0
 25 24  1  0
 27 25  1  0
 28 37  2  0
 28 33  1  0
 29 25  1  0
 29 33  1  0
 30 29  1  0
 31 32  1  0
 31 30  1  0
 32 28  1  0
 33 34  2  0
 34 35  1  0
 36 35  2  0
 37 36  1  0
 38 12  1  0
 38 39  1  0
 38 48  1  0
 39 42  1  0
 40 44  1  0
 40 39  1  0
 41 40  2  0
 44 43  1  0
 44 46  1  0
 46 47  1  0
 46 45  1  0
 48 51  1  1
 48 49  1  0
 50 48  1  0
 52 89  1  0
 53 52  1  0
 54 59  1  0
 55 56  1  0
 55 54  1  0
 57 56  1  0
 57 64  1  0
 57 58  1  0
 59 53  1  0
 59 58  1  0
 60 53  2  0
 61 62  2  0
 62 63  1  0
 62 81  1  0
 63 66  1  0
 64 61  1  0
 64 65  1  0
 65 63  2  0
 66 67  1  0
 67 68  2  0
 69 72  1  0
 69 68  1  0
 70 69  2  0
 71 70  1  0
 71 66  2  0
 72 73  1  0
 73 78  2  0
 73 74  1  0
 74 75  2  0
 75 76  1  0
 76 80  1  0
 77 76  2  0
 78 77  1  0
 79 78  1  0
 81 82  1  0
 82 85  1  0
 82 84  1  0
 83 81  2  0
 86 87  1  0
 86 61  1  0
 88 86  1  0
 90 92  1  0
 91 92  1  0
 92 89  1  0
 92 93  1  6
M  ISO  4  10 101  11 101  52 100  53 100
M  END
>  <TORSDO>  (97) 
F 23

>  <SCORE>  (97) 
-11.564

>  <name>  (97) 
96

>  <ligand_id>  (97) 
96

>  <original_smiles>  (97) 
[H]c1c([H])c([H])c2c(c1[H])C([H])([H])C([H])([H])C([H])([H])C2([H])N([H])C(=O)C1([H])N(C(=O)C([H])(N([H])C(=O)C([H])(N([H])C([H])([H])[H])C([H])([H])[H])C(C([H])([H])[H])(C([H])([H])[H])C([H])([H])[H])C([H])([H])c2c([H])c(OC([H])([H])C([H])([H])C([H])([H])C([H])([H])c3nc(C([H])([H])[H])nn3C([H])(C(=O)N3C([H])([H])C([H])([H])C([H])([H])C([H])(n4nc(-c5c([H])c([H])c(Oc6c([H])c([H])c(F)c([H])c6F)c([H])c5[H])c(C(=O)N([H])[H])c4N([H])[H])C3([H])[H])C([H])([H])[N+]([H])(C([H])([H])[H])C([H])([H])[H])c([H])c([H])c2C1([H])[H]

>  <smiles>  (97) 
[H]c1c([H])c([H])c2c(c1[H])C([H])([H])C([H])([H])C([H])([H])C2([H])N([H])C(=O)C1([H])N(C(=O)C([H])(N([H])C(=O)C([H])(N([H])C([H])([H])[H])C([H])([H])[H])C(C([H])([H])[H])(C([H])([H])[H])C([H])([H])[H])C([H])([H])c2c([H])c(OC([H])([H])C([H])([H])C([H])([H])C([H])([H])c3nc(C([H])([H])[H])nn3C([H])(C(=O)N3C([H])([H])C([H])([H])C([H])([H])C([H])(n4nc(-c5c([H])c([H])c(Oc6c([H])c([H])c(F)c([H])c6F)c([H])c5[H])c(C(=O)N([H])[H])c4N([H])[H])C3([H])[H])C([H])([H])[N+]([H])(C([H])([H])[H])C([H])([H])[H])c([H])c([H])c2C1([H])[H]

$$$$
97:0:0
     RDKit          3D

 91 99  0  0  1  0  0  0  0  0999 V2000
  -29.2520  -20.9440   20.1370 C   0  0  0  0  0  0  0  0  0  0  0  0
  -29.7490  -18.8210   20.3890 C   0  0  0  0  0  3  0  0  0  0  0  0
  -27.3460  -18.0190   20.6230 C   0  0  0  0  0  1  0  0  0  0  0  0
  -30.3250  -20.0470   20.2330 N   0  0  0  0  0  0  0  0  0  0  0  0
  -28.0820  -20.3090   20.2150 N   0  0  0  0  0  2  0  0  0  0  0  0
  -28.4080  -18.9860   20.4130 N   0  0  0  0  0  0  0  0  0  0  0  0
  -29.3650  -22.4580   19.6990 C   0  0  0  0  0  3  0  0  0  0  0  0
  -28.6360  -23.7240   20.4200 C   0  0  0  0  0  3  0  0  0  0  0  0
  -28.6960  -25.1710   19.6680 C   0  0  0  0  0  2  0  0  0  0  0  0
  -28.5300  -26.5150   20.3320 O   0  0  0  0  0  0  0  0  0  0  0  0
  -24.6690  -31.9220   23.2440 C   0  0  0  0  0  0  0  0  0  0  0  0
  -27.3900  -27.3510   20.2310 C   0  0  0  0  0  0  0  0  0  0  0  0
  -23.5170  -30.5060   21.5870 C   0  0  0  0  0  3  0  0  0  0  0  0
  -25.0060  -28.9640   20.1880 C   0  0  0  0  0  0  0  0  0  0  0  0
  -26.0600  -30.8450   21.4470 C   0  0  0  0  0  2  0  0  0  0  0  0
  -26.1650  -29.4650   20.7940 C   0  0  0  0  0  0  0  0  0  0  0  0
  -27.3580  -28.6730   20.7960 C   0  0  0  0  0  3  0  0  0  0  0  0
  -26.1980  -26.9060   19.6170 C   0  0  0  0  0  3  0  0  0  0  0  0
  -25.0290  -27.6940   19.5920 C   0  0  0  0  0  3  0  0  0  0  0  0
  -23.7660  -29.8340   20.2120 C   0  0  0  0  0  2  0  0  0  0  0  0
  -24.7680  -31.1120   22.1490 N   0  0  0  0  0  0  0  0  0  0  0  0
  -23.5720  -32.1840   23.7610 O   0  0  0  0  0  0  0  0  0  0  0  0
  -22.8490  -29.4830   22.5390 C   0  0  0  0  0  0  0  0  0  0  0  0
  -21.5260  -29.2920   22.3950 N   0  0  0  0  0  0  0  0  0  0  0  0
  -23.5230  -28.8630   23.3670 O   0  0  0  0  0  0  0  0  0  0  0  0
  -21.0410  -29.8480   21.7050 H   0  0  0  0  0  0  0  0  0  0  0  0
  -18.1500  -28.0700   22.8850 C   0  0  0  0  0  0  0  0  0  0  0  0
  -20.7080  -28.3420   23.1550 C   0  0  0  0  0  3  0  0  0  0  0  0
  -20.8160  -26.9150   22.5660 C   0  0  0  0  0  2  0  0  0  0  0  0
  -19.7160  -26.5960   21.5490 C   0  0  0  0  0  2  0  0  0  0  0  0
  -18.3340  -26.7280   22.1940 C   0  0  0  0  0  2  0  0  0  0  0  0
  -19.2640  -28.8340   23.3210 C   0  0  0  0  0  0  0  0  0  0  0  0
  -19.0370  -30.0870   23.9290 C   0  0  0  0  0  3  0  0  0  0  0  0
  -17.7310  -30.5780   24.1040 C   0  0  0  0  0  3  0  0  0  0  0  0
  -16.6310  -29.8120   23.6790 C   0  0  0  0  0  3  0  0  0  0  0  0
  -16.8410  -28.5590   23.0770 C   0  0  0  0  0  3  0  0  0  0  0  0
  -25.9280  -32.5810   23.8880 C   0  0  0  0  0  3  0  0  0  0  0  0
  -25.5930  -33.9820   24.1920 N   0  0  0  0  0  0  0  0  0  0  0  0
  -25.9270  -35.0300   23.4270 C   0  0  0  0  0  0  0  0  0  0  0  0
  -26.6160  -34.9190   22.4080 O   0  0  0  0  0  0  0  0  0  0  0  0
  -24.9820  -34.1390   24.9800 H   0  0  0  0  0  0  0  0  0  0  0  0
  -24.1830  -36.8000   23.0250 C   0  0  0  0  0  1  0  0  0  0  0  0
  -25.4190  -36.4200   23.8570 C   0  0  0  0  0  3  0  0  0  0  0  0
  -27.5330  -37.3440   24.7000 C   0  0  0  0  0  1  0  0  0  0  0  0
  -26.4410  -37.4830   23.7400 N   0  0  0  0  0  0  0  0  0  0  0  0
  -26.0230  -38.4010   23.8660 H   0  0  0  0  0  0  0  0  0  0  0  0
  -26.4190  -31.8380   25.1920 C   0  0  1  0  0  0  0  0  0  0  0  0
  -25.3000  -31.5930   26.2320 C   0  0  0  0  0  1  0  0  0  0  0  0
  -27.0400  -30.4680   24.8390 C   0  0  0  0  0  1  0  0  0  0  0  0
  -27.5370  -32.6640   25.8750 C   0  0  0  0  0  1  0  0  0  0  0  0
  -30.4870  -17.4430   20.6910 C   0  0  0  0  0  2  0  0  0  0  0  0
  -30.8650  -14.9400   20.3150 C   0  0  0  0  0  0  0  0  0  0  0  0
  -30.7320  -12.5470   19.5930 C   0  0  0  0  0  2  0  0  0  0  0  0
  -29.8600  -12.4180   18.3280 C   0  0  0  0  0  2  0  0  0  0  0  0
  -28.3630  -12.3230   18.7030 C   0  0  0  0  0  2  0  0  0  0  0  0
  -27.9220  -13.3350   19.8000 C   0  0  0  0  0  3  0  0  0  0  0  0
  -28.9350  -13.4110   20.9570 C   0  0  0  0  0  2  0  0  0  0  0  0
  -30.2370  -13.7140   20.3570 N   0  0  0  0  0  0  0  0  0  0  0  0
  -32.1000  -14.9690   20.2480 O   0  0  0  0  0  0  0  0  0  0  0  0
  -30.1210  -16.1060   20.0270 N   0  0  0  0  0  0  0  0  0  0  0  0
  -25.5420  -13.9750   20.5040 C   0  0  0  0  0  0  0  0  0  0  0  0
  -24.4530  -13.2240   20.8400 C   0  0  0  0  0  0  0  0  0  0  0  0
  -24.8890  -11.8640   20.8180 C   0  0  0  0  0  0  0  0  0  0  0  0
  -26.5700  -13.0760   20.2770 N   0  0  0  0  0  0  0  0  0  0  0  0
  -26.1850  -11.8010   20.5420 N   0  0  0  0  0  0  0  0  0  0  0  0
  -24.1350  -10.6160   20.9890 C   0  0  0  0  0  0  0  0  0  0  0  0
  -24.5120   -9.6510   21.9480 C   0  0  0  0  0  3  0  0  0  0  0  0
  -23.7540   -8.4700   22.1080 C   0  0  0  0  0  3  0  0  0  0  0  0
  -22.6090   -8.2470   21.3060 C   0  0  0  0  0  0  0  0  0  0  0  0
  -22.2510   -9.2030   20.3390 C   0  0  0  0  0  3  0  0  0  0  0  0
  -23.0080  -10.3740   20.1780 C   0  0  0  0  0  3  0  0  0  0  0  0
  -21.8290   -7.1180   21.3730 O   0  0  0  0  0  0  0  0  0  0  0  0
  -21.6930   -6.4060   22.5370 C   0  0  0  0  0  0  0  0  0  0  0  0
  -21.1840   -6.9940   23.7170 C   0  0  0  0  0  3  0  0  0  0  0  0
  -20.9950   -6.2060   24.8700 C   0  0  0  0  0  3  0  0  0  0  0  0
  -21.3060   -4.8340   24.8450 C   0  0  0  0  0  0  0  0  0  0  0  0
  -21.8110   -4.2460   23.6710 C   0  0  0  0  0  3  0  0  0  0  0  0
  -22.0020   -5.0310   22.5190 C   0  0  0  0  0  0  0  0  0  0  0  0
  -22.4670   -4.4570   21.3830 F   0  0  0  0  0  0  0  0  0  0  0  0
  -21.1190   -4.0750   25.9490 F   0  0  0  0  0  0  0  0  0  0  0  0
  -23.0600  -13.7330   21.0730 C   0  0  0  0  0  0  0  0  0  0  0  0
  -22.2970  -13.0690   21.9310 N   0  0  0  0  0  0  0  0  0  0  0  0
  -22.6600  -14.7590   20.5250 O   0  0  0  0  0  0  0  0  0  0  0  0
  -22.6380  -12.2450   22.4020 H   0  0  0  0  0  0  0  0  0  0  0  0
  -21.3610  -13.3950   22.1250 H   0  0  0  0  0  0  0  0  0  0  0  0
  -25.7350  -15.3410   20.3500 N   0  0  0  0  0  0  0  0  0  0  0  0
  -24.9810  -16.0070   20.4860 H   0  0  0  0  0  0  0  0  0  0  0  0
  -26.6080  -15.7730   20.0840 H   0  0  0  0  0  0  0  0  0  0  0  0
  -28.3650  -16.8870   18.3010 C   0  0  0  0  0  1  0  0  0  0  0  0
  -30.8500  -16.9540   17.7500 C   0  0  0  0  0  1  0  0  0  0  0  0
  -29.7490  -16.2670   18.5850 C   0  0  0  0  0  3  0  0  0  0  0  0
  1  5  1  0
  1  4  2  0
  2  6  1  0
  2 51  1  0
  4  2  1  0
  5  6  1  0
  6  3  1  0
  7  1  1  0
  7  8  2  0
  9 10  1  0
  9  8  1  0
 11 22  2  0
 12 10  1  0
 12 17  1  0
 13 21  1  0
 13 23  1  0
 14 20  1  0
 14 16  1  0
 15 21  1  0
 16 17  2  0
 16 15  1  0
 18 12  2  0
 19 18  1  0
 19 14  2  0
 20 13  1  0
 21 11  1  0
 23 25  2  0
 24 23  1  0
 26 24  1  0
 27 36  2  0
 27 32  1  0
 28 24  1  0
 28 32  1  0
 29 28  1  0
 30 31  1  0
 30 29  1  0
 31 27  1  0
 32 33  2  0
 33 34  1  0
 35 34  2  0
 36 35  1  0
 37 11  1  0
 37 38  1  0
 37 47  1  0
 38 41  1  0
 39 43  1  0
 39 38  1  0
 40 39  2  0
 43 42  1  0
 45 43  1  0
 45 46  1  0
 45 44  1  0
 47 50  1  1
 47 48  1  0
 49 47  1  0
 52 58  1  0
 53 58  1  0
 54 55  1  0
 54 53  1  0
 56 55  1  0
 56 64  1  0
 56 57  1  0
 58 57  1  0
 59 52  2  0
 60 52  1  0
 60 51  1  0
 61 62  2  0
 62 81  1  0
 63 62  1  0
 63 66  1  0
 64 61  1  0
 64 65  1  0
 65 63  2  0
 66 67  1  0
 67 68  2  0
 69 72  1  0
 69 68  1  0
 70 69  2  0
 71 70  1  0
 71 66  2  0
 72 73  1  0
 73 74  1  0
 74 75  2  0
 76 75  1  0
 76 80  1  0
 77 76  2  0
 78 73  2  0
 78 77  1  0
 79 78  1  0
 81 82  1  0
 82 85  1  0
 82 84  1  0
 83 81  2  0
 86 87  1  0
 86 61  1  0
 88 86  1  0
 89 91  1  0
 90 91  1  0
 91 60  1  0
M  ISO  4   9 101  10 101  52 100  60 100
M  END
>  <TORSDO>  (98) 
F 21

>  <SCORE>  (98) 
-12.394

>  <name>  (98) 
97

>  <ligand_id>  (98) 
97

>  <original_smiles>  (98) 
[H]c1c([H])c([H])c2c(c1[H])C([H])([H])C([H])([H])C([H])([H])C2([H])N([H])C(=O)C1([H])N(C(=O)C([H])(N([H])C(=O)C([H])(N([H])C([H])([H])[H])C([H])([H])[H])C(C([H])([H])[H])(C([H])([H])[H])C([H])([H])[H])C([H])([H])c2c([H])c(OC([H])([H])C([H])([H])C([H])([H])c3nc(C([H])([H])N(C(=O)N4C([H])([H])C([H])([H])C([H])([H])C([H])(n5nc(-c6c([H])c([H])c(Oc7c([H])c([H])c(F)c([H])c7F)c([H])c6[H])c(C(=O)N([H])[H])c5N([H])[H])C4([H])[H])C([H])(C([H])([H])[H])C([H])([H])[H])n(C([H])([H])[H])n3)c([H])c([H])c2C1([H])[H]

>  <smiles>  (98) 
[H]c1c([H])c([H])c2c(c1[H])C([H])([H])C([H])([H])C([H])([H])C2([H])N([H])C(=O)C1([H])N(C(=O)C([H])(N([H])C(=O)C([H])(N([H])C([H])([H])[H])C([H])([H])[H])C(C([H])([H])[H])(C([H])([H])[H])C([H])([H])[H])C([H])([H])c2c([H])c(OC([H])([H])C([H])([H])C([H])([H])c3nc(C([H])([H])N(C(=O)N4C([H])([H])C([H])([H])C([H])([H])C([H])(n5nc(-c6c([H])c([H])c(Oc7c([H])c([H])c(F)c([H])c7F)c([H])c6[H])c(C(=O)N([H])[H])c5N([H])[H])C4([H])[H])C([H])(C([H])([H])[H])C([H])([H])[H])n(C([H])([H])[H])n3)c([H])c([H])c2C1([H])[H]

$$$$
