0:0:0
     RDKit          3D

 86 94  0  0  1  0  0  0  0  0999 V2000
  -28.5400  -20.5810   20.2070 C   0  0  0  0  0  3  0  0  0  0  0  0
  -30.5410  -20.3170   19.9160 C   0  0  0  0  0  3  0  0  0  0  0  0
  -28.8960  -22.0670   20.1480 C   0  0  0  0  0  0  0  0  0  0  0  0
  -30.2720  -21.7010   19.9360 N   0  0  0  0  0  0  0  0  0  0  0  0
  -29.5480  -19.3710   20.0810 N   0  0  0  0  0  0  0  0  0  0  0  0
  -29.2490  -17.4890   18.3670 C   0  0  0  0  0  1  0  0  0  0  0  0
  -28.1290  -17.2790   20.6650 C   0  0  0  0  0  1  0  0  0  0  0  0
  -29.4410  -17.5440   19.9070 C   0  0  2  0  0  0  0  0  0  0  0  0
  -30.3430  -15.8540   20.0610 C   0  0  0  0  0  0  0  0  0  0  0  0
  -30.4850  -13.2620   19.3150 C   0  0  0  0  0  2  0  0  0  0  0  0
  -29.5660  -12.8190   18.1350 C   0  0  0  0  0  2  0  0  0  0  0  0
  -28.1590  -12.4340   18.6260 C   0  0  0  0  0  2  0  0  0  0  0  0
  -27.6490  -13.4380   19.6810 C   0  0  0  0  0  3  0  0  0  0  0  0
  -28.7110  -13.7900   20.7550 C   0  0  0  0  0  2  0  0  0  0  0  0
  -29.8690  -14.4480   20.0770 N   0  0  0  0  0  0  0  0  0  0  0  0
  -31.5800  -15.7870   19.9040 O   0  0  0  0  0  0  0  0  0  0  0  0
  -25.2920  -13.9320   20.5160 C   0  0  0  0  0  0  0  0  0  0  0  0
  -24.2440  -13.1450   20.8970 C   0  0  0  0  0  0  0  0  0  0  0  0
  -24.7240  -11.8010   20.8390 C   0  0  0  0  0  0  0  0  0  0  0  0
  -26.3440  -13.0780   20.2400 N   0  0  0  0  0  0  0  0  0  0  0  0
  -26.0130  -11.7830   20.4970 N   0  0  0  0  0  0  0  0  0  0  0  0
  -24.0020  -10.5340   21.0310 C   0  0  0  0  0  0  0  0  0  0  0  0
  -24.4410   -9.5630   21.9570 C   0  0  0  0  0  3  0  0  0  0  0  0
  -23.7130   -8.3670   22.1410 C   0  0  0  0  0  3  0  0  0  0  0  0
  -22.5340   -8.1310   21.3960 C   0  0  0  0  0  0  0  0  0  0  0  0
  -22.1120   -9.0910   20.4600 C   0  0  0  0  0  3  0  0  0  0  0  0
  -22.8400  -10.2790   20.2760 C   0  0  0  0  0  3  0  0  0  0  0  0
  -21.7820   -6.9840   21.4850 O   0  0  0  0  0  0  0  0  0  0  0  0
  -21.7270   -6.2460   22.6410 C   0  0  0  0  0  0  0  0  0  0  0  0
  -21.2580   -6.7970   23.8540 C   0  0  0  0  0  3  0  0  0  0  0  0
  -21.1510   -5.9860   25.0010 C   0  0  0  0  0  3  0  0  0  0  0  0
  -21.5020   -4.6240   24.9380 C   0  0  0  0  0  0  0  0  0  0  0  0
  -21.9630   -4.0720   23.7290 C   0  0  0  0  0  3  0  0  0  0  0  0
  -22.0710   -4.8790   22.5840 C   0  0  0  0  0  0  0  0  0  0  0  0
  -22.4940   -4.3370   21.4170 F   0  0  0  0  0  0  0  0  0  0  0  0
  -21.3920   -3.8430   26.0360 F   0  0  0  0  0  0  0  0  0  0  0  0
  -22.8520  -13.6140   21.2010 C   0  0  0  0  0  0  0  0  0  0  0  0
  -22.1470  -12.9130   22.0820 N   0  0  0  0  0  0  0  0  0  0  0  0
  -22.3970  -14.6390   20.6940 O   0  0  0  0  0  0  0  0  0  0  0  0
  -22.5250  -12.0850   22.5180 H   0  0  0  0  0  0  0  0  0  0  0  0
  -21.2130  -13.2130   22.3240 H   0  0  0  0  0  0  0  0  0  0  0  0
  -25.4240  -15.3020   20.3450 N   0  0  0  0  0  0  0  0  0  0  0  0
  -24.6510  -15.9450   20.4670 H   0  0  0  0  0  0  0  0  0  0  0  0
  -26.2720  -15.7600   20.0420 H   0  0  0  0  0  0  0  0  0  0  0  0
  -28.0370  -23.7810   20.0240 C   0  0  0  0  0  2  0  0  0  0  0  0
  -28.2130  -25.5310   20.3470 O   0  0  0  0  0  0  0  0  0  0  0  0
  -24.6670  -31.8890   23.2670 C   0  0  0  0  0  0  0  0  0  0  0  0
  -27.2340  -26.7640   20.2850 C   0  0  0  0  0  0  0  0  0  0  0  0
  -23.4800  -30.4750   21.6420 C   0  0  0  0  0  3  0  0  0  0  0  0
  -24.9360  -28.8030   20.2430 C   0  0  0  0  0  0  0  0  0  0  0  0
  -26.0620  -30.6120   21.5140 C   0  0  0  0  0  2  0  0  0  0  0  0
  -26.1340  -29.1670   20.8660 C   0  0  0  0  0  0  0  0  0  0  0  0
  -27.2640  -28.1810   20.8520 C   0  0  0  0  0  3  0  0  0  0  0  0
  -25.9910  -26.6230   19.6090 C   0  0  0  0  0  3  0  0  0  0  0  0
  -24.9060  -27.5570   19.5880 C   0  0  0  0  0  3  0  0  0  0  0  0
  -23.7200  -29.7490   20.2830 C   0  0  0  0  0  2  0  0  0  0  0  0
  -24.7620  -31.0240   22.1960 N   0  0  0  0  0  0  0  0  0  0  0  0
  -23.5740  -32.1940   23.7730 O   0  0  0  0  0  0  0  0  0  0  0  0
  -22.7530  -29.5180   22.6270 C   0  0  0  0  0  0  0  0  0  0  0  0
  -21.4240  -29.3520   22.4890 N   0  0  0  0  0  0  0  0  0  0  0  0
  -23.4010  -28.9160   23.4860 O   0  0  0  0  0  0  0  0  0  0  0  0
  -20.9530  -29.8840   21.7720 H   0  0  0  0  0  0  0  0  0  0  0  0
  -18.0420  -28.1030   22.9710 C   0  0  0  0  0  0  0  0  0  0  0  0
  -20.5930  -28.4210   23.2680 C   0  0  0  0  0  3  0  0  0  0  0  0
  -20.7270  -26.9780   22.7280 C   0  0  0  0  0  2  0  0  0  0  0  0
  -19.6490  -26.6130   21.7040 C   0  0  0  0  0  2  0  0  0  0  0  0
  -18.2530  -26.7460   22.3210 C   0  0  0  0  0  2  0  0  0  0  0  0
  -19.1390  -28.8960   23.4000 C   0  0  0  0  0  0  0  0  0  0  0  0
  -18.8860  -30.1610   23.9730 C   0  0  0  0  0  3  0  0  0  0  0  0
  -17.5680  -30.6350   24.1200 C   0  0  0  0  0  3  0  0  0  0  0  0
  -16.4860  -29.8400   23.7050 C   0  0  0  0  0  3  0  0  0  0  0  0
  -16.7220  -28.5760   23.1360 C   0  0  0  0  0  3  0  0  0  0  0  0
  -25.9290  -32.5450   23.9070 C   0  0  0  0  0  3  0  0  0  0  0  0
  -25.6100  -33.9510   24.2270 N   0  0  0  0  0  0  0  0  0  0  0  0
  -25.9270  -35.0100   23.4680 C   0  0  0  0  0  0  0  0  0  0  0  0
  -26.5770  -34.9050   22.4240 O   0  0  0  0  0  0  0  0  0  0  0  0
  -25.0370  -34.1060   25.0420 H   0  0  0  0  0  0  0  0  0  0  0  0
  -24.1860  -36.8080   23.1680 C   0  0  0  0  0  1  0  0  0  0  0  0
  -25.4540  -36.4030   23.9370 C   0  0  0  0  0  3  0  0  0  0  0  0
  -27.6080  -37.3080   24.6970 C   0  0  0  0  0  1  0  0  0  0  0  0
  -26.4780  -37.4590   23.7820 N   0  0  0  0  0  0  0  0  0  0  0  0
  -26.0740  -38.3800   23.9270 H   0  0  0  0  0  0  0  0  0  0  0  0
  -26.4120  -31.8030   25.2110 C   0  0  1  0  0  0  0  0  0  0  0  0
  -25.2990  -31.5940   26.2660 C   0  0  0  0  0  1  0  0  0  0  0  0
  -26.9950  -30.4130   24.8710 C   0  0  0  0  0  1  0  0  0  0  0  0
  -27.5550  -32.6050   25.8770 C   0  0  0  0  0  1  0  0  0  0  0  0
  2  4  2  0
  2  5  1  0
  3  1  2  0
  4  3  1  0
  5  1  1  0
  8  6  1  6
  8  9  1  0
  8  5  1  0
  8  7  1  0
  9 15  1  0
 10 15  1  0
 11 12  1  0
 11 10  1  0
 13 12  1  0
 13 20  1  0
 13 14  1  0
 15 14  1  0
 16  9  2  0
 17 18  2  0
 18 37  1  0
 19 18  1  0
 19 22  1  0
 20 21  1  0
 20 17  1  0
 21 19  2  0
 22 23  1  0
 23 24  2  0
 25 28  1  0
 25 24  1  0
 26 25  2  0
 27 26  1  0
 27 22  2  0
 28 29  1  0
 29 30  1  0
 30 31  2  0
 32 31  1  0
 32 36  1  0
 33 32  2  0
 34 29  2  0
 34 33  1  0
 35 34  1  0
 37 38  1  0
 38 41  1  0
 38 40  1  0
 39 37  2  0
 42 43  1  0
 42 17  1  0
 44 42  1  0
 45  3  1  0
 45 46  1  0
 47 58  2  0
 48 46  1  0
 48 53  1  0
 49 57  1  0
 49 59  1  0
 50 56  1  0
 50 52  1  0
 51 57  1  0
 52 51  1  0
 53 52  2  0
 54 48  2  0
 55 54  1  0
 55 50  2  0
 56 49  1  0
 57 47  1  0
 59 61  2  0
 60 59  1  0
 62 60  1  0
 63 72  2  0
 63 68  1  0
 64 60  1  0
 64 68  1  0
 65 64  1  0
 66 67  1  0
 66 65  1  0
 67 63  1  0
 68 69  2  0
 69 70  1  0
 71 70  2  0
 72 71  1  0
 73 47  1  0
 73 74  1  0
 73 83  1  0
 74 77  1  0
 75 79  1  0
 75 74  1  0
 76 75  2  0
 79 78  1  0
 81 82  1  0
 81 79  1  0
 81 80  1  0
 83 86  1  1
 83 84  1  0
 85 83  1  0
M  ISO  4   8 100   9 100  45 101  46 101
M  END
>  <TORSDO>  (1) 
F 18

>  <SCORE>  (1) 
-16.333

>  <name>  (1) 
0

>  <ligand_id>  (1) 
0

>  <original_smiles>  (1) 
[H]c1c([H])c([H])c2c(c1[H])C([H])([H])C([H])([H])C([H])([H])C2([H])N([H])C(=O)C1([H])N(C(=O)C([H])(N([H])C(=O)C([H])(N([H])C([H])([H])[H])C([H])([H])[H])C(C([H])([H])[H])(C([H])([H])[H])C([H])([H])[H])C([H])([H])c2c([H])c(OC([H])([H])c3nc([H])n(C(C(=O)N4C([H])([H])C([H])([H])C([H])([H])C([H])(n5nc(-c6c([H])c([H])c(Oc7c([H])c([H])c(F)c([H])c7F)c([H])c6[H])c(C(=O)N([H])[H])c5N([H])[H])C4([H])[H])(C([H])([H])[H])C([H])([H])[H])c3[H])c([H])c([H])c2C1([H])[H]

>  <smiles>  (1) 
[H]c1c([H])c([H])c2c(c1[H])C([H])([H])C([H])([H])C([H])([H])C2([H])N([H])C(=O)C1([H])N(C(=O)C([H])(N([H])C(=O)C([H])(N([H])C([H])([H])[H])C([H])([H])[H])C(C([H])([H])[H])(C([H])([H])[H])C([H])([H])[H])C([H])([H])c2c([H])c(OC([H])([H])c3nc([H])n(C(C(=O)N4C([H])([H])C([H])([H])C([H])([H])C([H])(n5nc(-c6c([H])c([H])c(Oc7c([H])c([H])c(F)c([H])c7F)c([H])c6[H])c(C(=O)N([H])[H])c5N([H])[H])C4([H])[H])(C([H])([H])[H])C([H])([H])[H])c3[H])c([H])c([H])c2C1([H])[H]

$$$$
1:0:0
     RDKit          3D

 94102  0  0  1  0  0  0  0  0999 V2000
  -27.3930  -22.5990   19.2240 C   0  0  0  0  0  3  0  0  0  0  0  0
  -28.4300  -23.1220   19.9530 C   0  0  0  0  0  0  0  0  0  0  0  0
  -28.7430  -20.7450   19.4700 C   0  0  0  0  0  3  0  0  0  0  0  0
  -29.3140  -21.9300   20.0240 N   0  0  0  0  0  0  0  0  0  0  0  0
  -27.6000  -21.2570   18.9770 N   0  0  0  0  0  0  0  0  0  0  0  0
  -26.9040  -20.6820   18.5200 H   0  0  0  0  0  0  0  0  0  0  0  0
  -31.6360  -21.2600   19.4770 C   0  0  0  0  0  1  0  0  0  0  0  0
  -30.7790  -20.9910   21.8480 C   0  0  0  0  0  1  0  0  0  0  0  0
  -31.3100  -23.2520   20.8890 C   0  0  0  0  0  1  0  0  0  0  0  0
  -30.7150  -21.8600   20.5690 C   0  0  2  0  0  0  0  0  0  0  0  0
  -28.2330  -18.5590   18.1180 C   0  0  0  0  0  1  0  0  0  0  0  0
  -27.8490  -18.6340   20.5840 C   0  0  0  0  0  1  0  0  0  0  0  0
  -28.8430  -19.0340   19.4710 C   0  0  2  0  0  0  0  0  0  0  0  0
  -30.1210  -17.8960   19.5700 C   0  0  0  0  0  2  0  0  0  0  0  0
  -30.6470  -15.1090   19.6700 C   0  0  0  0  0  0  0  0  0  0  0  0
  -30.5240  -12.6860   18.8860 C   0  0  0  0  0  2  0  0  0  0  0  0
  -29.5110  -12.4790   17.7350 C   0  0  0  0  0  2  0  0  0  0  0  0
  -28.0820  -12.2820   18.2760 C   0  0  0  0  0  2  0  0  0  0  0  0
  -27.7260  -13.2920   19.3960 C   0  0  0  0  0  3  0  0  0  0  0  0
  -28.8510  -13.4260   20.4440 C   0  0  0  0  0  2  0  0  0  0  0  0
  -30.0630  -13.8360   19.7210 N   0  0  0  0  0  0  0  0  0  0  0  0
  -31.8360  -15.1470   19.3420 O   0  0  0  0  0  0  0  0  0  0  0  0
  -29.8720  -16.3130   19.7740 N   0  0  0  0  0  0  0  0  0  0  0  0
  -28.9110  -16.1090   19.9970 H   0  0  0  0  0  0  0  0  0  0  0  0
  -25.4410  -13.9080   20.3770 C   0  0  0  0  0  0  0  0  0  0  0  0
  -24.3890  -13.1530   20.8070 C   0  0  0  0  0  0  0  0  0  0  0  0
  -24.8000  -11.7890   20.6800 C   0  0  0  0  0  0  0  0  0  0  0  0
  -26.4290  -13.0120   20.0050 N   0  0  0  0  0  0  0  0  0  0  0  0
  -26.0580  -11.7270   20.2580 N   0  0  0  0  0  0  0  0  0  0  0  0
  -24.0460  -10.5430   20.8750 C   0  0  0  0  0  0  0  0  0  0  0  0
  -24.4500   -9.5750   21.8200 C   0  0  0  0  0  3  0  0  0  0  0  0
  -23.6930   -8.3980   22.0070 C   0  0  0  0  0  3  0  0  0  0  0  0
  -22.5170   -8.1810   21.2500 C   0  0  0  0  0  0  0  0  0  0  0  0
  -22.1310   -9.1400   20.2980 C   0  0  0  0  0  3  0  0  0  0  0  0
  -22.8880  -10.3080   20.1080 C   0  0  0  0  0  3  0  0  0  0  0  0
  -21.7350   -7.0550   21.3470 O   0  0  0  0  0  0  0  0  0  0  0  0
  -21.5860   -6.3810   22.5330 C   0  0  0  0  0  0  0  0  0  0  0  0
  -21.0270   -6.9960   23.6750 C   0  0  0  0  0  3  0  0  0  0  0  0
  -20.8250   -6.2450   24.8490 C   0  0  0  0  0  3  0  0  0  0  0  0
  -21.1750   -4.8820   24.8840 C   0  0  0  0  0  0  0  0  0  0  0  0
  -21.7310   -4.2690   23.7480 C   0  0  0  0  0  3  0  0  0  0  0  0
  -21.9320   -5.0160   22.5750 C   0  0  0  0  0  0  0  0  0  0  0  0
  -22.4460   -4.4130   21.4750 F   0  0  0  0  0  0  0  0  0  0  0  0
  -20.9740   -4.1600   26.0120 F   0  0  0  0  0  0  0  0  0  0  0  0
  -23.0330  -13.6610   21.2070 C   0  0  0  0  0  0  0  0  0  0  0  0
  -22.3480  -12.9570   22.1000 N   0  0  0  0  0  0  0  0  0  0  0  0
  -22.5950  -14.7240   20.7650 O   0  0  0  0  0  0  0  0  0  0  0  0
  -22.7190  -12.1040   22.4910 H   0  0  0  0  0  0  0  0  0  0  0  0
  -21.4380  -13.2770   22.3950 H   0  0  0  0  0  0  0  0  0  0  0  0
  -25.6380  -15.2810   20.2400 N   0  0  0  0  0  0  0  0  0  0  0  0
  -24.9040  -15.9490   20.4420 H   0  0  0  0  0  0  0  0  0  0  0  0
  -26.4500  -15.7000   19.8100 H   0  0  0  0  0  0  0  0  0  0  0  0
  -28.3310  -24.6180   20.7080 C   0  0  0  0  0  2  0  0  0  0  0  0
  -28.4410  -26.0960   20.1680 O   0  0  0  0  0  0  0  0  0  0  0  0
  -24.5520  -31.6920   23.1900 C   0  0  0  0  0  0  0  0  0  0  0  0
  -27.3560  -27.0640   20.1940 C   0  0  0  0  0  0  0  0  0  0  0  0
  -23.4430  -30.2890   21.4920 C   0  0  0  0  0  3  0  0  0  0  0  0
  -24.9820  -28.7670   20.0970 C   0  0  0  0  0  0  0  0  0  0  0  0
  -25.9910  -30.6260   21.4110 C   0  0  0  0  0  2  0  0  0  0  0  0
  -26.1310  -29.2370   20.7480 C   0  0  0  0  0  0  0  0  0  0  0  0
  -27.3200  -28.4030   20.7780 C   0  0  0  0  0  3  0  0  0  0  0  0
  -26.1790  -26.7080   19.5070 C   0  0  0  0  0  3  0  0  0  0  0  0
  -25.0190  -27.5170   19.4620 C   0  0  0  0  0  3  0  0  0  0  0  0
  -23.7290  -29.6320   20.1160 C   0  0  0  0  0  2  0  0  0  0  0  0
  -24.6790  -30.8920   22.0870 N   0  0  0  0  0  0  0  0  0  0  0  0
  -23.4430  -31.9360   23.6910 O   0  0  0  0  0  0  0  0  0  0  0  0
  -22.7650  -29.2510   22.4230 C   0  0  0  0  0  0  0  0  0  0  0  0
  -21.4460  -29.0470   22.2620 N   0  0  0  0  0  0  0  0  0  0  0  0
  -23.4310  -28.6270   23.2540 O   0  0  0  0  0  0  0  0  0  0  0  0
  -20.9650  -29.6050   21.5710 H   0  0  0  0  0  0  0  0  0  0  0  0
  -18.0790  -27.7700   22.6870 C   0  0  0  0  0  0  0  0  0  0  0  0
  -20.6310  -28.0770   22.9970 C   0  0  0  0  0  3  0  0  0  0  0  0
  -20.7650  -26.6610   22.3900 C   0  0  0  0  0  2  0  0  0  0  0  0
  -19.6820  -26.3430   21.3520 C   0  0  0  0  0  2  0  0  0  0  0  0
  -18.2910  -26.4420   21.9790 C   0  0  0  0  0  2  0  0  0  0  0  0
  -19.1770  -28.5440   23.1510 C   0  0  0  0  0  0  0  0  0  0  0  0
  -18.9220  -29.7840   23.7760 C   0  0  0  0  0  3  0  0  0  0  0  0
  -17.6040  -30.2530   23.9370 C   0  0  0  0  0  3  0  0  0  0  0  0
  -16.5230  -29.4780   23.4830 C   0  0  0  0  0  3  0  0  0  0  0  0
  -16.7610  -28.2370   22.8650 C   0  0  0  0  0  3  0  0  0  0  0  0
  -25.7930  -32.3510   23.8660 C   0  0  0  0  0  3  0  0  0  0  0  0
  -26.2580  -31.6020   25.1770 C   0  0  1  0  0  0  0  0  0  0  0  0
  -25.1180  -31.3680   26.1970 C   0  0  0  0  0  1  0  0  0  0  0  0
  -26.8790  -30.2250   24.8420 C   0  0  0  0  0  1  0  0  0  0  0  0
  -27.3590  -32.4260   25.8860 C   0  0  0  0  0  1  0  0  0  0  0  0
  -25.4450  -33.7480   24.1710 N   0  0  0  0  0  0  0  0  0  0  0  0
  -25.7790  -34.8020   23.4160 C   0  0  0  0  0  0  0  0  0  0  0  0
  -26.4800  -34.7030   22.4060 O   0  0  0  0  0  0  0  0  0  0  0  0
  -24.8200  -33.8940   24.9520 H   0  0  0  0  0  0  0  0  0  0  0  0
  -24.0310  -36.5680   23.0030 C   0  0  0  0  0  1  0  0  0  0  0  0
  -25.2550  -36.1860   23.8490 C   0  0  0  0  0  3  0  0  0  0  0  0
  -27.3430  -37.1280   24.7380 C   0  0  0  0  0  1  0  0  0  0  0  0
  -26.2710  -37.2580   23.7540 N   0  0  0  0  0  0  0  0  0  0  0  0
  -25.8420  -38.1720   23.8720 H   0  0  0  0  0  0  0  0  0  0  0  0
  1  2  2  0
  2  4  1  0
  2 53  1  0
  3 13  1  0
  3  4  1  0
  4 10  1  0
  5  1  1  0
  5  3  1  0
  6  5  1  0
 10  7  1  6
 10  9  1  0
 10  8  1  0
 13 11  1  6
 13 14  1  0
 13 12  1  0
 14 23  1  0
 15 21  1  0
 15 23  1  0
 16 21  1  0
 17 18  1  0
 17 16  1  0
 19 18  1  0
 19 28  1  0
 19 20  1  0
 21 20  1  0
 22 15  2  0
 23 24  1  0
 25 26  2  0
 26 45  1  0
 27 26  1  0
 27 30  1  0
 28 29  1  0
 28 25  1  0
 29 27  2  0
 30 31  1  0
 31 32  2  0
 33 36  1  0
 33 32  1  0
 34 33  2  0
 35 34  1  0
 35 30  2  0
 36 37  1  0
 37 42  2  0
 37 38  1  0
 38 39  2  0
 39 40  1  0
 40 44  1  0
 41 40  2  0
 42 41  1  0
 43 42  1  0
 45 46  1  0
 46 49  1  0
 46 48  1  0
 47 45  2  0
 50 25  1  0
 50 51  1  0
 52 50  1  0
 54 56  1  0
 54 53  1  0
 55 66  2  0
 56 61  1  0
 57 65  1  0
 57 67  1  0
 58 64  1  0
 58 60  1  0
 59 65  1  0
 60 61  2  0
 60 59  1  0
 62 56  2  0
 63 62  1  0
 63 58  2  0
 64 57  1  0
 65 55  1  0
 67 69  2  0
 68 67  1  0
 70 68  1  0
 71 80  2  0
 71 76  1  0
 72 68  1  0
 72 76  1  0
 73 72  1  0
 74 75  1  0
 74 73  1  0
 75 71  1  0
 76 77  2  0
 77 78  1  0
 79 78  2  0
 80 79  1  0
 81 55  1  0
 81 86  1  0
 81 82  1  0
 82 85  1  1
 82 83  1  0
 84 82  1  0
 86 89  1  0
 87 91  1  0
 87 86  1  0
 88 87  2  0
 91 90  1  0
 93 91  1  0
 93 94  1  0
 93 92  1  0
M  ISO  4  15 100  23 100  53 101  54 101
M  END
>  <TORSDO>  (2) 
F 20

>  <SCORE>  (2) 
-14.522

>  <name>  (2) 
1

>  <ligand_id>  (2) 
1

>  <original_smiles>  (2) 
[H]c1c([H])c([H])c2c(c1[H])C([H])([H])C([H])([H])C([H])([H])C2([H])N([H])C(=O)C1([H])N(C(=O)C([H])(N([H])C(=O)C([H])(N([H])C([H])([H])[H])C([H])([H])[H])C(C([H])([H])[H])(C([H])([H])[H])C([H])([H])[H])C([H])([H])c2c([H])c(OC([H])([H])c3c([H])[n+]([H])c(C(C([H])([H])[H])(C([H])([H])[H])C([H])([H])N([H])C(=O)N4C([H])([H])C([H])([H])C([H])([H])C([H])(n5nc(-c6c([H])c([H])c(Oc7c([H])c([H])c(F)c([H])c7F)c([H])c6[H])c(C(=O)N([H])[H])c5N([H])[H])C4([H])[H])n3C(C([H])([H])[H])(C([H])([H])[H])C([H])([H])[H])c([H])c([H])c2C1([H])[H]

>  <smiles>  (2) 
[H]c1c([H])c([H])c2c(c1[H])C([H])([H])C([H])([H])C([H])([H])C2([H])N([H])C(=O)C1([H])N(C(=O)C([H])(N([H])C(=O)C([H])(N([H])C([H])([H])[H])C([H])([H])[H])C(C([H])([H])[H])(C([H])([H])[H])C([H])([H])[H])C([H])([H])c2c([H])c(OC([H])([H])c3c([H])[n+]([H])c(C(C([H])([H])[H])(C([H])([H])[H])C([H])([H])N([H])C(=O)N4C([H])([H])C([H])([H])C([H])([H])C([H])(n5nc(-c6c([H])c([H])c(Oc7c([H])c([H])c(F)c([H])c7F)c([H])c6[H])c(C(=O)N([H])[H])c5N([H])[H])C4([H])[H])n3C(C([H])([H])[H])(C([H])([H])[H])C([H])([H])[H])c([H])c([H])c2C1([H])[H]

$$$$
2:0:0
     RDKit          3D

 89 97  0  0  1  0  0  0  0  0999 V2000
  -28.7500  -22.7700   21.6420 C   0  0  0  0  0  3  0  0  0  0  0  0
  -28.9790  -21.3910   21.6680 C   0  0  0  0  0  3  0  0  0  0  0  0
  -28.7430  -23.2200   20.2820 C   0  0  0  0  0  0  0  0  0  0  0  0
  -29.0070  -22.0270   19.5740 N   0  0  0  0  0  0  0  0  0  0  0  0
  -29.1670  -20.8590   20.3930 N   0  0  0  0  0  0  0  0  0  0  0  0
  -29.9790  -25.1170   19.1120 C   0  0  0  0  0  1  0  0  0  0  0  0
  -27.7180  -24.5570   18.3240 C   0  0  0  0  0  1  0  0  0  0  0  0
  -28.5650  -24.7530   19.5940 C   0  0  1  0  0  0  0  0  0  0  0  0
  -28.2740  -26.1460   20.3210 O   0  0  0  0  0  0  0  0  0  0  0  0
  -24.6110  -31.9040   23.2330 C   0  0  0  0  0  0  0  0  0  0  0  0
  -27.2070  -27.1430   20.1920 C   0  0  0  0  0  0  0  0  0  0  0  0
  -23.4200  -30.5030   21.5970 C   0  0  0  0  0  3  0  0  0  0  0  0
  -24.8730  -28.9310   20.1710 C   0  0  0  0  0  0  0  0  0  0  0  0
  -25.9790  -30.7600   21.4380 C   0  0  0  0  0  2  0  0  0  0  0  0
  -26.0570  -29.3650   20.7790 C   0  0  0  0  0  0  0  0  0  0  0  0
  -27.2160  -28.4880   20.7710 C   0  0  0  0  0  3  0  0  0  0  0  0
  -25.9730  -26.8240   19.5780 C   0  0  0  0  0  3  0  0  0  0  0  0
  -24.8480  -27.6750   19.5570 C   0  0  0  0  0  3  0  0  0  0  0  0
  -23.6450  -29.8290   20.2180 C   0  0  0  0  0  2  0  0  0  0  0  0
  -24.6910  -31.0780   22.1430 N   0  0  0  0  0  0  0  0  0  0  0  0
  -23.5210  -32.1870   23.7560 O   0  0  0  0  0  0  0  0  0  0  0  0
  -22.7400  -29.4950   22.5590 C   0  0  0  0  0  0  0  0  0  0  0  0
  -21.4120  -29.3180   22.4300 N   0  0  0  0  0  0  0  0  0  0  0  0
  -23.4100  -28.8750   23.3880 O   0  0  0  0  0  0  0  0  0  0  0  0
  -20.9260  -29.8700   21.7370 H   0  0  0  0  0  0  0  0  0  0  0  0
  -18.0350  -28.0980   22.9270 C   0  0  0  0  0  0  0  0  0  0  0  0
  -20.5920  -28.3790   23.2020 C   0  0  0  0  0  3  0  0  0  0  0  0
  -20.7060  -26.9450   22.6350 C   0  0  0  0  0  2  0  0  0  0  0  0
  -19.6090  -26.6100   21.6180 C   0  0  0  0  0  2  0  0  0  0  0  0
  -18.2240  -26.7480   22.2570 C   0  0  0  0  0  2  0  0  0  0  0  0
  -19.1470  -28.8710   23.3570 C   0  0  0  0  0  0  0  0  0  0  0  0
  -18.9150  -30.1320   23.9460 C   0  0  0  0  0  3  0  0  0  0  0  0
  -17.6050  -30.6220   24.1090 C   0  0  0  0  0  3  0  0  0  0  0  0
  -16.5090  -29.8470   23.6930 C   0  0  0  0  0  3  0  0  0  0  0  0
  -16.7250  -28.5860   23.1090 C   0  0  0  0  0  3  0  0  0  0  0  0
  -25.8830  -32.5490   23.8610 C   0  0  0  0  0  3  0  0  0  0  0  0
  -26.3860  -31.7920   25.1530 C   0  0  1  0  0  0  0  0  0  0  0  0
  -25.2830  -31.5660   26.2140 C   0  0  0  0  0  1  0  0  0  0  0  0
  -26.9730  -30.4100   24.7870 C   0  0  0  0  0  1  0  0  0  0  0  0
  -27.5300  -32.5940   25.8160 C   0  0  0  0  0  1  0  0  0  0  0  0
  -25.5630  -33.9490   24.1830 N   0  0  0  0  0  0  0  0  0  0  0  0
  -25.8970  -35.0040   23.4270 C   0  0  0  0  0  0  0  0  0  0  0  0
  -26.5720  -34.9000   22.3990 O   0  0  0  0  0  0  0  0  0  0  0  0
  -24.9640  -34.1040   24.9800 H   0  0  0  0  0  0  0  0  0  0  0  0
  -24.1720  -36.8010   23.0660 C   0  0  0  0  0  1  0  0  0  0  0  0
  -25.4090  -36.3940   23.8820 C   0  0  0  0  0  3  0  0  0  0  0  0
  -27.5400  -37.2820   24.7230 C   0  0  0  0  0  1  0  0  0  0  0  0
  -26.4430  -37.4480   23.7730 N   0  0  0  0  0  0  0  0  0  0  0  0
  -26.0350  -38.3680   23.9180 H   0  0  0  0  0  0  0  0  0  0  0  0
  -29.2460  -19.3330   19.8750 C   0  0  0  0  0  3  0  0  0  0  0  0
  -30.0020  -17.9350   20.5560 C   0  0  0  0  0  3  0  0  0  0  0  0
  -30.5260  -15.1630   20.2210 C   0  0  0  0  0  0  0  0  0  0  0  0
  -30.4310  -12.7670   19.3370 C   0  0  0  0  0  2  0  0  0  0  0  0
  -29.4840  -12.6170   18.1250 C   0  0  0  0  0  2  0  0  0  0  0  0
  -28.0310  -12.3840   18.5870 C   0  0  0  0  0  2  0  0  0  0  0  0
  -27.6100  -13.3310   19.7390 C   0  0  0  0  0  3  0  0  0  0  0  0
  -28.6870  -13.4500   20.8370 C   0  0  0  0  0  2  0  0  0  0  0  0
  -29.9240  -13.8940   20.1740 N   0  0  0  0  0  0  0  0  0  0  0  0
  -31.7610  -15.1680   20.1480 O   0  0  0  0  0  0  0  0  0  0  0  0
  -28.8770  -16.4540   18.9290 C   0  0  0  0  0  1  0  0  0  0  0  0
  -29.7690  -16.4030   20.0920 N   0  0  0  0  0  0  0  0  0  0  0  0
  -25.2490  -13.9060   20.5220 C   0  0  0  0  0  0  0  0  0  0  0  0
  -24.1880  -13.1290   20.8920 C   0  0  0  0  0  0  0  0  0  0  0  0
  -24.6570  -11.7800   20.8540 C   0  0  0  0  0  0  0  0  0  0  0  0
  -26.2890  -13.0280   20.2680 N   0  0  0  0  0  0  0  0  0  0  0  0
  -25.9460  -11.7440   20.5360 N   0  0  0  0  0  0  0  0  0  0  0  0
  -23.9370  -10.5160   21.0410 C   0  0  0  0  0  0  0  0  0  0  0  0
  -24.3800   -9.5440   21.9660 C   0  0  0  0  0  3  0  0  0  0  0  0
  -23.6590   -8.3450   22.1440 C   0  0  0  0  0  3  0  0  0  0  0  0
  -22.4810   -8.1080   21.3970 C   0  0  0  0  0  0  0  0  0  0  0  0
  -22.0570   -9.0680   20.4610 C   0  0  0  0  0  3  0  0  0  0  0  0
  -22.7790  -10.2590   20.2810 C   0  0  0  0  0  3  0  0  0  0  0  0
  -21.7290   -6.9620   21.4860 O   0  0  0  0  0  0  0  0  0  0  0  0
  -21.6920   -6.2150   22.6350 C   0  0  0  0  0  0  0  0  0  0  0  0
  -21.2680   -6.7610   23.8670 C   0  0  0  0  0  3  0  0  0  0  0  0
  -21.1780   -5.9400   25.0080 C   0  0  0  0  0  3  0  0  0  0  0  0
  -21.5010   -4.5720   24.9190 C   0  0  0  0  0  0  0  0  0  0  0  0
  -21.9170   -4.0260   23.6930 C   0  0  0  0  0  3  0  0  0  0  0  0
  -22.0090   -4.8440   22.5530 C   0  0  0  0  0  0  0  0  0  0  0  0
  -22.3900   -4.3070   21.3690 F   0  0  0  0  0  0  0  0  0  0  0  0
  -21.4060   -3.7800   26.0130 F   0  0  0  0  0  0  0  0  0  0  0  0
  -22.7920  -13.6030   21.1700 C   0  0  0  0  0  0  0  0  0  0  0  0
  -22.0670  -12.9000   22.0330 N   0  0  0  0  0  0  0  0  0  0  0  0
  -22.3530  -14.6310   20.6570 O   0  0  0  0  0  0  0  0  0  0  0  0
  -22.4370  -12.0680   22.4710 H   0  0  0  0  0  0  0  0  0  0  0  0
  -21.1300  -13.1990   22.2620 H   0  0  0  0  0  0  0  0  0  0  0  0
  -25.4080  -15.2800   20.3510 N   0  0  0  0  0  0  0  0  0  0  0  0
  -24.6450  -15.9320   20.4860 H   0  0  0  0  0  0  0  0  0  0  0  0
  -26.2660  -15.7260   20.0580 H   0  0  0  0  0  0  0  0  0  0  0  0
  1  2  2  0
  3  1  1  0
  4  3  2  0
  4  5  1  0
  5  2  1  0
  8  6  1  6
  7  8  1  0
  8  3  1  0
  8  9  1  0
 10 21  2  0
 11  9  1  0
 11 16  1  0
 12 20  1  0
 12 22  1  0
 13 19  1  0
 13 15  1  0
 14 20  1  0
 15 14  1  0
 16 15  2  0
 17 11  2  0
 18 17  1  0
 18 13  2  0
 19 12  1  0
 20 10  1  0
 22 24  2  0
 23 22  1  0
 25 23  1  0
 26 35  2  0
 26 31  1  0
 27 23  1  0
 27 31  1  0
 28 27  1  0
 29 30  1  0
 29 28  1  0
 30 26  1  0
 31 32  2  0
 32 33  1  0
 34 33  2  0
 35 34  1  0
 36 10  1  0
 36 41  1  0
 36 37  1  0
 37 40  1  1
 37 38  1  0
 39 37  1  0
 41 44  1  0
 42 46  1  0
 42 41  1  0
 43 42  2  0
 46 45  1  0
 48 46  1  0
 48 49  1  0
 48 47  1  0
 50  5  1  0
 50 51  2  0
 53 58  1  0
 54 55  1  0
 54 53  1  0
 56 55  1  0
 56 65  1  0
 56 57  1  0
 58 52  1  0
 58 57  1  0
 59 52  2  0
 60 61  1  0
 61 52  1  0
 61 51  1  0
 62 63  2  0
 63 82  1  0
 64 63  1  0
 64 67  1  0
 65 62  1  0
 65 66  1  0
 66 64  2  0
 67 68  1  0
 68 69  2  0
 70 73  1  0
 70 69  1  0
 71 70  2  0
 72 71  1  0
 72 67  2  0
 73 74  1  0
 74 75  1  0
 75 76  2  0
 77 76  1  0
 77 81  1  0
 78 77  2  0
 79 74  2  0
 79 78  1  0
 80 79  1  0
 82 83  1  0
 83 86  1  0
 83 85  1  0
 84 82  2  0
 87 88  1  0
 87 62  1  0
 89 87  1  0
M  ISO  4   8 101   9 101  52 100  61 100
M  END
>  <TORSDO>  (3) 
F 19

>  <SCORE>  (3) 
-15.062

>  <name>  (3) 
2

>  <ligand_id>  (3) 
2

>  <original_smiles>  (3) 
[H]c1c([H])c([H])c2c(c1[H])C([H])([H])C([H])([H])C([H])([H])C2([H])N([H])C(=O)C1([H])N(C(=O)C([H])(N([H])C(=O)C([H])(N([H])C([H])([H])[H])C([H])([H])[H])C(C([H])([H])[H])(C([H])([H])[H])C([H])([H])[H])C([H])([H])c2c([H])c(OC(c3nn(C([H])([H])C([H])([H])N(C(=O)N4C([H])([H])C([H])([H])C([H])([H])C([H])(n5nc(-c6c([H])c([H])c(Oc7c([H])c([H])c(F)c([H])c7F)c([H])c6[H])c(C(=O)N([H])[H])c5N([H])[H])C4([H])[H])C([H])([H])[H])c([H])c3[H])(C([H])([H])[H])C([H])([H])[H])c([H])c([H])c2C1([H])[H]

>  <smiles>  (3) 
[H]c1c([H])c([H])c2c(c1[H])C([H])([H])C([H])([H])C([H])([H])C2([H])N([H])C(=O)C1([H])N(C(=O)C([H])(N([H])C(=O)C([H])(N([H])C([H])([H])[H])C([H])([H])[H])C(C([H])([H])[H])(C([H])([H])[H])C([H])([H])[H])C([H])([H])c2c([H])c(OC(c3nn(C([H])([H])C([H])([H])N(C(=O)N4C([H])([H])C([H])([H])C([H])([H])C([H])(n5nc(-c6c([H])c([H])c(Oc7c([H])c([H])c(F)c([H])c7F)c([H])c6[H])c(C(=O)N([H])[H])c5N([H])[H])C4([H])[H])C([H])([H])[H])c([H])c3[H])(C([H])([H])[H])C([H])([H])[H])c([H])c([H])c2C1([H])[H]

$$$$
3:0:0
     RDKit          3D

 89 97  0  0  1  0  0  0  0  0999 V2000
  -30.0950  -20.2280   18.5430 C   0  0  0  0  0  2  0  0  0  0  0  0
  -29.6400  -19.8290   19.7730 C   0  0  0  0  0  0  0  0  0  0  0  0
  -30.2400  -18.0170   18.4770 C   0  0  0  0  0  3  0  0  0  0  0  0
  -30.3380  -16.7100   17.7460 C   0  0  0  0  0  1  0  0  0  0  0  0
  -29.9440  -18.3000   19.7790 N   0  0  0  0  0  0  0  0  0  0  0  0
  -30.4200  -19.1460   17.8070 N   0  0  0  0  0  0  0  0  0  0  0  0
  -30.6970  -19.1940   16.8340 H   0  0  0  0  0  0  0  0  0  0  0  0
  -30.2780  -17.2940   22.1380 C   0  0  0  0  0  1  0  0  0  0  0  0
  -29.9180  -16.8830   20.7010 C   0  0  0  0  0  3  0  0  0  0  0  0
  -30.6940  -15.3290   20.4120 C   0  0  0  0  0  0  0  0  0  0  0  0
  -30.6570  -12.9140   19.4660 C   0  0  0  0  0  2  0  0  0  0  0  0
  -29.7530  -12.7850   18.2140 C   0  0  0  0  0  2  0  0  0  0  0  0
  -28.2880  -12.5340   18.6170 C   0  0  0  0  0  2  0  0  0  0  0  0
  -27.8390  -13.4620   19.7730 C   0  0  0  0  0  3  0  0  0  0  0  0
  -28.8690  -13.5430   20.9180 C   0  0  0  0  0  2  0  0  0  0  0  0
  -30.1310  -14.0270   20.3360 N   0  0  0  0  0  0  0  0  0  0  0  0
  -31.9080  -15.3180   20.1620 O   0  0  0  0  0  0  0  0  0  0  0  0
  -25.4510  -14.0210   20.4690 C   0  0  0  0  0  0  0  0  0  0  0  0
  -24.3830  -13.2430   20.8210 C   0  0  0  0  0  0  0  0  0  0  0  0
  -24.8540  -11.8940   20.8120 C   0  0  0  0  0  0  0  0  0  0  0  0
  -26.5000  -13.1460   20.2530 N   0  0  0  0  0  0  0  0  0  0  0  0
  -26.1530  -11.8620   20.5310 N   0  0  0  0  0  0  0  0  0  0  0  0
  -24.1260  -10.6310   20.9970 C   0  0  0  0  0  0  0  0  0  0  0  0
  -24.5290   -9.6780   21.9590 C   0  0  0  0  0  3  0  0  0  0  0  0
  -23.7990   -8.4820   22.1310 C   0  0  0  0  0  3  0  0  0  0  0  0
  -22.6520   -8.2300   21.3410 C   0  0  0  0  0  0  0  0  0  0  0  0
  -22.2690   -9.1710   20.3690 C   0  0  0  0  0  3  0  0  0  0  0  0
  -23.0000  -10.3580   20.1950 C   0  0  0  0  0  3  0  0  0  0  0  0
  -21.8970   -7.0840   21.4190 O   0  0  0  0  0  0  0  0  0  0  0  0
  -21.7960   -6.3670   22.5840 C   0  0  0  0  0  0  0  0  0  0  0  0
  -21.2970   -6.9450   23.7720 C   0  0  0  0  0  3  0  0  0  0  0  0
  -21.1440   -6.1540   24.9290 C   0  0  0  0  0  3  0  0  0  0  0  0
  -21.4810   -4.7870   24.8980 C   0  0  0  0  0  0  0  0  0  0  0  0
  -21.9730   -4.2090   23.7140 C   0  0  0  0  0  3  0  0  0  0  0  0
  -22.1260   -4.9980   22.5600 C   0  0  0  0  0  0  0  0  0  0  0  0
  -22.5810   -4.4310   21.4160 F   0  0  0  0  0  0  0  0  0  0  0  0
  -21.3290   -4.0260   26.0070 F   0  0  0  0  0  0  0  0  0  0  0  0
  -22.9780  -13.7180   21.0520 C   0  0  0  0  0  0  0  0  0  0  0  0
  -22.2340  -13.0330   21.9140 N   0  0  0  0  0  0  0  0  0  0  0  0
  -22.5490  -14.7320   20.5040 O   0  0  0  0  0  0  0  0  0  0  0  0
  -22.5950  -12.2130   22.3780 H   0  0  0  0  0  0  0  0  0  0  0  0
  -21.2910  -13.3350   22.1120 H   0  0  0  0  0  0  0  0  0  0  0  0
  -25.6120  -15.3920   20.2840 N   0  0  0  0  0  0  0  0  0  0  0  0
  -24.8380  -16.0400   20.3750 H   0  0  0  0  0  0  0  0  0  0  0  0
  -26.4600  -15.8350   19.9570 H   0  0  0  0  0  0  0  0  0  0  0  0
  -28.9650  -21.1610   20.6070 C   0  0  0  0  0  3  0  0  0  0  0  0
  -29.0070  -22.8860   20.0960 C   0  0  0  0  0  3  0  0  0  0  0  0
  -28.0950  -24.3610   20.5280 C   0  0  0  0  0  3  0  0  0  0  0  0
  -28.3140  -25.9690   20.3030 O   0  0  0  0  0  0  0  0  0  0  0  0
  -24.6470  -31.8830   23.2050 C   0  0  0  0  0  0  0  0  0  0  0  0
  -27.2750  -27.0280   20.2680 C   0  0  0  0  0  0  0  0  0  0  0  0
  -23.4800  -30.4640   21.5660 C   0  0  0  0  0  3  0  0  0  0  0  0
  -24.9570  -28.8630   20.1770 C   0  0  0  0  0  0  0  0  0  0  0  0
  -26.0440  -30.7060   21.4420 C   0  0  0  0  0  2  0  0  0  0  0  0
  -26.1340  -29.2940   20.8020 C   0  0  0  0  0  0  0  0  0  0  0  0
  -27.2910  -28.3970   20.8190 C   0  0  0  0  0  3  0  0  0  0  0  0
  -26.0660  -26.7390   19.5960 C   0  0  0  0  0  3  0  0  0  0  0  0
  -24.9460  -27.6050   19.5540 C   0  0  0  0  0  3  0  0  0  0  0  0
  -23.7290  -29.7700   20.1990 C   0  0  0  0  0  2  0  0  0  0  0  0
  -24.7440  -31.0450   22.1250 N   0  0  0  0  0  0  0  0  0  0  0  0
  -23.5500  -32.1670   23.7140 O   0  0  0  0  0  0  0  0  0  0  0  0
  -22.7860  -29.4680   22.5330 C   0  0  0  0  0  0  0  0  0  0  0  0
  -21.4600  -29.2920   22.3960 N   0  0  0  0  0  0  0  0  0  0  0  0
  -23.4490  -28.8550   23.3730 O   0  0  0  0  0  0  0  0  0  0  0  0
  -20.9790  -29.8380   21.6950 H   0  0  0  0  0  0  0  0  0  0  0  0
  -18.0810  -28.0620   22.8780 C   0  0  0  0  0  0  0  0  0  0  0  0
  -20.6350  -28.3550   23.1660 C   0  0  0  0  0  3  0  0  0  0  0  0
  -20.7560  -26.9190   22.6070 C   0  0  0  0  0  2  0  0  0  0  0  0
  -19.6680  -26.5760   21.5830 C   0  0  0  0  0  2  0  0  0  0  0  0
  -18.2780  -26.7110   22.2120 C   0  0  0  0  0  2  0  0  0  0  0  0
  -19.1870  -28.8410   23.3110 C   0  0  0  0  0  0  0  0  0  0  0  0
  -18.9480  -30.1030   23.8960 C   0  0  0  0  0  3  0  0  0  0  0  0
  -17.6350  -30.5880   24.0500 C   0  0  0  0  0  3  0  0  0  0  0  0
  -16.5430  -29.8080   23.6310 C   0  0  0  0  0  3  0  0  0  0  0  0
  -16.7680  -28.5470   23.0510 C   0  0  0  0  0  3  0  0  0  0  0  0
  -25.9070  -32.5400   23.8460 C   0  0  0  0  0  3  0  0  0  0  0  0
  -26.4020  -31.7930   25.1460 C   0  0  1  0  0  0  0  0  0  0  0  0
  -25.2910  -31.5670   26.1980 C   0  0  0  0  0  1  0  0  0  0  0  0
  -26.9990  -30.4110   24.7940 C   0  0  0  0  0  1  0  0  0  0  0  0
  -27.5360  -32.6050   25.8160 C   0  0  0  0  0  1  0  0  0  0  0  0
  -25.5760  -33.9420   24.1610 N   0  0  0  0  0  0  0  0  0  0  0  0
  -25.9180  -34.9990   23.4120 C   0  0  0  0  0  0  0  0  0  0  0  0
  -26.6070  -34.8970   22.3940 O   0  0  0  0  0  0  0  0  0  0  0  0
  -24.9630  -34.0920   24.9480 H   0  0  0  0  0  0  0  0  0  0  0  0
  -24.1970  -36.7960   23.0240 C   0  0  0  0  0  1  0  0  0  0  0  0
  -25.4190  -36.3870   23.8620 C   0  0  0  0  0  3  0  0  0  0  0  0
  -27.5290  -37.2790   24.7470 C   0  0  0  0  0  1  0  0  0  0  0  0
  -26.4520  -37.4420   23.7740 N   0  0  0  0  0  0  0  0  0  0  0  0
  -26.0400  -38.3620   23.9090 H   0  0  0  0  0  0  0  0  0  0  0  0
  1  2  1  0
  2  5  1  0
  2 46  2  0
  3  4  1  0
  3  5  1  0
  5  9  1  0
  6  3  1  0
  6  1  1  0
  7  6  1  0
  9  8  1  0
 10  9  1  0
 11 16  1  0
 12 13  1  0
 12 11  1  0
 14 13  1  0
 14 21  1  0
 14 15  1  0
 16 10  1  0
 16 15  1  0
 17 10  2  0
 18 19  2  0
 19 38  1  0
 20 19  1  0
 20 23  1  0
 21 18  1  0
 21 22  1  0
 22 20  2  0
 23 24  1  0
 24 25  2  0
 26 29  1  0
 26 25  1  0
 27 26  2  0
 28 27  1  0
 28 23  2  0
 29 30  1  0
 30 31  1  0
 31 32  2  0
 33 32  1  0
 33 37  1  0
 34 33  2  0
 35 30  2  0
 35 34  1  0
 36 35  1  0
 38 39  1  0
 39 42  1  0
 39 41  1  0
 40 38  2  0
 43 44  1  0
 43 18  1  0
 45 43  1  0
 47 48  2  0
 47 46  1  0
 49 48  1  0
 50 61  2  0
 51 49  1  0
 51 56  1  0
 52 60  1  0
 52 62  1  0
 53 59  1  0
 53 55  1  0
 54 60  1  0
 55 56  2  0
 55 54  1  0
 57 51  2  0
 58 57  1  0
 58 53  2  0
 59 52  1  0
 60 50  1  0
 62 64  2  0
 63 62  1  0
 65 63  1  0
 66 75  2  0
 66 71  1  0
 67 63  1  0
 67 71  1  0
 68 67  1  0
 69 70  1  0
 69 68  1  0
 70 66  1  0
 71 72  2  0
 72 73  1  0
 74 73  2  0
 75 74  1  0
 76 50  1  0
 76 81  1  0
 76 77  1  0
 77 80  1  1
 77 78  1  0
 79 77  1  0
 81 84  1  0
 82 86  1  0
 82 81  1  0
 83 82  2  0
 86 85  1  0
 88 86  1  0
 88 89  1  0
 88 87  1  0
M  ISO  4   9 100  10 100  48 101  49 101
M  END
>  <TORSDO>  (4) 
F 20

>  <SCORE>  (4) 
-15.482

>  <name>  (4) 
3

>  <ligand_id>  (4) 
3

>  <original_smiles>  (4) 
[H]c1c([H])c([H])c2c(c1[H])C([H])([H])C([H])([H])C([H])([H])C2([H])N([H])C(=O)C1([H])N(C(=O)C([H])(N([H])C(=O)C([H])(N([H])C([H])([H])[H])C([H])([H])[H])C(C([H])([H])[H])(C([H])([H])[H])C([H])([H])[H])C([H])([H])c2c([H])c(OC([H])([H])C([H])([H])C([H])([H])c3c([H])[n+]([H])c(C([H])([H])[H])n3C([H])(C(=O)N3C([H])([H])C([H])([H])C([H])([H])C([H])(n4nc(-c5c([H])c([H])c(Oc6c([H])c([H])c(F)c([H])c6F)c([H])c5[H])c(C(=O)N([H])[H])c4N([H])[H])C3([H])[H])C([H])([H])[H])c([H])c([H])c2C1([H])[H]

>  <smiles>  (4) 
[H]c1c([H])c([H])c2c(c1[H])C([H])([H])C([H])([H])C([H])([H])C2([H])N([H])C(=O)C1([H])N(C(=O)C([H])(N([H])C(=O)C([H])(N([H])C([H])([H])[H])C([H])([H])[H])C(C([H])([H])[H])(C([H])([H])[H])C([H])([H])[H])C([H])([H])c2c([H])c(OC([H])([H])C([H])([H])C([H])([H])c3c([H])[n+]([H])c(C([H])([H])[H])n3C([H])(C(=O)N3C([H])([H])C([H])([H])C([H])([H])C([H])(n4nc(-c5c([H])c([H])c(Oc6c([H])c([H])c(F)c([H])c6F)c([H])c5[H])c(C(=O)N([H])[H])c4N([H])[H])C3([H])[H])C([H])([H])[H])c([H])c([H])c2C1([H])[H]

$$$$
4:0:0
     RDKit          3D

 92100  0  0  1  0  0  0  0  0999 V2000
  -28.6860  -21.9560   21.2210 C   0  0  0  0  0  3  0  0  0  0  0  0
  -28.6400  -20.5350   21.1340 C   0  0  0  0  0  3  0  0  0  0  0  0
  -28.9320  -22.7110   20.0500 C   0  0  0  0  0  0  0  0  0  0  0  0
  -28.8550  -19.8940   19.8860 C   0  0  0  0  0  0  0  0  0  0  0  0
  -29.1550  -22.0370   18.8780 N   0  0  0  0  0  0  0  0  0  0  0  0
  -29.1200  -20.6800   18.7960 N   0  0  0  0  0  0  0  0  0  0  0  0
  -27.4760  -18.0770   18.7100 C   0  0  0  0  0  1  0  0  0  0  0  0
  -28.6030  -18.3340   19.7250 C   0  0  0  0  0  3  0  0  0  0  0  0
  -29.8080  -17.3240   19.4620 C   0  0  0  0  0  2  0  0  0  0  0  0
  -30.4020  -14.8400   19.6670 C   0  0  0  0  0  0  0  0  0  0  0  0
  -30.2630  -12.4460   18.9540 C   0  0  0  0  0  2  0  0  0  0  0  0
  -29.2500  -12.2540   17.8050 C   0  0  0  0  0  2  0  0  0  0  0  0
  -27.8380  -12.0110   18.3650 C   0  0  0  0  0  2  0  0  0  0  0  0
  -27.4600  -13.0510   19.4480 C   0  0  0  0  0  3  0  0  0  0  0  0
  -28.5830  -13.2220   20.4890 C   0  0  0  0  0  2  0  0  0  0  0  0
  -29.8240  -13.5920   19.7890 N   0  0  0  0  0  0  0  0  0  0  0  0
  -31.4150  -14.9780   18.9760 O   0  0  0  0  0  0  0  0  0  0  0  0
  -29.7620  -15.9670   20.1660 N   0  0  0  0  0  0  0  0  0  0  0  0
  -25.1920  -13.5970   20.5220 C   0  0  0  0  0  0  0  0  0  0  0  0
  -24.1810  -12.8000   20.9840 C   0  0  0  0  0  0  0  0  0  0  0  0
  -24.6250  -11.4560   20.8030 C   0  0  0  0  0  0  0  0  0  0  0  0
  -26.1860  -12.7350   20.0880 N   0  0  0  0  0  0  0  0  0  0  0  0
  -25.8610  -11.4370   20.3180 N   0  0  0  0  0  0  0  0  0  0  0  0
  -23.9240  -10.1820   21.0070 C   0  0  0  0  0  0  0  0  0  0  0  0
  -24.3540   -9.2500   21.9770 C   0  0  0  0  0  3  0  0  0  0  0  0
  -23.6500   -8.0400   22.1670 C   0  0  0  0  0  3  0  0  0  0  0  0
  -22.5050   -7.7570   21.3870 C   0  0  0  0  0  0  0  0  0  0  0  0
  -22.0950   -8.6780   20.4060 C   0  0  0  0  0  3  0  0  0  0  0  0
  -22.7990   -9.8780   20.2150 C   0  0  0  0  0  3  0  0  0  0  0  0
  -21.7710   -6.5970   21.4820 O   0  0  0  0  0  0  0  0  0  0  0  0
  -21.5690   -5.9710   22.6850 C   0  0  0  0  0  0  0  0  0  0  0  0
  -20.9380   -6.6200   23.7670 C   0  0  0  0  0  3  0  0  0  0  0  0
  -20.6870   -5.9180   24.9620 C   0  0  0  0  0  3  0  0  0  0  0  0
  -21.0580   -4.5640   25.0750 C   0  0  0  0  0  0  0  0  0  0  0  0
  -21.6800   -3.9130   23.9960 C   0  0  0  0  0  3  0  0  0  0  0  0
  -21.9340   -4.6140   22.8040 C   0  0  0  0  0  0  0  0  0  0  0  0
  -22.5140   -3.9760   21.7590 F   0  0  0  0  0  0  0  0  0  0  0  0
  -20.8120   -3.8860   26.2200 F   0  0  0  0  0  0  0  0  0  0  0  0
  -22.8350  -13.2570   21.4680 C   0  0  0  0  0  0  0  0  0  0  0  0
  -22.2450  -12.5300   22.4100 N   0  0  0  0  0  0  0  0  0  0  0  0
  -22.3210  -14.2910   21.0450 O   0  0  0  0  0  0  0  0  0  0  0  0
  -22.6790  -11.6930   22.7700 H   0  0  0  0  0  0  0  0  0  0  0  0
  -21.3470  -12.8130   22.7730 H   0  0  0  0  0  0  0  0  0  0  0  0
  -25.3350  -14.9770   20.4130 N   0  0  0  0  0  0  0  0  0  0  0  0
  -24.5910  -15.6170   20.6730 H   0  0  0  0  0  0  0  0  0  0  0  0
  -26.1220  -15.4430   19.9830 H   0  0  0  0  0  0  0  0  0  0  0  0
  -29.7540  -16.1870   21.6340 C   0  0  0  0  0  2  0  0  0  0  0  0
  -30.9160  -17.6800   23.3720 C   0  0  0  0  0  1  0  0  0  0  0  0
  -31.0990  -16.6810   22.2170 C   0  0  0  0  0  2  0  0  0  0  0  0
  -29.1200  -24.2770   20.0900 C   0  0  0  0  0  3  0  0  0  0  0  0
  -27.8880  -25.2660   19.8900 C   0  0  0  0  0  3  0  0  0  0  0  0
  -28.1290  -26.7250   20.0730 O   0  0  0  0  0  0  0  0  0  0  0  0
  -24.7650  -32.0930   23.5170 C   0  0  0  0  0  0  0  0  0  0  0  0
  -27.0280  -27.5980   20.1270 C   0  0  0  0  0  0  0  0  0  0  0  0
  -23.4170  -30.8290   21.8780 C   0  0  0  0  0  3  0  0  0  0  0  0
  -24.7270  -29.2960   20.3050 C   0  0  0  0  0  0  0  0  0  0  0  0
  -25.9550  -31.0690   21.5620 C   0  0  0  0  0  2  0  0  0  0  0  0
  -25.9470  -29.7180   20.8530 C   0  0  0  0  0  0  0  0  0  0  0  0
  -27.1000  -28.8840   20.7450 C   0  0  0  0  0  3  0  0  0  0  0  0
  -25.7860  -27.2220   19.5700 C   0  0  0  0  0  3  0  0  0  0  0  0
  -24.6520  -28.0520   19.6540 C   0  0  0  0  0  3  0  0  0  0  0  0
  -23.5270  -30.2100   20.4600 C   0  0  0  0  0  2  0  0  0  0  0  0
  -24.7360  -31.3430   22.3770 N   0  0  0  0  0  0  0  0  0  0  0  0
  -23.7240  -32.3820   24.1240 O   0  0  0  0  0  0  0  0  0  0  0  0
  -22.7680  -29.7920   22.8250 C   0  0  0  0  0  0  0  0  0  0  0  0
  -21.4630  -29.5310   22.6350 N   0  0  0  0  0  0  0  0  0  0  0  0
  -23.4400  -29.2200   23.6890 O   0  0  0  0  0  0  0  0  0  0  0  0
  -20.9780  -30.0380   21.9060 H   0  0  0  0  0  0  0  0  0  0  0  0
  -18.1750  -28.0540   22.8930 C   0  0  0  0  0  0  0  0  0  0  0  0
  -20.6620  -28.5610   23.3810 C   0  0  0  0  0  3  0  0  0  0  0  0
  -20.9450  -27.1180   22.9010 C   0  0  0  0  0  2  0  0  0  0  0  0
  -19.9760  -26.6470   21.8120 C   0  0  0  0  0  2  0  0  0  0  0  0
  -18.5320  -26.6940   22.3180 C   0  0  0  0  0  2  0  0  0  0  0  0
  -19.1760  -28.9360   23.3800 C   0  0  0  0  0  0  0  0  0  0  0  0
  -18.7910  -30.2030   23.8720 C   0  0  0  0  0  3  0  0  0  0  0  0
  -17.4350  -30.5870   23.8890 C   0  0  0  0  0  3  0  0  0  0  0  0
  -16.4480  -29.7030   23.4200 C   0  0  0  0  0  3  0  0  0  0  0  0
  -16.8180  -28.4410   22.9250 C   0  0  0  0  0  3  0  0  0  0  0  0
  -26.1040  -32.6440   24.1000 C   0  0  0  0  0  3  0  0  0  0  0  0
  -25.9040  -34.0670   24.4060 N   0  0  0  0  0  0  0  0  0  0  0  0
  -26.2430  -35.0740   23.5910 C   0  0  0  0  0  0  0  0  0  0  0  0
  -26.8270  -34.9000   22.5180 O   0  0  0  0  0  0  0  0  0  0  0  0
  -25.3790  -34.2880   25.2390 H   0  0  0  0  0  0  0  0  0  0  0  0
  -24.5790  -36.9440   23.3400 C   0  0  0  0  0  1  0  0  0  0  0  0
  -25.8750  -36.5020   24.0390 C   0  0  0  0  0  3  0  0  0  0  0  0
  -28.1160  -37.3060   24.6300 C   0  0  0  0  0  1  0  0  0  0  0  0
  -26.9400  -37.4960   23.7850 N   0  0  0  0  0  0  0  0  0  0  0  0
  -26.5920  -38.4400   23.9310 H   0  0  0  0  0  0  0  0  0  0  0  0
  -26.5890  -31.8600   25.3800 C   0  0  1  0  0  0  0  0  0  0  0  0
  -25.4820  -31.6690   26.4440 C   0  0  0  0  0  1  0  0  0  0  0  0
  -27.1140  -30.4600   24.9900 C   0  0  0  0  0  1  0  0  0  0  0  0
  -27.7710  -32.6100   26.0350 C   0  0  0  0  0  1  0  0  0  0  0  0
  2  1  1  0
  3 50  1  0
  3  1  2  0
  4  2  2  0
  5  3  1  0
  6  5  2  0
  6  4  1  0
  8  7  1  0
  8  4  1  0
  9  8  1  0
  9 18  1  0
 10 16  1  0
 10 18  1  0
 11 16  1  0
 12 13  1  0
 12 11  1  0
 14 13  1  0
 14 22  1  0
 14 15  1  0
 16 15  1  0
 17 10  2  0
 18 47  1  0
 19 20  2  0
 20 39  1  0
 21 20  1  0
 21 24  1  0
 22 23  1  0
 22 19  1  0
 23 21  2  0
 24 25  1  0
 25 26  2  0
 27 30  1  0
 27 26  1  0
 28 27  2  0
 29 28  1  0
 29 24  2  0
 30 31  1  0
 31 36  2  0
 31 32  1  0
 32 33  2  0
 33 34  1  0
 34 38  1  0
 35 34  2  0
 36 35  1  0
 37 36  1  0
 39 40  1  0
 40 42  1  0
 40 43  1  0
 41 39  2  0
 44 19  1  0
 44 45  1  0
 46 44  1  0
 47 49  1  0
 49 48  1  0
 51 52  1  0
 51 50  2  0
 52 54  1  0
 53 64  2  0
 54 59  1  0
 55 63  1  0
 55 65  1  0
 56 62  1  0
 56 58  1  0
 57 63  1  0
 58 57  1  0
 59 58  2  0
 60 61  1  0
 60 54  2  0
 61 56  2  0
 62 55  1  0
 63 53  1  0
 65 67  2  0
 66 65  1  0
 68 66  1  0
 69 78  2  0
 69 74  1  0
 70 66  1  0
 71 70  1  0
 72 73  1  0
 72 71  1  0
 73 69  1  0
 74 70  1  0
 74 75  2  0
 75 76  1  0
 77 76  2  0
 78 77  1  0
 79 53  1  0
 79 80  1  0
 79 89  1  0
 80 83  1  0
 81 85  1  0
 81 80  1  0
 82 81  2  0
 85 84  1  0
 87 88  1  0
 87 85  1  0
 87 86  1  0
 89 92  1  1
 89 90  1  0
 91 89  1  0
M  ISO  4  10 100  18 100  51 101  52 101
M  END
>  <TORSDO>  (5) 
F 22

>  <SCORE>  (5) 
-11.602

>  <name>  (5) 
4

>  <ligand_id>  (5) 
4

>  <original_smiles>  (5) 
[H]c1c(C([H])([H])C([H])([H])Oc2c([H])c([H])c3c(c2[H])C([H])([H])N(C(=O)C([H])(N([H])C(=O)C([H])(N([H])C([H])([H])[H])C([H])([H])[H])C(C([H])([H])[H])(C([H])([H])[H])C([H])([H])[H])C([H])(C(=O)N([H])C2([H])c4c([H])c([H])c([H])c([H])c4C([H])([H])C([H])([H])C2([H])[H])C3([H])[H])nnc(C([H])(C([H])([H])[H])C([H])([H])N(C(=O)N2C([H])([H])C([H])([H])C([H])([H])C([H])(n3nc(-c4c([H])c([H])c(Oc5c([H])c([H])c(F)c([H])c5F)c([H])c4[H])c(C(=O)N([H])[H])c3N([H])[H])C2([H])[H])C([H])([H])C([H])([H])C([H])([H])[H])c1[H]

>  <smiles>  (5) 
[H]c1c(C([H])([H])C([H])([H])Oc2c([H])c([H])c3c(c2[H])C([H])([H])N(C(=O)C([H])(N([H])C(=O)C([H])(N([H])C([H])([H])[H])C([H])([H])[H])C(C([H])([H])[H])(C([H])([H])[H])C([H])([H])[H])C([H])(C(=O)N([H])C2([H])c4c([H])c([H])c([H])c([H])c4C([H])([H])C([H])([H])C2([H])[H])C3([H])[H])nnc(C([H])(C([H])([H])[H])C([H])([H])N(C(=O)N2C([H])([H])C([H])([H])C([H])([H])C([H])(n3nc(-c4c([H])c([H])c(Oc5c([H])c([H])c(F)c([H])c5F)c([H])c4[H])c(C(=O)N([H])[H])c3N([H])[H])C2([H])[H])C([H])([H])C([H])([H])C([H])([H])[H])c1[H]

$$$$
5:0:0
     RDKit          3D

 89 97  0  0  1  0  0  0  0  0999 V2000
  -29.1410  -21.1350   20.3810 C   0  0  0  0  0  0  0  0  0  0  0  0
  -28.6290  -19.1930   19.4680 C   0  0  0  0  0  3  0  0  0  0  0  0
  -28.3690  -20.5430   19.4210 N   0  0  0  0  0  0  0  0  0  0  0  0
  -29.9140  -20.0610   20.9340 N   0  0  0  0  0  2  0  0  0  0  0  0
  -29.6190  -18.7370   20.3100 N   0  0  0  0  0  0  0  0  0  0  0  0
  -26.7700  -18.9660   17.7250 C   0  0  0  0  0  1  0  0  0  0  0  0
  -26.7160  -17.7290   19.9080 C   0  0  0  0  0  1  0  0  0  0  0  0
  -28.4970  -17.2290   17.9960 C   0  0  0  0  0  1  0  0  0  0  0  0
  -27.6630  -18.2630   18.7860 C   0  0  2  0  0  0  0  0  0  0  0  0
  -29.1480  -22.8660   20.6900 C   0  0  0  0  0  3  0  0  0  0  0  0
  -28.0790  -24.2920   20.3410 C   0  0  0  0  0  3  0  0  0  0  0  0
  -28.2540  -25.9430   20.4550 O   0  0  0  0  0  0  0  0  0  0  0  0
  -24.5270  -31.9170   23.1760 C   0  0  0  0  0  0  0  0  0  0  0  0
  -27.2200  -27.0190   20.3270 C   0  0  0  0  0  0  0  0  0  0  0  0
  -23.3870  -30.4590   21.5510 C   0  0  0  0  0  3  0  0  0  0  0  0
  -24.8900  -28.8600   20.1750 C   0  0  0  0  0  0  0  0  0  0  0  0
  -25.9480  -30.7210   21.4400 C   0  0  0  0  0  2  0  0  0  0  0  0
  -26.0560  -29.3000   20.8140 C   0  0  0  0  0  0  0  0  0  0  0  0
  -27.2150  -28.4020   20.8580 C   0  0  0  0  0  3  0  0  0  0  0  0
  -26.0280  -26.7350   19.6210 C   0  0  0  0  0  3  0  0  0  0  0  0
  -24.9080  -27.6060   19.5450 C   0  0  0  0  0  3  0  0  0  0  0  0
  -23.6460  -29.7480   20.1930 C   0  0  0  0  0  2  0  0  0  0  0  0
  -24.6400  -31.0620   22.1080 N   0  0  0  0  0  0  0  0  0  0  0  0
  -23.4230  -32.1950   23.6750 O   0  0  0  0  0  0  0  0  0  0  0  0
  -22.6970  -29.4760   22.5290 C   0  0  0  0  0  0  0  0  0  0  0  0
  -21.3740  -29.2690   22.3780 N   0  0  0  0  0  0  0  0  0  0  0  0
  -23.3590  -28.8900   23.3900 O   0  0  0  0  0  0  0  0  0  0  0  0
  -20.8920  -29.7800   21.6520 H   0  0  0  0  0  0  0  0  0  0  0  0
  -18.0050  -28.0260   22.8820 C   0  0  0  0  0  0  0  0  0  0  0  0
  -20.5600  -28.3300   23.1560 C   0  0  0  0  0  3  0  0  0  0  0  0
  -20.6830  -26.8930   22.5920 C   0  0  0  0  0  2  0  0  0  0  0  0
  -19.5920  -26.5530   21.5730 C   0  0  0  0  0  2  0  0  0  0  0  0
  -18.2040  -26.6810   22.2080 C   0  0  0  0  0  2  0  0  0  0  0  0
  -19.1110  -28.8100   23.3090 C   0  0  0  0  0  0  0  0  0  0  0  0
  -18.8670  -30.0720   23.8960 C   0  0  0  0  0  3  0  0  0  0  0  0
  -17.5540  -30.5530   24.0500 C   0  0  0  0  0  3  0  0  0  0  0  0
  -16.4640  -29.7660   23.6370 C   0  0  0  0  0  3  0  0  0  0  0  0
  -16.6910  -28.5030   23.0650 C   0  0  0  0  0  3  0  0  0  0  0  0
  -25.7750  -32.5960   23.8160 C   0  0  0  0  0  3  0  0  0  0  0  0
  -26.2750  -31.8650   25.1230 C   0  0  1  0  0  0  0  0  0  0  0  0
  -25.1560  -31.6130   26.1610 C   0  0  0  0  0  1  0  0  0  0  0  0
  -26.9060  -30.4960   24.7810 C   0  0  0  0  0  1  0  0  0  0  0  0
  -27.3830  -32.7020   25.8030 C   0  0  0  0  0  1  0  0  0  0  0  0
  -25.4250  -33.9940   24.1230 N   0  0  0  0  0  0  0  0  0  0  0  0
  -25.7510  -35.0520   23.3690 C   0  0  0  0  0  0  0  0  0  0  0  0
  -26.4390  -34.9550   22.3490 O   0  0  0  0  0  0  0  0  0  0  0  0
  -24.8110  -34.1410   24.9110 H   0  0  0  0  0  0  0  0  0  0  0  0
  -24.0080  -36.8230   22.9600 C   0  0  0  0  0  1  0  0  0  0  0  0
  -25.2310  -36.4360   23.8090 C   0  0  0  0  0  3  0  0  0  0  0  0
  -27.3150  -37.3590   24.7190 C   0  0  0  0  0  1  0  0  0  0  0  0
  -26.2510  -37.5040   23.7300 N   0  0  0  0  0  0  0  0  0  0  0  0
  -25.8260  -38.4190   23.8580 H   0  0  0  0  0  0  0  0  0  0  0  0
  -30.0040  -17.1330   20.8500 C   0  0  0  0  0  2  0  0  0  0  0  0
  -30.5960  -15.5260   20.2860 C   0  0  0  0  0  0  0  0  0  0  0  0
  -30.6050  -13.0050   19.5120 C   0  0  0  0  0  2  0  0  0  0  0  0
  -29.7380  -12.7430   18.2540 C   0  0  0  0  0  2  0  0  0  0  0  0
  -28.2970  -12.4040   18.6690 C   0  0  0  0  0  2  0  0  0  0  0  0
  -27.7900  -13.3740   19.7600 C   0  0  0  0  0  3  0  0  0  0  0  0
  -28.8020  -13.6760   20.8930 C   0  0  0  0  0  2  0  0  0  0  0  0
  -30.0490  -14.1900   20.2870 N   0  0  0  0  0  0  0  0  0  0  0  0
  -31.7760  -15.4760   19.8860 O   0  0  0  0  0  0  0  0  0  0  0  0
  -25.4320  -13.8850   20.5690 C   0  0  0  0  0  0  0  0  0  0  0  0
  -24.3730  -13.1160   20.9150 C   0  0  0  0  0  0  0  0  0  0  0  0
  -24.8400  -11.7720   20.8310 C   0  0  0  0  0  0  0  0  0  0  0  0
  -26.4750  -13.0290   20.2730 N   0  0  0  0  0  0  0  0  0  0  0  0
  -26.1280  -11.7380   20.4970 N   0  0  0  0  0  0  0  0  0  0  0  0
  -24.1060  -10.5230   20.9900 C   0  0  0  0  0  0  0  0  0  0  0  0
  -24.5120   -9.5540   21.9310 C   0  0  0  0  0  3  0  0  0  0  0  0
  -23.7750   -8.3640   22.0860 C   0  0  0  0  0  3  0  0  0  0  0  0
  -22.6210   -8.1390   21.2990 C   0  0  0  0  0  0  0  0  0  0  0  0
  -22.2350   -9.1000   20.3490 C   0  0  0  0  0  3  0  0  0  0  0  0
  -22.9700  -10.2840   20.1920 C   0  0  0  0  0  3  0  0  0  0  0  0
  -21.8590   -6.9970   21.3620 O   0  0  0  0  0  0  0  0  0  0  0  0
  -21.7520   -6.2680   22.5190 C   0  0  0  0  0  0  0  0  0  0  0  0
  -21.1820   -6.8110   23.6910 C   0  0  0  0  0  3  0  0  0  0  0  0
  -21.0320   -6.0070   24.8370 C   0  0  0  0  0  3  0  0  0  0  0  0
  -21.4330   -4.6580   24.8120 C   0  0  0  0  0  0  0  0  0  0  0  0
  -21.9890   -4.1120   23.6400 C   0  0  0  0  0  3  0  0  0  0  0  0
  -22.1490   -4.9150   22.4970 C   0  0  0  0  0  0  0  0  0  0  0  0
  -22.6700   -4.3810   21.3660 F   0  0  0  0  0  0  0  0  0  0  0  0
  -21.2750   -3.8820   25.9080 F   0  0  0  0  0  0  0  0  0  0  0  0
  -22.9880  -13.6060   21.2120 C   0  0  0  0  0  0  0  0  0  0  0  0
  -22.2560  -12.9010   22.0610 N   0  0  0  0  0  0  0  0  0  0  0  0
  -22.5630  -14.6560   20.7260 O   0  0  0  0  0  0  0  0  0  0  0  0
  -22.6120  -12.0490   22.4670 H   0  0  0  0  0  0  0  0  0  0  0  0
  -21.3260  -13.2160   22.2960 H   0  0  0  0  0  0  0  0  0  0  0  0
  -25.5750  -15.2460   20.4640 N   0  0  0  0  0  0  0  0  0  0  0  0
  -24.8170  -15.8840   20.6670 H   0  0  0  0  0  0  0  0  0  0  0  0
  -26.4480  -15.7140   20.2650 H   0  0  0  0  0  0  0  0  0  0  0  0
  1 10  1  0
  1  4  1  0
  2  9  1  0
  2  5  1  0
  3  2  1  0
  3  1  2  0
  5 53  1  0
  5  4  1  0
  9  6  1  6
  8  9  1  0
  9  7  1  0
 11 12  1  0
 11 10  2  0
 13 24  2  0
 14 12  1  0
 14 19  1  0
 15 23  1  0
 15 25  1  0
 16 22  1  0
 16 18  1  0
 17 23  1  0
 18 19  2  0
 18 17  1  0
 20 14  2  0
 21 20  1  0
 21 16  2  0
 22 15  1  0
 23 13  1  0
 25 27  2  0
 26 25  1  0
 28 26  1  0
 29 38  2  0
 29 34  1  0
 30 26  1  0
 30 34  1  0
 31 30  1  0
 32 33  1  0
 32 31  1  0
 33 29  1  0
 34 35  2  0
 35 36  1  0
 37 36  2  0
 38 37  1  0
 39 13  1  0
 39 44  1  0
 39 40  1  0
 40 43  1  1
 40 41  1  0
 42 40  1  0
 44 47  1  0
 45 49  1  0
 45 44  1  0
 46 45  2  0
 49 48  1  0
 51 49  1  0
 51 52  1  0
 51 50  1  0
 54 60  1  0
 54 53  1  0
 55 60  1  0
 56 57  1  0
 56 55  1  0
 58 57  1  0
 58 65  1  0
 58 59  1  0
 60 59  1  0
 61 54  2  0
 62 63  2  0
 63 82  1  0
 64 63  1  0
 64 67  1  0
 65 66  1  0
 65 62  1  0
 66 64  2  0
 67 68  1  0
 68 69  2  0
 70 73  1  0
 70 69  1  0
 71 70  2  0
 72 71  1  0
 72 67  2  0
 73 74  1  0
 74 75  1  0
 75 76  2  0
 77 76  1  0
 77 81  1  0
 78 77  2  0
 79 74  2  0
 79 78  1  0
 80 79  1  0
 82 83  1  0
 83 86  1  0
 83 85  1  0
 84 82  2  0
 87 62  1  0
 87 88  1  0
 89 87  1  0
M  ISO  4  11 101  12 101  53 100  54 100
M  END
>  <TORSDO>  (6) 
F 20

>  <SCORE>  (6) 
-15.585

>  <name>  (6) 
5

>  <ligand_id>  (6) 
5

>  <original_smiles>  (6) 
[H]c1c([H])c([H])c2c(c1[H])C([H])([H])C([H])([H])C([H])([H])C2([H])N([H])C(=O)C1([H])N(C(=O)C([H])(N([H])C(=O)C([H])(N([H])C([H])([H])[H])C([H])([H])[H])C(C([H])([H])[H])(C([H])([H])[H])C([H])([H])[H])C([H])([H])c2c([H])c(OC([H])([H])C([H])([H])c3nc(C(C([H])([H])[H])(C([H])([H])[H])C([H])([H])[H])n(C([H])([H])C(=O)N4C([H])([H])C([H])([H])C([H])([H])C([H])(n5nc(-c6c([H])c([H])c(Oc7c([H])c([H])c(F)c([H])c7F)c([H])c6[H])c(C(=O)N([H])[H])c5N([H])[H])C4([H])[H])n3)c([H])c([H])c2C1([H])[H]

>  <smiles>  (6) 
[H]c1c([H])c([H])c2c(c1[H])C([H])([H])C([H])([H])C([H])([H])C2([H])N([H])C(=O)C1([H])N(C(=O)C([H])(N([H])C(=O)C([H])(N([H])C([H])([H])[H])C([H])([H])[H])C(C([H])([H])[H])(C([H])([H])[H])C([H])([H])[H])C([H])([H])c2c([H])c(OC([H])([H])C([H])([H])c3nc(C(C([H])([H])[H])(C([H])([H])[H])C([H])([H])[H])n(C([H])([H])C(=O)N4C([H])([H])C([H])([H])C([H])([H])C([H])(n5nc(-c6c([H])c([H])c(Oc7c([H])c([H])c(F)c([H])c7F)c([H])c6[H])c(C(=O)N([H])[H])c5N([H])[H])C4([H])[H])n3)c([H])c([H])c2C1([H])[H]

$$$$
6:0:0
     RDKit          3D

 93101  0  0  1  0  0  0  0  0999 V2000
  -29.0550  -22.8620   22.3820 C   0  0  0  0  0  1  0  0  0  0  0  0
  -28.9800  -22.6880   20.8420 C   0  0  1  0  0  0  0  0  0  0  0  0
  -29.9080  -19.4840   19.0690 C   0  0  0  0  0  3  0  0  0  0  0  0
  -30.7080  -20.7100   21.3170 C   0  0  0  0  0  3  0  0  0  0  0  0
  -30.7650  -18.7950   19.9750 C   0  0  0  0  0  0  0  0  0  0  0  0
  -29.7950  -21.3830   20.4420 C   0  0  0  0  0  0  0  0  0  0  0  0
  -31.2030  -19.4560   21.0820 N   0  0  0  0  0  0  0  0  0  0  0  0
  -29.4500  -20.7540   19.2830 N   0  0  0  0  0  0  0  0  0  0  0  0
  -31.3480  -17.3740   19.6380 C   0  0  0  0  0  2  0  0  0  0  0  0
  -31.8500  -14.9810   20.1630 C   0  0  0  0  0  0  0  0  0  0  0  0
  -31.3890  -12.8100   19.0450 C   0  0  0  0  0  2  0  0  0  0  0  0
  -30.4440  -13.0440   17.8460 C   0  0  0  0  0  2  0  0  0  0  0  0
  -28.9750  -12.9830   18.3010 C   0  0  0  0  0  2  0  0  0  0  0  0
  -28.7010  -13.8290   19.5760 C   0  0  0  0  0  3  0  0  0  0  0  0
  -29.7750  -13.5900   20.6610 C   0  0  0  0  0  2  0  0  0  0  0  0
  -31.0860  -13.8470   20.0520 N   0  0  0  0  0  0  0  0  0  0  0  0
  -32.9910  -15.0050   19.6950 O   0  0  0  0  0  0  0  0  0  0  0  0
  -31.2480  -16.1640   20.5490 N   0  0  0  0  0  0  0  0  0  0  0  0
  -26.3810  -14.5690   20.3860 C   0  0  0  0  0  0  0  0  0  0  0  0
  -25.2650  -13.8620   20.7380 C   0  0  0  0  0  0  0  0  0  0  0  0
  -25.6140  -12.4830   20.6260 C   0  0  0  0  0  0  0  0  0  0  0  0
  -27.3460  -13.6220   20.0810 N   0  0  0  0  0  0  0  0  0  0  0  0
  -26.8900  -12.3580   20.2830 N   0  0  0  0  0  0  0  0  0  0  0  0
  -24.7910  -11.2750   20.7700 C   0  0  0  0  0  0  0  0  0  0  0  0
  -25.1290  -10.2540   21.6850 C   0  0  0  0  0  3  0  0  0  0  0  0
  -24.3100   -9.1110   21.8210 C   0  0  0  0  0  3  0  0  0  0  0  0
  -23.1390   -8.9800   21.0360 C   0  0  0  0  0  0  0  0  0  0  0  0
  -22.8180   -9.9890   20.1110 C   0  0  0  0  0  3  0  0  0  0  0  0
  -23.6370  -11.1220   19.9750 C   0  0  0  0  0  3  0  0  0  0  0  0
  -22.3000   -7.8930   21.0790 O   0  0  0  0  0  0  0  0  0  0  0  0
  -22.1000   -7.1820   22.2370 C   0  0  0  0  0  0  0  0  0  0  0  0
  -21.6610   -7.8070   23.4230 C   0  0  0  0  0  3  0  0  0  0  0  0
  -21.3990   -7.0290   24.5700 C   0  0  0  0  0  3  0  0  0  0  0  0
  -21.5690   -5.6330   24.5290 C   0  0  0  0  0  0  0  0  0  0  0  0
  -22.0030   -5.0100   23.3470 C   0  0  0  0  0  3  0  0  0  0  0  0
  -22.2660   -5.7840   22.2030 C   0  0  0  0  0  0  0  0  0  0  0  0
  -22.6660   -5.1780   21.0590 F   0  0  0  0  0  0  0  0  0  0  0  0
  -21.3110   -4.8840   25.6280 F   0  0  0  0  0  0  0  0  0  0  0  0
  -23.9180  -14.4390   21.0720 C   0  0  0  0  0  0  0  0  0  0  0  0
  -23.1770  -13.7750   21.9520 N   0  0  0  0  0  0  0  0  0  0  0  0
  -23.5410  -15.5050   20.5960 O   0  0  0  0  0  0  0  0  0  0  0  0
  -23.5000  -12.9090   22.3560 H   0  0  0  0  0  0  0  0  0  0  0  0
  -22.2810  -14.1480   22.2330 H   0  0  0  0  0  0  0  0  0  0  0  0
  -26.6570  -15.9270   20.2850 N   0  0  0  0  0  0  0  0  0  0  0  0
  -25.9570  -16.6370   20.4720 H   0  0  0  0  0  0  0  0  0  0  0  0
  -27.5480  -16.3100   19.9980 H   0  0  0  0  0  0  0  0  0  0  0  0
  -29.8750  -16.9470   22.4990 C   0  0  0  0  0  1  0  0  0  0  0  0
  -31.2430  -16.4490   21.9940 C   0  0  0  0  0  2  0  0  0  0  0  0
  -26.8460  -21.1750   21.1410 C   0  0  0  0  0  1  0  0  0  0  0  0
  -27.4770  -22.4240   20.4840 C   0  0  0  0  0  2  0  0  0  0  0  0
  -29.4400  -24.0740   20.1590 C   0  0  0  0  0  3  0  0  0  0  0  0
  -29.0070  -25.4540   20.8570 C   0  0  0  0  0  3  0  0  0  0  0  0
  -29.1170  -26.7760   20.1960 O   0  0  0  0  0  0  0  0  0  0  0  0
  -24.9510  -31.8170   23.2610 C   0  0  0  0  0  0  0  0  0  0  0  0
  -27.9610  -27.5630   20.1690 C   0  0  0  0  0  0  0  0  0  0  0  0
  -23.9050  -30.4170   21.5190 C   0  0  0  0  0  3  0  0  0  0  0  0
  -25.5050  -29.0140   20.1070 C   0  0  0  0  0  0  0  0  0  0  0  0
  -26.4250  -30.9060   21.4520 C   0  0  0  0  0  2  0  0  0  0  0  0
  -26.6200  -29.5660   20.7540 C   0  0  0  0  0  0  0  0  0  0  0  0
  -27.8590  -28.8570   20.7630 C   0  0  0  0  0  3  0  0  0  0  0  0
  -26.8220  -27.0440   19.5290 C   0  0  0  0  0  3  0  0  0  0  0  0
  -25.6050  -27.7530   19.4940 C   0  0  0  0  0  3  0  0  0  0  0  0
  -24.2140  -29.8070   20.1290 C   0  0  0  0  0  2  0  0  0  0  0  0
  -25.1110  -31.0610   22.1360 N   0  0  0  0  0  0  0  0  0  0  0  0
  -23.8300  -32.0050   23.7570 O   0  0  0  0  0  0  0  0  0  0  0  0
  -23.2710  -29.3210   22.4070 C   0  0  0  0  0  0  0  0  0  0  0  0
  -21.9600  -29.0890   22.2300 N   0  0  0  0  0  0  0  0  0  0  0  0
  -23.9580  -28.6860   23.2110 O   0  0  0  0  0  0  0  0  0  0  0  0
  -21.4630  -29.6440   21.5470 H   0  0  0  0  0  0  0  0  0  0  0  0
  -18.6220  -27.7580   22.6190 C   0  0  0  0  0  0  0  0  0  0  0  0
  -21.1680  -28.0780   22.9290 C   0  0  0  0  0  3  0  0  0  0  0  0
  -21.3200  -26.6910   22.2610 C   0  0  0  0  0  2  0  0  0  0  0  0
  -20.2390  -26.4050   21.2150 C   0  0  0  0  0  2  0  0  0  0  0  0
  -18.8490  -26.4650   21.8540 C   0  0  0  0  0  2  0  0  0  0  0  0
  -19.7130  -28.5240   23.1090 C   0  0  0  0  0  0  0  0  0  0  0  0
  -19.4510  -29.7370   23.7800 C   0  0  0  0  0  3  0  0  0  0  0  0
  -18.1290  -30.1870   23.9680 C   0  0  0  0  0  3  0  0  0  0  0  0
  -17.0530  -29.4160   23.4980 C   0  0  0  0  0  3  0  0  0  0  0  0
  -17.3000  -28.2040   22.8300 C   0  0  0  0  0  3  0  0  0  0  0  0
  -26.1660  -32.5000   23.9630 C   0  0  0  0  0  3  0  0  0  0  0  0
  -25.7610  -33.8710   24.3040 N   0  0  0  0  0  0  0  0  0  0  0  0
  -26.0650  -34.9600   23.5850 C   0  0  0  0  0  0  0  0  0  0  0  0
  -26.7890  -34.9180   22.5850 O   0  0  0  0  0  0  0  0  0  0  0  0
  -25.1200  -33.9730   25.0780 H   0  0  0  0  0  0  0  0  0  0  0  0
  -24.2540  -36.6560   23.1920 C   0  0  0  0  0  1  0  0  0  0  0  0
  -25.4800  -36.3060   24.0490 C   0  0  0  0  0  3  0  0  0  0  0  0
  -27.5250  -37.2880   24.9890 C   0  0  0  0  0  1  0  0  0  0  0  0
  -26.4540  -37.4200   24.0050 N   0  0  0  0  0  0  0  0  0  0  0  0
  -25.9870  -38.3100   24.1590 H   0  0  0  0  0  0  0  0  0  0  0  0
  -26.6520  -31.7300   25.2510 C   0  0  1  0  0  0  0  0  0  0  0  0
  -25.5130  -31.3910   26.2410 C   0  0  0  0  0  1  0  0  0  0  0  0
  -27.3490  -30.4060   24.8650 C   0  0  0  0  0  1  0  0  0  0  0  0
  -27.7020  -32.5780   26.0070 C   0  0  0  0  0  1  0  0  0  0  0  0
  2  1  1  1
  3  8  2  0
  3  5  1  0
  5  7  2  0
  6  2  1  0
  6  4  2  0
  7  4  1  0
  8  6  1  0
  9  5  1  0
  9 18  1  0
 10 18  1  0
 11 16  1  0
 12 13  1  0
 12 11  1  0
 14 13  1  0
 14 22  1  0
 14 15  1  0
 16 10  1  0
 16 15  1  0
 17 10  2  0
 18 48  1  0
 19 20  2  0
 20 39  1  0
 21 20  1  0
 21 24  1  0
 22 23  1  0
 22 19  1  0
 23 21  2  0
 24 25  1  0
 25 26  2  0
 27 30  1  0
 27 26  1  0
 28 27  2  0
 29 28  1  0
 29 24  2  0
 30 31  1  0
 31 32  1  0
 32 33  2  0
 34 33  1  0
 34 38  1  0
 35 34  2  0
 36 31  2  0
 36 35  1  0
 37 36  1  0
 39 40  1  0
 40 43  1  0
 40 42  1  0
 41 39  2  0
 44 19  1  0
 44 45  1  0
 46 44  1  0
 48 47  1  0
 50  2  1  0
 50 49  1  0
 51  2  1  0
 51 52  2  0
 53 52  1  0
 54 65  2  0
 55 53  1  0
 55 60  1  0
 56 64  1  0
 56 66  1  0
 57 63  1  0
 57 59  1  0
 58 64  1  0
 59 60  2  0
 59 58  1  0
 61 55  2  0
 62 61  1  0
 62 57  2  0
 63 56  1  0
 64 54  1  0
 66 68  2  0
 67 66  1  0
 69 67  1  0
 70 79  2  0
 70 75  1  0
 71 67  1  0
 71 75  1  0
 72 71  1  0
 73 74  1  0
 73 72  1  0
 74 70  1  0
 75 76  2  0
 76 77  1  0
 78 77  2  0
 79 78  1  0
 80 54  1  0
 80 81  1  0
 80 90  1  0
 81 84  1  0
 82 86  1  0
 82 81  1  0
 83 82  2  0
 86 85  1  0
 88 86  1  0
 88 89  1  0
 88 87  1  0
 90 93  1  1
 90 91  1  0
 92 90  1  0
M  ISO  4  10 100  18 100  52 101  53 101
M  END
>  <TORSDO>  (7) 
F 22

>  <SCORE>  (7) 
-8.875

>  <name>  (7) 
6

>  <ligand_id>  (7) 
6

>  <original_smiles>  (7) 
[H]c1nc(C(C([H])([H])[H])(C([H])([H])C([H])([H])[H])C([H])([H])C([H])([H])Oc2c([H])c([H])c3c(c2[H])C([H])([H])N(C(=O)C([H])(N([H])C(=O)C([H])(N([H])C([H])([H])[H])C([H])([H])[H])C(C([H])([H])[H])(C([H])([H])[H])C([H])([H])[H])C([H])(C(=O)N([H])C2([H])c4c([H])c([H])c([H])c([H])c4C([H])([H])C([H])([H])C2([H])[H])C3([H])[H])c([H])nc1C([H])([H])N(C(=O)N1C([H])([H])C([H])([H])C([H])([H])C([H])(n2nc(-c3c([H])c([H])c(Oc4c([H])c([H])c(F)c([H])c4F)c([H])c3[H])c(C(=O)N([H])[H])c2N([H])[H])C1([H])[H])C([H])([H])C([H])([H])[H]

>  <smiles>  (7) 
[H]c1nc(C(C([H])([H])[H])(C([H])([H])C([H])([H])[H])C([H])([H])C([H])([H])Oc2c([H])c([H])c3c(c2[H])C([H])([H])N(C(=O)C([H])(N([H])C(=O)C([H])(N([H])C([H])([H])[H])C([H])([H])[H])C(C([H])([H])[H])(C([H])([H])[H])C([H])([H])[H])C([H])(C(=O)N([H])C2([H])c4c([H])c([H])c([H])c([H])c4C([H])([H])C([H])([H])C2([H])[H])C3([H])[H])c([H])nc1C([H])([H])N(C(=O)N1C([H])([H])C([H])([H])C([H])([H])C([H])(n2nc(-c3c([H])c([H])c(Oc4c([H])c([H])c(F)c([H])c4F)c([H])c3[H])c(C(=O)N([H])[H])c2N([H])[H])C1([H])[H])C([H])([H])C([H])([H])[H]

$$$$
7:0:0
     RDKit          3D

 93101  0  0  1  0  0  0  0  0999 V2000
  -29.2030  -20.2340   20.3700 C   0  0  0  0  0  0  0  0  0  0  0  0
  -28.9420  -22.4210   20.1550 C   0  0  0  0  0  0  0  0  0  0  0  0
  -28.4970  -20.6600   21.4270 N   0  0  0  0  0  0  0  0  0  0  0  0
  -28.3370  -22.0440   21.2940 N   0  0  0  0  0  0  0  0  0  0  0  0
  -29.5510  -21.3100   19.5720 N   0  0  0  0  0  0  0  0  0  0  0  0
  -31.8200  -20.8750   18.6550 C   0  0  0  0  0  1  0  0  0  0  0  0
  -30.3550  -21.2160   18.3530 C   0  0  0  0  0  2  0  0  0  0  0  0
  -28.1680  -23.9610   18.2540 C   0  0  0  0  0  1  0  0  0  0  0  0
  -28.9270  -23.9260   19.6010 C   0  0  2  0  0  0  0  0  0  0  0  0
  -31.2760  -24.3470   20.6740 C   0  0  0  0  0  1  0  0  0  0  0  0
  -30.3830  -24.4500   19.4250 C   0  0  0  0  0  2  0  0  0  0  0  0
  -28.1470  -25.0650   20.4540 C   0  0  0  0  0  2  0  0  0  0  0  0
  -28.2560  -26.5100   20.0440 O   0  0  0  0  0  0  0  0  0  0  0  0
  -24.5920  -31.8980   23.2240 C   0  0  0  0  0  0  0  0  0  0  0  0
  -27.1300  -27.3550   20.0680 C   0  0  0  0  0  0  0  0  0  0  0  0
  -23.3490  -30.5210   21.5930 C   0  0  0  0  0  3  0  0  0  0  0  0
  -24.7670  -28.9800   20.1180 C   0  0  0  0  0  0  0  0  0  0  0  0
  -25.8850  -30.8370   21.3550 C   0  0  0  0  0  2  0  0  0  0  0  0
  -25.9500  -29.4620   20.6930 C   0  0  0  0  0  0  0  0  0  0  0  0
  -27.1350  -28.6640   20.6510 C   0  0  0  0  0  3  0  0  0  0  0  0
  -25.9260  -26.9300   19.4690 C   0  0  0  0  0  3  0  0  0  0  0  0
  -24.7580  -27.7210   19.4960 C   0  0  0  0  0  3  0  0  0  0  0  0
  -23.5330  -29.8580   20.2010 C   0  0  0  0  0  2  0  0  0  0  0  0
  -24.6290  -31.1030   22.1140 N   0  0  0  0  0  0  0  0  0  0  0  0
  -23.5210  -32.1690   23.7870 O   0  0  0  0  0  0  0  0  0  0  0  0
  -22.7050  -29.4960   22.5570 C   0  0  0  0  0  0  0  0  0  0  0  0
  -21.3790  -29.3070   22.4440 N   0  0  0  0  0  0  0  0  0  0  0  0
  -23.3980  -28.8720   23.3650 O   0  0  0  0  0  0  0  0  0  0  0  0
  -20.8780  -29.8620   21.7650 H   0  0  0  0  0  0  0  0  0  0  0  0
  -18.0210  -28.0680   22.9640 C   0  0  0  0  0  0  0  0  0  0  0  0
  -20.5770  -28.3580   23.2180 C   0  0  0  0  0  3  0  0  0  0  0  0
  -20.6930  -26.9290   22.6380 C   0  0  0  0  0  2  0  0  0  0  0  0
  -19.5890  -26.5950   21.6300 C   0  0  0  0  0  2  0  0  0  0  0  0
  -18.2100  -26.7220   22.2840 C   0  0  0  0  0  2  0  0  0  0  0  0
  -19.1320  -28.8430   23.3890 C   0  0  0  0  0  0  0  0  0  0  0  0
  -18.9010  -30.1010   23.9850 C   0  0  0  0  0  3  0  0  0  0  0  0
  -17.5920  -30.5850   24.1620 C   0  0  0  0  0  3  0  0  0  0  0  0
  -16.4940  -29.8070   23.7540 C   0  0  0  0  0  3  0  0  0  0  0  0
  -16.7100  -28.5500   23.1610 C   0  0  0  0  0  3  0  0  0  0  0  0
  -25.8890  -32.5210   23.8270 C   0  0  0  0  0  3  0  0  0  0  0  0
  -25.5950  -33.9210   24.1650 N   0  0  0  0  0  0  0  0  0  0  0  0
  -25.9310  -34.9740   23.4080 C   0  0  0  0  0  0  0  0  0  0  0  0
  -26.5910  -34.8690   22.3710 O   0  0  0  0  0  0  0  0  0  0  0  0
  -25.0080  -34.0780   24.9710 H   0  0  0  0  0  0  0  0  0  0  0  0
  -24.2300  -36.7960   23.0640 C   0  0  0  0  0  1  0  0  0  0  0  0
  -25.4620  -36.3660   23.8760 C   0  0  0  0  0  3  0  0  0  0  0  0
  -27.6050  -37.2160   24.7230 C   0  0  0  0  0  1  0  0  0  0  0  0
  -26.5100  -37.4060   23.7760 N   0  0  0  0  0  0  0  0  0  0  0  0
  -26.1160  -38.3300   23.9290 H   0  0  0  0  0  0  0  0  0  0  0  0
  -26.4200  -31.7450   25.0950 C   0  0  1  0  0  0  0  0  0  0  0  0
  -25.3420  -31.5170   26.1800 C   0  0  0  0  0  1  0  0  0  0  0  0
  -26.9840  -30.3620   24.6940 C   0  0  0  0  0  1  0  0  0  0  0  0
  -27.5870  -32.5280   25.7370 C   0  0  0  0  0  1  0  0  0  0  0  0
  -29.3210  -18.7120   19.9460 C   0  0  0  0  0  3  0  0  0  0  0  0
  -30.0380  -17.4880   20.7640 C   0  0  0  0  0  3  0  0  0  0  0  0
  -30.6760  -14.9110   20.5180 C   0  0  0  0  0  0  0  0  0  0  0  0
  -30.5930  -12.5540   19.6780 C   0  0  0  0  0  2  0  0  0  0  0  0
  -29.7110  -12.4310   18.4140 C   0  0  0  0  0  2  0  0  0  0  0  0
  -28.2110  -12.3310   18.7720 C   0  0  0  0  0  2  0  0  0  0  0  0
  -27.7560  -13.2830   19.9130 C   0  0  0  0  0  3  0  0  0  0  0  0
  -28.7690  -13.3210   21.0750 C   0  0  0  0  0  2  0  0  0  0  0  0
  -30.0730  -13.6710   20.4980 N   0  0  0  0  0  0  0  0  0  0  0  0
  -31.9080  -14.9910   20.4780 O   0  0  0  0  0  0  0  0  0  0  0  0
  -29.4130  -16.0890   18.8380 C   0  0  0  0  0  1  0  0  0  0  0  0
  -29.8940  -16.0410   20.2290 N   0  0  0  0  0  0  0  0  0  0  0  0
  -25.3400  -13.8770   20.5340 C   0  0  0  0  0  0  0  0  0  0  0  0
  -24.2630  -13.1000   20.8640 C   0  0  0  0  0  0  0  0  0  0  0  0
  -24.7380  -11.7530   20.8800 C   0  0  0  0  0  0  0  0  0  0  0  0
  -26.3990  -12.9990   20.3620 N   0  0  0  0  0  0  0  0  0  0  0  0
  -26.0420  -11.7200   20.6390 N   0  0  0  0  0  0  0  0  0  0  0  0
  -24.0170  -10.4880   21.0550 C   0  0  0  0  0  0  0  0  0  0  0  0
  -24.4090   -9.5430   22.0290 C   0  0  0  0  0  3  0  0  0  0  0  0
  -23.6880   -8.3400   22.1890 C   0  0  0  0  0  3  0  0  0  0  0  0
  -22.5620   -8.0740   21.3760 C   0  0  0  0  0  0  0  0  0  0  0  0
  -22.1900   -9.0080   20.3910 C   0  0  0  0  0  3  0  0  0  0  0  0
  -22.9110  -10.2010   20.2290 C   0  0  0  0  0  3  0  0  0  0  0  0
  -21.8150   -6.9230   21.4460 O   0  0  0  0  0  0  0  0  0  0  0  0
  -21.7000   -6.2110   22.6120 C   0  0  0  0  0  0  0  0  0  0  0  0
  -21.1740   -6.7870   23.7890 C   0  0  0  0  0  3  0  0  0  0  0  0
  -21.0090   -5.9980   24.9450 C   0  0  0  0  0  3  0  0  0  0  0  0
  -21.3590   -4.6340   24.9240 C   0  0  0  0  0  0  0  0  0  0  0  0
  -21.8780   -4.0580   23.7510 C   0  0  0  0  0  3  0  0  0  0  0  0
  -22.0450   -4.8440   22.5980 C   0  0  0  0  0  0  0  0  0  0  0  0
  -22.5260   -4.2800   21.4640 F   0  0  0  0  0  0  0  0  0  0  0  0
  -21.1940   -3.8750   26.0320 F   0  0  0  0  0  0  0  0  0  0  0  0
  -22.8500  -13.5690   21.0550 C   0  0  0  0  0  0  0  0  0  0  0  0
  -22.0850  -12.8800   21.8950 N   0  0  0  0  0  0  0  0  0  0  0  0
  -22.4290  -14.5800   20.4940 O   0  0  0  0  0  0  0  0  0  0  0  0
  -22.4370  -12.0630   22.3710 H   0  0  0  0  0  0  0  0  0  0  0  0
  -21.1340  -13.1760   22.0670 H   0  0  0  0  0  0  0  0  0  0  0  0
  -25.5040  -15.2450   20.3410 N   0  0  0  0  0  0  0  0  0  0  0  0
  -24.7360  -15.9020   20.4230 H   0  0  0  0  0  0  0  0  0  0  0  0
  -26.3770  -15.6850   20.0820 H   0  0  0  0  0  0  0  0  0  0  0  0
  1  3  2  0
  2  4  2  0
  4  3  1  0
  5  2  1  0
  5  1  1  0
  7  6  1  0
  7  5  1  0
  9  8  1  6
  9  2  1  0
  9 12  1  0
 11  9  1  0
 11 10  1  0
 13 15  1  0
 13 12  1  0
 14 25  2  0
 15 20  1  0
 16 24  1  0
 16 26  1  0
 17 23  1  0
 17 19  1  0
 18 24  1  0
 19 18  1  0
 20 19  2  0
 21 22  1  0
 21 15  2  0
 22 17  2  0
 23 16  1  0
 24 14  1  0
 26 28  2  0
 27 26  1  0
 29 27  1  0
 30 39  2  0
 30 35  1  0
 31 27  1  0
 31 35  1  0
 32 31  1  0
 33 34  1  0
 33 32  1  0
 34 30  1  0
 35 36  2  0
 36 37  1  0
 38 37  2  0
 39 38  1  0
 40 14  1  0
 40 41  1  0
 40 50  1  0
 41 44  1  0
 42 46  1  0
 42 41  1  0
 43 42  2  0
 46 45  1  0
 48 46  1  0
 48 49  1  0
 48 47  1  0
 50 53  1  1
 50 51  1  0
 52 50  1  0
 54  1  1  0
 54 55  2  0
 57 62  1  0
 58 59  1  0
 58 57  1  0
 60 59  1  0
 60 69  1  0
 60 61  1  0
 62 56  1  0
 62 61  1  0
 63 56  2  0
 64 65  1  0
 65 56  1  0
 65 55  1  0
 66 67  2  0
 67 68  1  0
 67 86  1  0
 68 71  1  0
 69 66  1  0
 69 70  1  0
 70 68  2  0
 71 72  1  0
 72 73  2  0
 74 77  1  0
 74 73  1  0
 75 74  2  0
 76 75  1  0
 76 71  2  0
 77 78  1  0
 78 79  1  0
 79 80  2  0
 81 80  1  0
 81 85  1  0
 82 81  2  0
 83 78  2  0
 83 82  1  0
 84 83  1  0
 86 87  1  0
 87 90  1  0
 87 89  1  0
 88 86  2  0
 91 92  1  0
 91 66  1  0
 93 91  1  0
M  ISO  4  12 101  13 101  56 100  65 100
M  END
>  <TORSDO>  (8) 
F 22

>  <SCORE>  (8) 
-12.774

>  <name>  (8) 
7

>  <ligand_id>  (8) 
7

>  <original_smiles>  (8) 
[H]c1c([H])c([H])c2c(c1[H])C([H])([H])C([H])([H])C([H])([H])C2([H])N([H])C(=O)C1([H])N(C(=O)C([H])(N([H])C(=O)C([H])(N([H])C([H])([H])[H])C([H])([H])[H])C(C([H])([H])[H])(C([H])([H])[H])C([H])([H])[H])C([H])([H])c2c([H])c(OC([H])([H])C(c3nnc(C([H])([H])C([H])([H])N(C(=O)N4C([H])([H])C([H])([H])C([H])([H])C([H])(n5nc(-c6c([H])c([H])c(Oc7c([H])c([H])c(F)c([H])c7F)c([H])c6[H])c(C(=O)N([H])[H])c5N([H])[H])C4([H])[H])C([H])([H])[H])n3C([H])([H])C([H])([H])[H])(C([H])([H])[H])C([H])([H])C([H])([H])[H])c([H])c([H])c2C1([H])[H]

>  <smiles>  (8) 
[H]c1c([H])c([H])c2c(c1[H])C([H])([H])C([H])([H])C([H])([H])C2([H])N([H])C(=O)C1([H])N(C(=O)C([H])(N([H])C(=O)C([H])(N([H])C([H])([H])[H])C([H])([H])[H])C(C([H])([H])[H])(C([H])([H])[H])C([H])([H])[H])C([H])([H])c2c([H])c(OC([H])([H])C(c3nnc(C([H])([H])C([H])([H])N(C(=O)N4C([H])([H])C([H])([H])C([H])([H])C([H])(n5nc(-c6c([H])c([H])c(Oc7c([H])c([H])c(F)c([H])c7F)c([H])c6[H])c(C(=O)N([H])[H])c5N([H])[H])C4([H])[H])C([H])([H])[H])n3C([H])([H])C([H])([H])[H])(C([H])([H])[H])C([H])([H])C([H])([H])[H])c([H])c([H])c2C1([H])[H]

$$$$
8:0:0
     RDKit          3D

 87 95  0  0  1  0  0  0  0  0999 V2000
  -28.7510  -20.6270   21.2530 C   0  0  0  0  0  3  0  0  0  0  0  0
  -29.5100  -20.8190   19.1420 C   0  0  0  0  0  3  0  0  0  0  0  0
  -29.3580  -19.8290   20.1980 C   0  0  0  0  0  0  0  0  0  0  0  0
  -28.5800  -22.8690   20.1760 C   0  0  0  0  0  0  0  0  0  0  0  0
  -28.3780  -22.0010   21.2260 N   0  0  0  0  0  0  0  0  0  0  0  0
  -29.1360  -22.1880   19.1260 N   0  0  0  0  0  0  0  0  0  0  0  0
  -30.1080  -18.2460   20.2320 C   0  0  0  0  0  2  0  0  0  0  0  0
  -30.4400  -15.3670   20.2020 C   0  0  0  0  0  0  0  0  0  0  0  0
  -30.3850  -12.9370   19.3170 C   0  0  0  0  0  2  0  0  0  0  0  0
  -29.4390  -12.7440   18.1060 C   0  0  0  0  0  2  0  0  0  0  0  0
  -28.0000  -12.4740   18.5800 C   0  0  0  0  0  2  0  0  0  0  0  0
  -27.5740  -13.4290   19.7220 C   0  0  0  0  0  3  0  0  0  0  0  0
  -28.6460  -13.5730   20.8210 C   0  0  0  0  0  2  0  0  0  0  0  0
  -29.8620  -14.0710   20.1600 N   0  0  0  0  0  0  0  0  0  0  0  0
  -31.6530  -15.3670   19.9490 O   0  0  0  0  0  0  0  0  0  0  0  0
  -29.6970  -16.6410   20.3200 N   0  0  0  0  0  0  0  0  0  0  0  0
  -28.7120  -16.4840   20.4740 H   0  0  0  0  0  0  0  0  0  0  0  0
  -25.2230  -13.9700   20.5510 C   0  0  0  0  0  0  0  0  0  0  0  0
  -24.1730  -13.1840   20.9310 C   0  0  0  0  0  0  0  0  0  0  0  0
  -24.6400  -11.8350   20.8590 C   0  0  0  0  0  0  0  0  0  0  0  0
  -26.2600  -13.1020   20.2600 N   0  0  0  0  0  0  0  0  0  0  0  0
  -25.9230  -11.8100   20.5130 N   0  0  0  0  0  0  0  0  0  0  0  0
  -23.9190  -10.5680   21.0380 C   0  0  0  0  0  0  0  0  0  0  0  0
  -24.3480   -9.5980   21.9690 C   0  0  0  0  0  3  0  0  0  0  0  0
  -23.6250   -8.3970   22.1380 C   0  0  0  0  0  3  0  0  0  0  0  0
  -22.4570   -8.1590   21.3750 C   0  0  0  0  0  0  0  0  0  0  0  0
  -22.0460   -9.1180   20.4330 C   0  0  0  0  0  3  0  0  0  0  0  0
  -22.7700  -10.3100   20.2630 C   0  0  0  0  0  3  0  0  0  0  0  0
  -21.7050   -7.0120   21.4550 O   0  0  0  0  0  0  0  0  0  0  0  0
  -21.6140   -6.2900   22.6170 C   0  0  0  0  0  0  0  0  0  0  0  0
  -21.0870   -6.8480   23.8030 C   0  0  0  0  0  3  0  0  0  0  0  0
  -20.9480   -6.0490   24.9560 C   0  0  0  0  0  3  0  0  0  0  0  0
  -21.3250   -4.6940   24.9240 C   0  0  0  0  0  0  0  0  0  0  0  0
  -21.8430   -4.1340   23.7420 C   0  0  0  0  0  3  0  0  0  0  0  0
  -21.9840   -4.9300   22.5910 C   0  0  0  0  0  0  0  0  0  0  0  0
  -22.4640   -4.3810   21.4500 F   0  0  0  0  0  0  0  0  0  0  0  0
  -21.1840   -3.9240   26.0280 F   0  0  0  0  0  0  0  0  0  0  0  0
  -22.7820  -13.6530   21.2440 C   0  0  0  0  0  0  0  0  0  0  0  0
  -22.0760  -12.9380   22.1130 N   0  0  0  0  0  0  0  0  0  0  0  0
  -22.3330  -14.6890   20.7550 O   0  0  0  0  0  0  0  0  0  0  0  0
  -22.4540  -12.1010   22.5290 H   0  0  0  0  0  0  0  0  0  0  0  0
  -21.1430  -13.2340   22.3660 H   0  0  0  0  0  0  0  0  0  0  0  0
  -25.3770  -15.3450   20.3970 N   0  0  0  0  0  0  0  0  0  0  0  0
  -24.6060  -15.9890   20.5350 H   0  0  0  0  0  0  0  0  0  0  0  0
  -26.2020  -15.7910   20.0190 H   0  0  0  0  0  0  0  0  0  0  0  0
  -27.7800  -24.4160   20.0070 C   0  0  0  0  0  2  0  0  0  0  0  0
  -28.1520  -25.9940   20.2340 O   0  0  0  0  0  0  0  0  0  0  0  0
  -24.6340  -31.9410   23.2420 C   0  0  0  0  0  0  0  0  0  0  0  0
  -27.1580  -27.0990   20.1740 C   0  0  0  0  0  0  0  0  0  0  0  0
  -23.4250  -30.5590   21.6020 C   0  0  0  0  0  3  0  0  0  0  0  0
  -24.8610  -28.9700   20.1580 C   0  0  0  0  0  0  0  0  0  0  0  0
  -25.9900  -30.7730   21.4390 C   0  0  0  0  0  2  0  0  0  0  0  0
  -26.0540  -29.3710   20.7730 C   0  0  0  0  0  0  0  0  0  0  0  0
  -27.1980  -28.4560   20.7580 C   0  0  0  0  0  3  0  0  0  0  0  0
  -25.9350  -26.8500   19.5090 C   0  0  0  0  0  3  0  0  0  0  0  0
  -24.8260  -27.7300   19.5050 C   0  0  0  0  0  3  0  0  0  0  0  0
  -23.6430  -29.8890   20.2190 C   0  0  0  0  0  2  0  0  0  0  0  0
  -24.7050  -31.1170   22.1480 N   0  0  0  0  0  0  0  0  0  0  0  0
  -23.5480  -32.2280   23.7730 O   0  0  0  0  0  0  0  0  0  0  0  0
  -22.7380  -29.5550   22.5650 C   0  0  0  0  0  0  0  0  0  0  0  0
  -21.4100  -29.3790   22.4350 N   0  0  0  0  0  0  0  0  0  0  0  0
  -23.4070  -28.9370   23.3970 O   0  0  0  0  0  0  0  0  0  0  0  0
  -20.9230  -29.9290   21.7420 H   0  0  0  0  0  0  0  0  0  0  0  0
  -18.0350  -28.1440   22.9350 C   0  0  0  0  0  0  0  0  0  0  0  0
  -20.5930  -28.4350   23.2050 C   0  0  0  0  0  3  0  0  0  0  0  0
  -20.7090  -27.0030   22.6330 C   0  0  0  0  0  2  0  0  0  0  0  0
  -19.6120  -26.6680   21.6160 C   0  0  0  0  0  2  0  0  0  0  0  0
  -18.2270  -26.7970   22.2580 C   0  0  0  0  0  2  0  0  0  0  0  0
  -19.1450  -28.9190   23.3660 C   0  0  0  0  0  0  0  0  0  0  0  0
  -18.9090  -30.1760   23.9640 C   0  0  0  0  0  3  0  0  0  0  0  0
  -17.5980  -30.6600   24.1310 C   0  0  0  0  0  3  0  0  0  0  0  0
  -16.5040  -29.8830   23.7150 C   0  0  0  0  0  3  0  0  0  0  0  0
  -16.7230  -28.6270   23.1230 C   0  0  0  0  0  3  0  0  0  0  0  0
  -25.9110  -32.5780   23.8690 C   0  0  0  0  0  3  0  0  0  0  0  0
  -25.6010  -33.9780   24.2050 N   0  0  0  0  0  0  0  0  0  0  0  0
  -25.9080  -35.0370   23.4430 C   0  0  0  0  0  0  0  0  0  0  0  0
  -26.5450  -34.9370   22.3920 O   0  0  0  0  0  0  0  0  0  0  0  0
  -25.0310  -34.1280   25.0250 H   0  0  0  0  0  0  0  0  0  0  0  0
  -24.1610  -36.8280   23.1630 C   0  0  0  0  0  1  0  0  0  0  0  0
  -25.4360  -36.4250   23.9210 C   0  0  0  0  0  3  0  0  0  0  0  0
  -27.5930  -37.3290   24.6730 C   0  0  0  0  0  1  0  0  0  0  0  0
  -26.4590  -37.4830   23.7650 N   0  0  0  0  0  0  0  0  0  0  0  0
  -26.0530  -38.4030   23.9180 H   0  0  0  0  0  0  0  0  0  0  0  0
  -26.4170  -31.8110   25.1530 C   0  0  1  0  0  0  0  0  0  0  0  0
  -25.3170  -31.5790   26.2160 C   0  0  0  0  0  1  0  0  0  0  0  0
  -27.0010  -30.4300   24.7780 C   0  0  0  0  0  1  0  0  0  0  0  0
  -27.5640  -32.6070   25.8200 C   0  0  0  0  0  1  0  0  0  0  0  0
  2  3  1  0
  3  7  1  0
  3  1  2  0
  4  5  2  0
  5  1  1  0
  6  2  2  0
  6  4  1  0
  7 16  1  0
  8 16  1  0
  9 14  1  0
 10 11  1  0
 10  9  1  0
 12 11  1  0
 12 21  1  0
 12 13  1  0
 14  8  1  0
 14 13  1  0
 15  8  2  0
 16 17  1  0
 18 19  2  0
 19 38  1  0
 20 19  1  0
 20 23  1  0
 21 22  1  0
 21 18  1  0
 22 20  2  0
 23 24  1  0
 24 25  2  0
 26 29  1  0
 26 25  1  0
 27 26  2  0
 28 27  1  0
 28 23  2  0
 29 30  1  0
 30 31  1  0
 31 32  2  0
 33 32  1  0
 33 37  1  0
 34 33  2  0
 35 30  2  0
 35 34  1  0
 36 35  1  0
 38 39  1  0
 39 42  1  0
 39 41  1  0
 40 38  2  0
 43 44  1  0
 43 18  1  0
 45 43  1  0
 46  4  1  0
 46 47  1  0
 48 59  2  0
 49 47  1  0
 49 54  1  0
 50 58  1  0
 50 60  1  0
 51 57  1  0
 51 53  1  0
 52 58  1  0
 53 52  1  0
 54 53  2  0
 55 49  2  0
 56 55  1  0
 56 51  2  0
 57 50  1  0
 58 48  1  0
 60 62  2  0
 61 60  1  0
 63 61  1  0
 64 73  2  0
 64 69  1  0
 65 61  1  0
 65 69  1  0
 66 65  1  0
 67 68  1  0
 67 66  1  0
 68 64  1  0
 69 70  2  0
 70 71  1  0
 72 71  2  0
 73 72  1  0
 74 48  1  0
 74 75  1  0
 74 84  1  0
 75 78  1  0
 76 80  1  0
 76 75  1  0
 77 76  2  0
 80 79  1  0
 82 83  1  0
 82 80  1  0
 82 81  1  0
 84 87  1  1
 84 85  1  0
 86 84  1  0
M  ISO  4   8 100  16 100  46 101  47 101
M  END
>  <TORSDO>  (9) 
F 18

>  <SCORE>  (9) 
-15.740

>  <name>  (9) 
8

>  <ligand_id>  (9) 
8

>  <original_smiles>  (9) 
[H]c1nc(C([H])([H])Oc2c([H])c([H])c3c(c2[H])C([H])([H])N(C(=O)C([H])(N([H])C(=O)C([H])(N([H])C([H])([H])[H])C([H])([H])[H])C(C([H])([H])[H])(C([H])([H])[H])C([H])([H])[H])C([H])(C(=O)N([H])C2([H])c4c([H])c([H])c([H])c([H])c4C([H])([H])C([H])([H])C2([H])[H])C3([H])[H])nc([H])c1C([H])([H])N([H])C(=O)N1C([H])([H])C([H])([H])C([H])([H])C([H])(n2nc(-c3c([H])c([H])c(Oc4c([H])c([H])c(F)c([H])c4F)c([H])c3[H])c(C(=O)N([H])[H])c2N([H])[H])C1([H])[H]

>  <smiles>  (9) 
[H]c1nc(C([H])([H])Oc2c([H])c([H])c3c(c2[H])C([H])([H])N(C(=O)C([H])(N([H])C(=O)C([H])(N([H])C([H])([H])[H])C([H])([H])[H])C(C([H])([H])[H])(C([H])([H])[H])C([H])([H])[H])C([H])(C(=O)N([H])C2([H])c4c([H])c([H])c([H])c([H])c4C([H])([H])C([H])([H])C2([H])[H])C3([H])[H])nc([H])c1C([H])([H])N([H])C(=O)N1C([H])([H])C([H])([H])C([H])([H])C([H])(n2nc(-c3c([H])c([H])c(Oc4c([H])c([H])c(F)c([H])c4F)c([H])c3[H])c(C(=O)N([H])[H])c2N([H])[H])C1([H])[H]

$$$$
9:0:0
     RDKit          3D

 89 97  0  0  1  0  0  0  0  0999 V2000
  -26.8660  -22.8660   20.6170 C   0  0  0  0  0  1  0  0  0  0  0  0
  -29.0840  -23.2890   21.6660 C   0  0  0  0  0  1  0  0  0  0  0  0
  -28.3560  -23.1420   20.3170 C   0  0  1  0  0  0  0  0  0  0  0  0
  -29.0300  -21.7310   19.5680 C   0  0  0  0  0  2  0  0  0  0  0  0
  -29.8400  -18.9880   19.7610 C   0  0  0  0  0  3  0  0  0  0  0  0
  -27.9230  -19.5180   20.5560 C   0  0  0  0  0  3  0  0  0  0  0  0
  -29.2620  -17.7390   20.2020 C   0  0  0  0  0  0  0  0  0  0  0  0
  -28.0280  -18.1760   20.7020 N   0  0  0  0  0  0  0  0  0  0  0  0
  -28.9620  -20.1700   19.9960 N   0  0  0  0  0  0  0  0  0  0  0  0
  -30.4410  -15.1260   19.9100 C   0  0  0  0  0  0  0  0  0  0  0  0
  -30.4080  -12.7570   18.9590 C   0  0  0  0  0  2  0  0  0  0  0  0
  -29.4000  -12.6890   17.7840 C   0  0  0  0  0  2  0  0  0  0  0  0
  -27.9600  -12.4570   18.2870 C   0  0  0  0  0  2  0  0  0  0  0  0
  -27.6070  -13.3550   19.5000 C   0  0  0  0  0  3  0  0  0  0  0  0
  -28.7210  -13.3370   20.5670 C   0  0  0  0  0  2  0  0  0  0  0  0
  -29.9440  -13.8160   19.9060 N   0  0  0  0  0  0  0  0  0  0  0  0
  -31.6140  -15.2710   19.5350 O   0  0  0  0  0  0  0  0  0  0  0  0
  -29.5300  -16.1980   20.2040 N   0  0  0  0  0  0  0  0  0  0  0  0
  -28.7070  -15.7330   20.5540 H   0  0  0  0  0  0  0  0  0  0  0  0
  -25.2720  -13.9110   20.3920 C   0  0  0  0  0  0  0  0  0  0  0  0
  -24.2310  -13.1220   20.8020 C   0  0  0  0  0  0  0  0  0  0  0  0
  -24.6950  -11.7730   20.7090 C   0  0  0  0  0  0  0  0  0  0  0  0
  -26.3000  -13.0400   20.0670 N   0  0  0  0  0  0  0  0  0  0  0  0
  -25.9660  -11.7470   20.3190 N   0  0  0  0  0  0  0  0  0  0  0  0
  -23.9800  -10.5020   20.9090 C   0  0  0  0  0  0  0  0  0  0  0  0
  -24.4310   -9.5310   21.8310 C   0  0  0  0  0  3  0  0  0  0  0  0
  -23.7180   -8.3270   22.0150 C   0  0  0  0  0  3  0  0  0  0  0  0
  -22.5360   -8.0840   21.2730 C   0  0  0  0  0  0  0  0  0  0  0  0
  -22.1080   -9.0380   20.3330 C   0  0  0  0  0  3  0  0  0  0  0  0
  -22.8200  -10.2380   20.1550 C   0  0  0  0  0  3  0  0  0  0  0  0
  -21.7830   -6.9410   21.3680 O   0  0  0  0  0  0  0  0  0  0  0  0
  -21.6790   -6.2490   22.5480 C   0  0  0  0  0  0  0  0  0  0  0  0
  -21.1820   -6.8500   23.7250 C   0  0  0  0  0  3  0  0  0  0  0  0
  -21.0230   -6.0780   24.8930 C   0  0  0  0  0  3  0  0  0  0  0  0
  -21.3580   -4.7100   24.8870 C   0  0  0  0  0  0  0  0  0  0  0  0
  -21.8560   -4.1140   23.7130 C   0  0  0  0  0  3  0  0  0  0  0  0
  -22.0130   -4.8810   22.5470 C   0  0  0  0  0  0  0  0  0  0  0  0
  -22.4690   -4.2960   21.4130 F   0  0  0  0  0  0  0  0  0  0  0  0
  -21.1960   -3.9630   26.0050 F   0  0  0  0  0  0  0  0  0  0  0  0
  -22.8520  -13.5910   21.1680 C   0  0  0  0  0  0  0  0  0  0  0  0
  -22.1740  -12.8670   22.0530 N   0  0  0  0  0  0  0  0  0  0  0  0
  -22.3880  -14.6290   20.6990 O   0  0  0  0  0  0  0  0  0  0  0  0
  -21.2370  -13.1340   22.3200 H   0  0  0  0  0  0  0  0  0  0  0  0
  -22.5670  -12.0190   22.4370 H   0  0  0  0  0  0  0  0  0  0  0  0
  -25.4140  -15.2900   20.2490 N   0  0  0  0  0  0  0  0  0  0  0  0
  -24.6260  -15.9080   20.4130 H   0  0  0  0  0  0  0  0  0  0  0  0
  -26.2280  -15.7810   19.8990 H   0  0  0  0  0  0  0  0  0  0  0  0
  -28.3490  -24.7020   19.5800 C   0  0  0  0  0  2  0  0  0  0  0  0
  -28.2610  -26.1730   20.1680 O   0  0  0  0  0  0  0  0  0  0  0  0
  -24.6460  -31.8780   23.1920 C   0  0  0  0  0  0  0  0  0  0  0  0
  -27.1940  -27.1560   20.0830 C   0  0  0  0  0  0  0  0  0  0  0  0
  -23.4310  -30.4910   21.5570 C   0  0  0  0  0  3  0  0  0  0  0  0
  -24.8660  -28.9260   20.0960 C   0  0  0  0  0  0  0  0  0  0  0  0
  -25.9850  -30.7530   21.3690 C   0  0  0  0  0  2  0  0  0  0  0  0
  -26.0520  -29.3650   20.6980 C   0  0  0  0  0  0  0  0  0  0  0  0
  -27.2130  -28.4930   20.6740 C   0  0  0  0  0  3  0  0  0  0  0  0
  -25.9800  -26.8270   19.4470 C   0  0  0  0  0  3  0  0  0  0  0  0
  -24.8470  -27.6740   19.4560 C   0  0  0  0  0  3  0  0  0  0  0  0
  -23.6380  -29.8240   20.1690 C   0  0  0  0  0  2  0  0  0  0  0  0
  -24.7080  -31.0650   22.0920 N   0  0  0  0  0  0  0  0  0  0  0  0
  -23.5630  -32.1560   23.7330 O   0  0  0  0  0  0  0  0  0  0  0  0
  -22.7630  -29.4780   22.5220 C   0  0  0  0  0  0  0  0  0  0  0  0
  -21.4340  -29.3070   22.4140 N   0  0  0  0  0  0  0  0  0  0  0  0
  -23.4470  -28.8460   23.3320 O   0  0  0  0  0  0  0  0  0  0  0  0
  -20.9350  -29.8660   21.7360 H   0  0  0  0  0  0  0  0  0  0  0  0
  -18.0650  -28.0800   22.9400 C   0  0  0  0  0  0  0  0  0  0  0  0
  -20.6240  -28.3620   23.1870 C   0  0  0  0  0  3  0  0  0  0  0  0
  -20.7340  -26.9300   22.6100 C   0  0  0  0  0  2  0  0  0  0  0  0
  -19.6280  -26.6030   21.6020 C   0  0  0  0  0  2  0  0  0  0  0  0
  -18.2500  -26.7350   22.2560 C   0  0  0  0  0  2  0  0  0  0  0  0
  -19.1810  -28.8510   23.3630 C   0  0  0  0  0  0  0  0  0  0  0  0
  -18.9550  -30.1090   23.9610 C   0  0  0  0  0  3  0  0  0  0  0  0
  -17.6470  -30.5970   24.1430 C   0  0  0  0  0  3  0  0  0  0  0  0
  -16.5470  -29.8220   23.7380 C   0  0  0  0  0  3  0  0  0  0  0  0
  -16.7550  -28.5670   23.1390 C   0  0  0  0  0  3  0  0  0  0  0  0
  -25.9260  -32.5180   23.8100 C   0  0  0  0  0  3  0  0  0  0  0  0
  -26.4550  -31.7480   25.0810 C   0  0  1  0  0  0  0  0  0  0  0  0
  -25.3740  -31.5070   26.1600 C   0  0  0  0  0  1  0  0  0  0  0  0
  -27.0420  -30.3730   24.6900 C   0  0  0  0  0  1  0  0  0  0  0  0
  -27.6050  -32.5500   25.7370 C   0  0  0  0  0  1  0  0  0  0  0  0
  -25.6070  -33.9130   24.1550 N   0  0  0  0  0  0  0  0  0  0  0  0
  -25.9270  -34.9830   23.4140 C   0  0  0  0  0  0  0  0  0  0  0  0
  -26.5840  -34.8990   22.3730 O   0  0  0  0  0  0  0  0  0  0  0  0
  -25.0220  -34.0520   24.9660 H   0  0  0  0  0  0  0  0  0  0  0  0
  -24.1880  -36.7830   23.1220 C   0  0  0  0  0  1  0  0  0  0  0  0
  -25.4420  -36.3630   23.9040 C   0  0  0  0  0  3  0  0  0  0  0  0
  -27.5820  -37.2480   24.7230 C   0  0  0  0  0  1  0  0  0  0  0  0
  -26.4680  -37.4230   23.7950 N   0  0  0  0  0  0  0  0  0  0  0  0
  -26.0590  -38.3380   23.9620 H   0  0  0  0  0  0  0  0  0  0  0  0
  3  1  1  1
  3  2  1  0
  4  9  1  0
  4  3  1  0
  5  9  1  0
  5  7  2  0
  6  8  2  0
  7 18  1  0
  7  8  1  0
  9  6  1  0
 10 18  1  0
 11 16  1  0
 12 13  1  0
 12 11  1  0
 14 13  1  0
 14 23  1  0
 14 15  1  0
 16 10  1  0
 16 15  1  0
 17 10  2  0
 18 19  1  0
 20 21  2  0
 21 40  1  0
 22 21  1  0
 22 25  1  0
 23 24  1  0
 23 20  1  0
 24 22  2  0
 25 26  1  0
 26 27  2  0
 28 31  1  0
 28 27  1  0
 29 28  2  0
 30 29  1  0
 30 25  2  0
 31 32  1  0
 32 33  1  0
 33 34  2  0
 35 34  1  0
 35 39  1  0
 36 35  2  0
 37 32  2  0
 37 36  1  0
 38 37  1  0
 40 41  1  0
 41 43  1  0
 41 44  1  0
 42 40  2  0
 45 20  1  0
 45 46  1  0
 47 45  1  0
 48 49  1  0
 48  3  1  0
 50 61  2  0
 51 49  1  0
 51 56  1  0
 52 60  1  0
 52 62  1  0
 53 59  1  0
 53 55  1  0
 54 60  1  0
 55 54  1  0
 56 55  2  0
 57 58  1  0
 57 51  2  0
 58 53  2  0
 59 52  1  0
 60 50  1  0
 62 64  2  0
 63 62  1  0
 65 63  1  0
 66 75  2  0
 66 71  1  0
 67 63  1  0
 67 71  1  0
 68 67  1  0
 69 70  1  0
 69 68  1  0
 70 66  1  0
 71 72  2  0
 72 73  1  0
 74 73  2  0
 75 74  1  0
 76 50  1  0
 76 81  1  0
 76 77  1  0
 77 80  1  1
 77 78  1  0
 79 77  1  0
 81 84  1  0
 82 86  1  0
 82 81  1  0
 83 82  2  0
 86 85  1  0
 88 86  1  0
 88 89  1  0
 88 87  1  0
M  ISO  4  10 100  18 100  48 101  49 101
M  END
>  <TORSDO>  (10) 
F 19

>  <SCORE>  (10) 
-15.173

>  <name>  (10) 
9

>  <ligand_id>  (10) 
9

>  <original_smiles>  (10) 
[H]c1c([H])c([H])c2c(c1[H])C([H])([H])C([H])([H])C([H])([H])C2([H])N([H])C(=O)C1([H])N(C(=O)C([H])(N([H])C(=O)C([H])(N([H])C([H])([H])[H])C([H])([H])[H])C(C([H])([H])[H])(C([H])([H])[H])C([H])([H])[H])C([H])([H])c2c([H])c(OC([H])([H])C(C([H])([H])[H])(C([H])([H])[H])C([H])([H])n3c([H])nc(N([H])C(=O)N4C([H])([H])C([H])([H])C([H])([H])C([H])(n5nc(-c6c([H])c([H])c(Oc7c([H])c([H])c(F)c([H])c7F)c([H])c6[H])c(C(=O)N([H])[H])c5N([H])[H])C4([H])[H])c3[H])c([H])c([H])c2C1([H])[H]

>  <smiles>  (10) 
[H]c1c([H])c([H])c2c(c1[H])C([H])([H])C([H])([H])C([H])([H])C2([H])N([H])C(=O)C1([H])N(C(=O)C([H])(N([H])C(=O)C([H])(N([H])C([H])([H])[H])C([H])([H])[H])C(C([H])([H])[H])(C([H])([H])[H])C([H])([H])[H])C([H])([H])c2c([H])c(OC([H])([H])C(C([H])([H])[H])(C([H])([H])[H])C([H])([H])n3c([H])nc(N([H])C(=O)N4C([H])([H])C([H])([H])C([H])([H])C([H])(n5nc(-c6c([H])c([H])c(Oc7c([H])c([H])c(F)c([H])c7F)c([H])c6[H])c(C(=O)N([H])[H])c5N([H])[H])C4([H])[H])c3[H])c([H])c([H])c2C1([H])[H]

$$$$
10:0:0
     RDKit          3D

 89 97  0  0  1  0  0  0  0  0999 V2000
  -29.2090  -20.7270   20.1740 C   0  0  0  0  0  0  0  0  0  0  0  0
  -29.7520  -18.6100   20.0450 C   0  0  0  0  0  3  0  0  0  0  0  0
  -32.0260  -18.8300   21.1280 C   0  0  0  0  0  1  0  0  0  0  0  0
  -28.7600  -19.4830   19.7240 N   0  0  0  0  0  0  0  0  0  0  0  0
  -30.3910  -20.6280   20.7880 N   0  0  0  0  0  2  0  0  0  0  0  0
  -30.7280  -19.2940   20.6750 N   0  0  0  0  0  0  0  0  0  0  0  0
  -28.3960  -22.0730   19.9970 C   0  0  0  0  0  2  0  0  0  0  0  0
  -28.9370  -23.5730   20.3280 C   0  0  0  0  0  3  0  0  0  0  0  0
  -27.9300  -24.8270   20.0570 C   0  0  0  0  0  3  0  0  0  0  0  0
  -28.2200  -26.2990   20.2980 O   0  0  0  0  0  0  0  0  0  0  0  0
  -24.5640  -31.8950   23.2440 C   0  0  0  0  0  0  0  0  0  0  0  0
  -27.1420  -27.2280   20.2330 C   0  0  0  0  0  0  0  0  0  0  0  0
  -23.3590  -30.4880   21.6180 C   0  0  0  0  0  3  0  0  0  0  0  0
  -24.8030  -28.9140   20.2080 C   0  0  0  0  0  0  0  0  0  0  0  0
  -25.9090  -30.7700   21.4440 C   0  0  0  0  0  2  0  0  0  0  0  0
  -25.9790  -29.3790   20.8070 C   0  0  0  0  0  0  0  0  0  0  0  0
  -27.1530  -28.5500   20.8080 C   0  0  0  0  0  3  0  0  0  0  0  0
  -25.9380  -26.8460   19.5970 C   0  0  0  0  0  3  0  0  0  0  0  0
  -24.7880  -27.6550   19.5930 C   0  0  0  0  0  3  0  0  0  0  0  0
  -23.5750  -29.8030   20.2460 C   0  0  0  0  0  2  0  0  0  0  0  0
  -24.6300  -31.0710   22.1570 N   0  0  0  0  0  0  0  0  0  0  0  0
  -23.4800  -32.1840   23.7720 O   0  0  0  0  0  0  0  0  0  0  0  0
  -22.6860  -29.4830   22.5860 C   0  0  0  0  0  0  0  0  0  0  0  0
  -21.3570  -29.3110   22.4600 N   0  0  0  0  0  0  0  0  0  0  0  0
  -23.3580  -28.8640   23.4140 O   0  0  0  0  0  0  0  0  0  0  0  0
  -20.8700  -29.8640   21.7690 H   0  0  0  0  0  0  0  0  0  0  0  0
  -17.9760  -28.1240   22.9710 C   0  0  0  0  0  0  0  0  0  0  0  0
  -20.5350  -28.3840   23.2420 C   0  0  0  0  0  3  0  0  0  0  0  0
  -20.6340  -26.9430   22.6870 C   0  0  0  0  0  2  0  0  0  0  0  0
  -19.5330  -26.6110   21.6750 C   0  0  0  0  0  2  0  0  0  0  0  0
  -18.1500  -26.7660   22.3120 C   0  0  0  0  0  2  0  0  0  0  0  0
  -19.0950  -28.8900   23.3930 C   0  0  0  0  0  0  0  0  0  0  0  0
  -18.8760  -30.1600   23.9690 C   0  0  0  0  0  3  0  0  0  0  0  0
  -17.5700  -30.6650   24.1260 C   0  0  0  0  0  3  0  0  0  0  0  0
  -16.4660  -29.8960   23.7180 C   0  0  0  0  0  3  0  0  0  0  0  0
  -16.6700  -28.6270   23.1470 C   0  0  0  0  0  3  0  0  0  0  0  0
  -25.8450  -32.5340   23.8610 C   0  0  0  0  0  3  0  0  0  0  0  0
  -26.3670  -31.7670   25.1380 C   0  0  1  0  0  0  0  0  0  0  0  0
  -25.2800  -31.5310   26.2120 C   0  0  0  0  0  1  0  0  0  0  0  0
  -26.9510  -30.3880   24.7490 C   0  0  0  0  0  1  0  0  0  0  0  0
  -27.5160  -32.5680   25.7940 C   0  0  0  0  0  1  0  0  0  0  0  0
  -25.5320  -33.9330   24.1910 N   0  0  0  0  0  0  0  0  0  0  0  0
  -25.8530  -34.9880   23.4300 C   0  0  0  0  0  0  0  0  0  0  0  0
  -26.5120  -34.8840   22.3920 O   0  0  0  0  0  0  0  0  0  0  0  0
  -24.9530  -34.0860   25.0030 H   0  0  0  0  0  0  0  0  0  0  0  0
  -24.1130  -36.7740   23.0990 C   0  0  0  0  0  1  0  0  0  0  0  0
  -25.3680  -36.3750   23.8930 C   0  0  0  0  0  3  0  0  0  0  0  0
  -27.5120  -37.2680   24.6910 C   0  0  0  0  0  1  0  0  0  0  0  0
  -26.3950  -37.4310   23.7650 N   0  0  0  0  0  0  0  0  0  0  0  0
  -25.9870  -38.3500   23.9200 H   0  0  0  0  0  0  0  0  0  0  0  0
  -29.8990  -17.1240   19.5160 C   0  0  0  0  0  2  0  0  0  0  0  0
  -30.7050  -14.7340   20.0420 C   0  0  0  0  0  0  0  0  0  0  0  0
  -30.3680  -12.5100   18.9450 C   0  0  0  0  0  2  0  0  0  0  0  0
  -29.3690  -12.6720   17.7760 C   0  0  0  0  0  2  0  0  0  0  0  0
  -27.9230  -12.5090   18.2870 C   0  0  0  0  0  2  0  0  0  0  0  0
  -27.6460  -13.3490   19.5620 C   0  0  0  0  0  3  0  0  0  0  0  0
  -28.7620  -13.1670   20.6110 C   0  0  0  0  0  2  0  0  0  0  0  0
  -30.0320  -13.5300   19.9660 N   0  0  0  0  0  0  0  0  0  0  0  0
  -31.8220  -14.8350   19.5240 O   0  0  0  0  0  0  0  0  0  0  0  0
  -29.6550  -16.0940   21.8140 C   0  0  0  0  0  1  0  0  0  0  0  0
  -30.0100  -15.8870   20.4090 N   0  0  0  0  0  0  0  0  0  0  0  0
  -25.3200  -13.9670   20.4510 C   0  0  0  0  0  0  0  0  0  0  0  0
  -24.2590  -13.2020   20.8570 C   0  0  0  0  0  0  0  0  0  0  0  0
  -24.6890  -11.8450   20.7540 C   0  0  0  0  0  0  0  0  0  0  0  0
  -26.3270  -13.0740   20.1220 N   0  0  0  0  0  0  0  0  0  0  0  0
  -25.9580  -11.7910   20.3670 N   0  0  0  0  0  0  0  0  0  0  0  0
  -23.9480  -10.5920   20.9500 C   0  0  0  0  0  0  0  0  0  0  0  0
  -24.4050   -9.5950   21.8400 C   0  0  0  0  0  3  0  0  0  0  0  0
  -23.6660   -8.4060   22.0240 C   0  0  0  0  0  3  0  0  0  0  0  0
  -22.4570   -8.2060   21.3160 C   0  0  0  0  0  0  0  0  0  0  0  0
  -22.0190   -9.1920   20.4150 C   0  0  0  0  0  3  0  0  0  0  0  0
  -22.7570  -10.3720   20.2310 C   0  0  0  0  0  3  0  0  0  0  0  0
  -21.6840   -7.0740   21.4120 O   0  0  0  0  0  0  0  0  0  0  0  0
  -21.6550   -6.3190   22.5550 C   0  0  0  0  0  0  0  0  0  0  0  0
  -21.2840   -6.8670   23.8030 C   0  0  0  0  0  3  0  0  0  0  0  0
  -21.2000   -6.0390   24.9390 C   0  0  0  0  0  3  0  0  0  0  0  0
  -21.4770   -4.6620   24.8310 C   0  0  0  0  0  0  0  0  0  0  0  0
  -21.8400   -4.1130   23.5890 C   0  0  0  0  0  3  0  0  0  0  0  0
  -21.9260   -4.9390   22.4550 C   0  0  0  0  0  0  0  0  0  0  0  0
  -22.2570   -4.4000   21.2560 F   0  0  0  0  0  0  0  0  0  0  0  0
  -21.3870   -3.8660   25.9220 F   0  0  0  0  0  0  0  0  0  0  0  0
  -22.8910  -13.6990   21.2260 C   0  0  0  0  0  0  0  0  0  0  0  0
  -22.2020  -12.9910   22.1150 N   0  0  0  0  0  0  0  0  0  0  0  0
  -22.4450  -14.7470   20.7630 O   0  0  0  0  0  0  0  0  0  0  0  0
  -22.5760  -12.1420   22.5110 H   0  0  0  0  0  0  0  0  0  0  0  0
  -21.2860  -13.3070   22.4020 H   0  0  0  0  0  0  0  0  0  0  0  0
  -25.5080  -15.3380   20.3180 N   0  0  0  0  0  0  0  0  0  0  0  0
  -24.7860  -16.0100   20.5520 H   0  0  0  0  0  0  0  0  0  0  0  0
  -26.3700  -15.7740   20.0140 H   0  0  0  0  0  0  0  0  0  0  0  0
  1  5  1  0
  2 51  1  0
  2  6  1  0
  4  2  1  0
  4  1  2  0
  6  5  1  0
  6  3  1  0
  7  1  1  0
  7  8  1  0
  9 10  1  0
  9  8  2  0
 11 22  2  0
 12 10  1  0
 12 17  1  0
 13 21  1  0
 13 23  1  0
 14 20  1  0
 14 16  1  0
 15 21  1  0
 16 17  2  0
 16 15  1  0
 18 12  2  0
 19 18  1  0
 19 14  2  0
 20 13  1  0
 21 11  1  0
 23 25  2  0
 24 23  1  0
 26 24  1  0
 27 36  2  0
 27 32  1  0
 28 24  1  0
 28 32  1  0
 29 28  1  0
 30 31  1  0
 30 29  1  0
 31 27  1  0
 32 33  2  0
 33 34  1  0
 35 34  2  0
 36 35  1  0
 37 11  1  0
 37 42  1  0
 37 38  1  0
 38 41  1  1
 38 39  1  0
 40 38  1  0
 42 45  1  0
 43 47  1  0
 43 42  1  0
 44 43  2  0
 47 46  1  0
 49 47  1  0
 49 50  1  0
 49 48  1  0
 51 61  1  0
 52 61  1  0
 53 58  1  0
 54 55  1  0
 54 53  1  0
 56 55  1  0
 56 65  1  0
 56 57  1  0
 58 52  1  0
 58 57  1  0
 59 52  2  0
 61 60  1  0
 62 63  2  0
 63 82  1  0
 64 63  1  0
 64 67  1  0
 65 66  1  0
 65 62  1  0
 66 64  2  0
 67 68  1  0
 68 69  2  0
 70 73  1  0
 70 69  1  0
 71 70  2  0
 72 71  1  0
 72 67  2  0
 73 74  1  0
 74 75  1  0
 75 76  2  0
 77 76  1  0
 77 81  1  0
 78 77  2  0
 79 74  2  0
 79 78  1  0
 80 79  1  0
 82 83  1  0
 83 86  1  0
 83 85  1  0
 84 82  2  0
 87 62  1  0
 87 88  1  0
 89 87  1  0
M  ISO  4   9 101  10 101  52 100  61 100
M  END
>  <TORSDO>  (11) 
F 20

>  <SCORE>  (11) 
-13.532

>  <name>  (11) 
10

>  <ligand_id>  (11) 
10

>  <original_smiles>  (11) 
[H]c1c([H])c([H])c2c(c1[H])C([H])([H])C([H])([H])C([H])([H])C2([H])N([H])C(=O)C1([H])N(C(=O)C([H])(N([H])C(=O)C([H])(N([H])C([H])([H])[H])C([H])([H])[H])C(C([H])([H])[H])(C([H])([H])[H])C([H])([H])[H])C([H])([H])c2c([H])c(OC([H])([H])C([H])([H])C([H])([H])c3nc(C([H])([H])N(C(=O)N4C([H])([H])C([H])([H])C([H])([H])C([H])(n5nc(-c6c([H])c([H])c(Oc7c([H])c([H])c(F)c([H])c7F)c([H])c6[H])c(C(=O)N([H])[H])c5N([H])[H])C4([H])[H])C([H])([H])[H])n(C([H])([H])[H])n3)c([H])c([H])c2C1([H])[H]

>  <smiles>  (11) 
[H]c1c([H])c([H])c2c(c1[H])C([H])([H])C([H])([H])C([H])([H])C2([H])N([H])C(=O)C1([H])N(C(=O)C([H])(N([H])C(=O)C([H])(N([H])C([H])([H])[H])C([H])([H])[H])C(C([H])([H])[H])(C([H])([H])[H])C([H])([H])[H])C([H])([H])c2c([H])c(OC([H])([H])C([H])([H])C([H])([H])c3nc(C([H])([H])N(C(=O)N4C([H])([H])C([H])([H])C([H])([H])C([H])(n5nc(-c6c([H])c([H])c(Oc7c([H])c([H])c(F)c([H])c7F)c([H])c6[H])c(C(=O)N([H])[H])c5N([H])[H])C4([H])[H])C([H])([H])[H])n(C([H])([H])[H])n3)c([H])c([H])c2C1([H])[H]

$$$$
11:0:0
     RDKit          3D

 91 99  0  0  1  0  0  0  0  0999 V2000
  -28.6010  -18.0610   17.9070 C   0  0  0  0  0  0  0  0  0  0  0  0
  -29.3290  -19.1450   19.5590 C   0  0  0  0  0  3  0  0  0  0  0  0
  -27.9020  -17.7390   16.6340 C   0  0  0  0  0  1  0  0  0  0  0  0
  -28.6410  -19.3110   18.4320 N   0  0  0  0  0  0  0  0  0  0  0  0
  -29.2120  -17.1180   18.6020 N   0  0  0  0  0  2  0  0  0  0  0  0
  -29.7490  -17.7550   19.6790 N   0  0  0  0  0  0  0  0  0  0  0  0
  -29.4190  -20.4230   20.3140 N   0  0  0  0  0  0  0  0  0  0  0  0
  -29.9440  -20.3360   21.1800 H   0  0  0  0  0  0  0  0  0  0  0  0
  -31.6900  -17.3790   21.1790 C   0  0  0  0  0  1  0  0  0  0  0  0
  -29.4680  -16.5090   21.8170 C   0  0  0  0  0  1  0  0  0  0  0  0
  -30.4240  -16.6900   20.6240 C   0  0  1  0  0  0  0  0  0  0  0  0
  -30.9440  -15.1730   20.0430 C   0  0  0  0  0  0  0  0  0  0  0  0
  -30.6900  -12.8690   18.9800 C   0  0  0  0  0  2  0  0  0  0  0  0
  -29.7050  -12.9230   17.7880 C   0  0  0  0  0  2  0  0  0  0  0  0
  -28.2540  -12.7290   18.2670 C   0  0  0  0  0  2  0  0  0  0  0  0
  -27.9350  -13.5870   19.5190 C   0  0  0  0  0  3  0  0  0  0  0  0
  -29.0400  -13.4680   20.5880 C   0  0  0  0  0  2  0  0  0  0  0  0
  -30.2940  -13.9270   19.9680 N   0  0  0  0  0  0  0  0  0  0  0  0
  -32.0940  -15.1520   19.5830 O   0  0  0  0  0  0  0  0  0  0  0  0
  -25.5940  -14.1860   20.3590 C   0  0  0  0  0  0  0  0  0  0  0  0
  -24.5340  -13.4200   20.7580 C   0  0  0  0  0  0  0  0  0  0  0  0
  -24.9730  -12.0630   20.6810 C   0  0  0  0  0  0  0  0  0  0  0  0
  -26.6120  -13.2970   20.0610 N   0  0  0  0  0  0  0  0  0  0  0  0
  -26.2500  -12.0130   20.3180 N   0  0  0  0  0  0  0  0  0  0  0  0
  -24.2320  -10.8100   20.8760 C   0  0  0  0  0  0  0  0  0  0  0  0
  -24.6560   -9.8360   21.8070 C   0  0  0  0  0  3  0  0  0  0  0  0
  -23.9130   -8.6490   21.9900 C   0  0  0  0  0  3  0  0  0  0  0  0
  -22.7330   -8.4280   21.2420 C   0  0  0  0  0  0  0  0  0  0  0  0
  -22.3290   -9.3890   20.3000 C   0  0  0  0  0  3  0  0  0  0  0  0
  -23.0710  -10.5680   20.1150 C   0  0  0  0  0  3  0  0  0  0  0  0
  -21.9640   -7.2920   21.3340 O   0  0  0  0  0  0  0  0  0  0  0  0
  -21.8680   -6.5810   22.5030 C   0  0  0  0  0  0  0  0  0  0  0  0
  -21.3960   -7.1680   23.6960 C   0  0  0  0  0  3  0  0  0  0  0  0
  -21.2470   -6.3820   24.8570 C   0  0  0  0  0  3  0  0  0  0  0  0
  -21.5610   -5.0110   24.8250 C   0  0  0  0  0  0  0  0  0  0  0  0
  -22.0250   -4.4230   23.6350 C   0  0  0  0  0  3  0  0  0  0  0  0
  -22.1750   -5.2060   22.4760 C   0  0  0  0  0  0  0  0  0  0  0  0
  -22.6030   -4.6290   21.3280 F   0  0  0  0  0  0  0  0  0  0  0  0
  -21.4110   -4.2540   25.9370 F   0  0  0  0  0  0  0  0  0  0  0  0
  -23.1580  -13.9150   21.0950 C   0  0  0  0  0  0  0  0  0  0  0  0
  -22.4580  -13.2220   21.9860 N   0  0  0  0  0  0  0  0  0  0  0  0
  -22.7140  -14.9520   20.6030 O   0  0  0  0  0  0  0  0  0  0  0  0
  -22.8310  -12.3840   22.4050 H   0  0  0  0  0  0  0  0  0  0  0  0
  -21.5350  -13.5360   22.2530 H   0  0  0  0  0  0  0  0  0  0  0  0
  -25.7710  -15.5560   20.1980 N   0  0  0  0  0  0  0  0  0  0  0  0
  -25.0190  -16.2200   20.3490 H   0  0  0  0  0  0  0  0  0  0  0  0
  -26.6080  -15.9840   19.8210 H   0  0  0  0  0  0  0  0  0  0  0  0
  -28.6130  -21.7770   20.1720 C   0  0  0  0  0  2  0  0  0  0  0  0
  -29.0670  -23.3670   20.5420 C   0  0  0  0  0  3  0  0  0  0  0  0
  -28.0850  -24.7260   20.2470 C   0  0  0  0  0  3  0  0  0  0  0  0
  -28.3470  -26.2540   20.4690 O   0  0  0  0  0  0  0  0  0  0  0  0
  -24.6690  -31.9930   23.3140 C   0  0  0  0  0  0  0  0  0  0  0  0
  -27.2940  -27.2430   20.3700 C   0  0  0  0  0  0  0  0  0  0  0  0
  -23.4900  -30.5670   21.6880 C   0  0  0  0  0  3  0  0  0  0  0  0
  -24.9570  -28.9820   20.2930 C   0  0  0  0  0  0  0  0  0  0  0  0
  -26.0440  -30.8440   21.5370 C   0  0  0  0  0  2  0  0  0  0  0  0
  -26.1300  -29.4420   20.9040 C   0  0  0  0  0  0  0  0  0  0  0  0
  -27.2990  -28.5890   20.9250 C   0  0  0  0  0  3  0  0  0  0  0  0
  -26.0950  -26.8900   19.7130 C   0  0  0  0  0  3  0  0  0  0  0  0
  -24.9530  -27.7210   19.6800 C   0  0  0  0  0  3  0  0  0  0  0  0
  -23.7240  -29.8720   20.3200 C   0  0  0  0  0  2  0  0  0  0  0  0
  -24.7540  -31.1570   22.2340 N   0  0  0  0  0  0  0  0  0  0  0  0
  -23.5780  -32.2790   23.8300 O   0  0  0  0  0  0  0  0  0  0  0  0
  -22.8110  -29.5690   22.6590 C   0  0  0  0  0  0  0  0  0  0  0  0
  -21.4890  -29.3680   22.5100 N   0  0  0  0  0  0  0  0  0  0  0  0
  -23.4770  -28.9770   23.5130 O   0  0  0  0  0  0  0  0  0  0  0  0
  -21.0070  -29.8980   21.7960 H   0  0  0  0  0  0  0  0  0  0  0  0
  -18.1280  -28.0910   22.9540 C   0  0  0  0  0  0  0  0  0  0  0  0
  -20.6700  -28.4340   23.2870 C   0  0  0  0  0  3  0  0  0  0  0  0
  -20.8270  -26.9870   22.7640 C   0  0  0  0  0  2  0  0  0  0  0  0
  -19.7660  -26.6000   21.7290 C   0  0  0  0  0  2  0  0  0  0  0  0
  -18.3620  -26.7260   22.3270 C   0  0  0  0  0  2  0  0  0  0  0  0
  -19.2110  -28.8990   23.3900 C   0  0  0  0  0  0  0  0  0  0  0  0
  -18.9380  -30.1710   23.9360 C   0  0  0  0  0  3  0  0  0  0  0  0
  -17.6160  -30.6380   24.0500 C   0  0  0  0  0  3  0  0  0  0  0  0
  -16.5460  -29.8280   23.6290 C   0  0  0  0  0  3  0  0  0  0  0  0
  -16.8030  -28.5570   23.0870 C   0  0  0  0  0  3  0  0  0  0  0  0
  -25.9380  -32.6470   23.9390 C   0  0  0  0  0  3  0  0  0  0  0  0
  -26.4470  -31.8980   25.2320 C   0  0  1  0  0  0  0  0  0  0  0  0
  -25.3430  -31.6560   26.2880 C   0  0  0  0  0  1  0  0  0  0  0  0
  -27.0560  -30.5250   24.8690 C   0  0  0  0  0  1  0  0  0  0  0  0
  -27.5770  -32.7170   25.9010 C   0  0  0  0  0  1  0  0  0  0  0  0
  -25.6120  -34.0470   24.2550 N   0  0  0  0  0  0  0  0  0  0  0  0
  -25.9200  -35.0970   23.4820 C   0  0  0  0  0  0  0  0  0  0  0  0
  -26.5750  -34.9900   22.4420 O   0  0  0  0  0  0  0  0  0  0  0  0
  -25.0270  -34.2030   25.0630 H   0  0  0  0  0  0  0  0  0  0  0  0
  -24.1540  -36.8620   23.1520 C   0  0  0  0  0  1  0  0  0  0  0  0
  -25.4250  -36.4870   23.9330 C   0  0  0  0  0  3  0  0  0  0  0  0
  -27.5650  -37.4210   24.6930 C   0  0  0  0  0  1  0  0  0  0  0  0
  -26.4370  -37.5530   23.7750 N   0  0  0  0  0  0  0  0  0  0  0  0
  -26.0200  -38.4700   23.9150 H   0  0  0  0  0  0  0  0  0  0  0  0
  1  4  2  0
  1  5  1  0
  2  6  1  0
  2  7  1  0
  3  1  1  0
  4  2  1  0
  5  6  1  0
  6 11  1  0
  7  8  1  0
 11  9  1  1
 11 10  1  0
 12 11  1  0
 13 18  1  0
 14 15  1  0
 14 13  1  0
 16 15  1  0
 16 23  1  0
 16 17  1  0
 18 12  1  0
 18 17  1  0
 19 12  2  0
 20 21  2  0
 21 40  1  0
 22 21  1  0
 22 25  1  0
 23 24  1  0
 23 20  1  0
 24 22  2  0
 25 26  1  0
 26 27  2  0
 28 31  1  0
 28 27  1  0
 29 28  2  0
 30 29  1  0
 30 25  2  0
 31 32  1  0
 32 33  1  0
 33 34  2  0
 35 34  1  0
 35 39  1  0
 36 35  2  0
 37 32  2  0
 37 36  1  0
 38 37  1  0
 40 41  1  0
 41 44  1  0
 41 43  1  0
 42 40  2  0
 45 46  1  0
 45 20  1  0
 47 45  1  0
 48  7  1  0
 48 49  1  0
 50 51  1  0
 50 49  2  0
 52 63  2  0
 53 51  1  0
 53 58  1  0
 54 62  1  0
 54 64  1  0
 55 61  1  0
 55 57  1  0
 56 62  1  0
 57 58  2  0
 57 56  1  0
 59 53  2  0
 60 59  1  0
 60 55  2  0
 61 54  1  0
 62 52  1  0
 64 66  2  0
 65 64  1  0
 67 65  1  0
 68 77  2  0
 68 73  1  0
 69 65  1  0
 69 73  1  0
 70 69  1  0
 71 72  1  0
 71 70  1  0
 72 68  1  0
 73 74  2  0
 74 75  1  0
 76 75  2  0
 77 76  1  0
 78 52  1  0
 78 83  1  0
 78 79  1  0
 79 82  1  1
 79 80  1  0
 81 79  1  0
 83 86  1  0
 84 88  1  0
 84 83  1  0
 85 84  2  0
 88 87  1  0
 90 91  1  0
 90 88  1  0
 90 89  1  0
M  ISO  4  11 100  12 100  50 101  51 101
M  END
>  <TORSDO>  (12) 
F 20

>  <SCORE>  (12) 
-13.200

>  <name>  (12) 
11

>  <ligand_id>  (12) 
11

>  <original_smiles>  (12) 
[H]c1c([H])c([H])c2c(c1[H])C([H])([H])C([H])([H])C([H])([H])C2([H])N([H])C(=O)C1([H])N(C(=O)C([H])(N([H])C(=O)C([H])(N([H])C([H])([H])[H])C([H])([H])[H])C(C([H])([H])[H])(C([H])([H])[H])C([H])([H])[H])C([H])([H])c2c([H])c(OC([H])([H])C([H])([H])C([H])([H])N([H])c3nc(C([H])([H])[H])nn3C(C(=O)N3C([H])([H])C([H])([H])C([H])([H])C([H])(n4nc(-c5c([H])c([H])c(Oc6c([H])c([H])c(F)c([H])c6F)c([H])c5[H])c(C(=O)N([H])[H])c4N([H])[H])C3([H])[H])(C([H])([H])[H])C([H])([H])[H])c([H])c([H])c2C1([H])[H]

>  <smiles>  (12) 
[H]c1c([H])c([H])c2c(c1[H])C([H])([H])C([H])([H])C([H])([H])C2([H])N([H])C(=O)C1([H])N(C(=O)C([H])(N([H])C(=O)C([H])(N([H])C([H])([H])[H])C([H])([H])[H])C(C([H])([H])[H])(C([H])([H])[H])C([H])([H])[H])C([H])([H])c2c([H])c(OC([H])([H])C([H])([H])C([H])([H])N([H])c3nc(C([H])([H])[H])nn3C(C(=O)N3C([H])([H])C([H])([H])C([H])([H])C([H])(n4nc(-c5c([H])c([H])c(Oc6c([H])c([H])c(F)c([H])c6F)c([H])c5[H])c(C(=O)N([H])[H])c4N([H])[H])C3([H])[H])(C([H])([H])[H])C([H])([H])[H])c([H])c([H])c2C1([H])[H]

$$$$
12:0:0
     RDKit          3D

 91 99  0  0  1  0  0  0  0  0999 V2000
  -30.0770  -20.4960   19.8490 C   0  0  0  0  0  3  0  0  0  0  0  0
  -29.5950  -19.1720   19.6430 C   0  0  0  0  0  0  0  0  0  0  0  0
  -28.2370  -19.5620   19.3200 C   0  0  0  0  0  0  0  0  0  0  0  0
  -27.9880  -20.9160   19.3570 N   0  0  0  0  0  0  0  0  0  0  0  0
  -29.1320  -21.5810   19.6770 N   0  0  0  0  0  0  0  0  0  0  0  0
  -27.0860  -18.6260   18.9890 C   0  0  1  0  0  0  0  0  0  0  0  0
  -27.5220  -17.3760   18.8190 F   0  0  0  0  0  0  0  0  0  0  0  0
  -26.1960  -18.6330   19.9820 F   0  0  0  0  0  0  0  0  0  0  0  0
  -26.4800  -19.0150   17.8660 F   0  0  0  0  0  0  0  0  0  0  0  0
  -30.4050  -17.6980   19.7950 C   0  0  0  0  0  2  0  0  0  0  0  0
  -30.6220  -14.9540   19.8560 C   0  0  0  0  0  0  0  0  0  0  0  0
  -30.3910  -12.5800   18.9760 C   0  0  0  0  0  2  0  0  0  0  0  0
  -29.3890  -12.5160   17.8010 C   0  0  0  0  0  2  0  0  0  0  0  0
  -27.9530  -12.3340   18.3250 C   0  0  0  0  0  2  0  0  0  0  0  0
  -27.6290  -13.2890   19.5030 C   0  0  0  0  0  3  0  0  0  0  0  0
  -28.7500  -13.3260   20.5630 C   0  0  0  0  0  2  0  0  0  0  0  0
  -29.9830  -13.7100   19.8650 N   0  0  0  0  0  0  0  0  0  0  0  0
  -31.8100  -14.9530   19.5160 O   0  0  0  0  0  0  0  0  0  0  0  0
  -29.9180  -16.1950   20.0120 N   0  0  0  0  0  0  0  0  0  0  0  0
  -28.9430  -16.0970   20.2540 H   0  0  0  0  0  0  0  0  0  0  0  0
  -25.3260  -13.9180   20.4190 C   0  0  0  0  0  0  0  0  0  0  0  0
  -24.2640  -13.1680   20.8400 C   0  0  0  0  0  0  0  0  0  0  0  0
  -24.6810  -11.8050   20.7460 C   0  0  0  0  0  0  0  0  0  0  0  0
  -26.3210  -13.0150   20.0870 N   0  0  0  0  0  0  0  0  0  0  0  0
  -25.9460  -11.7350   20.3490 N   0  0  0  0  0  0  0  0  0  0  0  0
  -23.9240  -10.5640   20.9510 C   0  0  0  0  0  0  0  0  0  0  0  0
  -24.3640   -9.5680   21.8490 C   0  0  0  0  0  3  0  0  0  0  0  0
  -23.6060   -8.3930   22.0450 C   0  0  0  0  0  3  0  0  0  0  0  0
  -22.3930   -8.2060   21.3410 C   0  0  0  0  0  0  0  0  0  0  0  0
  -21.9690   -9.1900   20.4300 C   0  0  0  0  0  3  0  0  0  0  0  0
  -22.7280  -10.3560   20.2330 C   0  0  0  0  0  3  0  0  0  0  0  0
  -21.6040   -7.0860   21.4490 O   0  0  0  0  0  0  0  0  0  0  0  0
  -21.5530   -6.3490   22.6040 C   0  0  0  0  0  0  0  0  0  0  0  0
  -21.1730   -6.9230   23.8370 C   0  0  0  0  0  3  0  0  0  0  0  0
  -21.0680   -6.1140   24.9870 C   0  0  0  0  0  3  0  0  0  0  0  0
  -21.3320   -4.7330   24.9040 C   0  0  0  0  0  0  0  0  0  0  0  0
  -21.7060   -4.1610   23.6760 C   0  0  0  0  0  3  0  0  0  0  0  0
  -21.8130   -4.9660   22.5280 C   0  0  0  0  0  0  0  0  0  0  0  0
  -22.1530   -4.4050   21.3430 F   0  0  0  0  0  0  0  0  0  0  0  0
  -21.2230   -3.9540   26.0060 F   0  0  0  0  0  0  0  0  0  0  0  0
  -22.9060  -13.6860   21.2150 C   0  0  0  0  0  0  0  0  0  0  0  0
  -22.2170  -12.9990   22.1190 N   0  0  0  0  0  0  0  0  0  0  0  0
  -22.4710  -14.7350   20.7420 O   0  0  0  0  0  0  0  0  0  0  0  0
  -22.5850  -12.1500   22.5210 H   0  0  0  0  0  0  0  0  0  0  0  0
  -21.3080  -13.3280   22.4140 H   0  0  0  0  0  0  0  0  0  0  0  0
  -25.5180  -15.2860   20.2630 N   0  0  0  0  0  0  0  0  0  0  0  0
  -24.7740  -15.9520   20.4370 H   0  0  0  0  0  0  0  0  0  0  0  0
  -26.3610  -15.7190   19.9120 H   0  0  0  0  0  0  0  0  0  0  0  0
  -29.2890  -23.1650   19.9010 C   0  0  0  0  0  3  0  0  0  0  0  0
  -28.2020  -24.4990   19.7670 C   0  0  0  0  0  3  0  0  0  0  0  0
  -28.3110  -26.0560   20.0040 O   0  0  0  0  0  0  0  0  0  0  0  0
  -24.5010  -31.6120   23.0570 C   0  0  0  0  0  0  0  0  0  0  0  0
  -27.2170  -27.0050   19.9590 C   0  0  0  0  0  0  0  0  0  0  0  0
  -23.3540  -30.2300   21.3680 C   0  0  0  0  0  3  0  0  0  0  0  0
  -24.8530  -28.7110   19.9290 C   0  0  0  0  0  0  0  0  0  0  0  0
  -25.9040  -30.5470   21.2440 C   0  0  0  0  0  2  0  0  0  0  0  0
  -26.0150  -29.1690   20.5620 C   0  0  0  0  0  0  0  0  0  0  0  0
  -27.1980  -28.3350   20.5530 C   0  0  0  0  0  3  0  0  0  0  0  0
  -26.0260  -26.6450   19.2970 C   0  0  0  0  0  3  0  0  0  0  0  0
  -24.8730  -27.4650   19.2800 C   0  0  0  0  0  3  0  0  0  0  0  0
  -23.6080  -29.5860   19.9780 C   0  0  0  0  0  2  0  0  0  0  0  0
  -24.6060  -30.8180   21.9450 N   0  0  0  0  0  0  0  0  0  0  0  0
  -23.4030  -31.8610   23.5760 O   0  0  0  0  0  0  0  0  0  0  0  0
  -22.6820  -29.1890   22.2980 C   0  0  0  0  0  0  0  0  0  0  0  0
  -21.3550  -29.0160   22.1690 N   0  0  0  0  0  0  0  0  0  0  0  0
  -23.3580  -28.5410   23.1000 O   0  0  0  0  0  0  0  0  0  0  0  0
  -20.8660  -29.5920   21.4990 H   0  0  0  0  0  0  0  0  0  0  0  0
  -17.9760  -27.8070   22.6690 C   0  0  0  0  0  0  0  0  0  0  0  0
  -20.5390  -28.0480   22.9080 C   0  0  0  0  0  3  0  0  0  0  0  0
  -20.6260  -26.6430   22.2690 C   0  0  0  0  0  2  0  0  0  0  0  0
  -19.5080  -26.3700   21.2580 C   0  0  0  0  0  2  0  0  0  0  0  0
  -18.1370  -26.4900   21.9290 C   0  0  0  0  0  2  0  0  0  0  0  0
  -19.1030  -28.5450   23.1160 C   0  0  0  0  0  0  0  0  0  0  0  0
  -18.8980  -29.7790   23.7720 C   0  0  0  0  0  3  0  0  0  0  0  0
  -17.5980  -30.2740   23.9830 C   0  0  0  0  0  3  0  0  0  0  0  0
  -16.4840  -29.5320   23.5520 C   0  0  0  0  0  3  0  0  0  0  0  0
  -16.6740  -28.3000   22.9000 C   0  0  0  0  0  3  0  0  0  0  0  0
  -25.7560  -32.2590   23.7180 C   0  0  0  0  0  3  0  0  0  0  0  0
  -26.2590  -31.4760   24.9930 C   0  0  1  0  0  0  0  0  0  0  0  0
  -25.1500  -31.2070   26.0380 C   0  0  0  0  0  1  0  0  0  0  0  0
  -26.8700  -30.1120   24.5960 C   0  0  0  0  0  1  0  0  0  0  0  0
  -27.3870  -32.2760   25.6880 C   0  0  0  0  0  1  0  0  0  0  0  0
  -25.4130  -33.6450   24.0730 N   0  0  0  0  0  0  0  0  0  0  0  0
  -25.7340  -34.7240   23.3470 C   0  0  0  0  0  0  0  0  0  0  0  0
  -26.4160  -34.6580   22.3210 O   0  0  0  0  0  0  0  0  0  0  0  0
  -24.8070  -33.7690   24.8710 H   0  0  0  0  0  0  0  0  0  0  0  0
  -23.9710  -36.4940   23.0280 C   0  0  0  0  0  1  0  0  0  0  0  0
  -25.2170  -36.0930   23.8340 C   0  0  0  0  0  3  0  0  0  0  0  0
  -27.3300  -37.0040   24.6930 C   0  0  0  0  0  1  0  0  0  0  0  0
  -26.2290  -37.1700   23.7480 N   0  0  0  0  0  0  0  0  0  0  0  0
  -25.8030  -38.0780   23.9120 H   0  0  0  0  0  0  0  0  0  0  0  0
  2 10  1  0
  2  1  2  0
  3  4  2  0
  3  2  1  0
  4  5  1  0
  5  1  1  0
  5 49  1  0
  6  3  1  0
  6  8  1  1
  7  6  1  0
  9  6  1  0
 10 19  1  0
 11 17  1  0
 11 19  1  0
 12 17  1  0
 13 14  1  0
 13 12  1  0
 15 14  1  0
 15 24  1  0
 15 16  1  0
 17 16  1  0
 18 11  2  0
 19 20  1  0
 21 22  2  0
 22 41  1  0
 23 22  1  0
 23 26  1  0
 24 25  1  0
 24 21  1  0
 25 23  2  0
 26 27  1  0
 27 28  2  0
 29 32  1  0
 29 28  1  0
 30 29  2  0
 31 30  1  0
 31 26  2  0
 32 33  1  0
 33 34  1  0
 34 35  2  0
 36 35  1  0
 36 40  1  0
 37 36  2  0
 38 33  2  0
 38 37  1  0
 39 38  1  0
 41 42  1  0
 42 45  1  0
 42 44  1  0
 43 41  2  0
 46 21  1  0
 46 47  1  0
 48 46  1  0
 50 49  2  0
 50 51  1  0
 52 63  2  0
 53 51  1  0
 53 58  1  0
 54 62  1  0
 54 64  1  0
 55 61  1  0
 55 57  1  0
 56 62  1  0
 57 56  1  0
 58 57  2  0
 59 53  2  0
 60 59  1  0
 60 55  2  0
 61 54  1  0
 62 52  1  0
 64 66  2  0
 65 64  1  0
 67 65  1  0
 68 77  2  0
 68 73  1  0
 69 65  1  0
 69 73  1  0
 70 69  1  0
 71 72  1  0
 71 70  1  0
 72 68  1  0
 73 74  2  0
 74 75  1  0
 76 75  2  0
 77 76  1  0
 78 52  1  0
 78 83  1  0
 78 79  1  0
 79 82  1  1
 79 80  1  0
 81 79  1  0
 83 86  1  0
 84 88  1  0
 84 83  1  0
 85 84  2  0
 88 87  1  0
 90 88  1  0
 90 91  1  0
 90 89  1  0
M  ISO  4  11 100  19 100  50 101  51 101
M  END
>  <TORSDO>  (13) 
F 20

>  <SCORE>  (13) 
-13.874

>  <name>  (13) 
12

>  <ligand_id>  (13) 
12

>  <original_smiles>  (13) 
[H]c1c([H])c([H])c2c(c1[H])C([H])([H])C([H])([H])C([H])([H])C2([H])N([H])C(=O)C1([H])N(C(=O)C([H])(N([H])C(=O)C([H])(N([H])C([H])([H])[H])C([H])([H])[H])C(C([H])([H])[H])(C([H])([H])[H])C([H])([H])[H])C([H])([H])c2c([H])c(OC([H])([H])C([H])([H])n3nc(C(F)(F)F)c(C([H])([H])N([H])C(=O)N4C([H])([H])C([H])([H])C([H])([H])C([H])(n5nc(-c6c([H])c([H])c(Oc7c([H])c([H])c(F)c([H])c7F)c([H])c6[H])c(C(=O)N([H])[H])c5N([H])[H])C4([H])[H])c3[H])c([H])c([H])c2C1([H])[H]

>  <smiles>  (13) 
[H]c1c([H])c([H])c2c(c1[H])C([H])([H])C([H])([H])C([H])([H])C2([H])N([H])C(=O)C1([H])N(C(=O)C([H])(N([H])C(=O)C([H])(N([H])C([H])([H])[H])C([H])([H])[H])C(C([H])([H])[H])(C([H])([H])[H])C([H])([H])[H])C([H])([H])c2c([H])c(OC([H])([H])C([H])([H])n3nc(C(F)(F)F)c(C([H])([H])N([H])C(=O)N4C([H])([H])C([H])([H])C([H])([H])C([H])(n5nc(-c6c([H])c([H])c(Oc7c([H])c([H])c(F)c([H])c7F)c([H])c6[H])c(C(=O)N([H])[H])c5N([H])[H])C4([H])[H])c3[H])c([H])c([H])c2C1([H])[H]

$$$$
13:0:0
     RDKit          3D

 98106  0  0  1  0  0  0  0  0999 V2000
  -28.8540  -17.9350   21.1280 C   0  0  0  0  0  3  0  0  0  0  0  0
  -28.3600  -19.2380   20.9740 C   0  0  0  0  0  3  0  0  0  0  0  0
  -30.2120  -17.6730   20.8490 C   0  0  0  0  0  0  0  0  0  0  0  0
  -29.2460  -20.2580   20.5910 C   0  0  0  0  0  0  0  0  0  0  0  0
  -31.0520  -18.7760   20.5310 C   0  0  0  0  0  0  0  0  0  0  0  0
  -30.5600  -20.0370   20.4050 N   0  0  0  0  0  0  0  0  0  0  0  0
  -32.5610  -18.6220   20.2720 C   0  0  1  0  0  0  0  0  0  0  0  0
  -32.7600  -17.9610   19.1300 F   0  0  0  0  0  0  0  0  0  0  0  0
  -33.1710  -19.8060   20.1690 F   0  0  0  0  0  0  0  0  0  0  0  0
  -33.1440  -17.9560   21.2730 F   0  0  0  0  0  0  0  0  0  0  0  0
  -30.7170  -16.2200   20.8640 C   0  0  0  0  0  2  0  0  0  0  0  0
  -31.4030  -14.3640   19.4310 C   0  0  0  0  0  0  0  0  0  0  0  0
  -31.0770  -11.9610   18.9850 C   0  0  0  0  0  2  0  0  0  0  0  0
  -30.0960  -11.7950   17.8070 C   0  0  0  0  0  2  0  0  0  0  0  0
  -28.6440  -11.7630   18.3290 C   0  0  0  0  0  2  0  0  0  0  0  0
  -28.3300  -12.9380   19.2960 C   0  0  0  0  0  3  0  0  0  0  0  0
  -29.4340  -13.0760   20.3650 C   0  0  0  0  0  2  0  0  0  0  0  0
  -30.7290  -13.2090   19.6810 N   0  0  0  0  0  0  0  0  0  0  0  0
  -32.4860  -14.3830   18.8360 O   0  0  0  0  0  0  0  0  0  0  0  0
  -30.6000  -16.3650   18.3640 C   0  0  0  0  0  1  0  0  0  0  0  0
  -30.6860  -15.5080   19.5660 N   0  0  0  0  0  0  0  0  0  0  0  0
  -26.1310  -13.7870   20.3340 C   0  0  0  0  0  0  0  0  0  0  0  0
  -25.0160  -13.1300   20.7790 C   0  0  0  0  0  0  0  0  0  0  0  0
  -25.2830  -11.7380   20.6020 C   0  0  0  0  0  0  0  0  0  0  0  0
  -27.0120  -12.8020   19.9130 N   0  0  0  0  0  0  0  0  0  0  0  0
  -26.5110  -11.5610   20.1340 N   0  0  0  0  0  0  0  0  0  0  0  0
  -24.4180  -10.5660   20.7960 C   0  0  0  0  0  0  0  0  0  0  0  0
  -24.7460   -9.5520   21.7220 C   0  0  0  0  0  3  0  0  0  0  0  0
  -23.8920   -8.4420   21.9030 C   0  0  0  0  0  3  0  0  0  0  0  0
  -22.6930   -8.3410   21.1580 C   0  0  0  0  0  0  0  0  0  0  0  0
  -22.3800   -9.3430   20.2210 C   0  0  0  0  0  3  0  0  0  0  0  0
  -23.2350  -10.4440   20.0390 C   0  0  0  0  0  3  0  0  0  0  0  0
  -21.8180   -7.2850   21.2470 O   0  0  0  0  0  0  0  0  0  0  0  0
  -21.6290   -6.6030   22.4230 C   0  0  0  0  0  0  0  0  0  0  0  0
  -21.1450   -7.2400   23.5850 C   0  0  0  0  0  3  0  0  0  0  0  0
  -20.9020   -6.4890   24.7510 C   0  0  0  0  0  3  0  0  0  0  0  0
  -21.1300   -5.0990   24.7540 C   0  0  0  0  0  0  0  0  0  0  0  0
  -21.6040   -4.4610   23.5930 C   0  0  0  0  0  3  0  0  0  0  0  0
  -21.8500   -5.2110   22.4300 C   0  0  0  0  0  0  0  0  0  0  0  0
  -22.2890   -4.5880   21.3090 F   0  0  0  0  0  0  0  0  0  0  0  0
  -20.8890   -4.3740   25.8690 F   0  0  0  0  0  0  0  0  0  0  0  0
  -23.7340  -13.7580   21.2450 C   0  0  0  0  0  0  0  0  0  0  0  0
  -23.0260  -13.1060   22.1610 N   0  0  0  0  0  0  0  0  0  0  0  0
  -23.3720  -14.8570   20.8280 O   0  0  0  0  0  0  0  0  0  0  0  0
  -23.3290  -12.2160   22.5260 H   0  0  0  0  0  0  0  0  0  0  0  0
  -22.1660  -13.5090   22.5040 H   0  0  0  0  0  0  0  0  0  0  0  0
  -26.4590  -15.1360   20.2260 N   0  0  0  0  0  0  0  0  0  0  0  0
  -25.8000  -15.8680   20.4620 H   0  0  0  0  0  0  0  0  0  0  0  0
  -27.2980  -15.4820   19.7790 H   0  0  0  0  0  0  0  0  0  0  0  0
  -28.7590  -21.6750   20.3370 C   0  0  0  0  0  2  0  0  0  0  0  0
  -28.9310  -22.0910   18.8630 C   0  0  0  0  0  2  0  0  0  0  0  0
  -28.8040  -23.6190   18.6180 C   0  0  0  0  0  2  0  0  0  0  0  0
  -26.4820  -23.1330   17.9060 C   0  0  0  0  0  1  0  0  0  0  0  0
  -27.6620  -24.0200   17.7450 N   0  0  2  0  0  4  0  0  0  0  0  0
  -27.3760  -24.9240   18.0960 H   0  0  0  0  0  0  0  0  0  0  0  0
  -28.0560  -24.2660   16.3310 C   0  0  0  0  0  2  0  0  0  0  0  0
  -27.5610  -25.6120   15.7550 C   0  0  0  0  0  2  0  0  0  0  0  0
  -27.8060  -26.6990   16.6550 O   0  0  0  0  0  0  0  0  0  0  0  0
  -25.5030  -29.0020   22.9470 C   0  0  0  0  0  0  0  0  0  0  0  0
  -26.7810  -27.3640   17.3000 C   0  0  0  0  0  0  0  0  0  0  0  0
  -23.8690  -29.1770   21.0960 C   0  0  0  0  0  3  0  0  0  0  0  0
  -24.8000  -28.7690   18.7590 C   0  0  0  0  0  0  0  0  0  0  0  0
  -26.3820  -29.2690   20.6290 C   0  0  0  0  0  2  0  0  0  0  0  0
  -26.0920  -28.6400   19.2800 C   0  0  0  0  0  0  0  0  0  0  0  0
  -27.0790  -27.9410   18.5570 C   0  0  0  0  0  3  0  0  0  0  0  0
  -25.4660  -27.5010   16.7950 C   0  0  0  0  0  3  0  0  0  0  0  0
  -24.4800  -28.1940   17.5190 C   0  0  0  0  0  3  0  0  0  0  0  0
  -23.7990  -29.5400   19.5880 C   0  0  0  0  0  2  0  0  0  0  0  0
  -25.2780  -29.1190   21.6070 N   0  0  0  0  0  0  0  0  0  0  0  0
  -24.5650  -28.9860   23.7530 O   0  0  0  0  0  0  0  0  0  0  0  0
  -23.0780  -27.8700   21.3240 C   0  0  0  0  0  0  0  0  0  0  0  0
  -21.7410  -27.9590   21.2400 N   0  0  0  0  0  0  0  0  0  0  0  0
  -23.6640  -26.8060   21.5400 O   0  0  0  0  0  0  0  0  0  0  0  0
  -21.3380  -28.8670   21.0540 H   0  0  0  0  0  0  0  0  0  0  0  0
  -18.2410  -27.0850   21.0560 C   0  0  0  0  0  0  0  0  0  0  0  0
  -20.7940  -26.8530   21.3820 C   0  0  0  0  0  3  0  0  0  0  0  0
  -20.7760  -25.9690   20.1140 C   0  0  0  0  0  2  0  0  0  0  0  0
  -19.6980  -26.3830   19.1060 C   0  0  0  0  0  2  0  0  0  0  0  0
  -18.3080  -26.3200   19.7450 C   0  0  0  0  0  2  0  0  0  0  0  0
  -19.4120  -27.3510   21.8160 C   0  0  0  0  0  0  0  0  0  0  0  0
  -19.2990  -28.0990   23.0070 C   0  0  0  0  0  3  0  0  0  0  0  0
  -18.0480  -28.5750   23.4440 C   0  0  0  0  0  3  0  0  0  0  0  0
  -16.8910  -28.2950   22.6970 C   0  0  0  0  0  3  0  0  0  0  0  0
  -16.9890  -27.5480   21.5090 C   0  0  0  0  0  3  0  0  0  0  0  0
  -26.9480  -28.9040   23.5290 C   0  0  0  0  0  3  0  0  0  0  0  0
  -27.3960  -27.4220   23.8340 C   0  0  1  0  0  0  0  0  0  0  0  0
  -26.3840  -26.6350   24.6990 C   0  0  0  0  0  1  0  0  0  0  0  0
  -27.6090  -26.6360   22.5190 C   0  0  0  0  0  1  0  0  0  0  0  0
  -28.7540  -27.4260   24.5750 C   0  0  0  0  0  1  0  0  0  0  0  0
  -26.9900  -29.7220   24.7480 N   0  0  0  0  0  0  0  0  0  0  0  0
  -27.5860  -30.9180   24.8390 C   0  0  0  0  0  0  0  0  0  0  0  0
  -28.2260  -31.4200   23.9100 O   0  0  0  0  0  0  0  0  0  0  0  0
  -26.4380  -29.4000   25.5290 H   0  0  0  0  0  0  0  0  0  0  0  0
  -26.4310  -32.8200   26.0090 C   0  0  0  0  0  1  0  0  0  0  0  0
  -27.4490  -31.6800   26.1710 C   0  0  0  0  0  3  0  0  0  0  0  0
  -29.6610  -31.1870   27.1150 C   0  0  0  0  0  1  0  0  0  0  0  0
  -28.7300  -32.2220   26.6710 N   0  0  0  0  0  0  0  0  0  0  0  0
  -28.5720  -32.8590   27.4470 H   0  0  0  0  0  0  0  0  0  0  0  0
  2  1  1  0
  3 11  1  0
  3  1  2  0
  4  2  2  0
  5  3  1  0
  6  5  2  0
  6  4  1  0
  7  5  1  0
  7 10  1  1
  8  7  1  0
  9  7  1  0
 12 21  1  0
 12 18  1  0
 13 18  1  0
 14 15  1  0
 14 13  1  0
 16 15  1  0
 16 25  1  0
 16 17  1  0
 18 17  1  0
 19 12  2  0
 20 21  1  0
 21 11  1  0
 22 23  2  0
 23 42  1  0
 24 23  1  0
 24 27  1  0
 25 26  1  0
 25 22  1  0
 26 24  2  0
 27 28  1  0
 28 29  2  0
 30 33  1  0
 30 29  1  0
 31 30  2  0
 32 31  1  0
 32 27  2  0
 33 34  1  0
 34 39  2  0
 34 35  1  0
 35 36  2  0
 36 37  1  0
 37 41  1  0
 38 37  2  0
 39 38  1  0
 40 39  1  0
 42 43  1  0
 43 46  1  0
 43 45  1  0
 44 42  2  0
 47 22  1  0
 47 48  1  0
 49 47  1  0
 50  4  1  0
 51 50  1  0
 52 51  1  0
 54 53  1  0
 54 55  1  1
 54 52  1  0
 56 54  1  0
 57 56  1  0
 57 58  1  0
 58 60  1  0
 59 70  2  0
 60 65  1  0
 61 71  1  0
 61 69  1  0
 62 64  1  0
 62 68  1  0
 63 69  1  0
 64 63  1  0
 65 64  2  0
 66 60  2  0
 66 67  1  0
 67 62  2  0
 68 61  1  0
 69 59  1  0
 71 73  2  0
 72 71  1  0
 74 72  1  0
 75 84  2  0
 75 80  1  0
 76 72  1  0
 76 80  1  0
 77 76  1  0
 78 79  1  0
 78 77  1  0
 79 75  1  0
 80 81  2  0
 81 82  1  0
 83 82  2  0
 84 83  1  0
 85 59  1  0
 85 86  1  0
 85 90  1  0
 86 89  1  1
 86 87  1  0
 88 86  1  0
 90 91  1  0
 90 93  1  0
 91 95  1  0
 92 91  2  0
 95 94  1  0
 95 97  1  0
 97 96  1  0
 97 98  1  0
M  ISO  4  12 100  21 100  57 101  58 101
M  END
>  <TORSDO>  (14) 
F 24

>  <SCORE>  (14) 
-8.608

>  <name>  (14) 
13

>  <ligand_id>  (14) 
13

>  <original_smiles>  (14) 
[H]c1c(C([H])([H])C([H])([H])C([H])([H])[N+]([H])(C([H])([H])[H])C([H])([H])C([H])([H])Oc2c([H])c([H])c3c(c2[H])C([H])([H])N(C(=O)C([H])(N([H])C(=O)C([H])(N([H])C([H])([H])[H])C([H])([H])[H])C(C([H])([H])[H])(C([H])([H])[H])C([H])([H])[H])C([H])(C(=O)N([H])C2([H])c4c([H])c([H])c([H])c([H])c4C([H])([H])C([H])([H])C2([H])[H])C3([H])[H])nc(C(F)(F)F)c(C([H])([H])N(C(=O)N2C([H])([H])C([H])([H])C([H])([H])C([H])(n3nc(-c4c([H])c([H])c(Oc5c([H])c([H])c(F)c([H])c5F)c([H])c4[H])c(C(=O)N([H])[H])c3N([H])[H])C2([H])[H])C([H])([H])[H])c1[H]

>  <smiles>  (14) 
[H]c1c(C([H])([H])C([H])([H])C([H])([H])[N+]([H])(C([H])([H])[H])C([H])([H])C([H])([H])Oc2c([H])c([H])c3c(c2[H])C([H])([H])N(C(=O)C([H])(N([H])C(=O)C([H])(N([H])C([H])([H])[H])C([H])([H])[H])C(C([H])([H])[H])(C([H])([H])[H])C([H])([H])[H])C([H])(C(=O)N([H])C2([H])c4c([H])c([H])c([H])c([H])c4C([H])([H])C([H])([H])C2([H])[H])C3([H])[H])nc(C(F)(F)F)c(C([H])([H])N(C(=O)N2C([H])([H])C([H])([H])C([H])([H])C([H])(n3nc(-c4c([H])c([H])c(Oc5c([H])c([H])c(F)c([H])c5F)c([H])c4[H])c(C(=O)N([H])[H])c3N([H])[H])C2([H])[H])C([H])([H])[H])c1[H]

$$$$
14:0:0
     RDKit          3D

 93101  0  0  1  0  0  0  0  0999 V2000
  -30.6350  -23.2590   18.0160 C   0  0  0  0  0  3  0  0  0  0  0  0
  -30.0440  -24.2860   18.7640 C   0  0  0  0  0  3  0  0  0  0  0  0
  -30.8890  -22.0100   18.6240 C   0  0  0  0  0  0  0  0  0  0  0  0
  -29.6840  -24.0540   20.0990 C   0  0  0  0  0  0  0  0  0  0  0  0
  -30.5610  -21.8310   19.9920 C   0  0  0  0  0  0  0  0  0  0  0  0
  -31.5350  -20.9130   17.7860 C   0  0  0  0  0  1  0  0  0  0  0  0
  -29.9500  -22.8420   20.6970 N   0  0  0  0  0  0  0  0  0  0  0  0
  -31.0390  -20.5500   20.7520 C   0  0  0  0  0  2  0  0  0  0  0  0
  -29.1190  -19.1750   21.4770 C   0  0  0  0  0  1  0  0  0  0  0  0
  -30.2720  -19.2660   20.5450 N   0  0  2  0  0  4  0  0  0  0  0  0
  -29.8750  -19.3550   19.6210 H   0  0  0  0  0  0  0  0  0  0  0  0
  -31.1330  -18.0170   20.5190 C   0  0  0  0  0  2  0  0  0  0  0  0
  -30.3810  -16.6260   20.6210 C   0  0  0  0  0  2  0  0  0  0  0  0
  -31.6020  -14.4120   20.0730 C   0  0  0  0  0  0  0  0  0  0  0  0
  -31.1760  -12.1720   19.1150 C   0  0  0  0  0  2  0  0  0  0  0  0
  -30.2420  -12.3180   17.8940 C   0  0  0  0  0  2  0  0  0  0  0  0
  -28.7590  -12.3400   18.3190 C   0  0  0  0  0  2  0  0  0  0  0  0
  -28.4770  -13.2670   19.5360 C   0  0  0  0  0  3  0  0  0  0  0  0
  -29.5330  -13.0890   20.6510 C   0  0  0  0  0  2  0  0  0  0  0  0
  -30.8550  -13.2710   20.0430 N   0  0  0  0  0  0  0  0  0  0  0  0
  -32.8100  -14.3920   19.8170 O   0  0  0  0  0  0  0  0  0  0  0  0
  -30.9860  -15.9960   18.3390 C   0  0  0  0  0  1  0  0  0  0  0  0
  -30.9120  -15.5480   19.7400 N   0  0  0  0  0  0  0  0  0  0  0  0
  -26.1550  -14.0620   20.3000 C   0  0  0  0  0  0  0  0  0  0  0  0
  -25.0270  -13.3840   20.6680 C   0  0  0  0  0  0  0  0  0  0  0  0
  -25.3640  -11.9960   20.6090 C   0  0  0  0  0  0  0  0  0  0  0  0
  -27.1140  -13.0970   20.0390 N   0  0  0  0  0  0  0  0  0  0  0  0
  -26.6440  -11.8470   20.2870 N   0  0  0  0  0  0  0  0  0  0  0  0
  -24.5260  -10.8020   20.7840 C   0  0  0  0  0  0  0  0  0  0  0  0
  -24.8620   -9.7980   21.7190 C   0  0  0  0  0  3  0  0  0  0  0  0
  -24.0340   -8.6680   21.8840 C   0  0  0  0  0  3  0  0  0  0  0  0
  -22.8540   -8.5340   21.1140 C   0  0  0  0  0  0  0  0  0  0  0  0
  -22.5350   -9.5250   20.1690 C   0  0  0  0  0  3  0  0  0  0  0  0
  -23.3630  -10.6480   20.0030 C   0  0  0  0  0  3  0  0  0  0  0  0
  -22.0010   -7.4600   21.1880 O   0  0  0  0  0  0  0  0  0  0  0  0
  -21.8340   -6.7500   22.3500 C   0  0  0  0  0  0  0  0  0  0  0  0
  -21.3520   -7.3560   23.5300 C   0  0  0  0  0  3  0  0  0  0  0  0
  -21.1350   -6.5770   24.6850 C   0  0  0  0  0  3  0  0  0  0  0  0
  -21.3870   -5.1930   24.6570 C   0  0  0  0  0  0  0  0  0  0  0  0
  -21.8590   -4.5840   23.4800 C   0  0  0  0  0  3  0  0  0  0  0  0
  -22.0790   -5.3620   22.3300 C   0  0  0  0  0  0  0  0  0  0  0  0
  -22.5150   -4.7700   21.1930 F   0  0  0  0  0  0  0  0  0  0  0  0
  -21.1670   -4.4420   25.7600 F   0  0  0  0  0  0  0  0  0  0  0  0
  -23.6790  -13.9800   20.9620 C   0  0  0  0  0  0  0  0  0  0  0  0
  -22.9040  -13.3490   21.8360 N   0  0  0  0  0  0  0  0  0  0  0  0
  -23.3260  -15.0430   20.4520 O   0  0  0  0  0  0  0  0  0  0  0  0
  -23.1960  -12.4880   22.2760 H   0  0  0  0  0  0  0  0  0  0  0  0
  -22.0010  -13.7370   22.0740 H   0  0  0  0  0  0  0  0  0  0  0  0
  -26.4420  -15.4160   20.1410 N   0  0  0  0  0  0  0  0  0  0  0  0
  -25.7440  -16.1400   20.2790 H   0  0  0  0  0  0  0  0  0  0  0  0
  -27.3210  -15.7730   19.7860 H   0  0  0  0  0  0  0  0  0  0  0  0
  -28.9030  -25.1570   20.8790 C   0  0  0  0  0  2  0  0  0  0  0  0
  -29.0480  -26.5550   20.4240 O   0  0  0  0  0  0  0  0  0  0  0  0
  -24.8020  -31.5830   23.3220 C   0  0  0  0  0  0  0  0  0  0  0  0
  -27.8740  -27.3040   20.3450 C   0  0  0  0  0  0  0  0  0  0  0  0
  -23.7780  -30.1440   21.5930 C   0  0  0  0  0  3  0  0  0  0  0  0
  -25.4040  -28.7200   20.2260 C   0  0  0  0  0  0  0  0  0  0  0  0
  -26.2950  -30.6410   21.5530 C   0  0  0  0  0  2  0  0  0  0  0  0
  -26.5010  -29.2890   20.8870 C   0  0  0  0  0  0  0  0  0  0  0  0
  -27.7400  -28.5930   20.9360 C   0  0  0  0  0  3  0  0  0  0  0  0
  -26.7610  -26.7790   19.6550 C   0  0  0  0  0  3  0  0  0  0  0  0
  -25.5320  -27.4650   19.6080 C   0  0  0  0  0  3  0  0  0  0  0  0
  -24.1090  -29.5060   20.2170 C   0  0  0  0  0  2  0  0  0  0  0  0
  -24.9700  -30.8090   22.2120 N   0  0  0  0  0  0  0  0  0  0  0  0
  -23.6780  -31.7760   23.8060 O   0  0  0  0  0  0  0  0  0  0  0  0
  -23.1370  -29.0680   22.5000 C   0  0  0  0  0  0  0  0  0  0  0  0
  -21.8350  -28.8020   22.2950 N   0  0  0  0  0  0  0  0  0  0  0  0
  -23.8130  -28.4740   23.3440 O   0  0  0  0  0  0  0  0  0  0  0  0
  -21.3500  -29.3340   21.5850 H   0  0  0  0  0  0  0  0  0  0  0  0
  -18.5220  -27.3830   22.5980 C   0  0  0  0  0  0  0  0  0  0  0  0
  -21.0420  -27.7980   23.0060 C   0  0  0  0  0  3  0  0  0  0  0  0
  -21.2650  -26.3890   22.4110 C   0  0  0  0  0  2  0  0  0  0  0  0
  -20.2400  -26.0190   21.3350 C   0  0  0  0  0  2  0  0  0  0  0  0
  -18.8200  -26.0620   21.9070 C   0  0  0  0  0  2  0  0  0  0  0  0
  -19.5670  -28.2050   23.0990 C   0  0  0  0  0  0  0  0  0  0  0  0
  -19.2370  -29.4390   23.7000 C   0  0  0  0  0  3  0  0  0  0  0  0
  -17.8950  -29.8520   23.8080 C   0  0  0  0  0  3  0  0  0  0  0  0
  -16.8660  -29.0260   23.3250 C   0  0  0  0  0  3  0  0  0  0  0  0
  -17.1790  -27.7940   22.7240 C   0  0  0  0  0  3  0  0  0  0  0  0
  -26.0080  -32.2820   24.0210 C   0  0  0  0  0  3  0  0  0  0  0  0
  -25.6270  -33.6790   24.2690 N   0  0  0  0  0  0  0  0  0  0  0  0
  -25.9750  -34.7150   23.4940 C   0  0  0  0  0  0  0  0  0  0  0  0
  -26.7190  -34.5960   22.5170 O   0  0  0  0  0  0  0  0  0  0  0  0
  -24.9700  -33.8370   25.0200 H   0  0  0  0  0  0  0  0  0  0  0  0
  -24.2090  -36.4220   22.9560 C   0  0  0  0  0  1  0  0  0  0  0  0
  -25.4090  -36.1000   23.8600 C   0  0  0  0  0  3  0  0  0  0  0  0
  -27.4430  -37.1100   24.7980 C   0  0  0  0  0  1  0  0  0  0  0  0
  -26.4090  -37.1870   23.7680 N   0  0  0  0  0  0  0  0  0  0  0  0
  -25.9620  -38.0970   23.8330 H   0  0  0  0  0  0  0  0  0  0  0  0
  -26.4400  -31.5790   25.3660 C   0  0  1  0  0  0  0  0  0  0  0  0
  -25.2660  -31.3380   26.3460 C   0  0  0  0  0  1  0  0  0  0  0  0
  -27.1060  -30.2130   25.0850 C   0  0  0  0  0  1  0  0  0  0  0  0
  -27.4970  -32.4440   26.0910 C   0  0  0  0  0  1  0  0  0  0  0  0
  1  3  2  0
  1  2  1  0
  2  4  2  0
  3  5  1  0
  4  7  1  0
  4 52  1  0
  5  7  2  0
  5  8  1  0
  6  3  1  0
 10  8  1  0
 10  9  1  0
 10 11  1  6
 12 10  1  0
 12 13  1  0
 15 20  1  0
 16 17  1  0
 16 15  1  0
 18 17  1  0
 18 27  1  0
 18 19  1  0
 20 14  1  0
 20 19  1  0
 21 14  2  0
 22 23  1  0
 23 14  1  0
 23 13  1  0
 24 25  2  0
 25 44  1  0
 26 25  1  0
 26 29  1  0
 27 28  1  0
 27 24  1  0
 28 26  2  0
 29 30  1  0
 30 31  2  0
 32 35  1  0
 32 31  1  0
 33 32  2  0
 34 33  1  0
 34 29  2  0
 35 36  1  0
 36 37  1  0
 37 38  2  0
 39 38  1  0
 39 43  1  0
 40 39  2  0
 41 36  2  0
 41 40  1  0
 42 41  1  0
 44 45  1  0
 45 48  1  0
 45 47  1  0
 46 44  2  0
 49 50  1  0
 49 24  1  0
 51 49  1  0
 53 52  1  0
 54 65  2  0
 55 53  1  0
 55 60  1  0
 56 64  1  0
 56 66  1  0
 57 59  1  0
 58 64  1  0
 59 60  2  0
 59 58  1  0
 61 55  2  0
 62 61  1  0
 62 57  2  0
 63 57  1  0
 63 56  1  0
 64 54  1  0
 66 68  2  0
 67 66  1  0
 69 67  1  0
 70 79  2  0
 70 75  1  0
 71 67  1  0
 71 75  1  0
 72 71  1  0
 73 74  1  0
 73 72  1  0
 74 70  1  0
 75 76  2  0
 76 77  1  0
 78 77  2  0
 79 78  1  0
 80 54  1  0
 80 81  1  0
 80 90  1  0
 81 84  1  0
 82 86  1  0
 82 81  1  0
 83 82  2  0
 86 85  1  0
 88 89  1  0
 88 86  1  0
 88 87  1  0
 90 93  1  1
 90 91  1  0
 92 90  1  0
M  ISO  4  14 100  23 100  52 101  53 101
M  END
>  <TORSDO>  (15) 
F 21

>  <SCORE>  (15) 
-11.337

>  <name>  (15) 
14

>  <ligand_id>  (15) 
14

>  <original_smiles>  (15) 
[H]c1c(C([H])([H])Oc2c([H])c([H])c3c(c2[H])C([H])([H])N(C(=O)C([H])(N([H])C(=O)C([H])(N([H])C([H])([H])[H])C([H])([H])[H])C(C([H])([H])[H])(C([H])([H])[H])C([H])([H])[H])C([H])(C(=O)N([H])C2([H])c4c([H])c([H])c([H])c([H])c4C([H])([H])C([H])([H])C2([H])[H])C3([H])[H])nc(C([H])([H])[N+]([H])(C([H])([H])[H])C([H])([H])C([H])([H])N(C(=O)N2C([H])([H])C([H])([H])C([H])([H])C([H])(n3nc(-c4c([H])c([H])c(Oc5c([H])c([H])c(F)c([H])c5F)c([H])c4[H])c(C(=O)N([H])[H])c3N([H])[H])C2([H])[H])C([H])([H])[H])c(C([H])([H])[H])c1[H]

>  <smiles>  (15) 
[H]c1c(C([H])([H])Oc2c([H])c([H])c3c(c2[H])C([H])([H])N(C(=O)C([H])(N([H])C(=O)C([H])(N([H])C([H])([H])[H])C([H])([H])[H])C(C([H])([H])[H])(C([H])([H])[H])C([H])([H])[H])C([H])(C(=O)N([H])C2([H])c4c([H])c([H])c([H])c([H])c4C([H])([H])C([H])([H])C2([H])[H])C3([H])[H])nc(C([H])([H])[N+]([H])(C([H])([H])[H])C([H])([H])C([H])([H])N(C(=O)N2C([H])([H])C([H])([H])C([H])([H])C([H])(n3nc(-c4c([H])c([H])c(Oc5c([H])c([H])c(F)c([H])c5F)c([H])c4[H])c(C(=O)N([H])[H])c3N([H])[H])C2([H])[H])C([H])([H])[H])c(C([H])([H])[H])c1[H]

$$$$
15:0:0
     RDKit          3D

 91 99  0  0  1  0  0  0  0  0999 V2000
  -30.5520  -21.0390   19.3480 C   0  0  0  0  0  3  0  0  0  0  0  0
  -31.1730  -19.8470   18.9270 C   0  0  0  0  0  0  0  0  0  0  0  0
  -29.5180  -20.9580   20.2920 C   0  0  0  0  0  0  0  0  0  0  0  0
  -29.8590  -18.5720   20.3290 C   0  0  0  0  0  0  0  0  0  0  0  0
  -32.2670  -19.8570   17.8750 C   0  0  0  0  0  1  0  0  0  0  0  0
  -30.8140  -18.6320   19.4050 N   0  0  0  0  0  0  0  0  0  0  0  0
  -29.1980  -19.6930   20.7640 N   0  0  0  0  0  0  0  0  0  0  0  0
  -28.1860  -16.7330   19.8350 C   0  0  0  0  0  1  0  0  0  0  0  0
  -29.3380  -17.1170   20.7390 C   0  0  0  0  0  3  0  0  0  0  0  0
  -30.6260  -14.7720   20.2960 C   0  0  0  0  0  0  0  0  0  0  0  0
  -30.2990  -12.4760   19.3230 C   0  0  0  0  0  2  0  0  0  0  0  0
  -29.3810  -12.5110   18.0800 C   0  0  0  0  0  2  0  0  0  0  0  0
  -27.9170  -12.3160   18.5120 C   0  0  0  0  0  2  0  0  0  0  0  0
  -27.5300  -13.2450   19.6880 C   0  0  0  0  0  3  0  0  0  0  0  0
  -28.5900  -13.2580   20.8260 C   0  0  0  0  0  2  0  0  0  0  0  0
  -29.8980  -13.5850   20.2370 N   0  0  0  0  0  0  0  0  0  0  0  0
  -31.7470  -14.7620   19.7820 O   0  0  0  0  0  0  0  0  0  0  0  0
  -31.3310  -16.4070   21.9050 C   0  0  0  0  0  1  0  0  0  0  0  0
  -30.2570  -15.9060   21.0330 N   0  0  0  0  0  0  0  0  0  0  0  0
  -25.1370  -13.8400   20.3980 C   0  0  0  0  0  0  0  0  0  0  0  0
  -24.0770  -13.0740   20.7820 C   0  0  0  0  0  0  0  0  0  0  0  0
  -24.5450  -11.7270   20.7810 C   0  0  0  0  0  0  0  0  0  0  0  0
  -26.1920  -12.9640   20.1880 N   0  0  0  0  0  0  0  0  0  0  0  0
  -25.8380  -11.6870   20.4780 N   0  0  0  0  0  0  0  0  0  0  0  0
  -23.8140  -10.4730   20.9870 C   0  0  0  0  0  0  0  0  0  0  0  0
  -24.2350   -9.5150   21.9340 C   0  0  0  0  0  3  0  0  0  0  0  0
  -23.5000   -8.3250   22.1180 C   0  0  0  0  0  3  0  0  0  0  0  0
  -22.3310   -8.0860   21.3570 C   0  0  0  0  0  0  0  0  0  0  0  0
  -21.9290   -9.0340   20.4000 C   0  0  0  0  0  3  0  0  0  0  0  0
  -22.6640  -10.2170   20.2130 C   0  0  0  0  0  3  0  0  0  0  0  0
  -21.5690   -6.9460   21.4560 O   0  0  0  0  0  0  0  0  0  0  0  0
  -21.5280   -6.2100   22.6140 C   0  0  0  0  0  0  0  0  0  0  0  0
  -21.1250   -6.7760   23.8430 C   0  0  0  0  0  3  0  0  0  0  0  0
  -21.0240   -5.9680   24.9930 C   0  0  0  0  0  3  0  0  0  0  0  0
  -21.3250   -4.5940   24.9180 C   0  0  0  0  0  0  0  0  0  0  0  0
  -21.7290   -4.0280   23.6970 C   0  0  0  0  0  3  0  0  0  0  0  0
  -21.8280   -4.8340   22.5480 C   0  0  0  0  0  0  0  0  0  0  0  0
  -22.1950   -4.2770   21.3680 F   0  0  0  0  0  0  0  0  0  0  0  0
  -21.2260   -3.8180   26.0220 F   0  0  0  0  0  0  0  0  0  0  0  0
  -22.6780  -13.5610   21.0380 C   0  0  0  0  0  0  0  0  0  0  0  0
  -21.9440  -12.8790   21.9110 N   0  0  0  0  0  0  0  0  0  0  0  0
  -22.2470  -14.5850   20.5060 O   0  0  0  0  0  0  0  0  0  0  0  0
  -22.3120  -12.0590   22.3690 H   0  0  0  0  0  0  0  0  0  0  0  0
  -21.0110  -13.1850   22.1400 H   0  0  0  0  0  0  0  0  0  0  0  0
  -25.2660  -15.2050   20.1800 N   0  0  0  0  0  0  0  0  0  0  0  0
  -24.4730  -15.8330   20.2500 H   0  0  0  0  0  0  0  0  0  0  0  0
  -26.0860  -15.6480   19.7880 H   0  0  0  0  0  0  0  0  0  0  0  0
  -28.7290  -22.2560   20.7920 C   0  0  0  0  0  2  0  0  0  0  0  0
  -29.0050  -23.7430   20.1980 C   0  0  0  0  0  3  0  0  0  0  0  0
  -28.0880  -24.9890   20.6880 C   0  0  0  0  0  3  0  0  0  0  0  0
  -28.3190  -26.4120   20.2520 O   0  0  0  0  0  0  0  0  0  0  0  0
  -24.5990  -31.8900   23.2360 C   0  0  0  0  0  0  0  0  0  0  0  0
  -27.2180  -27.2970   20.2160 C   0  0  0  0  0  0  0  0  0  0  0  0
  -23.4020  -30.4920   21.5890 C   0  0  0  0  0  3  0  0  0  0  0  0
  -24.8580  -28.9340   20.1790 C   0  0  0  0  0  0  0  0  0  0  0  0
  -25.9440  -30.8060   21.4190 C   0  0  0  0  0  2  0  0  0  0  0  0
  -26.0280  -29.4200   20.7790 C   0  0  0  0  0  0  0  0  0  0  0  0
  -27.2110  -28.6170   20.7810 C   0  0  0  0  0  3  0  0  0  0  0  0
  -26.0320  -26.8830   19.5730 C   0  0  0  0  0  3  0  0  0  0  0  0
  -24.8650  -27.6730   19.5620 C   0  0  0  0  0  3  0  0  0  0  0  0
  -23.6240  -29.8120   20.2130 C   0  0  0  0  0  2  0  0  0  0  0  0
  -24.6680  -31.0810   22.1390 N   0  0  0  0  0  0  0  0  0  0  0  0
  -23.5130  -32.1700   23.7650 O   0  0  0  0  0  0  0  0  0  0  0  0
  -22.7270  -29.4800   22.5480 C   0  0  0  0  0  0  0  0  0  0  0  0
  -21.3970  -29.3180   22.4250 N   0  0  0  0  0  0  0  0  0  0  0  0
  -23.3990  -28.8440   23.3640 O   0  0  0  0  0  0  0  0  0  0  0  0
  -20.9110  -29.8950   21.7530 H   0  0  0  0  0  0  0  0  0  0  0  0
  -18.0080  -28.1500   22.9250 C   0  0  0  0  0  0  0  0  0  0  0  0
  -20.5690  -28.3850   23.1940 C   0  0  0  0  0  3  0  0  0  0  0  0
  -20.6540  -26.9540   22.6160 C   0  0  0  0  0  2  0  0  0  0  0  0
  -19.5480  -26.6440   21.6000 C   0  0  0  0  0  2  0  0  0  0  0  0
  -18.1690  -26.8000   22.2460 C   0  0  0  0  0  2  0  0  0  0  0  0
  -19.1340  -28.9010   23.3550 C   0  0  0  0  0  0  0  0  0  0  0  0
  -18.9290  -30.1640   23.9510 C   0  0  0  0  0  3  0  0  0  0  0  0
  -17.6290  -30.6780   24.1210 C   0  0  0  0  0  3  0  0  0  0  0  0
  -16.5170  -29.9250   23.7040 C   0  0  0  0  0  3  0  0  0  0  0  0
  -16.7080  -28.6630   23.1130 C   0  0  0  0  0  3  0  0  0  0  0  0
  -25.8790  -32.5200   23.8690 C   0  0  0  0  0  3  0  0  0  0  0  0
  -26.3830  -31.7510   25.1500 C   0  0  1  0  0  0  0  0  0  0  0  0
  -25.2850  -31.5250   26.2140 C   0  0  0  0  0  1  0  0  0  0  0  0
  -26.9590  -30.3670   24.7690 C   0  0  0  0  0  1  0  0  0  0  0  0
  -27.5320  -32.5410   25.8180 C   0  0  0  0  0  1  0  0  0  0  0  0
  -25.5740  -33.9230   24.1910 N   0  0  0  0  0  0  0  0  0  0  0  0
  -25.9190  -34.9710   23.4320 C   0  0  0  0  0  0  0  0  0  0  0  0
  -26.5960  -34.8610   22.4060 O   0  0  0  0  0  0  0  0  0  0  0  0
  -24.9760  -34.0830   24.9900 H   0  0  0  0  0  0  0  0  0  0  0  0
  -24.2070  -36.7780   23.0580 C   0  0  0  0  0  1  0  0  0  0  0  0
  -25.4390  -36.3650   23.8820 C   0  0  0  0  0  3  0  0  0  0  0  0
  -27.5740  -37.2360   24.7280 C   0  0  0  0  0  1  0  0  0  0  0  0
  -26.4810  -37.4110   23.7760 N   0  0  0  0  0  0  0  0  0  0  0  0
  -26.0770  -38.3330   23.9220 H   0  0  0  0  0  0  0  0  0  0  0  0
  1  3  1  0
  2  1  2  0
  2  6  1  0
  3  7  2  0
  3 48  1  0
  4  9  1  0
  4  7  1  0
  5  2  1  0
  6  4  2  0
  9  8  1  0
  9 19  1  0
 10 19  1  0
 11 16  1  0
 12 13  1  0
 12 11  1  0
 14 13  1  0
 14 23  1  0
 14 15  1  0
 16 10  1  0
 16 15  1  0
 17 10  2  0
 19 18  1  0
 20 21  2  0
 21 40  1  0
 22 21  1  0
 22 25  1  0
 23 20  1  0
 23 24  1  0
 24 22  2  0
 25 26  1  0
 26 27  2  0
 28 31  1  0
 28 27  1  0
 29 28  2  0
 30 29  1  0
 30 25  2  0
 31 32  1  0
 32 33  1  0
 33 34  2  0
 35 34  1  0
 35 39  1  0
 36 35  2  0
 37 32  2  0
 37 36  1  0
 38 37  1  0
 40 41  1  0
 41 44  1  0
 41 43  1  0
 42 40  2  0
 45 46  1  0
 45 20  1  0
 47 45  1  0
 49 50  2  0
 49 48  1  0
 51 50  1  0
 52 63  2  0
 53 51  1  0
 53 58  1  0
 54 62  1  0
 54 64  1  0
 55 61  1  0
 55 57  1  0
 56 62  1  0
 57 58  2  0
 57 56  1  0
 59 53  2  0
 60 59  1  0
 60 55  2  0
 61 54  1  0
 62 52  1  0
 64 66  2  0
 65 64  1  0
 67 65  1  0
 68 77  2  0
 68 73  1  0
 69 65  1  0
 69 73  1  0
 70 69  1  0
 71 72  1  0
 71 70  1  0
 72 68  1  0
 73 74  2  0
 74 75  1  0
 76 75  2  0
 77 76  1  0
 78 52  1  0
 78 83  1  0
 78 79  1  0
 79 82  1  1
 79 80  1  0
 81 79  1  0
 83 86  1  0
 84 88  1  0
 84 83  1  0
 85 84  2  0
 88 87  1  0
 90 88  1  0
 90 91  1  0
 90 89  1  0
M  ISO  4  10 100  19 100  50 101  51 101
M  END
>  <TORSDO>  (16) 
F 20

>  <SCORE>  (16) 
-13.850

>  <name>  (16) 
15

>  <ligand_id>  (16) 
15

>  <original_smiles>  (16) 
[H]c1c(C([H])([H])[H])nc(C([H])(N(C(=O)N2C([H])([H])C([H])([H])C([H])([H])C([H])(n3nc(-c4c([H])c([H])c(Oc5c([H])c([H])c(F)c([H])c5F)c([H])c4[H])c(C(=O)N([H])[H])c3N([H])[H])C2([H])[H])C([H])([H])[H])C([H])([H])[H])nc1C([H])([H])C([H])([H])C([H])([H])Oc1c([H])c([H])c2c(c1[H])C([H])([H])N(C(=O)C([H])(N([H])C(=O)C([H])(N([H])C([H])([H])[H])C([H])([H])[H])C(C([H])([H])[H])(C([H])([H])[H])C([H])([H])[H])C([H])(C(=O)N([H])C1([H])c3c([H])c([H])c([H])c([H])c3C([H])([H])C([H])([H])C1([H])[H])C2([H])[H]

>  <smiles>  (16) 
[H]c1c(C([H])([H])[H])nc(C([H])(N(C(=O)N2C([H])([H])C([H])([H])C([H])([H])C([H])(n3nc(-c4c([H])c([H])c(Oc5c([H])c([H])c(F)c([H])c5F)c([H])c4[H])c(C(=O)N([H])[H])c3N([H])[H])C2([H])[H])C([H])([H])[H])C([H])([H])[H])nc1C([H])([H])C([H])([H])C([H])([H])Oc1c([H])c([H])c2c(c1[H])C([H])([H])N(C(=O)C([H])(N([H])C(=O)C([H])(N([H])C([H])([H])[H])C([H])([H])[H])C(C([H])([H])[H])(C([H])([H])[H])C([H])([H])[H])C([H])(C(=O)N([H])C1([H])c3c([H])c([H])c([H])c([H])c3C([H])([H])C([H])([H])C1([H])[H])C2([H])[H]

$$$$
16:0:0
     RDKit          3D

 84 90  0  0  1  0  0  0  0  0999 V2000
  -29.9990  -19.9970   19.2600 C   0  0  0  0  0  3  0  0  0  0  0  0
  -29.6830  -18.3940   19.6870 C   0  0  0  0  0  0  0  0  0  0  0  0
  -29.1380  -21.3210   19.5460 C   0  0  0  0  0  3  0  0  0  0  0  0
  -27.0070  -20.7290   20.7900 C   0  0  0  0  0  1  0  0  0  0  0  0
  -28.5500  -18.9150   20.2810 N   0  0  0  0  0  0  0  0  0  0  0  0
  -28.2730  -20.3540   20.1870 N   0  0  0  0  0  0  0  0  0  0  0  0
  -30.3990  -16.5730   19.6430 C   0  0  0  0  0  0  0  0  0  0  0  0
  -30.6610  -13.8190   19.1010 C   0  0  0  0  0  2  0  0  0  0  0  0
  -29.8280  -13.0710   17.9950 C   0  0  0  0  0  2  0  0  0  0  0  0
  -28.4590  -12.6250   18.5170 C   0  0  0  0  0  2  0  0  0  0  0  0
  -27.8720  -13.7260   19.4190 C   0  0  0  0  0  3  0  0  0  0  0  0
  -28.8660  -14.3520   20.4450 C   0  0  0  0  0  2  0  0  0  0  0  0
  -29.9570  -15.0940   19.7150 N   0  0  0  0  0  0  0  0  0  0  0  0
  -31.6290  -16.3800   19.4340 O   0  0  0  0  0  0  0  0  0  0  0  0
  -25.5700  -14.2650   20.3000 C   0  0  0  0  0  0  0  0  0  0  0  0
  -24.5040  -13.5070   20.6910 C   0  0  0  0  0  0  0  0  0  0  0  0
  -24.9340  -12.1450   20.6120 C   0  0  0  0  0  0  0  0  0  0  0  0
  -26.5800  -13.3770   19.9970 N   0  0  0  0  0  0  0  0  0  0  0  0
  -26.2150  -12.0870   20.2440 N   0  0  0  0  0  0  0  0  0  0  0  0
  -24.1690  -10.9030   20.8050 C   0  0  0  0  0  0  0  0  0  0  0  0
  -24.5850   -9.9090   21.7200 C   0  0  0  0  0  3  0  0  0  0  0  0
  -23.8150   -8.7400   21.9080 C   0  0  0  0  0  3  0  0  0  0  0  0
  -22.6130   -8.5550   21.1850 C   0  0  0  0  0  0  0  0  0  0  0  0
  -22.2140   -9.5380   20.2610 C   0  0  0  0  0  3  0  0  0  0  0  0
  -22.9830  -10.6970   20.0700 C   0  0  0  0  0  3  0  0  0  0  0  0
  -21.8160   -7.4390   21.2820 O   0  0  0  0  0  0  0  0  0  0  0  0
  -21.7690   -6.6840   22.4270 C   0  0  0  0  0  0  0  0  0  0  0  0
  -21.3470   -7.2280   23.6600 C   0  0  0  0  0  3  0  0  0  0  0  0
  -21.2460   -6.4010   24.7960 C   0  0  0  0  0  3  0  0  0  0  0  0
  -21.5590   -5.0310   24.7020 C   0  0  0  0  0  0  0  0  0  0  0  0
  -21.9750   -4.4880   23.4740 C   0  0  0  0  0  3  0  0  0  0  0  0
  -22.0770   -5.3110   22.3390 C   0  0  0  0  0  0  0  0  0  0  0  0
  -22.4560   -4.7770   21.1540 F   0  0  0  0  0  0  0  0  0  0  0  0
  -21.4560   -4.2350   25.7910 F   0  0  0  0  0  0  0  0  0  0  0  0
  -23.1340  -14.0220   21.0160 C   0  0  0  0  0  0  0  0  0  0  0  0
  -22.4150  -13.3380   21.8970 N   0  0  0  0  0  0  0  0  0  0  0  0
  -22.7150  -15.0710   20.5260 O   0  0  0  0  0  0  0  0  0  0  0  0
  -22.7700  -12.4910   22.3150 H   0  0  0  0  0  0  0  0  0  0  0  0
  -21.4960  -13.6660   22.1590 H   0  0  0  0  0  0  0  0  0  0  0  0
  -25.7590  -15.6350   20.1440 N   0  0  0  0  0  0  0  0  0  0  0  0
  -25.0190  -16.3070   20.3160 H   0  0  0  0  0  0  0  0  0  0  0  0
  -26.6170  -16.0680   19.8280 H   0  0  0  0  0  0  0  0  0  0  0  0
  -28.6200  -23.3310   19.1230 C   0  0  0  0  0 15  0  0  0  0  0  0
  -28.5500  -25.2340   19.6250 O   0  0  0  0  0  1  0  0  0  0  0  0
  -24.6930  -31.6500   22.8710 C   0  0  0  0  0  0  0  0  0  0  0  0
  -27.5580  -26.5870   19.6120 C   0  0  0  0  0  0  0  0  0  0  0  0
  -23.6150  -30.2590   21.1610 C   0  0  0  0  0  3  0  0  0  0  0  0
  -25.1780  -28.7190   19.6730 C   0  0  0  0  0  0  0  0  0  0  0  0
  -26.2010  -30.4640   21.0930 C   0  0  0  0  0  2  0  0  0  0  0  0
  -26.3580  -29.0370   20.3520 C   0  0  0  0  0  0  0  0  0  0  0  0
  -27.5040  -28.0110   20.2850 C   0  0  0  0  0  3  0  0  0  0  0  0
  -26.3210  -26.5910   18.8790 C   0  0  0  0  0  3  0  0  0  0  0  0
  -25.2210  -27.5320   18.9120 C   0  0  0  0  0  3  0  0  0  0  0  0
  -23.9210  -29.6290   19.7640 C   0  0  0  0  0  2  0  0  0  0  0  0
  -24.8620  -30.8330   21.7620 N   0  0  0  0  0  0  0  0  0  0  0  0
  -23.5740  -31.8620   23.3760 O   0  0  0  0  0  0  0  0  0  0  0  0
  -22.9280  -29.2140   22.0870 C   0  0  0  0  0  0  0  0  0  0  0  0
  -21.5970  -29.0240   21.9810 N   0  0  0  0  0  0  0  0  0  0  0  0
  -23.6160  -28.5690   22.8820 O   0  0  0  0  0  0  0  0  0  0  0  0
  -21.0840  -29.5970   21.3260 H   0  0  0  0  0  0  0  0  0  0  0  0
  -18.2570  -27.6980   22.5870 C   0  0  0  0  0  0  0  0  0  0  0  0
  -20.8270  -28.0000   22.7040 C   0  0  0  0  0  3  0  0  0  0  0  0
  -20.9080  -26.6350   21.9810 C   0  0  0  0  0  2  0  0  0  0  0  0
  -19.7460  -26.3960   21.0100 C   0  0  0  0  0  2  0  0  0  0  0  0
  -18.4090  -26.4360   21.7550 C   0  0  0  0  0  2  0  0  0  0  0  0
  -19.3900  -28.4410   23.0200 C   0  0  0  0  0  0  0  0  0  0  0  0
  -19.1860  -29.6190   23.7720 C   0  0  0  0  0  3  0  0  0  0  0  0
  -17.8850  -30.0560   24.0870 C   0  0  0  0  0  3  0  0  0  0  0  0
  -16.7700  -29.3130   23.6650 C   0  0  0  0  0  3  0  0  0  0  0  0
  -16.9580  -28.1340   22.9220 C   0  0  0  0  0  3  0  0  0  0  0  0
  -25.8910  -32.3670   23.5680 C   0  0  0  0  0  3  0  0  0  0  0  0
  -25.4630  -33.7270   23.9700 N   0  0  0  0  0  0  0  0  0  0  0  0
  -25.7310  -34.8590   23.3040 C   0  0  0  0  0  0  0  0  0  0  0  0
  -26.4100  -34.8720   22.2750 O   0  0  0  0  0  0  0  0  0  0  0  0
  -24.8500  -33.7820   24.7700 H   0  0  0  0  0  0  0  0  0  0  0  0
  -23.8820  -36.5650   23.0980 C   0  0  0  0  0  1  0  0  0  0  0  0
  -25.1620  -36.1850   23.8600 C   0  0  0  0  0  3  0  0  0  0  0  0
  -27.2370  -37.1770   24.7290 C   0  0  0  0  0  1  0  0  0  0  0  0
  -26.1190  -37.3130   23.7990 N   0  0  0  0  0  0  0  0  0  0  0  0
  -25.6500  -38.1940   23.9950 H   0  0  0  0  0  0  0  0  0  0  0  0
  -26.4180  -31.5910   24.8400 C   0  0  1  0  0  0  0  0  0  0  0  0
  -25.3130  -31.2540   25.8710 C   0  0  0  0  0  1  0  0  0  0  0  0
  -27.0970  -30.2630   24.4440 C   0  0  0  0  0  1  0  0  0  0  0  0
  -27.4990  -32.4340   25.5580 C   0  0  0  0  0  1  0  0  0  0  0  0
  1  3  2  0
  1  2  1  0
  2  5  2  0
  3  6  1  0
  6  5  1  0
  6  4  1  0
  7  2  1  0
  7 13  1  0
  8 13  1  0
  9 10  1  0
  9  8  1  0
 11 10  1  0
 11 18  1  0
 11 12  1  0
 13 12  1  0
 14  7  2  0
 15 16  2  0
 16 35  1  0
 17 16  1  0
 17 20  1  0
 18 19  1  0
 18 15  1  0
 19 17  2  0
 20 21  1  0
 21 22  2  0
 23 26  1  0
 23 22  1  0
 24 23  2  0
 25 24  1  0
 25 20  2  0
 26 27  1  0
 27 28  1  0
 28 29  2  0
 30 29  1  0
 30 34  1  0
 31 30  2  0
 32 27  2  0
 32 31  1  0
 33 32  1  0
 35 36  1  0
 36 39  1  0
 36 38  1  0
 37 35  2  0
 40 15  1  0
 40 41  1  0
 42 40  1  0
 45 56  2  0
 46 44  1  0
 46 51  1  0
 47 55  1  0
 47 57  1  0
 48 54  1  0
 48 50  1  0
 49 55  1  0
 50 49  1  0
 51 50  2  0
 52 53  1  0
 52 46  2  0
 53 48  2  0
 54 47  1  0
 55 45  1  0
 57 59  2  0
 58 57  1  0
 60 58  1  0
 61 70  2  0
 61 66  1  0
 62 58  1  0
 62 66  1  0
 63 62  1  0
 64 65  1  0
 64 63  1  0
 65 61  1  0
 66 67  2  0
 67 68  1  0
 69 68  2  0
 70 69  1  0
 71 45  1  0
 71 72  1  0
 71 81  1  0
 72 75  1  0
 73 77  1  0
 73 72  1  0
 74 73  2  0
 77 76  1  0
 79 77  1  0
 79 80  1  0
 79 78  1  0
 81 84  1  1
 81 82  1  0
 83 81  1  0
M  ISO  4   2 100   7 100  43 101  44 101
M  END
>  <TORSDO>  (17) 
F 17

>  <SCORE>  (17) 
-14.170

>  <name>  (17) 
16

>  <ligand_id>  (17) 
16

>  <original_smiles>  (17) 
[H]c1c([H])c([H])c2c(c1[H])C([H])([H])C([H])([H])C([H])([H])C2([H])N([H])C(=O)C1([H])N(C(=O)C([H])(N([H])C(=O)C([H])(N([H])C([H])([H])[H])C([H])([H])[H])C(C([H])([H])[H])(C([H])([H])[H])C([H])([H])[H])C([H])([H])c2c([H])c(OC([H])([H])c3c([H])c(C(=O)N4C([H])([H])C([H])([H])C([H])([H])C([H])(n5nc(-c6c([H])c([H])c(Oc7c([H])c([H])c(F)c([H])c7F)c([H])c6[H])c(C(=O)N([H])[H])c5N([H])[H])C4([H])[H])nn3C([H])([H])[H])c([H])c([H])c2C1([H])[H]

>  <smiles>  (17) 
[H]c1c([H])c([H])c2c(c1[H])C([H])([H])C([H])([H])C([H])([H])C2([H])N([H])C(=O)C1([H])N(C(=O)C([H])(N([H])C(=O)C([H])(N([H])C([H])([H])[H])C([H])([H])[H])C(C([H])([H])[H])(C([H])([H])[H])C([H])([H])[H])C([H])([H])c2c([H])c(OC([H])([H])c3c([H])c(C(=O)N4C([H])([H])C([H])([H])C([H])([H])C([H])(n5nc(-c6c([H])c([H])c(Oc7c([H])c([H])c(F)c([H])c7F)c([H])c6[H])c(C(=O)N([H])[H])c5N([H])[H])C4([H])[H])nn3C([H])([H])[H])c([H])c([H])c2C1([H])[H]

$$$$
17:0:0
     RDKit          3D

 96104  0  0  1  0  0  0  0  0999 V2000
  -29.3180  -22.2220   21.2210 C   0  0  0  0  0  0  0  0  0  0  0  0
  -28.7700  -22.7000   22.3390 N   0  0  0  0  0  0  0  0  0  0  0  0
  -29.1200  -21.7980   23.3150 N   0  0  0  0  0  0  0  0  0  0  0  0
  -29.8110  -20.8190   22.8210 N   0  0  0  0  0  0  0  0  0  0  0  0
  -29.9320  -21.0310   21.4820 N   0  0  0  0  0  0  0  0  0  0  0  0
  -29.1500  -22.9040   19.8690 C   0  0  0  0  0  2  0  0  0  0  0  0
  -29.3580  -24.4720   19.8080 C   0  0  0  0  0  3  0  0  0  0  0  0
  -28.1170  -25.3270   19.3690 C   0  0  0  0  0  3  0  0  0  0  0  0
  -28.2600  -26.7840   19.4030 O   0  0  0  0  0  0  0  0  0  0  0  0
  -24.5480  -31.7210   23.0120 C   0  0  0  0  0  0  0  0  0  0  0  0
  -27.0950  -27.5530   19.4520 C   0  0  0  0  0  0  0  0  0  0  0  0
  -23.2730  -30.4030   21.3570 C   0  0  0  0  0  3  0  0  0  0  0  0
  -24.6720  -29.0320   19.7170 C   0  0  0  0  0  0  0  0  0  0  0  0
  -25.7760  -30.8500   21.0220 C   0  0  0  0  0  2  0  0  0  0  0  0
  -25.8590  -29.5360   20.2620 C   0  0  0  0  0  0  0  0  0  0  0  0
  -27.0750  -28.8130   20.1120 C   0  0  0  0  0  3  0  0  0  0  0  0
  -25.8820  -27.0980   18.8780 C   0  0  0  0  0  3  0  0  0  0  0  0
  -24.6830  -27.8190   19.0130 C   0  0  0  0  0  3  0  0  0  0  0  0
  -23.4080  -29.8450   19.9180 C   0  0  0  0  0  2  0  0  0  0  0  0
  -24.5530  -31.0030   21.8530 N   0  0  0  0  0  0  0  0  0  0  0  0
  -23.4970  -31.9200   23.6390 O   0  0  0  0  0  0  0  0  0  0  0  0
  -22.7180  -29.2910   22.2760 C   0  0  0  0  0  0  0  0  0  0  0  0
  -21.4020  -29.0390   22.1840 N   0  0  0  0  0  0  0  0  0  0  0  0
  -23.4660  -28.6600   23.0250 O   0  0  0  0  0  0  0  0  0  0  0  0
  -20.8580  -29.6010   21.5440 H   0  0  0  0  0  0  0  0  0  0  0  0
  -18.1290  -27.5790   22.6750 C   0  0  0  0  0  0  0  0  0  0  0  0
  -20.6650  -28.0140   22.9240 C   0  0  0  0  0  3  0  0  0  0  0  0
  -20.8620  -26.6200   22.2860 C   0  0  0  0  0  2  0  0  0  0  0  0
  -19.7710  -26.2590   21.2730 C   0  0  0  0  0  2  0  0  0  0  0  0
  -18.3920  -26.2750   21.9410 C   0  0  0  0  0  2  0  0  0  0  0  0
  -19.1960  -28.4040   23.1200 C   0  0  0  0  0  0  0  0  0  0  0  0
  -18.8950  -29.6240   23.7660 C   0  0  0  0  0  3  0  0  0  0  0  0
  -17.5600  -30.0210   23.9680 C   0  0  0  0  0  3  0  0  0  0  0  0
  -16.5080  -29.1930   23.5400 C   0  0  0  0  0  3  0  0  0  0  0  0
  -16.7930  -27.9750   22.8990 C   0  0  0  0  0  3  0  0  0  0  0  0
  -25.8520  -32.3480   23.5930 C   0  0  0  0  0  3  0  0  0  0  0  0
  -26.4490  -31.5320   24.8030 C   0  0  1  0  0  0  0  0  0  0  0  0
  -25.4200  -31.2420   25.9210 C   0  0  0  0  0  1  0  0  0  0  0  0
  -27.0220  -30.1780   24.3240 C   0  0  0  0  0  1  0  0  0  0  0  0
  -27.6270  -32.3130   25.4310 C   0  0  0  0  0  1  0  0  0  0  0  0
  -25.5370  -33.7240   23.9960 N   0  0  0  0  0  0  0  0  0  0  0  0
  -25.8650  -34.8170   23.2930 C   0  0  0  0  0  0  0  0  0  0  0  0
  -26.5390  -34.7720   22.2590 O   0  0  0  0  0  0  0  0  0  0  0  0
  -24.9420  -33.8340   24.8050 H   0  0  0  0  0  0  0  0  0  0  0  0
  -24.1420  -36.6260   23.0200 C   0  0  0  0  0  1  0  0  0  0  0  0
  -25.3720  -36.1750   23.8250 C   0  0  0  0  0  3  0  0  0  0  0  0
  -27.4890  -37.0100   24.7430 C   0  0  0  0  0  1  0  0  0  0  0  0
  -26.4040  -37.2320   23.7900 N   0  0  0  0  0  0  0  0  0  0  0  0
  -25.9950  -38.1420   23.9830 H   0  0  0  0  0  0  0  0  0  0  0  0
  -30.7220  -20.0640   20.6860 C   0  0  0  0  0  2  0  0  0  0  0  0
  -30.5780  -18.5410   21.1130 C   0  0  0  0  0  2  0  0  0  0  0  0
  -31.7210  -17.5350   20.6930 C   0  0  0  0  0  2  0  0  0  0  0  0
  -31.9840  -15.2230   20.0770 C   0  0  0  0  0  0  0  0  0  0  0  0
  -31.5620  -12.8550   19.4600 C   0  0  0  0  0  2  0  0  0  0  0  0
  -30.6690  -12.6830   18.2120 C   0  0  0  0  0  2  0  0  0  0  0  0
  -29.1750  -12.8170   18.5620 C   0  0  0  0  0  2  0  0  0  0  0  0
  -28.8320  -13.9160   19.6110 C   0  0  0  0  0  3  0  0  0  0  0  0
  -29.8620  -13.9670   20.7580 C   0  0  0  0  0  2  0  0  0  0  0  0
  -31.1840  -14.1100   20.1350 N   0  0  0  0  0  0  0  0  0  0  0  0
  -33.2040  -15.1020   20.0370 O   0  0  0  0  0  0  0  0  0  0  0  0
  -31.4460  -16.4430   19.6990 N   0  0  0  0  0  0  0  0  0  0  0  0
  -26.5100  -14.7240   20.3570 C   0  0  0  0  0  0  0  0  0  0  0  0
  -25.3710  -14.0470   20.6960 C   0  0  0  0  0  0  0  0  0  0  0  0
  -25.7000  -12.6560   20.6330 C   0  0  0  0  0  0  0  0  0  0  0  0
  -27.4680  -13.7550   20.1070 N   0  0  0  0  0  0  0  0  0  0  0  0
  -26.9850  -12.5050   20.3420 N   0  0  0  0  0  0  0  0  0  0  0  0
  -24.8550  -11.4610   20.7680 C   0  0  0  0  0  0  0  0  0  0  0  0
  -25.1850  -10.4140   21.6580 C   0  0  0  0  0  3  0  0  0  0  0  0
  -24.3440   -9.2890   21.7870 C   0  0  0  0  0  3  0  0  0  0  0  0
  -23.1550   -9.2000   21.0230 C   0  0  0  0  0  0  0  0  0  0  0  0
  -22.8440  -10.2310   20.1170 C   0  0  0  0  0  3  0  0  0  0  0  0
  -23.6870  -11.3480   19.9870 C   0  0  0  0  0  3  0  0  0  0  0  0
  -22.2930   -8.1310   21.0640 O   0  0  0  0  0  0  0  0  0  0  0  0
  -22.1240   -7.3870   22.2040 C   0  0  0  0  0  0  0  0  0  0  0  0
  -21.6950   -7.9670   23.4180 C   0  0  0  0  0  3  0  0  0  0  0  0
  -21.4760   -7.1550   24.5490 C   0  0  0  0  0  3  0  0  0  0  0  0
  -21.6670   -5.7630   24.4640 C   0  0  0  0  0  0  0  0  0  0  0  0
  -22.0810   -5.1810   23.2530 C   0  0  0  0  0  3  0  0  0  0  0  0
  -22.3100   -5.9910   22.1270 C   0  0  0  0  0  0  0  0  0  0  0  0
  -22.6920   -5.4230   20.9580 F   0  0  0  0  0  0  0  0  0  0  0  0
  -21.4430   -4.9830   25.5460 F   0  0  0  0  0  0  0  0  0  0  0  0
  -24.0180  -14.6430   20.9640 C   0  0  0  0  0  0  0  0  0  0  0  0
  -23.2240  -14.0110   21.8180 N   0  0  0  0  0  0  0  0  0  0  0  0
  -23.6760  -15.7060   20.4460 O   0  0  0  0  0  0  0  0  0  0  0  0
  -23.5020  -13.1510   22.2700 H   0  0  0  0  0  0  0  0  0  0  0  0
  -22.3150  -14.3920   22.0320 H   0  0  0  0  0  0  0  0  0  0  0  0
  -26.8100  -16.0780   20.2130 N   0  0  0  0  0  0  0  0  0  0  0  0
  -26.1190  -16.8060   20.3590 H   0  0  0  0  0  0  0  0  0  0  0  0
  -27.7160  -16.4410   19.9500 H   0  0  0  0  0  0  0  0  0  0  0  0
  -31.6750  -15.7260   17.2850 C   0  0  0  0  0  1  0  0  0  0  0  0
  -30.4070  -17.7020   17.7390 C   0  0  0  0  0  1  0  0  0  0  0  0
  -31.6430  -16.9140   18.2550 C   0  0  1  0  0  0  0  0  0  0  0  0
  -32.9650  -17.7250   17.9740 C   0  0  1  0  0  0  0  0  0  0  0  0
  -33.0550  -17.9810   16.6690 F   0  0  0  0  0  0  0  0  0  0  0  0
  -32.9710  -18.9160   18.5670 F   0  0  0  0  0  0  0  0  0  0  0  0
  -34.0760  -17.0730   18.3150 F   0  0  0  0  0  0  0  0  0  0  0  0
  1  5  1  0
  1  2  2  0
  2  3  1  0
  4  3  2  0
  5  4  1  0
  6  1  1  0
  7  6  1  0
  8  9  1  0
  8  7  2  0
  9 11  1  0
 10 21  2  0
 11 16  1  0
 12 20  1  0
 12 22  1  0
 13 19  1  0
 13 15  1  0
 14 20  1  0
 15 14  1  0
 16 15  2  0
 17 18  1  0
 17 11  2  0
 18 13  2  0
 19 12  1  0
 20 10  1  0
 22 24  2  0
 23 22  1  0
 25 23  1  0
 26 35  2  0
 26 31  1  0
 27 23  1  0
 27 31  1  0
 28 27  1  0
 29 30  1  0
 29 28  1  0
 30 26  1  0
 31 32  2  0
 32 33  1  0
 34 33  2  0
 35 34  1  0
 36 10  1  0
 36 41  1  0
 36 37  1  0
 37 40  1  1
 37 38  1  0
 39 37  1  0
 41 44  1  0
 42 46  1  0
 42 41  1  0
 43 42  2  0
 46 45  1  0
 48 46  1  0
 48 49  1  0
 48 47  1  0
 50 51  1  0
 50  5  1  0
 52 51  1  0
 53 59  1  0
 54 59  1  0
 55 56  1  0
 55 54  1  0
 57 56  1  0
 57 65  1  0
 57 58  1  0
 59 58  1  0
 60 53  2  0
 61 53  1  0
 61 52  1  0
 62 63  2  0
 63 82  1  0
 64 63  1  0
 64 67  1  0
 65 66  1  0
 65 62  1  0
 66 64  2  0
 67 68  1  0
 68 69  2  0
 70 73  1  0
 70 69  1  0
 71 70  2  0
 72 71  1  0
 72 67  2  0
 73 74  1  0
 74 75  1  0
 75 76  2  0
 77 76  1  0
 77 81  1  0
 78 77  2  0
 79 74  2  0
 79 78  1  0
 80 79  1  0
 82 83  1  0
 83 86  1  0
 83 85  1  0
 84 82  2  0
 87 62  1  0
 87 88  1  0
 89 87  1  0
 92 90  1  6
 91 92  1  0
 92 61  1  0
 93 92  1  0
 93 96  1  1
 93 95  1  0
 94 93  1  0
M  ISO  4   8 101   9 101  53 100  61 100
M  END
>  <TORSDO>  (18) 
F 24

>  <SCORE>  (18) 
-9.831

>  <name>  (18) 
17

>  <ligand_id>  (18) 
17

>  <original_smiles>  (18) 
[H]c1c([H])c([H])c2c(c1[H])C([H])([H])C([H])([H])C([H])([H])C2([H])N([H])C(=O)C1([H])N(C(=O)C([H])(N([H])C(=O)C([H])(N([H])C([H])([H])[H])C([H])([H])[H])C(C([H])([H])[H])(C([H])([H])[H])C([H])([H])[H])C([H])([H])c2c([H])c(OC([H])([H])C([H])([H])C([H])([H])c3nnnn3C([H])([H])C([H])([H])C([H])([H])N(C(=O)N3C([H])([H])C([H])([H])C([H])([H])C([H])(n4nc(-c5c([H])c([H])c(Oc6c([H])c([H])c(F)c([H])c6F)c([H])c5[H])c(C(=O)N([H])[H])c4N([H])[H])C3([H])[H])C(C([H])([H])[H])(C([H])([H])[H])C(F)(F)F)c([H])c([H])c2C1([H])[H]

>  <smiles>  (18) 
[H]c1c([H])c([H])c2c(c1[H])C([H])([H])C([H])([H])C([H])([H])C2([H])N([H])C(=O)C1([H])N(C(=O)C([H])(N([H])C(=O)C([H])(N([H])C([H])([H])[H])C([H])([H])[H])C(C([H])([H])[H])(C([H])([H])[H])C([H])([H])[H])C([H])([H])c2c([H])c(OC([H])([H])C([H])([H])C([H])([H])c3nnnn3C([H])([H])C([H])([H])C([H])([H])N(C(=O)N3C([H])([H])C([H])([H])C([H])([H])C([H])(n4nc(-c5c([H])c([H])c(Oc6c([H])c([H])c(F)c([H])c6F)c([H])c5[H])c(C(=O)N([H])[H])c4N([H])[H])C3([H])[H])C(C([H])([H])[H])(C([H])([H])[H])C(F)(F)F)c([H])c([H])c2C1([H])[H]

$$$$
18:0:0
     RDKit          3D

 90 98  0  0  1  0  0  0  0  0999 V2000
  -28.2200  -21.5980   21.0650 C   0  0  0  0  0  3  0  0  0  0  0  0
  -29.8630  -21.2570   19.7110 C   0  0  0  0  0  3  0  0  0  0  0  0
  -29.1560  -22.3280   20.2710 C   0  0  0  0  0  0  0  0  0  0  0  0
  -28.3450  -20.2620   20.9850 N   0  0  0  0  0  0  0  0  0  0  0  0
  -29.3680  -19.9920   20.1310 N   0  0  0  0  0  0  0  0  0  0  0  0
  -28.3620  -18.0790   18.9100 C   0  0  0  0  0  1  0  0  0  0  0  0
  -30.7690  -18.5840   18.6000 C   0  0  0  0  0  1  0  0  0  0  0  0
  -29.6370  -18.5470   19.6460 C   0  0  1  0  0  0  0  0  0  0  0  0
  -30.0440  -17.4150   20.7410 C   0  0  0  0  0  2  0  0  0  0  0  0
  -30.6170  -14.8200   20.3070 C   0  0  0  0  0  0  0  0  0  0  0  0
  -30.4580  -12.5410   19.2850 C   0  0  0  0  0  2  0  0  0  0  0  0
  -29.5140  -12.6050   18.0620 C   0  0  0  0  0  2  0  0  0  0  0  0
  -28.0460  -12.4170   18.4960 C   0  0  0  0  0  2  0  0  0  0  0  0
  -27.6640  -13.3040   19.7100 C   0  0  0  0  0  3  0  0  0  0  0  0
  -28.7230  -13.2200   20.8300 C   0  0  0  0  0  2  0  0  0  0  0  0
  -30.0130  -13.5840   20.2310 N   0  0  0  0  0  0  0  0  0  0  0  0
  -31.8170  -14.9420   20.0390 O   0  0  0  0  0  0  0  0  0  0  0  0
  -29.7970  -15.9200   20.4890 N   0  0  0  0  0  0  0  0  0  0  0  0
  -28.8250  -15.6690   20.5800 H   0  0  0  0  0  0  0  0  0  0  0  0
  -25.2720  -13.8960   20.4310 C   0  0  0  0  0  0  0  0  0  0  0  0
  -24.2070  -13.1240   20.8050 C   0  0  0  0  0  0  0  0  0  0  0  0
  -24.6750  -11.7750   20.7890 C   0  0  0  0  0  0  0  0  0  0  0  0
  -26.3200  -13.0170   20.2030 N   0  0  0  0  0  0  0  0  0  0  0  0
  -25.9660  -11.7370   20.4820 N   0  0  0  0  0  0  0  0  0  0  0  0
  -23.9530  -10.5110   20.9890 C   0  0  0  0  0  0  0  0  0  0  0  0
  -24.3860   -9.5570   21.9340 C   0  0  0  0  0  3  0  0  0  0  0  0
  -23.6650   -8.3590   22.1230 C   0  0  0  0  0  3  0  0  0  0  0  0
  -22.4960   -8.1070   21.3660 C   0  0  0  0  0  0  0  0  0  0  0  0
  -22.0820   -9.0510   20.4110 C   0  0  0  0  0  3  0  0  0  0  0  0
  -22.8020  -10.2410   20.2190 C   0  0  0  0  0  3  0  0  0  0  0  0
  -21.7470   -6.9590   21.4590 O   0  0  0  0  0  0  0  0  0  0  0  0
  -21.6970   -6.2260   22.6190 C   0  0  0  0  0  0  0  0  0  0  0  0
  -21.2630   -6.7890   23.8380 C   0  0  0  0  0  3  0  0  0  0  0  0
  -21.1580   -5.9810   24.9890 C   0  0  0  0  0  3  0  0  0  0  0  0
  -21.4790   -4.6120   24.9210 C   0  0  0  0  0  0  0  0  0  0  0  0
  -21.9080   -4.0500   23.7050 C   0  0  0  0  0  3  0  0  0  0  0  0
  -22.0140   -4.8550   22.5580 C   0  0  0  0  0  0  0  0  0  0  0  0
  -22.4070   -4.3030   21.3850 F   0  0  0  0  0  0  0  0  0  0  0  0
  -21.3740   -3.8340   26.0240 F   0  0  0  0  0  0  0  0  0  0  0  0
  -22.8060  -13.6010   21.0620 C   0  0  0  0  0  0  0  0  0  0  0  0
  -22.0710  -12.9150   21.9290 N   0  0  0  0  0  0  0  0  0  0  0  0
  -22.3710  -14.6190   20.5280 O   0  0  0  0  0  0  0  0  0  0  0  0
  -22.4370  -12.0990   22.3980 H   0  0  0  0  0  0  0  0  0  0  0  0
  -21.1300  -13.2180   22.1340 H   0  0  0  0  0  0  0  0  0  0  0  0
  -25.4300  -15.2650   20.2420 N   0  0  0  0  0  0  0  0  0  0  0  0
  -24.6530  -15.9090   20.3420 H   0  0  0  0  0  0  0  0  0  0  0  0
  -26.2620  -15.7050   19.8730 H   0  0  0  0  0  0  0  0  0  0  0  0
  -29.3570  -23.9080   20.1390 C   0  0  0  0  0  3  0  0  0  0  0  0
  -28.1180  -24.9400   20.2030 C   0  0  0  0  0  3  0  0  0  0  0  0
  -28.3290  -26.4330   20.1920 O   0  0  0  0  0  0  0  0  0  0  0  0
  -24.6010  -31.9000   23.2300 C   0  0  0  0  0  0  0  0  0  0  0  0
  -27.2090  -27.3010   20.1690 C   0  0  0  0  0  0  0  0  0  0  0  0
  -23.3970  -30.4990   21.5930 C   0  0  0  0  0  3  0  0  0  0  0  0
  -24.8450  -28.9460   20.1660 C   0  0  0  0  0  0  0  0  0  0  0  0
  -25.9400  -30.8090   21.4080 C   0  0  0  0  0  2  0  0  0  0  0  0
  -26.0200  -29.4260   20.7600 C   0  0  0  0  0  0  0  0  0  0  0  0
  -27.2040  -28.6200   20.7450 C   0  0  0  0  0  3  0  0  0  0  0  0
  -26.0020  -26.8890   19.5570 C   0  0  0  0  0  3  0  0  0  0  0  0
  -24.8410  -27.6840   19.5560 C   0  0  0  0  0  3  0  0  0  0  0  0
  -23.6110  -29.8230   20.2130 C   0  0  0  0  0  2  0  0  0  0  0  0
  -24.6650  -31.0900   22.1320 N   0  0  0  0  0  0  0  0  0  0  0  0
  -23.5190  -32.1780   23.7660 O   0  0  0  0  0  0  0  0  0  0  0  0
  -22.7350  -29.4850   22.5570 C   0  0  0  0  0  0  0  0  0  0  0  0
  -21.4090  -29.3060   22.4330 N   0  0  0  0  0  0  0  0  0  0  0  0
  -23.4140  -28.8620   23.3780 O   0  0  0  0  0  0  0  0  0  0  0  0
  -20.9210  -29.8610   21.7440 H   0  0  0  0  0  0  0  0  0  0  0  0
  -18.0340  -28.1010   22.9450 C   0  0  0  0  0  0  0  0  0  0  0  0
  -20.5920  -28.3690   23.2070 C   0  0  0  0  0  3  0  0  0  0  0  0
  -20.6960  -26.9360   22.6340 C   0  0  0  0  0  2  0  0  0  0  0  0
  -19.5930  -26.6080   21.6220 C   0  0  0  0  0  2  0  0  0  0  0  0
  -18.2110  -26.7520   22.2690 C   0  0  0  0  0  2  0  0  0  0  0  0
  -19.1520  -28.8670   23.3700 C   0  0  0  0  0  0  0  0  0  0  0  0
  -18.9320  -30.1290   23.9620 C   0  0  0  0  0  3  0  0  0  0  0  0
  -17.6260  -30.6270   24.1320 C   0  0  0  0  0  3  0  0  0  0  0  0
  -16.5230  -29.8590   23.7200 C   0  0  0  0  0  3  0  0  0  0  0  0
  -16.7280  -28.5980   23.1340 C   0  0  0  0  0  3  0  0  0  0  0  0
  -25.8850  -32.5340   23.8500 C   0  0  0  0  0  3  0  0  0  0  0  0
  -26.4030  -31.7680   25.1290 C   0  0  1  0  0  0  0  0  0  0  0  0
  -25.3140  -31.5350   26.2010 C   0  0  0  0  0  1  0  0  0  0  0  0
  -26.9860  -30.3870   24.7430 C   0  0  0  0  0  1  0  0  0  0  0  0
  -27.5520  -32.5670   25.7890 C   0  0  0  0  0  1  0  0  0  0  0  0
  -25.5750  -33.9340   24.1790 N   0  0  0  0  0  0  0  0  0  0  0  0
  -25.9040  -34.9870   23.4220 C   0  0  0  0  0  0  0  0  0  0  0  0
  -26.5740  -34.8870   22.3900 O   0  0  0  0  0  0  0  0  0  0  0  0
  -24.9870  -34.0860   24.9850 H   0  0  0  0  0  0  0  0  0  0  0  0
  -24.1820  -36.7880   23.0620 C   0  0  0  0  0  1  0  0  0  0  0  0
  -25.4160  -36.3750   23.8810 C   0  0  0  0  0  3  0  0  0  0  0  0
  -27.5470  -37.2560   24.7280 C   0  0  0  0  0  1  0  0  0  0  0  0
  -26.4500  -37.4270   23.7780 N   0  0  0  0  0  0  0  0  0  0  0  0
  -26.0450  -38.3490   23.9230 H   0  0  0  0  0  0  0  0  0  0  0  0
  2  5  1  0
  2  3  2  0
  3  1  1  0
  4  1  2  0
  5  4  1  0
  8  6  1  6
  7  8  1  0
  8  5  1  0
  8  9  1  0
 10 18  1  0
 11 16  1  0
 12 13  1  0
 12 11  1  0
 14 13  1  0
 14 23  1  0
 14 15  1  0
 16 10  1  0
 16 15  1  0
 17 10  2  0
 18 19  1  0
 18  9  1  0
 20 21  2  0
 21 40  1  0
 22 21  1  0
 22 25  1  0
 23 20  1  0
 23 24  1  0
 24 22  2  0
 25 26  1  0
 26 27  2  0
 28 31  1  0
 28 27  1  0
 29 28  2  0
 30 29  1  0
 30 25  2  0
 31 32  1  0
 32 33  1  0
 33 34  2  0
 35 34  1  0
 35 39  1  0
 36 35  2  0
 37 32  2  0
 37 36  1  0
 38 37  1  0
 40 41  1  0
 41 44  1  0
 41 43  1  0
 42 40  2  0
 45 46  1  0
 45 20  1  0
 47 45  1  0
 48 49  2  0
 48  3  1  0
 50 49  1  0
 51 62  2  0
 52 50  1  0
 52 57  1  0
 53 61  1  0
 53 63  1  0
 54 60  1  0
 54 56  1  0
 55 61  1  0
 56 55  1  0
 57 56  2  0
 58 52  2  0
 59 58  1  0
 59 54  2  0
 60 53  1  0
 61 51  1  0
 63 65  2  0
 64 63  1  0
 66 64  1  0
 67 76  2  0
 67 72  1  0
 68 64  1  0
 68 72  1  0
 69 68  1  0
 70 71  1  0
 70 69  1  0
 71 67  1  0
 72 73  2  0
 73 74  1  0
 75 74  2  0
 76 75  1  0
 77 51  1  0
 77 82  1  0
 77 78  1  0
 78 81  1  1
 78 79  1  0
 80 78  1  0
 82 85  1  0
 83 87  1  0
 83 82  1  0
 84 83  2  0
 87 86  1  0
 89 87  1  0
 89 90  1  0
 89 88  1  0
M  ISO  4  10 100  18 100  49 101  50 101
M  END
>  <TORSDO>  (19) 
F 20

>  <SCORE>  (19) 
-13.910

>  <name>  (19) 
18

>  <ligand_id>  (19) 
18

>  <original_smiles>  (19) 
[H]c1nn(C(C([H])([H])[H])(C([H])([H])[H])C([H])([H])N([H])C(=O)N2C([H])([H])C([H])([H])C([H])([H])C([H])(n3nc(-c4c([H])c([H])c(Oc5c([H])c([H])c(F)c([H])c5F)c([H])c4[H])c(C(=O)N([H])[H])c3N([H])[H])C2([H])[H])c([H])c1C([H])([H])C([H])([H])Oc1c([H])c([H])c2c(c1[H])C([H])([H])N(C(=O)C([H])(N([H])C(=O)C([H])(N([H])C([H])([H])[H])C([H])([H])[H])C(C([H])([H])[H])(C([H])([H])[H])C([H])([H])[H])C([H])(C(=O)N([H])C1([H])c3c([H])c([H])c([H])c([H])c3C([H])([H])C([H])([H])C1([H])[H])C2([H])[H]

>  <smiles>  (19) 
[H]c1nn(C(C([H])([H])[H])(C([H])([H])[H])C([H])([H])N([H])C(=O)N2C([H])([H])C([H])([H])C([H])([H])C([H])(n3nc(-c4c([H])c([H])c(Oc5c([H])c([H])c(F)c([H])c5F)c([H])c4[H])c(C(=O)N([H])[H])c3N([H])[H])C2([H])[H])c([H])c1C([H])([H])C([H])([H])Oc1c([H])c([H])c2c(c1[H])C([H])([H])N(C(=O)C([H])(N([H])C(=O)C([H])(N([H])C([H])([H])[H])C([H])([H])[H])C(C([H])([H])[H])(C([H])([H])[H])C([H])([H])[H])C([H])(C(=O)N([H])C1([H])c3c([H])c([H])c([H])c([H])c3C([H])([H])C([H])([H])C1([H])[H])C2([H])[H]

$$$$
19:0:0
     RDKit          3D

 88 96  0  0  1  0  0  0  0  0999 V2000
  -30.3680  -21.5340   20.4250 C   0  0  0  0  0  3  0  0  0  0  0  0
  -30.1440  -22.9140   20.3510 C   0  0  0  0  0  0  0  0  0  0  0  0
  -28.7300  -23.1450   20.2170 C   0  0  0  0  0  0  0  0  0  0  0  0
  -31.2040  -23.9850   20.3930 C   0  0  0  0  0  1  0  0  0  0  0  0
  -28.2090  -21.8320   20.2060 N   0  0  0  0  0  0  0  0  0  0  0  0
  -29.1920  -20.7910   20.3220 N   0  0  0  0  0  0  0  0  0  0  0  0
  -27.8340  -24.5580   19.9990 C   0  0  0  0  0  2  0  0  0  0  0  0
  -28.1940  -26.0830   20.2530 O   0  0  0  0  0  0  0  0  0  0  0  0
  -24.6490  -31.8880   23.2740 C   0  0  0  0  0  0  0  0  0  0  0  0
  -27.1730  -27.1270   20.1940 C   0  0  0  0  0  0  0  0  0  0  0  0
  -23.4330  -30.5060   21.6400 C   0  0  0  0  0  3  0  0  0  0  0  0
  -24.8640  -28.9310   20.1920 C   0  0  0  0  0  0  0  0  0  0  0  0
  -25.9930  -30.7440   21.4640 C   0  0  0  0  0  2  0  0  0  0  0  0
  -26.0550  -29.3500   20.7990 C   0  0  0  0  0  0  0  0  0  0  0  0
  -27.2080  -28.4660   20.7820 C   0  0  0  0  0  3  0  0  0  0  0  0
  -25.9530  -26.8340   19.5390 C   0  0  0  0  0  3  0  0  0  0  0  0
  -24.8310  -27.6900   19.5450 C   0  0  0  0  0  3  0  0  0  0  0  0
  -23.6430  -29.8400   20.2560 C   0  0  0  0  0  2  0  0  0  0  0  0
  -24.7130  -31.0690   22.1790 N   0  0  0  0  0  0  0  0  0  0  0  0
  -23.5670  -32.1730   23.8090 O   0  0  0  0  0  0  0  0  0  0  0  0
  -22.7550  -29.4970   22.6020 C   0  0  0  0  0  0  0  0  0  0  0  0
  -21.4270  -29.3180   22.4740 N   0  0  0  0  0  0  0  0  0  0  0  0
  -23.4270  -28.8760   23.4290 O   0  0  0  0  0  0  0  0  0  0  0  0
  -20.9380  -29.8730   21.7850 H   0  0  0  0  0  0  0  0  0  0  0  0
  -18.0550  -28.0800   22.9640 C   0  0  0  0  0  0  0  0  0  0  0  0
  -20.6090  -28.3780   23.2480 C   0  0  0  0  0  3  0  0  0  0  0  0
  -20.7320  -26.9410   22.6890 C   0  0  0  0  0  2  0  0  0  0  0  0
  -19.6410  -26.5950   21.6700 C   0  0  0  0  0  2  0  0  0  0  0  0
  -18.2540  -26.7280   22.3020 C   0  0  0  0  0  2  0  0  0  0  0  0
  -19.1610  -28.8620   23.3950 C   0  0  0  0  0  0  0  0  0  0  0  0
  -18.9190  -30.1240   23.9780 C   0  0  0  0  0  3  0  0  0  0  0  0
  -17.6060  -30.6070   24.1340 C   0  0  0  0  0  3  0  0  0  0  0  0
  -16.5160  -29.8240   23.7170 C   0  0  0  0  0  3  0  0  0  0  0  0
  -16.7420  -28.5640   23.1370 C   0  0  0  0  0  3  0  0  0  0  0  0
  -25.9310  -32.5180   23.8970 C   0  0  0  0  0  3  0  0  0  0  0  0
  -26.4400  -31.7520   25.1800 C   0  0  1  0  0  0  0  0  0  0  0  0
  -25.3440  -31.5310   26.2480 C   0  0  0  0  0  1  0  0  0  0  0  0
  -27.0140  -30.3660   24.8040 C   0  0  0  0  0  1  0  0  0  0  0  0
  -27.5940  -32.5440   25.8380 C   0  0  0  0  0  1  0  0  0  0  0  0
  -25.6260  -33.9190   24.2270 N   0  0  0  0  0  0  0  0  0  0  0  0
  -25.9330  -34.9720   23.4590 C   0  0  0  0  0  0  0  0  0  0  0  0
  -26.5700  -34.8690   22.4080 O   0  0  0  0  0  0  0  0  0  0  0  0
  -25.0560  -34.0750   25.0470 H   0  0  0  0  0  0  0  0  0  0  0  0
  -24.1830  -36.7610   23.1820 C   0  0  0  0  0  1  0  0  0  0  0  0
  -25.4640  -36.3630   23.9330 C   0  0  0  0  0  3  0  0  0  0  0  0
  -27.6280  -37.2680   24.6570 C   0  0  0  0  0  1  0  0  0  0  0  0
  -26.4840  -37.4200   23.7630 N   0  0  0  0  0  0  0  0  0  0  0  0
  -26.0790  -38.3390   23.9200 H   0  0  0  0  0  0  0  0  0  0  0  0
  -28.9120  -19.1980   20.3910 C   0  0  0  0  0  3  0  0  0  0  0  0
  -30.0250  -17.8830   20.3220 C   0  0  0  0  0  3  0  0  0  0  0  0
  -30.4610  -15.0940   20.2900 C   0  0  0  0  0  0  0  0  0  0  0  0
  -30.3590  -12.7150   19.3700 C   0  0  0  0  0  2  0  0  0  0  0  0
  -29.4230  -12.6300   18.1400 C   0  0  0  0  0  2  0  0  0  0  0  0
  -27.9640  -12.4080   18.5810 C   0  0  0  0  0  2  0  0  0  0  0  0
  -27.5510  -13.3370   19.7530 C   0  0  0  0  0  3  0  0  0  0  0  0
  -28.6140  -13.3860   20.8730 C   0  0  0  0  0  2  0  0  0  0  0  0
  -29.8690  -13.8240   20.2470 N   0  0  0  0  0  0  0  0  0  0  0  0
  -31.6640  -15.1400   20.0130 O   0  0  0  0  0  0  0  0  0  0  0  0
  -29.6920  -16.3060   20.4350 N   0  0  0  0  0  0  0  0  0  0  0  0
  -28.7190  -16.1160   20.6270 H   0  0  0  0  0  0  0  0  0  0  0  0
  -25.1820  -13.8930   20.5350 C   0  0  0  0  0  0  0  0  0  0  0  0
  -24.1260  -13.1100   20.9100 C   0  0  0  0  0  0  0  0  0  0  0  0
  -24.5960  -11.7610   20.8580 C   0  0  0  0  0  0  0  0  0  0  0  0
  -26.2240  -13.0230   20.2670 N   0  0  0  0  0  0  0  0  0  0  0  0
  -25.8830  -11.7340   20.5310 N   0  0  0  0  0  0  0  0  0  0  0  0
  -23.8740  -10.4940   21.0370 C   0  0  0  0  0  0  0  0  0  0  0  0
  -24.3000   -9.5250   21.9710 C   0  0  0  0  0  3  0  0  0  0  0  0
  -23.5750   -8.3260   22.1410 C   0  0  0  0  0  3  0  0  0  0  0  0
  -22.4080   -8.0880   21.3750 C   0  0  0  0  0  0  0  0  0  0  0  0
  -22.0010   -9.0460   20.4300 C   0  0  0  0  0  3  0  0  0  0  0  0
  -22.7280  -10.2370   20.2580 C   0  0  0  0  0  3  0  0  0  0  0  0
  -21.6550   -6.9420   21.4550 O   0  0  0  0  0  0  0  0  0  0  0  0
  -21.5770   -6.2100   22.6120 C   0  0  0  0  0  0  0  0  0  0  0  0
  -21.0930   -6.7680   23.8160 C   0  0  0  0  0  3  0  0  0  0  0  0
  -20.9650   -5.9610   24.9640 C   0  0  0  0  0  3  0  0  0  0  0  0
  -21.3110   -4.5970   24.9100 C   0  0  0  0  0  0  0  0  0  0  0  0
  -21.7860   -4.0390   23.7100 C   0  0  0  0  0  3  0  0  0  0  0  0
  -21.9150   -4.8430   22.5650 C   0  0  0  0  0  0  0  0  0  0  0  0
  -22.3540   -4.2940   21.4060 F   0  0  0  0  0  0  0  0  0  0  0  0
  -21.1810   -3.8200   26.0100 F   0  0  0  0  0  0  0  0  0  0  0  0
  -22.7310  -13.5810   21.1980 C   0  0  0  0  0  0  0  0  0  0  0  0
  -22.0100  -12.8780   22.0650 N   0  0  0  0  0  0  0  0  0  0  0  0
  -22.2880  -14.6100   20.6910 O   0  0  0  0  0  0  0  0  0  0  0  0
  -22.3790  -12.0460   22.5010 H   0  0  0  0  0  0  0  0  0  0  0  0
  -21.0750  -13.1810   22.2990 H   0  0  0  0  0  0  0  0  0  0  0  0
  -25.3350  -15.2670   20.3710 N   0  0  0  0  0  0  0  0  0  0  0  0
  -24.5560  -15.9060   20.4960 H   0  0  0  0  0  0  0  0  0  0  0  0
  -26.1550  -15.7190   19.9890 H   0  0  0  0  0  0  0  0  0  0  0  0
  2  4  1  0
  2  1  2  0
  3  2  1  0
  5  3  2  0
  5  6  1  0
  6 49  1  0
  6  1  1  0
  7  3  1  0
  7  8  1  0
  9 20  2  0
 10  8  1  0
 10 15  1  0
 11 19  1  0
 11 21  1  0
 12 18  1  0
 12 14  1  0
 13 19  1  0
 14 13  1  0
 15 14  2  0
 16 17  1  0
 16 10  2  0
 17 12  2  0
 18 11  1  0
 19  9  1  0
 21 23  2  0
 22 21  1  0
 24 22  1  0
 25 34  2  0
 25 30  1  0
 26 22  1  0
 26 30  1  0
 27 26  1  0
 28 29  1  0
 28 27  1  0
 29 25  1  0
 30 31  2  0
 31 32  1  0
 33 32  2  0
 34 33  1  0
 35  9  1  0
 35 40  1  0
 35 36  1  0
 36 39  1  1
 36 37  1  0
 38 36  1  0
 40 43  1  0
 41 45  1  0
 41 40  1  0
 42 41  2  0
 45 44  1  0
 47 48  1  0
 47 45  1  0
 47 46  1  0
 50 49  2  0
 50 59  1  0
 51 59  1  0
 52 57  1  0
 53 54  1  0
 53 52  1  0
 55 54  1  0
 55 64  1  0
 55 56  1  0
 57 51  1  0
 57 56  1  0
 58 51  2  0
 59 60  1  0
 61 62  2  0
 62 81  1  0
 63 62  1  0
 63 66  1  0
 64 65  1  0
 64 61  1  0
 65 63  2  0
 66 67  1  0
 67 68  2  0
 69 72  1  0
 69 68  1  0
 70 69  2  0
 71 70  1  0
 71 66  2  0
 72 73  1  0
 73 74  1  0
 74 75  2  0
 76 75  1  0
 76 80  1  0
 77 76  2  0
 78 73  2  0
 78 77  1  0
 79 78  1  0
 81 82  1  0
 82 85  1  0
 82 84  1  0
 83 81  2  0
 86 87  1  0
 86 61  1  0
 88 86  1  0
M  ISO  4   7 101   8 101  51 100  59 100
M  END
>  <TORSDO>  (20) 
F 19

>  <SCORE>  (20) 
-14.917

>  <name>  (20) 
19

>  <ligand_id>  (20) 
19

>  <original_smiles>  (20) 
[H]c1c([H])c([H])c2c(c1[H])C([H])([H])C([H])([H])C([H])([H])C2([H])N([H])C(=O)C1([H])N(C(=O)C([H])(N([H])C(=O)C([H])(N([H])C([H])([H])[H])C([H])([H])[H])C(C([H])([H])[H])(C([H])([H])[H])C([H])([H])[H])C([H])([H])c2c([H])c(OC([H])([H])c3nn(C([H])([H])C([H])([H])N([H])C(=O)N4C([H])([H])C([H])([H])C([H])([H])C([H])(n5nc(-c6c([H])c([H])c(Oc7c([H])c([H])c(F)c([H])c7F)c([H])c6[H])c(C(=O)N([H])[H])c5N([H])[H])C4([H])[H])c([H])c3C([H])([H])[H])c([H])c([H])c2C1([H])[H]

>  <smiles>  (20) 
[H]c1c([H])c([H])c2c(c1[H])C([H])([H])C([H])([H])C([H])([H])C2([H])N([H])C(=O)C1([H])N(C(=O)C([H])(N([H])C(=O)C([H])(N([H])C([H])([H])[H])C([H])([H])[H])C(C([H])([H])[H])(C([H])([H])[H])C([H])([H])[H])C([H])([H])c2c([H])c(OC([H])([H])c3nn(C([H])([H])C([H])([H])N([H])C(=O)N4C([H])([H])C([H])([H])C([H])([H])C([H])(n5nc(-c6c([H])c([H])c(Oc7c([H])c([H])c(F)c([H])c7F)c([H])c6[H])c(C(=O)N([H])[H])c5N([H])[H])C4([H])[H])c([H])c3C([H])([H])[H])c([H])c([H])c2C1([H])[H]

$$$$
20:0:0
     RDKit          3D

 90 98  0  0  1  0  0  0  0  0999 V2000
  -28.7660  -18.9230   20.8540 C   0  0  0  0  0  3  0  0  0  0  0  0
  -29.7650  -18.4230   19.9720 C   0  0  0  0  0  0  0  0  0  0  0  0
  -30.0900  -20.6300   19.2260 C   0  0  0  0  0  0  0  0  0  0  0  0
  -29.0390  -21.1230   20.0510 C   0  0  0  0  0  0  0  0  0  0  0  0
  -30.7960  -21.5050   18.2090 C   0  0  0  0  0  1  0  0  0  0  0  0
  -28.4200  -20.2510   20.9010 N   0  0  0  0  0  0  0  0  0  0  0  0
  -30.4500  -19.3130   19.2030 N   0  0  0  0  0  0  0  0  0  0  0  0
  -28.3370  -22.5020   19.8030 C   0  0  0  0  0  2  0  0  0  0  0  0
  -28.8970  -23.8920   20.3230 C   0  0  0  0  0  2  0  0  0  0  0  0
  -27.9650  -25.0850   19.8640 C   0  0  0  0  0  2  0  0  0  0  0  0
  -28.2480  -26.5080   20.1390 O   0  0  0  0  0  0  0  0  0  0  0  0
  -24.6330  -31.9300   23.2030 C   0  0  0  0  0  0  0  0  0  0  0  0
  -27.1480  -27.3780   20.0810 C   0  0  0  0  0  0  0  0  0  0  0  0
  -23.3850  -30.5340   21.5980 C   0  0  0  0  0  3  0  0  0  0  0  0
  -24.7910  -28.9970   20.1300 C   0  0  0  0  0  0  0  0  0  0  0  0
  -25.9210  -30.8490   21.3500 C   0  0  0  0  0  2  0  0  0  0  0  0
  -25.9780  -29.4760   20.6990 C   0  0  0  0  0  0  0  0  0  0  0  0
  -27.1600  -28.6800   20.6670 C   0  0  0  0  0  3  0  0  0  0  0  0
  -25.9400  -26.9660   19.4640 C   0  0  0  0  0  3  0  0  0  0  0  0
  -24.7750  -27.7460   19.5030 C   0  0  0  0  0  3  0  0  0  0  0  0
  -23.5600  -29.8700   20.2100 C   0  0  0  0  0  2  0  0  0  0  0  0
  -24.6660  -31.1210   22.1060 N   0  0  0  0  0  0  0  0  0  0  0  0
  -23.5650  -32.2100   23.7650 O   0  0  0  0  0  0  0  0  0  0  0  0
  -22.7510  -29.5090   22.5700 C   0  0  0  0  0  0  0  0  0  0  0  0
  -21.4280  -29.3060   22.4540 N   0  0  0  0  0  0  0  0  0  0  0  0
  -23.4470  -28.9020   23.3900 O   0  0  0  0  0  0  0  0  0  0  0  0
  -20.9250  -29.8510   21.7680 H   0  0  0  0  0  0  0  0  0  0  0  0
  -18.0790  -28.0460   22.9690 C   0  0  0  0  0  0  0  0  0  0  0  0
  -20.6290  -28.3660   23.2400 C   0  0  0  0  0  3  0  0  0  0  0  0
  -20.7660  -26.9250   22.6970 C   0  0  0  0  0  2  0  0  0  0  0  0
  -19.6760  -26.5560   21.6870 C   0  0  0  0  0  2  0  0  0  0  0  0
  -18.2890  -26.6840   22.3250 C   0  0  0  0  0  2  0  0  0  0  0  0
  -19.1790  -28.8410   23.3850 C   0  0  0  0  0  0  0  0  0  0  0  0
  -18.9320  -30.1140   23.9470 C   0  0  0  0  0  3  0  0  0  0  0  0
  -17.6170  -30.5870   24.1030 C   0  0  0  0  0  3  0  0  0  0  0  0
  -16.5300  -29.7880   23.7070 C   0  0  0  0  0  3  0  0  0  0  0  0
  -16.7610  -28.5210   23.1420 C   0  0  0  0  0  3  0  0  0  0  0  0
  -25.9350  -32.5600   23.7880 C   0  0  0  0  0  3  0  0  0  0  0  0
  -26.4850  -31.7930   25.0530 C   0  0  1  0  0  0  0  0  0  0  0  0
  -25.4160  -31.5500   26.1440 C   0  0  0  0  0  1  0  0  0  0  0  0
  -27.0710  -30.4180   24.6540 C   0  0  0  0  0  1  0  0  0  0  0  0
  -27.6460  -32.5950   25.6890 C   0  0  0  0  0  1  0  0  0  0  0  0
  -25.6360  -33.9590   24.1200 N   0  0  0  0  0  0  0  0  0  0  0  0
  -25.9360  -35.0090   23.3430 C   0  0  0  0  0  0  0  0  0  0  0  0
  -26.5670  -34.9020   22.2880 O   0  0  0  0  0  0  0  0  0  0  0  0
  -25.0750  -34.1180   24.9430 H   0  0  0  0  0  0  0  0  0  0  0  0
  -24.1840  -36.7930   23.0520 C   0  0  0  0  0  1  0  0  0  0  0  0
  -25.4600  -36.3980   23.8120 C   0  0  0  0  0  3  0  0  0  0  0  0
  -27.6230  -37.3000   24.5490 C   0  0  0  0  0  1  0  0  0  0  0  0
  -26.4820  -37.4550   23.6490 N   0  0  0  0  0  0  0  0  0  0  0  0
  -26.0770  -38.3720   23.8110 H   0  0  0  0  0  0  0  0  0  0  0  0
  -29.9490  -16.9190   19.5630 C   0  0  0  0  0  2  0  0  0  0  0  0
  -30.8040  -14.6430   20.0990 C   0  0  0  0  0  0  0  0  0  0  0  0
  -30.4490  -12.4730   18.9440 C   0  0  0  0  0  2  0  0  0  0  0  0
  -29.4660  -12.6720   17.7680 C   0  0  0  0  0  2  0  0  0  0  0  0
  -28.0100  -12.5230   18.2500 C   0  0  0  0  0  2  0  0  0  0  0  0
  -27.7170  -13.3500   19.5290 C   0  0  0  0  0  3  0  0  0  0  0  0
  -28.8140  -13.1430   20.5980 C   0  0  0  0  0  2  0  0  0  0  0  0
  -30.1090  -13.4670   19.9830 N   0  0  0  0  0  0  0  0  0  0  0  0
  -31.9210  -14.7710   19.5880 O   0  0  0  0  0  0  0  0  0  0  0  0
  -29.9060  -15.9980   21.9330 C   0  0  0  0  0  1  0  0  0  0  0  0
  -30.1080  -15.7550   20.5030 N   0  0  0  0  0  0  0  0  0  0  0  0
  -25.3520  -13.9570   20.3270 C   0  0  0  0  0  0  0  0  0  0  0  0
  -24.2950  -13.1850   20.7270 C   0  0  0  0  0  0  0  0  0  0  0  0
  -24.7510  -11.8310   20.6780 C   0  0  0  0  0  0  0  0  0  0  0  0
  -26.3850  -13.0730   20.0560 N   0  0  0  0  0  0  0  0  0  0  0  0
  -26.0310  -11.7900   20.3250 N   0  0  0  0  0  0  0  0  0  0  0  0
  -24.0280  -10.5710   20.8870 C   0  0  0  0  0  0  0  0  0  0  0  0
  -24.4600   -9.6200   21.8380 C   0  0  0  0  0  3  0  0  0  0  0  0
  -23.7360   -8.4250   22.0340 C   0  0  0  0  0  3  0  0  0  0  0  0
  -22.5670   -8.1710   21.2790 C   0  0  0  0  0  0  0  0  0  0  0  0
  -22.1550   -9.1100   20.3170 C   0  0  0  0  0  3  0  0  0  0  0  0
  -22.8800  -10.2970   20.1190 C   0  0  0  0  0  3  0  0  0  0  0  0
  -21.8150   -7.0260   21.3840 O   0  0  0  0  0  0  0  0  0  0  0  0
  -21.7190   -6.3330   22.5640 C   0  0  0  0  0  0  0  0  0  0  0  0
  -21.2310   -6.9330   23.7440 C   0  0  0  0  0  3  0  0  0  0  0  0
  -21.0830   -6.1640   24.9160 C   0  0  0  0  0  3  0  0  0  0  0  0
  -21.4160   -4.7970   24.9090 C   0  0  0  0  0  0  0  0  0  0  0  0
  -21.8990   -4.1970   23.7330 C   0  0  0  0  0  3  0  0  0  0  0  0
  -22.0480   -4.9620   22.5620 C   0  0  0  0  0  0  0  0  0  0  0  0
  -22.4920   -4.3730   21.4270 F   0  0  0  0  0  0  0  0  0  0  0  0
  -21.2690   -4.0560   26.0320 F   0  0  0  0  0  0  0  0  0  0  0  0
  -22.9090  -13.6660   21.0480 C   0  0  0  0  0  0  0  0  0  0  0  0
  -22.2110  -12.9730   21.9400 N   0  0  0  0  0  0  0  0  0  0  0  0
  -22.4560  -14.6930   20.5430 O   0  0  0  0  0  0  0  0  0  0  0  0
  -22.5910  -12.1420   22.3700 H   0  0  0  0  0  0  0  0  0  0  0  0
  -21.2830  -13.2770   22.1970 H   0  0  0  0  0  0  0  0  0  0  0  0
  -25.5150  -15.3270   20.1500 N   0  0  0  0  0  0  0  0  0  0  0  0
  -24.7520  -15.9830   20.2850 H   0  0  0  0  0  0  0  0  0  0  0  0
  -26.3590  -15.7670   19.8060 H   0  0  0  0  0  0  0  0  0  0  0  0
  1  6  1  0
  2  1  2  0
  3  4  1  0
  4  6  2  0
  5  3  1  0
  7  3  2  0
  7  2  1  0
  8  4  1  0
  8  9  1  0
 10 11  1  0
 10  9  1  0
 12 23  2  0
 13 11  1  0
 13 18  1  0
 14 22  1  0
 14 24  1  0
 15 21  1  0
 15 17  1  0
 16 22  1  0
 17 16  1  0
 18 17  2  0
 19 20  1  0
 19 13  2  0
 20 15  2  0
 21 14  1  0
 22 12  1  0
 24 26  2  0
 25 24  1  0
 27 25  1  0
 28 37  2  0
 28 33  1  0
 29 25  1  0
 29 33  1  0
 30 29  1  0
 31 32  1  0
 31 30  1  0
 32 28  1  0
 33 34  2  0
 34 35  1  0
 36 35  2  0
 37 36  1  0
 38 12  1  0
 38 43  1  0
 38 39  1  0
 39 42  1  1
 39 40  1  0
 41 39  1  0
 43 46  1  0
 44 48  1  0
 44 43  1  0
 45 44  2  0
 48 47  1  0
 50 51  1  0
 50 48  1  0
 50 49  1  0
 52  2  1  0
 52 62  1  0
 53 62  1  0
 54 59  1  0
 55 56  1  0
 55 54  1  0
 57 56  1  0
 57 66  1  0
 57 58  1  0
 59 53  1  0
 59 58  1  0
 60 53  2  0
 62 61  1  0
 63 64  2  0
 64 83  1  0
 65 64  1  0
 65 68  1  0
 66 67  1  0
 66 63  1  0
 67 65  2  0
 68 69  1  0
 69 70  2  0
 71 74  1  0
 71 70  1  0
 72 71  2  0
 73 72  1  0
 73 68  2  0
 74 75  1  0
 75 76  1  0
 76 77  2  0
 78 77  1  0
 78 82  1  0
 79 78  2  0
 80 75  2  0
 80 79  1  0
 81 80  1  0
 83 84  1  0
 84 87  1  0
 84 86  1  0
 85 83  2  0
 88 89  1  0
 88 63  1  0
 90 88  1  0
M  ISO  4  10 101  11 101  53 100  62 100
M  END
>  <TORSDO>  (21) 
F 20

>  <SCORE>  (21) 
-13.220

>  <name>  (21) 
20

>  <ligand_id>  (21) 
20

>  <original_smiles>  (21) 
[H]c1nc(C([H])([H])C([H])([H])C([H])([H])Oc2c([H])c([H])c3c(c2[H])C([H])([H])N(C(=O)C([H])(N([H])C(=O)C([H])(N([H])C([H])([H])[H])C([H])([H])[H])C(C([H])([H])[H])(C([H])([H])[H])C([H])([H])[H])C([H])(C(=O)N([H])C2([H])c4c([H])c([H])c([H])c([H])c4C([H])([H])C([H])([H])C2([H])[H])C3([H])[H])c(C([H])([H])[H])nc1C([H])([H])N(C(=O)N1C([H])([H])C([H])([H])C([H])([H])C([H])(n2nc(-c3c([H])c([H])c(Oc4c([H])c([H])c(F)c([H])c4F)c([H])c3[H])c(C(=O)N([H])[H])c2N([H])[H])C1([H])[H])C([H])([H])[H]

>  <smiles>  (21) 
[H]c1nc(C([H])([H])C([H])([H])C([H])([H])Oc2c([H])c([H])c3c(c2[H])C([H])([H])N(C(=O)C([H])(N([H])C(=O)C([H])(N([H])C([H])([H])[H])C([H])([H])[H])C(C([H])([H])[H])(C([H])([H])[H])C([H])([H])[H])C([H])(C(=O)N([H])C2([H])c4c([H])c([H])c([H])c([H])c4C([H])([H])C([H])([H])C2([H])[H])C3([H])[H])c(C([H])([H])[H])nc1C([H])([H])N(C(=O)N1C([H])([H])C([H])([H])C([H])([H])C([H])(n2nc(-c3c([H])c([H])c(Oc4c([H])c([H])c(F)c([H])c4F)c([H])c3[H])c(C(=O)N([H])[H])c2N([H])[H])C1([H])[H])C([H])([H])[H]

$$$$
21:0:0
     RDKit          3D

 87 95  0  0  1  0  0  0  0  0999 V2000
  -29.0470  -21.3290   19.5050 C   0  0  0  0  0  3  0  0  0  0  0  0
  -29.5600  -22.2910   21.3300 C   0  0  0  0  0  3  0  0  0  0  0  0
  -28.9300  -22.7200   20.1730 C   0  0  0  0  0  0  0  0  0  0  0  0
  -29.6690  -20.1780   20.1820 C   0  0  0  0  0  0  0  0  0  0  0  0
  -30.6890  -20.3280   22.4700 C   0  0  0  0  0  1  0  0  0  0  0  0
  -29.9780  -20.9110   21.3470 N   0  0  0  0  0  0  0  0  0  0  0  0
  -28.1190  -24.2970   19.8090 C   0  0  0  0  0  2  0  0  0  0  0  0
  -28.3170  -25.9210   20.1630 O   0  0  0  0  0  0  0  0  0  0  0  0
  -24.6410  -31.8440   23.1850 C   0  0  0  0  0  0  0  0  0  0  0  0
  -27.3020  -27.0380   20.0800 C   0  0  0  0  0  0  0  0  0  0  0  0
  -23.4740  -30.4400   21.5360 C   0  0  0  0  0  3  0  0  0  0  0  0
  -24.9560  -28.8910   20.0750 C   0  0  0  0  0  0  0  0  0  0  0  0
  -26.0350  -30.7100   21.3750 C   0  0  0  0  0  2  0  0  0  0  0  0
  -26.1380  -29.3080   20.6990 C   0  0  0  0  0  0  0  0  0  0  0  0
  -27.3010  -28.4020   20.6800 C   0  0  0  0  0  3  0  0  0  0  0  0
  -26.0880  -26.7960   19.3950 C   0  0  0  0  0  3  0  0  0  0  0  0
  -24.9600  -27.6600   19.4000 C   0  0  0  0  0  3  0  0  0  0  0  0
  -23.7140  -29.7830   20.1470 C   0  0  0  0  0  2  0  0  0  0  0  0
  -24.7380  -31.0260   22.0860 N   0  0  0  0  0  0  0  0  0  0  0  0
  -23.5470  -32.0960   23.7190 O   0  0  0  0  0  0  0  0  0  0  0  0
  -22.8120  -29.4150   22.4950 C   0  0  0  0  0  0  0  0  0  0  0  0
  -21.4940  -29.1780   22.3470 N   0  0  0  0  0  0  0  0  0  0  0  0
  -23.4920  -28.8300   23.3410 O   0  0  0  0  0  0  0  0  0  0  0  0
  -20.9920  -29.7040   21.6440 H   0  0  0  0  0  0  0  0  0  0  0  0
  -18.1860  -27.7440   22.7630 C   0  0  0  0  0  0  0  0  0  0  0  0
  -20.7090  -28.2010   23.1110 C   0  0  0  0  0  3  0  0  0  0  0  0
  -20.9340  -26.7690   22.5740 C   0  0  0  0  0  2  0  0  0  0  0  0
  -19.8970  -26.3460   21.5290 C   0  0  0  0  0  2  0  0  0  0  0  0
  -18.4850  -26.4010   22.1190 C   0  0  0  0  0  2  0  0  0  0  0  0
  -19.2290  -28.5950   23.2140 C   0  0  0  0  0  0  0  0  0  0  0  0
  -18.8940  -29.8460   23.7780 C   0  0  0  0  0  3  0  0  0  0  0  0
  -17.5500  -30.2480   23.8920 C   0  0  0  0  0  3  0  0  0  0  0  0
  -16.5210  -29.3970   23.4530 C   0  0  0  0  0  3  0  0  0  0  0  0
  -16.8400  -28.1460   22.8950 C   0  0  0  0  0  3  0  0  0  0  0  0
  -25.8960  -32.5170   23.8160 C   0  0  0  0  0  3  0  0  0  0  0  0
  -25.5500  -33.9100   24.1490 N   0  0  0  0  0  0  0  0  0  0  0  0
  -25.8620  -34.9800   23.4050 C   0  0  0  0  0  0  0  0  0  0  0  0
  -26.5330  -34.8990   22.3730 O   0  0  0  0  0  0  0  0  0  0  0  0
  -24.9570  -34.0450   24.9540 H   0  0  0  0  0  0  0  0  0  0  0  0
  -24.1010  -36.7490   23.0770 C   0  0  0  0  0  1  0  0  0  0  0  0
  -25.3520  -36.3580   23.8780 C   0  0  0  0  0  3  0  0  0  0  0  0
  -27.4680  -37.2850   24.7120 C   0  0  0  0  0  1  0  0  0  0  0  0
  -26.3640  -37.4320   23.7680 N   0  0  0  0  0  0  0  0  0  0  0  0
  -25.9380  -38.3440   23.9160 H   0  0  0  0  0  0  0  0  0  0  0  0
  -26.4150  -31.7670   25.1060 C   0  0  1  0  0  0  0  0  0  0  0  0
  -25.3180  -31.5210   26.1680 C   0  0  0  0  0  1  0  0  0  0  0  0
  -27.0260  -30.3960   24.7390 C   0  0  0  0  0  1  0  0  0  0  0  0
  -27.5460  -32.5890   25.7690 C   0  0  0  0  0  1  0  0  0  0  0  0
  -30.2920  -18.5370   19.8230 C   0  0  0  0  0  2  0  0  0  0  0  0
  -30.6700  -15.5860   20.0390 C   0  0  0  0  0  0  0  0  0  0  0  0
  -30.6130  -13.1070   19.2050 C   0  0  0  0  0  2  0  0  0  0  0  0
  -29.6750  -12.8480   17.9990 C   0  0  0  0  0  2  0  0  0  0  0  0
  -28.2410  -12.5700   18.4770 C   0  0  0  0  0  2  0  0  0  0  0  0
  -27.8060  -13.5600   19.5850 C   0  0  0  0  0  3  0  0  0  0  0  0
  -28.8730  -13.7640   20.6830 C   0  0  0  0  0  2  0  0  0  0  0  0
  -30.0840  -14.2750   20.0150 N   0  0  0  0  0  0  0  0  0  0  0  0
  -31.8810  -15.5380   19.7750 O   0  0  0  0  0  0  0  0  0  0  0  0
  -29.9570  -16.9070   20.1510 N   0  0  0  0  0  0  0  0  0  0  0  0
  -28.9810  -16.7710   20.3640 H   0  0  0  0  0  0  0  0  0  0  0  0
  -25.4640  -14.1330   20.4060 C   0  0  0  0  0  0  0  0  0  0  0  0
  -24.4020  -13.3660   20.7910 C   0  0  0  0  0  0  0  0  0  0  0  0
  -24.8520  -12.0100   20.7350 C   0  0  0  0  0  0  0  0  0  0  0  0
  -26.4900  -13.2490   20.1280 N   0  0  0  0  0  0  0  0  0  0  0  0
  -26.1360  -11.9630   20.3940 N   0  0  0  0  0  0  0  0  0  0  0  0
  -24.1120  -10.7560   20.9280 C   0  0  0  0  0  0  0  0  0  0  0  0
  -24.5210   -9.7940   21.8780 C   0  0  0  0  0  3  0  0  0  0  0  0
  -23.7800   -8.6070   22.0600 C   0  0  0  0  0  3  0  0  0  0  0  0
  -22.6140   -8.3720   21.2920 C   0  0  0  0  0  0  0  0  0  0  0  0
  -22.2240   -9.3230   20.3320 C   0  0  0  0  0  3  0  0  0  0  0  0
  -22.9660  -10.5000   20.1480 C   0  0  0  0  0  3  0  0  0  0  0  0
  -21.8460   -7.2370   21.3830 O   0  0  0  0  0  0  0  0  0  0  0  0
  -21.7300   -6.5390   22.5580 C   0  0  0  0  0  0  0  0  0  0  0  0
  -21.2150   -7.1340   23.7310 C   0  0  0  0  0  3  0  0  0  0  0  0
  -21.0470   -6.3610   24.8970 C   0  0  0  0  0  3  0  0  0  0  0  0
  -21.3850   -4.9940   24.8910 C   0  0  0  0  0  0  0  0  0  0  0  0
  -21.8920   -4.3990   23.7220 C   0  0  0  0  0  3  0  0  0  0  0  0
  -22.0610   -5.1690   22.5590 C   0  0  0  0  0  0  0  0  0  0  0  0
  -22.5320   -4.5870   21.4300 F   0  0  0  0  0  0  0  0  0  0  0  0
  -21.2170   -4.2490   26.0080 F   0  0  0  0  0  0  0  0  0  0  0  0
  -23.0180  -13.8590   21.0930 C   0  0  0  0  0  0  0  0  0  0  0  0
  -22.3060  -13.1750   21.9800 N   0  0  0  0  0  0  0  0  0  0  0  0
  -22.5810  -14.8870   20.5780 O   0  0  0  0  0  0  0  0  0  0  0  0
  -22.6760  -12.3420   22.4150 H   0  0  0  0  0  0  0  0  0  0  0  0
  -21.3780  -13.4870   22.2300 H   0  0  0  0  0  0  0  0  0  0  0  0
  -25.6400  -15.5030   20.2370 N   0  0  0  0  0  0  0  0  0  0  0  0
  -24.8780  -16.1610   20.3680 H   0  0  0  0  0  0  0  0  0  0  0  0
  -26.4730  -15.9330   19.8610 H   0  0  0  0  0  0  0  0  0  0  0  0
  1  3  1  0
  1  4  2  0
  2  6  1  0
  3  2  2  0
  4  6  1  0
  6  5  1  0
  7  8  1  0
  7  3  1  0
  9 20  2  0
 10  8  1  0
 10 15  1  0
 11 19  1  0
 11 21  1  0
 12 18  1  0
 12 14  1  0
 13 19  1  0
 14 13  1  0
 15 14  2  0
 16 17  1  0
 16 10  2  0
 17 12  2  0
 18 11  1  0
 19  9  1  0
 21 23  2  0
 22 21  1  0
 24 22  1  0
 25 34  2  0
 25 30  1  0
 26 22  1  0
 26 30  1  0
 27 26  1  0
 28 29  1  0
 28 27  1  0
 29 25  1  0
 30 31  2  0
 31 32  1  0
 33 32  2  0
 34 33  1  0
 35  9  1  0
 35 36  1  0
 35 45  1  0
 36 39  1  0
 37 41  1  0
 37 36  1  0
 38 37  2  0
 41 40  1  0
 43 41  1  0
 43 44  1  0
 43 42  1  0
 45 48  1  1
 45 46  1  0
 47 45  1  0
 49 58  1  0
 49  4  1  0
 50 58  1  0
 51 56  1  0
 52 53  1  0
 52 51  1  0
 54 53  1  0
 54 63  1  0
 54 55  1  0
 56 50  1  0
 56 55  1  0
 57 50  2  0
 58 59  1  0
 60 61  2  0
 61 80  1  0
 62 61  1  0
 62 65  1  0
 63 64  1  0
 63 60  1  0
 64 62  2  0
 65 66  1  0
 66 67  2  0
 68 71  1  0
 68 67  1  0
 69 68  2  0
 70 69  1  0
 70 65  2  0
 71 72  1  0
 72 77  2  0
 72 73  1  0
 73 74  2  0
 75 74  1  0
 75 79  1  0
 76 75  2  0
 77 76  1  0
 78 77  1  0
 80 81  1  0
 81 84  1  0
 81 83  1  0
 82 80  2  0
 85 86  1  0
 85 60  1  0
 87 85  1  0
M  ISO  4   7 101   8 101  50 100  58 100
M  END
>  <TORSDO>  (22) 
F 18

>  <SCORE>  (22) 
-16.309

>  <name>  (22) 
21

>  <ligand_id>  (22) 
21

>  <original_smiles>  (22) 
[H]c1c([H])c([H])c2c(c1[H])C([H])([H])C([H])([H])C([H])([H])C2([H])N([H])C(=O)C1([H])N(C(=O)C([H])(N([H])C(=O)C([H])(N([H])C([H])([H])[H])C([H])([H])[H])C(C([H])([H])[H])(C([H])([H])[H])C([H])([H])[H])C([H])([H])c2c([H])c(OC([H])([H])c3c([H])c(C([H])([H])N([H])C(=O)N4C([H])([H])C([H])([H])C([H])([H])C([H])(n5nc(-c6c([H])c([H])c(Oc7c([H])c([H])c(F)c([H])c7F)c([H])c6[H])c(C(=O)N([H])[H])c5N([H])[H])C4([H])[H])n(C([H])([H])[H])c3[H])c([H])c([H])c2C1([H])[H]

>  <smiles>  (22) 
[H]c1c([H])c([H])c2c(c1[H])C([H])([H])C([H])([H])C([H])([H])C2([H])N([H])C(=O)C1([H])N(C(=O)C([H])(N([H])C(=O)C([H])(N([H])C([H])([H])[H])C([H])([H])[H])C(C([H])([H])[H])(C([H])([H])[H])C([H])([H])[H])C([H])([H])c2c([H])c(OC([H])([H])c3c([H])c(C([H])([H])N([H])C(=O)N4C([H])([H])C([H])([H])C([H])([H])C([H])(n5nc(-c6c([H])c([H])c(Oc7c([H])c([H])c(F)c([H])c7F)c([H])c6[H])c(C(=O)N([H])[H])c5N([H])[H])C4([H])[H])n(C([H])([H])[H])c3[H])c([H])c([H])c2C1([H])[H]

$$$$
22:0:0
     RDKit          3D

 87 95  0  0  1  0  0  0  0  0999 V2000
  -29.3020  -22.6290   18.6960 C   0  0  0  0  0  3  0  0  0  0  0  0
  -29.7720  -21.4350   18.1100 C   0  0  0  0  0  3  0  0  0  0  0  0
  -28.7750  -22.6370   19.9930 C   0  0  0  0  0  0  0  0  0  0  0  0
  -29.3630  -20.0290   19.9530 C   0  0  0  0  0  0  0  0  0  0  0  0
  -29.7860  -20.2130   18.7000 N   0  0  0  0  0  0  0  0  0  0  0  0
  -28.8510  -21.2600   20.5780 N   0  0  0  0  0  0  0  0  0  0  0  0
  -28.0230  -24.1540   20.5410 C   0  0  0  0  0  2  0  0  0  0  0  0
  -28.2360  -25.7850   20.2090 O   0  0  0  0  0  0  0  0  0  0  0  0
  -24.6320  -31.8430   23.1690 C   0  0  0  0  0  0  0  0  0  0  0  0
  -27.2160  -26.8990   20.2170 C   0  0  0  0  0  0  0  0  0  0  0  0
  -23.4540  -30.4340   21.5310 C   0  0  0  0  0  3  0  0  0  0  0  0
  -24.9160  -28.8060   20.1440 C   0  0  0  0  0  0  0  0  0  0  0  0
  -26.0260  -30.6310   21.4090 C   0  0  0  0  0  2  0  0  0  0  0  0
  -26.1020  -29.2090   20.7680 C   0  0  0  0  0  0  0  0  0  0  0  0
  -27.2490  -28.2810   20.7710 C   0  0  0  0  0  3  0  0  0  0  0  0
  -25.9940  -26.6590   19.5490 C   0  0  0  0  0  3  0  0  0  0  0  0
  -24.8880  -27.5520   19.5130 C   0  0  0  0  0  3  0  0  0  0  0  0
  -23.7000  -29.7360   20.1670 C   0  0  0  0  0  2  0  0  0  0  0  0
  -24.7260  -30.9990   22.0900 N   0  0  0  0  0  0  0  0  0  0  0  0
  -23.5370  -32.1390   23.6760 O   0  0  0  0  0  0  0  0  0  0  0  0
  -22.7440  -29.4520   22.5000 C   0  0  0  0  0  0  0  0  0  0  0  0
  -21.4130  -29.2930   22.3670 N   0  0  0  0  0  0  0  0  0  0  0  0
  -23.3990  -28.8310   23.3400 O   0  0  0  0  0  0  0  0  0  0  0  0
  -20.9360  -29.8450   21.6680 H   0  0  0  0  0  0  0  0  0  0  0  0
  -18.0230  -28.0930   22.8640 C   0  0  0  0  0  0  0  0  0  0  0  0
  -20.5820  -28.3620   23.1400 C   0  0  0  0  0  3  0  0  0  0  0  0
  -20.6860  -26.9260   22.5770 C   0  0  0  0  0  2  0  0  0  0  0  0
  -19.5910  -26.5960   21.5570 C   0  0  0  0  0  2  0  0  0  0  0  0
  -18.2050  -26.7420   22.1920 C   0  0  0  0  0  2  0  0  0  0  0  0
  -19.1380  -28.8610   23.2940 C   0  0  0  0  0  0  0  0  0  0  0  0
  -18.9110  -30.1220   23.8860 C   0  0  0  0  0  3  0  0  0  0  0  0
  -17.6040  -30.6190   24.0480 C   0  0  0  0  0  3  0  0  0  0  0  0
  -16.5040  -29.8490   23.6300 C   0  0  0  0  0  3  0  0  0  0  0  0
  -16.7140  -28.5880   23.0450 C   0  0  0  0  0  3  0  0  0  0  0  0
  -25.8950  -32.4920   23.8120 C   0  0  0  0  0  3  0  0  0  0  0  0
  -25.5710  -33.8920   24.1430 N   0  0  0  0  0  0  0  0  0  0  0  0
  -25.9100  -34.9560   23.4010 C   0  0  0  0  0  0  0  0  0  0  0  0
  -26.5880  -34.8600   22.3750 O   0  0  0  0  0  0  0  0  0  0  0  0
  -24.9690  -34.0390   24.9400 H   0  0  0  0  0  0  0  0  0  0  0  0
  -24.1880  -36.7610   23.0520 C   0  0  0  0  0  1  0  0  0  0  0  0
  -25.4230  -36.3430   23.8680 C   0  0  0  0  0  3  0  0  0  0  0  0
  -27.5510  -37.2230   24.7230 C   0  0  0  0  0  1  0  0  0  0  0  0
  -26.4590  -37.3960   23.7700 N   0  0  0  0  0  0  0  0  0  0  0  0
  -26.0530  -38.3160   23.9150 H   0  0  0  0  0  0  0  0  0  0  0  0
  -26.3910  -31.7310   25.1040 C   0  0  1  0  0  0  0  0  0  0  0  0
  -25.2840  -31.5050   26.1600 C   0  0  0  0  0  1  0  0  0  0  0  0
  -26.9770  -30.3490   24.7420 C   0  0  0  0  0  1  0  0  0  0  0  0
  -27.5360  -32.5290   25.7740 C   0  0  0  0  0  1  0  0  0  0  0  0
  -29.6670  -18.3640   20.5520 C   0  0  0  0  0  2  0  0  0  0  0  0
  -30.3480  -15.4130   20.2300 C   0  0  0  0  0  0  0  0  0  0  0  0
  -30.3820  -12.9340   19.3790 C   0  0  0  0  0  2  0  0  0  0  0  0
  -29.4590  -12.6240   18.1720 C   0  0  0  0  0  2  0  0  0  0  0  0
  -28.0210  -12.3260   18.6290 C   0  0  0  0  0  2  0  0  0  0  0  0
  -27.5470  -13.2980   19.7370 C   0  0  0  0  0  3  0  0  0  0  0  0
  -28.6060  -13.5340   20.8360 C   0  0  0  0  0  2  0  0  0  0  0  0
  -29.7960  -14.0870   20.1590 N   0  0  0  0  0  0  0  0  0  0  0  0
  -31.5880  -15.3800   20.2020 O   0  0  0  0  0  0  0  0  0  0  0  0
  -28.5760  -16.6180   19.0170 C   0  0  0  0  0  1  0  0  0  0  0  0
  -29.5740  -16.7110   20.1000 N   0  0  0  0  0  0  0  0  0  0  0  0
  -25.1880  -13.8440   20.5210 C   0  0  0  0  0  0  0  0  0  0  0  0
  -24.1330  -13.0640   20.8980 C   0  0  0  0  0  0  0  0  0  0  0  0
  -24.6090  -11.7170   20.8650 C   0  0  0  0  0  0  0  0  0  0  0  0
  -26.2330  -12.9750   20.2700 N   0  0  0  0  0  0  0  0  0  0  0  0
  -25.9000  -11.6880   20.5450 N   0  0  0  0  0  0  0  0  0  0  0  0
  -23.8900  -10.4530   21.0560 C   0  0  0  0  0  0  0  0  0  0  0  0
  -24.3340   -9.4850   21.9840 C   0  0  0  0  0  3  0  0  0  0  0  0
  -23.6140   -8.2840   22.1650 C   0  0  0  0  0  3  0  0  0  0  0  0
  -22.4350   -8.0450   21.4180 C   0  0  0  0  0  0  0  0  0  0  0  0
  -22.0120   -9.0010   20.4780 C   0  0  0  0  0  3  0  0  0  0  0  0
  -22.7330  -10.1930   20.2960 C   0  0  0  0  0  3  0  0  0  0  0  0
  -21.6840   -6.8980   21.5080 O   0  0  0  0  0  0  0  0  0  0  0  0
  -21.6510   -6.1480   22.6570 C   0  0  0  0  0  0  0  0  0  0  0  0
  -21.2340   -6.6940   23.8910 C   0  0  0  0  0  3  0  0  0  0  0  0
  -21.1480   -5.8700   25.0320 C   0  0  0  0  0  3  0  0  0  0  0  0
  -21.4680   -4.5020   24.9390 C   0  0  0  0  0  0  0  0  0  0  0  0
  -21.8800   -3.9560   23.7110 C   0  0  0  0  0  3  0  0  0  0  0  0
  -21.9690   -4.7770   22.5720 C   0  0  0  0  0  0  0  0  0  0  0  0
  -22.3440   -4.2420   21.3860 F   0  0  0  0  0  0  0  0  0  0  0  0
  -21.3790   -3.7090   26.0330 F   0  0  0  0  0  0  0  0  0  0  0  0
  -22.7350  -13.5350   21.1680 C   0  0  0  0  0  0  0  0  0  0  0  0
  -22.0080  -12.8380   22.0340 N   0  0  0  0  0  0  0  0  0  0  0  0
  -22.2950  -14.5570   20.6440 O   0  0  0  0  0  0  0  0  0  0  0  0
  -22.3770  -12.0110   22.4800 H   0  0  0  0  0  0  0  0  0  0  0  0
  -21.0680  -13.1370   22.2550 H   0  0  0  0  0  0  0  0  0  0  0  0
  -25.3330  -15.2150   20.3420 N   0  0  0  0  0  0  0  0  0  0  0  0
  -24.5450  -15.8480   20.4320 H   0  0  0  0  0  0  0  0  0  0  0  0
  -26.1610  -15.6620   19.9770 H   0  0  0  0  0  0  0  0  0  0  0  0
  1  3  1  0
  2  1  2  0
  2  5  1  0
  3  7  1  0
  3  6  2  0
  4 49  1  0
  4  6  1  0
  5  4  2  0
  8 10  1  0
  8  7  1  0
  9 20  2  0
 10 15  1  0
 11 19  1  0
 11 21  1  0
 12 18  1  0
 12 14  1  0
 13 19  1  0
 14 15  2  0
 14 13  1  0
 16 10  2  0
 17 16  1  0
 17 12  2  0
 18 11  1  0
 19  9  1  0
 21 23  2  0
 22 21  1  0
 24 22  1  0
 25 34  2  0
 25 30  1  0
 26 22  1  0
 26 30  1  0
 27 26  1  0
 28 29  1  0
 28 27  1  0
 29 25  1  0
 30 31  2  0
 31 32  1  0
 33 32  2  0
 34 33  1  0
 35  9  1  0
 35 36  1  0
 35 45  1  0
 36 39  1  0
 37 41  1  0
 37 36  1  0
 38 37  2  0
 41 40  1  0
 43 41  1  0
 43 44  1  0
 43 42  1  0
 45 48  1  1
 45 46  1  0
 47 45  1  0
 51 56  1  0
 52 53  1  0
 52 51  1  0
 54 53  1  0
 54 63  1  0
 54 55  1  0
 56 50  1  0
 56 55  1  0
 57 50  2  0
 58 59  1  0
 59 50  1  0
 59 49  1  0
 60 61  2  0
 61 80  1  0
 62 61  1  0
 62 65  1  0
 63 60  1  0
 63 64  1  0
 64 62  2  0
 65 66  1  0
 66 67  2  0
 68 71  1  0
 68 67  1  0
 69 68  2  0
 70 69  1  0
 70 65  2  0
 71 72  1  0
 72 73  1  0
 73 74  2  0
 75 74  1  0
 75 79  1  0
 76 75  2  0
 77 72  2  0
 77 76  1  0
 78 77  1  0
 80 81  1  0
 81 84  1  0
 81 83  1  0
 82 80  2  0
 85 86  1  0
 85 60  1  0
 87 85  1  0
M  ISO  4   7 101   8 101  50 100  59 100
M  END
>  <TORSDO>  (23) 
F 18

>  <SCORE>  (23) 
-16.622

>  <name>  (23) 
22

>  <ligand_id>  (23) 
22

>  <original_smiles>  (23) 
[H]c1nc(C([H])([H])N(C(=O)N2C([H])([H])C([H])([H])C([H])([H])C([H])(n3nc(-c4c([H])c([H])c(Oc5c([H])c([H])c(F)c([H])c5F)c([H])c4[H])c(C(=O)N([H])[H])c3N([H])[H])C2([H])[H])C([H])([H])[H])nc(C([H])([H])Oc2c([H])c([H])c3c(c2[H])C([H])([H])N(C(=O)C([H])(N([H])C(=O)C([H])(N([H])C([H])([H])[H])C([H])([H])[H])C(C([H])([H])[H])(C([H])([H])[H])C([H])([H])[H])C([H])(C(=O)N([H])C2([H])c4c([H])c([H])c([H])c([H])c4C([H])([H])C([H])([H])C2([H])[H])C3([H])[H])c1[H]

>  <smiles>  (23) 
[H]c1nc(C([H])([H])N(C(=O)N2C([H])([H])C([H])([H])C([H])([H])C([H])(n3nc(-c4c([H])c([H])c(Oc5c([H])c([H])c(F)c([H])c5F)c([H])c4[H])c(C(=O)N([H])[H])c3N([H])[H])C2([H])[H])C([H])([H])[H])nc(C([H])([H])Oc2c([H])c([H])c3c(c2[H])C([H])([H])N(C(=O)C([H])(N([H])C(=O)C([H])(N([H])C([H])([H])[H])C([H])([H])[H])C(C([H])([H])[H])(C([H])([H])[H])C([H])([H])[H])C([H])(C(=O)N([H])C2([H])c4c([H])c([H])c([H])c([H])c4C([H])([H])C([H])([H])C2([H])[H])C3([H])[H])c1[H]

$$$$
23:0:0
     RDKit          3D

 90 98  0  0  1  0  0  0  0  0999 V2000
  -30.5750  -21.7430   18.8510 C   0  0  0  0  0  3  0  0  0  0  0  0
  -30.8440  -20.3350   18.7520 C   0  0  0  0  0  3  0  0  0  0  0  0
  -29.8720  -22.3160   19.9480 C   0  0  0  0  0  0  0  0  0  0  0  0
  -30.4430  -19.3780   19.7300 C   0  0  0  0  0  0  0  0  0  0  0  0
  -29.4580  -21.2880   20.8750 C   0  0  0  0  0  0  0  0  0  0  0  0
  -29.7190  -19.9140   20.7680 N   0  0  0  0  0  0  0  0  0  0  0  0
  -29.6090  -22.2180   23.2340 C   0  0  0  0  0  1  0  0  0  0  0  0
  -28.6940  -21.6770   22.1290 C   0  0  0  0  0  2  0  0  0  0  0  0
  -29.8540  -23.9450   20.1880 C   0  0  0  0  0  3  0  0  0  0  0  0
  -28.7310  -25.0730   19.7350 C   0  0  0  0  0  3  0  0  0  0  0  0
  -28.8320  -26.5640   20.1170 O   0  0  0  0  0  0  0  0  0  0  0  0
  -24.7740  -31.7260   23.3590 C   0  0  0  0  0  0  0  0  0  0  0  0
  -27.7110  -27.4550   20.0640 C   0  0  0  0  0  0  0  0  0  0  0  0
  -23.7080  -30.4080   21.5680 C   0  0  0  0  0  3  0  0  0  0  0  0
  -25.2870  -29.0400   20.0760 C   0  0  0  0  0  0  0  0  0  0  0  0
  -26.2420  -30.8300   21.5200 C   0  0  0  0  0  2  0  0  0  0  0  0
  -26.4140  -29.5060   20.7640 C   0  0  0  0  0  0  0  0  0  0  0  0
  -27.6270  -28.7300   20.7450 C   0  0  0  0  0  3  0  0  0  0  0  0
  -26.5600  -27.0840   19.3380 C   0  0  0  0  0  3  0  0  0  0  0  0
  -25.3700  -27.8440   19.3470 C   0  0  0  0  0  3  0  0  0  0  0  0
  -24.0080  -29.8580   20.1480 C   0  0  0  0  0  2  0  0  0  0  0  0
  -24.9250  -31.0040   22.2070 N   0  0  0  0  0  0  0  0  0  0  0  0
  -23.6570  -31.9100   23.8650 O   0  0  0  0  0  0  0  0  0  0  0  0
  -23.0550  -29.2910   22.4190 C   0  0  0  0  0  0  0  0  0  0  0  0
  -21.7430  -29.0680   22.2300 N   0  0  0  0  0  0  0  0  0  0  0  0
  -23.7320  -28.6330   23.2140 O   0  0  0  0  0  0  0  0  0  0  0  0
  -21.2510  -29.6530   21.5680 H   0  0  0  0  0  0  0  0  0  0  0  0
  -18.4090  -27.6860   22.5150 C   0  0  0  0  0  0  0  0  0  0  0  0
  -20.9440  -28.0340   22.8930 C   0  0  0  0  0  3  0  0  0  0  0  0
  -21.1300  -26.6630   22.2050 C   0  0  0  0  0  2  0  0  0  0  0  0
  -20.0760  -26.3780   21.1300 C   0  0  0  0  0  2  0  0  0  0  0  0
  -18.6700  -26.4080   21.7350 C   0  0  0  0  0  2  0  0  0  0  0  0
  -19.4760  -28.4570   23.0450 C   0  0  0  0  0  0  0  0  0  0  0  0
  -19.1800  -29.6540   23.7340 C   0  0  0  0  0  3  0  0  0  0  0  0
  -17.8490  -30.0800   23.8990 C   0  0  0  0  0  3  0  0  0  0  0  0
  -16.7950  -29.3030   23.3880 C   0  0  0  0  0  3  0  0  0  0  0  0
  -17.0750  -28.1080   22.7000 C   0  0  0  0  0  3  0  0  0  0  0  0
  -25.9950  -32.3720   24.0820 C   0  0  0  0  0  3  0  0  0  0  0  0
  -26.4250  -31.5940   25.3860 C   0  0  1  0  0  0  0  0  0  0  0  0
  -25.2600  -31.3280   26.3680 C   0  0  0  0  0  1  0  0  0  0  0  0
  -27.0550  -30.2270   25.0280 C   0  0  0  0  0  1  0  0  0  0  0  0
  -27.5130  -32.3950   26.1410 C   0  0  0  0  0  1  0  0  0  0  0  0
  -25.6400  -33.7620   24.4070 N   0  0  0  0  0  0  0  0  0  0  0  0
  -25.9660  -34.8280   23.6640 C   0  0  0  0  0  0  0  0  0  0  0  0
  -26.6670  -34.7480   22.6510 O   0  0  0  0  0  0  0  0  0  0  0  0
  -25.0200  -33.8990   25.1920 H   0  0  0  0  0  0  0  0  0  0  0  0
  -24.1850  -36.5680   23.3000 C   0  0  0  0  0  1  0  0  0  0  0  0
  -25.4340  -36.2020   24.1180 C   0  0  0  0  0  3  0  0  0  0  0  0
  -27.5260  -37.1640   24.9680 C   0  0  0  0  0  1  0  0  0  0  0  0
  -26.4330  -37.2880   24.0080 N   0  0  0  0  0  0  0  0  0  0  0  0
  -25.9930  -38.1940   24.1430 H   0  0  0  0  0  0  0  0  0  0  0  0
  -30.7870  -17.7890   19.4640 C   0  0  0  0  0  2  0  0  0  0  0  0
  -31.2080  -15.2350   20.0260 C   0  0  0  0  0  0  0  0  0  0  0  0
  -30.9600  -12.9080   19.0630 C   0  0  0  0  0  2  0  0  0  0  0  0
  -29.9810  -12.9150   17.8670 C   0  0  0  0  0  2  0  0  0  0  0  0
  -28.5280  -12.7480   18.3500 C   0  0  0  0  0  2  0  0  0  0  0  0
  -28.2000  -13.6610   19.5600 C   0  0  0  0  0  3  0  0  0  0  0  0
  -29.2970  -13.5960   20.6420 C   0  0  0  0  0  2  0  0  0  0  0  0
  -30.5560  -14.0000   19.9970 N   0  0  0  0  0  0  0  0  0  0  0  0
  -32.3600  -15.2590   19.5730 O   0  0  0  0  0  0  0  0  0  0  0  0
  -29.8200  -16.6720   21.5200 C   0  0  0  0  0  1  0  0  0  0  0  0
  -30.5230  -16.4640   20.2540 N   0  0  0  0  0  0  0  0  0  0  0  0
  -25.8880  -14.2980   20.4580 C   0  0  0  0  0  0  0  0  0  0  0  0
  -24.8100  -13.5470   20.8410 C   0  0  0  0  0  0  0  0  0  0  0  0
  -25.2110  -12.1830   20.7040 C   0  0  0  0  0  0  0  0  0  0  0  0
  -26.8760  -13.3920   20.1090 N   0  0  0  0  0  0  0  0  0  0  0  0
  -26.4800  -12.1100   20.3200 N   0  0  0  0  0  0  0  0  0  0  0  0
  -24.4370  -10.9430   20.8590 C   0  0  0  0  0  0  0  0  0  0  0  0
  -24.8360   -9.9300   21.7590 C   0  0  0  0  0  3  0  0  0  0  0  0
  -24.0650   -8.7570   21.9040 C   0  0  0  0  0  3  0  0  0  0  0  0
  -22.8810   -8.5880   21.1480 C   0  0  0  0  0  0  0  0  0  0  0  0
  -22.5010   -9.5880   20.2360 C   0  0  0  0  0  3  0  0  0  0  0  0
  -23.2730  -10.7530   20.0890 C   0  0  0  0  0  3  0  0  0  0  0  0
  -22.0820   -7.4720   21.2050 O   0  0  0  0  0  0  0  0  0  0  0  0
  -21.9420   -6.7430   22.3590 C   0  0  0  0  0  0  0  0  0  0  0  0
  -21.4420   -7.3180   23.5480 C   0  0  0  0  0  3  0  0  0  0  0  0
  -21.2510   -6.5160   24.6910 C   0  0  0  0  0  3  0  0  0  0  0  0
  -21.5500   -5.1420   24.6460 C   0  0  0  0  0  0  0  0  0  0  0  0
  -22.0430   -4.5670   23.4620 C   0  0  0  0  0  3  0  0  0  0  0  0
  -22.2360   -5.3640   22.3210 C   0  0  0  0  0  0  0  0  0  0  0  0
  -22.6900   -4.8010   21.1760 F   0  0  0  0  0  0  0  0  0  0  0  0
  -21.3600   -4.3700   25.7420 F   0  0  0  0  0  0  0  0  0  0  0  0
  -23.4530  -14.0660   21.2180 C   0  0  0  0  0  0  0  0  0  0  0  0
  -22.7420  -13.3530   22.0850 N   0  0  0  0  0  0  0  0  0  0  0  0
  -23.0340  -15.1360   20.7800 O   0  0  0  0  0  0  0  0  0  0  0  0
  -23.0960  -12.4850   22.4620 H   0  0  0  0  0  0  0  0  0  0  0  0
  -21.8310  -13.6770   22.3760 H   0  0  0  0  0  0  0  0  0  0  0  0
  -26.1070  -15.6680   20.3530 N   0  0  0  0  0  0  0  0  0  0  0  0
  -25.3870  -16.3530   20.5540 H   0  0  0  0  0  0  0  0  0  0  0  0
  -26.9670  -16.0840   20.0210 H   0  0  0  0  0  0  0  0  0  0  0  0
  1  3  1  0
  2  1  2  0
  2  4  1  0
  3  9  1  0
  3  5  2  0
  4  6  2  0
  5  8  1  0
  6  5  1  0
  8  7  1  0
 10 11  1  0
 10  9  2  0
 12 23  2  0
 13 11  1  0
 13 18  1  0
 14 22  1  0
 14 24  1  0
 15 21  1  0
 15 17  1  0
 16 22  1  0
 17 16  1  0
 18 17  2  0
 19 20  1  0
 19 13  2  0
 20 15  2  0
 21 14  1  0
 22 12  1  0
 24 26  2  0
 25 24  1  0
 27 25  1  0
 28 37  2  0
 28 33  1  0
 29 25  1  0
 29 33  1  0
 30 29  1  0
 31 32  1  0
 31 30  1  0
 32 28  1  0
 33 34  2  0
 34 35  1  0
 36 35  2  0
 37 36  1  0
 38 12  1  0
 38 43  1  0
 38 39  1  0
 39 42  1  1
 39 40  1  0
 41 39  1  0
 43 46  1  0
 44 48  1  0
 44 43  1  0
 45 44  2  0
 48 47  1  0
 50 48  1  0
 50 51  1  0
 50 49  1  0
 52  4  1  0
 52 62  1  0
 53 62  1  0
 54 59  1  0
 55 56  1  0
 55 54  1  0
 57 56  1  0
 57 66  1  0
 57 58  1  0
 59 53  1  0
 59 58  1  0
 60 53  2  0
 62 61  1  0
 63 64  2  0
 64 83  1  0
 65 64  1  0
 65 68  1  0
 66 67  1  0
 66 63  1  0
 67 65  2  0
 68 69  1  0
 69 70  2  0
 71 74  1  0
 71 70  1  0
 72 71  2  0
 73 72  1  0
 73 68  2  0
 74 75  1  0
 75 76  1  0
 76 77  2  0
 78 77  1  0
 78 82  1  0
 79 78  2  0
 80 75  2  0
 80 79  1  0
 81 80  1  0
 83 84  1  0
 84 87  1  0
 84 86  1  0
 85 83  2  0
 88 63  1  0
 88 89  1  0
 90 88  1  0
M  ISO  4  10 101  11 101  53 100  62 100
M  END
>  <TORSDO>  (24) 
F 20

>  <SCORE>  (24) 
-12.700

>  <name>  (24) 
23

>  <ligand_id>  (24) 
23

>  <original_smiles>  (24) 
[H]c1c(C([H])([H])N(C(=O)N2C([H])([H])C([H])([H])C([H])([H])C([H])(n3nc(-c4c([H])c([H])c(Oc5c([H])c([H])c(F)c([H])c5F)c([H])c4[H])c(C(=O)N([H])[H])c3N([H])[H])C2([H])[H])C([H])([H])[H])nc(C([H])([H])C([H])([H])[H])c(C([H])([H])C([H])([H])Oc2c([H])c([H])c3c(c2[H])C([H])([H])N(C(=O)C([H])(N([H])C(=O)C([H])(N([H])C([H])([H])[H])C([H])([H])[H])C(C([H])([H])[H])(C([H])([H])[H])C([H])([H])[H])C([H])(C(=O)N([H])C2([H])c4c([H])c([H])c([H])c([H])c4C([H])([H])C([H])([H])C2([H])[H])C3([H])[H])c1[H]

>  <smiles>  (24) 
[H]c1c(C([H])([H])N(C(=O)N2C([H])([H])C([H])([H])C([H])([H])C([H])(n3nc(-c4c([H])c([H])c(Oc5c([H])c([H])c(F)c([H])c5F)c([H])c4[H])c(C(=O)N([H])[H])c3N([H])[H])C2([H])[H])C([H])([H])[H])nc(C([H])([H])C([H])([H])[H])c(C([H])([H])C([H])([H])Oc2c([H])c([H])c3c(c2[H])C([H])([H])N(C(=O)C([H])(N([H])C(=O)C([H])(N([H])C([H])([H])[H])C([H])([H])[H])C(C([H])([H])[H])(C([H])([H])[H])C([H])([H])[H])C([H])(C(=O)N([H])C2([H])c4c([H])c([H])c([H])c([H])c4C([H])([H])C([H])([H])C2([H])[H])C3([H])[H])c1[H]

$$$$
24:0:0
     RDKit          3D

 89 97  0  0  1  0  0  0  0  0999 V2000
  -27.9460  -21.4770   20.7980 C   0  0  0  0  0  0  0  0  0  0  0  0
  -29.2570  -23.0590   19.7680 C   0  0  0  0  0  0  0  0  0  0  0  0
  -29.7450  -20.5060   19.7900 C   0  0  0  0  0  0  0  0  0  0  0  0
  -26.6490  -21.2440   21.5450 C   0  0  0  0  0  1  0  0  0  0  0  0
  -28.1910  -22.7690   20.5140 N   0  0  0  0  0  4  0  0  0  0  0  0
  -28.6320  -20.3590   20.4970 N   0  0  0  0  0  0  0  0  0  0  0  0
  -30.0580  -21.8830   19.3950 N   0  0  0  0  0  2  0  0  0  0  0  0
  -30.5690  -18.9020   17.8980 C   0  0  0  0  0  1  0  0  0  0  0  0
  -30.5820  -18.9650   19.4320 C   0  0  0  0  0  3  0  0  0  0  0  0
  -31.1620  -16.0200   19.8380 C   0  0  0  0  0  0  0  0  0  0  0  0
  -31.2020  -13.4890   19.1490 C   0  0  0  0  0  2  0  0  0  0  0  0
  -30.2880  -13.1370   17.9450 C   0  0  0  0  0  2  0  0  0  0  0  0
  -28.8560  -12.8430   18.4210 C   0  0  0  0  0  2  0  0  0  0  0  0
  -28.3830  -13.8760   19.4730 C   0  0  0  0  0  3  0  0  0  0  0  0
  -29.4310  -14.1610   20.5730 C   0  0  0  0  0  2  0  0  0  0  0  0
  -30.6290  -14.6850   19.8910 N   0  0  0  0  0  0  0  0  0  0  0  0
  -32.3730  -15.9940   19.5690 O   0  0  0  0  0  0  0  0  0  0  0  0
  -30.3980  -17.3260   19.8880 N   0  0  0  0  0  0  0  0  0  0  0  0
  -29.4450  -17.1740   20.1840 H   0  0  0  0  0  0  0  0  0  0  0  0
  -26.0520  -14.4490   20.3120 C   0  0  0  0  0  0  0  0  0  0  0  0
  -24.9880  -13.6830   20.6940 C   0  0  0  0  0  0  0  0  0  0  0  0
  -25.4290  -12.3250   20.6180 C   0  0  0  0  0  0  0  0  0  0  0  0
  -27.0700  -13.5620   20.0170 N   0  0  0  0  0  0  0  0  0  0  0  0
  -26.7100  -12.2770   20.2690 N   0  0  0  0  0  0  0  0  0  0  0  0
  -24.6830  -11.0730   20.8010 C   0  0  0  0  0  0  0  0  0  0  0  0
  -25.0440  -10.1340   21.7930 C   0  0  0  0  0  3  0  0  0  0  0  0
  -24.2960   -8.9480   21.9620 C   0  0  0  0  0  3  0  0  0  0  0  0
  -23.1720   -8.6950   21.1390 C   0  0  0  0  0  0  0  0  0  0  0  0
  -22.8320   -9.6210   20.1380 C   0  0  0  0  0  3  0  0  0  0  0  0
  -23.5800  -10.7980   19.9680 C   0  0  0  0  0  3  0  0  0  0  0  0
  -22.4020   -7.5590   21.2150 O   0  0  0  0  0  0  0  0  0  0  0  0
  -22.1220   -6.9560   22.4150 C   0  0  0  0  0  0  0  0  0  0  0  0
  -21.4210   -7.6290   23.4400 C   0  0  0  0  0  3  0  0  0  0  0  0
  -21.0940   -6.9500   24.6310 C   0  0  0  0  0  3  0  0  0  0  0  0
  -21.4600   -5.6000   24.7960 C   0  0  0  0  0  0  0  0  0  0  0  0
  -22.1540   -4.9280   23.7740 C   0  0  0  0  0  3  0  0  0  0  0  0
  -22.4810   -5.6040   22.5860 C   0  0  0  0  0  0  0  0  0  0  0  0
  -23.1310   -4.9450   21.5960 F   0  0  0  0  0  0  0  0  0  0  0  0
  -21.1390   -4.9460   25.9360 F   0  0  0  0  0  0  0  0  0  0  0  0
  -23.6090  -14.1820   21.0140 C   0  0  0  0  0  0  0  0  0  0  0  0
  -22.9020  -13.4940   21.9030 N   0  0  0  0  0  0  0  0  0  0  0  0
  -23.1730  -15.2150   20.5080 O   0  0  0  0  0  0  0  0  0  0  0  0
  -23.2710  -12.6570   22.3290 H   0  0  0  0  0  0  0  0  0  0  0  0
  -21.9780  -13.8110   22.1620 H   0  0  0  0  0  0  0  0  0  0  0  0
  -26.2330  -15.8200   20.1610 N   0  0  0  0  0  0  0  0  0  0  0  0
  -25.4770  -16.4810   20.3010 H   0  0  0  0  0  0  0  0  0  0  0  0
  -27.0680  -16.2460   19.7820 H   0  0  0  0  0  0  0  0  0  0  0  0
  -29.2370  -24.7480   19.1520 C   0  0  0  0  0  2  0  0  0  0  0  0
  -29.0070  -26.3160   19.7520 O   0  0  0  0  0  0  0  0  0  0  0  0
  -24.5940  -31.5890   22.9970 C   0  0  0  0  0  0  0  0  0  0  0  0
  -27.8950  -27.3400   19.6590 C   0  0  0  0  0  0  0  0  0  0  0  0
  -23.6690  -30.2360   21.1630 C   0  0  0  0  0  3  0  0  0  0  0  0
  -25.3780  -28.9710   19.6680 C   0  0  0  0  0  0  0  0  0  0  0  0
  -26.1950  -30.7540   21.1940 C   0  0  0  0  0  2  0  0  0  0  0  0
  -26.4750  -29.4330   20.4020 C   0  0  0  0  0  0  0  0  0  0  0  0
  -27.7160  -28.6370   20.3810 C   0  0  0  0  0  3  0  0  0  0  0  0
  -26.7520  -27.0620   18.8710 C   0  0  0  0  0  3  0  0  0  0  0  0
  -25.5450  -27.8160   18.8850 C   0  0  0  0  0  3  0  0  0  0  0  0
  -24.0490  -29.7310   19.7420 C   0  0  0  0  0  2  0  0  0  0  0  0
  -24.8360  -30.8850   21.8420 N   0  0  0  0  0  0  0  0  0  0  0  0
  -23.4520  -31.6850   23.4790 O   0  0  0  0  0  0  0  0  0  0  0  0
  -23.0580  -29.0700   21.9870 C   0  0  0  0  0  0  0  0  0  0  0  0
  -21.7520  -28.7950   21.8120 N   0  0  0  0  0  0  0  0  0  0  0  0
  -23.7680  -28.4170   22.7540 O   0  0  0  0  0  0  0  0  0  0  0  0
  -21.2250  -29.3770   21.1750 H   0  0  0  0  0  0  0  0  0  0  0  0
  -18.4890  -27.2340   22.1400 C   0  0  0  0  0  0  0  0  0  0  0  0
  -21.0180  -27.6920   22.4460 C   0  0  0  0  0  3  0  0  0  0  0  0
  -21.2410  -26.3660   21.6820 C   0  0  0  0  0  2  0  0  0  0  0  0
  -20.1640  -26.0880   20.6280 C   0  0  0  0  0  2  0  0  0  0  0  0
  -18.7800  -26.0150   21.2810 C   0  0  0  0  0  2  0  0  0  0  0  0
  -19.5390  -28.0290   22.6730 C   0  0  0  0  0  0  0  0  0  0  0  0
  -19.2100  -29.1680   23.4420 C   0  0  0  0  0  3  0  0  0  0  0  0
  -17.8670  -29.5160   23.6760 C   0  0  0  0  0  3  0  0  0  0  0  0
  -16.8330  -28.7180   23.1560 C   0  0  0  0  0  3  0  0  0  0  0  0
  -17.1450  -27.5770   22.3940 C   0  0  0  0  0  3  0  0  0  0  0  0
  -25.7360  -32.3180   23.7650 C   0  0  0  0  0  3  0  0  0  0  0  0
  -25.2770  -33.6830   24.0810 N   0  0  0  0  0  0  0  0  0  0  0  0
  -25.6130  -34.7850   23.3970 C   0  0  0  0  0  0  0  0  0  0  0  0
  -26.4010  -34.7640   22.4490 O   0  0  0  0  0  0  0  0  0  0  0  0
  -24.5830  -33.7650   24.8080 H   0  0  0  0  0  0  0  0  0  0  0  0
  -23.8030  -36.4660   22.9010 C   0  0  0  0  0  1  0  0  0  0  0  0
  -24.9780  -36.1240   23.8330 C   0  0  0  0  0  3  0  0  0  0  0  0
  -26.9310  -37.1440   24.9160 C   0  0  0  0  0  1  0  0  0  0  0  0
  -25.9350  -37.2530   23.8540 N   0  0  0  0  0  0  0  0  0  0  0  0
  -25.4470  -38.1380   23.9640 H   0  0  0  0  0  0  0  0  0  0  0  0
  -26.1600  -31.5730   25.0920 C   0  0  1  0  0  0  0  0  0  0  0  0
  -24.9760  -31.2480   26.0330 C   0  0  0  0  0  1  0  0  0  0  0  0
  -26.8800  -30.2430   24.7740 C   0  0  0  0  0  1  0  0  0  0  0  0
  -27.1730  -32.4400   25.8760 C   0  0  0  0  0  1  0  0  0  0  0  0
  1  4  1  0
  2  5  2  0
  3  6  2  0
  5  1  2  0
  6  1  1  0
  7  2  1  0
  7  3  1  0
  9  8  1  0
  9  3  1  0
  9 18  1  0
 10 18  1  0
 10 16  1  0
 11 16  1  0
 12 13  1  0
 12 11  1  0
 14 13  1  0
 14 23  1  0
 14 15  1  0
 16 15  1  0
 17 10  2  0
 18 19  1  0
 20 21  2  0
 21 40  1  0
 22 21  1  0
 22 25  1  0
 23 24  1  0
 23 20  1  0
 24 22  2  0
 25 26  1  0
 26 27  2  0
 28 31  1  0
 28 27  1  0
 29 28  2  0
 30 29  1  0
 30 25  2  0
 31 32  1  0
 32 37  2  0
 32 33  1  0
 33 34  2  0
 34 35  1  0
 35 39  1  0
 36 35  2  0
 37 36  1  0
 38 37  1  0
 40 41  1  0
 41 44  1  0
 41 43  1  0
 42 40  2  0
 45 46  1  0
 45 20  1  0
 47 45  1  0
 48 49  1  0
 48  2  1  0
 50 61  2  0
 51 49  1  0
 51 56  1  0
 52 60  1  0
 52 62  1  0
 53 59  1  0
 53 55  1  0
 54 60  1  0
 55 54  1  0
 56 55  2  0
 57 58  1  0
 57 51  2  0
 58 53  2  0
 59 52  1  0
 60 50  1  0
 62 64  2  0
 63 62  1  0
 65 63  1  0
 66 75  2  0
 66 71  1  0
 67 63  1  0
 67 71  1  0
 68 67  1  0
 69 70  1  0
 69 68  1  0
 70 66  1  0
 71 72  2  0
 72 73  1  0
 74 73  2  0
 75 74  1  0
 76 50  1  0
 76 77  1  0
 76 86  1  0
 77 80  1  0
 78 82  1  0
 78 77  1  0
 79 78  2  0
 82 81  1  0
 82 84  1  0
 84 85  1  0
 84 83  1  0
 86 89  1  1
 86 87  1  0
 88 86  1  0
M  ISO  4  10 100  18 100  48 101  49 101
M  END
>  <TORSDO>  (25) 
F 18

>  <SCORE>  (25) 
-10.861

>  <name>  (25) 
24

>  <ligand_id>  (25) 
24

>  <original_smiles>  (25) 
[H]c1c([H])c([H])c2c(c1[H])C([H])([H])C([H])([H])C([H])([H])C2([H])N([H])C(=O)C1([H])N(C(=O)C([H])(N([H])C(=O)C([H])(N([H])C([H])([H])[H])C([H])([H])[H])C(C([H])([H])[H])(C([H])([H])[H])C([H])([H])[H])C([H])([H])c2c([H])c(OC([H])([H])c3nc(C([H])([H])[H])nc(C([H])(N([H])C(=O)N4C([H])([H])C([H])([H])C([H])([H])C([H])(n5nc(-c6c([H])c([H])c(Oc7c([H])c([H])c(F)c([H])c7F)c([H])c6[H])c(C(=O)N([H])[H])c5N([H])[H])C4([H])[H])C([H])([H])[H])n3)c([H])c([H])c2C1([H])[H]

>  <smiles>  (25) 
[H]c1c([H])c([H])c2c(c1[H])C([H])([H])C([H])([H])C([H])([H])C2([H])N([H])C(=O)C1([H])N(C(=O)C([H])(N([H])C(=O)C([H])(N([H])C([H])([H])[H])C([H])([H])[H])C(C([H])([H])[H])(C([H])([H])[H])C([H])([H])[H])C([H])([H])c2c([H])c(OC([H])([H])c3nc(C([H])([H])[H])nc(C([H])(N([H])C(=O)N4C([H])([H])C([H])([H])C([H])([H])C([H])(n5nc(-c6c([H])c([H])c(Oc7c([H])c([H])c(F)c([H])c7F)c([H])c6[H])c(C(=O)N([H])[H])c5N([H])[H])C4([H])[H])C([H])([H])[H])n3)c([H])c([H])c2C1([H])[H]

$$$$
25:0:0
     RDKit          3D

 94102  0  0  1  0  0  0  0  0999 V2000
  -29.3680  -20.3470   20.8400 C   0  0  0  0  0  0  0  0  0  0  0  0
  -30.1030  -18.1700   20.6120 C   0  0  0  0  0  0  0  0  0  0  0  0
  -28.6650  -19.5440   21.6590 N   0  0  0  0  0  0  0  0  0  0  0  0
  -29.1380  -18.2170   21.5490 N   0  0  0  0  0  0  0  0  0  0  0  0
  -30.2760  -19.5260   20.1530 N   0  0  0  0  0  0  0  0  0  0  0  0
  -32.1880  -17.1130   19.5610 C   0  0  0  0  0  1  0  0  0  0  0  0
  -30.7380  -16.7320   20.0070 C   0  0  1  0  0  0  0  0  0  0  0  0
  -31.0340  -15.2230   20.8120 C   0  0  0  0  0  0  0  0  0  0  0  0
  -30.9620  -12.7760   20.1270 C   0  0  0  0  0  2  0  0  0  0  0  0
  -30.1700  -12.4290   18.8510 C   0  0  0  0  0  2  0  0  0  0  0  0
  -28.6610  -12.3040   19.1420 C   0  0  0  0  0  2  0  0  0  0  0  0
  -28.1160  -13.3600   20.1370 C   0  0  0  0  0  3  0  0  0  0  0  0
  -29.0590  -13.6140   21.3220 C   0  0  0  0  0  2  0  0  0  0  0  0
  -30.3550  -13.9970   20.7380 N   0  0  0  0  0  0  0  0  0  0  0  0
  -32.2080  -15.0550   21.1650 O   0  0  0  0  0  0  0  0  0  0  0  0
  -25.6900  -14.0070   20.6510 C   0  0  0  0  0  0  0  0  0  0  0  0
  -24.5750  -13.2580   20.8960 C   0  0  0  0  0  0  0  0  0  0  0  0
  -25.0170  -11.9020   20.9400 C   0  0  0  0  0  0  0  0  0  0  0  0
  -26.7380  -13.1070   20.5350 N   0  0  0  0  0  0  0  0  0  0  0  0
  -26.3330  -11.8370   20.7840 N   0  0  0  0  0  0  0  0  0  0  0  0
  -24.2540  -10.6570   21.0630 C   0  0  0  0  0  0  0  0  0  0  0  0
  -24.5950   -9.6740   22.0180 C   0  0  0  0  0  3  0  0  0  0  0  0
  -23.8320   -8.4930   22.1320 C   0  0  0  0  0  3  0  0  0  0  0  0
  -22.7130   -8.2880   21.2900 C   0  0  0  0  0  0  0  0  0  0  0  0
  -22.3900   -9.2610   20.3260 C   0  0  0  0  0  3  0  0  0  0  0  0
  -23.1560  -10.4320   20.2090 C   0  0  0  0  0  3  0  0  0  0  0  0
  -21.9290   -7.1600   21.3120 O   0  0  0  0  0  0  0  0  0  0  0  0
  -21.8060   -6.3930   22.4420 C   0  0  0  0  0  0  0  0  0  0  0  0
  -21.3460   -6.9320   23.6620 C   0  0  0  0  0  3  0  0  0  0  0  0
  -21.1670   -6.0930   24.7810 C   0  0  0  0  0  3  0  0  0  0  0  0
  -21.4400   -4.7160   24.6790 C   0  0  0  0  0  0  0  0  0  0  0  0
  -21.8930   -4.1750   23.4620 C   0  0  0  0  0  3  0  0  0  0  0  0
  -22.0730   -5.0120   22.3460 C   0  0  0  0  0  0  0  0  0  0  0  0
  -22.4900   -4.4840   21.1710 F   0  0  0  0  0  0  0  0  0  0  0  0
  -21.2600   -3.9070   25.7480 F   0  0  0  0  0  0  0  0  0  0  0  0
  -23.1670  -13.7670   21.0020 C   0  0  0  0  0  0  0  0  0  0  0  0
  -22.3380  -13.1110   21.8050 N   0  0  0  0  0  0  0  0  0  0  0  0
  -22.8110  -14.7850   20.4110 O   0  0  0  0  0  0  0  0  0  0  0  0
  -22.6360  -12.2890   22.3100 H   0  0  0  0  0  0  0  0  0  0  0  0
  -21.3880  -13.4380   21.9170 H   0  0  0  0  0  0  0  0  0  0  0  0
  -25.8920  -15.3730   20.4980 N   0  0  0  0  0  0  0  0  0  0  0  0
  -25.0910  -15.9700   20.6680 H   0  0  0  0  0  0  0  0  0  0  0  0
  -26.7360  -15.7670   20.8860 H   0  0  0  0  0  0  0  0  0  0  0  0
  -30.4400  -15.7420   17.6330 C   0  0  0  0  0  1  0  0  0  0  0  0
  -29.9370  -16.6210   18.7230 N   0  0  1  0  0  4  0  0  0  0  0  0
  -30.1610  -17.5270   18.3490 H   0  0  0  0  0  0  0  0  0  0  0  0
  -27.9310  -18.0120   18.0870 C   0  0  0  0  0  1  0  0  0  0  0  0
  -28.4490  -16.7270   18.7530 C   0  0  0  0  0  2  0  0  0  0  0  0
  -30.6790  -20.0190   17.7330 C   0  0  0  0  0  1  0  0  0  0  0  0
  -31.1940  -20.1160   19.1780 C   0  0  0  0  0  2  0  0  0  0  0  0
  -29.2480  -21.9990   20.9490 C   0  0  0  0  0  2  0  0  0  0  0  0
  -28.5920  -23.2030   19.9640 C   0  0  0  0  0  2  0  0  0  0  0  0
  -28.0660  -24.7220   20.5170 C   0  0  0  0  0  2  0  0  0  0  0  0
  -28.1460  -26.1450   19.8800 O   0  0  0  0  0  0  0  0  0  0  0  0
  -24.5970  -31.7900   23.0770 C   0  0  0  0  0  0  0  0  0  0  0  0
  -27.0770  -27.1100   19.9310 C   0  0  0  0  0  0  0  0  0  0  0  0
  -23.3540  -30.4380   21.4340 C   0  0  0  0  0  3  0  0  0  0  0  0
  -24.7600  -28.8680   19.9620 C   0  0  0  0  0  0  0  0  0  0  0  0
  -25.9050  -30.6840   21.2240 C   0  0  0  0  0  2  0  0  0  0  0  0
  -25.9550  -29.3010   20.5510 C   0  0  0  0  0  0  0  0  0  0  0  0
  -27.1170  -28.4420   20.5090 C   0  0  0  0  0  3  0  0  0  0  0  0
  -25.8540  -26.7680   19.3180 C   0  0  0  0  0  3  0  0  0  0  0  0
  -24.7220  -27.6150   19.3280 C   0  0  0  0  0  3  0  0  0  0  0  0
  -23.5430  -29.7770   20.0410 C   0  0  0  0  0  2  0  0  0  0  0  0
  -24.6400  -30.9920   21.9660 N   0  0  0  0  0  0  0  0  0  0  0  0
  -23.5240  -32.0760   23.6300 O   0  0  0  0  0  0  0  0  0  0  0  0
  -22.6820  -29.4220   22.3910 C   0  0  0  0  0  0  0  0  0  0  0  0
  -21.3480  -29.2740   22.2910 N   0  0  0  0  0  0  0  0  0  0  0  0
  -23.3610  -28.7680   23.1870 O   0  0  0  0  0  0  0  0  0  0  0  0
  -20.8570  -29.8510   21.6230 H   0  0  0  0  0  0  0  0  0  0  0  0
  -17.9610  -28.1120   22.8380 C   0  0  0  0  0  0  0  0  0  0  0  0
  -20.5280  -28.3330   23.0580 C   0  0  0  0  0  3  0  0  0  0  0  0
  -20.5970  -26.9110   22.4520 C   0  0  0  0  0  2  0  0  0  0  0  0
  -19.4710  -26.6250   21.4550 C   0  0  0  0  0  2  0  0  0  0  0  0
  -18.1050  -26.7750   22.1300 C   0  0  0  0  0  2  0  0  0  0  0  0
  -19.0990  -28.8500   23.2600 C   0  0  0  0  0  0  0  0  0  0  0  0
  -18.9090  -30.1010   23.8850 C   0  0  0  0  0  3  0  0  0  0  0  0
  -17.6150  -30.6140   24.0920 C   0  0  0  0  0  3  0  0  0  0  0  0
  -16.4920  -29.8730   23.6850 C   0  0  0  0  0  3  0  0  0  0  0  0
  -16.6660  -28.6230   23.0640 C   0  0  0  0  0  3  0  0  0  0  0  0
  -25.8920  -32.4010   23.6960 C   0  0  0  0  0  3  0  0  0  0  0  0
  -25.5860  -33.7780   24.1100 N   0  0  0  0  0  0  0  0  0  0  0  0
  -25.9150  -34.8770   23.4170 C   0  0  0  0  0  0  0  0  0  0  0  0
  -26.5750  -34.8350   22.3770 O   0  0  0  0  0  0  0  0  0  0  0  0
  -24.9960  -33.8830   24.9230 H   0  0  0  0  0  0  0  0  0  0  0  0
  -24.1870  -36.6940   23.2020 C   0  0  0  0  0  1  0  0  0  0  0  0
  -25.4390  -36.2360   23.9680 C   0  0  0  0  0  3  0  0  0  0  0  0
  -27.5890  -37.0650   24.8160 C   0  0  0  0  0  1  0  0  0  0  0  0
  -26.4720  -37.2930   23.9030 N   0  0  0  0  0  0  0  0  0  0  0  0
  -26.0720  -38.2040   24.1130 H   0  0  0  0  0  0  0  0  0  0  0  0
  -26.4480  -31.5690   24.9170 C   0  0  1  0  0  0  0  0  0  0  0  0
  -25.3900  -31.2860   26.0090 C   0  0  0  0  0  1  0  0  0  0  0  0
  -27.0130  -30.2100   24.4470 C   0  0  0  0  0  1  0  0  0  0  0  0
  -27.6220  -32.3290   25.5770 C   0  0  0  0  0  1  0  0  0  0  0  0
  1 51  1  0
  1  3  2  0
  2  4  2  0
  4  3  1  0
  5  2  1  0
  5  1  1  0
  7  6  1  6
  7  2  1  0
  7  8  1  0
  8 15  2  0
  9 14  1  0
 10 11  1  0
 10  9  1  0
 12 11  1  0
 12 19  1  0
 12 13  1  0
 14  8  1  0
 14 13  1  0
 16 17  2  0
 17 18  1  0
 17 36  1  0
 18 21  1  0
 19 16  1  0
 19 20  1  0
 20 18  2  0
 21 22  1  0
 22 23  2  0
 24 27  1  0
 24 23  1  0
 25 24  2  0
 26 25  1  0
 26 21  2  0
 27 28  1  0
 28 29  1  0
 29 30  2  0
 31 30  1  0
 31 35  1  0
 32 31  2  0
 33 28  2  0
 33 32  1  0
 34 33  1  0
 36 37  1  0
 37 40  1  0
 37 39  1  0
 38 36  2  0
 41 16  1  0
 41 42  1  0
 41 43  1  0
 44 45  1  0
 45 48  1  0
 45  7  1  0
 45 46  1  6
 47 48  1  0
 49 50  1  0
 50  5  1  0
 52 53  1  0
 52 51  1  0
 54 56  1  0
 54 53  1  0
 55 66  2  0
 56 61  1  0
 57 65  1  0
 57 67  1  0
 58 64  1  0
 58 60  1  0
 59 65  1  0
 60 59  1  0
 61 60  2  0
 62 63  1  0
 62 56  2  0
 63 58  2  0
 64 57  1  0
 65 55  1  0
 67 69  2  0
 68 67  1  0
 70 68  1  0
 71 80  2  0
 71 76  1  0
 72 68  1  0
 72 76  1  0
 73 72  1  0
 74 75  1  0
 74 73  1  0
 75 71  1  0
 76 77  2  0
 77 78  1  0
 79 78  2  0
 80 79  1  0
 81 55  1  0
 81 82  1  0
 81 91  1  0
 82 85  1  0
 83 87  1  0
 83 82  1  0
 84 83  2  0
 87 86  1  0
 89 87  1  0
 89 90  1  0
 89 88  1  0
 91 94  1  1
 91 92  1  0
 93 91  1  0
M  ISO  4   7 100   8 100  53 101  54 101
M  END
>  <TORSDO>  (26) 
F 23

>  <SCORE>  (26) 
-10.997

>  <name>  (26) 
25

>  <ligand_id>  (26) 
25

>  <original_smiles>  (26) 
[H]c1c([H])c([H])c2c(c1[H])C([H])([H])C([H])([H])C([H])([H])C2([H])N([H])C(=O)C1([H])N(C(=O)C([H])(N([H])C(=O)C([H])(N([H])C([H])([H])[H])C([H])([H])[H])C(C([H])([H])[H])(C([H])([H])[H])C([H])([H])[H])C([H])([H])c2c([H])c(OC([H])([H])C([H])([H])C([H])([H])c3nnc(C(C(=O)N4C([H])([H])C([H])([H])C([H])([H])C([H])(n5nc(-c6c([H])c([H])c(Oc7c([H])c([H])c(F)c([H])c7F)c([H])c6[H])c(C(=O)N([H])[H])c5N([H])[H])C4([H])[H])(C([H])([H])[H])[N+]([H])(C([H])([H])[H])C([H])([H])C([H])([H])[H])n3C([H])([H])C([H])([H])[H])c([H])c([H])c2C1([H])[H]

>  <smiles>  (26) 
[H]c1c([H])c([H])c2c(c1[H])C([H])([H])C([H])([H])C([H])([H])C2([H])N([H])C(=O)C1([H])N(C(=O)C([H])(N([H])C(=O)C([H])(N([H])C([H])([H])[H])C([H])([H])[H])C(C([H])([H])[H])(C([H])([H])[H])C([H])([H])[H])C([H])([H])c2c([H])c(OC([H])([H])C([H])([H])C([H])([H])c3nnc(C(C(=O)N4C([H])([H])C([H])([H])C([H])([H])C([H])(n5nc(-c6c([H])c([H])c(Oc7c([H])c([H])c(F)c([H])c7F)c([H])c6[H])c(C(=O)N([H])[H])c5N([H])[H])C4([H])[H])(C([H])([H])[H])[N+]([H])(C([H])([H])[H])C([H])([H])C([H])([H])[H])n3C([H])([H])C([H])([H])[H])c([H])c([H])c2C1([H])[H]

$$$$
26:0:0
     RDKit          3D

 91 99  0  0  1  0  0  0  0  0999 V2000
  -29.5990  -22.7720   20.3790 C   0  0  0  0  0  3  0  0  0  0  0  0
  -28.5140  -23.6490   20.3010 C   0  0  0  0  0  0  0  0  0  0  0  0
  -27.4790  -22.8350   19.8140 N   0  0  0  0  0  0  0  0  0  0  0  0
  -27.8810  -21.5970   19.6000 N   0  0  0  0  0  0  0  0  0  0  0  0
  -29.1940  -21.4770   19.9400 N   0  0  0  0  0  0  0  0  0  0  0  0
  -29.8490  -19.9420   18.1160 C   0  0  0  0  0  1  0  0  0  0  0  0
  -31.4780  -20.4980   19.9090 C   0  0  0  0  0  1  0  0  0  0  0  0
  -29.9940  -20.1810   19.6350 C   0  0  1  0  0  0  0  0  0  0  0  0
  -29.4780  -19.0000   21.8810 C   0  0  0  0  0  1  0  0  0  0  0  0
  -29.6260  -18.7520   20.3670 C   0  0  0  0  0  3  0  0  0  0  0  0
  -30.5600  -17.4250   20.0230 C   0  0  0  0  0  2  0  0  0  0  0  0
  -30.8690  -14.8380   19.8770 C   0  0  0  0  0  0  0  0  0  0  0  0
  -30.5430  -12.5960   18.7770 C   0  0  0  0  0  2  0  0  0  0  0  0
  -29.4950  -12.6940   17.6450 C   0  0  0  0  0  2  0  0  0  0  0  0
  -28.0720  -12.4960   18.2000 C   0  0  0  0  0  2  0  0  0  0  0  0
  -27.8160  -13.3400   19.4770 C   0  0  0  0  0  3  0  0  0  0  0  0
  -28.9690  -13.2080   20.4880 C   0  0  0  0  0  2  0  0  0  0  0  0
  -30.2080  -13.6180   19.8070 N   0  0  0  0  0  0  0  0  0  0  0  0
  -31.9370  -14.9620   19.2670 O   0  0  0  0  0  0  0  0  0  0  0  0
  -30.1350  -15.8850   21.9230 C   0  0  0  0  0  1  0  0  0  0  0  0
  -30.2660  -15.9660   20.4630 N   0  0  0  0  0  0  0  0  0  0  0  0
  -25.5390  -13.9020   20.5180 C   0  0  0  0  0  0  0  0  0  0  0  0
  -24.4990  -13.1150   20.9280 C   0  0  0  0  0  0  0  0  0  0  0  0
  -24.9150  -11.7640   20.7160 C   0  0  0  0  0  0  0  0  0  0  0  0
  -26.5240  -13.0290   20.0820 N   0  0  0  0  0  0  0  0  0  0  0  0
  -26.1620  -11.7330   20.2610 N   0  0  0  0  0  0  0  0  0  0  0  0
  -24.1740  -10.5060   20.8650 C   0  0  0  0  0  0  0  0  0  0  0  0
  -24.6380   -9.4700   21.7070 C   0  0  0  0  0  3  0  0  0  0  0  0
  -23.8970   -8.2790   21.8480 C   0  0  0  0  0  3  0  0  0  0  0  0
  -22.6780   -8.1130   21.1490 C   0  0  0  0  0  0  0  0  0  0  0  0
  -22.2340   -9.1370   20.2940 C   0  0  0  0  0  3  0  0  0  0  0  0
  -22.9740  -10.3210   20.1500 C   0  0  0  0  0  3  0  0  0  0  0  0
  -21.9020   -6.9800   21.2080 O   0  0  0  0  0  0  0  0  0  0  0  0
  -21.8570   -6.1940   22.3320 C   0  0  0  0  0  0  0  0  0  0  0  0
  -21.4550   -6.7100   23.5850 C   0  0  0  0  0  3  0  0  0  0  0  0
  -21.3550   -5.8510   24.6990 C   0  0  0  0  0  3  0  0  0  0  0  0
  -21.6480   -4.4810   24.5620 C   0  0  0  0  0  0  0  0  0  0  0  0
  -22.0410   -3.9660   23.3140 C   0  0  0  0  0  3  0  0  0  0  0  0
  -22.1440   -4.8210   22.2040 C   0  0  0  0  0  0  0  0  0  0  0  0
  -22.5020   -4.3150   20.9980 F   0  0  0  0  0  0  0  0  0  0  0  0
  -21.5460   -3.6560   25.6290 F   0  0  0  0  0  0  0  0  0  0  0  0
  -23.1540  -13.5910   21.3980 C   0  0  0  0  0  0  0  0  0  0  0  0
  -22.5160  -12.8450   22.2940 N   0  0  0  0  0  0  0  0  0  0  0  0
  -22.6810  -14.6580   21.0060 O   0  0  0  0  0  0  0  0  0  0  0  0
  -22.9110  -11.9800   22.6300 H   0  0  0  0  0  0  0  0  0  0  0  0
  -21.6180  -13.1450   22.6480 H   0  0  0  0  0  0  0  0  0  0  0  0
  -25.7220  -15.2800   20.4550 N   0  0  0  0  0  0  0  0  0  0  0  0
  -24.9980  -15.9330   20.7330 H   0  0  0  0  0  0  0  0  0  0  0  0
  -26.5560  -15.7370   20.1060 H   0  0  0  0  0  0  0  0  0  0  0  0
  -28.2350  -25.1060   20.8980 C   0  0  0  0  0  2  0  0  0  0  0  0
  -28.3790  -26.3980   20.1470 O   0  0  0  0  0  0  0  0  0  0  0  0
  -24.5360  -31.8580   23.0770 C   0  0  0  0  0  0  0  0  0  0  0  0
  -27.2750  -27.2780   20.1300 C   0  0  0  0  0  0  0  0  0  0  0  0
  -23.3790  -30.4050   21.4490 C   0  0  0  0  0  3  0  0  0  0  0  0
  -24.8830  -28.8630   20.0600 C   0  0  0  0  0  0  0  0  0  0  0  0
  -25.9150  -30.7770   21.2800 C   0  0  0  0  0  2  0  0  0  0  0  0
  -26.0380  -29.3850   20.6580 C   0  0  0  0  0  0  0  0  0  0  0  0
  -27.2410  -28.6060   20.6800 C   0  0  0  0  0  3  0  0  0  0  0  0
  -26.0990  -26.8190   19.5050 C   0  0  0  0  0  3  0  0  0  0  0  0
  -24.9190  -27.5880   19.4710 C   0  0  0  0  0  3  0  0  0  0  0  0
  -23.6250  -29.7110   20.0830 C   0  0  0  0  0  2  0  0  0  0  0  0
  -24.6280  -31.0330   21.9930 N   0  0  0  0  0  0  0  0  0  0  0  0
  -23.4420  -32.1160   23.6000 O   0  0  0  0  0  0  0  0  0  0  0  0
  -22.7320  -29.3890   22.4210 C   0  0  0  0  0  0  0  0  0  0  0  0
  -21.4030  -29.2120   22.3200 N   0  0  0  0  0  0  0  0  0  0  0  0
  -23.4260  -28.7610   23.2260 O   0  0  0  0  0  0  0  0  0  0  0  0
  -20.9010  -29.7690   21.6420 H   0  0  0  0  0  0  0  0  0  0  0  0
  -18.0300  -28.0510   22.9240 C   0  0  0  0  0  0  0  0  0  0  0  0
  -20.6010  -28.2740   23.1060 C   0  0  0  0  0  3  0  0  0  0  0  0
  -20.6640  -26.8490   22.5070 C   0  0  0  0  0  2  0  0  0  0  0  0
  -19.5230  -26.5570   21.5270 C   0  0  0  0  0  2  0  0  0  0  0  0
  -18.1670  -26.7100   22.2210 C   0  0  0  0  0  2  0  0  0  0  0  0
  -19.1740  -28.7910   23.3270 C   0  0  0  0  0  0  0  0  0  0  0  0
  -18.9940  -30.0450   23.9500 C   0  0  0  0  0  3  0  0  0  0  0  0
  -17.7040  -30.5610   24.1690 C   0  0  0  0  0  3  0  0  0  0  0  0
  -16.5750  -29.8180   23.7840 C   0  0  0  0  0  3  0  0  0  0  0  0
  -16.7400  -28.5630   23.1680 C   0  0  0  0  0  3  0  0  0  0  0  0
  -25.7960  -32.5340   23.6980 C   0  0  0  0  0  3  0  0  0  0  0  0
  -26.3590  -31.7620   24.9550 C   0  0  1  0  0  0  0  0  0  0  0  0
  -25.2890  -31.4600   26.0290 C   0  0  0  0  0  1  0  0  0  0  0  0
  -26.9970  -30.4180   24.5350 C   0  0  0  0  0  1  0  0  0  0  0  0
  -27.4830  -32.5930   25.6200 C   0  0  0  0  0  1  0  0  0  0  0  0
  -25.4320  -33.9120   24.0570 N   0  0  0  0  0  0  0  0  0  0  0  0
  -25.7130  -34.9920   23.3170 C   0  0  0  0  0  0  0  0  0  0  0  0
  -26.3730  -34.9350   22.2760 O   0  0  0  0  0  0  0  0  0  0  0  0
  -24.8450  -34.0280   24.8700 H   0  0  0  0  0  0  0  0  0  0  0  0
  -23.9180  -36.7280   23.0090 C   0  0  0  0  0  1  0  0  0  0  0  0
  -25.1760  -36.3510   23.8090 C   0  0  0  0  0  3  0  0  0  0  0  0
  -27.2780  -37.2970   24.6560 C   0  0  0  0  0  1  0  0  0  0  0  0
  -26.1660  -37.4460   23.7180 N   0  0  0  0  0  0  0  0  0  0  0  0
  -25.7260  -38.3460   23.8920 H   0  0  0  0  0  0  0  0  0  0  0  0
  2  1  2  0
  2 50  1  0
  3  2  1  0
  4  3  2  0
  4  5  1  0
  5  1  1  0
  8  6  1  6
  8  7  1  0
  8  5  1  0
  8 10  1  0
 10  9  1  0
 11 10  1  0
 11 21  1  0
 12 21  1  0
 13 18  1  0
 14 15  1  0
 14 13  1  0
 16 15  1  0
 16 25  1  0
 16 17  1  0
 18 12  1  0
 18 17  1  0
 19 12  2  0
 21 20  1  0
 22 23  2  0
 23 42  1  0
 24 27  1  0
 24 23  1  0
 25 26  1  0
 25 22  1  0
 26 24  2  0
 27 28  1  0
 28 29  2  0
 30 33  1  0
 30 29  1  0
 31 30  2  0
 32 31  1  0
 32 27  2  0
 33 34  1  0
 34 35  1  0
 35 36  2  0
 37 36  1  0
 37 41  1  0
 38 37  2  0
 39 34  2  0
 39 38  1  0
 40 39  1  0
 42 43  1  0
 43 45  1  0
 43 46  1  0
 44 42  2  0
 47 22  1  0
 47 48  1  0
 49 47  1  0
 51 50  1  0
 52 63  2  0
 53 51  1  0
 53 58  1  0
 54 62  1  0
 54 64  1  0
 55 61  1  0
 55 57  1  0
 56 62  1  0
 57 58  2  0
 57 56  1  0
 59 53  2  0
 60 59  1  0
 60 55  2  0
 61 54  1  0
 62 52  1  0
 64 66  2  0
 65 64  1  0
 67 65  1  0
 68 77  2  0
 68 73  1  0
 69 65  1  0
 69 73  1  0
 70 69  1  0
 71 72  1  0
 71 70  1  0
 72 68  1  0
 73 74  2  0
 74 75  1  0
 76 75  2  0
 77 76  1  0
 78 52  1  0
 78 83  1  0
 78 79  1  0
 79 82  1  1
 79 80  1  0
 81 79  1  0
 83 86  1  0
 84 88  1  0
 84 83  1  0
 85 84  2  0
 88 87  1  0
 90 88  1  0
 90 91  1  0
 90 89  1  0
M  ISO  4  12 100  21 100  50 101  51 101
M  END
>  <TORSDO>  (27) 
F 20

>  <SCORE>  (27) 
-12.111

>  <name>  (27) 
26

>  <ligand_id>  (27) 
26

>  <original_smiles>  (27) 
[H]c1c([H])c([H])c2c(c1[H])C([H])([H])C([H])([H])C([H])([H])C2([H])N([H])C(=O)C1([H])N(C(=O)C([H])(N([H])C(=O)C([H])(N([H])C([H])([H])[H])C([H])([H])[H])C(C([H])([H])[H])(C([H])([H])[H])C([H])([H])[H])C([H])([H])c2c([H])c(OC([H])([H])c3nnn(C(C([H])([H])[H])(C([H])([H])[H])C([H])(C([H])([H])[H])C([H])([H])N(C(=O)N4C([H])([H])C([H])([H])C([H])([H])C([H])(n5nc(-c6c([H])c([H])c(Oc7c([H])c([H])c(F)c([H])c7F)c([H])c6[H])c(C(=O)N([H])[H])c5N([H])[H])C4([H])[H])C([H])([H])[H])c3[H])c([H])c([H])c2C1([H])[H]

>  <smiles>  (27) 
[H]c1c([H])c([H])c2c(c1[H])C([H])([H])C([H])([H])C([H])([H])C2([H])N([H])C(=O)C1([H])N(C(=O)C([H])(N([H])C(=O)C([H])(N([H])C([H])([H])[H])C([H])([H])[H])C(C([H])([H])[H])(C([H])([H])[H])C([H])([H])[H])C([H])([H])c2c([H])c(OC([H])([H])c3nnn(C(C([H])([H])[H])(C([H])([H])[H])C([H])(C([H])([H])[H])C([H])([H])N(C(=O)N4C([H])([H])C([H])([H])C([H])([H])C([H])(n5nc(-c6c([H])c([H])c(Oc7c([H])c([H])c(F)c([H])c7F)c([H])c6[H])c(C(=O)N([H])[H])c5N([H])[H])C4([H])[H])C([H])([H])[H])c3[H])c([H])c([H])c2C1([H])[H]

$$$$
27:0:0
     RDKit          3D

 88 96  0  0  1  0  0  0  0  0999 V2000
  -27.3300  -23.0810   21.5110 C   0  0  0  0  0  3  0  0  0  0  0  0
  -28.8720  -22.1070   20.1160 C   0  0  0  0  0  0  0  0  0  0  0  0
  -28.2070  -24.6150   20.0850 C   0  0  0  0  0  0  0  0  0  0  0  0
  -26.3690  -22.8400   22.6560 C   0  0  0  0  0  1  0  0  0  0  0  0
  -28.0010  -21.9890   21.1140 N   0  0  0  0  0  0  0  0  0  0  0  0
  -27.3590  -24.3460   21.0670 N   0  0  0  0  0  0  0  0  0  0  0  0
  -28.9920  -23.4750   19.5810 N   0  0  0  0  0  0  0  0  0  0  0  0
  -28.3000  -26.1090   19.7590 O   0  0  0  0  0  0  0  0  0  0  0  0
  -24.7390  -32.0330   23.1590 C   0  0  0  0  0  0  0  0  0  0  0  0
  -27.2740  -27.2250   19.8980 C   0  0  0  0  0  0  0  0  0  0  0  0
  -23.5300  -30.6930   21.4890 C   0  0  0  0  0  3  0  0  0  0  0  0
  -24.9650  -29.1490   19.9780 C   0  0  0  0  0  0  0  0  0  0  0  0
  -26.0970  -30.9080   21.3110 C   0  0  0  0  0  2  0  0  0  0  0  0
  -26.1660  -29.5160   20.5980 C   0  0  0  0  0  0  0  0  0  0  0  0
  -27.3110  -28.5820   20.5320 C   0  0  0  0  0  3  0  0  0  0  0  0
  -26.0380  -27.0440   19.2320 C   0  0  0  0  0  3  0  0  0  0  0  0
  -24.9300  -27.9350   19.2720 C   0  0  0  0  0  3  0  0  0  0  0  0
  -23.7430  -30.0650   20.0840 C   0  0  0  0  0  2  0  0  0  0  0  0
  -24.8120  -31.2390   22.0400 N   0  0  0  0  0  0  0  0  0  0  0  0
  -23.6560  -32.2910   23.7110 O   0  0  0  0  0  0  0  0  0  0  0  0
  -22.8600  -29.6550   22.4280 C   0  0  0  0  0  0  0  0  0  0  0  0
  -21.5300  -29.4700   22.3140 N   0  0  0  0  0  0  0  0  0  0  0  0
  -23.5440  -29.0140   23.2300 O   0  0  0  0  0  0  0  0  0  0  0  0
  -21.0280  -30.0390   21.6460 H   0  0  0  0  0  0  0  0  0  0  0  0
  -18.1720  -28.2020   22.8620 C   0  0  0  0  0  0  0  0  0  0  0  0
  -20.7360  -28.4880   23.0620 C   0  0  0  0  0  3  0  0  0  0  0  0
  -20.8350  -27.0860   22.4150 C   0  0  0  0  0  2  0  0  0  0  0  0
  -19.7070  -26.8000   21.4190 C   0  0  0  0  0  2  0  0  0  0  0  0
  -18.3440  -26.8920   22.1100 C   0  0  0  0  0  2  0  0  0  0  0  0
  -19.2950  -28.9580   23.2950 C   0  0  0  0  0  0  0  0  0  0  0  0
  -19.0760  -30.1810   23.9650 C   0  0  0  0  0  3  0  0  0  0  0  0
  -17.7700  -30.6510   24.2010 C   0  0  0  0  0  3  0  0  0  0  0  0
  -16.6640  -29.8920   23.7820 C   0  0  0  0  0  3  0  0  0  0  0  0
  -16.8650  -28.6690   23.1180 C   0  0  0  0  0  3  0  0  0  0  0  0
  -26.0130  -32.6680   23.7940 C   0  0  0  0  0  3  0  0  0  0  0  0
  -25.6980  -34.0650   24.1510 N   0  0  0  0  0  0  0  0  0  0  0  0
  -26.0230  -35.1390   23.4200 C   0  0  0  0  0  0  0  0  0  0  0  0
  -26.6800  -35.0590   22.3800 O   0  0  0  0  0  0  0  0  0  0  0  0
  -25.1110  -34.2000   24.9630 H   0  0  0  0  0  0  0  0  0  0  0  0
  -24.2880  -36.9460   23.1500 C   0  0  0  0  0  1  0  0  0  0  0  0
  -25.5490  -36.5200   23.9210 C   0  0  0  0  0  3  0  0  0  0  0  0
  -27.6960  -37.4020   24.7260 C   0  0  0  0  0  1  0  0  0  0  0  0
  -26.5800  -37.5760   23.8020 N   0  0  0  0  0  0  0  0  0  0  0  0
  -26.1760  -38.4940   23.9630 H   0  0  0  0  0  0  0  0  0  0  0  0
  -26.5230  -31.8890   25.0700 C   0  0  1  0  0  0  0  0  0  0  0  0
  -25.4270  -31.6540   26.1350 C   0  0  0  0  0  1  0  0  0  0  0  0
  -27.1000  -30.5090   24.6850 C   0  0  0  0  0  1  0  0  0  0  0  0
  -27.6760  -32.6760   25.7370 C   0  0  0  0  0  1  0  0  0  0  0  0
  -29.4070  -20.4820   19.5430 C   0  0  0  0  0  2  0  0  0  0  0  0
  -30.0750  -18.8990   20.2720 C   0  0  0  0  0  2  0  0  0  0  0  0
  -30.7390  -15.9000   19.9540 C   0  0  0  0  0  0  0  0  0  0  0  0
  -30.7730  -13.4010   19.1280 C   0  0  0  0  0  2  0  0  0  0  0  0
  -29.8410  -13.0730   17.9320 C   0  0  0  0  0  2  0  0  0  0  0  0
  -28.4090  -12.7750   18.4090 C   0  0  0  0  0  2  0  0  0  0  0  0
  -27.9480  -13.7700   19.4990 C   0  0  0  0  0  3  0  0  0  0  0  0
  -29.0120  -14.0170   20.5900 C   0  0  0  0  0  2  0  0  0  0  0  0
  -30.1950  -14.5700   19.9020 N   0  0  0  0  0  0  0  0  0  0  0  0
  -31.9710  -15.8790   19.8030 O   0  0  0  0  0  0  0  0  0  0  0  0
  -29.9570  -17.2000   19.9760 N   0  0  0  0  0  0  0  0  0  0  0  0
  -28.9800  -16.9500   19.9160 H   0  0  0  0  0  0  0  0  0  0  0  0
  -25.6180  -14.3190   20.3630 C   0  0  0  0  0  0  0  0  0  0  0  0
  -24.5590  -13.5410   20.7360 C   0  0  0  0  0  0  0  0  0  0  0  0
  -25.0070  -12.1880   20.6370 C   0  0  0  0  0  0  0  0  0  0  0  0
  -26.6400  -13.4420   20.0490 N   0  0  0  0  0  0  0  0  0  0  0  0
  -26.2870  -12.1510   20.2820 N   0  0  0  0  0  0  0  0  0  0  0  0
  -24.2660  -10.9290   20.7980 C   0  0  0  0  0  0  0  0  0  0  0  0
  -24.6740   -9.9410   21.7210 C   0  0  0  0  0  3  0  0  0  0  0  0
  -23.9300   -8.7520   21.8720 C   0  0  0  0  0  3  0  0  0  0  0  0
  -22.7630   -8.5410   21.0990 C   0  0  0  0  0  0  0  0  0  0  0  0
  -22.3740   -9.5150   20.1640 C   0  0  0  0  0  3  0  0  0  0  0  0
  -23.1200  -10.6970   20.0100 C   0  0  0  0  0  3  0  0  0  0  0  0
  -21.9930   -7.4040   21.1610 O   0  0  0  0  0  0  0  0  0  0  0  0
  -21.8800   -6.6720   22.3160 C   0  0  0  0  0  0  0  0  0  0  0  0
  -21.3500   -7.2260   23.5020 C   0  0  0  0  0  3  0  0  0  0  0  0
  -21.1870   -6.4200   24.6460 C   0  0  0  0  0  3  0  0  0  0  0  0
  -21.5450   -5.0590   24.6040 C   0  0  0  0  0  0  0  0  0  0  0  0
  -22.0670   -4.5040   23.4230 C   0  0  0  0  0  3  0  0  0  0  0  0
  -22.2310   -5.3080   22.2820 C   0  0  0  0  0  0  0  0  0  0  0  0
  -22.7150   -4.7610   21.1410 F   0  0  0  0  0  0  0  0  0  0  0  0
  -21.3810   -4.2820   25.7000 F   0  0  0  0  0  0  0  0  0  0  0  0
  -23.1770  -14.0260   21.0640 C   0  0  0  0  0  0  0  0  0  0  0  0
  -22.4700  -13.3190   21.9370 N   0  0  0  0  0  0  0  0  0  0  0  0
  -22.7370  -15.0710   20.5850 O   0  0  0  0  0  0  0  0  0  0  0  0
  -22.8410  -12.4730   22.3450 H   0  0  0  0  0  0  0  0  0  0  0  0
  -21.5440  -13.6250   22.2000 H   0  0  0  0  0  0  0  0  0  0  0  0
  -25.7910  -15.6940   20.2310 N   0  0  0  0  0  0  0  0  0  0  0  0
  -25.0280  -16.3470   20.3760 H   0  0  0  0  0  0  0  0  0  0  0  0
  -26.6130  -16.1320   19.8390 H   0  0  0  0  0  0  0  0  0  0  0  0
  1  4  1  0
  2  5  2  0
  3  6  2  0
  5  1  1  0
  6  1  1  0
  7  3  2  0
  7  2  1  0
  8 10  1  0
  8  3  1  0
  9 20  2  0
 10 15  1  0
 11 19  1  0
 11 21  1  0
 12 18  1  0
 12 14  1  0
 13 19  1  0
 14 13  1  0
 15 14  2  0
 16 17  1  0
 16 10  2  0
 17 12  2  0
 18 11  1  0
 19  9  1  0
 21 23  2  0
 22 21  1  0
 24 22  1  0
 25 34  2  0
 25 30  1  0
 26 22  1  0
 26 30  1  0
 27 26  1  0
 28 29  1  0
 28 27  1  0
 29 25  1  0
 30 31  2  0
 31 32  1  0
 33 32  2  0
 34 33  1  0
 35  9  1  0
 35 36  1  0
 35 45  1  0
 36 39  1  0
 37 41  1  0
 37 36  1  0
 38 37  2  0
 41 40  1  0
 43 41  1  0
 43 44  1  0
 43 42  1  0
 45 48  1  1
 45 46  1  0
 47 45  1  0
 49  2  1  0
 49 50  1  0
 51 59  1  0
 52 57  1  0
 53 54  1  0
 53 52  1  0
 55 54  1  0
 55 64  1  0
 55 56  1  0
 57 51  1  0
 57 56  1  0
 58 51  2  0
 59 50  1  0
 60 59  1  0
 61 62  2  0
 62 81  1  0
 63 62  1  0
 63 66  1  0
 64 65  1  0
 64 61  1  0
 65 63  2  0
 66 67  1  0
 67 68  2  0
 69 72  1  0
 69 68  1  0
 70 69  2  0
 71 70  1  0
 71 66  2  0
 72 73  1  0
 73 74  1  0
 74 75  2  0
 76 75  1  0
 76 80  1  0
 77 76  2  0
 78 73  2  0
 78 77  1  0
 79 78  1  0
 81 82  1  0
 82 85  1  0
 82 84  1  0
 83 81  2  0
 86 61  1  0
 86 87  1  0
 88 86  1  0
M  ISO  4   3 101   8 101  51 100  59 100
M  END
>  <TORSDO>  (28) 
F 18

>  <SCORE>  (28) 
-13.272

>  <name>  (28) 
27

>  <ligand_id>  (28) 
27

>  <original_smiles>  (28) 
[H]c1c([H])c([H])c2c(c1[H])C([H])([H])C([H])([H])C([H])([H])C2([H])N([H])C(=O)C1([H])N(C(=O)C([H])(N([H])C(=O)C([H])(N([H])C([H])([H])[H])C([H])([H])[H])C(C([H])([H])[H])(C([H])([H])[H])C([H])([H])[H])C([H])([H])c2c([H])c(Oc3nc(C([H])([H])[H])nc(C([H])([H])C([H])([H])N([H])C(=O)N4C([H])([H])C([H])([H])C([H])([H])C([H])(n5nc(-c6c([H])c([H])c(Oc7c([H])c([H])c(F)c([H])c7F)c([H])c6[H])c(C(=O)N([H])[H])c5N([H])[H])C4([H])[H])n3)c([H])c([H])c2C1([H])[H]

>  <smiles>  (28) 
[H]c1c([H])c([H])c2c(c1[H])C([H])([H])C([H])([H])C([H])([H])C2([H])N([H])C(=O)C1([H])N(C(=O)C([H])(N([H])C(=O)C([H])(N([H])C([H])([H])[H])C([H])([H])[H])C(C([H])([H])[H])(C([H])([H])[H])C([H])([H])[H])C([H])([H])c2c([H])c(Oc3nc(C([H])([H])[H])nc(C([H])([H])C([H])([H])N([H])C(=O)N4C([H])([H])C([H])([H])C([H])([H])C([H])(n5nc(-c6c([H])c([H])c(Oc7c([H])c([H])c(F)c([H])c7F)c([H])c6[H])c(C(=O)N([H])[H])c5N([H])[H])C4([H])[H])n3)c([H])c([H])c2C1([H])[H]

$$$$
28:0:0
     RDKit          3D

 88 96  0  0  1  0  0  0  0  0999 V2000
  -29.5280  -22.1380   19.0540 C   0  0  0  0  0  3  0  0  0  0  0  0
  -28.7380  -22.5320   20.1280 C   0  0  0  0  0  0  0  0  0  0  0  0
  -29.3880  -20.0380   20.1300 C   0  0  0  0  0  3  0  0  0  0  0  0
  -30.7270  -20.1180   18.0690 C   0  0  0  0  0  1  0  0  0  0  0  0
  -29.8700  -20.7540   19.0740 N   0  0  0  0  0  0  0  0  0  0  0  0
  -28.7070  -21.1600   20.7520 N   0  0  0  0  0  0  0  0  0  0  0  0
  -28.2300  -21.0210   21.6330 H   0  0  0  0  0  0  0  0  0  0  0  0
  -27.9060  -24.0880   20.4570 C   0  0  0  0  0  2  0  0  0  0  0  0
  -28.2020  -25.7380   20.2690 O   0  0  0  0  0  0  0  0  0  0  0  0
  -24.6320  -31.8400   23.2040 C   0  0  0  0  0  0  0  0  0  0  0  0
  -27.1980  -26.8720   20.2500 C   0  0  0  0  0  0  0  0  0  0  0  0
  -23.4460  -30.4290   21.5750 C   0  0  0  0  0  3  0  0  0  0  0  0
  -24.9020  -28.7970   20.1790 C   0  0  0  0  0  0  0  0  0  0  0  0
  -26.0170  -30.6180   21.4430 C   0  0  0  0  0  2  0  0  0  0  0  0
  -26.0920  -29.1950   20.8020 C   0  0  0  0  0  0  0  0  0  0  0  0
  -27.2330  -28.2580   20.8060 C   0  0  0  0  0  3  0  0  0  0  0  0
  -25.9710  -26.6480   19.5800 C   0  0  0  0  0  3  0  0  0  0  0  0
  -24.8710  -27.5450   19.5470 C   0  0  0  0  0  3  0  0  0  0  0  0
  -23.6840  -29.7260   20.2100 C   0  0  0  0  0  2  0  0  0  0  0  0
  -24.7210  -30.9920   22.1280 N   0  0  0  0  0  0  0  0  0  0  0  0
  -23.5400  -32.1390   23.7160 O   0  0  0  0  0  0  0  0  0  0  0  0
  -22.7420  -29.4490   22.5510 C   0  0  0  0  0  0  0  0  0  0  0  0
  -21.4090  -29.2930   22.4270 N   0  0  0  0  0  0  0  0  0  0  0  0
  -23.4010  -28.8290   23.3890 O   0  0  0  0  0  0  0  0  0  0  0  0
  -20.9310  -29.8440   21.7270 H   0  0  0  0  0  0  0  0  0  0  0  0
  -18.0200  -28.0980   22.9440 C   0  0  0  0  0  0  0  0  0  0  0  0
  -20.5810  -28.3620   23.2030 C   0  0  0  0  0  3  0  0  0  0  0  0
  -20.6790  -26.9270   22.6370 C   0  0  0  0  0  2  0  0  0  0  0  0
  -19.5770  -26.5990   21.6260 C   0  0  0  0  0  2  0  0  0  0  0  0
  -18.1950  -26.7470   22.2700 C   0  0  0  0  0  2  0  0  0  0  0  0
  -19.1400  -28.8630   23.3670 C   0  0  0  0  0  0  0  0  0  0  0  0
  -18.9210  -30.1240   23.9610 C   0  0  0  0  0  3  0  0  0  0  0  0
  -17.6160  -30.6230   24.1330 C   0  0  0  0  0  3  0  0  0  0  0  0
  -16.5100  -29.8560   23.7230 C   0  0  0  0  0  3  0  0  0  0  0  0
  -16.7140  -28.5960   23.1350 C   0  0  0  0  0  3  0  0  0  0  0  0
  -25.8980  -32.4900   23.8390 C   0  0  0  0  0  3  0  0  0  0  0  0
  -25.5750  -33.8900   24.1720 N   0  0  0  0  0  0  0  0  0  0  0  0
  -25.9040  -34.9540   23.4270 C   0  0  0  0  0  0  0  0  0  0  0  0
  -26.5710  -34.8600   22.3930 O   0  0  0  0  0  0  0  0  0  0  0  0
  -24.9790  -34.0360   24.9730 H   0  0  0  0  0  0  0  0  0  0  0  0
  -24.1720  -36.7540   23.1030 C   0  0  0  0  0  1  0  0  0  0  0  0
  -25.4200  -36.3410   23.9000 C   0  0  0  0  0  3  0  0  0  0  0  0
  -27.5560  -37.2290   24.7250 C   0  0  0  0  0  1  0  0  0  0  0  0
  -26.4500  -37.3970   23.7860 N   0  0  0  0  0  0  0  0  0  0  0  0
  -26.0420  -38.3160   23.9360 H   0  0  0  0  0  0  0  0  0  0  0  0
  -26.4010  -31.7310   25.1290 C   0  0  1  0  0  0  0  0  0  0  0  0
  -25.2970  -31.5070   26.1890 C   0  0  0  0  0  1  0  0  0  0  0  0
  -26.9880  -30.3490   24.7650 C   0  0  0  0  0  1  0  0  0  0  0  0
  -27.5480  -32.5310   25.7930 C   0  0  0  0  0  1  0  0  0  0  0  0
  -29.9390  -18.3790   20.5880 C   0  0  0  0  0  2  0  0  0  0  0  0
  -30.3380  -15.4130   20.2030 C   0  0  0  0  0  0  0  0  0  0  0  0
  -30.3190  -12.9420   19.3270 C   0  0  0  0  0  2  0  0  0  0  0  0
  -29.3860  -12.6450   18.1250 C   0  0  0  0  0  2  0  0  0  0  0  0
  -27.9560  -12.3420   18.6020 C   0  0  0  0  0  2  0  0  0  0  0  0
  -27.4960  -13.3320   19.6980 C   0  0  0  0  0  3  0  0  0  0  0  0
  -28.5590  -13.5600   20.7950 C   0  0  0  0  0  2  0  0  0  0  0  0
  -29.7540  -14.1040   20.1180 N   0  0  0  0  0  0  0  0  0  0  0  0
  -31.5710  -15.3580   20.0640 O   0  0  0  0  0  0  0  0  0  0  0  0
  -29.6140  -16.7370   20.2440 N   0  0  0  0  0  0  0  0  0  0  0  0
  -28.6180  -16.5820   20.1930 H   0  0  0  0  0  0  0  0  0  0  0  0
  -25.1380  -13.8800   20.4890 C   0  0  0  0  0  0  0  0  0  0  0  0
  -24.0830  -13.1010   20.8720 C   0  0  0  0  0  0  0  0  0  0  0  0
  -24.5540  -11.7520   20.8350 C   0  0  0  0  0  0  0  0  0  0  0  0
  -26.1810  -13.0090   20.2340 N   0  0  0  0  0  0  0  0  0  0  0  0
  -25.8430  -11.7210   20.5100 N   0  0  0  0  0  0  0  0  0  0  0  0
  -23.8280  -10.4880   21.0250 C   0  0  0  0  0  0  0  0  0  0  0  0
  -24.2680   -9.5150   21.9490 C   0  0  0  0  0  3  0  0  0  0  0  0
  -23.5390   -8.3190   22.1310 C   0  0  0  0  0  3  0  0  0  0  0  0
  -22.3570   -8.0890   21.3890 C   0  0  0  0  0  0  0  0  0  0  0  0
  -21.9360   -9.0500   20.4530 C   0  0  0  0  0  3  0  0  0  0  0  0
  -22.6660  -10.2370   20.2690 C   0  0  0  0  0  3  0  0  0  0  0  0
  -21.5990   -6.9460   21.4820 O   0  0  0  0  0  0  0  0  0  0  0  0
  -21.5630   -6.1970   22.6320 C   0  0  0  0  0  0  0  0  0  0  0  0
  -21.1460   -6.7440   23.8640 C   0  0  0  0  0  3  0  0  0  0  0  0
  -21.0580   -5.9210   25.0050 C   0  0  0  0  0  3  0  0  0  0  0  0
  -21.3770   -4.5530   24.9140 C   0  0  0  0  0  0  0  0  0  0  0  0
  -21.7850   -4.0060   23.6850 C   0  0  0  0  0  3  0  0  0  0  0  0
  -21.8750   -4.8250   22.5470 C   0  0  0  0  0  0  0  0  0  0  0  0
  -22.2500   -4.2870   21.3610 F   0  0  0  0  0  0  0  0  0  0  0  0
  -21.2830   -3.7610   26.0080 F   0  0  0  0  0  0  0  0  0  0  0  0
  -22.6870  -13.5750   21.1500 C   0  0  0  0  0  0  0  0  0  0  0  0
  -21.9660  -12.8800   22.0210 N   0  0  0  0  0  0  0  0  0  0  0  0
  -22.2450  -14.6000   20.6290 O   0  0  0  0  0  0  0  0  0  0  0  0
  -22.3390  -12.0540   22.4640 H   0  0  0  0  0  0  0  0  0  0  0  0
  -21.0290  -13.1790   22.2510 H   0  0  0  0  0  0  0  0  0  0  0  0
  -25.2900  -15.2520   20.3000 N   0  0  0  0  0  0  0  0  0  0  0  0
  -24.5050  -15.8890   20.3790 H   0  0  0  0  0  0  0  0  0  0  0  0
  -26.1040  -15.6820   19.8810 H   0  0  0  0  0  0  0  0  0  0  0  0
  1  5  1  0
  1  2  2  0
  2  8  1  0
  2  6  1  0
  3 50  1  0
  3  6  1  0
  4  5  1  0
  5  3  1  0
  6  7  1  0
  9  8  1  0
 10 21  2  0
 11  9  1  0
 11 16  1  0
 12 20  1  0
 12 22  1  0
 13 19  1  0
 13 15  1  0
 14 20  1  0
 15 16  2  0
 15 14  1  0
 17 11  2  0
 18 17  1  0
 18 13  2  0
 19 12  1  0
 20 10  1  0
 22 24  2  0
 23 22  1  0
 25 23  1  0
 26 35  2  0
 26 31  1  0
 27 23  1  0
 27 31  1  0
 28 27  1  0
 29 30  1  0
 29 28  1  0
 30 26  1  0
 31 32  2  0
 32 33  1  0
 34 33  2  0
 35 34  1  0
 36 10  1  0
 36 37  1  0
 36 46  1  0
 37 40  1  0
 38 42  1  0
 38 37  1  0
 39 38  2  0
 42 41  1  0
 44 42  1  0
 44 45  1  0
 44 43  1  0
 46 49  1  1
 46 47  1  0
 48 46  1  0
 51 59  1  0
 52 57  1  0
 53 54  1  0
 53 52  1  0
 55 54  1  0
 55 64  1  0
 55 56  1  0
 57 51  1  0
 57 56  1  0
 58 51  2  0
 59 50  1  0
 60 59  1  0
 61 62  2  0
 62 81  1  0
 63 62  1  0
 63 66  1  0
 64 61  1  0
 64 65  1  0
 65 63  2  0
 66 67  1  0
 67 68  2  0
 69 72  1  0
 69 68  1  0
 70 69  2  0
 71 70  1  0
 71 66  2  0
 72 73  1  0
 73 74  1  0
 74 75  2  0
 76 75  1  0
 76 80  1  0
 77 76  2  0
 78 73  2  0
 78 77  1  0
 79 78  1  0
 81 82  1  0
 82 85  1  0
 82 84  1  0
 83 81  2  0
 86 87  1  0
 86 61  1  0
 88 86  1  0
M  ISO  4   8 101   9 101  51 100  59 100
M  END
>  <TORSDO>  (29) 
F 18

>  <SCORE>  (29) 
-16.533

>  <name>  (29) 
28

>  <ligand_id>  (29) 
28

>  <original_smiles>  (29) 
[H]c1c([H])c([H])c2c(c1[H])C([H])([H])C([H])([H])C([H])([H])C2([H])N([H])C(=O)C1([H])N(C(=O)C([H])(N([H])C(=O)C([H])(N([H])C([H])([H])[H])C([H])([H])[H])C(C([H])([H])[H])(C([H])([H])[H])C([H])([H])[H])C([H])([H])c2c([H])c(OC([H])([H])c3c([H])n(C([H])([H])[H])c(C([H])([H])N([H])C(=O)N4C([H])([H])C([H])([H])C([H])([H])C([H])(n5nc(-c6c([H])c([H])c(Oc7c([H])c([H])c(F)c([H])c7F)c([H])c6[H])c(C(=O)N([H])[H])c5N([H])[H])C4([H])[H])[n+]3[H])c([H])c([H])c2C1([H])[H]

>  <smiles>  (29) 
[H]c1c([H])c([H])c2c(c1[H])C([H])([H])C([H])([H])C([H])([H])C2([H])N([H])C(=O)C1([H])N(C(=O)C([H])(N([H])C(=O)C([H])(N([H])C([H])([H])[H])C([H])([H])[H])C(C([H])([H])[H])(C([H])([H])[H])C([H])([H])[H])C([H])([H])c2c([H])c(OC([H])([H])c3c([H])n(C([H])([H])[H])c(C([H])([H])N([H])C(=O)N4C([H])([H])C([H])([H])C([H])([H])C([H])(n5nc(-c6c([H])c([H])c(Oc7c([H])c([H])c(F)c([H])c7F)c([H])c6[H])c(C(=O)N([H])[H])c5N([H])[H])C4([H])[H])[n+]3[H])c([H])c([H])c2C1([H])[H]

$$$$
29:0:0
     RDKit          3D

 91 99  0  0  1  0  0  0  0  0999 V2000
  -30.2340  -21.4170   21.1340 C   0  0  0  0  0  3  0  0  0  0  0  0
  -30.5770  -20.0670   21.0900 C   0  0  0  0  0  0  0  0  0  0  0  0
  -29.5580  -19.3580   20.3750 C   0  0  0  0  0  0  0  0  0  0  0  0
  -28.6290  -20.3850   20.0490 N   0  0  0  0  0  0  0  0  0  0  0  0
  -29.0300  -21.7040   20.4970 N   0  0  0  0  0  0  0  0  0  0  0  0
  -31.8290  -19.4490   21.6550 C   0  0  1  0  0  0  0  0  0  0  0  0
  -32.5530  -20.3670   22.2970 F   0  0  0  0  0  0  0  0  0  0  0  0
  -31.5060  -18.4800   22.5080 F   0  0  0  0  0  0  0  0  0  0  0  0
  -32.5640  -18.9370   20.6680 F   0  0  0  0  0  0  0  0  0  0  0  0
  -29.6560  -17.7740   19.7910 C   0  0  0  0  0  2  0  0  0  0  0  0
  -30.4620  -15.1160   20.2330 C   0  0  0  0  0  0  0  0  0  0  0  0
  -30.3780  -12.7280   19.3300 C   0  0  0  0  0  2  0  0  0  0  0  0
  -29.4440  -12.6560   18.0980 C   0  0  0  0  0  2  0  0  0  0  0  0
  -27.9850  -12.4300   18.5340 C   0  0  0  0  0  2  0  0  0  0  0  0
  -27.5780  -13.3400   19.7230 C   0  0  0  0  0  3  0  0  0  0  0  0
  -28.6420  -13.3780   20.8410 C   0  0  0  0  0  2  0  0  0  0  0  0
  -29.8980  -13.8290   20.2280 N   0  0  0  0  0  0  0  0  0  0  0  0
  -31.6360  -15.1810   19.8460 O   0  0  0  0  0  0  0  0  0  0  0  0
  -29.6920  -16.3130   20.4680 N   0  0  0  0  0  0  0  0  0  0  0  0
  -28.8190  -16.1030   20.9280 H   0  0  0  0  0  0  0  0  0  0  0  0
  -25.2020  -13.8820   20.4920 C   0  0  0  0  0  0  0  0  0  0  0  0
  -24.1510  -13.0950   20.8730 C   0  0  0  0  0  0  0  0  0  0  0  0
  -24.6300  -11.7490   20.8340 C   0  0  0  0  0  0  0  0  0  0  0  0
  -26.2510  -13.0180   20.2360 N   0  0  0  0  0  0  0  0  0  0  0  0
  -25.9190  -11.7290   20.5070 N   0  0  0  0  0  0  0  0  0  0  0  0
  -23.9180  -10.4790   21.0300 C   0  0  0  0  0  0  0  0  0  0  0  0
  -24.3670   -9.5140   21.9580 C   0  0  0  0  0  3  0  0  0  0  0  0
  -23.6510   -8.3120   22.1420 C   0  0  0  0  0  3  0  0  0  0  0  0
  -22.4710   -8.0660   21.3990 C   0  0  0  0  0  0  0  0  0  0  0  0
  -22.0420   -9.0200   20.4580 C   0  0  0  0  0  3  0  0  0  0  0  0
  -22.7600  -10.2140   20.2720 C   0  0  0  0  0  3  0  0  0  0  0  0
  -21.7250   -6.9170   21.4940 O   0  0  0  0  0  0  0  0  0  0  0  0
  -21.6930   -6.1720   22.6460 C   0  0  0  0  0  0  0  0  0  0  0  0
  -21.2740   -6.7210   23.8780 C   0  0  0  0  0  3  0  0  0  0  0  0
  -21.1900   -5.9010   25.0220 C   0  0  0  0  0  3  0  0  0  0  0  0
  -21.5170   -4.5350   24.9350 C   0  0  0  0  0  0  0  0  0  0  0  0
  -21.9280   -3.9860   23.7090 C   0  0  0  0  0  3  0  0  0  0  0  0
  -22.0130   -4.8020   22.5670 C   0  0  0  0  0  0  0  0  0  0  0  0
  -22.3910   -4.2610   21.3830 F   0  0  0  0  0  0  0  0  0  0  0  0
  -21.4290   -3.7460   26.0320 F   0  0  0  0  0  0  0  0  0  0  0  0
  -22.7520  -13.5590   21.1600 C   0  0  0  0  0  0  0  0  0  0  0  0
  -22.0390  -12.8540   22.0310 N   0  0  0  0  0  0  0  0  0  0  0  0
  -22.3030  -14.5840   20.6490 O   0  0  0  0  0  0  0  0  0  0  0  0
  -22.4170  -12.0270   22.4710 H   0  0  0  0  0  0  0  0  0  0  0  0
  -21.1020  -13.1480   22.2650 H   0  0  0  0  0  0  0  0  0  0  0  0
  -25.3500  -15.2560   20.3170 N   0  0  0  0  0  0  0  0  0  0  0  0
  -24.5790  -15.9030   20.4490 H   0  0  0  0  0  0  0  0  0  0  0  0
  -26.1820  -15.7030   19.9560 H   0  0  0  0  0  0  0  0  0  0  0  0
  -28.1830  -23.0890   20.6050 C   0  0  0  0  0  2  0  0  0  0  0  0
  -28.4090  -24.6310   19.8590 C   0  0  0  0  0  2  0  0  0  0  0  0
  -28.2730  -26.1370   20.3660 O   0  0  0  0  0  0  0  0  0  0  0  0
  -24.6280  -31.9040   23.2310 C   0  0  0  0  0  0  0  0  0  0  0  0
  -27.2050  -27.1210   20.2300 C   0  0  0  0  0  0  0  0  0  0  0  0
  -23.4300  -30.4960   21.5990 C   0  0  0  0  0  3  0  0  0  0  0  0
  -24.8790  -28.9010   20.1770 C   0  0  0  0  0  0  0  0  0  0  0  0
  -25.9840  -30.7460   21.4370 C   0  0  0  0  0  2  0  0  0  0  0  0
  -26.0560  -29.3450   20.7900 C   0  0  0  0  0  0  0  0  0  0  0  0
  -27.2130  -28.4690   20.7980 C   0  0  0  0  0  3  0  0  0  0  0  0
  -26.0020  -26.7910   19.5710 C   0  0  0  0  0  3  0  0  0  0  0  0
  -24.8680  -27.6420   19.5520 C   0  0  0  0  0  3  0  0  0  0  0  0
  -23.6520  -29.8060   20.2240 C   0  0  0  0  0  2  0  0  0  0  0  0
  -24.7010  -31.0740   22.1430 N   0  0  0  0  0  0  0  0  0  0  0  0
  -23.5410  -32.1920   23.7570 O   0  0  0  0  0  0  0  0  0  0  0  0
  -22.7470  -29.5000   22.5720 C   0  0  0  0  0  0  0  0  0  0  0  0
  -21.4180  -29.3330   22.4530 N   0  0  0  0  0  0  0  0  0  0  0  0
  -23.4190  -28.8780   23.3990 O   0  0  0  0  0  0  0  0  0  0  0  0
  -20.9310  -29.8860   21.7620 H   0  0  0  0  0  0  0  0  0  0  0  0
  -18.0370  -28.1330   22.9730 C   0  0  0  0  0  0  0  0  0  0  0  0
  -20.5980  -28.4000   23.2310 C   0  0  0  0  0  3  0  0  0  0  0  0
  -20.6970  -26.9640   22.6650 C   0  0  0  0  0  2  0  0  0  0  0  0
  -19.5940  -26.6360   21.6550 C   0  0  0  0  0  2  0  0  0  0  0  0
  -18.2130  -26.7820   22.3010 C   0  0  0  0  0  2  0  0  0  0  0  0
  -19.1560  -28.9010   23.3940 C   0  0  0  0  0  0  0  0  0  0  0  0
  -18.9350  -30.1630   23.9850 C   0  0  0  0  0  3  0  0  0  0  0  0
  -17.6300  -30.6600   24.1550 C   0  0  0  0  0  3  0  0  0  0  0  0
  -16.5260  -29.8910   23.7480 C   0  0  0  0  0  3  0  0  0  0  0  0
  -16.7310  -28.6300   23.1630 C   0  0  0  0  0  3  0  0  0  0  0  0
  -25.9040  -32.5470   23.8560 C   0  0  0  0  0  3  0  0  0  0  0  0
  -26.4160  -31.7870   25.1430 C   0  0  1  0  0  0  0  0  0  0  0  0
  -25.3200  -31.5620   26.2090 C   0  0  0  0  0  1  0  0  0  0  0  0
  -27.0020  -30.4060   24.7730 C   0  0  0  0  0  1  0  0  0  0  0  0
  -27.5640  -32.5880   25.8020 C   0  0  0  0  0  1  0  0  0  0  0  0
  -25.5870  -33.9470   24.1850 N   0  0  0  0  0  0  0  0  0  0  0  0
  -25.9120  -35.0050   23.4300 C   0  0  0  0  0  0  0  0  0  0  0  0
  -26.5780  -34.9050   22.3960 O   0  0  0  0  0  0  0  0  0  0  0  0
  -24.9930  -34.0970   24.9870 H   0  0  0  0  0  0  0  0  0  0  0  0
  -24.1800  -36.8020   23.0990 C   0  0  0  0  0  1  0  0  0  0  0  0
  -25.4280  -36.3930   23.8960 C   0  0  0  0  0  3  0  0  0  0  0  0
  -27.5690  -37.2840   24.7090 C   0  0  0  0  0  1  0  0  0  0  0  0
  -26.4590  -37.4490   23.7740 N   0  0  0  0  0  0  0  0  0  0  0  0
  -26.0510  -38.3680   23.9240 H   0  0  0  0  0  0  0  0  0  0  0  0
  2  1  2  0
  2  6  1  0
  3  2  1  0
  4  3  2  0
  4  5  1  0
  5 49  1  0
  5  1  1  0
  6  7  1  1
  6  8  1  0
  9  6  1  0
 10  3  1  0
 10 19  1  0
 11 19  1  0
 12 17  1  0
 13 14  1  0
 13 12  1  0
 15 14  1  0
 15 24  1  0
 15 16  1  0
 17 11  1  0
 17 16  1  0
 18 11  2  0
 19 20  1  0
 21 22  2  0
 22 41  1  0
 23 22  1  0
 23 26  1  0
 24 21  1  0
 24 25  1  0
 25 23  2  0
 26 27  1  0
 27 28  2  0
 29 32  1  0
 29 28  1  0
 30 29  2  0
 31 30  1  0
 31 26  2  0
 32 33  1  0
 33 34  1  0
 34 35  2  0
 36 35  1  0
 36 40  1  0
 37 36  2  0
 38 33  2  0
 38 37  1  0
 39 38  1  0
 41 42  1  0
 42 45  1  0
 42 44  1  0
 43 41  2  0
 46 47  1  0
 46 21  1  0
 48 46  1  0
 50 51  1  0
 50 49  1  0
 52 63  2  0
 53 51  1  0
 53 58  1  0
 54 62  1  0
 54 64  1  0
 55 61  1  0
 55 57  1  0
 56 62  1  0
 57 58  2  0
 57 56  1  0
 59 53  2  0
 60 59  1  0
 60 55  2  0
 61 54  1  0
 62 52  1  0
 64 66  2  0
 65 64  1  0
 67 65  1  0
 68 77  2  0
 68 73  1  0
 69 65  1  0
 69 73  1  0
 70 69  1  0
 71 72  1  0
 71 70  1  0
 72 68  1  0
 73 74  2  0
 74 75  1  0
 76 75  2  0
 77 76  1  0
 78 52  1  0
 78 83  1  0
 78 79  1  0
 79 82  1  1
 79 80  1  0
 81 79  1  0
 83 86  1  0
 84 88  1  0
 84 83  1  0
 85 84  2  0
 88 87  1  0
 90 88  1  0
 90 91  1  0
 90 89  1  0
M  ISO  4  11 100  19 100  50 101  51 101
M  END
>  <TORSDO>  (30) 
F 20

>  <SCORE>  (30) 
-14.959

>  <name>  (30) 
29

>  <ligand_id>  (30) 
29

>  <original_smiles>  (30) 
[H]c1c([H])c([H])c2c(c1[H])C([H])([H])C([H])([H])C([H])([H])C2([H])N([H])C(=O)C1([H])N(C(=O)C([H])(N([H])C(=O)C([H])(N([H])C([H])([H])[H])C([H])([H])[H])C(C([H])([H])[H])(C([H])([H])[H])C([H])([H])[H])C([H])([H])c2c([H])c(OC([H])([H])C([H])([H])n3nc(C([H])([H])N([H])C(=O)N4C([H])([H])C([H])([H])C([H])([H])C([H])(n5nc(-c6c([H])c([H])c(Oc7c([H])c([H])c(F)c([H])c7F)c([H])c6[H])c(C(=O)N([H])[H])c5N([H])[H])C4([H])[H])c(C(F)(F)F)c3[H])c([H])c([H])c2C1([H])[H]

>  <smiles>  (30) 
[H]c1c([H])c([H])c2c(c1[H])C([H])([H])C([H])([H])C([H])([H])C2([H])N([H])C(=O)C1([H])N(C(=O)C([H])(N([H])C(=O)C([H])(N([H])C([H])([H])[H])C([H])([H])[H])C(C([H])([H])[H])(C([H])([H])[H])C([H])([H])[H])C([H])([H])c2c([H])c(OC([H])([H])C([H])([H])n3nc(C([H])([H])N([H])C(=O)N4C([H])([H])C([H])([H])C([H])([H])C([H])(n5nc(-c6c([H])c([H])c(Oc7c([H])c([H])c(F)c([H])c7F)c([H])c6[H])c(C(=O)N([H])[H])c5N([H])[H])C4([H])[H])c(C(F)(F)F)c3[H])c([H])c([H])c2C1([H])[H]

$$$$
30:0:0
     RDKit          3D

 89 97  0  0  1  0  0  0  0  0999 V2000
  -28.2820  -21.9590   20.2710 C   0  0  0  0  0  3  0  0  0  0  0  0
  -28.7940  -23.3370   20.3630 C   0  0  0  0  0  0  0  0  0  0  0  0
  -29.2420  -20.9710   20.5790 C   0  0  0  0  0  0  0  0  0  0  0  0
  -31.5850  -21.3090   21.3980 C   0  0  0  0  0  1  0  0  0  0  0  0
  -30.0680  -23.1680   20.7710 N   0  0  0  0  0  0  0  0  0  0  0  0
  -30.3120  -21.7920   20.9100 N   0  0  0  0  0  0  0  0  0  0  0  0
  -27.9810  -24.7390   19.9880 C   0  0  0  0  0  2  0  0  0  0  0  0
  -28.2890  -26.2480   20.2470 O   0  0  0  0  0  0  0  0  0  0  0  0
  -24.5750  -31.9090   23.2230 C   0  0  0  0  0  0  0  0  0  0  0  0
  -27.2220  -27.2300   20.1690 C   0  0  0  0  0  0  0  0  0  0  0  0
  -23.3910  -30.5000   21.5860 C   0  0  0  0  0  3  0  0  0  0  0  0
  -24.8550  -28.9480   20.1510 C   0  0  0  0  0  0  0  0  0  0  0  0
  -25.9410  -30.7960   21.4130 C   0  0  0  0  0  2  0  0  0  0  0  0
  -26.0330  -29.4050   20.7570 C   0  0  0  0  0  0  0  0  0  0  0  0
  -27.2130  -28.5670   20.7450 C   0  0  0  0  0  3  0  0  0  0  0  0
  -26.0090  -26.8780   19.5260 C   0  0  0  0  0  3  0  0  0  0  0  0
  -24.8580  -27.6950   19.5200 C   0  0  0  0  0  3  0  0  0  0  0  0
  -23.6160  -29.8310   20.2050 C   0  0  0  0  0  2  0  0  0  0  0  0
  -24.6560  -31.0910   22.1290 N   0  0  0  0  0  0  0  0  0  0  0  0
  -23.4850  -32.1790   23.7530 O   0  0  0  0  0  0  0  0  0  0  0  0
  -22.7190  -29.4880   22.5480 C   0  0  0  0  0  0  0  0  0  0  0  0
  -21.3920  -29.3080   22.4240 N   0  0  0  0  0  0  0  0  0  0  0  0
  -23.3970  -28.8690   23.3720 O   0  0  0  0  0  0  0  0  0  0  0  0
  -20.9040  -29.8520   21.7270 H   0  0  0  0  0  0  0  0  0  0  0  0
  -18.0110  -28.0950   22.9440 C   0  0  0  0  0  0  0  0  0  0  0  0
  -20.5740  -28.3660   23.1940 C   0  0  0  0  0  3  0  0  0  0  0  0
  -20.6770  -26.9380   22.6080 C   0  0  0  0  0  2  0  0  0  0  0  0
  -19.5650  -26.6180   21.6030 C   0  0  0  0  0  2  0  0  0  0  0  0
  -18.1880  -26.7520   22.2560 C   0  0  0  0  0  2  0  0  0  0  0  0
  -19.1310  -28.8580   23.3690 C   0  0  0  0  0  0  0  0  0  0  0  0
  -18.9060  -30.1160   23.9740 C   0  0  0  0  0  3  0  0  0  0  0  0
  -17.5980  -30.6020   24.1600 C   0  0  0  0  0  3  0  0  0  0  0  0
  -16.4960  -29.8360   23.7460 C   0  0  0  0  0  3  0  0  0  0  0  0
  -16.7050  -28.5820   23.1420 C   0  0  0  0  0  3  0  0  0  0  0  0
  -25.8430  -32.5580   23.8550 C   0  0  0  0  0  3  0  0  0  0  0  0
  -26.3460  -31.8000   25.1450 C   0  0  1  0  0  0  0  0  0  0  0  0
  -25.2430  -31.5720   26.2070 C   0  0  0  0  0  1  0  0  0  0  0  0
  -26.9390  -30.4200   24.7750 C   0  0  0  0  0  1  0  0  0  0  0  0
  -27.4840  -32.6090   25.8130 C   0  0  0  0  0  1  0  0  0  0  0  0
  -25.5190  -33.9570   24.1790 N   0  0  0  0  0  0  0  0  0  0  0  0
  -25.8440  -35.0110   23.4200 C   0  0  0  0  0  0  0  0  0  0  0  0
  -26.5150  -34.9110   22.3900 O   0  0  0  0  0  0  0  0  0  0  0  0
  -24.9190  -34.1110   24.9770 H   0  0  0  0  0  0  0  0  0  0  0  0
  -24.1090  -36.8030   23.0590 C   0  0  0  0  0  1  0  0  0  0  0  0
  -25.3490  -36.4000   23.8760 C   0  0  0  0  0  3  0  0  0  0  0  0
  -27.4770  -37.2930   24.7180 C   0  0  0  0  0  1  0  0  0  0  0  0
  -26.3780  -37.4560   23.7690 N   0  0  0  0  0  0  0  0  0  0  0  0
  -25.9690  -38.3750   23.9110 H   0  0  0  0  0  0  0  0  0  0  0  0
  -29.1270  -19.3330   20.6180 C   0  0  0  0  0  3  0  0  0  0  0  0
  -30.2090  -18.0210   20.8210 C   0  0  0  0  0  3  0  0  0  0  0  0
  -30.5030  -15.2260   20.6560 C   0  0  0  0  0  0  0  0  0  0  0  0
  -30.4620  -12.8370   19.7250 C   0  0  0  0  0  2  0  0  0  0  0  0
  -29.5680  -12.6080   18.4830 C   0  0  0  0  0  2  0  0  0  0  0  0
  -28.0970  -12.3500   18.8730 C   0  0  0  0  0  2  0  0  0  0  0  0
  -27.6050  -13.3080   19.9780 C   0  0  0  0  0  3  0  0  0  0  0  0
  -28.6350  -13.4880   21.1310 C   0  0  0  0  0  2  0  0  0  0  0  0
  -29.8930  -13.9610   20.5300 N   0  0  0  0  0  0  0  0  0  0  0  0
  -31.7390  -15.2180   20.6130 O   0  0  0  0  0  0  0  0  0  0  0  0
  -29.7730  -16.4890   20.6210 N   0  0  0  0  0  0  0  0  0  0  0  0
  -25.2160  -13.8880   20.6990 C   0  0  0  0  0  0  0  0  0  0  0  0
  -24.1460  -13.1020   21.0280 C   0  0  0  0  0  0  0  0  0  0  0  0
  -24.6260  -11.7580   20.9930 C   0  0  0  0  0  0  0  0  0  0  0  0
  -26.2690  -13.0140   20.4670 N   0  0  0  0  0  0  0  0  0  0  0  0
  -25.9220  -11.7290   20.7170 N   0  0  0  0  0  0  0  0  0  0  0  0
  -23.9060  -10.4910   21.1420 C   0  0  0  0  0  0  0  0  0  0  0  0
  -24.3180   -9.5150   22.0740 C   0  0  0  0  0  3  0  0  0  0  0  0
  -23.6040   -8.3060   22.2010 C   0  0  0  0  0  3  0  0  0  0  0  0
  -22.4660   -8.0620   21.3980 C   0  0  0  0  0  0  0  0  0  0  0  0
  -22.0730   -9.0300   20.4580 C   0  0  0  0  0  3  0  0  0  0  0  0
  -22.7870  -10.2310   20.3290 C   0  0  0  0  0  3  0  0  0  0  0  0
  -21.7270   -6.9050   21.4360 O   0  0  0  0  0  0  0  0  0  0  0  0
  -21.6400   -6.1470   22.5760 C   0  0  0  0  0  0  0  0  0  0  0  0
  -21.1180   -6.6710   23.7780 C   0  0  0  0  0  3  0  0  0  0  0  0
  -20.9770   -5.8370   24.9060 C   0  0  0  0  0  3  0  0  0  0  0  0
  -21.3500   -4.4820   24.8310 C   0  0  0  0  0  0  0  0  0  0  0  0
  -21.8640   -3.9580   23.6320 C   0  0  0  0  0  3  0  0  0  0  0  0
  -22.0060   -4.7890   22.5070 C   0  0  0  0  0  0  0  0  0  0  0  0
  -22.4820   -4.2730   21.3470 F   0  0  0  0  0  0  0  0  0  0  0  0
  -21.2100   -3.6820   25.9130 F   0  0  0  0  0  0  0  0  0  0  0  0
  -22.7380  -13.5680   21.2540 C   0  0  0  0  0  0  0  0  0  0  0  0
  -21.9970  -12.8520   22.0930 N   0  0  0  0  0  0  0  0  0  0  0  0
  -22.3040  -14.5930   20.7330 O   0  0  0  0  0  0  0  0  0  0  0  0
  -22.3650  -12.0140   22.5140 H   0  0  0  0  0  0  0  0  0  0  0  0
  -21.0520  -13.1370   22.3110 H   0  0  0  0  0  0  0  0  0  0  0  0
  -25.3580  -15.2590   20.5420 N   0  0  0  0  0  0  0  0  0  0  0  0
  -24.5830  -15.9010   20.6610 H   0  0  0  0  0  0  0  0  0  0  0  0
  -26.1980  -15.6980   20.1870 H   0  0  0  0  0  0  0  0  0  0  0  0
  -28.3990  -16.7020   18.5280 C   0  0  0  0  0  1  0  0  0  0  0  0
  -28.4160  -16.5330   20.0670 C   0  0  0  0  0  2  0  0  0  0  0  0
  1  2  1  0
  1  3  2  0
  2  5  2  0
  3 49  1  0
  3  6  1  0
  5  6  1  0
  6  4  1  0
  7  8  1  0
  7  2  1  0
  9 20  2  0
 10  8  1  0
 10 15  1  0
 11 19  1  0
 11 21  1  0
 12 18  1  0
 12 14  1  0
 13 19  1  0
 14 13  1  0
 15 14  2  0
 16 10  2  0
 17 16  1  0
 17 12  2  0
 18 11  1  0
 19  9  1  0
 21 23  2  0
 22 21  1  0
 24 22  1  0
 25 34  2  0
 25 30  1  0
 26 22  1  0
 26 30  1  0
 27 26  1  0
 28 29  1  0
 28 27  1  0
 29 25  1  0
 30 31  2  0
 31 32  1  0
 33 32  2  0
 34 33  1  0
 35  9  1  0
 35 40  1  0
 35 36  1  0
 36 39  1  1
 36 37  1  0
 38 36  1  0
 40 43  1  0
 41 45  1  0
 41 40  1  0
 42 41  2  0
 45 44  1  0
 47 45  1  0
 47 48  1  0
 47 46  1  0
 49 50  2  0
 52 57  1  0
 53 54  1  0
 53 52  1  0
 55 54  1  0
 55 63  1  0
 55 56  1  0
 57 51  1  0
 57 56  1  0
 58 51  2  0
 59 51  1  0
 59 50  1  0
 60 61  2  0
 61 80  1  0
 62 61  1  0
 62 65  1  0
 63 60  1  0
 63 64  1  0
 64 62  2  0
 65 66  1  0
 66 67  2  0
 68 71  1  0
 68 67  1  0
 69 68  2  0
 70 69  1  0
 70 65  2  0
 71 72  1  0
 72 73  1  0
 73 74  2  0
 75 74  1  0
 75 79  1  0
 76 75  2  0
 77 72  2  0
 77 76  1  0
 78 77  1  0
 80 81  1  0
 81 84  1  0
 81 83  1  0
 82 80  2  0
 85 86  1  0
 85 60  1  0
 87 85  1  0
 88 89  1  0
 89 59  1  0
M  ISO  4   7 101   8 101  51 100  59 100
M  END
>  <TORSDO>  (31) 
F 20

>  <SCORE>  (31) 
-14.457

>  <name>  (31) 
30

>  <ligand_id>  (31) 
30

>  <original_smiles>  (31) 
[H]c1c([H])c([H])c2c(c1[H])C([H])([H])C([H])([H])C([H])([H])C2([H])N([H])C(=O)C1([H])N(C(=O)C([H])(N([H])C(=O)C([H])(N([H])C([H])([H])[H])C([H])([H])[H])C(C([H])([H])[H])(C([H])([H])[H])C([H])([H])[H])C([H])([H])c2c([H])c(OC([H])([H])c3nn(C([H])([H])[H])c(C([H])([H])C([H])([H])N(C(=O)N4C([H])([H])C([H])([H])C([H])([H])C([H])(n5nc(-c6c([H])c([H])c(Oc7c([H])c([H])c(F)c([H])c7F)c([H])c6[H])c(C(=O)N([H])[H])c5N([H])[H])C4([H])[H])C([H])([H])C([H])([H])[H])c3[H])c([H])c([H])c2C1([H])[H]

>  <smiles>  (31) 
[H]c1c([H])c([H])c2c(c1[H])C([H])([H])C([H])([H])C([H])([H])C2([H])N([H])C(=O)C1([H])N(C(=O)C([H])(N([H])C(=O)C([H])(N([H])C([H])([H])[H])C([H])([H])[H])C(C([H])([H])[H])(C([H])([H])[H])C([H])([H])[H])C([H])([H])c2c([H])c(OC([H])([H])c3nn(C([H])([H])[H])c(C([H])([H])C([H])([H])N(C(=O)N4C([H])([H])C([H])([H])C([H])([H])C([H])(n5nc(-c6c([H])c([H])c(Oc7c([H])c([H])c(F)c([H])c7F)c([H])c6[H])c(C(=O)N([H])[H])c5N([H])[H])C4([H])[H])C([H])([H])C([H])([H])[H])c3[H])c([H])c([H])c2C1([H])[H]

$$$$
31:0:0
     RDKit          3D

 89 97  0  0  1  0  0  0  0  0999 V2000
  -28.7470  -20.6240   21.4700 C   0  0  0  0  0  3  0  0  0  0  0  0
  -30.2360  -21.9280   19.6580 C   0  0  0  0  0  3  0  0  0  0  0  0
  -29.7260  -19.9020   20.7260 C   0  0  0  0  0  0  0  0  0  0  0  0
  -29.3080  -22.6610   20.4580 C   0  0  0  0  0  0  0  0  0  0  0  0
  -30.4580  -20.5800   19.7940 N   0  0  0  0  0  0  0  0  0  0  0  0
  -28.5450  -21.9750   21.3540 N   0  0  0  0  0  0  0  0  0  0  0  0
  -30.1560  -18.4470   21.1500 C   0  0  0  0  0  3  0  0  0  0  0  0
  -30.0420  -17.1810   20.1740 C   0  0  0  0  0  3  0  0  0  0  0  0
  -30.7860  -14.7200   20.0890 C   0  0  0  0  0  0  0  0  0  0  0  0
  -30.4100  -12.5380   18.9350 C   0  0  0  0  0  2  0  0  0  0  0  0
  -29.4040  -12.7170   17.7750 C   0  0  0  0  0  2  0  0  0  0  0  0
  -27.9570  -12.5630   18.2810 C   0  0  0  0  0  2  0  0  0  0  0  0
  -27.6880  -13.4060   19.5540 C   0  0  0  0  0  3  0  0  0  0  0  0
  -28.8000  -13.2080   20.6060 C   0  0  0  0  0  2  0  0  0  0  0  0
  -30.0920  -13.5370   19.9810 N   0  0  0  0  0  0  0  0  0  0  0  0
  -31.8420  -14.8860   19.4670 O   0  0  0  0  0  0  0  0  0  0  0  0
  -30.2620  -15.7270   22.2250 C   0  0  0  0  0  1  0  0  0  0  0  0
  -30.2040  -15.7800   20.7570 N   0  0  0  0  0  0  0  0  0  0  0  0
  -25.3580  -14.0240   20.4470 C   0  0  0  0  0  0  0  0  0  0  0  0
  -24.3010  -13.2620   20.8610 C   0  0  0  0  0  0  0  0  0  0  0  0
  -24.7320  -11.9020   20.7630 C   0  0  0  0  0  0  0  0  0  0  0  0
  -26.3670  -13.1340   20.1160 N   0  0  0  0  0  0  0  0  0  0  0  0
  -26.0000  -11.8500   20.3720 N   0  0  0  0  0  0  0  0  0  0  0  0
  -23.9940  -10.6470   20.9650 C   0  0  0  0  0  0  0  0  0  0  0  0
  -24.4490   -9.6590   21.8660 C   0  0  0  0  0  3  0  0  0  0  0  0
  -23.7130   -8.4680   22.0530 C   0  0  0  0  0  3  0  0  0  0  0  0
  -22.5090   -8.2580   21.3400 C   0  0  0  0  0  0  0  0  0  0  0  0
  -22.0750   -9.2330   20.4240 C   0  0  0  0  0  3  0  0  0  0  0  0
  -22.8120  -10.4150   20.2350 C   0  0  0  0  0  3  0  0  0  0  0  0
  -21.7390   -7.1250   21.4390 O   0  0  0  0  0  0  0  0  0  0  0  0
  -21.6900   -6.3860   22.5940 C   0  0  0  0  0  0  0  0  0  0  0  0
  -21.2960   -6.9530   23.8270 C   0  0  0  0  0  3  0  0  0  0  0  0
  -21.2000   -6.1420   24.9750 C   0  0  0  0  0  3  0  0  0  0  0  0
  -21.4820   -4.7660   24.8920 C   0  0  0  0  0  0  0  0  0  0  0  0
  -21.8650   -4.1960   23.6640 C   0  0  0  0  0  3  0  0  0  0  0  0
  -21.9670   -5.0060   22.5180 C   0  0  0  0  0  0  0  0  0  0  0  0
  -22.3210   -4.4500   21.3330 F   0  0  0  0  0  0  0  0  0  0  0  0
  -21.3770   -3.9840   25.9910 F   0  0  0  0  0  0  0  0  0  0  0  0
  -22.9330  -13.7540   21.2370 C   0  0  0  0  0  0  0  0  0  0  0  0
  -22.2540  -13.0510   22.1350 N   0  0  0  0  0  0  0  0  0  0  0  0
  -22.4770  -14.7970   20.7680 O   0  0  0  0  0  0  0  0  0  0  0  0
  -22.6360  -12.2080   22.5410 H   0  0  0  0  0  0  0  0  0  0  0  0
  -21.3380  -13.3620   22.4290 H   0  0  0  0  0  0  0  0  0  0  0  0
  -25.5460  -15.3960   20.2980 N   0  0  0  0  0  0  0  0  0  0  0  0
  -24.8160  -16.0790   20.4760 H   0  0  0  0  0  0  0  0  0  0  0  0
  -26.4020  -15.8160   19.9610 H   0  0  0  0  0  0  0  0  0  0  0  0
  -29.3210  -24.2340   20.5270 C   0  0  0  0  0  3  0  0  0  0  0  0
  -28.0900  -25.0990   20.0460 C   0  0  0  0  0  3  0  0  0  0  0  0
  -28.2520  -26.5650   20.1710 O   0  0  0  0  0  0  0  0  0  0  0  0
  -24.5100  -31.9080   23.2210 C   0  0  0  0  0  0  0  0  0  0  0  0
  -27.1120  -27.3800   20.1320 C   0  0  0  0  0  0  0  0  0  0  0  0
  -23.2920  -30.4960   21.6020 C   0  0  0  0  0  3  0  0  0  0  0  0
  -24.7290  -28.9570   20.1540 C   0  0  0  0  0  0  0  0  0  0  0  0
  -25.8240  -30.8400   21.3760 C   0  0  0  0  0  2  0  0  0  0  0  0
  -25.9030  -29.4640   20.7270 C   0  0  0  0  0  0  0  0  0  0  0  0
  -27.0980  -28.6880   20.7030 C   0  0  0  0  0  3  0  0  0  0  0  0
  -25.9130  -26.9180   19.5440 C   0  0  0  0  0  3  0  0  0  0  0  0
  -24.7360  -27.6880   19.5550 C   0  0  0  0  0  3  0  0  0  0  0  0
  -23.4890  -29.8240   20.2180 C   0  0  0  0  0  2  0  0  0  0  0  0
  -24.5610  -31.1010   22.1220 N   0  0  0  0  0  0  0  0  0  0  0  0
  -23.4350  -32.1740   23.7780 O   0  0  0  0  0  0  0  0  0  0  0  0
  -22.6560  -29.4720   22.5730 C   0  0  0  0  0  0  0  0  0  0  0  0
  -21.3330  -29.2700   22.4580 N   0  0  0  0  0  0  0  0  0  0  0  0
  -23.3520  -28.8650   23.3890 O   0  0  0  0  0  0  0  0  0  0  0  0
  -20.8270  -29.8200   21.7770 H   0  0  0  0  0  0  0  0  0  0  0  0
  -17.9810  -28.0130   22.9820 C   0  0  0  0  0  0  0  0  0  0  0  0
  -20.5350  -28.3250   23.2410 C   0  0  0  0  0  3  0  0  0  0  0  0
  -20.6610  -26.8900   22.6780 C   0  0  0  0  0  2  0  0  0  0  0  0
  -19.5630  -26.5350   21.6710 C   0  0  0  0  0  2  0  0  0  0  0  0
  -18.1800  -26.6600   22.3180 C   0  0  0  0  0  2  0  0  0  0  0  0
  -19.0860  -28.8010   23.4000 C   0  0  0  0  0  0  0  0  0  0  0  0
  -18.8450  -30.0660   23.9800 C   0  0  0  0  0  3  0  0  0  0  0  0
  -17.5310  -30.5450   24.1430 C   0  0  0  0  0  3  0  0  0  0  0  0
  -16.4400  -29.7530   23.7430 C   0  0  0  0  0  3  0  0  0  0  0  0
  -16.6660  -28.4880   23.1690 C   0  0  0  0  0  3  0  0  0  0  0  0
  -25.8000  -32.5520   23.8210 C   0  0  0  0  0  3  0  0  0  0  0  0
  -26.3390  -31.7920   25.0960 C   0  0  1  0  0  0  0  0  0  0  0  0
  -25.2610  -31.5440   26.1770 C   0  0  0  0  0  1  0  0  0  0  0  0
  -26.9410  -30.4230   24.7050 C   0  0  0  0  0  1  0  0  0  0  0  0
  -27.4860  -32.6050   25.7440 C   0  0  0  0  0  1  0  0  0  0  0  0
  -25.4880  -33.9500   24.1500 N   0  0  0  0  0  0  0  0  0  0  0  0
  -25.7920  -35.0000   23.3770 C   0  0  0  0  0  0  0  0  0  0  0  0
  -26.4390  -34.8950   22.3300 O   0  0  0  0  0  0  0  0  0  0  0  0
  -24.9250  -34.1030   24.9730 H   0  0  0  0  0  0  0  0  0  0  0  0
  -24.0330  -36.7700   23.0550 C   0  0  0  0  0  1  0  0  0  0  0  0
  -25.3010  -36.3860   23.8370 C   0  0  0  0  0  3  0  0  0  0  0  0
  -27.4460  -37.3000   24.6050 C   0  0  0  0  0  1  0  0  0  0  0  0
  -26.3170  -37.4500   23.6890 N   0  0  0  0  0  0  0  0  0  0  0  0
  -25.9060  -38.3660   23.8420 H   0  0  0  0  0  0  0  0  0  0  0  0
  2  5  2  0
  2  4  1  0
  3  7  1  0
  3  1  2  0
  4 47  1  0
  4  6  2  0
  5  3  1  0
  6  1  1  0
  8 18  1  0
  8  7  2  0
  9 18  1  0
 10 15  1  0
 11 12  1  0
 11 10  1  0
 13 12  1  0
 13 22  1  0
 13 14  1  0
 15  9  1  0
 15 14  1  0
 16  9  2  0
 18 17  1  0
 19 20  2  0
 20 39  1  0
 21 20  1  0
 21 24  1  0
 22 23  1  0
 22 19  1  0
 23 21  2  0
 24 25  1  0
 25 26  2  0
 27 30  1  0
 27 26  1  0
 28 27  2  0
 29 28  1  0
 29 24  2  0
 30 31  1  0
 31 32  1  0
 32 33  2  0
 34 33  1  0
 34 38  1  0
 35 34  2  0
 36 31  2  0
 36 35  1  0
 37 36  1  0
 39 40  1  0
 40 43  1  0
 40 42  1  0
 41 39  2  0
 44 19  1  0
 44 45  1  0
 46 44  1  0
 48 49  1  0
 48 47  2  0
 50 61  2  0
 51 49  1  0
 51 56  1  0
 52 60  1  0
 52 62  1  0
 53 59  1  0
 53 55  1  0
 54 60  1  0
 55 54  1  0
 56 55  2  0
 57 58  1  0
 57 51  2  0
 58 53  2  0
 59 52  1  0
 60 50  1  0
 62 64  2  0
 63 62  1  0
 65 63  1  0
 66 75  2  0
 66 71  1  0
 67 63  1  0
 67 71  1  0
 68 67  1  0
 69 70  1  0
 69 68  1  0
 70 66  1  0
 71 72  2  0
 72 73  1  0
 74 73  2  0
 75 74  1  0
 76 50  1  0
 76 81  1  0
 76 77  1  0
 77 80  1  1
 77 78  1  0
 79 77  1  0
 81 84  1  0
 82 86  1  0
 82 81  1  0
 83 82  2  0
 86 85  1  0
 88 86  1  0
 88 89  1  0
 88 87  1  0
M  ISO  4   9 100  18 100  48 101  49 101
M  END
>  <TORSDO>  (32) 
F 20

>  <SCORE>  (32) 
-12.849

>  <name>  (32) 
31

>  <ligand_id>  (32) 
31

>  <original_smiles>  (32) 
[H]c1nc(C([H])([H])C([H])([H])N(C(=O)N2C([H])([H])C([H])([H])C([H])([H])C([H])(n3nc(-c4c([H])c([H])c(Oc5c([H])c([H])c(F)c([H])c5F)c([H])c4[H])c(C(=O)N([H])[H])c3N([H])[H])C2([H])[H])C([H])([H])[H])c([H])nc1C([H])([H])C([H])([H])Oc1c([H])c([H])c2c(c1[H])C([H])([H])N(C(=O)C([H])(N([H])C(=O)C([H])(N([H])C([H])([H])[H])C([H])([H])[H])C(C([H])([H])[H])(C([H])([H])[H])C([H])([H])[H])C([H])(C(=O)N([H])C1([H])c3c([H])c([H])c([H])c([H])c3C([H])([H])C([H])([H])C1([H])[H])C2([H])[H]

>  <smiles>  (32) 
[H]c1nc(C([H])([H])C([H])([H])N(C(=O)N2C([H])([H])C([H])([H])C([H])([H])C([H])(n3nc(-c4c([H])c([H])c(Oc5c([H])c([H])c(F)c([H])c5F)c([H])c4[H])c(C(=O)N([H])[H])c3N([H])[H])C2([H])[H])C([H])([H])[H])c([H])nc1C([H])([H])C([H])([H])Oc1c([H])c([H])c2c(c1[H])C([H])([H])N(C(=O)C([H])(N([H])C(=O)C([H])(N([H])C([H])([H])[H])C([H])([H])[H])C(C([H])([H])[H])(C([H])([H])[H])C([H])([H])[H])C([H])(C(=O)N([H])C1([H])c3c([H])c([H])c([H])c([H])c3C([H])([H])C([H])([H])C1([H])[H])C2([H])[H]

$$$$
32:0:0
     RDKit          3D

 89 97  0  0  1  0  0  0  0  0999 V2000
  -27.0310  -22.0190   19.5400 C   0  0  0  0  0  1  0  0  0  0  0  0
  -28.3460  -22.1640   20.3370 C   0  0  0  0  0  3  0  0  0  0  0  0
  -30.7710  -19.4550   20.5450 C   0  0  0  0  0  3  0  0  0  0  0  0
  -28.7800  -19.5830   19.7450 C   0  0  0  0  0  3  0  0  0  0  0  0
  -29.7720  -18.6270   19.9410 C   0  0  0  0  0  0  0  0  0  0  0  0
  -30.4100  -20.7430   20.7110 N   0  0  0  0  0  0  0  0  0  0  0  0
  -29.1660  -20.8740   20.1910 N   0  0  0  0  0  0  0  0  0  0  0  0
  -29.8310  -17.1020   19.4680 C   0  0  0  0  0  2  0  0  0  0  0  0
  -30.7530  -14.7500   20.0280 C   0  0  0  0  0  0  0  0  0  0  0  0
  -30.4410  -12.5120   18.9550 C   0  0  0  0  0  2  0  0  0  0  0  0
  -29.4440  -12.6500   17.7850 C   0  0  0  0  0  2  0  0  0  0  0  0
  -27.9980  -12.4750   18.2860 C   0  0  0  0  0  2  0  0  0  0  0  0
  -27.7030  -13.3340   19.5460 C   0  0  0  0  0  3  0  0  0  0  0  0
  -28.8180  -13.1870   20.6050 C   0  0  0  0  0  2  0  0  0  0  0  0
  -30.0890  -13.5430   19.9600 N   0  0  0  0  0  0  0  0  0  0  0  0
  -31.8810  -14.8520   19.5310 O   0  0  0  0  0  0  0  0  0  0  0  0
  -29.8460  -16.2050   21.7980 C   0  0  0  0  0  1  0  0  0  0  0  0
  -30.0480  -15.8990   20.3810 N   0  0  0  0  0  0  0  0  0  0  0  0
  -25.3640  -13.9310   20.4160 C   0  0  0  0  0  0  0  0  0  0  0  0
  -24.3100  -13.1580   20.8250 C   0  0  0  0  0  0  0  0  0  0  0  0
  -24.7560  -11.8040   20.7360 C   0  0  0  0  0  0  0  0  0  0  0  0
  -26.3830  -13.0480   20.1000 N   0  0  0  0  0  0  0  0  0  0  0  0
  -26.0270  -11.7610   20.3540 N   0  0  0  0  0  0  0  0  0  0  0  0
  -24.0290  -10.5420   20.9370 C   0  0  0  0  0  0  0  0  0  0  0  0
  -24.4790   -9.5670   21.8540 C   0  0  0  0  0  3  0  0  0  0  0  0
  -23.7520   -8.3730   22.0440 C   0  0  0  0  0  3  0  0  0  0  0  0
  -22.5590   -8.1460   21.3170 C   0  0  0  0  0  0  0  0  0  0  0  0
  -22.1270   -9.1100   20.3890 C   0  0  0  0  0  3  0  0  0  0  0  0
  -22.8560  -10.2950   20.1980 C   0  0  0  0  0  3  0  0  0  0  0  0
  -21.8020   -7.0030   21.4140 O   0  0  0  0  0  0  0  0  0  0  0  0
  -21.7480   -6.2720   22.5740 C   0  0  0  0  0  0  0  0  0  0  0  0
  -21.3260   -6.8440   23.7960 C   0  0  0  0  0  3  0  0  0  0  0  0
  -21.2180   -6.0410   24.9480 C   0  0  0  0  0  3  0  0  0  0  0  0
  -21.5220   -4.6680   24.8800 C   0  0  0  0  0  0  0  0  0  0  0  0
  -21.9360   -4.0970   23.6640 C   0  0  0  0  0  3  0  0  0  0  0  0
  -22.0460   -4.8960   22.5140 C   0  0  0  0  0  0  0  0  0  0  0  0
  -22.4260   -4.3360   21.3410 F   0  0  0  0  0  0  0  0  0  0  0  0
  -21.4100   -3.8950   25.9870 F   0  0  0  0  0  0  0  0  0  0  0  0
  -22.9330  -13.6410   21.1840 C   0  0  0  0  0  0  0  0  0  0  0  0
  -22.2480  -12.9330   22.0750 N   0  0  0  0  0  0  0  0  0  0  0  0
  -22.4760  -14.6790   20.7080 O   0  0  0  0  0  0  0  0  0  0  0  0
  -22.6290  -12.0920   22.4800 H   0  0  0  0  0  0  0  0  0  0  0  0
  -21.3260  -13.2360   22.3570 H   0  0  0  0  0  0  0  0  0  0  0  0
  -25.5330  -15.3050   20.2640 N   0  0  0  0  0  0  0  0  0  0  0  0
  -24.7870  -15.9670   20.4480 H   0  0  0  0  0  0  0  0  0  0  0  0
  -26.3830  -15.7460   19.9380 H   0  0  0  0  0  0  0  0  0  0  0  0
  -28.9950  -23.6430   20.1150 C   0  0  0  0  0  3  0  0  0  0  0  0
  -27.9790  -24.9050   20.2030 C   0  0  0  0  0  3  0  0  0  0  0  0
  -28.3090  -26.3770   20.1820 O   0  0  0  0  0  0  0  0  0  0  0  0
  -24.6170  -31.8810   23.2000 C   0  0  0  0  0  0  0  0  0  0  0  0
  -27.2200  -27.2880   20.1360 C   0  0  0  0  0  0  0  0  0  0  0  0
  -23.4150  -30.4800   21.5680 C   0  0  0  0  0  3  0  0  0  0  0  0
  -24.8630  -28.9460   20.1280 C   0  0  0  0  0  0  0  0  0  0  0  0
  -25.9600  -30.7960   21.3780 C   0  0  0  0  0  2  0  0  0  0  0  0
  -26.0380  -29.4170   20.7280 C   0  0  0  0  0  0  0  0  0  0  0  0
  -27.2210  -28.6020   20.7220 C   0  0  0  0  0  3  0  0  0  0  0  0
  -26.0150  -26.9000   19.4980 C   0  0  0  0  0  3  0  0  0  0  0  0
  -24.8570  -27.6950   19.5030 C   0  0  0  0  0  3  0  0  0  0  0  0
  -23.6250  -29.8180   20.1820 C   0  0  0  0  0  2  0  0  0  0  0  0
  -24.6840  -31.0700   22.1040 N   0  0  0  0  0  0  0  0  0  0  0  0
  -23.5320  -32.1530   23.7360 O   0  0  0  0  0  0  0  0  0  0  0  0
  -22.7600  -29.4550   22.5260 C   0  0  0  0  0  0  0  0  0  0  0  0
  -21.4310  -29.2800   22.4150 N   0  0  0  0  0  0  0  0  0  0  0  0
  -23.4480  -28.8240   23.3340 O   0  0  0  0  0  0  0  0  0  0  0  0
  -20.9330  -29.8390   21.7370 H   0  0  0  0  0  0  0  0  0  0  0  0
  -18.0570  -28.0840   22.9460 C   0  0  0  0  0  0  0  0  0  0  0  0
  -20.6200  -28.3410   23.1930 C   0  0  0  0  0  3  0  0  0  0  0  0
  -20.7160  -26.9110   22.6130 C   0  0  0  0  0  2  0  0  0  0  0  0
  -19.6010  -26.5900   21.6110 C   0  0  0  0  0  2  0  0  0  0  0  0
  -18.2260  -26.7360   22.2670 C   0  0  0  0  0  2  0  0  0  0  0  0
  -19.1810  -28.8460   23.3660 C   0  0  0  0  0  0  0  0  0  0  0  0
  -18.9650  -30.1090   23.9600 C   0  0  0  0  0  3  0  0  0  0  0  0
  -17.6610  -30.6080   24.1400 C   0  0  0  0  0  3  0  0  0  0  0  0
  -16.5540  -29.8430   23.7330 C   0  0  0  0  0  3  0  0  0  0  0  0
  -16.7530  -28.5840   23.1420 C   0  0  0  0  0  3  0  0  0  0  0  0
  -25.8980  -32.5220   23.8160 C   0  0  0  0  0  3  0  0  0  0  0  0
  -26.4240  -31.7510   25.0880 C   0  0  1  0  0  0  0  0  0  0  0  0
  -25.3400  -31.5030   26.1630 C   0  0  0  0  0  1  0  0  0  0  0  0
  -27.0130  -30.3780   24.6910 C   0  0  0  0  0  1  0  0  0  0  0  0
  -27.5740  -32.5520   25.7460 C   0  0  0  0  0  1  0  0  0  0  0  0
  -25.5790  -33.9170   24.1530 N   0  0  0  0  0  0  0  0  0  0  0  0
  -25.9040  -34.9760   23.4010 C   0  0  0  0  0  0  0  0  0  0  0  0
  -26.5740  -34.8820   22.3690 O   0  0  0  0  0  0  0  0  0  0  0  0
  -24.9890  -34.0630   24.9590 H   0  0  0  0  0  0  0  0  0  0  0  0
  -24.1730  -36.7630   23.0470 C   0  0  0  0  0  1  0  0  0  0  0  0
  -25.4090  -36.3580   23.8670 C   0  0  0  0  0  3  0  0  0  0  0  0
  -27.5320  -37.2410   24.7230 C   0  0  0  0  0  1  0  0  0  0  0  0
  -26.4370  -37.4150   23.7710 N   0  0  0  0  0  0  0  0  0  0  0  0
  -26.0250  -38.3320   23.9250 H   0  0  0  0  0  0  0  0  0  0  0  0
  2  1  1  0
  3  6  2  0
  4  5  2  0
  4  7  1  0
  5  3  1  0
  7  2  1  0
  7  6  1  0
  8  5  1  0
  8 18  1  0
  9 18  1  0
 10 15  1  0
 11 12  1  0
 11 10  1  0
 13 12  1  0
 13 22  1  0
 13 14  1  0
 15  9  1  0
 15 14  1  0
 16  9  2  0
 18 17  1  0
 19 20  2  0
 20 39  1  0
 21 20  1  0
 21 24  1  0
 22 23  1  0
 22 19  1  0
 23 21  2  0
 24 25  1  0
 25 26  2  0
 27 30  1  0
 27 26  1  0
 28 27  2  0
 29 28  1  0
 29 24  2  0
 30 31  1  0
 31 32  1  0
 32 33  2  0
 34 33  1  0
 34 38  1  0
 35 34  2  0
 36 31  2  0
 36 35  1  0
 37 36  1  0
 39 40  1  0
 40 43  1  0
 40 42  1  0
 41 39  2  0
 44 19  1  0
 44 45  1  0
 46 44  1  0
 47 48  2  0
 47  2  1  0
 49 48  1  0
 50 61  2  0
 51 49  1  0
 51 56  1  0
 52 60  1  0
 52 62  1  0
 53 59  1  0
 53 55  1  0
 54 60  1  0
 55 54  1  0
 56 55  2  0
 57 58  1  0
 57 51  2  0
 58 53  2  0
 59 52  1  0
 60 50  1  0
 62 64  2  0
 63 62  1  0
 65 63  1  0
 66 75  2  0
 66 71  1  0
 67 63  1  0
 67 71  1  0
 68 67  1  0
 69 70  1  0
 69 68  1  0
 70 66  1  0
 71 72  2  0
 72 73  1  0
 74 73  2  0
 75 74  1  0
 76 50  1  0
 76 81  1  0
 76 77  1  0
 77 80  1  1
 77 78  1  0
 79 77  1  0
 81 84  1  0
 82 86  1  0
 82 81  1  0
 83 82  2  0
 86 85  1  0
 88 86  1  0
 88 89  1  0
 88 87  1  0
M  ISO  4   9 100  18 100  48 101  49 101
M  END
>  <TORSDO>  (33) 
F 20

>  <SCORE>  (33) 
-13.602

>  <name>  (33) 
32

>  <ligand_id>  (33) 
32

>  <original_smiles>  (33) 
[H]c1nn(C([H])(C([H])([H])[H])C([H])([H])C([H])([H])Oc2c([H])c([H])c3c(c2[H])C([H])([H])N(C(=O)C([H])(N([H])C(=O)C([H])(N([H])C([H])([H])[H])C([H])([H])[H])C(C([H])([H])[H])(C([H])([H])[H])C([H])([H])[H])C([H])(C(=O)N([H])C2([H])c4c([H])c([H])c([H])c([H])c4C([H])([H])C([H])([H])C2([H])[H])C3([H])[H])c([H])c1C([H])([H])N(C(=O)N1C([H])([H])C([H])([H])C([H])([H])C([H])(n2nc(-c3c([H])c([H])c(Oc4c([H])c([H])c(F)c([H])c4F)c([H])c3[H])c(C(=O)N([H])[H])c2N([H])[H])C1([H])[H])C([H])([H])[H]

>  <smiles>  (33) 
[H]c1nn(C([H])(C([H])([H])[H])C([H])([H])C([H])([H])Oc2c([H])c([H])c3c(c2[H])C([H])([H])N(C(=O)C([H])(N([H])C(=O)C([H])(N([H])C([H])([H])[H])C([H])([H])[H])C(C([H])([H])[H])(C([H])([H])[H])C([H])([H])[H])C([H])(C(=O)N([H])C2([H])c4c([H])c([H])c([H])c([H])c4C([H])([H])C([H])([H])C2([H])[H])C3([H])[H])c([H])c1C([H])([H])N(C(=O)N1C([H])([H])C([H])([H])C([H])([H])C([H])(n2nc(-c3c([H])c([H])c(Oc4c([H])c([H])c(F)c([H])c4F)c([H])c3[H])c(C(=O)N([H])[H])c2N([H])[H])C1([H])[H])C([H])([H])[H]

$$$$
33:0:0
     RDKit          3D

 89 97  0  0  1  0  0  0  0  0999 V2000
  -28.9330  -20.5760   22.0690 C   0  0  0  0  0  3  0  0  0  0  0  0
  -29.7060  -20.7060   19.5610 C   0  0  0  0  0  0  0  0  0  0  0  0
  -29.2290  -21.9470   20.2300 C   0  0  0  0  0  0  0  0  0  0  0  0
  -29.7690  -19.3840   20.2470 C   0  0  0  0  0  0  0  0  0  0  0  0
  -30.1590  -20.8080   18.1160 C   0  0  0  0  0  1  0  0  0  0  0  0
  -28.8750  -21.7900   21.5180 N   0  0  0  0  0  0  0  0  0  0  0  0
  -29.3470  -19.4270   21.5240 N   0  0  0  0  0  0  0  0  0  0  0  0
  -29.2930  -23.5290   19.7240 C   0  0  0  0  0  3  0  0  0  0  0  0
  -28.2670  -24.8070   20.1460 C   0  0  0  0  0  3  0  0  0  0  0  0
  -28.4570  -26.3380   19.8680 O   0  0  0  0  0  0  0  0  0  0  0  0
  -24.7550  -31.7660   23.2370 C   0  0  0  0  0  0  0  0  0  0  0  0
  -27.3700  -27.2870   19.9090 C   0  0  0  0  0  0  0  0  0  0  0  0
  -23.5510  -30.4410   21.5420 C   0  0  0  0  0  3  0  0  0  0  0  0
  -25.0040  -28.9820   20.0030 C   0  0  0  0  0  0  0  0  0  0  0  0
  -26.0940  -30.7680   21.3490 C   0  0  0  0  0  2  0  0  0  0  0  0
  -26.1850  -29.4170   20.6200 C   0  0  0  0  0  0  0  0  0  0  0  0
  -27.3660  -28.5890   20.5550 C   0  0  0  0  0  3  0  0  0  0  0  0
  -26.1650  -26.9580   19.2490 C   0  0  0  0  0  3  0  0  0  0  0  0
  -25.0080  -27.7680   19.3000 C   0  0  0  0  0  3  0  0  0  0  0  0
  -23.7600  -29.8520   20.1210 C   0  0  0  0  0  2  0  0  0  0  0  0
  -24.8200  -31.0110   22.0990 N   0  0  0  0  0  0  0  0  0  0  0  0
  -23.6730  -32.0020   23.7970 O   0  0  0  0  0  0  0  0  0  0  0  0
  -22.9100  -29.3680   22.4540 C   0  0  0  0  0  0  0  0  0  0  0  0
  -21.5910  -29.1460   22.3090 N   0  0  0  0  0  0  0  0  0  0  0  0
  -23.6020  -28.7360   23.2570 O   0  0  0  0  0  0  0  0  0  0  0  0
  -21.0880  -29.7130   21.6400 H   0  0  0  0  0  0  0  0  0  0  0  0
  -18.2630  -27.7770   22.7130 C   0  0  0  0  0  0  0  0  0  0  0  0
  -20.8030  -28.1460   23.0330 C   0  0  0  0  0  3  0  0  0  0  0  0
  -20.9810  -26.7420   22.4100 C   0  0  0  0  0  2  0  0  0  0  0  0
  -19.9100  -26.4070   21.3650 C   0  0  0  0  0  2  0  0  0  0  0  0
  -18.5120  -26.4650   21.9890 C   0  0  0  0  0  2  0  0  0  0  0  0
  -19.3390  -28.5740   23.1880 C   0  0  0  0  0  0  0  0  0  0  0  0
  -19.0520  -29.8030   23.8220 C   0  0  0  0  0  3  0  0  0  0  0  0
  -17.7230  -30.2340   23.9880 C   0  0  0  0  0  3  0  0  0  0  0  0
  -16.6620  -29.4330   23.5300 C   0  0  0  0  0  3  0  0  0  0  0  0
  -16.9330  -28.2070   22.8980 C   0  0  0  0  0  3  0  0  0  0  0  0
  -26.0320  -32.3880   23.8780 C   0  0  0  0  0  3  0  0  0  0  0  0
  -26.5710  -31.5650   25.1120 C   0  0  1  0  0  0  0  0  0  0  0  0
  -25.4870  -31.2410   26.1660 C   0  0  0  0  0  1  0  0  0  0  0  0
  -27.1900  -30.2260   24.6500 C   0  0  0  0  0  1  0  0  0  0  0  0
  -27.7000  -32.3550   25.8160 C   0  0  0  0  0  1  0  0  0  0  0  0
  -25.7070  -33.7650   24.2830 N   0  0  0  0  0  0  0  0  0  0  0  0
  -26.0110  -34.8630   23.5780 C   0  0  0  0  0  0  0  0  0  0  0  0
  -26.6680  -34.8230   22.5330 O   0  0  0  0  0  0  0  0  0  0  0  0
  -25.1230  -33.8680   25.1000 H   0  0  0  0  0  0  0  0  0  0  0  0
  -24.2560  -36.6510   23.3470 C   0  0  0  0  0  1  0  0  0  0  0  0
  -25.5130  -36.2190   24.1170 C   0  0  0  0  0  3  0  0  0  0  0  0
  -27.6460  -37.0920   24.9670 C   0  0  0  0  0  1  0  0  0  0  0  0
  -26.5300  -37.2910   24.0440 N   0  0  0  0  0  0  0  0  0  0  0  0
  -26.1150  -38.1970   24.2430 H   0  0  0  0  0  0  0  0  0  0  0  0
  -30.3560  -17.9090   19.6920 C   0  0  0  0  0  2  0  0  0  0  0  0
  -30.9490  -15.2190   19.8940 C   0  0  0  0  0  0  0  0  0  0  0  0
  -30.7670  -12.8920   18.8600 C   0  0  0  0  0  2  0  0  0  0  0  0
  -29.7480  -12.8480   17.6940 C   0  0  0  0  0  2  0  0  0  0  0  0
  -28.3130  -12.6120   18.2070 C   0  0  0  0  0  2  0  0  0  0  0  0
  -27.9860  -13.5120   19.4240 C   0  0  0  0  0  3  0  0  0  0  0  0
  -29.1070  -13.4550   20.4770 C   0  0  0  0  0  2  0  0  0  0  0  0
  -30.3410  -13.9500   19.8340 N   0  0  0  0  0  0  0  0  0  0  0  0
  -32.0780  -15.2930   19.3900 O   0  0  0  0  0  0  0  0  0  0  0  0
  -29.6800  -16.3790   21.6420 C   0  0  0  0  0  1  0  0  0  0  0  0
  -30.2560  -16.4190   20.2930 N   0  0  0  0  0  0  0  0  0  0  0  0
  -25.6740  -14.0960   20.3540 C   0  0  0  0  0  0  0  0  0  0  0  0
  -24.6270  -13.3230   20.7710 C   0  0  0  0  0  0  0  0  0  0  0  0
  -25.0670  -11.9670   20.6550 C   0  0  0  0  0  0  0  0  0  0  0  0
  -26.6820  -13.2140   20.0040 N   0  0  0  0  0  0  0  0  0  0  0  0
  -26.3320  -11.9260   20.2500 N   0  0  0  0  0  0  0  0  0  0  0  0
  -24.3380  -10.7080   20.8470 C   0  0  0  0  0  0  0  0  0  0  0  0
  -24.7260   -9.7700   21.8280 C   0  0  0  0  0  3  0  0  0  0  0  0
  -23.9970   -8.5730   22.0000 C   0  0  0  0  0  3  0  0  0  0  0  0
  -22.8650   -8.3090   21.1940 C   0  0  0  0  0  0  0  0  0  0  0  0
  -22.4980   -9.2350   20.2030 C   0  0  0  0  0  3  0  0  0  0  0  0
  -23.2270  -10.4230   20.0280 C   0  0  0  0  0  3  0  0  0  0  0  0
  -22.1100   -7.1640   21.2770 O   0  0  0  0  0  0  0  0  0  0  0  0
  -21.8640   -6.5490   22.4790 C   0  0  0  0  0  0  0  0  0  0  0  0
  -21.2220   -7.2200   23.5420 C   0  0  0  0  0  3  0  0  0  0  0  0
  -20.9240   -6.5300   24.7330 C   0  0  0  0  0  3  0  0  0  0  0  0
  -21.2630   -5.1700   24.8630 C   0  0  0  0  0  0  0  0  0  0  0  0
  -21.9010   -4.4980   23.8050 C   0  0  0  0  0  3  0  0  0  0  0  0
  -22.1990   -5.1860   22.6140 C   0  0  0  0  0  0  0  0  0  0  0  0
  -22.7920   -4.5280   21.5900 F   0  0  0  0  0  0  0  0  0  0  0  0
  -20.9720   -4.5050   26.0040 F   0  0  0  0  0  0  0  0  0  0  0  0
  -23.2590  -13.8070   21.1590 C   0  0  0  0  0  0  0  0  0  0  0  0
  -22.5910  -13.1010   22.0630 N   0  0  0  0  0  0  0  0  0  0  0  0
  -22.7950  -14.8480   20.6950 O   0  0  0  0  0  0  0  0  0  0  0  0
  -22.9840  -12.2610   22.4640 H   0  0  0  0  0  0  0  0  0  0  0  0
  -21.6770  -13.4070   22.3660 H   0  0  0  0  0  0  0  0  0  0  0  0
  -25.8490  -15.4700   20.2200 N   0  0  0  0  0  0  0  0  0  0  0  0
  -25.1230  -16.1440   20.4370 H   0  0  0  0  0  0  0  0  0  0  0  0
  -26.6950  -15.8990   19.8640 H   0  0  0  0  0  0  0  0  0  0  0  0
  2  3  2  0
  2  4  1  0
  3  6  1  0
  4  7  2  0
  5  2  1  0
  6  1  2  0
  7  1  1  0
  8  9  2  0
  8  3  1  0
 10 12  1  0
 10  9  1  0
 11 22  2  0
 12 17  1  0
 13 21  1  0
 13 23  1  0
 14 20  1  0
 14 16  1  0
 15 21  1  0
 16 15  1  0
 17 16  2  0
 18 19  1  0
 18 12  2  0
 19 14  2  0
 20 13  1  0
 21 11  1  0
 23 25  2  0
 24 23  1  0
 26 24  1  0
 27 36  2  0
 27 32  1  0
 28 24  1  0
 28 32  1  0
 29 28  1  0
 30 31  1  0
 30 29  1  0
 31 27  1  0
 32 33  2  0
 33 34  1  0
 35 34  2  0
 36 35  1  0
 37 11  1  0
 37 42  1  0
 37 38  1  0
 38 41  1  1
 38 39  1  0
 40 38  1  0
 42 45  1  0
 43 47  1  0
 43 42  1  0
 44 43  2  0
 47 46  1  0
 49 47  1  0
 49 50  1  0
 49 48  1  0
 51  4  1  0
 51 61  1  0
 52 61  1  0
 53 58  1  0
 54 55  1  0
 54 53  1  0
 56 55  1  0
 56 65  1  0
 56 57  1  0
 58 52  1  0
 58 57  1  0
 59 52  2  0
 61 60  1  0
 62 63  2  0
 63 82  1  0
 64 63  1  0
 64 67  1  0
 65 66  1  0
 65 62  1  0
 66 64  2  0
 67 68  1  0
 68 69  2  0
 70 73  1  0
 70 69  1  0
 71 70  2  0
 72 71  1  0
 72 67  2  0
 73 74  1  0
 74 79  2  0
 74 75  1  0
 75 76  2  0
 76 77  1  0
 77 81  1  0
 78 77  2  0
 79 78  1  0
 80 79  1  0
 82 83  1  0
 83 86  1  0
 83 85  1  0
 84 82  2  0
 87 62  1  0
 87 88  1  0
 89 87  1  0
M  ISO  4   9 101  10 101  52 100  61 100
M  END
>  <TORSDO>  (34) 
F 19

>  <SCORE>  (34) 
-11.937

>  <name>  (34) 
33

>  <ligand_id>  (34) 
33

>  <original_smiles>  (34) 
[H]c1nc(C([H])([H])N(C(=O)N2C([H])([H])C([H])([H])C([H])([H])C([H])(n3nc(-c4c([H])c([H])c(Oc5c([H])c([H])c(F)c([H])c5F)c([H])c4[H])c(C(=O)N([H])[H])c3N([H])[H])C2([H])[H])C([H])([H])[H])c(C([H])([H])[H])c(C([H])([H])C([H])([H])Oc2c([H])c([H])c3c(c2[H])C([H])([H])N(C(=O)C([H])(N([H])C(=O)C([H])(N([H])C([H])([H])[H])C([H])([H])[H])C(C([H])([H])[H])(C([H])([H])[H])C([H])([H])[H])C([H])(C(=O)N([H])C2([H])c4c([H])c([H])c([H])c([H])c4C([H])([H])C([H])([H])C2([H])[H])C3([H])[H])n1

>  <smiles>  (34) 
[H]c1nc(C([H])([H])N(C(=O)N2C([H])([H])C([H])([H])C([H])([H])C([H])(n3nc(-c4c([H])c([H])c(Oc5c([H])c([H])c(F)c([H])c5F)c([H])c4[H])c(C(=O)N([H])[H])c3N([H])[H])C2([H])[H])C([H])([H])[H])c(C([H])([H])[H])c(C([H])([H])C([H])([H])Oc2c([H])c([H])c3c(c2[H])C([H])([H])N(C(=O)C([H])(N([H])C(=O)C([H])(N([H])C([H])([H])[H])C([H])([H])[H])C(C([H])([H])[H])(C([H])([H])[H])C([H])([H])[H])C([H])(C(=O)N([H])C2([H])c4c([H])c([H])c([H])c([H])c4C([H])([H])C([H])([H])C2([H])[H])C3([H])[H])n1

$$$$
34:0:0
     RDKit          3D

 89 97  0  0  1  0  0  0  0  0999 V2000
  -29.5190  -22.1380   21.3580 C   0  0  0  0  0  3  0  0  0  0  0  0
  -28.6430  -22.5460   20.3560 C   0  0  0  0  0  0  0  0  0  0  0  0
  -29.2640  -20.0480   20.2940 C   0  0  0  0  0  3  0  0  0  0  0  0
  -30.8240  -20.1150   22.1910 C   0  0  0  0  0  1  0  0  0  0  0  0
  -29.8640  -20.7540   21.2900 N   0  0  0  0  0  0  0  0  0  0  0  0
  -28.5360  -21.1780   19.7450 N   0  0  0  0  0  0  0  0  0  0  0  0
  -27.9550  -21.0500   18.9260 H   0  0  0  0  0  0  0  0  0  0  0  0
  -30.9250  -18.5360   18.8610 C   0  0  0  0  0  1  0  0  0  0  0  0
  -29.6660  -18.3820   19.7290 C   0  0  0  0  0  0  0  0  0  0  0  0
  -30.3960  -15.4650   20.1650 C   0  0  0  0  0  0  0  0  0  0  0  0
  -30.3910  -12.9820   19.3240 C   0  0  0  0  0  2  0  0  0  0  0  0
  -29.4630  -12.7290   18.1060 C   0  0  0  0  0  2  0  0  0  0  0  0
  -28.0330  -12.4220   18.5750 C   0  0  0  0  0  2  0  0  0  0  0  0
  -27.5780  -13.3910   19.6910 C   0  0  0  0  0  3  0  0  0  0  0  0
  -28.6390  -13.5890   20.8010 C   0  0  0  0  0  2  0  0  0  0  0  0
  -29.8450  -14.1350   20.1510 N   0  0  0  0  0  0  0  0  0  0  0  0
  -31.5970  -15.4370   19.8510 O   0  0  0  0  0  0  0  0  0  0  0  0
  -29.6590  -16.7760   20.3340 N   0  0  0  0  0  4  0  0  0  0  0  0
  -28.7620  -16.5900   20.7610 H   0  0  0  0  0  0  0  0  0  0  0  0
  -25.2180  -13.9280   20.4780 C   0  0  0  0  0  0  0  0  0  0  0  0
  -24.1670  -13.1440   20.8590 C   0  0  0  0  0  0  0  0  0  0  0  0
  -24.6400  -11.7960   20.8190 C   0  0  0  0  0  0  0  0  0  0  0  0
  -26.2630  -13.0600   20.2200 N   0  0  0  0  0  0  0  0  0  0  0  0
  -25.9290  -11.7690   20.4920 N   0  0  0  0  0  0  0  0  0  0  0  0
  -23.9210  -10.5290   21.0170 C   0  0  0  0  0  0  0  0  0  0  0  0
  -24.3670   -9.5610   21.9420 C   0  0  0  0  0  3  0  0  0  0  0  0
  -23.6440   -8.3620   22.1290 C   0  0  0  0  0  3  0  0  0  0  0  0
  -22.4620   -8.1240   21.3900 C   0  0  0  0  0  0  0  0  0  0  0  0
  -22.0360   -9.0810   20.4520 C   0  0  0  0  0  3  0  0  0  0  0  0
  -22.7590  -10.2700   20.2640 C   0  0  0  0  0  3  0  0  0  0  0  0
  -21.7090   -6.9770   21.4860 O   0  0  0  0  0  0  0  0  0  0  0  0
  -21.6750   -6.2340   22.6380 C   0  0  0  0  0  0  0  0  0  0  0  0
  -21.2560   -6.7830   23.8700 C   0  0  0  0  0  3  0  0  0  0  0  0
  -21.1700   -5.9650   25.0130 C   0  0  0  0  0  3  0  0  0  0  0  0
  -21.4930   -4.5970   24.9270 C   0  0  0  0  0  0  0  0  0  0  0  0
  -21.9060   -4.0470   23.7000 C   0  0  0  0  0  3  0  0  0  0  0  0
  -21.9930   -4.8630   22.5590 C   0  0  0  0  0  0  0  0  0  0  0  0
  -22.3710   -4.3220   21.3760 F   0  0  0  0  0  0  0  0  0  0  0  0
  -21.4020   -3.8090   26.0240 F   0  0  0  0  0  0  0  0  0  0  0  0
  -22.7700  -13.6140   21.1410 C   0  0  0  0  0  0  0  0  0  0  0  0
  -22.0530  -12.9170   22.0150 N   0  0  0  0  0  0  0  0  0  0  0  0
  -22.3230  -14.6360   20.6220 O   0  0  0  0  0  0  0  0  0  0  0  0
  -22.4230  -12.0870   22.4520 H   0  0  0  0  0  0  0  0  0  0  0  0
  -21.1180  -13.2150   22.2490 H   0  0  0  0  0  0  0  0  0  0  0  0
  -25.3650  -15.3010   20.2920 N   0  0  0  0  0  0  0  0  0  0  0  0
  -24.5820  -15.9370   20.3920 H   0  0  0  0  0  0  0  0  0  0  0  0
  -26.1820  -15.7400   19.8850 H   0  0  0  0  0  0  0  0  0  0  0  0
  -27.8420  -24.1160   20.0240 C   0  0  0  0  0  2  0  0  0  0  0  0
  -28.1230  -25.7460   20.3460 O   0  0  0  0  0  0  0  0  0  0  0  0
  -24.6390  -31.8900   23.2270 C   0  0  0  0  0  0  0  0  0  0  0  0
  -27.1560  -26.9080   20.2520 C   0  0  0  0  0  0  0  0  0  0  0  0
  -23.4410  -30.4860   21.6010 C   0  0  0  0  0  3  0  0  0  0  0  0
  -24.8810  -28.8540   20.1910 C   0  0  0  0  0  0  0  0  0  0  0  0
  -26.0120  -30.6610   21.4610 C   0  0  0  0  0  2  0  0  0  0  0  0
  -26.0730  -29.2370   20.8150 C   0  0  0  0  0  0  0  0  0  0  0  0
  -27.2030  -28.2870   20.8220 C   0  0  0  0  0  3  0  0  0  0  0  0
  -25.9360  -26.7020   19.5660 C   0  0  0  0  0  3  0  0  0  0  0  0
  -24.8410  -27.6080   19.5450 C   0  0  0  0  0  3  0  0  0  0  0  0
  -23.6700  -29.7890   20.2320 C   0  0  0  0  0  2  0  0  0  0  0  0
  -24.7210  -31.0400   22.1490 N   0  0  0  0  0  0  0  0  0  0  0  0
  -23.5490  -32.1910   23.7410 O   0  0  0  0  0  0  0  0  0  0  0  0
  -22.7350  -29.5080   22.5750 C   0  0  0  0  0  0  0  0  0  0  0  0
  -21.4050  -29.3450   22.4450 N   0  0  0  0  0  0  0  0  0  0  0  0
  -23.3930  -28.8950   23.4190 O   0  0  0  0  0  0  0  0  0  0  0  0
  -20.9260  -29.8850   21.7380 H   0  0  0  0  0  0  0  0  0  0  0  0
  -18.0230  -28.1250   22.9450 C   0  0  0  0  0  0  0  0  0  0  0  0
  -20.5790  -28.4180   23.2260 C   0  0  0  0  0  3  0  0  0  0  0  0
  -20.6960  -26.9750   22.6810 C   0  0  0  0  0  2  0  0  0  0  0  0
  -19.6070  -26.6250   21.6630 C   0  0  0  0  0  2  0  0  0  0  0  0
  -18.2180  -26.7690   22.2900 C   0  0  0  0  0  2  0  0  0  0  0  0
  -19.1310  -28.9070   23.3720 C   0  0  0  0  0  0  0  0  0  0  0  0
  -18.8940  -30.1720   23.9510 C   0  0  0  0  0  3  0  0  0  0  0  0
  -17.5820  -30.6590   24.1060 C   0  0  0  0  0  3  0  0  0  0  0  0
  -16.4890  -29.8780   23.6940 C   0  0  0  0  0  3  0  0  0  0  0  0
  -16.7110  -28.6130   23.1190 C   0  0  0  0  0  3  0  0  0  0  0  0
  -25.9090  -32.5360   23.8560 C   0  0  0  0  0  3  0  0  0  0  0  0
  -25.5940  -33.9380   24.1840 N   0  0  0  0  0  0  0  0  0  0  0  0
  -25.9210  -34.9970   23.4310 C   0  0  0  0  0  0  0  0  0  0  0  0
  -26.5830  -34.8960   22.3960 O   0  0  0  0  0  0  0  0  0  0  0  0
  -25.0060  -34.0890   24.9900 H   0  0  0  0  0  0  0  0  0  0  0  0
  -24.1940  -36.8000   23.1100 C   0  0  0  0  0  1  0  0  0  0  0  0
  -25.4460  -36.3890   23.8990 C   0  0  0  0  0  3  0  0  0  0  0  0
  -27.5930  -37.2750   24.7000 C   0  0  0  0  0  1  0  0  0  0  0  0
  -26.4790  -37.4410   23.7700 N   0  0  0  0  0  0  0  0  0  0  0  0
  -26.0750  -38.3620   23.9200 H   0  0  0  0  0  0  0  0  0  0  0  0
  -26.4110  -31.7790   25.1490 C   0  0  1  0  0  0  0  0  0  0  0  0
  -25.3080  -31.5620   26.2110 C   0  0  0  0  0  1  0  0  0  0  0  0
  -26.9900  -30.3910   24.7920 C   0  0  0  0  0  1  0  0  0  0  0  0
  -27.5610  -32.5780   25.8080 C   0  0  0  0  0  1  0  0  0  0  0  0
  2  1  2  0
  3  9  1  0
  3  5  1  0
  5  1  1  0
  5  4  1  0
  6  3  1  0
  6  2  1  0
  7  6  1  0
  8  9  1  0
  9 18  2  0
 10 18  1  0
 11 16  1  0
 12 13  1  0
 12 11  1  0
 14 13  1  0
 14 23  1  0
 14 15  1  0
 16 10  1  0
 16 15  1  0
 17 10  2  0
 18 19  1  0
 20 21  2  0
 21 40  1  0
 22 21  1  0
 22 25  1  0
 23 20  1  0
 23 24  1  0
 24 22  2  0
 25 26  1  0
 26 27  2  0
 28 31  1  0
 28 27  1  0
 29 28  2  0
 30 29  1  0
 30 25  2  0
 31 32  1  0
 32 33  1  0
 33 34  2  0
 35 34  1  0
 35 39  1  0
 36 35  2  0
 37 32  2  0
 37 36  1  0
 38 37  1  0
 40 41  1  0
 41 44  1  0
 41 43  1  0
 42 40  2  0
 45 46  1  0
 45 20  1  0
 47 45  1  0
 48 49  1  0
 48  2  1  0
 50 61  2  0
 51 49  1  0
 51 56  1  0
 52 60  1  0
 52 62  1  0
 53 59  1  0
 53 55  1  0
 54 60  1  0
 55 56  2  0
 55 54  1  0
 57 51  2  0
 58 57  1  0
 58 53  2  0
 59 52  1  0
 60 50  1  0
 62 64  2  0
 63 62  1  0
 65 63  1  0
 66 75  2  0
 66 71  1  0
 67 63  1  0
 67 71  1  0
 68 67  1  0
 69 70  1  0
 69 68  1  0
 70 66  1  0
 71 72  2  0
 72 73  1  0
 74 73  2  0
 75 74  1  0
 76 50  1  0
 76 77  1  0
 76 86  1  0
 77 80  1  0
 78 82  1  0
 78 77  1  0
 79 78  2  0
 82 81  1  0
 84 82  1  0
 84 85  1  0
 84 83  1  0
 86 89  1  1
 86 87  1  0
 88 86  1  0
M  ISO  4  10 100  18 100  48 101  49 101
M  END
>  <TORSDO>  (35) 
F 18

>  <SCORE>  (35) 
-16.781

>  <name>  (35) 
34

>  <ligand_id>  (35) 
34

>  <original_smiles>  (35) 
[H]c1c([H])c([H])c2c(c1[H])C([H])([H])C([H])([H])C([H])([H])C2([H])N([H])C(=O)C1([H])N(C(=O)C([H])(N([H])C(=O)C([H])(N([H])C([H])([H])[H])C([H])([H])[H])C(C([H])([H])[H])(C([H])([H])[H])C([H])([H])[H])C([H])([H])c2c([H])c(OC([H])([H])c3c([H])n(C([H])([H])[H])c(C([H])(N([H])C(=O)N4C([H])([H])C([H])([H])C([H])([H])C([H])(n5nc(-c6c([H])c([H])c(Oc7c([H])c([H])c(F)c([H])c7F)c([H])c6[H])c(C(=O)N([H])[H])c5N([H])[H])C4([H])[H])C([H])([H])[H])[n+]3[H])c([H])c([H])c2C1([H])[H]

>  <smiles>  (35) 
[H]c1c([H])c([H])c2c(c1[H])C([H])([H])C([H])([H])C([H])([H])C2([H])N([H])C(=O)C1([H])N(C(=O)C([H])(N([H])C(=O)C([H])(N([H])C([H])([H])[H])C([H])([H])[H])C(C([H])([H])[H])(C([H])([H])[H])C([H])([H])[H])C([H])([H])c2c([H])c(OC([H])([H])c3c([H])n(C([H])([H])[H])c(C([H])(N([H])C(=O)N4C([H])([H])C([H])([H])C([H])([H])C([H])(n5nc(-c6c([H])c([H])c(Oc7c([H])c([H])c(F)c([H])c7F)c([H])c6[H])c(C(=O)N([H])[H])c5N([H])[H])C4([H])[H])C([H])([H])[H])[n+]3[H])c([H])c([H])c2C1([H])[H]

$$$$
35:0:0
     RDKit          3D

 94102  0  0  1  0  0  0  0  0999 V2000
  -29.1370  -21.3630   19.1200 C   0  0  0  0  0  3  0  0  0  0  0  0
  -28.9270  -19.9560   19.2740 C   0  0  0  0  0  0  0  0  0  0  0  0
  -29.7690  -21.8560   20.2260 C   0  0  0  0  0  0  0  0  0  0  0  0
  -29.5400  -19.5530   20.4410 C   0  0  0  0  0  0  0  0  0  0  0  0
  -28.1260  -19.1020   18.3230 C   0  0  0  0  0  1  0  0  0  0  0  0
  -29.9810  -20.7400   21.0610 N   0  0  0  0  0  0  0  0  0  0  0  0
  -29.4450  -21.3260   23.3950 C   0  0  0  0  0  1  0  0  0  0  0  0
  -30.5180  -20.8230   22.4140 C   0  0  0  0  0  2  0  0  0  0  0  0
  -30.2160  -23.2800   20.6050 C   0  0  0  0  0  2  0  0  0  0  0  0
  -29.9540  -24.5210   19.6580 C   0  0  0  0  0  2  0  0  0  0  0  0
  -28.6580  -25.3720   19.8890 C   0  0  0  0  0  2  0  0  0  0  0  0
  -28.7010  -26.7580   19.4030 O   0  0  0  0  0  0  0  0  0  0  0  0
  -24.5960  -31.4520   22.9370 C   0  0  0  0  0  0  0  0  0  0  0  0
  -27.5010  -27.4680   19.4530 C   0  0  0  0  0  0  0  0  0  0  0  0
  -23.4640  -30.0860   21.2210 C   0  0  0  0  0  3  0  0  0  0  0  0
  -24.9950  -28.8120   19.6310 C   0  0  0  0  0  0  0  0  0  0  0  0
  -25.9450  -30.6840   20.9790 C   0  0  0  0  0  2  0  0  0  0  0  0
  -26.1320  -29.3820   20.2150 C   0  0  0  0  0  0  0  0  0  0  0  0
  -27.3910  -28.7280   20.1060 C   0  0  0  0  0  3  0  0  0  0  0  0
  -26.3340  -26.9290   18.8650 C   0  0  0  0  0  3  0  0  0  0  0  0
  -25.0930  -27.5860   18.9540 C   0  0  0  0  0  3  0  0  0  0  0  0
  -23.6850  -29.5570   19.7810 C   0  0  0  0  0  2  0  0  0  0  0  0
  -24.6870  -30.7510   21.7720 N   0  0  0  0  0  0  0  0  0  0  0  0
  -23.5130  -31.5780   23.5260 O   0  0  0  0  0  0  0  0  0  0  0  0
  -22.9420  -28.9300   22.1040 C   0  0  0  0  0  0  0  0  0  0  0  0
  -21.6490  -28.5960   21.9560 N   0  0  0  0  0  0  0  0  0  0  0  0
  -23.6960  -28.3400   22.8810 O   0  0  0  0  0  0  0  0  0  0  0  0
  -21.0910  -29.1350   21.3070 H   0  0  0  0  0  0  0  0  0  0  0  0
  -18.4760  -26.8950   22.2730 C   0  0  0  0  0  0  0  0  0  0  0  0
  -20.9540  -27.5170   22.6590 C   0  0  0  0  0  3  0  0  0  0  0  0
  -21.2900  -26.1410   22.0380 C   0  0  0  0  0  2  0  0  0  0  0  0
  -20.2860  -25.7000   20.9690 C   0  0  0  0  0  2  0  0  0  0  0  0
  -18.8760  -25.6160   21.5590 C   0  0  0  0  0  2  0  0  0  0  0  0
  -19.4520  -27.7960   22.7760 C   0  0  0  0  0  0  0  0  0  0  0  0
  -19.0270  -28.9890   23.4010 C   0  0  0  0  0  3  0  0  0  0  0  0
  -17.6560  -29.2840   23.5330 C   0  0  0  0  0  3  0  0  0  0  0  0
  -16.6950  -28.3810   23.0460 C   0  0  0  0  0  3  0  0  0  0  0  0
  -17.1040  -27.1900   22.4220 C   0  0  0  0  0  3  0  0  0  0  0  0
  -25.8390  -32.1490   23.5710 C   0  0  0  0  0  3  0  0  0  0  0  0
  -25.4270  -33.4980   23.9820 N   0  0  0  0  0  0  0  0  0  0  0  0
  -25.6850  -34.6160   23.2930 C   0  0  0  0  0  0  0  0  0  0  0  0
  -26.3680  -34.6260   22.2650 O   0  0  0  0  0  0  0  0  0  0  0  0
  -24.8150  -33.5600   24.7840 H   0  0  0  0  0  0  0  0  0  0  0  0
  -23.8410  -36.3050   23.0180 C   0  0  0  0  0  1  0  0  0  0  0  0
  -25.0930  -35.9330   23.8290 C   0  0  0  0  0  3  0  0  0  0  0  0
  -27.1450  -36.9010   24.7660 C   0  0  0  0  0  1  0  0  0  0  0  0
  -26.0510  -37.0600   23.8110 N   0  0  0  0  0  0  0  0  0  0  0  0
  -25.5770  -37.9360   24.0160 H   0  0  0  0  0  0  0  0  0  0  0  0
  -26.4400  -31.3520   24.7930 C   0  0  1  0  0  0  0  0  0  0  0  0
  -25.3910  -30.9780   25.8660 C   0  0  0  0  0  1  0  0  0  0  0  0
  -27.1140  -30.0440   24.3170 C   0  0  0  0  0  1  0  0  0  0  0  0
  -27.5440  -32.1940   25.4770 C   0  0  0  0  0  1  0  0  0  0  0  0
  -29.5960  -18.1440   21.0980 C   0  0  0  0  0  2  0  0  0  0  0  0
  -30.9650  -17.3570   21.2820 C   0  0  0  0  0  2  0  0  0  0  0  0
  -31.9570  -15.1850   20.4570 C   0  0  0  0  0  0  0  0  0  0  0  0
  -31.5250  -13.0300   19.3240 C   0  0  0  0  0  2  0  0  0  0  0  0
  -30.6380  -13.2390   18.0850 C   0  0  0  0  0  2  0  0  0  0  0  0
  -29.1460  -13.2300   18.4690 C   0  0  0  0  0  2  0  0  0  0  0  0
  -28.8200  -14.1020   19.7140 C   0  0  0  0  0  3  0  0  0  0  0  0
  -29.8290  -13.8550   20.8510 C   0  0  0  0  0  2  0  0  0  0  0  0
  -31.1630  -14.0850   20.2910 N   0  0  0  0  0  0  0  0  0  0  0  0
  -33.1820  -15.0670   20.3510 O   0  0  0  0  0  0  0  0  0  0  0  0
  -31.4030  -16.4260   20.1880 N   0  0  0  0  0  0  0  0  0  0  0  0
  -26.4550  -14.8650   20.3510 C   0  0  0  0  0  0  0  0  0  0  0  0
  -25.3180  -14.1670   20.6550 C   0  0  0  0  0  0  0  0  0  0  0  0
  -25.6830  -12.7860   20.6300 C   0  0  0  0  0  0  0  0  0  0  0  0
  -27.4410  -13.9140   20.1530 N   0  0  0  0  0  0  0  0  0  0  0  0
  -26.9800  -12.6570   20.3870 N   0  0  0  0  0  0  0  0  0  0  0  0
  -24.8590  -11.5770   20.7660 C   0  0  0  0  0  0  0  0  0  0  0  0
  -25.1970  -10.5600   21.6900 C   0  0  0  0  0  3  0  0  0  0  0  0
  -24.3800   -9.4160   21.8210 C   0  0  0  0  0  3  0  0  0  0  0  0
  -23.2120   -9.2840   21.0330 C   0  0  0  0  0  0  0  0  0  0  0  0
  -22.8910  -10.2870   20.1040 C   0  0  0  0  0  3  0  0  0  0  0  0
  -23.7070  -11.4240   19.9700 C   0  0  0  0  0  3  0  0  0  0  0  0
  -22.3710   -8.1960   21.0750 O   0  0  0  0  0  0  0  0  0  0  0  0
  -22.2030   -7.4600   22.2210 C   0  0  0  0  0  0  0  0  0  0  0  0
  -21.7980   -8.0520   23.4370 C   0  0  0  0  0  3  0  0  0  0  0  0
  -21.5780   -7.2480   24.5740 C   0  0  0  0  0  3  0  0  0  0  0  0
  -21.7500   -5.8530   24.4920 C   0  0  0  0  0  0  0  0  0  0  0  0
  -22.1460   -5.2600   23.2790 C   0  0  0  0  0  3  0  0  0  0  0  0
  -22.3700   -6.0620   22.1480 C   0  0  0  0  0  0  0  0  0  0  0  0
  -22.7310   -5.4860   20.9750 F   0  0  0  0  0  0  0  0  0  0  0  0
  -21.5270   -5.0790   25.5790 F   0  0  0  0  0  0  0  0  0  0  0  0
  -23.9480  -14.7380   20.8690 C   0  0  0  0  0  0  0  0  0  0  0  0
  -23.1480  -14.1080   21.7190 N   0  0  0  0  0  0  0  0  0  0  0  0
  -23.5960  -15.7790   20.3090 O   0  0  0  0  0  0  0  0  0  0  0  0
  -23.4360  -13.2550   22.1800 H   0  0  0  0  0  0  0  0  0  0  0  0
  -22.2290  -14.4780   21.9070 H   0  0  0  0  0  0  0  0  0  0  0  0
  -26.7290  -16.2210   20.1950 N   0  0  0  0  0  0  0  0  0  0  0  0
  -26.0140  -16.9340   20.2710 H   0  0  0  0  0  0  0  0  0  0  0  0
  -27.6340  -16.5830   19.9280 H   0  0  0  0  0  0  0  0  0  0  0  0
  -32.1470  -17.2540   19.2040 C   0  0  0  0  0  2  0  0  0  0  0  0
  -30.9780  -16.6710   16.9630 C   0  0  0  0  0  1  0  0  0  0  0  0
  -32.2790  -16.6650   17.7830 C   0  0  0  0  0  2  0  0  0  0  0  0
  1  2  1  0
  1  3  2  0
  2  4  2  0
  3  9  1  0
  3  6  1  0
  4  6  1  0
  4 53  1  0
  5  2  1  0
  6  8  1  0
  8  7  1  0
 10 11  1  0
 10  9  1  0
 12 14  1  0
 12 11  1  0
 13 24  2  0
 14 19  1  0
 15 23  1  0
 15 25  1  0
 16 22  1  0
 16 18  1  0
 17 23  1  0
 18 17  1  0
 19 18  2  0
 20 21  1  0
 20 14  2  0
 21 16  2  0
 22 15  1  0
 23 13  1  0
 25 27  2  0
 26 25  1  0
 28 26  1  0
 29 38  2  0
 29 34  1  0
 30 26  1  0
 30 34  1  0
 31 30  1  0
 32 33  1  0
 32 31  1  0
 33 29  1  0
 34 35  2  0
 35 36  1  0
 37 36  2  0
 38 37  1  0
 39 13  1  0
 39 40  1  0
 39 49  1  0
 40 43  1  0
 41 45  1  0
 41 40  1  0
 42 41  2  0
 45 44  1  0
 47 45  1  0
 47 48  1  0
 47 46  1  0
 49 52  1  1
 49 50  1  0
 51 49  1  0
 53 54  1  0
 56 61  1  0
 57 58  1  0
 57 56  1  0
 59 58  1  0
 59 67  1  0
 59 60  1  0
 61 55  1  0
 61 60  1  0
 62 55  2  0
 63 55  1  0
 63 54  1  0
 64 65  2  0
 65 84  1  0
 66 65  1  0
 66 69  1  0
 67 64  1  0
 67 68  1  0
 68 66  2  0
 69 70  1  0
 70 71  2  0
 72 75  1  0
 72 71  1  0
 73 72  2  0
 74 73  1  0
 74 69  2  0
 75 76  1  0
 76 77  1  0
 77 78  2  0
 79 78  1  0
 79 83  1  0
 80 79  2  0
 81 76  2  0
 81 80  1  0
 82 81  1  0
 84 85  1  0
 85 88  1  0
 85 87  1  0
 86 84  2  0
 89 90  1  0
 89 64  1  0
 91 89  1  0
 92 63  1  0
 93 94  1  0
 94 92  1  0
M  ISO  4  11 101  12 101  55 100  63 100
M  END
>  <TORSDO>  (36) 
F 24

>  <SCORE>  (36) 
-8.725

>  <name>  (36) 
35

>  <ligand_id>  (36) 
35

>  <original_smiles>  (36) 
[H]c1c([H])c([H])c2c(c1[H])C([H])([H])C([H])([H])C([H])([H])C2([H])N([H])C(=O)C1([H])N(C(=O)C([H])(N([H])C(=O)C([H])(N([H])C([H])([H])[H])C([H])([H])[H])C(C([H])([H])[H])(C([H])([H])[H])C([H])([H])[H])C([H])([H])c2c([H])c(OC([H])([H])C([H])([H])C([H])([H])c3c([H])c(C([H])([H])[H])c(C([H])([H])C([H])([H])N(C(=O)N4C([H])([H])C([H])([H])C([H])([H])C([H])(n5nc(-c6c([H])c([H])c(Oc7c([H])c([H])c(F)c([H])c7F)c([H])c6[H])c(C(=O)N([H])[H])c5N([H])[H])C4([H])[H])C([H])([H])C([H])([H])C([H])([H])[H])n3C([H])([H])C([H])([H])[H])c([H])c([H])c2C1([H])[H]

>  <smiles>  (36) 
[H]c1c([H])c([H])c2c(c1[H])C([H])([H])C([H])([H])C([H])([H])C2([H])N([H])C(=O)C1([H])N(C(=O)C([H])(N([H])C(=O)C([H])(N([H])C([H])([H])[H])C([H])([H])[H])C(C([H])([H])[H])(C([H])([H])[H])C([H])([H])[H])C([H])([H])c2c([H])c(OC([H])([H])C([H])([H])C([H])([H])c3c([H])c(C([H])([H])[H])c(C([H])([H])C([H])([H])N(C(=O)N4C([H])([H])C([H])([H])C([H])([H])C([H])(n5nc(-c6c([H])c([H])c(Oc7c([H])c([H])c(F)c([H])c7F)c([H])c6[H])c(C(=O)N([H])[H])c5N([H])[H])C4([H])[H])C([H])([H])C([H])([H])C([H])([H])[H])n3C([H])([H])C([H])([H])[H])c([H])c([H])c2C1([H])[H]

$$$$
36:0:0
     RDKit          3D

 89 97  0  0  1  0  0  0  0  0999 V2000
  -28.4690  -22.8870   18.2500 C   0  0  0  0  0  3  0  0  0  0  0  0
  -28.6340  -21.6000   17.6740 C   0  0  0  0  0  0  0  0  0  0  0  0
  -28.7180  -23.0930   19.6310 C   0  0  0  0  0  0  0  0  0  0  0  0
  -29.3820  -20.6610   19.6680 C   0  0  0  0  0  0  0  0  0  0  0  0
  -28.2180  -21.2900   16.2330 C   0  0  0  0  0  1  0  0  0  0  0  0
  -29.0840  -20.5330   18.3800 N   0  0  0  0  0  0  0  0  0  0  0  0
  -29.1730  -21.9070   20.2970 N   0  0  0  0  0  0  0  0  0  0  0  0
  -28.1650  -24.4850   20.4130 C   0  0  0  0  0  2  0  0  0  0  0  0
  -28.4360  -26.0310   20.1700 O   0  0  0  0  0  0  0  0  0  0  0  0
  -24.6030  -31.7430   23.1670 C   0  0  0  0  0  0  0  0  0  0  0  0
  -27.3700  -27.0220   20.2080 C   0  0  0  0  0  0  0  0  0  0  0  0
  -23.4960  -30.3200   21.4910 C   0  0  0  0  0  3  0  0  0  0  0  0
  -25.0160  -28.7620   20.1290 C   0  0  0  0  0  0  0  0  0  0  0  0
  -26.0540  -30.6150   21.4260 C   0  0  0  0  0  2  0  0  0  0  0  0
  -26.1770  -29.2190   20.7680 C   0  0  0  0  0  0  0  0  0  0  0  0
  -27.3550  -28.3670   20.7890 C   0  0  0  0  0  3  0  0  0  0  0  0
  -26.1750  -26.6760   19.5500 C   0  0  0  0  0  3  0  0  0  0  0  0
  -25.0280  -27.5020   19.5090 C   0  0  0  0  0  3  0  0  0  0  0  0
  -23.7760  -29.6440   20.1270 C   0  0  0  0  0  2  0  0  0  0  0  0
  -24.7360  -30.9190   22.0820 N   0  0  0  0  0  0  0  0  0  0  0  0
  -23.4920  -32.0210   23.6440 O   0  0  0  0  0  0  0  0  0  0  0  0
  -22.7930  -29.3040   22.4290 C   0  0  0  0  0  0  0  0  0  0  0  0
  -21.4680  -29.1340   22.2680 N   0  0  0  0  0  0  0  0  0  0  0  0
  -23.4440  -28.6720   23.2650 O   0  0  0  0  0  0  0  0  0  0  0  0
  -21.0030  -29.6960   21.5720 H   0  0  0  0  0  0  0  0  0  0  0  0
  -18.0680  -27.9340   22.6910 C   0  0  0  0  0  0  0  0  0  0  0  0
  -20.6240  -28.1880   23.0110 C   0  0  0  0  0  3  0  0  0  0  0  0
  -20.7370  -26.7640   22.4190 C   0  0  0  0  0  2  0  0  0  0  0  0
  -19.6530  -26.4580   21.3830 C   0  0  0  0  0  2  0  0  0  0  0  0
  -18.2540  -26.5960   21.9950 C   0  0  0  0  0  2  0  0  0  0  0  0
  -19.1820  -28.6900   23.1470 C   0  0  0  0  0  0  0  0  0  0  0  0
  -18.9540  -29.9470   23.7510 C   0  0  0  0  0  3  0  0  0  0  0  0
  -17.6460  -30.4450   23.9040 C   0  0  0  0  0  3  0  0  0  0  0  0
  -16.5480  -29.6860   23.4610 C   0  0  0  0  0  3  0  0  0  0  0  0
  -16.7600  -28.4300   22.8640 C   0  0  0  0  0  3  0  0  0  0  0  0
  -25.8410  -32.4010   23.8450 C   0  0  0  0  0  3  0  0  0  0  0  0
  -26.3040  -31.6460   25.1500 C   0  0  1  0  0  0  0  0  0  0  0  0
  -25.1630  -31.3890   26.1650 C   0  0  0  0  0  1  0  0  0  0  0  0
  -26.9340  -30.2800   24.7940 C   0  0  0  0  0  1  0  0  0  0  0  0
  -27.4070  -32.4680   25.8590 C   0  0  0  0  0  1  0  0  0  0  0  0
  -25.4920  -33.7940   24.1680 N   0  0  0  0  0  0  0  0  0  0  0  0
  -25.8230  -34.8600   23.4250 C   0  0  0  0  0  0  0  0  0  0  0  0
  -26.5250  -34.7740   22.4150 O   0  0  0  0  0  0  0  0  0  0  0  0
  -24.8890  -33.9430   24.9630 H   0  0  0  0  0  0  0  0  0  0  0  0
  -24.0680  -36.6200   23.0270 C   0  0  0  0  0  1  0  0  0  0  0  0
  -25.2960  -36.2400   23.8710 C   0  0  0  0  0  3  0  0  0  0  0  0
  -27.3810  -37.1660   24.7700 C   0  0  0  0  0  1  0  0  0  0  0  0
  -26.3070  -37.3170   23.7910 N   0  0  0  0  0  0  0  0  0  0  0  0
  -25.8750  -38.2260   23.9360 H   0  0  0  0  0  0  0  0  0  0  0  0
  -29.7180  -19.2180   20.4380 C   0  0  0  0  0  2  0  0  0  0  0  0
  -30.2960  -17.7490   19.7490 C   0  0  0  0  0  2  0  0  0  0  0  0
  -30.8880  -15.0160   19.9980 C   0  0  0  0  0  0  0  0  0  0  0  0
  -30.6670  -12.6740   18.9970 C   0  0  0  0  0  2  0  0  0  0  0  0
  -29.6970  -12.7010   17.7900 C   0  0  0  0  0  2  0  0  0  0  0  0
  -28.2490  -12.4870   18.2700 C   0  0  0  0  0  2  0  0  0  0  0  0
  -27.9050  -13.3850   19.4850 C   0  0  0  0  0  3  0  0  0  0  0  0
  -28.9980  -13.2980   20.5690 C   0  0  0  0  0  2  0  0  0  0  0  0
  -30.2590  -13.7570   19.9500 N   0  0  0  0  0  0  0  0  0  0  0  0
  -32.0290  -15.0520   19.5180 O   0  0  0  0  0  0  0  0  0  0  0  0
  -29.5180  -16.2660   21.6460 C   0  0  0  0  0  1  0  0  0  0  0  0
  -30.2090  -16.2510   20.3520 N   0  0  0  0  0  0  0  0  0  0  0  0
  -25.5700  -14.0020   20.3360 C   0  0  0  0  0  0  0  0  0  0  0  0
  -24.5030  -13.2400   20.7400 C   0  0  0  0  0  0  0  0  0  0  0  0
  -24.9390  -11.8830   20.6710 C   0  0  0  0  0  0  0  0  0  0  0  0
  -26.5780  -13.1060   20.0320 N   0  0  0  0  0  0  0  0  0  0  0  0
  -26.2130  -11.8230   20.3010 N   0  0  0  0  0  0  0  0  0  0  0  0
  -24.1980  -10.6320   20.8730 C   0  0  0  0  0  0  0  0  0  0  0  0
  -24.6000   -9.6780   21.8330 C   0  0  0  0  0  3  0  0  0  0  0  0
  -23.8540   -8.4960   22.0220 C   0  0  0  0  0  3  0  0  0  0  0  0
  -22.6960   -8.2560   21.2470 C   0  0  0  0  0  0  0  0  0  0  0  0
  -22.3140   -9.1960   20.2740 C   0  0  0  0  0  3  0  0  0  0  0  0
  -23.0610  -10.3700   20.0850 C   0  0  0  0  0  3  0  0  0  0  0  0
  -21.9280   -7.1190   21.3440 O   0  0  0  0  0  0  0  0  0  0  0  0
  -21.7840   -6.4440   22.5310 C   0  0  0  0  0  0  0  0  0  0  0  0
  -21.2480   -7.0660   23.6790 C   0  0  0  0  0  3  0  0  0  0  0  0
  -21.0510   -6.3190   24.8580 C   0  0  0  0  0  3  0  0  0  0  0  0
  -21.3810   -4.9500   24.8890 C   0  0  0  0  0  0  0  0  0  0  0  0
  -21.9080   -4.3260   23.7440 C   0  0  0  0  0  3  0  0  0  0  0  0
  -22.1050   -5.0720   22.5680 C   0  0  0  0  0  0  0  0  0  0  0  0
  -22.5970   -4.4620   21.4610 F   0  0  0  0  0  0  0  0  0  0  0  0
  -21.1820   -4.2290   26.0200 F   0  0  0  0  0  0  0  0  0  0  0  0
  -23.1260  -13.7410   21.0680 C   0  0  0  0  0  0  0  0  0  0  0  0
  -22.4160  -13.0560   21.9630 N   0  0  0  0  0  0  0  0  0  0  0  0
  -22.6840  -14.7760   20.5720 O   0  0  0  0  0  0  0  0  0  0  0  0
  -22.7780  -12.2180   22.3930 H   0  0  0  0  0  0  0  0  0  0  0  0
  -21.4860  -13.3690   22.2000 H   0  0  0  0  0  0  0  0  0  0  0  0
  -25.7450  -15.3720   20.1660 N   0  0  0  0  0  0  0  0  0  0  0  0
  -24.9920  -16.0340   20.3220 H   0  0  0  0  0  0  0  0  0  0  0  0
  -26.5710  -15.8020   19.7630 H   0  0  0  0  0  0  0  0  0  0  0  0
  1  3  1  0
  2  1  2  0
  2  6  1  0
  3  7  2  0
  3  8  1  0
  4  7  1  0
  4 50  1  0
  5  2  1  0
  6  4  2  0
  9 11  1  0
  9  8  1  0
 10 21  2  0
 11 16  1  0
 12 20  1  0
 12 22  1  0
 13 15  1  0
 14 20  1  0
 15 16  2  0
 15 14  1  0
 17 11  2  0
 18 17  1  0
 18 13  2  0
 19 13  1  0
 19 12  1  0
 20 10  1  0
 22 24  2  0
 23 22  1  0
 25 23  1  0
 26 35  2  0
 26 31  1  0
 27 23  1  0
 27 31  1  0
 28 27  1  0
 29 30  1  0
 29 28  1  0
 30 26  1  0
 31 32  2  0
 32 33  1  0
 34 33  2  0
 35 34  1  0
 36 10  1  0
 36 41  1  0
 36 37  1  0
 37 40  1  1
 37 38  1  0
 39 37  1  0
 41 44  1  0
 42 46  1  0
 42 41  1  0
 43 42  2  0
 46 45  1  0
 48 46  1  0
 48 49  1  0
 48 47  1  0
 51 61  1  0
 51 50  1  0
 52 61  1  0
 53 58  1  0
 54 55  1  0
 54 53  1  0
 56 55  1  0
 56 65  1  0
 56 57  1  0
 58 52  1  0
 58 57  1  0
 59 52  2  0
 61 60  1  0
 62 63  2  0
 63 82  1  0
 64 63  1  0
 64 67  1  0
 65 66  1  0
 65 62  1  0
 66 64  2  0
 67 68  1  0
 68 69  2  0
 70 73  1  0
 70 69  1  0
 71 70  2  0
 72 71  1  0
 72 67  2  0
 73 74  1  0
 74 79  2  0
 74 75  1  0
 75 76  2  0
 76 77  1  0
 77 81  1  0
 78 77  2  0
 79 78  1  0
 80 79  1  0
 82 83  1  0
 83 86  1  0
 83 85  1  0
 84 82  2  0
 87 88  1  0
 87 62  1  0
 89 87  1  0
M  ISO  4   8 101   9 101  52 100  61 100
M  END
>  <TORSDO>  (37) 
F 19

>  <SCORE>  (37) 
-13.404

>  <name>  (37) 
36

>  <ligand_id>  (37) 
36

>  <original_smiles>  (37) 
[H]c1c(C([H])([H])[H])nc(C([H])([H])C([H])([H])N(C(=O)N2C([H])([H])C([H])([H])C([H])([H])C([H])(n3nc(-c4c([H])c([H])c(Oc5c([H])c([H])c(F)c([H])c5F)c([H])c4[H])c(C(=O)N([H])[H])c3N([H])[H])C2([H])[H])C([H])([H])[H])nc1C([H])([H])Oc1c([H])c([H])c2c(c1[H])C([H])([H])N(C(=O)C([H])(N([H])C(=O)C([H])(N([H])C([H])([H])[H])C([H])([H])[H])C(C([H])([H])[H])(C([H])([H])[H])C([H])([H])[H])C([H])(C(=O)N([H])C1([H])c3c([H])c([H])c([H])c([H])c3C([H])([H])C([H])([H])C1([H])[H])C2([H])[H]

>  <smiles>  (37) 
[H]c1c(C([H])([H])[H])nc(C([H])([H])C([H])([H])N(C(=O)N2C([H])([H])C([H])([H])C([H])([H])C([H])(n3nc(-c4c([H])c([H])c(Oc5c([H])c([H])c(F)c([H])c5F)c([H])c4[H])c(C(=O)N([H])[H])c3N([H])[H])C2([H])[H])C([H])([H])[H])nc1C([H])([H])Oc1c([H])c([H])c2c(c1[H])C([H])([H])N(C(=O)C([H])(N([H])C(=O)C([H])(N([H])C([H])([H])[H])C([H])([H])[H])C(C([H])([H])[H])(C([H])([H])[H])C([H])([H])[H])C([H])(C(=O)N([H])C1([H])c3c([H])c([H])c([H])c([H])c3C([H])([H])C([H])([H])C1([H])[H])C2([H])[H]

$$$$
37:0:0
     RDKit          3D

 92100  0  0  1  0  0  0  0  0999 V2000
  -29.8560  -23.9800   18.9620 C   0  0  0  0  0  3  0  0  0  0  0  0
  -30.5590  -22.8800   18.4540 C   0  0  0  0  0  3  0  0  0  0  0  0
  -28.9960  -23.7760   20.0440 C   0  0  0  0  0  0  0  0  0  0  0  0
  -29.6140  -21.4590   19.9960 C   0  0  0  0  0  0  0  0  0  0  0  0
  -30.4380  -21.6350   18.9670 N   0  0  0  0  0  0  0  0  0  0  0  0
  -28.8920  -22.4840   20.5440 N   0  0  0  0  0  0  0  0  0  0  0  0
  -28.1360  -24.9780   20.6350 C   0  0  0  0  0  2  0  0  0  0  0  0
  -28.3840  -26.4020   20.2230 O   0  0  0  0  0  0  0  0  0  0  0  0
  -24.6340  -31.8590   23.2240 C   0  0  0  0  0  0  0  0  0  0  0  0
  -27.2810  -27.2810   20.2000 C   0  0  0  0  0  0  0  0  0  0  0  0
  -23.4470  -30.4550   21.5750 C   0  0  0  0  0  3  0  0  0  0  0  0
  -24.9140  -28.9060   20.1610 C   0  0  0  0  0  0  0  0  0  0  0  0
  -25.9880  -30.7770   21.4100 C   0  0  0  0  0  2  0  0  0  0  0  0
  -26.0790  -29.3940   20.7690 C   0  0  0  0  0  0  0  0  0  0  0  0
  -27.2670  -28.5940   20.7760 C   0  0  0  0  0  3  0  0  0  0  0  0
  -26.0970  -26.8620   19.5550 C   0  0  0  0  0  3  0  0  0  0  0  0
  -24.9280  -27.6470   19.5420 C   0  0  0  0  0  3  0  0  0  0  0  0
  -23.6730  -29.7770   20.1990 C   0  0  0  0  0  2  0  0  0  0  0  0
  -24.7090  -31.0480   22.1270 N   0  0  0  0  0  0  0  0  0  0  0  0
  -23.5460  -32.1340   23.7500 O   0  0  0  0  0  0  0  0  0  0  0  0
  -22.7780  -29.4390   22.5330 C   0  0  0  0  0  0  0  0  0  0  0  0
  -21.4520  -29.2610   22.3980 N   0  0  0  0  0  0  0  0  0  0  0  0
  -23.4520  -28.8150   23.3550 O   0  0  0  0  0  0  0  0  0  0  0  0
  -20.9670  -29.8170   21.7090 H   0  0  0  0  0  0  0  0  0  0  0  0
  -18.0760  -28.0470   22.8710 C   0  0  0  0  0  0  0  0  0  0  0  0
  -20.6310  -28.3230   23.1660 C   0  0  0  0  0  3  0  0  0  0  0  0
  -20.7460  -26.8880   22.6010 C   0  0  0  0  0  2  0  0  0  0  0  0
  -19.6570  -26.5550   21.5770 C   0  0  0  0  0  2  0  0  0  0  0  0
  -18.2670  -26.6950   22.2050 C   0  0  0  0  0  2  0  0  0  0  0  0
  -19.1850  -28.8180   23.3080 C   0  0  0  0  0  0  0  0  0  0  0  0
  -18.9520  -30.0820   23.8920 C   0  0  0  0  0  3  0  0  0  0  0  0
  -17.6420  -30.5750   24.0420 C   0  0  0  0  0  3  0  0  0  0  0  0
  -16.5470  -29.8010   23.6200 C   0  0  0  0  0  3  0  0  0  0  0  0
  -16.7650  -28.5390   23.0410 C   0  0  0  0  0  3  0  0  0  0  0  0
  -25.9100  -32.4980   23.8550 C   0  0  0  0  0  3  0  0  0  0  0  0
  -25.5900  -33.8950   24.1830 N   0  0  0  0  0  0  0  0  0  0  0  0
  -25.9210  -34.9510   23.4270 C   0  0  0  0  0  0  0  0  0  0  0  0
  -26.5960  -34.8500   22.3990 O   0  0  0  0  0  0  0  0  0  0  0  0
  -24.9890  -34.0450   24.9810 H   0  0  0  0  0  0  0  0  0  0  0  0
  -24.1850  -36.7380   23.0710 C   0  0  0  0  0  1  0  0  0  0  0  0
  -25.4270  -36.3370   23.8830 C   0  0  0  0  0  3  0  0  0  0  0  0
  -27.5580  -37.2330   24.7120 C   0  0  0  0  0  1  0  0  0  0  0  0
  -26.4550  -37.3950   23.7700 N   0  0  0  0  0  0  0  0  0  0  0  0
  -26.0450  -38.3130   23.9170 H   0  0  0  0  0  0  0  0  0  0  0  0
  -26.4180  -31.7300   25.1350 C   0  0  1  0  0  0  0  0  0  0  0  0
  -25.3190  -31.4890   26.1950 C   0  0  0  0  0  1  0  0  0  0  0  0
  -27.0090  -30.3530   24.7520 C   0  0  0  0  0  1  0  0  0  0  0  0
  -27.5650  -32.5280   25.8030 C   0  0  0  0  0  1  0  0  0  0  0  0
  -29.5700  -19.9710   20.5580 C   0  0  0  0  0  2  0  0  0  0  0  0
  -28.9570  -18.6270   18.5070 C   0  0  0  0  0  1  0  0  0  0  0  0
  -29.9540  -18.8540   19.5830 N   0  0  2  0  0  4  0  0  0  0  0  0
  -30.6530  -19.3940   19.0860 H   0  0  0  0  0  0  0  0  0  0  0  0
  -30.7670  -17.5980   20.0040 C   0  0  0  0  0  2  0  0  0  0  0  0
  -30.5550  -16.2520   22.1490 C   0  0  0  0  0  1  0  0  0  0  0  0
  -28.6080  -16.3370   20.6190 C   0  0  0  0  0  1  0  0  0  0  0  0
  -30.1440  -16.2250   20.6610 C   0  0  1  0  0  0  0  0  0  0  0  0
  -30.7370  -14.8100   20.0780 C   0  0  0  0  0  0  0  0  0  0  0  0
  -30.4690  -12.5550   18.9920 C   0  0  0  0  0  2  0  0  0  0  0  0
  -29.4600  -12.6390   17.8230 C   0  0  0  0  0  2  0  0  0  0  0  0
  -28.0140  -12.4390   18.3200 C   0  0  0  0  0  2  0  0  0  0  0  0
  -27.7100  -13.2900   19.5770 C   0  0  0  0  0  3  0  0  0  0  0  0
  -28.8340  -13.1560   20.6330 C   0  0  0  0  0  2  0  0  0  0  0  0
  -30.0900  -13.5820   19.9990 N   0  0  0  0  0  0  0  0  0  0  0  0
  -31.8750  -14.8680   19.6040 O   0  0  0  0  0  0  0  0  0  0  0  0
  -25.3610  -13.9050   20.4230 C   0  0  0  0  0  0  0  0  0  0  0  0
  -24.3100  -13.1360   20.8360 C   0  0  0  0  0  0  0  0  0  0  0  0
  -24.7600  -11.7830   20.7650 C   0  0  0  0  0  0  0  0  0  0  0  0
  -26.3880  -13.0180   20.1300 N   0  0  0  0  0  0  0  0  0  0  0  0
  -26.0340  -11.7360   20.3940 N   0  0  0  0  0  0  0  0  0  0  0  0
  -24.0350  -10.5250   20.9720 C   0  0  0  0  0  0  0  0  0  0  0  0
  -24.4920   -9.5510   21.8860 C   0  0  0  0  0  3  0  0  0  0  0  0
  -23.7650   -8.3580   22.0800 C   0  0  0  0  0  3  0  0  0  0  0  0
  -22.5690   -8.1300   21.3590 C   0  0  0  0  0  0  0  0  0  0  0  0
  -22.1330   -9.0920   20.4300 C   0  0  0  0  0  3  0  0  0  0  0  0
  -22.8600  -10.2780   20.2350 C   0  0  0  0  0  3  0  0  0  0  0  0
  -21.8120   -6.9890   21.4610 O   0  0  0  0  0  0  0  0  0  0  0  0
  -21.7730   -6.2540   22.6180 C   0  0  0  0  0  0  0  0  0  0  0  0
  -21.3630   -6.8160   23.8470 C   0  0  0  0  0  3  0  0  0  0  0  0
  -21.2690   -6.0050   24.9940 C   0  0  0  0  0  3  0  0  0  0  0  0
  -21.5780   -4.6340   24.9170 C   0  0  0  0  0  0  0  0  0  0  0  0
  -21.9850   -4.0730   23.6930 C   0  0  0  0  0  3  0  0  0  0  0  0
  -22.0780   -4.8790   22.5460 C   0  0  0  0  0  0  0  0  0  0  0  0
  -22.4470   -4.3290   21.3660 F   0  0  0  0  0  0  0  0  0  0  0  0
  -21.4820   -3.8530   26.0180 F   0  0  0  0  0  0  0  0  0  0  0  0
  -22.9320  -13.6230   21.1820 C   0  0  0  0  0  0  0  0  0  0  0  0
  -22.2420  -12.9210   22.0740 N   0  0  0  0  0  0  0  0  0  0  0  0
  -22.4780  -14.6610   20.7000 O   0  0  0  0  0  0  0  0  0  0  0  0
  -22.6260  -12.0830   22.4860 H   0  0  0  0  0  0  0  0  0  0  0  0
  -21.3200  -13.2270   22.3500 H   0  0  0  0  0  0  0  0  0  0  0  0
  -25.5130  -15.2760   20.2500 N   0  0  0  0  0  0  0  0  0  0  0  0
  -24.7450  -15.9200   20.4120 H   0  0  0  0  0  0  0  0  0  0  0  0
  -26.3500  -15.7280   19.9130 H   0  0  0  0  0  0  0  0  0  0  0  0
  1  3  1  0
  2  1  2  0
  2  5  1  0
  3  6  2  0
  3  7  1  0
  4  6  1  0
  4 49  1  0
  5  4  2  0
  8  7  1  0
  9 20  2  0
 10  8  1  0
 10 15  1  0
 11 19  1  0
 11 21  1  0
 12 18  1  0
 12 14  1  0
 13 19  1  0
 14 15  2  0
 14 13  1  0
 16 10  2  0
 17 16  1  0
 17 12  2  0
 18 11  1  0
 19  9  1  0
 21 23  2  0
 22 21  1  0
 24 22  1  0
 25 34  2  0
 25 30  1  0
 26 22  1  0
 26 30  1  0
 27 26  1  0
 28 29  1  0
 28 27  1  0
 29 25  1  0
 30 31  2  0
 31 32  1  0
 33 32  2  0
 34 33  1  0
 35  9  1  0
 35 36  1  0
 35 45  1  0
 36 39  1  0
 37 41  1  0
 37 36  1  0
 38 37  2  0
 41 40  1  0
 43 41  1  0
 43 44  1  0
 43 42  1  0
 45 48  1  1
 45 46  1  0
 47 45  1  0
 50 51  1  0
 51 53  1  0
 51 49  1  0
 51 52  1  6
 53 56  1  0
 56 55  1  1
 56 54  1  0
 57 56  1  0
 58 63  1  0
 59 60  1  0
 59 58  1  0
 61 60  1  0
 61 68  1  0
 61 62  1  0
 63 57  1  0
 63 62  1  0
 64 57  2  0
 65 66  2  0
 66 85  1  0
 67 66  1  0
 67 70  1  0
 68 69  1  0
 68 65  1  0
 69 67  2  0
 70 71  1  0
 71 72  2  0
 73 76  1  0
 73 72  1  0
 74 73  2  0
 75 74  1  0
 75 70  2  0
 76 77  1  0
 77 78  1  0
 78 79  2  0
 80 79  1  0
 80 84  1  0
 81 80  2  0
 82 77  2  0
 82 81  1  0
 83 82  1  0
 85 86  1  0
 86 89  1  0
 86 88  1  0
 87 85  2  0
 90 91  1  0
 90 65  1  0
 92 90  1  0
M  ISO  4   7 101   8 101  56 100  57 100
M  END
>  <TORSDO>  (38) 
F 21

>  <SCORE>  (38) 
-13.443

>  <name>  (38) 
37

>  <ligand_id>  (38) 
37

>  <original_smiles>  (38) 
[H]c1nc(C([H])([H])[N+]([H])(C([H])([H])[H])C([H])([H])C(C(=O)N2C([H])([H])C([H])([H])C([H])([H])C([H])(n3nc(-c4c([H])c([H])c(Oc5c([H])c([H])c(F)c([H])c5F)c([H])c4[H])c(C(=O)N([H])[H])c3N([H])[H])C2([H])[H])(C([H])([H])[H])C([H])([H])[H])nc(C([H])([H])Oc2c([H])c([H])c3c(c2[H])C([H])([H])N(C(=O)C([H])(N([H])C(=O)C([H])(N([H])C([H])([H])[H])C([H])([H])[H])C(C([H])([H])[H])(C([H])([H])[H])C([H])([H])[H])C([H])(C(=O)N([H])C2([H])c4c([H])c([H])c([H])c([H])c4C([H])([H])C([H])([H])C2([H])[H])C3([H])[H])c1[H]

>  <smiles>  (38) 
[H]c1nc(C([H])([H])[N+]([H])(C([H])([H])[H])C([H])([H])C(C(=O)N2C([H])([H])C([H])([H])C([H])([H])C([H])(n3nc(-c4c([H])c([H])c(Oc5c([H])c([H])c(F)c([H])c5F)c([H])c4[H])c(C(=O)N([H])[H])c3N([H])[H])C2([H])[H])(C([H])([H])[H])C([H])([H])[H])nc(C([H])([H])Oc2c([H])c([H])c3c(c2[H])C([H])([H])N(C(=O)C([H])(N([H])C(=O)C([H])(N([H])C([H])([H])[H])C([H])([H])[H])C(C([H])([H])[H])(C([H])([H])[H])C([H])([H])[H])C([H])(C(=O)N([H])C2([H])c4c([H])c([H])c([H])c([H])c4C([H])([H])C([H])([H])C2([H])[H])C3([H])[H])c1[H]

$$$$
38:0:0
     RDKit          3D

 94102  0  0  1  0  0  0  0  0999 V2000
  -30.6730  -19.3450   21.9580 C   0  0  0  0  0  3  0  0  0  0  0  0
  -30.1830  -18.1620   21.3340 C   0  0  0  0  0  0  0  0  0  0  0  0
  -28.7240  -19.4800   20.0790 C   0  0  0  0  0  3  0  0  0  0  0  0
  -29.2480  -20.6740   20.6720 C   0  0  0  0  0  0  0  0  0  0  0  0
  -29.2000  -18.2420   20.4030 N   0  0  0  0  0  0  0  0  0  0  0  0
  -30.2160  -20.5790   21.6210 N   0  0  0  0  0  0  0  0  0  0  0  0
  -27.1830  -20.7330   18.3570 C   0  0  0  0  0  1  0  0  0  0  0  0
  -27.5800  -19.4270   19.0630 C   0  0  0  0  0  2  0  0  0  0  0  0
  -33.0830  -19.8780   22.5980 C   0  0  0  0  0  1  0  0  0  0  0  0
  -31.7270  -19.3310   23.0590 C   0  0  0  0  0  2  0  0  0  0  0  0
  -30.7550  -16.7700   21.6850 C   0  0  0  0  0  2  0  0  0  0  0  0
  -30.7450  -14.6170   20.3900 C   0  0  0  0  0  0  0  0  0  0  0  0
  -30.4550  -12.4640   19.2020 C   0  0  0  0  0  2  0  0  0  0  0  0
  -29.4990  -12.6370   18.0040 C   0  0  0  0  0  2  0  0  0  0  0  0
  -28.0330  -12.4740   18.4510 C   0  0  0  0  0  2  0  0  0  0  0  0
  -27.6920  -13.3150   19.7100 C   0  0  0  0  0  3  0  0  0  0  0  0
  -28.7580  -13.1150   20.8090 C   0  0  0  0  0  2  0  0  0  0  0  0
  -30.0690  -13.4460   20.2280 N   0  0  0  0  0  0  0  0  0  0  0  0
  -31.8480  -14.8210   19.8770 O   0  0  0  0  0  0  0  0  0  0  0  0
  -30.1200  -15.5690   21.1090 N   0  0  0  0  0  0  0  0  0  0  0  0
  -29.1810  -15.3690   21.4130 H   0  0  0  0  0  0  0  0  0  0  0  0
  -25.2880  -13.8900   20.4280 C   0  0  0  0  0  0  0  0  0  0  0  0
  -24.2360  -13.1050   20.8110 C   0  0  0  0  0  0  0  0  0  0  0  0
  -24.7190  -11.7600   20.7950 C   0  0  0  0  0  0  0  0  0  0  0  0
  -26.3470  -13.0230   20.2010 N   0  0  0  0  0  0  0  0  0  0  0  0
  -26.0080  -11.7390   20.4810 N   0  0  0  0  0  0  0  0  0  0  0  0
  -24.0150  -10.4890   21.0040 C   0  0  0  0  0  0  0  0  0  0  0  0
  -24.4550   -9.5500   21.9650 C   0  0  0  0  0  3  0  0  0  0  0  0
  -23.7510   -8.3420   22.1610 C   0  0  0  0  0  3  0  0  0  0  0  0
  -22.5930   -8.0640   21.3960 C   0  0  0  0  0  0  0  0  0  0  0  0
  -22.1720   -8.9910   20.4250 C   0  0  0  0  0  3  0  0  0  0  0  0
  -22.8780  -10.1890   20.2280 C   0  0  0  0  0  3  0  0  0  0  0  0
  -21.8610   -6.9060   21.5000 O   0  0  0  0  0  0  0  0  0  0  0  0
  -21.7910   -6.2020   22.6740 C   0  0  0  0  0  0  0  0  0  0  0  0
  -21.2860   -6.7790   23.8590 C   0  0  0  0  0  3  0  0  0  0  0  0
  -21.1660   -5.9980   25.0270 C   0  0  0  0  0  3  0  0  0  0  0  0
  -21.5400   -4.6400   25.0080 C   0  0  0  0  0  0  0  0  0  0  0  0
  -22.0370   -4.0630   23.8260 C   0  0  0  0  0  3  0  0  0  0  0  0
  -22.1590   -4.8410   22.6620 C   0  0  0  0  0  0  0  0  0  0  0  0
  -22.6180   -4.2740   21.5200 F   0  0  0  0  0  0  0  0  0  0  0  0
  -21.4180   -3.8880   26.1270 F   0  0  0  0  0  0  0  0  0  0  0  0
  -22.8300  -13.5620   21.0840 C   0  0  0  0  0  0  0  0  0  0  0  0
  -22.1140  -12.8630   21.9560 N   0  0  0  0  0  0  0  0  0  0  0  0
  -22.3740  -14.5760   20.5560 O   0  0  0  0  0  0  0  0  0  0  0  0
  -22.4950  -12.0440   22.4090 H   0  0  0  0  0  0  0  0  0  0  0  0
  -21.1730  -13.1540   22.1790 H   0  0  0  0  0  0  0  0  0  0  0  0
  -25.4290  -15.2610   20.2340 N   0  0  0  0  0  0  0  0  0  0  0  0
  -24.6550  -15.9070   20.3510 H   0  0  0  0  0  0  0  0  0  0  0  0
  -26.2770  -15.7120   19.9110 H   0  0  0  0  0  0  0  0  0  0  0  0
  -28.8130  -21.9540   20.3200 O   0  0  0  0  0  0  0  0  0  0  0  0
  -29.4930  -23.1160   20.8450 C   0  0  0  0  0  2  0  0  0  0  0  0
  -29.2400  -24.4480   20.0640 C   0  0  0  0  0  2  0  0  0  0  0  0
  -28.1110  -25.3840   20.5750 C   0  0  0  0  0  2  0  0  0  0  0  0
  -28.2300  -26.7360   20.0560 O   0  0  0  0  0  0  0  0  0  0  0  0
  -24.5170  -31.9490   23.2510 C   0  0  0  0  0  0  0  0  0  0  0  0
  -27.0810  -27.5090   20.0800 C   0  0  0  0  0  0  0  0  0  0  0  0
  -23.2790  -30.5750   21.6110 C   0  0  0  0  0  3  0  0  0  0  0  0
  -24.7030  -29.0510   20.1380 C   0  0  0  0  0  0  0  0  0  0  0  0
  -25.8060  -30.9190   21.3780 C   0  0  0  0  0  2  0  0  0  0  0  0
  -25.8750  -29.5550   20.7170 C   0  0  0  0  0  0  0  0  0  0  0  0
  -27.0690  -28.7920   20.6800 C   0  0  0  0  0  3  0  0  0  0  0  0
  -25.8960  -27.0370   19.4770 C   0  0  0  0  0  3  0  0  0  0  0  0
  -24.7100  -27.7940   19.5120 C   0  0  0  0  0  3  0  0  0  0  0  0
  -23.4630  -29.9130   20.2190 C   0  0  0  0  0  2  0  0  0  0  0  0
  -24.5530  -31.1630   22.1370 N   0  0  0  0  0  0  0  0  0  0  0  0
  -23.4470  -32.2170   23.8130 O   0  0  0  0  0  0  0  0  0  0  0  0
  -22.6410  -29.5420   22.5680 C   0  0  0  0  0  0  0  0  0  0  0  0
  -21.3190  -29.3400   22.4390 N   0  0  0  0  0  0  0  0  0  0  0  0
  -23.3310  -28.9260   23.3850 O   0  0  0  0  0  0  0  0  0  0  0  0
  -20.8200  -29.8900   21.7530 H   0  0  0  0  0  0  0  0  0  0  0  0
  -17.9670  -28.0710   22.9080 C   0  0  0  0  0  0  0  0  0  0  0  0
  -20.5160  -28.3870   23.2050 C   0  0  0  0  0  3  0  0  0  0  0  0
  -20.6550  -26.9550   22.6380 C   0  0  0  0  0  2  0  0  0  0  0  0
  -19.5720  -26.6050   21.6130 C   0  0  0  0  0  2  0  0  0  0  0  0
  -18.1800  -26.7220   22.2410 C   0  0  0  0  0  2  0  0  0  0  0  0
  -19.0640  -28.8600   23.3470 C   0  0  0  0  0  0  0  0  0  0  0  0
  -18.8120  -30.1210   23.9270 C   0  0  0  0  0  3  0  0  0  0  0  0
  -17.4950  -30.5970   24.0750 C   0  0  0  0  0  3  0  0  0  0  0  0
  -16.4130  -29.8060   23.6550 C   0  0  0  0  0  3  0  0  0  0  0  0
  -16.6500  -28.5450   23.0780 C   0  0  0  0  0  3  0  0  0  0  0  0
  -25.8160  -32.5680   23.8560 C   0  0  0  0  0  3  0  0  0  0  0  0
  -25.5270  -33.9700   24.1840 N   0  0  0  0  0  0  0  0  0  0  0  0
  -25.8800  -35.0180   23.4260 C   0  0  0  0  0  0  0  0  0  0  0  0
  -26.5550  -34.9040   22.4000 O   0  0  0  0  0  0  0  0  0  0  0  0
  -24.9310  -34.1340   24.9830 H   0  0  0  0  0  0  0  0  0  0  0  0
  -24.1960  -36.8460   23.0440 C   0  0  0  0  0  1  0  0  0  0  0  0
  -25.4110  -36.4130   23.8800 C   0  0  0  0  0  3  0  0  0  0  0  0
  -27.5400  -37.2550   24.7670 C   0  0  0  0  0  1  0  0  0  0  0  0
  -26.4650  -37.4460   23.7960 N   0  0  0  0  0  0  0  0  0  0  0  0
  -26.0730  -38.3720   23.9360 H   0  0  0  0  0  0  0  0  0  0  0  0
  -26.3400  -31.7950   25.1280 C   0  0  1  0  0  0  0  0  0  0  0  0
  -25.2560  -31.5640   26.2070 C   0  0  0  0  0  1  0  0  0  0  0  0
  -26.9110  -30.4130   24.7300 C   0  0  0  0  0  1  0  0  0  0  0  0
  -27.5010  -32.5820   25.7800 C   0  0  0  0  0  1  0  0  0  0  0  0
  1 10  1  0
  2 11  1  0
  2  1  1  0
  3  8  1  0
  3  5  1  0
  3  4  1  0
  4  6  2  0
  5  2  2  0
  6  1  1  0
  7  8  1  0
  9 10  1  0
 12 20  1  0
 13 18  1  0
 14 15  1  0
 14 13  1  0
 16 15  1  0
 16 25  1  0
 16 17  1  0
 18 12  1  0
 18 17  1  0
 19 12  2  0
 20 21  1  0
 20 11  1  0
 22 23  2  0
 23 42  1  0
 24 23  1  0
 24 27  1  0
 25 22  1  0
 25 26  1  0
 26 24  2  0
 27 28  1  0
 28 29  2  0
 30 33  1  0
 30 29  1  0
 31 30  2  0
 32 31  1  0
 32 27  2  0
 33 34  1  0
 34 35  1  0
 35 36  2  0
 37 36  1  0
 37 41  1  0
 38 37  2  0
 39 34  2  0
 39 38  1  0
 40 39  1  0
 42 43  1  0
 43 46  1  0
 43 45  1  0
 44 42  2  0
 47 48  1  0
 47 22  1  0
 49 47  1  0
 50  4  1  0
 50 51  1  0
 52 53  1  0
 52 51  1  0
 54 56  1  0
 54 53  1  0
 55 66  2  0
 56 61  1  0
 57 65  1  0
 57 67  1  0
 58 64  1  0
 58 60  1  0
 59 65  1  0
 60 59  1  0
 61 60  2  0
 62 63  1  0
 62 56  2  0
 63 58  2  0
 64 57  1  0
 65 55  1  0
 67 69  2  0
 68 67  1  0
 70 68  1  0
 71 80  2  0
 71 76  1  0
 72 68  1  0
 72 76  1  0
 73 72  1  0
 74 75  1  0
 74 73  1  0
 75 71  1  0
 76 77  2  0
 77 78  1  0
 79 78  2  0
 80 79  1  0
 81 55  1  0
 81 82  1  0
 81 91  1  0
 82 85  1  0
 83 87  1  0
 83 82  1  0
 84 83  2  0
 87 86  1  0
 89 87  1  0
 89 90  1  0
 89 88  1  0
 91 94  1  1
 91 92  1  0
 93 91  1  0
M  ISO  4  12 100  20 100  53 101  54 101
M  END
>  <TORSDO>  (39) 
F 23

>  <SCORE>  (39) 
-13.077

>  <name>  (39) 
38

>  <ligand_id>  (39) 
38

>  <original_smiles>  (39) 
[H]c1c([H])c([H])c2c(c1[H])C([H])([H])C([H])([H])C([H])([H])C2([H])N([H])C(=O)C1([H])N(C(=O)C([H])(N([H])C(=O)C([H])(N([H])C([H])([H])[H])C([H])([H])[H])C(C([H])([H])[H])(C([H])([H])[H])C([H])([H])[H])C([H])([H])c2c([H])c(OC([H])([H])C([H])([H])C([H])([H])Oc3nc(C([H])([H])C([H])([H])[H])c(C([H])([H])N([H])C(=O)N4C([H])([H])C([H])([H])C([H])([H])C([H])(n5nc(-c6c([H])c([H])c(Oc7c([H])c([H])c(F)c([H])c7F)c([H])c6[H])c(C(=O)N([H])[H])c5N([H])[H])C4([H])[H])nc3C([H])([H])C([H])([H])[H])c([H])c([H])c2C1([H])[H]

>  <smiles>  (39) 
[H]c1c([H])c([H])c2c(c1[H])C([H])([H])C([H])([H])C([H])([H])C2([H])N([H])C(=O)C1([H])N(C(=O)C([H])(N([H])C(=O)C([H])(N([H])C([H])([H])[H])C([H])([H])[H])C(C([H])([H])[H])(C([H])([H])[H])C([H])([H])[H])C([H])([H])c2c([H])c(OC([H])([H])C([H])([H])C([H])([H])Oc3nc(C([H])([H])C([H])([H])[H])c(C([H])([H])N([H])C(=O)N4C([H])([H])C([H])([H])C([H])([H])C([H])(n5nc(-c6c([H])c([H])c(Oc7c([H])c([H])c(F)c([H])c7F)c([H])c6[H])c(C(=O)N([H])[H])c5N([H])[H])C4([H])[H])nc3C([H])([H])C([H])([H])[H])c([H])c([H])c2C1([H])[H]

$$$$
39:0:0
     RDKit          3D

101109  0  0  1  0  0  0  0  0999 V2000
  -28.5330  -22.9930   22.0470 C   0  0  0  0  0  1  0  0  0  0  0  0
  -29.9540  -22.5570   21.6050 C   0  0  2  0  0  0  0  0  0  0  0  0
  -29.6670  -21.7400   19.1660 C   0  0  0  0  0  3  0  0  0  0  0  0
  -29.6250  -20.6600   18.2790 C   0  0  0  0  0  0  0  0  0  0  0  0
  -29.7590  -21.4470   20.5330 C   0  0  0  0  0  0  0  0  0  0  0  0
  -29.3930  -19.2170   20.0360 C   0  0  0  0  0  0  0  0  0  0  0  0
  -29.4970  -19.3940   18.7210 N   0  0  0  0  0  0  0  0  0  0  0  0
  -29.5450  -20.1750   20.9470 N   0  0  0  0  0  0  0  0  0  0  0  0
  -31.3460  -21.1920   16.5190 C   0  0  0  0  0  1  0  0  0  0  0  0
  -29.8650  -20.8840   16.8000 C   0  0  0  0  0  2  0  0  0  0  0  0
  -29.0380  -17.8060   20.5210 C   0  0  0  0  0  2  0  0  0  0  0  0
  -30.2360  -16.9440   20.9890 C   0  0  0  0  0  2  0  0  0  0  0  0
  -30.5840  -14.5100   20.5060 C   0  0  0  0  0  0  0  0  0  0  0  0
  -30.3310  -12.3410   19.3670 C   0  0  0  0  0  2  0  0  0  0  0  0
  -29.3880  -12.5150   18.1590 C   0  0  0  0  0  2  0  0  0  0  0  0
  -27.9170  -12.3500   18.5860 C   0  0  0  0  0  2  0  0  0  0  0  0
  -27.5530  -13.1810   19.8450 C   0  0  0  0  0  3  0  0  0  0  0  0
  -28.6120  -12.9940   20.9540 C   0  0  0  0  0  2  0  0  0  0  0  0
  -29.9320  -13.3230   20.3900 N   0  0  0  0  0  0  0  0  0  0  0  0
  -31.6840  -14.7230   19.9930 O   0  0  0  0  0  0  0  0  0  0  0  0
  -29.8920  -15.5080   21.0810 N   0  0  0  0  0  0  0  0  0  0  0  0
  -29.0090  -15.2640   21.5030 H   0  0  0  0  0  0  0  0  0  0  0  0
  -25.1390  -13.7210   20.5690 C   0  0  0  0  0  0  0  0  0  0  0  0
  -24.0910  -12.9190   20.9360 C   0  0  0  0  0  0  0  0  0  0  0  0
  -24.5850  -11.5790   20.8910 C   0  0  0  0  0  0  0  0  0  0  0  0
  -26.2050  -12.8690   20.3250 N   0  0  0  0  0  0  0  0  0  0  0  0
  -25.8740  -11.5740   20.5740 N   0  0  0  0  0  0  0  0  0  0  0  0
  -23.8890  -10.2960   21.0730 C   0  0  0  0  0  0  0  0  0  0  0  0
  -24.3380   -9.3370   22.0090 C   0  0  0  0  0  3  0  0  0  0  0  0
  -23.6420   -8.1190   22.1780 C   0  0  0  0  0  3  0  0  0  0  0  0
  -22.4820   -7.8540   21.4130 C   0  0  0  0  0  0  0  0  0  0  0  0
  -22.0500   -8.8030   20.4680 C   0  0  0  0  0  3  0  0  0  0  0  0
  -22.7480  -10.0100   20.2960 C   0  0  0  0  0  3  0  0  0  0  0  0
  -21.7550   -6.6900   21.4920 O   0  0  0  0  0  0  0  0  0  0  0  0
  -21.7060   -5.9500   22.6470 C   0  0  0  0  0  0  0  0  0  0  0  0
  -21.2350   -6.4950   23.8600 C   0  0  0  0  0  3  0  0  0  0  0  0
  -21.1330   -5.6790   25.0050 C   0  0  0  0  0  3  0  0  0  0  0  0
  -21.4940   -4.3210   24.9390 C   0  0  0  0  0  0  0  0  0  0  0  0
  -21.9610   -3.7750   23.7310 C   0  0  0  0  0  3  0  0  0  0  0  0
  -22.0630   -4.5880   22.5870 C   0  0  0  0  0  0  0  0  0  0  0  0
  -22.4920   -4.0500   21.4200 F   0  0  0  0  0  0  0  0  0  0  0  0
  -21.3900   -3.5360   26.0380 F   0  0  0  0  0  0  0  0  0  0  0  0
  -22.6800  -13.3610   21.2130 C   0  0  0  0  0  0  0  0  0  0  0  0
  -21.9690  -12.6450   22.0780 N   0  0  0  0  0  0  0  0  0  0  0  0
  -22.2180  -14.3760   20.6990 O   0  0  0  0  0  0  0  0  0  0  0  0
  -22.3510  -11.8230   22.5210 H   0  0  0  0  0  0  0  0  0  0  0  0
  -21.0260  -12.9280   22.3030 H   0  0  0  0  0  0  0  0  0  0  0  0
  -25.2750  -15.0970   20.4060 N   0  0  0  0  0  0  0  0  0  0  0  0
  -24.5000  -15.7390   20.5340 H   0  0  0  0  0  0  0  0  0  0  0  0
  -26.1180  -15.5510   20.0770 H   0  0  0  0  0  0  0  0  0  0  0  0
  -29.9440  -21.2140   23.9250 C   0  0  0  0  0  1  0  0  0  0  0  0
  -30.7380  -21.9780   22.8450 C   0  0  0  0  0  2  0  0  0  0  0  0
  -31.9200  -23.5660   20.0190 C   0  0  0  0  0  1  0  0  0  0  0  0
  -30.8260  -23.8090   21.0990 C   0  0  0  0  0  3  0  0  0  0  0  0
  -30.0780  -25.9120   22.1780 C   0  0  0  0  0  1  0  0  0  0  0  0
  -30.0220  -25.0760   20.9460 N   0  0  1  0  0  4  0  0  0  0  0  0
  -29.0640  -24.7530   20.8950 H   0  0  0  0  0  0  0  0  0  0  0  0
  -30.2200  -25.8690   19.6890 C   0  0  0  0  0  2  0  0  0  0  0  0
  -29.5970  -27.8950   18.2830 C   0  0  0  0  0  1  0  0  0  0  0  0
  -29.2950  -27.1110   19.5680 C   0  0  0  0  0  3  0  0  0  0  0  0
  -27.9570  -26.6200   19.5060 O   0  0  0  0  0  0  0  0  0  0  0  0
  -24.4740  -31.7840   23.0860 C   0  0  0  0  0  0  0  0  0  0  0  0
  -26.8640  -27.4510   19.6700 C   0  0  0  0  0  0  0  0  0  0  0  0
  -23.1420  -30.4690   21.4680 C   0  0  0  0  0  3  0  0  0  0  0  0
  -24.4820  -28.9670   19.9010 C   0  0  0  0  0  0  0  0  0  0  0  0
  -25.6540  -30.8050   21.1220 C   0  0  0  0  0  2  0  0  0  0  0  0
  -25.6820  -29.4590   20.4300 C   0  0  0  0  0  0  0  0  0  0  0  0
  -26.8770  -28.7120   20.3160 C   0  0  0  0  0  3  0  0  0  0  0  0
  -25.6430  -26.9660   19.1580 C   0  0  0  0  0  3  0  0  0  0  0  0
  -24.4560  -27.7160   19.2630 C   0  0  0  0  0  3  0  0  0  0  0  0
  -23.2550  -29.8390   20.0550 C   0  0  0  0  0  2  0  0  0  0  0  0
  -24.4460  -31.0300   21.9510 N   0  0  0  0  0  0  0  0  0  0  0  0
  -23.4360  -32.0520   23.7050 O   0  0  0  0  0  0  0  0  0  0  0  0
  -22.5300  -29.4240   22.4280 C   0  0  0  0  0  0  0  0  0  0  0  0
  -21.2000  -29.2530   22.3560 N   0  0  0  0  0  0  0  0  0  0  0  0
  -23.2470  -28.7700   23.1900 O   0  0  0  0  0  0  0  0  0  0  0  0
  -20.6830  -29.8310   21.7100 H   0  0  0  0  0  0  0  0  0  0  0  0
  -17.8530  -28.0120   22.9210 C   0  0  0  0  0  0  0  0  0  0  0  0
  -20.4130  -28.2970   23.1350 C   0  0  0  0  0  3  0  0  0  0  0  0
  -20.5190  -26.8740   22.5390 C   0  0  0  0  0  2  0  0  0  0  0  0
  -19.3960  -26.5500   21.5470 C   0  0  0  0  0  2  0  0  0  0  0  0
  -18.0290  -26.6710   22.2270 C   0  0  0  0  0  2  0  0  0  0  0  0
  -18.9720  -28.7830   23.3330 C   0  0  0  0  0  0  0  0  0  0  0  0
  -18.7550  -30.0360   23.9440 C   0  0  0  0  0  3  0  0  0  0  0  0
  -17.4490  -30.5210   24.1450 C   0  0  0  0  0  3  0  0  0  0  0  0
  -16.3430  -29.7480   23.7480 C   0  0  0  0  0  3  0  0  0  0  0  0
  -16.5470  -28.4960   23.1420 C   0  0  0  0  0  3  0  0  0  0  0  0
  -25.8100  -32.3650   23.6480 C   0  0  0  0  0  3  0  0  0  0  0  0
  -26.4020  -31.5210   24.8440 C   0  0  1  0  0  0  0  0  0  0  0  0
  -25.3830  -31.2480   25.9760 C   0  0  0  0  0  1  0  0  0  0  0  0
  -26.9260  -30.1560   24.3400 C   0  0  0  0  0  1  0  0  0  0  0  0
  -27.6120  -32.2610   25.4580 C   0  0  0  0  0  1  0  0  0  0  0  0
  -25.5490  -33.7490   24.0660 N   0  0  0  0  0  0  0  0  0  0  0  0
  -25.8730  -34.8320   23.3470 C   0  0  0  0  0  0  0  0  0  0  0  0
  -26.4960  -34.7700   22.2820 O   0  0  0  0  0  0  0  0  0  0  0  0
  -24.9960  -33.8740   24.9000 H   0  0  0  0  0  0  0  0  0  0  0  0
  -24.1820  -36.6830   23.1500 C   0  0  0  0  0  1  0  0  0  0  0  0
  -25.4390  -36.2040   23.8960 C   0  0  0  0  0  3  0  0  0  0  0  0
  -27.6220  -36.9890   24.6960 C   0  0  0  0  0  1  0  0  0  0  0  0
  -26.4950  -37.2360   23.8010 N   0  0  0  0  0  0  0  0  0  0  0  0
  -26.1190  -38.1560   24.0110 H   0  0  0  0  0  0  0  0  0  0  0  0
  2  1  1  1
  2 52  1  0
  3  5  1  0
  4  7  1  0
  4  3  2  0
  5  8  2  0
  5  2  1  0
  6 11  1  0
  6  8  1  0
  7  6  2  0
  9 10  1  0
 10  4  1  0
 11 12  1  0
 12 21  1  0
 13 21  1  0
 14 19  1  0
 15 16  1  0
 15 14  1  0
 17 16  1  0
 17 26  1  0
 17 18  1  0
 19 13  1  0
 19 18  1  0
 20 13  2  0
 21 22  1  0
 23 24  2  0
 24 43  1  0
 25 24  1  0
 25 28  1  0
 26 23  1  0
 26 27  1  0
 27 25  2  0
 28 29  1  0
 29 30  2  0
 31 34  1  0
 31 30  1  0
 32 31  2  0
 33 32  1  0
 33 28  2  0
 34 35  1  0
 35 36  1  0
 36 37  2  0
 38 37  1  0
 38 42  1  0
 39 38  2  0
 40 35  2  0
 40 39  1  0
 41 40  1  0
 43 44  1  0
 44 47  1  0
 44 46  1  0
 45 43  2  0
 48 49  1  0
 48 23  1  0
 50 48  1  0
 52 51  1  0
 54 53  1  0
 54  2  1  0
 56 54  1  0
 56 55  1  0
 56 57  1  6
 58 56  1  0
 60 59  1  0
 60 58  1  0
 61 60  1  0
 61 63  1  0
 62 73  2  0
 63 68  1  0
 64 72  1  0
 64 74  1  0
 65 71  1  0
 65 67  1  0
 66 72  1  0
 67 66  1  0
 68 67  2  0
 69 70  1  0
 69 63  2  0
 70 65  2  0
 71 64  1  0
 72 62  1  0
 74 76  2  0
 75 74  1  0
 77 75  1  0
 78 87  2  0
 78 83  1  0
 79 75  1  0
 79 83  1  0
 80 79  1  0
 81 82  1  0
 81 80  1  0
 82 78  1  0
 83 84  2  0
 84 85  1  0
 86 85  2  0
 87 86  1  0
 88 62  1  0
 88 93  1  0
 88 89  1  0
 89 92  1  1
 89 90  1  0
 91 89  1  0
 93 96  1  0
 94 98  1  0
 94 93  1  0
 95 94  2  0
 98 97  1  0
100 98  1  0
100101  1  0
100 99  1  0
M  ISO  4  13 100  21 100  60 101  61 101
M  END
>  <TORSDO>  (40) 
F 25

>  <SCORE>  (40) 
-12.326

>  <name>  (40) 
39

>  <ligand_id>  (40) 
39

>  <original_smiles>  (40) 
[H]c1c(C([H])([H])C([H])([H])[H])nc(C([H])([H])C([H])([H])N([H])C(=O)N2C([H])([H])C([H])([H])C([H])([H])C([H])(n3nc(-c4c([H])c([H])c(Oc5c([H])c([H])c(F)c([H])c5F)c([H])c4[H])c(C(=O)N([H])[H])c3N([H])[H])C2([H])[H])nc1C(C([H])([H])[H])(C([H])([H])C([H])([H])[H])C([H])(C([H])([H])[H])[N+]([H])(C([H])([H])[H])C([H])([H])C([H])(Oc1c([H])c([H])c2c(c1[H])C([H])([H])N(C(=O)C([H])(N([H])C(=O)C([H])(N([H])C([H])([H])[H])C([H])([H])[H])C(C([H])([H])[H])(C([H])([H])[H])C([H])([H])[H])C([H])(C(=O)N([H])C1([H])c3c([H])c([H])c([H])c([H])c3C([H])([H])C([H])([H])C1([H])[H])C2([H])[H])C([H])([H])[H]

>  <smiles>  (40) 
[H]c1c(C([H])([H])C([H])([H])[H])nc(C([H])([H])C([H])([H])N([H])C(=O)N2C([H])([H])C([H])([H])C([H])([H])C([H])(n3nc(-c4c([H])c([H])c(Oc5c([H])c([H])c(F)c([H])c5F)c([H])c4[H])c(C(=O)N([H])[H])c3N([H])[H])C2([H])[H])nc1C(C([H])([H])[H])(C([H])([H])C([H])([H])[H])C([H])(C([H])([H])[H])[N+]([H])(C([H])([H])[H])C([H])([H])C([H])(Oc1c([H])c([H])c2c(c1[H])C([H])([H])N(C(=O)C([H])(N([H])C(=O)C([H])(N([H])C([H])([H])[H])C([H])([H])[H])C(C([H])([H])[H])(C([H])([H])[H])C([H])([H])[H])C([H])(C(=O)N([H])C1([H])c3c([H])c([H])c([H])c([H])c3C([H])([H])C([H])([H])C1([H])[H])C2([H])[H])C([H])([H])[H]

$$$$
40:0:0
     RDKit          3D

 88 96  0  0  1  0  0  0  0  0999 V2000
  -29.0060  -22.3750   20.8350 C   0  0  0  0  0  3  0  0  0  0  0  0
  -28.9640  -23.8460   20.1460 C   0  0  0  0  0  3  0  0  0  0  0  0
  -28.2510  -25.1150   20.8530 C   0  0  0  0  0  2  0  0  0  0  0  0
  -28.4170  -26.5040   20.3140 O   0  0  0  0  0  0  0  0  0  0  0  0
  -24.5790  -31.9100   23.2340 C   0  0  0  0  0  0  0  0  0  0  0  0
  -27.2970  -27.3570   20.2650 C   0  0  0  0  0  0  0  0  0  0  0  0
  -23.4260  -30.5070   21.5600 C   0  0  0  0  0  3  0  0  0  0  0  0
  -24.9250  -28.9640   20.1700 C   0  0  0  0  0  0  0  0  0  0  0  0
  -25.9660  -30.8430   21.4380 C   0  0  0  0  0  2  0  0  0  0  0  0
  -26.0750  -29.4630   20.7960 C   0  0  0  0  0  0  0  0  0  0  0  0
  -27.2670  -28.6740   20.8270 C   0  0  0  0  0  3  0  0  0  0  0  0
  -26.1290  -26.9150   19.6100 C   0  0  0  0  0  3  0  0  0  0  0  0
  -24.9570  -27.6970   19.5630 C   0  0  0  0  0  3  0  0  0  0  0  0
  -23.6800  -29.8320   20.1860 C   0  0  0  0  0  2  0  0  0  0  0  0
  -24.6750  -31.1040   22.1360 N   0  0  0  0  0  0  0  0  0  0  0  0
  -23.4810  -32.1810   23.7400 O   0  0  0  0  0  0  0  0  0  0  0  0
  -22.7440  -29.4880   22.5040 C   0  0  0  0  0  0  0  0  0  0  0  0
  -21.4250  -29.2980   22.3370 N   0  0  0  0  0  0  0  0  0  0  0  0
  -23.4030  -28.8700   23.3440 O   0  0  0  0  0  0  0  0  0  0  0  0
  -20.9520  -29.8460   21.6320 H   0  0  0  0  0  0  0  0  0  0  0  0
  -18.0440  -28.0790   22.7450 C   0  0  0  0  0  0  0  0  0  0  0  0
  -20.5920  -28.3560   23.0860 C   0  0  0  0  0  3  0  0  0  0  0  0
  -20.7220  -26.9260   22.5130 C   0  0  0  0  0  2  0  0  0  0  0  0
  -19.6510  -26.5950   21.4690 C   0  0  0  0  0  2  0  0  0  0  0  0
  -18.2500  -26.7310   22.0730 C   0  0  0  0  0  2  0  0  0  0  0  0
  -19.1450  -28.8490   23.2060 C   0  0  0  0  0  0  0  0  0  0  0  0
  -18.9000  -30.1090   23.7930 C   0  0  0  0  0  3  0  0  0  0  0  0
  -17.5870  -30.6000   23.9240 C   0  0  0  0  0  3  0  0  0  0  0  0
  -16.5010  -29.8270   23.4800 C   0  0  0  0  0  3  0  0  0  0  0  0
  -16.7290  -28.5680   22.8950 C   0  0  0  0  0  3  0  0  0  0  0  0
  -25.8410  -32.5490   23.8910 C   0  0  0  0  0  3  0  0  0  0  0  0
  -25.5250  -33.9510   24.1990 N   0  0  0  0  0  0  0  0  0  0  0  0
  -25.8840  -34.9980   23.4440 C   0  0  0  0  0  0  0  0  0  0  0  0
  -26.5860  -34.8840   22.4350 O   0  0  0  0  0  0  0  0  0  0  0  0
  -24.9050  -34.1130   24.9790 H   0  0  0  0  0  0  0  0  0  0  0  0
  -24.1770  -36.7930   23.0150 C   0  0  0  0  0  1  0  0  0  0  0  0
  -25.3860  -36.3900   23.8730 C   0  0  0  0  0  3  0  0  0  0  0  0
  -27.4860  -37.2790   24.7820 C   0  0  0  0  0  1  0  0  0  0  0  0
  -26.4260  -37.4390   23.7910 N   0  0  0  0  0  0  0  0  0  0  0  0
  -26.0180  -38.3610   23.9130 H   0  0  0  0  0  0  0  0  0  0  0  0
  -26.3170  -31.7880   25.1880 C   0  0  1  0  0  0  0  0  0  0  0  0
  -25.1920  -31.5570   26.2230 C   0  0  0  0  0  1  0  0  0  0  0  0
  -26.9110  -30.4080   24.8240 C   0  0  0  0  0  1  0  0  0  0  0  0
  -27.4460  -32.5880   25.8810 C   0  0  0  0  0  1  0  0  0  0  0  0
  -29.5180  -21.2740   19.9810 O   0  0  0  0  0  0  0  0  0  0  0  0
  -29.5310  -18.7910   19.6620 C   0  0  0  0  0  2  0  0  0  0  0  0
  -30.3910  -18.1810   21.5270 C   0  0  0  0  0  2  0  0  0  0  0  0
  -29.7410  -19.9560   20.3990 C   0  0  0  0  0  0  0  0  0  0  0  0
  -30.3110  -19.5340   21.6060 N   0  0  0  0  0  0  0  0  0  0  0  0
  -29.9180  -17.6210   20.3910 N   0  0  0  0  0  0  0  0  0  0  0  0
  -29.1210  -16.1400   18.5730 C   0  0  0  0  0  1  0  0  0  0  0  0
  -29.6120  -16.1510   20.0450 C   0  0  0  0  0  3  0  0  0  0  0  0
  -30.5940  -14.8670   20.2290 C   0  0  0  0  0  0  0  0  0  0  0  0
  -30.4890  -12.5520   19.2880 C   0  0  0  0  0  2  0  0  0  0  0  0
  -29.5390  -12.5770   18.0650 C   0  0  0  0  0  2  0  0  0  0  0  0
  -28.0530  -12.4540   18.4890 C   0  0  0  0  0  2  0  0  0  0  0  0
  -27.6830  -13.3030   19.7370 C   0  0  0  0  0  3  0  0  0  0  0  0
  -28.7620  -13.2170   20.8370 C   0  0  0  0  0  2  0  0  0  0  0  0
  -30.0530  -13.5950   20.2440 N   0  0  0  0  0  0  0  0  0  0  0  0
  -31.8040  -15.0020   20.0150 O   0  0  0  0  0  0  0  0  0  0  0  0
  -25.3060  -13.9000   20.4880 C   0  0  0  0  0  0  0  0  0  0  0  0
  -24.2440  -13.1230   20.8650 C   0  0  0  0  0  0  0  0  0  0  0  0
  -24.7130  -11.7740   20.8250 C   0  0  0  0  0  0  0  0  0  0  0  0
  -26.3480  -13.0170   20.2410 N   0  0  0  0  0  0  0  0  0  0  0  0
  -25.9990  -11.7360   20.5070 N   0  0  0  0  0  0  0  0  0  0  0  0
  -23.9940  -10.5110   21.0140 C   0  0  0  0  0  0  0  0  0  0  0  0
  -24.4260   -9.5560   21.9590 C   0  0  0  0  0  3  0  0  0  0  0  0
  -23.7110   -8.3520   22.1340 C   0  0  0  0  0  3  0  0  0  0  0  0
  -22.5500   -8.1000   21.3660 C   0  0  0  0  0  0  0  0  0  0  0  0
  -22.1380   -9.0460   20.4100 C   0  0  0  0  0  3  0  0  0  0  0  0
  -22.8540  -10.2410   20.2320 C   0  0  0  0  0  3  0  0  0  0  0  0
  -21.8020   -6.9510   21.4540 O   0  0  0  0  0  0  0  0  0  0  0  0
  -21.7270   -6.2300   22.6190 C   0  0  0  0  0  0  0  0  0  0  0  0
  -21.2260   -6.7920   23.8130 C   0  0  0  0  0  3  0  0  0  0  0  0
  -21.1020   -5.9940   24.9670 C   0  0  0  0  0  3  0  0  0  0  0  0
  -21.4670   -4.6350   24.9290 C   0  0  0  0  0  0  0  0  0  0  0  0
  -21.9630   -4.0730   23.7390 C   0  0  0  0  0  3  0  0  0  0  0  0
  -22.0900   -4.8680   22.5870 C   0  0  0  0  0  0  0  0  0  0  0  0
  -22.5480   -4.3170   21.4380 F   0  0  0  0  0  0  0  0  0  0  0  0
  -21.3390   -3.8660   26.0360 F   0  0  0  0  0  0  0  0  0  0  0  0
  -22.8500  -13.5990   21.1490 C   0  0  0  0  0  0  0  0  0  0  0  0
  -22.1320  -12.8940   22.0160 N   0  0  0  0  0  0  0  0  0  0  0  0
  -22.4070  -14.6270   20.6400 O   0  0  0  0  0  0  0  0  0  0  0  0
  -22.5070  -12.0640   22.4490 H   0  0  0  0  0  0  0  0  0  0  0  0
  -21.1950  -13.1890   22.2500 H   0  0  0  0  0  0  0  0  0  0  0  0
  -25.4610  -15.2720   20.3140 N   0  0  0  0  0  0  0  0  0  0  0  0
  -24.6900  -15.9200   20.4300 H   0  0  0  0  0  0  0  0  0  0  0  0
  -26.3000  -15.7160   19.9630 H   0  0  0  0  0  0  0  0  0  0  0  0
  2  1  2  0
  2  3  1  0
  4  3  1  0
  5 16  2  0
  6  4  1  0
  6 11  1  0
  7 15  1  0
  7 17  1  0
  8 14  1  0
  8 10  1  0
  9 15  1  0
 10 11  2  0
 10  9  1  0
 12  6  2  0
 13 12  1  0
 13  8  2  0
 14  7  1  0
 15  5  1  0
 17 19  2  0
 18 17  1  0
 20 18  1  0
 21 30  2  0
 21 26  1  0
 22 18  1  0
 22 26  1  0
 23 22  1  0
 24 25  1  0
 24 23  1  0
 25 21  1  0
 26 27  2  0
 27 28  1  0
 29 28  2  0
 30 29  1  0
 31  5  1  0
 31 32  1  0
 31 41  1  0
 32 35  1  0
 33 37  1  0
 33 32  1  0
 34 33  2  0
 37 36  1  0
 39 37  1  0
 39 40  1  0
 39 38  1  0
 41 44  1  1
 41 42  1  0
 43 41  1  0
 45 48  1  0
 45  1  1  0
 46 50  1  0
 46 48  1  0
 47 49  1  0
 48 49  2  0
 50 47  1  0
 52 51  1  0
 52 53  1  0
 52 50  1  0
 53 59  1  0
 54 59  1  0
 55 56  1  0
 55 54  1  0
 57 56  1  0
 57 64  1  0
 57 58  1  0
 59 58  1  0
 60 53  2  0
 61 62  2  0
 62 81  1  0
 63 62  1  0
 63 66  1  0
 64 61  1  0
 64 65  1  0
 65 63  2  0
 66 67  1  0
 67 68  2  0
 69 72  1  0
 69 68  1  0
 70 69  2  0
 71 70  1  0
 71 66  2  0
 72 73  1  0
 73 74  1  0
 74 75  2  0
 76 75  1  0
 76 80  1  0
 77 76  2  0
 78 73  2  0
 78 77  1  0
 79 78  1  0
 81 82  1  0
 82 85  1  0
 82 84  1  0
 83 81  2  0
 86 87  1  0
 86 61  1  0
 88 86  1  0
M  ISO  4   3 101   4 101  52 100  53 100
M  END
>  <TORSDO>  (41) 
F 21

>  <SCORE>  (41) 
-13.000

>  <name>  (41) 
40

>  <ligand_id>  (41) 
40

>  <original_smiles>  (41) 
[H]c1c([H])c([H])c2c(c1[H])C([H])([H])C([H])([H])C([H])([H])C2([H])N([H])C(=O)C1([H])N(C(=O)C([H])(N([H])C(=O)C([H])(N([H])C([H])([H])[H])C([H])([H])[H])C(C([H])([H])[H])(C([H])([H])[H])C([H])([H])[H])C([H])([H])c2c([H])c(OC([H])([H])C([H])([H])C([H])([H])Oc3nc([H])n(C([H])(C(=O)N4C([H])([H])C([H])([H])C([H])([H])C([H])(n5nc(-c6c([H])c([H])c(Oc7c([H])c([H])c(F)c([H])c7F)c([H])c6[H])c(C(=O)N([H])[H])c5N([H])[H])C4([H])[H])C([H])([H])[H])c3[H])c([H])c([H])c2C1([H])[H]

>  <smiles>  (41) 
[H]c1c([H])c([H])c2c(c1[H])C([H])([H])C([H])([H])C([H])([H])C2([H])N([H])C(=O)C1([H])N(C(=O)C([H])(N([H])C(=O)C([H])(N([H])C([H])([H])[H])C([H])([H])[H])C(C([H])([H])[H])(C([H])([H])[H])C([H])([H])[H])C([H])([H])c2c([H])c(OC([H])([H])C([H])([H])C([H])([H])Oc3nc([H])n(C([H])(C(=O)N4C([H])([H])C([H])([H])C([H])([H])C([H])(n5nc(-c6c([H])c([H])c(Oc7c([H])c([H])c(F)c([H])c7F)c([H])c6[H])c(C(=O)N([H])[H])c5N([H])[H])C4([H])[H])C([H])([H])[H])c3[H])c([H])c([H])c2C1([H])[H]

$$$$
41:0:0
     RDKit          3D

 92100  0  0  1  0  0  0  0  0999 V2000
  -27.3540  -22.3760   21.4800 C   0  0  0  0  0  3  0  0  0  0  0  0
  -28.3640  -22.6520   20.5890 C   0  0  0  0  0  0  0  0  0  0  0  0
  -28.2070  -24.1290   20.4020 C   0  0  0  0  0  0  0  0  0  0  0  0
  -25.5360  -23.7210   22.6520 C   0  0  0  0  0  1  0  0  0  0  0  0
  -27.2140  -24.5860   21.1580 N   0  0  0  0  0  0  0  0  0  0  0  0
  -26.6810  -23.5320   21.7840 N   0  0  0  0  0  0  0  0  0  0  0  0
  -29.2390  -21.4550   19.9960 C   0  0  0  0  0  2  0  0  0  0  0  0
  -30.8480  -20.5980   21.6910 C   0  0  0  0  0  1  0  0  0  0  0  0
  -29.6210  -20.2750   20.9270 N   0  0  2  0  0  4  0  0  0  0  0  0
  -28.8820  -20.2460   21.6110 H   0  0  0  0  0  0  0  0  0  0  0  0
  -29.6460  -18.8280   20.3710 C   0  0  0  0  0  3  0  0  0  0  0  0
  -30.2410  -17.6340   21.3090 C   0  0  0  0  0  3  0  0  0  0  0  0
  -30.8040  -15.0610   20.9340 C   0  0  0  0  0  0  0  0  0  0  0  0
  -30.7570  -12.7700   19.9390 C   0  0  0  0  0  2  0  0  0  0  0  0
  -29.9200  -12.8060   18.6410 C   0  0  0  0  0  2  0  0  0  0  0  0
  -28.4230  -12.6120   18.9540 C   0  0  0  0  0  2  0  0  0  0  0  0
  -27.9300  -13.5120   20.1160 C   0  0  0  0  0  3  0  0  0  0  0  0
  -28.8890  -13.4510   21.3240 C   0  0  0  0  0  2  0  0  0  0  0  0
  -30.2220  -13.8210   20.8320 N   0  0  0  0  0  0  0  0  0  0  0  0
  -32.0180  -15.1970   20.7620 O   0  0  0  0  0  0  0  0  0  0  0  0
  -29.9610  -16.1560   21.0280 N   0  0  0  0  0  0  0  0  0  0  0  0
  -28.9840  -15.9080   21.0520 H   0  0  0  0  0  0  0  0  0  0  0  0
  -25.4880  -14.0830   20.6520 C   0  0  0  0  0  0  0  0  0  0  0  0
  -24.3990  -13.3000   20.9230 C   0  0  0  0  0  0  0  0  0  0  0  0
  -24.8710  -11.9510   20.9120 C   0  0  0  0  0  0  0  0  0  0  0  0
  -26.5520  -13.2110   20.4910 N   0  0  0  0  0  0  0  0  0  0  0  0
  -26.1840  -11.9230   20.7100 N   0  0  0  0  0  0  0  0  0  0  0  0
  -24.1400  -10.6820   21.0220 C   0  0  0  0  0  0  0  0  0  0  0  0
  -24.5190   -9.6880   21.9510 C   0  0  0  0  0  3  0  0  0  0  0  0
  -23.7850   -8.4850   22.0510 C   0  0  0  0  0  3  0  0  0  0  0  0
  -22.6600   -8.2680   21.2190 C   0  0  0  0  0  0  0  0  0  0  0  0
  -22.3010   -9.2520   20.2810 C   0  0  0  0  0  3  0  0  0  0  0  0
  -23.0340  -10.4460   20.1790 C   0  0  0  0  0  3  0  0  0  0  0  0
  -21.9060   -7.1200   21.2270 O   0  0  0  0  0  0  0  0  0  0  0  0
  -21.8050   -6.3330   22.3470 C   0  0  0  0  0  0  0  0  0  0  0  0
  -21.2950   -6.8330   23.5650 C   0  0  0  0  0  3  0  0  0  0  0  0
  -21.1450   -5.9750   24.6720 C   0  0  0  0  0  3  0  0  0  0  0  0
  -21.4930   -4.6160   24.5620 C   0  0  0  0  0  0  0  0  0  0  0  0
  -21.9910   -4.1130   23.3480 C   0  0  0  0  0  3  0  0  0  0  0  0
  -22.1450   -4.9700   22.2430 C   0  0  0  0  0  0  0  0  0  0  0  0
  -22.6100   -4.4760   21.0700 F   0  0  0  0  0  0  0  0  0  0  0  0
  -21.3400   -3.7890   25.6230 F   0  0  0  0  0  0  0  0  0  0  0  0
  -22.9820  -13.7660   21.0830 C   0  0  0  0  0  0  0  0  0  0  0  0
  -22.1900  -13.0580   21.8810 N   0  0  0  0  0  0  0  0  0  0  0  0
  -22.5830  -14.7960   20.5390 O   0  0  0  0  0  0  0  0  0  0  0  0
  -22.5200  -12.2220   22.3400 H   0  0  0  0  0  0  0  0  0  0  0  0
  -21.2370  -13.3570   22.0340 H   0  0  0  0  0  0  0  0  0  0  0  0
  -25.6590  -15.4570   20.5030 N   0  0  0  0  0  0  0  0  0  0  0  0
  -24.8790  -16.1040   20.5440 H   0  0  0  0  0  0  0  0  0  0  0  0
  -26.5130  -15.8930   20.1840 H   0  0  0  0  0  0  0  0  0  0  0  0
  -28.8330  -25.2790   19.5240 C   0  0  0  0  0  2  0  0  0  0  0  0
  -28.7360  -26.7140   19.9770 O   0  0  0  0  0  0  0  0  0  0  0  0
  -24.7260  -31.7560   23.2750 C   0  0  0  0  0  0  0  0  0  0  0  0
  -27.5640  -27.5000   19.9560 C   0  0  0  0  0  0  0  0  0  0  0  0
  -23.6050  -30.4300   21.5210 C   0  0  0  0  0  3  0  0  0  0  0  0
  -25.1370  -29.0330   20.0160 C   0  0  0  0  0  0  0  0  0  0  0  0
  -26.1340  -30.8510   21.4040 C   0  0  0  0  0  2  0  0  0  0  0  0
  -26.2770  -29.5230   20.6630 C   0  0  0  0  0  0  0  0  0  0  0  0
  -27.4920  -28.7720   20.6170 C   0  0  0  0  0  3  0  0  0  0  0  0
  -26.3940  -27.0590   19.3010 C   0  0  0  0  0  3  0  0  0  0  0  0
  -25.2000  -27.8110   19.3250 C   0  0  0  0  0  3  0  0  0  0  0  0
  -23.8650  -29.8580   20.1020 C   0  0  0  0  0  2  0  0  0  0  0  0
  -24.8400  -31.0280   22.1250 N   0  0  0  0  0  0  0  0  0  0  0  0
  -23.6250  -31.9550   23.8080 O   0  0  0  0  0  0  0  0  0  0  0  0
  -22.9690  -29.3270   22.4000 C   0  0  0  0  0  0  0  0  0  0  0  0
  -21.6460  -29.1290   22.2570 N   0  0  0  0  0  0  0  0  0  0  0  0
  -23.6610  -28.6540   23.1680 O   0  0  0  0  0  0  0  0  0  0  0  0
  -21.1480  -29.7300   21.6160 H   0  0  0  0  0  0  0  0  0  0  0  0
  -18.2850  -27.8680   22.7220 C   0  0  0  0  0  0  0  0  0  0  0  0
  -20.8500  -28.1160   22.9500 C   0  0  0  0  0  3  0  0  0  0  0  0
  -20.9400  -26.7500   22.2310 C   0  0  0  0  0  2  0  0  0  0  0  0
  -19.8110  -26.5240   21.2180 C   0  0  0  0  0  2  0  0  0  0  0  0
  -18.4470  -26.5950   21.9080 C   0  0  0  0  0  2  0  0  0  0  0  0
  -19.4120  -28.5910   23.1960 C   0  0  0  0  0  0  0  0  0  0  0  0
  -19.2060  -29.7850   23.9190 C   0  0  0  0  0  3  0  0  0  0  0  0
  -17.9050  -30.2600   24.1700 C   0  0  0  0  0  3  0  0  0  0  0  0
  -16.7920  -29.5340   23.7100 C   0  0  0  0  0  3  0  0  0  0  0  0
  -16.9830  -28.3380   22.9930 C   0  0  0  0  0  3  0  0  0  0  0  0
  -25.9720  -32.3950   23.9630 C   0  0  0  0  0  3  0  0  0  0  0  0
  -25.6190  -33.7740   24.3320 N   0  0  0  0  0  0  0  0  0  0  0  0
  -25.9620  -34.8640   23.6300 C   0  0  0  0  0  0  0  0  0  0  0  0
  -26.6790  -34.8130   22.6280 O   0  0  0  0  0  0  0  0  0  0  0  0
  -24.9930  -33.8840   25.1150 H   0  0  0  0  0  0  0  0  0  0  0  0
  -24.2180  -36.6400   23.2670 C   0  0  0  0  0  1  0  0  0  0  0  0
  -25.4280  -36.2250   24.1180 C   0  0  0  0  0  3  0  0  0  0  0  0
  -27.5020  -37.1190   25.0830 C   0  0  0  0  0  1  0  0  0  0  0  0
  -26.4440  -37.3000   24.0920 N   0  0  0  0  0  0  0  0  0  0  0  0
  -26.0130  -38.2070   24.2510 H   0  0  0  0  0  0  0  0  0  0  0  0
  -26.4590  -31.5910   25.2320 C   0  0  1  0  0  0  0  0  0  0  0  0
  -25.3380  -31.3010   26.2560 C   0  0  0  0  0  1  0  0  0  0  0  0
  -27.0780  -30.2360   24.8160 C   0  0  0  0  0  1  0  0  0  0  0  0
  -27.5720  -32.3850   25.9560 C   0  0  0  0  0  1  0  0  0  0  0  0
  1  6  1  0
  2  1  2  0
  3  2  1  0
  3  5  2  0
  5  6  1  0
  6  4  1  0
  7  2  1  0
  7  9  1  0
  9 10  1  1
  9  8  1  0
 11  9  1  0
 11 12  2  0
 13 21  1  0
 14 19  1  0
 15 16  1  0
 15 14  1  0
 17 16  1  0
 17 26  1  0
 17 18  1  0
 19 13  1  0
 19 18  1  0
 20 13  2  0
 21 22  1  0
 21 12  1  0
 23 24  2  0
 24 43  1  0
 25 24  1  0
 25 28  1  0
 26 23  1  0
 26 27  1  0
 27 25  2  0
 28 29  1  0
 29 30  2  0
 31 34  1  0
 31 30  1  0
 32 31  2  0
 33 32  1  0
 33 28  2  0
 34 35  1  0
 35 36  1  0
 36 37  2  0
 38 37  1  0
 38 42  1  0
 39 38  2  0
 40 35  2  0
 40 39  1  0
 41 40  1  0
 43 44  1  0
 44 47  1  0
 44 46  1  0
 45 43  2  0
 48 49  1  0
 48 23  1  0
 50 48  1  0
 51 52  1  0
 51  3  1  0
 53 64  2  0
 54 52  1  0
 54 59  1  0
 55 63  1  0
 55 65  1  0
 56 62  1  0
 56 58  1  0
 57 63  1  0
 58 57  1  0
 59 58  2  0
 60 61  1  0
 60 54  2  0
 61 56  2  0
 62 55  1  0
 63 53  1  0
 65 67  2  0
 66 65  1  0
 68 66  1  0
 69 78  2  0
 69 74  1  0
 70 66  1  0
 70 74  1  0
 71 70  1  0
 72 73  1  0
 72 71  1  0
 73 69  1  0
 74 75  2  0
 75 76  1  0
 77 76  2  0
 78 77  1  0
 79 53  1  0
 79 80  1  0
 79 89  1  0
 80 83  1  0
 81 85  1  0
 81 80  1  0
 82 81  2  0
 85 84  1  0
 87 85  1  0
 87 88  1  0
 87 86  1  0
 89 92  1  1
 89 90  1  0
 91 89  1  0
M  ISO  4  13 100  21 100  51 101  52 101
M  END
>  <TORSDO>  (42) 
F 21

>  <SCORE>  (42) 
-12.610

>  <name>  (42) 
41

>  <ligand_id>  (42) 
41

>  <original_smiles>  (42) 
[H]c1c([H])c([H])c2c(c1[H])C([H])([H])C([H])([H])C([H])([H])C2([H])N([H])C(=O)C1([H])N(C(=O)C([H])(N([H])C(=O)C([H])(N([H])C([H])([H])[H])C([H])([H])[H])C(C([H])([H])[H])(C([H])([H])[H])C([H])([H])[H])C([H])([H])c2c([H])c(OC([H])([H])c3nn(C([H])([H])[H])c([H])c3C([H])([H])[N+]([H])(C([H])([H])[H])C([H])([H])C([H])([H])N([H])C(=O)N3C([H])([H])C([H])([H])C([H])([H])C([H])(n4nc(-c5c([H])c([H])c(Oc6c([H])c([H])c(F)c([H])c6F)c([H])c5[H])c(C(=O)N([H])[H])c4N([H])[H])C3([H])[H])c([H])c([H])c2C1([H])[H]

>  <smiles>  (42) 
[H]c1c([H])c([H])c2c(c1[H])C([H])([H])C([H])([H])C([H])([H])C2([H])N([H])C(=O)C1([H])N(C(=O)C([H])(N([H])C(=O)C([H])(N([H])C([H])([H])[H])C([H])([H])[H])C(C([H])([H])[H])(C([H])([H])[H])C([H])([H])[H])C([H])([H])c2c([H])c(OC([H])([H])c3nn(C([H])([H])[H])c([H])c3C([H])([H])[N+]([H])(C([H])([H])[H])C([H])([H])C([H])([H])N([H])C(=O)N3C([H])([H])C([H])([H])C([H])([H])C([H])(n4nc(-c5c([H])c([H])c(Oc6c([H])c([H])c(F)c([H])c6F)c([H])c5[H])c(C(=O)N([H])[H])c4N([H])[H])C3([H])[H])c([H])c([H])c2C1([H])[H]

$$$$
42:0:0
     RDKit          3D

 92100  0  0  1  0  0  0  0  0999 V2000
  -30.2710  -20.3890   17.9420 C   0  0  0  0  0  3  0  0  0  0  0  0
  -30.0130  -21.7070   17.4850 C   0  0  0  0  0  3  0  0  0  0  0  0
  -29.9930  -20.4050   19.2840 C   0  0  0  0  0  0  0  0  0  0  0  0
  -29.6480  -22.5080   18.4660 N   0  0  0  0  0  0  0  0  0  0  0  0
  -29.6770  -21.7480   19.5860 N   0  0  0  0  0  0  0  0  0  0  0  0
  -30.1180  -19.2580   20.2920 C   0  0  0  0  0  2  0  0  0  0  0  0
  -28.4490  -17.4170   20.8550 C   0  0  0  0  0  1  0  0  0  0  0  0
  -29.1600  -17.6170   18.4680 C   0  0  0  0  0  1  0  0  0  0  0  0
  -29.6420  -17.7730   19.9320 C   0  0  1  0  0  0  0  0  0  0  0  0
  -30.7800  -16.7160   20.1930 C   0  0  0  0  0  2  0  0  0  0  0  0
  -30.9890  -14.2100   19.9360 C   0  0  0  0  0  0  0  0  0  0  0  0
  -30.6150  -11.9550   18.9990 C   0  0  0  0  0  2  0  0  0  0  0  0
  -29.6140  -12.0720   17.8320 C   0  0  0  0  0  2  0  0  0  0  0  0
  -28.1650  -11.9740   18.3480 C   0  0  0  0  0  2  0  0  0  0  0  0
  -27.8960  -12.9060   19.5580 C   0  0  0  0  0  3  0  0  0  0  0  0
  -29.0130  -12.7900   20.6210 C   0  0  0  0  0  2  0  0  0  0  0  0
  -30.3020  -13.0330   19.9530 N   0  0  0  0  0  0  0  0  0  0  0  0
  -32.1090  -14.3140   19.4280 O   0  0  0  0  0  0  0  0  0  0  0  0
  -30.3170  -15.3110   20.3380 N   0  0  0  0  0  0  0  0  0  0  0  0
  -29.3980  -15.1650   20.7270 H   0  0  0  0  0  0  0  0  0  0  0  0
  -25.5970  -13.5880   20.4910 C   0  0  0  0  0  0  0  0  0  0  0  0
  -24.5230  -12.8510   20.9100 C   0  0  0  0  0  0  0  0  0  0  0  0
  -24.9100  -11.4810   20.7830 C   0  0  0  0  0  0  0  0  0  0  0  0
  -26.5740  -12.6710   20.1350 N   0  0  0  0  0  0  0  0  0  0  0  0
  -26.1680  -11.3960   20.3700 N   0  0  0  0  0  0  0  0  0  0  0  0
  -24.1370  -10.2480   20.9770 C   0  0  0  0  0  0  0  0  0  0  0  0
  -24.5310   -9.2670   21.9140 C   0  0  0  0  0  3  0  0  0  0  0  0
  -23.7620   -8.0990   22.0930 C   0  0  0  0  0  3  0  0  0  0  0  0
  -22.5820   -7.9020   21.3380 C   0  0  0  0  0  0  0  0  0  0  0  0
  -22.2070   -8.8690   20.3900 C   0  0  0  0  0  3  0  0  0  0  0  0
  -22.9770  -10.0310   20.2070 C   0  0  0  0  0  3  0  0  0  0  0  0
  -21.7850   -6.7870   21.4290 O   0  0  0  0  0  0  0  0  0  0  0  0
  -21.6400   -6.0990   22.6080 C   0  0  0  0  0  0  0  0  0  0  0  0
  -21.0580   -6.6910   23.7490 C   0  0  0  0  0  3  0  0  0  0  0  0
  -20.8630   -5.9270   24.9170 C   0  0  0  0  0  3  0  0  0  0  0  0
  -21.2410   -4.5700   24.9430 C   0  0  0  0  0  0  0  0  0  0  0  0
  -21.8150   -3.9780   23.8050 C   0  0  0  0  0  3  0  0  0  0  0  0
  -22.0120   -4.7400   22.6400 C   0  0  0  0  0  0  0  0  0  0  0  0
  -22.5460   -4.1580   21.5390 F   0  0  0  0  0  0  0  0  0  0  0  0
  -21.0470   -3.8330   26.0610 F   0  0  0  0  0  0  0  0  0  0  0  0
  -23.1770  -13.3810   21.3110 C   0  0  0  0  0  0  0  0  0  0  0  0
  -22.4810  -12.6810   22.2030 N   0  0  0  0  0  0  0  0  0  0  0  0
  -22.7520  -14.4470   20.8710 O   0  0  0  0  0  0  0  0  0  0  0  0
  -22.8390  -11.8180   22.5830 H   0  0  0  0  0  0  0  0  0  0  0  0
  -21.5790  -13.0150   22.5100 H   0  0  0  0  0  0  0  0  0  0  0  0
  -25.8160  -14.9570   20.3620 N   0  0  0  0  0  0  0  0  0  0  0  0
  -25.0900  -15.6360   20.5620 H   0  0  0  0  0  0  0  0  0  0  0  0
  -26.6530  -15.3750   19.9760 H   0  0  0  0  0  0  0  0  0  0  0  0
  -29.3610  -22.4090   20.8660 C   0  0  0  0  0  2  0  0  0  0  0  0
  -29.5030  -23.9820   20.9290 C   0  0  0  0  0  2  0  0  0  0  0  0
  -28.3470  -24.8400   20.3330 C   0  0  0  0  0  2  0  0  0  0  0  0
  -28.5070  -26.2740   20.5320 O   0  0  0  0  0  0  0  0  0  0  0  0
  -24.6860  -31.6750   23.2510 C   0  0  0  0  0  0  0  0  0  0  0  0
  -27.3720  -27.0670   20.4140 C   0  0  0  0  0  0  0  0  0  0  0  0
  -23.5270  -30.2450   21.6020 C   0  0  0  0  0  3  0  0  0  0  0  0
  -25.0110  -28.6460   20.2760 C   0  0  0  0  0  0  0  0  0  0  0  0
  -26.0670  -30.5520   21.4970 C   0  0  0  0  0  2  0  0  0  0  0  0
  -26.1570  -29.1590   20.8980 C   0  0  0  0  0  0  0  0  0  0  0  0
  -27.3400  -28.3790   20.9590 C   0  0  0  0  0  3  0  0  0  0  0  0
  -26.2070  -26.5910   19.7680 C   0  0  0  0  0  3  0  0  0  0  0  0
  -25.0340  -27.3640   19.7080 C   0  0  0  0  0  3  0  0  0  0  0  0
  -23.7830  -29.5290   20.2500 C   0  0  0  0  0  2  0  0  0  0  0  0
  -24.7760  -30.8420   22.1740 N   0  0  0  0  0  0  0  0  0  0  0  0
  -23.5870  -31.9770   23.7380 O   0  0  0  0  0  0  0  0  0  0  0  0
  -22.8220  -29.2600   22.5620 C   0  0  0  0  0  0  0  0  0  0  0  0
  -21.4980  -29.1030   22.3990 N   0  0  0  0  0  0  0  0  0  0  0  0
  -23.4650  -28.6390   23.4130 O   0  0  0  0  0  0  0  0  0  0  0  0
  -21.0390  -29.6600   21.6910 H   0  0  0  0  0  0  0  0  0  0  0  0
  -18.0780  -28.0220   22.8530 C   0  0  0  0  0  0  0  0  0  0  0  0
  -20.6390  -28.1990   23.1630 C   0  0  0  0  0  3  0  0  0  0  0  0
  -20.7010  -26.7590   22.6050 C   0  0  0  0  0  2  0  0  0  0  0  0
  -19.6060  -26.4630   21.5750 C   0  0  0  0  0  2  0  0  0  0  0  0
  -18.2200  -26.6610   22.1950 C   0  0  0  0  0  2  0  0  0  0  0  0
  -19.2140  -28.7510   23.2950 C   0  0  0  0  0  0  0  0  0  0  0  0
  -19.0280  -30.0260   23.8710 C   0  0  0  0  0  3  0  0  0  0  0  0
  -17.7390  -30.5740   24.0080 C   0  0  0  0  0  3  0  0  0  0  0  0
  -16.6170  -29.8430   23.5820 C   0  0  0  0  0  3  0  0  0  0  0  0
  -16.7870  -28.5680   23.0120 C   0  0  0  0  0  3  0  0  0  0  0  0
  -25.9530  -32.3070   23.9060 C   0  0  0  0  0  3  0  0  0  0  0  0
  -25.6330  -33.7000   24.2440 N   0  0  0  0  0  0  0  0  0  0  0  0
  -25.9470  -34.7590   23.4840 C   0  0  0  0  0  0  0  0  0  0  0  0
  -26.6100  -34.6630   22.4460 O   0  0  0  0  0  0  0  0  0  0  0  0
  -25.0470  -33.8480   25.0520 H   0  0  0  0  0  0  0  0  0  0  0  0
  -24.1840  -36.5180   23.1530 C   0  0  0  0  0  1  0  0  0  0  0  0
  -25.4440  -36.1390   23.9460 C   0  0  0  0  0  3  0  0  0  0  0  0
  -27.5700  -37.0670   24.7530 C   0  0  0  0  0  1  0  0  0  0  0  0
  -26.4580  -37.2090   23.8170 N   0  0  0  0  0  0  0  0  0  0  0  0
  -26.0380  -38.1230   23.9610 H   0  0  0  0  0  0  0  0  0  0  0  0
  -26.4490  -31.5270   25.1840 C   0  0  1  0  0  0  0  0  0  0  0  0
  -25.3340  -31.2550   26.2200 C   0  0  0  0  0  1  0  0  0  0  0  0
  -27.0680  -30.1670   24.7830 C   0  0  0  0  0  1  0  0  0  0  0  0
  -27.5710  -32.3280   25.8870 C   0  0  0  0  0  1  0  0  0  0  0  0
  1  3  2  0
  2  1  1  0
  2  4  2  0
  3  5  1  0
  3  6  1  0
  4  5  1  0
  5 49  1  0
  9  8  1  6
  9 10  1  0
  9  6  1  0
  9  7  1  0
 10 19  1  0
 11 17  1  0
 11 19  1  0
 12 17  1  0
 13 14  1  0
 13 12  1  0
 15 14  1  0
 15 24  1  0
 15 16  1  0
 17 16  1  0
 18 11  2  0
 19 20  1  0
 21 22  2  0
 22 41  1  0
 23 22  1  0
 23 26  1  0
 24 25  1  0
 24 21  1  0
 25 23  2  0
 26 27  1  0
 27 28  2  0
 29 32  1  0
 29 28  1  0
 30 29  2  0
 31 30  1  0
 31 26  2  0
 32 33  1  0
 33 38  2  0
 33 34  1  0
 34 35  2  0
 35 36  1  0
 36 40  1  0
 37 36  2  0
 38 37  1  0
 39 38  1  0
 41 42  1  0
 42 45  1  0
 42 44  1  0
 43 41  2  0
 46 21  1  0
 46 47  1  0
 48 46  1  0
 49 50  1  0
 51 52  1  0
 51 50  1  0
 53 64  2  0
 54 52  1  0
 54 59  1  0
 55 63  1  0
 55 65  1  0
 56 58  1  0
 57 63  1  0
 58 59  2  0
 58 57  1  0
 60 54  2  0
 61 60  1  0
 61 56  2  0
 62 56  1  0
 62 55  1  0
 63 53  1  0
 65 67  2  0
 66 65  1  0
 68 66  1  0
 69 78  2  0
 69 74  1  0
 70 66  1  0
 70 74  1  0
 71 70  1  0
 72 73  1  0
 72 71  1  0
 73 69  1  0
 74 75  2  0
 75 76  1  0
 77 76  2  0
 78 77  1  0
 79 53  1  0
 79 80  1  0
 79 89  1  0
 80 83  1  0
 81 85  1  0
 81 80  1  0
 82 81  2  0
 85 84  1  0
 87 85  1  0
 87 88  1  0
 87 86  1  0
 89 92  1  1
 89 90  1  0
 91 89  1  0
M  ISO  4  11 100  19 100  51 101  52 101
M  END
>  <TORSDO>  (43) 
F 22

>  <SCORE>  (43) 
-12.269

>  <name>  (43) 
42

>  <ligand_id>  (43) 
42

>  <original_smiles>  (43) 
[H]c1nn(C([H])([H])C([H])([H])C([H])([H])Oc2c([H])c([H])c3c(c2[H])C([H])([H])N(C(=O)C([H])(N([H])C(=O)C([H])(N([H])C([H])([H])[H])C([H])([H])[H])C(C([H])([H])[H])(C([H])([H])[H])C([H])([H])[H])C([H])(C(=O)N([H])C2([H])c4c([H])c([H])c([H])c([H])c4C([H])([H])C([H])([H])C2([H])[H])C3([H])[H])c(C([H])([H])C(C([H])([H])[H])(C([H])([H])[H])C([H])([H])N([H])C(=O)N2C([H])([H])C([H])([H])C([H])([H])C([H])(n3nc(-c4c([H])c([H])c(Oc5c([H])c([H])c(F)c([H])c5F)c([H])c4[H])c(C(=O)N([H])[H])c3N([H])[H])C2([H])[H])c1[H]

>  <smiles>  (43) 
[H]c1nn(C([H])([H])C([H])([H])C([H])([H])Oc2c([H])c([H])c3c(c2[H])C([H])([H])N(C(=O)C([H])(N([H])C(=O)C([H])(N([H])C([H])([H])[H])C([H])([H])[H])C(C([H])([H])[H])(C([H])([H])[H])C([H])([H])[H])C([H])(C(=O)N([H])C2([H])c4c([H])c([H])c([H])c([H])c4C([H])([H])C([H])([H])C2([H])[H])C3([H])[H])c(C([H])([H])C(C([H])([H])[H])(C([H])([H])[H])C([H])([H])N([H])C(=O)N2C([H])([H])C([H])([H])C([H])([H])C([H])(n3nc(-c4c([H])c([H])c(Oc5c([H])c([H])c(F)c([H])c5F)c([H])c4[H])c(C(=O)N([H])[H])c3N([H])[H])C2([H])[H])c1[H]

$$$$
43:0:0
     RDKit          3D

 89 97  0  0  1  0  0  0  0  0999 V2000
  -29.4040  -22.8880   21.9870 C   0  0  0  0  0  1  0  0  0  0  0  0
  -27.1590  -22.3450   21.0830 C   0  0  0  0  0  1  0  0  0  0  0  0
  -28.6280  -22.5910   20.6920 C   0  0  2  0  0  0  0  0  0  0  0  0
  -28.7240  -19.4700   20.3690 C   0  0  0  0  0  3  0  0  0  0  0  0
  -29.2150  -20.9290   20.2740 C   0  0  0  0  0  0  0  0  0  0  0  0
  -29.7100  -18.3950   20.1920 C   0  0  0  0  0  0  0  0  0  0  0  0
  -32.1810  -18.8600   19.7480 C   0  0  0  0  0  1  0  0  0  0  0  0
  -30.5250  -20.6440   20.0420 N   0  0  0  0  0  0  0  0  0  0  0  0
  -30.8090  -19.2510   20.0010 N   0  0  0  0  0  0  0  0  0  0  0  0
  -30.3730  -15.5610   20.1540 C   0  0  0  0  0  0  0  0  0  0  0  0
  -30.3800  -13.0570   19.3330 C   0  0  0  0  0  2  0  0  0  0  0  0
  -29.4370  -12.7280   18.1470 C   0  0  0  0  0  2  0  0  0  0  0  0
  -28.0140  -12.4070   18.6380 C   0  0  0  0  0  2  0  0  0  0  0  0
  -27.5480  -13.3920   19.7350 C   0  0  0  0  0  3  0  0  0  0  0  0
  -28.6310  -13.6770   20.8050 C   0  0  0  0  0  2  0  0  0  0  0  0
  -29.8130  -14.2290   20.1070 N   0  0  0  0  0  0  0  0  0  0  0  0
  -31.6120  -15.5080   20.0630 O   0  0  0  0  0  0  0  0  0  0  0  0
  -28.3770  -16.6570   19.2550 C   0  0  0  0  0  1  0  0  0  0  0  0
  -29.5930  -16.8730   20.0360 N   0  0  0  0  0  0  0  0  0  0  0  0
  -25.2080  -13.9570   20.5630 C   0  0  0  0  0  0  0  0  0  0  0  0
  -24.1510  -13.1840   20.9390 C   0  0  0  0  0  0  0  0  0  0  0  0
  -24.6130  -11.8330   20.8790 C   0  0  0  0  0  0  0  0  0  0  0  0
  -26.2430  -13.0780   20.2880 N   0  0  0  0  0  0  0  0  0  0  0  0
  -25.8970  -11.7930   20.5420 N   0  0  0  0  0  0  0  0  0  0  0  0
  -23.8830  -10.5760   21.0590 C   0  0  0  0  0  0  0  0  0  0  0  0
  -24.3200   -9.5990   21.9780 C   0  0  0  0  0  3  0  0  0  0  0  0
  -23.5900   -8.4050   22.1530 C   0  0  0  0  0  3  0  0  0  0  0  0
  -22.4060   -8.1840   21.4080 C   0  0  0  0  0  0  0  0  0  0  0  0
  -21.9890   -9.1510   20.4770 C   0  0  0  0  0  3  0  0  0  0  0  0
  -22.7220  -10.3360   20.3010 C   0  0  0  0  0  3  0  0  0  0  0  0
  -21.6440   -7.0440   21.4940 O   0  0  0  0  0  0  0  0  0  0  0  0
  -21.5960   -6.2980   22.6430 C   0  0  0  0  0  0  0  0  0  0  0  0
  -21.1710   -6.8490   23.8710 C   0  0  0  0  0  3  0  0  0  0  0  0
  -21.0710   -6.0290   25.0140 C   0  0  0  0  0  3  0  0  0  0  0  0
  -21.3860   -4.6590   24.9270 C   0  0  0  0  0  0  0  0  0  0  0  0
  -21.8030   -4.1090   23.7020 C   0  0  0  0  0  3  0  0  0  0  0  0
  -21.9060   -4.9260   22.5640 C   0  0  0  0  0  0  0  0  0  0  0  0
  -22.2890   -4.3880   21.3810 F   0  0  0  0  0  0  0  0  0  0  0  0
  -21.2830   -3.8680   26.0200 F   0  0  0  0  0  0  0  0  0  0  0  0
  -22.7610  -13.6680   21.2330 C   0  0  0  0  0  0  0  0  0  0  0  0
  -22.0430  -12.9660   22.1010 N   0  0  0  0  0  0  0  0  0  0  0  0
  -22.3250  -14.7040   20.7320 O   0  0  0  0  0  0  0  0  0  0  0  0
  -22.4140  -12.1300   22.5290 H   0  0  0  0  0  0  0  0  0  0  0  0
  -21.1120  -13.2720   22.3470 H   0  0  0  0  0  0  0  0  0  0  0  0
  -25.3580  -15.3290   20.4040 N   0  0  0  0  0  0  0  0  0  0  0  0
  -24.5940  -15.9790   20.5520 H   0  0  0  0  0  0  0  0  0  0  0  0
  -26.2020  -15.7780   20.0810 H   0  0  0  0  0  0  0  0  0  0  0  0
  -28.4820  -24.2570   19.8930 C   0  0  0  0  0  2  0  0  0  0  0  0
  -28.3350  -25.8790   20.3640 O   0  0  0  0  0  0  0  0  0  0  0  0
  -24.6790  -31.8950   23.2140 C   0  0  0  0  0  0  0  0  0  0  0  0
  -27.3020  -26.9760   20.2290 C   0  0  0  0  0  0  0  0  0  0  0  0
  -23.5030  -30.4770   21.5780 C   0  0  0  0  0  3  0  0  0  0  0  0
  -24.9760  -28.8660   20.1650 C   0  0  0  0  0  0  0  0  0  0  0  0
  -26.0690  -30.6960   21.4440 C   0  0  0  0  0  2  0  0  0  0  0  0
  -26.1580  -29.2780   20.7930 C   0  0  0  0  0  0  0  0  0  0  0  0
  -27.3050  -28.3540   20.8010 C   0  0  0  0  0  3  0  0  0  0  0  0
  -26.0910  -26.7320   19.5380 C   0  0  0  0  0  3  0  0  0  0  0  0
  -24.9720  -27.6160   19.5190 C   0  0  0  0  0  3  0  0  0  0  0  0
  -23.7470  -29.7820   20.2070 C   0  0  0  0  0  2  0  0  0  0  0  0
  -24.7720  -31.0500   22.1330 N   0  0  0  0  0  0  0  0  0  0  0  0
  -23.5860  -32.1820   23.7300 O   0  0  0  0  0  0  0  0  0  0  0  0
  -22.8110  -29.4860   22.5500 C   0  0  0  0  0  0  0  0  0  0  0  0
  -21.4810  -29.3130   22.4260 N   0  0  0  0  0  0  0  0  0  0  0  0
  -23.4780  -28.8750   23.3890 O   0  0  0  0  0  0  0  0  0  0  0  0
  -20.9950  -29.8580   21.7290 H   0  0  0  0  0  0  0  0  0  0  0  0
  -18.1090  -28.0680   22.9350 C   0  0  0  0  0  0  0  0  0  0  0  0
  -20.6650  -28.3700   23.2000 C   0  0  0  0  0  3  0  0  0  0  0  0
  -20.7850  -26.9360   22.6350 C   0  0  0  0  0  2  0  0  0  0  0  0
  -19.6890  -26.5940   21.6210 C   0  0  0  0  0  2  0  0  0  0  0  0
  -18.3040  -26.7200   22.2610 C   0  0  0  0  0  2  0  0  0  0  0  0
  -19.2170  -28.8500   23.3620 C   0  0  0  0  0  0  0  0  0  0  0  0
  -18.9780  -30.1070   23.9580 C   0  0  0  0  0  3  0  0  0  0  0  0
  -17.6640  -30.5860   24.1260 C   0  0  0  0  0  3  0  0  0  0  0  0
  -16.5710  -29.8030   23.7130 C   0  0  0  0  0  3  0  0  0  0  0  0
  -16.7950  -28.5450   23.1250 C   0  0  0  0  0  3  0  0  0  0  0  0
  -25.9410  -32.5540   23.8490 C   0  0  0  0  0  3  0  0  0  0  0  0
  -25.6090  -33.9540   24.1750 N   0  0  0  0  0  0  0  0  0  0  0  0
  -25.9350  -35.0160   23.4260 C   0  0  0  0  0  0  0  0  0  0  0  0
  -26.6060  -34.9230   22.3970 O   0  0  0  0  0  0  0  0  0  0  0  0
  -25.0150  -34.0990   24.9770 H   0  0  0  0  0  0  0  0  0  0  0  0
  -24.1930  -36.8040   23.0890 C   0  0  0  0  0  1  0  0  0  0  0  0
  -25.4400  -36.4020   23.8930 C   0  0  0  0  0  3  0  0  0  0  0  0
  -27.5680  -37.3060   24.7220 C   0  0  0  0  0  1  0  0  0  0  0  0
  -26.4620  -37.4650   23.7810 N   0  0  0  0  0  0  0  0  0  0  0  0
  -26.0500  -38.3820   23.9290 H   0  0  0  0  0  0  0  0  0  0  0  0
  -26.4470  -31.8050   25.1450 C   0  0  1  0  0  0  0  0  0  0  0  0
  -25.3430  -31.5750   26.2030 C   0  0  0  0  0  1  0  0  0  0  0  0
  -27.0470  -30.4250   24.7890 C   0  0  0  0  0  1  0  0  0  0  0  0
  -27.5860  -32.6160   25.8080 C   0  0  0  0  0  1  0  0  0  0  0  0
  3  2  1  1
  3  1  1  0
  5  4  1  0
  5  3  1  0
  6  4  2  0
  7  9  1  0
  8  5  2  0
  9  8  1  0
  9  6  1  0
 11 16  1  0
 12 13  1  0
 12 11  1  0
 14 13  1  0
 14 23  1  0
 14 15  1  0
 16 10  1  0
 16 15  1  0
 17 10  2  0
 18 19  1  0
 19 10  1  0
 19  6  1  0
 20 21  2  0
 21 40  1  0
 22 21  1  0
 22 25  1  0
 23 24  1  0
 23 20  1  0
 24 22  2  0
 25 26  1  0
 26 27  2  0
 28 31  1  0
 28 27  1  0
 29 28  2  0
 30 29  1  0
 30 25  2  0
 31 32  1  0
 32 33  1  0
 33 34  2  0
 35 34  1  0
 35 39  1  0
 36 35  2  0
 37 32  2  0
 37 36  1  0
 38 37  1  0
 40 41  1  0
 41 44  1  0
 41 43  1  0
 42 40  2  0
 45 46  1  0
 45 20  1  0
 47 45  1  0
 48 49  1  0
 48  3  1  0
 50 61  2  0
 51 49  1  0
 51 56  1  0
 52 60  1  0
 52 62  1  0
 53 59  1  0
 53 55  1  0
 54 60  1  0
 55 56  2  0
 55 54  1  0
 57 51  2  0
 58 57  1  0
 58 53  2  0
 59 52  1  0
 60 50  1  0
 62 64  2  0
 63 62  1  0
 65 63  1  0
 66 75  2  0
 66 71  1  0
 67 63  1  0
 67 71  1  0
 68 67  1  0
 69 70  1  0
 69 68  1  0
 70 66  1  0
 71 72  2  0
 72 73  1  0
 74 73  2  0
 75 74  1  0
 76 50  1  0
 76 77  1  0
 76 86  1  0
 77 80  1  0
 78 82  1  0
 78 77  1  0
 79 78  2  0
 82 81  1  0
 84 82  1  0
 84 85  1  0
 84 83  1  0
 86 89  1  1
 86 87  1  0
 88 86  1  0
M  ISO  4  10 100  19 100  48 101  49 101
M  END
>  <TORSDO>  (44) 
F 18

>  <SCORE>  (44) 
-16.381

>  <name>  (44) 
43

>  <ligand_id>  (44) 
43

>  <original_smiles>  (44) 
[H]c1c([H])c([H])c2c(c1[H])C([H])([H])C([H])([H])C([H])([H])C2([H])N([H])C(=O)C1([H])N(C(=O)C([H])(N([H])C(=O)C([H])(N([H])C([H])([H])[H])C([H])([H])[H])C(C([H])([H])[H])(C([H])([H])[H])C([H])([H])[H])C([H])([H])c2c([H])c(OC([H])([H])C(c3nn(C([H])([H])[H])c(N(C(=O)N4C([H])([H])C([H])([H])C([H])([H])C([H])(n5nc(-c6c([H])c([H])c(Oc7c([H])c([H])c(F)c([H])c7F)c([H])c6[H])c(C(=O)N([H])[H])c5N([H])[H])C4([H])[H])C([H])([H])[H])c3[H])(C([H])([H])[H])C([H])([H])[H])c([H])c([H])c2C1([H])[H]

>  <smiles>  (44) 
[H]c1c([H])c([H])c2c(c1[H])C([H])([H])C([H])([H])C([H])([H])C2([H])N([H])C(=O)C1([H])N(C(=O)C([H])(N([H])C(=O)C([H])(N([H])C([H])([H])[H])C([H])([H])[H])C(C([H])([H])[H])(C([H])([H])[H])C([H])([H])[H])C([H])([H])c2c([H])c(OC([H])([H])C(c3nn(C([H])([H])[H])c(N(C(=O)N4C([H])([H])C([H])([H])C([H])([H])C([H])(n5nc(-c6c([H])c([H])c(Oc7c([H])c([H])c(F)c([H])c7F)c([H])c6[H])c(C(=O)N([H])[H])c5N([H])[H])C4([H])[H])C([H])([H])[H])c3[H])(C([H])([H])[H])C([H])([H])[H])c([H])c([H])c2C1([H])[H]

$$$$
44:0:0
     RDKit          3D

 89 94  0  0  1  0  0  0  0  0999 V2000
  -27.0560  -22.3500   19.2630 C   0  0  0  0  0  1  0  0  0  0  0  0
  -28.4040  -22.5860   19.9570 C   0  0  0  0  0  2  0  0  0  0  0  0
  -29.6560  -22.0920   17.7410 C   0  0  0  0  0  3  0  0  0  0  0  0
  -29.5830  -22.7270   19.0000 C   0  0  0  0  0  0  0  0  0  0  0  0
  -31.9090  -22.4460   17.7600 C   0  0  0  0  0  0  0  0  0  0  0  0
  -33.2690  -22.1440   17.1750 C   0  0  0  0  0  1  0  0  0  0  0  0
  -30.8480  -21.9610   17.1100 N   0  0  0  0  0  0  0  0  0  0  0  0
  -30.7080  -23.2370   19.5620 N   0  0  0  0  0  0  0  0  0  0  0  0
  -31.8870  -23.0970   18.9370 N   0  0  0  0  0  0  0  0  0  0  0  0
  -28.1310  -24.6450   20.3480 O   0  0  0  0  0  1  0  0  0  0  0  0
  -24.6730  -31.7670   23.1300 C   0  0  0  0  0  0  0  0  0  0  0  0
  -27.2330  -26.1450   20.2250 C   0  0  0  0  0  0  0  0  0  0  0  0
  -23.5250  -30.3290   21.5070 C   0  0  0  0  0  3  0  0  0  0  0  0
  -25.0000  -28.5590   20.1410 C   0  0  0  0  0  0  0  0  0  0  0  0
  -26.1270  -30.3090   21.4650 C   0  0  0  0  0  2  0  0  0  0  0  0
  -26.2000  -28.8040   20.8160 C   0  0  0  0  0  0  0  0  0  0  0  0
  -27.2580  -27.6450   20.8160 C   0  0  0  0  0  3  0  0  0  0  0  0
  -25.9980  -26.2830   19.4720 C   0  0  0  0  0  3  0  0  0  0  0  0
  -24.9780  -27.3300   19.4440 C   0  0  0  0  0  3  0  0  0  0  0  0
  -23.8070  -29.5710   20.1640 C   0  0  0  0  0  2  0  0  0  0  0  0
  -24.8070  -30.8540   22.0840 N   0  0  0  0  0  0  0  0  0  0  0  0
  -23.5640  -32.0880   23.6010 O   0  0  0  0  0  0  0  0  0  0  0  0
  -22.7520  -29.4160   22.5010 C   0  0  0  0  0  0  0  0  0  0  0  0
  -21.4130  -29.2910   22.3780 N   0  0  0  0  0  0  0  0  0  0  0  0
  -23.3830  -28.8060   23.3670 O   0  0  0  0  0  0  0  0  0  0  0  0
  -20.9460  -29.8250   21.6590 H   0  0  0  0  0  0  0  0  0  0  0  0
  -18.0160  -28.0830   22.9170 C   0  0  0  0  0  0  0  0  0  0  0  0
  -20.5790  -28.3650   23.1600 C   0  0  0  0  0  3  0  0  0  0  0  0
  -20.6760  -26.9280   22.5940 C   0  0  0  0  0  2  0  0  0  0  0  0
  -19.5720  -26.6030   21.5830 C   0  0  0  0  0  2  0  0  0  0  0  0
  -18.1920  -26.7420   22.2290 C   0  0  0  0  0  2  0  0  0  0  0  0
  -19.1330  -28.8550   23.3390 C   0  0  0  0  0  0  0  0  0  0  0  0
  -18.9030  -30.1070   23.9500 C   0  0  0  0  0  3  0  0  0  0  0  0
  -17.5930  -30.5880   24.1400 C   0  0  0  0  0  3  0  0  0  0  0  0
  -16.4930  -29.8140   23.7310 C   0  0  0  0  0  3  0  0  0  0  0  0
  -16.7050  -28.5640   23.1240 C   0  0  0  0  0  3  0  0  0  0  0  0
  -25.9000  -32.4650   23.7970 C   0  0  0  0  0  3  0  0  0  0  0  0
  -25.5530  -33.8730   24.1090 N   0  0  0  0  0  0  0  0  0  0  0  0
  -25.9040  -34.9470   23.3850 C   0  0  0  0  0  0  0  0  0  0  0  0
  -26.5920  -34.8590   22.3670 O   0  0  0  0  0  0  0  0  0  0  0  0
  -24.9420  -34.0140   24.8990 H   0  0  0  0  0  0  0  0  0  0  0  0
  -24.1850  -36.7660   23.0480 C   0  0  0  0  0  1  0  0  0  0  0  0
  -25.4210  -36.3400   23.8580 C   0  0  0  0  0  3  0  0  0  0  0  0
  -27.5470  -37.2300   24.7170 C   0  0  0  0  0  1  0  0  0  0  0  0
  -26.4550  -37.3950   23.7600 N   0  0  0  0  0  0  0  0  0  0  0  0
  -26.0470  -38.3130   23.9020 H   0  0  0  0  0  0  0  0  0  0  0  0
  -26.3680  -31.7490   25.1260 C   0  0  1  0  0  0  0  0  0  0  0  0
  -25.2320  -31.5510   26.1600 C   0  0  0  0  0  1  0  0  0  0  0  0
  -26.9620  -30.3560   24.8310 C   0  0  0  0  0  1  0  0  0  0  0  0
  -27.4980  -32.5680   25.7970 C   0  0  0  0  0  1  0  0  0  0  0  0
  -29.1050  -20.3890   20.4360 C   0  0  0  0  0 15  0  0  0  0  0  0
  -29.9670  -16.6800   20.1580 C   0  0  0  0  0  0  0  0  0  0  0  0
  -30.3360  -13.9110   19.3870 C   0  0  0  0  0  2  0  0  0  0  0  0
  -29.5720  -13.0690   18.2830 C   0  0  0  0  0  2  0  0  0  0  0  0
  -28.2450  -12.5000   18.7950 C   0  0  0  0  0  2  0  0  0  0  0  0
  -27.5980  -13.5390   19.7230 C   0  0  0  0  0  3  0  0  0  0  0  0
  -28.5590  -14.2370   20.7540 C   0  0  0  0  0  2  0  0  0  0  0  0
  -29.5480  -15.1530   20.0280 N   0  0  0  0  0  0  0  0  0  0  0  0
  -31.2180  -16.4510   20.1360 O   0  0  0  0  0  0  0  0  0  0  0  0
  -27.7740  -18.0490   19.9910 C   0  0  0  0  0  1  0  0  0  0  0  0
  -29.2040  -18.2990   20.1540 N   0  0  0  0  0  2  0  0  0  0  0  0
  -25.2400  -13.9510   20.5110 C   0  0  0  0  0  0  0  0  0  0  0  0
  -24.1990  -13.1470   20.8710 C   0  0  0  0  0  0  0  0  0  0  0  0
  -24.6970  -11.8070   20.8260 C   0  0  0  0  0  0  0  0  0  0  0  0
  -26.3100  -13.1160   20.2680 N   0  0  0  0  0  0  0  0  0  0  0  0
  -25.9960  -11.8090   20.5110 N   0  0  0  0  0  0  0  0  0  0  0  0
  -23.9820  -10.5320   21.0090 C   0  0  0  0  0  0  0  0  0  0  0  0
  -24.4080   -9.5690   21.9500 C   0  0  0  0  0  3  0  0  0  0  0  0
  -23.6800   -8.3720   22.1310 C   0  0  0  0  0  3  0  0  0  0  0  0
  -22.5120   -8.1240   21.3730 C   0  0  0  0  0  0  0  0  0  0  0  0
  -22.1020   -9.0790   20.4240 C   0  0  0  0  0  3  0  0  0  0  0  0
  -22.8290  -10.2670   20.2420 C   0  0  0  0  0  3  0  0  0  0  0  0
  -21.7580   -6.9770   21.4620 O   0  0  0  0  0  0  0  0  0  0  0  0
  -21.6940   -6.2450   22.6210 C   0  0  0  0  0  0  0  0  0  0  0  0
  -21.2040   -6.7980   23.8260 C   0  0  0  0  0  3  0  0  0  0  0  0
  -21.0920   -5.9910   24.9750 C   0  0  0  0  0  3  0  0  0  0  0  0
  -21.4540   -4.6320   24.9210 C   0  0  0  0  0  0  0  0  0  0  0  0
  -21.9320   -4.0780   23.7210 C   0  0  0  0  0  3  0  0  0  0  0  0
  -22.0490   -4.8830   22.5740 C   0  0  0  0  0  0  0  0  0  0  0  0
  -22.4910   -4.3370   21.4150 F   0  0  0  0  0  0  0  0  0  0  0  0
  -21.3390   -3.8550   26.0250 F   0  0  0  0  0  0  0  0  0  0  0  0
  -22.7950  -13.6020   21.1350 C   0  0  0  0  0  0  0  0  0  0  0  0
  -22.0780  -12.9030   22.0060 N   0  0  0  0  0  0  0  0  0  0  0  0
  -22.3460  -14.6210   20.6110 O   0  0  0  0  0  0  0  0  0  0  0  0
  -22.4520  -12.0810   22.4560 H   0  0  0  0  0  0  0  0  0  0  0  0
  -21.1380  -13.1980   22.2310 H   0  0  0  0  0  0  0  0  0  0  0  0
  -25.3650  -15.3230   20.3290 N   0  0  0  0  0  0  0  0  0  0  0  0
  -24.5820  -15.9600   20.4350 H   0  0  0  0  0  0  0  0  0  0  0  0
  -26.2010  -15.7770   19.9890 H   0  0  0  0  0  0  0  0  0  0  0  0
  1  2  1  0
  3  4  2  0
  4  8  1  0
  4  2  1  0
  5  9  1  0
  6  5  1  0
  7  3  1  0
  7  5  2  0
  9  8  2  0
 11 22  2  0
 12 10  1  0
 12 17  1  0
 13 21  1  0
 13 23  1  0
 14 20  1  0
 14 16  1  0
 15 21  1  0
 16 17  2  0
 16 15  1  0
 18 12  2  0
 19 18  1  0
 19 14  2  0
 20 13  1  0
 21 11  1  0
 23 25  2  0
 24 23  1  0
 26 24  1  0
 27 36  2  0
 27 32  1  0
 28 24  1  0
 28 32  1  0
 29 28  1  0
 30 31  1  0
 30 29  1  0
 31 27  1  0
 32 33  2  0
 33 34  1  0
 35 34  2  0
 36 35  1  0
 37 11  1  0
 37 38  1  0
 37 47  1  0
 38 41  1  0
 39 43  1  0
 39 38  1  0
 40 39  2  0
 43 42  1  0
 45 43  1  0
 45 46  1  0
 45 44  1  0
 47 50  1  1
 47 48  1  0
 49 47  1  0
 53 58  1  0
 54 55  1  0
 54 53  1  0
 56 55  1  0
 56 65  1  0
 56 57  1  0
 58 52  1  0
 58 57  1  0
 59 52  2  0
 60 61  1  0
 61 52  1  0
 62 63  2  0
 63 82  1  0
 64 63  1  0
 64 67  1  0
 65 66  1  0
 65 62  1  0
 66 64  2  0
 67 68  1  0
 68 69  2  0
 70 73  1  0
 70 69  1  0
 71 70  2  0
 72 71  1  0
 72 67  2  0
 73 74  1  0
 74 75  1  0
 75 76  2  0
 77 76  1  0
 77 81  1  0
 78 77  2  0
 79 74  2  0
 79 78  1  0
 80 79  1  0
 82 83  1  0
 83 86  1  0
 83 85  1  0
 84 82  2  0
 87 88  1  0
 87 62  1  0
 89 87  1  0
M  ISO  4   2 101  10 101  52 100  61 100
M  END
>  <TORSDO>  (45) 
F 18

>  <SCORE>  (45) 
-16.149

>  <name>  (45) 
44

>  <ligand_id>  (45) 
44

>  <original_smiles>  (45) 
[H]c1nc(C([H])([H])[H])nnc1C(Oc1c([H])c([H])c2c(c1[H])C([H])([H])N(C(=O)C([H])(N([H])C(=O)C([H])(N([H])C([H])([H])[H])C([H])([H])[H])C(C([H])([H])[H])(C([H])([H])[H])C([H])([H])[H])C([H])(C(=O)N([H])C1([H])c3c([H])c([H])c([H])c([H])c3C([H])([H])C([H])([H])C1([H])[H])C2([H])[H])(C([H])([H])[H])C([H])([H])N(C(=O)N1C([H])([H])C([H])([H])C([H])([H])C([H])(n2nc(-c3c([H])c([H])c(Oc4c([H])c([H])c(F)c([H])c4F)c([H])c3[H])c(C(=O)N([H])[H])c2N([H])[H])C1([H])[H])C([H])([H])[H]

>  <smiles>  (45) 
[H]c1nc(C([H])([H])[H])nnc1C(Oc1c([H])c([H])c2c(c1[H])C([H])([H])N(C(=O)C([H])(N([H])C(=O)C([H])(N([H])C([H])([H])[H])C([H])([H])[H])C(C([H])([H])[H])(C([H])([H])[H])C([H])([H])[H])C([H])(C(=O)N([H])C1([H])c3c([H])c([H])c([H])c([H])c3C([H])([H])C([H])([H])C1([H])[H])C2([H])[H])(C([H])([H])[H])C([H])([H])N(C(=O)N1C([H])([H])C([H])([H])C([H])([H])C([H])(n2nc(-c3c([H])c([H])c(Oc4c([H])c([H])c(F)c([H])c4F)c([H])c3[H])c(C(=O)N([H])[H])c2N([H])[H])C1([H])[H])C([H])([H])[H]

$$$$
45:0:0
     RDKit          3D

 91 99  0  0  1  0  0  0  0  0999 V2000
  -29.4220  -18.7440   19.5480 C   0  0  0  0  0  3  0  0  0  0  0  0
  -28.1540  -19.3740   19.6900 C   0  0  0  0  0  3  0  0  0  0  0  0
  -28.7060  -16.1270   19.4690 C   0  0  0  0  0  2  0  0  0  0  0  0
  -28.6520  -13.0900   19.4780 C   0  0  0  0  0  3  0  0  0  0  0  0
  -29.6990  -17.2430   19.3950 N   0  0  0  0  0  0  0  0  0  0  0  0
  -27.8240  -17.5970   19.6470 N   0  0  0  0  0  0  0  0  0  0  0  0
  -26.8370  -17.4320   19.8050 H   0  0  0  0  0  0  0  0  0  0  0  0
  -31.8900  -18.0390   18.2140 C   0  0  0  0  0  1  0  0  0  0  0  0
  -31.2000  -17.1350   19.2790 C   0  0  0  0  0  3  0  0  0  0  0  0
  -33.4590  -17.1330   20.6120 C   0  0  0  0  0  1  0  0  0  0  0  0
  -31.9070  -17.2360   20.6760 C   0  0  0  0  0  3  0  0  0  0  0  0
  -31.4080  -14.9980   21.4960 C   0  0  0  0  0  0  0  0  0  0  0  0
  -30.9380  -13.9390   19.3650 C   0  0  0  0  0  2  0  0  0  0  0  0
  -29.6950  -13.8030   17.9970 C   0  0  0  0  0  3  0  0  0  0  0  0
  -27.8020  -13.8700   18.3650 C   0  0  0  0  0  3  0  0  0  0  0  0
  -27.2630  -14.2370   20.2190 C   0  0  2  0  0  0  0  0  0  0  0  0
  -28.6980  -14.5660   21.5130 C   0  0  0  0  0  2  0  0  0  0  0  0
  -30.3670  -14.4950   20.9280 N   0  0  0  0  0  0  0  0  0  0  0  0
  -32.5060  -14.5490   21.2270 O   0  0  0  0  0  0  0  0  0  0  0  0
  -31.2680  -16.3150   21.6360 N   0  0  0  0  0  0  0  0  0  0  0  0
  -30.3540  -16.6120   21.9350 H   0  0  0  0  0  0  0  0  0  0  0  0
  -25.0000  -13.7780   20.7440 C   0  0  0  0  0  0  0  0  0  0  0  0
  -24.1570  -12.8160   21.1320 C   0  0  0  0  0  0  0  0  0  0  0  0
  -24.8100  -11.5550   20.9900 C   0  0  0  0  0  0  0  0  0  0  0  0
  -26.1990  -13.2230   20.5690 N   0  0  0  0  0  0  0  0  0  0  0  0
  -26.1050  -11.8090   20.6490 N   0  0  0  0  0  0  0  0  0  0  0  0
  -24.1620  -10.2100   21.1360 C   0  0  0  0  0  0  0  0  0  0  0  0
  -24.5330   -9.2500   22.1100 C   0  0  0  0  0  3  0  0  0  0  0  0
  -23.7890   -8.0490   22.2800 C   0  0  0  0  0  3  0  0  0  0  0  0
  -22.6490   -7.7830   21.4840 C   0  0  0  0  0  0  0  0  0  0  0  0
  -22.2890   -8.7240   20.5020 C   0  0  0  0  0  3  0  0  0  0  0  0
  -23.0360   -9.9070   20.3300 C   0  0  0  0  0  3  0  0  0  0  0  0
  -21.8800   -6.6410   21.5640 O   0  0  0  0  0  0  0  0  0  0  0  0
  -21.7070   -5.9450   22.7380 C   0  0  0  0  0  0  0  0  0  0  0  0
  -21.1040   -6.5370   23.8700 C   0  0  0  0  0  3  0  0  0  0  0  0
  -20.8910   -5.7750   25.0380 C   0  0  0  0  0  3  0  0  0  0  0  0
  -21.2640   -4.4190   25.0740 C   0  0  0  0  0  0  0  0  0  0  0  0
  -21.8480   -3.8210   23.9460 C   0  0  0  0  0  3  0  0  0  0  0  0
  -22.0640   -4.5800   22.7810 C   0  0  0  0  0  0  0  0  0  0  0  0
  -22.6090   -3.9910   21.6890 F   0  0  0  0  0  0  0  0  0  0  0  0
  -21.0520   -3.6860   26.1940 F   0  0  0  0  0  0  0  0  0  0  0  0
  -22.7640  -13.1510   21.5020 C   0  0  0  0  0  0  0  0  0  0  0  0
  -22.1830  -12.4070   22.4240 N   0  0  0  0  0  0  0  0  0  0  0  0
  -22.2320  -14.1650   21.0470 O   0  0  0  0  0  0  0  0  0  0  0  0
  -22.6640  -11.6160   22.8270 H   0  0  0  0  0  0  0  0  0  0  0  0
  -21.2480  -12.6300   22.7420 H   0  0  0  0  0  0  0  0  0  0  0  0
  -24.8070  -15.1390   20.5280 N   0  0  0  0  0  0  0  0  0  0  0  0
  -23.8340  -15.4050   20.6670 H   0  0  0  0  0  0  0  0  0  0  0  0
  -25.1100  -15.4580   19.6170 H   0  0  0  0  0  0  0  0  0  0  0  0
  -27.4810  -21.7050   19.8350 C   0  0  0  0  0 15  0  0  0  0  0  0
  -27.6950  -23.9580   20.0410 O   0  0  0  0  0  1  0  0  0  0  0  0
  -24.6730  -31.6230   23.0340 C   0  0  0  0  0  0  0  0  0  0  0  0
  -26.9640  -25.6480   20.0970 C   0  0  0  0  0  0  0  0  0  0  0  0
  -23.5310  -30.2100   21.4030 C   0  0  0  0  0  3  0  0  0  0  0  0
  -24.9370  -28.3520   20.0550 C   0  0  0  0  0  0  0  0  0  0  0  0
  -26.1300  -30.0020   21.4370 C   0  0  0  0  0  2  0  0  0  0  0  0
  -26.1360  -28.4730   20.7600 C   0  0  0  0  0  0  0  0  0  0  0  0
  -27.0970  -27.1830   20.7270 C   0  0  0  0  0  3  0  0  0  0  0  0
  -25.7650  -25.9970   19.3470 C   0  0  0  0  0  3  0  0  0  0  0  0
  -24.8510  -27.1450   19.3240 C   0  0  0  0  0  3  0  0  0  0  0  0
  -23.8120  -29.4460   20.0620 C   0  0  0  0  0  2  0  0  0  0  0  0
  -24.8220  -30.6720   22.0090 N   0  0  0  0  0  0  0  0  0  0  0  0
  -23.5560  -31.9740   23.4690 O   0  0  0  0  0  0  0  0  0  0  0  0
  -22.7100  -29.3240   22.3850 C   0  0  0  0  0  0  0  0  0  0  0  0
  -21.3680  -29.2410   22.2510 N   0  0  0  0  0  0  0  0  0  0  0  0
  -23.3080  -28.6990   23.2620 O   0  0  0  0  0  0  0  0  0  0  0  0
  -20.9210  -29.7930   21.5310 H   0  0  0  0  0  0  0  0  0  0  0  0
  -17.9310  -28.1380   22.7920 C   0  0  0  0  0  0  0  0  0  0  0  0
  -20.5040  -28.3300   23.0200 C   0  0  0  0  0  3  0  0  0  0  0  0
  -20.5470  -26.9010   22.4290 C   0  0  0  0  0  2  0  0  0  0  0  0
  -19.4280  -26.6360   21.4140 C   0  0  0  0  0  2  0  0  0  0  0  0
  -18.0590  -26.8050   22.0740 C   0  0  0  0  0  2  0  0  0  0  0  0
  -19.0780  -28.8630   23.2180 C   0  0  0  0  0  0  0  0  0  0  0  0
  -18.8960  -30.1060   23.8610 C   0  0  0  0  0  3  0  0  0  0  0  0
  -17.6060  -30.6320   24.0670 C   0  0  0  0  0  3  0  0  0  0  0  0
  -16.4760  -29.9080   23.6490 C   0  0  0  0  0  3  0  0  0  0  0  0
  -16.6400  -28.6600   23.0210 C   0  0  0  0  0  3  0  0  0  0  0  0
  -25.8790  -32.3330   23.7340 C   0  0  0  0  0  3  0  0  0  0  0  0
  -26.3110  -31.6170   25.0770 C   0  0  1  0  0  0  0  0  0  0  0  0
  -25.1580  -31.4260   26.0930 C   0  0  0  0  0  1  0  0  0  0  0  0
  -26.9090  -30.2250   24.7960 C   0  0  0  0  0  1  0  0  0  0  0  0
  -27.4240  -32.4340   25.7730 C   0  0  0  0  0  1  0  0  0  0  0  0
  -25.5160  -33.7430   24.0510 N   0  0  0  0  0  0  0  0  0  0  0  0
  -25.8820  -34.8340   23.3610 C   0  0  0  0  0  0  0  0  0  0  0  0
  -26.5920  -34.7640   22.3570 O   0  0  0  0  0  0  0  0  0  0  0  0
  -24.8810  -33.8680   24.8260 H   0  0  0  0  0  0  0  0  0  0  0  0
  -24.1680  -36.6660   23.0310 C   0  0  0  0  0  1  0  0  0  0  0  0
  -25.3940  -36.2220   23.8470 C   0  0  0  0  0  3  0  0  0  0  0  0
  -27.5070  -37.1080   24.7480 C   0  0  0  0  0  1  0  0  0  0  0  0
  -26.4280  -37.2820   23.7790 N   0  0  0  0  0  0  0  0  0  0  0  0
  -26.0140  -38.1990   23.9260 H   0  0  0  0  0  0  0  0  0  0  0  0
  1  2  2  0
  3  6  1  0
  4 16  1  0
  5  3  1  0
  5  1  1  0
  6  2  1  0
  6  7  1  0
  8  9  1  0
  9  5  1  0
  9 11  1  0
 10 11  1  0
 11 20  1  0
 12 20  1  0
 13 18  1  0
 14 15  1  0
 14 13  1  0
 14  4  1  0
 15  4  1  0
 15 16  1  0
 16 25  1  6
 16 17  1  0
 18 12  1  0
 18 17  1  0
 19 12  2  0
 20 21  1  0
 22 23  2  0
 23 42  1  0
 24 23  1  0
 24 27  1  0
 25 26  1  0
 25 22  1  0
 26 24  2  0
 27 28  1  0
 28 29  2  0
 30 33  1  0
 30 29  1  0
 31 30  2  0
 32 31  1  0
 32 27  2  0
 33 34  1  0
 34 39  2  0
 34 35  1  0
 35 36  2  0
 36 37  1  0
 37 41  1  0
 38 37  2  0
 39 38  1  0
 40 39  1  0
 42 43  1  0
 43 46  1  0
 43 45  1  0
 44 42  2  0
 47 48  1  0
 47 22  1  0
 49 47  1  0
 51 53  1  0
 52 63  2  0
 52 78  1  0
 53 58  1  0
 54 62  1  0
 54 64  1  0
 55 61  1  0
 55 57  1  0
 56 62  1  0
 57 56  1  0
 58 57  2  0
 59 53  2  0
 60 59  1  0
 60 55  2  0
 61 54  1  0
 62 52  1  0
 64 66  2  0
 65 64  1  0
 65 69  1  0
 67 65  1  0
 68 77  2  0
 68 73  1  0
 69 73  1  0
 70 69  1  0
 71 72  1  0
 71 70  1  0
 72 68  1  0
 73 74  2  0
 74 75  1  0
 76 75  2  0
 77 76  1  0
 78 83  1  0
 78 79  1  0
 79 82  1  1
 79 80  1  0
 81 79  1  0
 83 86  1  0
 84 88  1  0
 84 83  1  0
 85 84  2  0
 87 88  1  0
 90 88  1  0
 90 91  1  0
 90 89  1  0
M  ISO  4  12 100  20 100  50 101  51 101
M  END
>  <TORSDO>  (46) 
F 19

>  <SCORE>  (46) 
-12.455

>  <name>  (46) 
45

>  <ligand_id>  (46) 
45

>  <original_smiles>  (46) 
[H]c1c([H])c([H])c2c(c1[H])C([H])([H])C([H])([H])C([H])([H])C2([H])N([H])C(=O)C1([H])N(C(=O)C([H])(N([H])C(=O)C([H])(N([H])C([H])([H])[H])C([H])([H])[H])C(C([H])([H])[H])(C([H])([H])[H])C([H])([H])[H])C([H])([H])c2c([H])c(OC([H])([H])c3c([H])n(C([H])(C([H])([H])[H])C([H])(N([H])C(=O)N4C([H])([H])C([H])([H])C([H])([H])C([H])(n5nc(-c6c([H])c([H])c(Oc7c([H])c([H])c(F)c([H])c7F)c([H])c6[H])c(C(=O)N([H])[H])c5N([H])[H])C4([H])[H])C([H])([H])[H])c(C([H])([H])[H])[n+]3[H])c([H])c([H])c2C1([H])[H]

>  <smiles>  (46) 
[H]c1c([H])c([H])c2c(c1[H])C([H])([H])C([H])([H])C([H])([H])C2([H])N([H])C(=O)C1([H])N(C(=O)C([H])(N([H])C(=O)C([H])(N([H])C([H])([H])[H])C([H])([H])[H])C(C([H])([H])[H])(C([H])([H])[H])C([H])([H])[H])C([H])([H])c2c([H])c(OC([H])([H])c3c([H])n(C([H])(C([H])([H])[H])C([H])(N([H])C(=O)N4C([H])([H])C([H])([H])C([H])([H])C([H])(n5nc(-c6c([H])c([H])c(Oc7c([H])c([H])c(F)c([H])c7F)c([H])c6[H])c(C(=O)N([H])[H])c5N([H])[H])C4([H])[H])C([H])([H])[H])c(C([H])([H])[H])[n+]3[H])c([H])c([H])c2C1([H])[H]

$$$$
46:0:0
     RDKit          3D

 90 98  0  0  1  0  0  0  0  0999 V2000
  -29.5130  -19.3380   20.2060 C   0  0  0  0  0  0  0  0  0  0  0  0
  -28.9110  -21.5640   20.4470 C   0  0  0  0  0  3  0  0  0  0  0  0
  -28.7580  -20.4250   19.6330 N   0  0  0  0  0  0  0  0  0  0  0  0
  -30.1310  -19.8100   21.2890 N   0  0  0  0  0  2  0  0  0  0  0  0
  -29.7260  -21.1350   21.4540 N   0  0  0  0  0  0  0  0  0  0  0  0
  -31.5640  -22.5550   22.2710 C   0  0  0  0  0  1  0  0  0  0  0  0
  -30.3680  -20.9740   23.8640 C   0  0  0  0  0  1  0  0  0  0  0  0
  -30.2370  -21.8680   22.6160 C   0  0  0  0  0  3  0  0  0  0  0  0
  -29.9030  -17.8160   19.6100 C   0  0  0  0  0  2  0  0  0  0  0  0
  -30.5170  -15.1020   19.9360 C   0  0  0  0  0  0  0  0  0  0  0  0
  -30.3530  -12.7540   18.9140 C   0  0  0  0  0  2  0  0  0  0  0  0
  -29.3260  -12.7140   17.7550 C   0  0  0  0  0  2  0  0  0  0  0  0
  -27.8960  -12.4820   18.2830 C   0  0  0  0  0  2  0  0  0  0  0  0
  -27.5890  -13.3530   19.5290 C   0  0  0  0  0  3  0  0  0  0  0  0
  -28.7300  -13.2900   20.5630 C   0  0  0  0  0  2  0  0  0  0  0  0
  -29.9290  -13.8160   19.8880 N   0  0  0  0  0  0  0  0  0  0  0  0
  -31.6620  -15.1540   19.4650 O   0  0  0  0  0  0  0  0  0  0  0  0
  -28.9170  -16.3580   21.4080 C   0  0  0  0  0  1  0  0  0  0  0  0
  -29.7910  -16.3330   20.2360 N   0  0  0  0  0  0  0  0  0  0  0  0
  -25.2760  -13.9160   20.4600 C   0  0  0  0  0  0  0  0  0  0  0  0
  -24.2420  -13.1350   20.8920 C   0  0  0  0  0  0  0  0  0  0  0  0
  -24.6940  -11.7840   20.7870 C   0  0  0  0  0  0  0  0  0  0  0  0
  -26.2940  -13.0410   20.1170 N   0  0  0  0  0  0  0  0  0  0  0  0
  -25.9590  -11.7520   20.3770 N   0  0  0  0  0  0  0  0  0  0  0  0
  -23.9740  -10.5210   20.9930 C   0  0  0  0  0  0  0  0  0  0  0  0
  -24.4420   -9.5440   21.9000 C   0  0  0  0  0  3  0  0  0  0  0  0
  -23.7200   -8.3470   22.0960 C   0  0  0  0  0  3  0  0  0  0  0  0
  -22.5170   -8.1190   21.3860 C   0  0  0  0  0  0  0  0  0  0  0  0
  -22.0690   -9.0850   20.4680 C   0  0  0  0  0  3  0  0  0  0  0  0
  -22.7920  -10.2740   20.2700 C   0  0  0  0  0  3  0  0  0  0  0  0
  -21.7630   -6.9760   21.4930 O   0  0  0  0  0  0  0  0  0  0  0  0
  -21.7270   -6.2440   22.6520 C   0  0  0  0  0  0  0  0  0  0  0  0
  -21.2860   -6.8020   23.8730 C   0  0  0  0  0  3  0  0  0  0  0  0
  -21.1990   -5.9930   25.0250 C   0  0  0  0  0  3  0  0  0  0  0  0
  -21.5420   -4.6300   24.9560 C   0  0  0  0  0  0  0  0  0  0  0  0
  -21.9780   -4.0720   23.7410 C   0  0  0  0  0  3  0  0  0  0  0  0
  -22.0660   -4.8770   22.5920 C   0  0  0  0  0  0  0  0  0  0  0  0
  -22.4640   -4.3300   21.4180 F   0  0  0  0  0  0  0  0  0  0  0  0
  -21.4520   -3.8520   26.0600 F   0  0  0  0  0  0  0  0  0  0  0  0
  -22.8730  -13.6120   21.2820 C   0  0  0  0  0  0  0  0  0  0  0  0
  -22.2080  -12.8940   22.1800 N   0  0  0  0  0  0  0  0  0  0  0  0
  -22.4060  -14.6550   20.8250 O   0  0  0  0  0  0  0  0  0  0  0  0
  -22.6020  -12.0510   22.5680 H   0  0  0  0  0  0  0  0  0  0  0  0
  -21.2930  -13.1930   22.4840 H   0  0  0  0  0  0  0  0  0  0  0  0
  -25.4260  -15.2900   20.3020 N   0  0  0  0  0  0  0  0  0  0  0  0
  -24.6640  -15.9350   20.4760 H   0  0  0  0  0  0  0  0  0  0  0  0
  -26.2360  -15.7330   19.8880 H   0  0  0  0  0  0  0  0  0  0  0  0
  -28.1270  -23.0650   20.5340 C   0  0  0  0  0  2  0  0  0  0  0  0
  -28.4150  -24.6190   19.8560 C   0  0  0  0  0  2  0  0  0  0  0  0
  -28.2360  -26.1110   20.3850 O   0  0  0  0  0  0  0  0  0  0  0  0
  -24.6100  -31.8670   23.2570 C   0  0  0  0  0  0  0  0  0  0  0  0
  -27.1690  -27.0900   20.2470 C   0  0  0  0  0  0  0  0  0  0  0  0
  -23.4050  -30.4670   21.6230 C   0  0  0  0  0  3  0  0  0  0  0  0
  -24.8480  -28.8700   20.1990 C   0  0  0  0  0  0  0  0  0  0  0  0
  -25.9610  -30.7110   21.4600 C   0  0  0  0  0  2  0  0  0  0  0  0
  -26.0260  -29.3110   20.8110 C   0  0  0  0  0  0  0  0  0  0  0  0
  -27.1790  -28.4340   20.8200 C   0  0  0  0  0  3  0  0  0  0  0  0
  -25.9680  -26.7590   19.5870 C   0  0  0  0  0  3  0  0  0  0  0  0
  -24.8350  -27.6110   19.5700 C   0  0  0  0  0  3  0  0  0  0  0  0
  -23.6250  -29.7780   20.2470 C   0  0  0  0  0  2  0  0  0  0  0  0
  -24.6790  -31.0400   22.1680 N   0  0  0  0  0  0  0  0  0  0  0  0
  -23.5250  -32.1580   23.7860 O   0  0  0  0  0  0  0  0  0  0  0  0
  -22.7210  -29.4710   22.5940 C   0  0  0  0  0  0  0  0  0  0  0  0
  -21.3950  -29.2910   22.4590 N   0  0  0  0  0  0  0  0  0  0  0  0
  -23.3880  -28.8600   23.4320 O   0  0  0  0  0  0  0  0  0  0  0  0
  -20.9090  -29.8370   21.7610 H   0  0  0  0  0  0  0  0  0  0  0  0
  -18.0230  -28.0520   22.9290 C   0  0  0  0  0  0  0  0  0  0  0  0
  -20.5730  -28.3550   23.2340 C   0  0  0  0  0  3  0  0  0  0  0  0
  -20.7040  -26.9140   22.6870 C   0  0  0  0  0  2  0  0  0  0  0  0
  -19.6240  -26.5610   21.6590 C   0  0  0  0  0  2  0  0  0  0  0  0
  -18.2300  -26.6950   22.2780 C   0  0  0  0  0  2  0  0  0  0  0  0
  -19.1220  -28.8390   23.3640 C   0  0  0  0  0  0  0  0  0  0  0  0
  -18.8730  -30.1060   23.9340 C   0  0  0  0  0  3  0  0  0  0  0  0
  -17.5580  -30.5870   24.0720 C   0  0  0  0  0  3  0  0  0  0  0  0
  -16.4720  -29.7980   23.6540 C   0  0  0  0  0  3  0  0  0  0  0  0
  -16.7060  -28.5330   23.0870 C   0  0  0  0  0  3  0  0  0  0  0  0
  -25.8890  -32.5040   23.8830 C   0  0  0  0  0  3  0  0  0  0  0  0
  -26.3970  -31.7390   25.1690 C   0  0  1  0  0  0  0  0  0  0  0  0
  -25.2980  -31.5140   26.2340 C   0  0  0  0  0  1  0  0  0  0  0  0
  -26.9780  -30.3580   24.7950 C   0  0  0  0  0  1  0  0  0  0  0  0
  -27.5470  -32.5350   25.8300 C   0  0  0  0  0  1  0  0  0  0  0  0
  -25.5800  -33.9050   24.2130 N   0  0  0  0  0  0  0  0  0  0  0  0
  -25.9170  -34.9610   23.4580 C   0  0  0  0  0  0  0  0  0  0  0  0
  -26.5860  -34.8560   22.4260 O   0  0  0  0  0  0  0  0  0  0  0  0
  -24.9870  -34.0600   25.0140 H   0  0  0  0  0  0  0  0  0  0  0  0
  -24.2020  -36.7700   23.1140 C   0  0  0  0  0  1  0  0  0  0  0  0
  -25.4410  -36.3520   23.9230 C   0  0  0  0  0  3  0  0  0  0  0  0
  -27.5770  -37.2270   24.7630 C   0  0  0  0  0  1  0  0  0  0  0  0
  -26.4810  -37.3980   23.8130 N   0  0  0  0  0  0  0  0  0  0  0  0
  -26.0790  -38.3210   23.9560 H   0  0  0  0  0  0  0  0  0  0  0  0
  1  4  1  0
  2 48  1  0
  2  5  1  0
  3  1  2  0
  3  2  1  0
  4  5  1  0
  5  8  1  0
  6  8  1  0
  8  7  1  0
  9  1  1  0
  9 19  1  0
 10 19  1  0
 11 16  1  0
 12 13  1  0
 12 11  1  0
 14 13  1  0
 14 23  1  0
 14 15  1  0
 16 10  1  0
 16 15  1  0
 17 10  2  0
 19 18  1  0
 20 21  2  0
 21 40  1  0
 22 21  1  0
 22 25  1  0
 23 24  1  0
 23 20  1  0
 24 22  2  0
 25 26  1  0
 26 27  2  0
 28 31  1  0
 28 27  1  0
 29 28  2  0
 30 29  1  0
 30 25  2  0
 31 32  1  0
 32 33  1  0
 33 34  2  0
 35 34  1  0
 35 39  1  0
 36 35  2  0
 37 32  2  0
 37 36  1  0
 38 37  1  0
 40 41  1  0
 41 44  1  0
 41 43  1  0
 42 40  2  0
 45 20  1  0
 45 46  1  0
 47 45  1  0
 49 50  1  0
 49 48  1  0
 51 62  2  0
 52 50  1  0
 52 57  1  0
 53 61  1  0
 53 63  1  0
 54 60  1  0
 54 56  1  0
 55 61  1  0
 56 57  2  0
 56 55  1  0
 58 52  2  0
 59 58  1  0
 59 54  2  0
 60 53  1  0
 61 51  1  0
 63 65  2  0
 64 63  1  0
 66 64  1  0
 67 76  2  0
 67 72  1  0
 68 64  1  0
 68 72  1  0
 69 68  1  0
 70 71  1  0
 70 69  1  0
 71 67  1  0
 72 73  2  0
 73 74  1  0
 75 74  2  0
 76 75  1  0
 77 51  1  0
 77 82  1  0
 77 78  1  0
 78 81  1  1
 78 79  1  0
 80 78  1  0
 82 85  1  0
 83 87  1  0
 83 82  1  0
 84 83  2  0
 87 86  1  0
 89 87  1  0
 89 90  1  0
 89 88  1  0
M  ISO  4  10 100  19 100  49 101  50 101
M  END
>  <TORSDO>  (47) 
F 20

>  <SCORE>  (47) 
-13.928

>  <name>  (47) 
46

>  <ligand_id>  (47) 
46

>  <original_smiles>  (47) 
[H]c1c([H])c([H])c2c(c1[H])C([H])([H])C([H])([H])C([H])([H])C2([H])N([H])C(=O)C1([H])N(C(=O)C([H])(N([H])C(=O)C([H])(N([H])C([H])([H])[H])C([H])([H])[H])C(C([H])([H])[H])(C([H])([H])[H])C([H])([H])[H])C([H])([H])c2c([H])c(OC([H])([H])C([H])([H])c3nc(C([H])([H])N(C(=O)N4C([H])([H])C([H])([H])C([H])([H])C([H])(n5nc(-c6c([H])c([H])c(Oc7c([H])c([H])c(F)c([H])c7F)c([H])c6[H])c(C(=O)N([H])[H])c5N([H])[H])C4([H])[H])C([H])([H])[H])nn3C([H])(C([H])([H])[H])C([H])([H])[H])c([H])c([H])c2C1([H])[H]

>  <smiles>  (47) 
[H]c1c([H])c([H])c2c(c1[H])C([H])([H])C([H])([H])C([H])([H])C2([H])N([H])C(=O)C1([H])N(C(=O)C([H])(N([H])C(=O)C([H])(N([H])C([H])([H])[H])C([H])([H])[H])C(C([H])([H])[H])(C([H])([H])[H])C([H])([H])[H])C([H])([H])c2c([H])c(OC([H])([H])C([H])([H])c3nc(C([H])([H])N(C(=O)N4C([H])([H])C([H])([H])C([H])([H])C([H])(n5nc(-c6c([H])c([H])c(Oc7c([H])c([H])c(F)c([H])c7F)c([H])c6[H])c(C(=O)N([H])[H])c5N([H])[H])C4([H])[H])C([H])([H])[H])nn3C([H])(C([H])([H])[H])C([H])([H])[H])c([H])c([H])c2C1([H])[H]

$$$$
47:0:0
     RDKit          3D

 87 95  0  0  1  0  0  0  0  0999 V2000
  -28.4660  -21.6070   20.1780 C   0  0  0  0  0  2  0  0  0  0  0  0
  -30.7820  -18.8160   20.8840 C   0  0  0  0  0  3  0  0  0  0  0  0
  -28.7750  -18.9040   20.1770 C   0  0  0  0  0  0  0  0  0  0  0  0
  -30.5310  -20.1080   20.8080 N   0  0  0  0  0  0  0  0  0  0  0  0
  -29.7480  -17.9680   20.4820 N   0  0  0  0  0  0  0  0  0  0  0  0
  -29.2430  -20.2110   20.3530 N   0  0  0  0  0  0  0  0  0  0  0  0
  -27.6220  -18.6160   19.8440 O   0  0  0  0  0  0  0  0  0  0  0  0
  -29.6350  -16.4070   20.8280 C   0  0  0  0  0  2  0  0  0  0  0  0
  -30.4700  -15.0420   20.3360 C   0  0  0  0  0  0  0  0  0  0  0  0
  -30.3970  -12.6810   19.3660 C   0  0  0  0  0  2  0  0  0  0  0  0
  -29.4580  -12.6630   18.1320 C   0  0  0  0  0  2  0  0  0  0  0  0
  -27.9910  -12.4470   18.5560 C   0  0  0  0  0  2  0  0  0  0  0  0
  -27.5880  -13.3490   19.7510 C   0  0  0  0  0  3  0  0  0  0  0  0
  -28.6440  -13.3260   20.8750 C   0  0  0  0  0  2  0  0  0  0  0  0
  -29.9240  -13.7530   20.2910 N   0  0  0  0  0  0  0  0  0  0  0  0
  -31.6430  -15.1480   19.9570 O   0  0  0  0  0  0  0  0  0  0  0  0
  -25.2080  -13.9280   20.4940 C   0  0  0  0  0  0  0  0  0  0  0  0
  -24.1430  -13.1530   20.8640 C   0  0  0  0  0  0  0  0  0  0  0  0
  -24.6070  -11.8020   20.8300 C   0  0  0  0  0  0  0  0  0  0  0  0
  -26.2490  -13.0490   20.2480 N   0  0  0  0  0  0  0  0  0  0  0  0
  -25.8970  -11.7650   20.5170 N   0  0  0  0  0  0  0  0  0  0  0  0
  -23.8780  -10.5400   21.0200 C   0  0  0  0  0  0  0  0  0  0  0  0
  -24.3090   -9.5690   21.9500 C   0  0  0  0  0  3  0  0  0  0  0  0
  -23.5790   -8.3730   22.1270 C   0  0  0  0  0  3  0  0  0  0  0  0
  -22.4040   -8.1410   21.3750 C   0  0  0  0  0  0  0  0  0  0  0  0
  -21.9920   -9.1010   20.4330 C   0  0  0  0  0  3  0  0  0  0  0  0
  -22.7230  -10.2870   20.2540 C   0  0  0  0  0  3  0  0  0  0  0  0
  -21.6460   -6.9980   21.4610 O   0  0  0  0  0  0  0  0  0  0  0  0
  -21.5970   -6.2510   22.6110 C   0  0  0  0  0  0  0  0  0  0  0  0
  -21.1660   -6.8010   23.8380 C   0  0  0  0  0  3  0  0  0  0  0  0
  -21.0650   -5.9810   24.9810 C   0  0  0  0  0  3  0  0  0  0  0  0
  -21.3850   -4.6130   24.8960 C   0  0  0  0  0  0  0  0  0  0  0  0
  -21.8080   -4.0630   23.6730 C   0  0  0  0  0  3  0  0  0  0  0  0
  -21.9110   -4.8790   22.5340 C   0  0  0  0  0  0  0  0  0  0  0  0
  -22.2990   -4.3400   21.3540 F   0  0  0  0  0  0  0  0  0  0  0  0
  -21.2800   -3.8240   25.9900 F   0  0  0  0  0  0  0  0  0  0  0  0
  -22.7470  -13.6310   21.1370 C   0  0  0  0  0  0  0  0  0  0  0  0
  -22.0170  -12.9360   22.0030 N   0  0  0  0  0  0  0  0  0  0  0  0
  -22.3110  -14.6570   20.6180 O   0  0  0  0  0  0  0  0  0  0  0  0
  -22.3830  -12.1050   22.4450 H   0  0  0  0  0  0  0  0  0  0  0  0
  -21.0810  -13.2380   22.2260 H   0  0  0  0  0  0  0  0  0  0  0  0
  -25.3710  -15.2990   20.3210 N   0  0  0  0  0  0  0  0  0  0  0  0
  -24.6030  -15.9490   20.4380 H   0  0  0  0  0  0  0  0  0  0  0  0
  -26.2140  -15.7460   19.9820 H   0  0  0  0  0  0  0  0  0  0  0  0
  -28.9560  -23.2290   20.3900 C   0  0  0  0  0  3  0  0  0  0  0  0
  -27.9610  -24.5970   20.1200 C   0  0  0  0  0  3  0  0  0  0  0  0
  -28.2330  -26.1400   20.2860 O   0  0  0  0  0  0  0  0  0  0  0  0
  -24.6160  -31.8890   23.2350 C   0  0  0  0  0  0  0  0  0  0  0  0
  -27.1830  -27.1410   20.2140 C   0  0  0  0  0  0  0  0  0  0  0  0
  -23.4120  -30.4920   21.6000 C   0  0  0  0  0  3  0  0  0  0  0  0
  -24.8570  -28.9090   20.1770 C   0  0  0  0  0  0  0  0  0  0  0  0
  -25.9690  -30.7450   21.4350 C   0  0  0  0  0  2  0  0  0  0  0  0
  -26.0400  -29.3490   20.7840 C   0  0  0  0  0  0  0  0  0  0  0  0
  -27.2020  -28.4830   20.7830 C   0  0  0  0  0  3  0  0  0  0  0  0
  -25.9710  -26.8090   19.5670 C   0  0  0  0  0  3  0  0  0  0  0  0
  -24.8380  -27.6530   19.5510 C   0  0  0  0  0  3  0  0  0  0  0  0
  -23.6320  -29.8100   20.2230 C   0  0  0  0  0  2  0  0  0  0  0  0
  -24.6860  -31.0650   22.1440 N   0  0  0  0  0  0  0  0  0  0  0  0
  -23.5310  -32.1780   23.7630 O   0  0  0  0  0  0  0  0  0  0  0  0
  -22.7300  -29.4910   22.5670 C   0  0  0  0  0  0  0  0  0  0  0  0
  -21.4010  -29.3220   22.4400 N   0  0  0  0  0  0  0  0  0  0  0  0
  -23.3990  -28.8680   23.3950 O   0  0  0  0  0  0  0  0  0  0  0  0
  -20.9170  -29.8760   21.7480 H   0  0  0  0  0  0  0  0  0  0  0  0
  -18.0190  -28.1250   22.9470 C   0  0  0  0  0  0  0  0  0  0  0  0
  -20.5780  -28.3880   23.2140 C   0  0  0  0  0  3  0  0  0  0  0  0
  -20.6790  -26.9530   22.6460 C   0  0  0  0  0  2  0  0  0  0  0  0
  -19.5780  -26.6270   21.6320 C   0  0  0  0  0  2  0  0  0  0  0  0
  -18.1960  -26.7740   22.2740 C   0  0  0  0  0  2  0  0  0  0  0  0
  -19.1370  -28.8900   23.3740 C   0  0  0  0  0  0  0  0  0  0  0  0
  -18.9160  -30.1520   23.9650 C   0  0  0  0  0  3  0  0  0  0  0  0
  -17.6110  -30.6520   24.1310 C   0  0  0  0  0  3  0  0  0  0  0  0
  -16.5070  -29.8850   23.7200 C   0  0  0  0  0  3  0  0  0  0  0  0
  -16.7120  -28.6230   23.1340 C   0  0  0  0  0  3  0  0  0  0  0  0
  -25.8950  -32.5250   23.8610 C   0  0  0  0  0  3  0  0  0  0  0  0
  -26.4050  -31.7560   25.1430 C   0  0  1  0  0  0  0  0  0  0  0  0
  -25.3090  -31.5260   26.2090 C   0  0  0  0  0  1  0  0  0  0  0  0
  -26.9850  -30.3740   24.7630 C   0  0  0  0  0  1  0  0  0  0  0  0
  -27.5560  -32.5500   25.8050 C   0  0  0  0  0  1  0  0  0  0  0  0
  -25.5850  -33.9240   24.1940 N   0  0  0  0  0  0  0  0  0  0  0  0
  -25.9060  -34.9810   23.4340 C   0  0  0  0  0  0  0  0  0  0  0  0
  -26.5590  -34.8790   22.3930 O   0  0  0  0  0  0  0  0  0  0  0  0
  -25.0010  -34.0760   25.0030 H   0  0  0  0  0  0  0  0  0  0  0  0
  -24.1680  -36.7750   23.1190 C   0  0  0  0  0  1  0  0  0  0  0  0
  -25.4270  -36.3690   23.9030 C   0  0  0  0  0  3  0  0  0  0  0  0
  -27.5760  -37.2620   24.6900 C   0  0  0  0  0  1  0  0  0  0  0  0
  -26.4560  -37.4250   23.7670 N   0  0  0  0  0  0  0  0  0  0  0  0
  -26.0510  -38.3440   23.9190 H   0  0  0  0  0  0  0  0  0  0  0  0
  1  6  1  0
  1 45  1  0
  3  6  1  0
  3  5  1  0
  4  2  2  0
  5  8  1  0
  5  2  1  0
  6  4  1  0
  7  3  2  0
  9  8  1  0
 10 15  1  0
 11 12  1  0
 11 10  1  0
 13 12  1  0
 13 20  1  0
 13 14  1  0
 15  9  1  0
 15 14  1  0
 16  9  2  0
 17 18  2  0
 18 37  1  0
 19 18  1  0
 19 22  1  0
 20 17  1  0
 20 21  1  0
 21 19  2  0
 22 23  1  0
 23 24  2  0
 25 28  1  0
 25 24  1  0
 26 25  2  0
 27 26  1  0
 27 22  2  0
 28 29  1  0
 29 30  1  0
 30 31  2  0
 32 31  1  0
 32 36  1  0
 33 32  2  0
 34 29  2  0
 34 33  1  0
 35 34  1  0
 37 38  1  0
 38 41  1  0
 38 40  1  0
 39 37  2  0
 42 43  1  0
 42 17  1  0
 44 42  1  0
 46 47  1  0
 46 45  2  0
 48 59  2  0
 49 47  1  0
 49 54  1  0
 50 58  1  0
 50 60  1  0
 51 57  1  0
 51 53  1  0
 52 58  1  0
 53 52  1  0
 54 53  2  0
 55 49  2  0
 56 55  1  0
 56 51  2  0
 57 50  1  0
 58 48  1  0
 60 62  2  0
 61 60  1  0
 63 61  1  0
 64 73  2  0
 64 69  1  0
 65 61  1  0
 65 69  1  0
 66 65  1  0
 67 68  1  0
 67 66  1  0
 68 64  1  0
 69 70  2  0
 70 71  1  0
 72 71  2  0
 73 72  1  0
 74 48  1  0
 74 79  1  0
 74 75  1  0
 75 78  1  1
 75 76  1  0
 77 75  1  0
 79 82  1  0
 80 84  1  0
 80 79  1  0
 81 80  2  0
 84 83  1  0
 86 84  1  0
 86 87  1  0
 86 85  1  0
M  ISO  4   8 100   9 100  46 101  47 101
M  END
>  <TORSDO>  (48) 
F 20

>  <SCORE>  (48) 
-15.223

>  <name>  (48) 
47

>  <ligand_id>  (48) 
47

>  <original_smiles>  (48) 
[H]c1c([H])c([H])c2c(c1[H])C([H])([H])C([H])([H])C([H])([H])C2([H])N([H])C(=O)C1([H])N(C(=O)C([H])(N([H])C(=O)C([H])(N([H])C([H])([H])[H])C([H])([H])[H])C(C([H])([H])[H])(C([H])([H])[H])C([H])([H])[H])C([H])([H])c2c([H])c(OC([H])([H])C([H])([H])C([H])([H])n3nc([H])n(C([H])([H])C(=O)N4C([H])([H])C([H])([H])C([H])([H])C([H])(n5nc(-c6c([H])c([H])c(Oc7c([H])c([H])c(F)c([H])c7F)c([H])c6[H])c(C(=O)N([H])[H])c5N([H])[H])C4([H])[H])c3=O)c([H])c([H])c2C1([H])[H]

>  <smiles>  (48) 
[H]c1c([H])c([H])c2c(c1[H])C([H])([H])C([H])([H])C([H])([H])C2([H])N([H])C(=O)C1([H])N(C(=O)C([H])(N([H])C(=O)C([H])(N([H])C([H])([H])[H])C([H])([H])[H])C(C([H])([H])[H])(C([H])([H])[H])C([H])([H])[H])C([H])([H])c2c([H])c(OC([H])([H])C([H])([H])C([H])([H])n3nc([H])n(C([H])([H])C(=O)N4C([H])([H])C([H])([H])C([H])([H])C([H])(n5nc(-c6c([H])c([H])c(Oc7c([H])c([H])c(F)c([H])c7F)c([H])c6[H])c(C(=O)N([H])[H])c5N([H])[H])C4([H])[H])c3=O)c([H])c([H])c2C1([H])[H]

$$$$
48:0:0
     RDKit          3D

 88 96  0  0  1  0  0  0  0  0999 V2000
  -28.9390  -19.1060   20.2560 C   0  0  0  0  0  3  0  0  0  0  0  0
  -31.0250  -18.7130   20.3310 C   0  0  0  0  0  3  0  0  0  0  0  0
  -29.5190  -20.3990   20.2150 C   0  0  0  0  0  0  0  0  0  0  0  0
  -30.8930  -20.0740   20.2500 N   0  0  0  0  0  0  0  0  0  0  0  0
  -29.8800  -17.9940   20.3140 N   0  0  0  0  0  0  0  0  0  0  0  0
  -28.7550  -16.4150   18.9060 C   0  0  0  0  0  1  0  0  0  0  0  0
  -28.5480  -16.3010   21.4820 C   0  0  0  0  0  1  0  0  0  0  0  0
  -29.5050  -16.4450   20.2710 C   0  0  2  0  0  0  0  0  0  0  0  0
  -30.4720  -15.0460   20.2520 C   0  0  0  0  0  0  0  0  0  0  0  0
  -30.4440  -12.6640   19.3380 C   0  0  0  0  0  2  0  0  0  0  0  0
  -29.4750  -12.5770   18.1290 C   0  0  0  0  0  2  0  0  0  0  0  0
  -28.0090  -12.3610   18.5720 C   0  0  0  0  0  2  0  0  0  0  0  0
  -27.6130  -13.2550   19.7740 C   0  0  0  0  0  3  0  0  0  0  0  0
  -28.7070  -13.2230   20.8640 C   0  0  0  0  0  2  0  0  0  0  0  0
  -29.9570  -13.7330   20.2600 N   0  0  0  0  0  0  0  0  0  0  0  0
  -31.6780  -15.1430   19.9970 O   0  0  0  0  0  0  0  0  0  0  0  0
  -25.2360  -13.8640   20.5140 C   0  0  0  0  0  0  0  0  0  0  0  0
  -24.1710  -13.0960   20.8920 C   0  0  0  0  0  0  0  0  0  0  0  0
  -24.6280  -11.7440   20.8500 C   0  0  0  0  0  0  0  0  0  0  0  0
  -26.2770  -12.9760   20.2790 N   0  0  0  0  0  0  0  0  0  0  0  0
  -25.9170  -11.6970   20.5370 N   0  0  0  0  0  0  0  0  0  0  0  0
  -23.8960  -10.4870   21.0310 C   0  0  0  0  0  0  0  0  0  0  0  0
  -24.3240   -9.5150   21.9590 C   0  0  0  0  0  3  0  0  0  0  0  0
  -23.5930   -8.3200   22.1310 C   0  0  0  0  0  3  0  0  0  0  0  0
  -22.4200   -8.0930   21.3720 C   0  0  0  0  0  0  0  0  0  0  0  0
  -22.0130   -9.0550   20.4310 C   0  0  0  0  0  3  0  0  0  0  0  0
  -22.7450  -10.2400   20.2580 C   0  0  0  0  0  3  0  0  0  0  0  0
  -21.6590   -6.9530   21.4550 O   0  0  0  0  0  0  0  0  0  0  0  0
  -21.5880   -6.2190   22.6120 C   0  0  0  0  0  0  0  0  0  0  0  0
  -21.1420   -6.7850   23.8260 C   0  0  0  0  0  3  0  0  0  0  0  0
  -21.0180   -5.9770   24.9740 C   0  0  0  0  0  3  0  0  0  0  0  0
  -21.3310   -4.6070   24.9080 C   0  0  0  0  0  0  0  0  0  0  0  0
  -21.7710   -4.0410   23.6990 C   0  0  0  0  0  3  0  0  0  0  0  0
  -21.8960   -4.8460   22.5530 C   0  0  0  0  0  0  0  0  0  0  0  0
  -22.3020   -4.2920   21.3850 F   0  0  0  0  0  0  0  0  0  0  0  0
  -21.2040   -3.8280   26.0090 F   0  0  0  0  0  0  0  0  0  0  0  0
  -22.7800  -13.5830   21.1760 C   0  0  0  0  0  0  0  0  0  0  0  0
  -22.0580  -12.8910   22.0500 N   0  0  0  0  0  0  0  0  0  0  0  0
  -22.3430  -14.6120   20.6610 O   0  0  0  0  0  0  0  0  0  0  0  0
  -22.4250  -12.0590   22.4870 H   0  0  0  0  0  0  0  0  0  0  0  0
  -21.1250  -13.1970   22.2860 H   0  0  0  0  0  0  0  0  0  0  0  0
  -25.3830  -15.2340   20.3240 N   0  0  0  0  0  0  0  0  0  0  0  0
  -24.6040  -15.8740   20.4300 H   0  0  0  0  0  0  0  0  0  0  0  0
  -26.2190  -15.6810   19.9750 H   0  0  0  0  0  0  0  0  0  0  0  0
  -28.8310  -21.8550   19.8540 C   0  0  0  0  0  2  0  0  0  0  0  0
  -29.0970  -23.4070   20.4430 C   0  0  0  0  0  3  0  0  0  0  0  0
  -28.1190  -24.7180   20.0230 C   0  0  0  0  0  3  0  0  0  0  0  0
  -28.3090  -26.2320   20.3210 O   0  0  0  0  0  0  0  0  0  0  0  0
  -24.6380  -31.8960   23.2530 C   0  0  0  0  0  0  0  0  0  0  0  0
  -27.2320  -27.1910   20.2340 C   0  0  0  0  0  0  0  0  0  0  0  0
  -23.4390  -30.5010   21.6100 C   0  0  0  0  0  3  0  0  0  0  0  0
  -24.8900  -28.9210   20.1920 C   0  0  0  0  0  0  0  0  0  0  0  0
  -25.9920  -30.7660   21.4510 C   0  0  0  0  0  2  0  0  0  0  0  0
  -26.0670  -29.3740   20.8020 C   0  0  0  0  0  0  0  0  0  0  0  0
  -27.2350  -28.5250   20.8060 C   0  0  0  0  0  3  0  0  0  0  0  0
  -26.0280  -26.8350   19.5830 C   0  0  0  0  0  3  0  0  0  0  0  0
  -24.8830  -27.6630   19.5680 C   0  0  0  0  0  3  0  0  0  0  0  0
  -23.6610  -29.8160   20.2350 C   0  0  0  0  0  2  0  0  0  0  0  0
  -24.7090  -31.0760   22.1590 N   0  0  0  0  0  0  0  0  0  0  0  0
  -23.5520  -32.1840   23.7770 O   0  0  0  0  0  0  0  0  0  0  0  0
  -22.7530  -29.4990   22.5730 C   0  0  0  0  0  0  0  0  0  0  0  0
  -21.4250  -29.3340   22.4420 N   0  0  0  0  0  0  0  0  0  0  0  0
  -23.4200  -28.8710   23.3990 O   0  0  0  0  0  0  0  0  0  0  0  0
  -20.9440  -29.8920   21.7520 H   0  0  0  0  0  0  0  0  0  0  0  0
  -18.0350  -28.1530   22.9380 C   0  0  0  0  0  0  0  0  0  0  0  0
  -20.5950  -28.4020   23.2110 C   0  0  0  0  0  3  0  0  0  0  0  0
  -20.6900  -26.9690   22.6370 C   0  0  0  0  0  2  0  0  0  0  0  0
  -19.5890  -26.6520   21.6210 C   0  0  0  0  0  2  0  0  0  0  0  0
  -18.2070  -26.8040   22.2610 C   0  0  0  0  0  2  0  0  0  0  0  0
  -19.1580  -28.9110   23.3690 C   0  0  0  0  0  0  0  0  0  0  0  0
  -18.9430  -30.1730   23.9630 C   0  0  0  0  0  3  0  0  0  0  0  0
  -17.6390  -30.6790   24.1280 C   0  0  0  0  0  3  0  0  0  0  0  0
  -16.5320  -29.9190   23.7110 C   0  0  0  0  0  3  0  0  0  0  0  0
  -16.7320  -28.6580   23.1230 C   0  0  0  0  0  3  0  0  0  0  0  0
  -25.9170  -32.5270   23.8840 C   0  0  0  0  0  3  0  0  0  0  0  0
  -26.4250  -31.7520   25.1620 C   0  0  1  0  0  0  0  0  0  0  0  0
  -25.3260  -31.5160   26.2240 C   0  0  0  0  0  1  0  0  0  0  0  0
  -27.0060  -30.3730   24.7730 C   0  0  0  0  0  1  0  0  0  0  0  0
  -27.5750  -32.5410   25.8300 C   0  0  0  0  0  1  0  0  0  0  0  0
  -25.6060  -33.9240   24.2220 N   0  0  0  0  0  0  0  0  0  0  0  0
  -25.9240  -34.9830   23.4660 C   0  0  0  0  0  0  0  0  0  0  0  0
  -26.5760  -34.8860   22.4220 O   0  0  0  0  0  0  0  0  0  0  0  0
  -25.0250  -34.0740   25.0340 H   0  0  0  0  0  0  0  0  0  0  0  0
  -24.1770  -36.7710   23.1670 C   0  0  0  0  0  1  0  0  0  0  0  0
  -25.4460  -36.3710   23.9390 C   0  0  0  0  0  3  0  0  0  0  0  0
  -27.6000  -37.2670   24.7030 C   0  0  0  0  0  1  0  0  0  0  0  0
  -26.4690  -37.4290   23.7940 N   0  0  0  0  0  0  0  0  0  0  0  0
  -26.0630  -38.3470   23.9520 H   0  0  0  0  0  0  0  0  0  0  0  0
  1  5  1  0
  3  4  1  0
  3  1  2  0
  4  2  2  0
  5  2  1  0
  8  6  1  6
  8  5  1  0
  8  7  1  0
  9 15  1  0
  9  8  1  0
 10 15  1  0
 11 12  1  0
 11 10  1  0
 13 12  1  0
 13 20  1  0
 13 14  1  0
 15 14  1  0
 16  9  2  0
 17 18  2  0
 18 37  1  0
 19 18  1  0
 19 22  1  0
 20 17  1  0
 20 21  1  0
 21 19  2  0
 22 23  1  0
 23 24  2  0
 25 28  1  0
 25 24  1  0
 26 25  2  0
 27 26  1  0
 27 22  2  0
 28 29  1  0
 29 30  1  0
 30 31  2  0
 32 31  1  0
 32 36  1  0
 33 32  2  0
 34 29  2  0
 34 33  1  0
 35 34  1  0
 37 38  1  0
 38 41  1  0
 38 40  1  0
 39 37  2  0
 42 43  1  0
 42 17  1  0
 44 42  1  0
 45  3  1  0
 45 46  1  0
 47 48  1  0
 47 46  2  0
 49 60  2  0
 50 48  1  0
 50 55  1  0
 51 59  1  0
 51 61  1  0
 52 58  1  0
 52 54  1  0
 53 59  1  0
 54 55  2  0
 54 53  1  0
 56 50  2  0
 57 56  1  0
 57 52  2  0
 58 51  1  0
 59 49  1  0
 61 63  2  0
 62 61  1  0
 64 62  1  0
 65 74  2  0
 65 70  1  0
 66 62  1  0
 66 70  1  0
 67 66  1  0
 68 69  1  0
 68 67  1  0
 69 65  1  0
 70 71  2  0
 71 72  1  0
 73 72  2  0
 74 73  1  0
 75 49  1  0
 75 80  1  0
 75 76  1  0
 76 79  1  1
 76 77  1  0
 78 76  1  0
 80 83  1  0
 81 85  1  0
 81 80  1  0
 82 81  2  0
 85 84  1  0
 87 85  1  0
 87 88  1  0
 87 86  1  0
M  ISO  4   8 100   9 100  47 101  48 101
M  END
>  <TORSDO>  (49) 
F 20

>  <SCORE>  (49) 
-13.408

>  <name>  (49) 
48

>  <ligand_id>  (49) 
48

>  <original_smiles>  (49) 
[H]c1c([H])c([H])c2c(c1[H])C([H])([H])C([H])([H])C([H])([H])C2([H])N([H])C(=O)C1([H])N(C(=O)C([H])(N([H])C(=O)C([H])(N([H])C([H])([H])[H])C([H])([H])[H])C(C([H])([H])[H])(C([H])([H])[H])C([H])([H])[H])C([H])([H])c2c([H])c(OC([H])([H])C([H])([H])C([H])([H])c3nc([H])n(C(C(=O)N4C([H])([H])C([H])([H])C([H])([H])C([H])(n5nc(-c6c([H])c([H])c(Oc7c([H])c([H])c(F)c([H])c7F)c([H])c6[H])c(C(=O)N([H])[H])c5N([H])[H])C4([H])[H])(C([H])([H])[H])C([H])([H])[H])c3[H])c([H])c([H])c2C1([H])[H]

>  <smiles>  (49) 
[H]c1c([H])c([H])c2c(c1[H])C([H])([H])C([H])([H])C([H])([H])C2([H])N([H])C(=O)C1([H])N(C(=O)C([H])(N([H])C(=O)C([H])(N([H])C([H])([H])[H])C([H])([H])[H])C(C([H])([H])[H])(C([H])([H])[H])C([H])([H])[H])C([H])([H])c2c([H])c(OC([H])([H])C([H])([H])C([H])([H])c3nc([H])n(C(C(=O)N4C([H])([H])C([H])([H])C([H])([H])C([H])(n5nc(-c6c([H])c([H])c(Oc7c([H])c([H])c(F)c([H])c7F)c([H])c6[H])c(C(=O)N([H])[H])c5N([H])[H])C4([H])[H])(C([H])([H])[H])C([H])([H])[H])c3[H])c([H])c([H])c2C1([H])[H]

$$$$
49:0:0
     RDKit          3D

 95103  0  0  1  0  0  0  0  0999 V2000
  -27.7100  -20.5820   19.6760 C   0  0  0  0  0  3  0  0  0  0  0  0
  -27.3180  -19.3040   19.2150 C   0  0  0  0  0  0  0  0  0  0  0  0
  -29.0570  -20.5290   19.9180 C   0  0  0  0  0  0  0  0  0  0  0  0
  -28.3490  -18.4800   19.1820 N   0  0  0  0  0  0  0  0  0  0  0  0
  -29.4550  -19.1750   19.5460 N   0  0  0  0  0  0  0  0  0  0  0  0
  -24.9520  -20.0300   18.7550 C   0  0  0  0  0  1  0  0  0  0  0  0
  -25.4010  -17.8410   19.8910 C   0  0  0  0  0  1  0  0  0  0  0  0
  -25.9400  -18.1550   17.4560 C   0  0  0  0  0  1  0  0  0  0  0  0
  -25.9220  -18.8310   18.8360 C   0  0  2  0  0  0  0  0  0  0  0  0
  -29.8150  -21.8090   20.4330 C   0  0  0  0  0  2  0  0  0  0  0  0
  -28.9420  -23.1440   20.8180 C   0  0  0  0  0  2  0  0  0  0  0  0
  -29.4760  -24.6490   20.5770 C   0  0  0  0  0  2  0  0  0  0  0  0
  -29.0320  -25.8210   21.4060 O   0  0  0  0  0  0  0  0  0  0  0  0
  -25.1220  -31.5520   23.4680 C   0  0  0  0  0  0  0  0  0  0  0  0
  -27.9260  -26.6550   21.1390 C   0  0  0  0  0  0  0  0  0  0  0  0
  -24.0620  -30.0190   21.8480 C   0  0  0  0  0  3  0  0  0  0  0  0
  -25.6130  -28.3130   20.7320 C   0  0  0  0  0  0  0  0  0  0  0  0
  -26.6140  -30.2740   21.9080 C   0  0  0  0  0  2  0  0  0  0  0  0
  -26.7240  -28.8370   21.4000 C   0  0  0  0  0  0  0  0  0  0  0  0
  -27.8820  -28.0170   21.5910 C   0  0  0  0  0  3  0  0  0  0  0  0
  -26.7900  -26.1840   20.4460 C   0  0  0  0  0  3  0  0  0  0  0  0
  -25.6520  -26.9940   20.2470 C   0  0  0  0  0  3  0  0  0  0  0  0
  -24.4000  -29.2070   20.5680 C   0  0  0  0  0  2  0  0  0  0  0  0
  -25.2790  -30.6390   22.4630 N   0  0  0  0  0  0  0  0  0  0  0  0
  -23.9950  -31.8960   23.8560 O   0  0  0  0  0  0  0  0  0  0  0  0
  -23.2770  -29.1140   22.8250 C   0  0  0  0  0  0  0  0  0  0  0  0
  -21.9770  -28.9110   22.5520 N   0  0  0  0  0  0  0  0  0  0  0  0
  -23.8420  -28.5890   23.7890 O   0  0  0  0  0  0  0  0  0  0  0  0
  -21.5810  -29.3840   21.7520 H   0  0  0  0  0  0  0  0  0  0  0  0
  -18.5360  -27.8210   22.8120 C   0  0  0  0  0  0  0  0  0  0  0  0
  -21.0610  -28.0570   23.3120 C   0  0  0  0  0  3  0  0  0  0  0  0
  -21.1810  -26.5800   22.8690 C   0  0  0  0  0  2  0  0  0  0  0  0
  -20.1750  -26.1940   21.7790 C   0  0  0  0  0  2  0  0  0  0  0  0
  -18.7420  -26.4180   22.2690 C   0  0  0  0  0  2  0  0  0  0  0  0
  -19.6260  -28.5960   23.2870 C   0  0  0  0  0  0  0  0  0  0  0  0
  -19.3840  -29.9080   23.7500 C   0  0  0  0  0  3  0  0  0  0  0  0
  -18.0830  -30.4440   23.7450 C   0  0  0  0  0  3  0  0  0  0  0  0
  -17.0030  -29.6660   23.2890 C   0  0  0  0  0  3  0  0  0  0  0  0
  -17.2310  -28.3580   22.8280 C   0  0  0  0  0  3  0  0  0  0  0  0
  -26.3470  -32.2240   24.1620 C   0  0  0  0  0  3  0  0  0  0  0  0
  -25.9800  -33.6140   24.4680 N   0  0  0  0  0  0  0  0  0  0  0  0
  -26.2580  -34.6660   23.6860 C   0  0  0  0  0  0  0  0  0  0  0  0
  -26.9200  -34.5730   22.6500 O   0  0  0  0  0  0  0  0  0  0  0  0
  -25.3870  -33.7600   25.2720 H   0  0  0  0  0  0  0  0  0  0  0  0
  -24.4090  -36.3440   23.3750 C   0  0  0  0  0  1  0  0  0  0  0  0
  -25.7180  -36.0420   24.1240 C   0  0  0  0  0  3  0  0  0  0  0  0
  -27.8440  -37.0720   24.7880 C   0  0  0  0  0  1  0  0  0  0  0  0
  -26.6780  -37.1480   23.9120 N   0  0  0  0  0  0  0  0  0  0  0  0
  -26.2280  -38.0480   24.0590 H   0  0  0  0  0  0  0  0  0  0  0  0
  -26.8070  -31.4740   25.4740 C   0  0  1  0  0  0  0  0  0  0  0  0
  -25.6410  -31.1060   26.4200 C   0  0  0  0  0  1  0  0  0  0  0  0
  -27.5600  -30.1690   25.1230 C   0  0  0  0  0  1  0  0  0  0  0  0
  -27.8010  -32.3600   26.2630 C   0  0  0  0  0  1  0  0  0  0  0  0
  -30.7160  -18.3220   19.5370 C   0  0  0  0  0  2  0  0  0  0  0  0
  -30.6290  -16.7060   19.1970 C   0  0  0  0  0  2  0  0  0  0  0  0
  -31.5770  -14.3260   19.6570 C   0  0  0  0  0  0  0  0  0  0  0  0
  -31.1190  -12.0260   18.7570 C   0  0  0  0  0  2  0  0  0  0  0  0
  -30.1270  -12.1050   17.5730 C   0  0  0  0  0  2  0  0  0  0  0  0
  -28.6730  -12.0890   18.0780 C   0  0  0  0  0  2  0  0  0  0  0  0
  -28.4430  -13.0740   19.2540 C   0  0  0  0  0  3  0  0  0  0  0  0
  -29.5400  -12.9380   20.3290 C   0  0  0  0  0  2  0  0  0  0  0  0
  -30.8340  -13.1600   19.6730 N   0  0  0  0  0  0  0  0  0  0  0  0
  -32.6830  -14.3200   19.1050 O   0  0  0  0  0  0  0  0  0  0  0  0
  -31.0340  -15.5350   20.1230 N   0  0  0  0  0  0  0  0  0  0  0  0
  -26.1760  -13.9250   20.1000 C   0  0  0  0  0  0  0  0  0  0  0  0
  -25.0560  -13.2790   20.5440 C   0  0  0  0  0  0  0  0  0  0  0  0
  -25.3640  -11.8860   20.5020 C   0  0  0  0  0  0  0  0  0  0  0  0
  -27.1050  -12.9370   19.8210 N   0  0  0  0  0  0  0  0  0  0  0  0
  -26.6250  -11.7030   20.1220 N   0  0  0  0  0  0  0  0  0  0  0  0
  -24.5140  -10.7140   20.7440 C   0  0  0  0  0  0  0  0  0  0  0  0
  -24.8590   -9.7390   21.7060 C   0  0  0  0  0  3  0  0  0  0  0  0
  -24.0160   -8.6300   21.9340 C   0  0  0  0  0  3  0  0  0  0  0  0
  -22.8150   -8.4880   21.2000 C   0  0  0  0  0  0  0  0  0  0  0  0
  -22.4880   -9.4520   20.2290 C   0  0  0  0  0  3  0  0  0  0  0  0
  -23.3300  -10.5520   19.9980 C   0  0  0  0  0  3  0  0  0  0  0  0
  -21.9480   -7.4320   21.3380 O   0  0  0  0  0  0  0  0  0  0  0  0
  -21.7680   -6.7980   22.5430 C   0  0  0  0  0  0  0  0  0  0  0  0
  -21.3690   -7.5010   23.7010 C   0  0  0  0  0  3  0  0  0  0  0  0
  -21.1300   -6.8020   24.9010 C   0  0  0  0  0  3  0  0  0  0  0  0
  -21.2790   -5.4030   24.9430 C   0  0  0  0  0  0  0  0  0  0  0  0
  -21.6690   -4.7010   23.7890 C   0  0  0  0  0  3  0  0  0  0  0  0
  -21.9110   -5.3970   22.5920 C   0  0  0  0  0  0  0  0  0  0  0  0
  -22.2680   -4.7140   21.4770 F   0  0  0  0  0  0  0  0  0  0  0  0
  -21.0380   -4.7290   26.0930 F   0  0  0  0  0  0  0  0  0  0  0  0
  -23.7400  -13.9120   20.8910 C   0  0  0  0  0  0  0  0  0  0  0  0
  -23.0380  -13.3650   21.8780 N   0  0  0  0  0  0  0  0  0  0  0  0
  -23.3470  -14.9290   20.3210 O   0  0  0  0  0  0  0  0  0  0  0  0
  -23.3660  -12.5400   22.3600 H   0  0  0  0  0  0  0  0  0  0  0  0
  -22.1560  -13.7740   22.1520 H   0  0  0  0  0  0  0  0  0  0  0  0
  -26.4750  -15.2650   19.8860 N   0  0  0  0  0  0  0  0  0  0  0  0
  -25.8010  -15.9980   20.0780 H   0  0  0  0  0  0  0  0  0  0  0  0
  -27.3690  -15.6210   19.5800 H   0  0  0  0  0  0  0  0  0  0  0  0
  -29.8740  -16.2170   22.2370 C   0  0  0  0  0  1  0  0  0  0  0  0
  -32.0700  -14.9940   22.4100 C   0  0  0  0  0  1  0  0  0  0  0  0
  -31.2240  -15.9520   21.5400 C   0  0  0  0  0  3  0  0  0  0  0  0
  1  3  2  0
  2  1  1  0
  3 10  1  0
  4  2  2  0
  4  5  1  0
  5  3  1  0
  9  6  1  6
  8  9  1  0
  9  2  1  0
  9  7  1  0
 10 11  1  0
 12 11  1  0
 12 13  1  0
 14 25  2  0
 15 13  1  0
 15 20  1  0
 16 24  1  0
 16 26  1  0
 17 19  1  0
 18 24  1  0
 19 20  2  0
 19 18  1  0
 21 15  2  0
 22 21  1  0
 22 17  2  0
 23 17  1  0
 23 16  1  0
 24 14  1  0
 26 28  2  0
 27 26  1  0
 29 27  1  0
 30 39  2  0
 30 35  1  0
 31 27  1  0
 32 31  1  0
 33 34  1  0
 33 32  1  0
 34 30  1  0
 35 31  1  0
 35 36  2  0
 37 36  1  0
 38 37  2  0
 39 38  1  0
 40 14  1  0
 40 41  1  0
 40 50  1  0
 41 44  1  0
 42 46  1  0
 42 41  1  0
 43 42  2  0
 46 45  1  0
 48 49  1  0
 48 46  1  0
 48 47  1  0
 50 53  1  1
 50 51  1  0
 52 50  1  0
 54  5  1  0
 55 54  1  0
 55 64  1  0
 56 62  1  0
 56 64  1  0
 57 62  1  0
 58 59  1  0
 58 57  1  0
 60 59  1  0
 60 68  1  0
 60 61  1  0
 62 61  1  0
 63 56  2  0
 64 95  1  0
 65 66  2  0
 66 85  1  0
 67 66  1  0
 67 70  1  0
 68 65  1  0
 68 69  1  0
 69 67  2  0
 70 71  1  0
 71 72  2  0
 73 76  1  0
 73 72  1  0
 74 73  2  0
 75 74  1  0
 75 70  2  0
 76 77  1  0
 77 82  2  0
 77 78  1  0
 78 79  2  0
 79 80  1  0
 80 84  1  0
 81 80  2  0
 82 81  1  0
 83 82  1  0
 85 86  1  0
 86 89  1  0
 86 88  1  0
 87 85  2  0
 90 91  1  0
 90 65  1  0
 92 90  1  0
 95 93  1  0
 95 94  1  0
M  ISO  4  12 101  13 101  56 100  64 100
M  END
>  <TORSDO>  (50) 
F 23

>  <SCORE>  (50) 
-5.224

>  <name>  (50) 
49

>  <ligand_id>  (50) 
49

>  <original_smiles>  (50) 
[H]c1c([H])c([H])c2c(c1[H])C([H])([H])C([H])([H])C([H])([H])C2([H])N([H])C(=O)C1([H])N(C(=O)C([H])(N([H])C(=O)C([H])(N([H])C([H])([H])[H])C([H])([H])[H])C(C([H])([H])[H])(C([H])([H])[H])C([H])([H])[H])C([H])([H])c2c([H])c(OC([H])([H])C([H])([H])C([H])([H])c3c([H])c(C(C([H])([H])[H])(C([H])([H])[H])C([H])([H])[H])nn3C([H])([H])C([H])([H])N(C(=O)N3C([H])([H])C([H])([H])C([H])([H])C([H])(n4nc(-c5c([H])c([H])c(Oc6c([H])c([H])c(F)c([H])c6F)c([H])c5[H])c(C(=O)N([H])[H])c4N([H])[H])C3([H])[H])C([H])(C([H])([H])[H])C([H])([H])[H])c([H])c([H])c2C1([H])[H]

>  <smiles>  (50) 
[H]c1c([H])c([H])c2c(c1[H])C([H])([H])C([H])([H])C([H])([H])C2([H])N([H])C(=O)C1([H])N(C(=O)C([H])(N([H])C(=O)C([H])(N([H])C([H])([H])[H])C([H])([H])[H])C(C([H])([H])[H])(C([H])([H])[H])C([H])([H])[H])C([H])([H])c2c([H])c(OC([H])([H])C([H])([H])C([H])([H])c3c([H])c(C(C([H])([H])[H])(C([H])([H])[H])C([H])([H])[H])nn3C([H])([H])C([H])([H])N(C(=O)N3C([H])([H])C([H])([H])C([H])([H])C([H])(n4nc(-c5c([H])c([H])c(Oc6c([H])c([H])c(F)c([H])c6F)c([H])c5[H])c(C(=O)N([H])[H])c4N([H])[H])C3([H])[H])C([H])(C([H])([H])[H])C([H])([H])[H])c([H])c([H])c2C1([H])[H]

$$$$
50:0:0
     RDKit          3D

 88 96  0  0  1  0  0  0  0  0999 V2000
  -28.9770  -22.7470   22.3560 C   0  0  0  0  0  1  0  0  0  0  0  0
  -30.9380  -22.9770   20.7660 C   0  0  0  0  0  1  0  0  0  0  0  0
  -29.3710  -22.7620   20.8300 C   0  0  1  0  0  0  0  0  0  0  0  0
  -29.3600  -19.7370   20.9630 C   0  0  0  0  0  3  0  0  0  0  0  0
  -29.9380  -19.1980   19.0190 C   0  0  0  0  0  3  0  0  0  0  0  0
  -29.3650  -21.0600   20.3050 C   0  0  0  0  0  0  0  0  0  0  0  0
  -29.7590  -20.5680   19.0310 N   0  0  0  0  0  0  0  0  0  0  0  0
  -29.7630  -18.5070   20.1850 N   0  0  0  0  0  0  0  0  0  0  0  0
  -29.9260  -16.7960   22.0850 C   0  0  0  0  0  1  0  0  0  0  0  0
  -29.7680  -16.8500   20.5500 C   0  0  0  0  0  3  0  0  0  0  0  0
  -30.5580  -15.3820   19.9600 C   0  0  0  0  0  0  0  0  0  0  0  0
  -30.4870  -12.9720   18.9370 C   0  0  0  0  0  2  0  0  0  0  0  0
  -29.4690  -12.8330   17.7730 C   0  0  0  0  0  2  0  0  0  0  0  0
  -28.0470  -12.5580   18.3030 C   0  0  0  0  0  2  0  0  0  0  0  0
  -27.7000  -13.4640   19.5100 C   0  0  0  0  0  3  0  0  0  0  0  0
  -28.8310  -13.5190   20.5560 C   0  0  0  0  0  2  0  0  0  0  0  0
  -30.0270  -14.0540   19.8830 N   0  0  0  0  0  0  0  0  0  0  0  0
  -31.7230  -15.4240   19.5280 O   0  0  0  0  0  0  0  0  0  0  0  0
  -25.3880  -14.0040   20.4540 C   0  0  0  0  0  0  0  0  0  0  0  0
  -24.3480  -13.2190   20.8620 C   0  0  0  0  0  0  0  0  0  0  0  0
  -24.7980  -11.8630   20.7420 C   0  0  0  0  0  0  0  0  0  0  0  0
  -26.4080  -13.1300   20.0980 N   0  0  0  0  0  0  0  0  0  0  0  0
  -26.0640  -11.8390   20.3390 N   0  0  0  0  0  0  0  0  0  0  0  0
  -24.0760  -10.6030   20.9360 C   0  0  0  0  0  0  0  0  0  0  0  0
  -24.5410   -9.6170   21.8320 C   0  0  0  0  0  3  0  0  0  0  0  0
  -23.8180   -8.4170   22.0180 C   0  0  0  0  0  3  0  0  0  0  0  0
  -22.6200   -8.1950   21.3050 C   0  0  0  0  0  0  0  0  0  0  0  0
  -22.1690   -9.1700   20.3990 C   0  0  0  0  0  3  0  0  0  0  0  0
  -22.8870  -10.3600   20.2130 C   0  0  0  0  0  3  0  0  0  0  0  0
  -21.8670   -7.0480   21.3970 O   0  0  0  0  0  0  0  0  0  0  0  0
  -21.8230   -6.3050   22.5470 C   0  0  0  0  0  0  0  0  0  0  0  0
  -21.4260   -6.8650   23.7800 C   0  0  0  0  0  3  0  0  0  0  0  0
  -21.3370   -6.0510   24.9270 C   0  0  0  0  0  3  0  0  0  0  0  0
  -21.6280   -4.6780   24.8410 C   0  0  0  0  0  0  0  0  0  0  0  0
  -22.0160   -4.1150   23.6140 C   0  0  0  0  0  3  0  0  0  0  0  0
  -22.1110   -4.9270   22.4680 C   0  0  0  0  0  0  0  0  0  0  0  0
  -22.4670   -4.3770   21.2830 F   0  0  0  0  0  0  0  0  0  0  0  0
  -21.5350   -3.8940   25.9430 F   0  0  0  0  0  0  0  0  0  0  0  0
  -22.9800  -13.6920   21.2480 C   0  0  0  0  0  0  0  0  0  0  0  0
  -22.3170  -12.9710   22.1480 N   0  0  0  0  0  0  0  0  0  0  0  0
  -22.5100  -14.7320   20.7870 O   0  0  0  0  0  0  0  0  0  0  0  0
  -22.7130  -12.1250   22.5290 H   0  0  0  0  0  0  0  0  0  0  0  0
  -21.4020  -13.2660   22.4560 H   0  0  0  0  0  0  0  0  0  0  0  0
  -25.5470  -15.3770   20.3250 N   0  0  0  0  0  0  0  0  0  0  0  0
  -24.7940  -16.0230   20.5400 H   0  0  0  0  0  0  0  0  0  0  0  0
  -26.3630  -15.8390   19.9430 H   0  0  0  0  0  0  0  0  0  0  0  0
  -28.6670  -24.3510   20.1390 C   0  0  0  0  0  2  0  0  0  0  0  0
  -28.3470  -25.9440   20.5310 O   0  0  0  0  0  0  0  0  0  0  0  0
  -24.6420  -31.8470   23.1970 C   0  0  0  0  0  0  0  0  0  0  0  0
  -27.2710  -26.9690   20.2820 C   0  0  0  0  0  0  0  0  0  0  0  0
  -23.4550  -30.4360   21.5570 C   0  0  0  0  0  3  0  0  0  0  0  0
  -24.9270  -28.8290   20.1450 C   0  0  0  0  0  0  0  0  0  0  0  0
  -26.0110  -30.6750   21.4020 C   0  0  0  0  0  2  0  0  0  0  0  0
  -26.0970  -29.2580   20.7660 C   0  0  0  0  0  0  0  0  0  0  0  0
  -27.2530  -28.3570   20.8040 C   0  0  0  0  0  3  0  0  0  0  0  0
  -26.0640  -26.6920   19.5770 C   0  0  0  0  0  3  0  0  0  0  0  0
  -24.9330  -27.5630   19.5160 C   0  0  0  0  0  3  0  0  0  0  0  0
  -23.6930  -29.7360   20.1850 C   0  0  0  0  0  2  0  0  0  0  0  0
  -24.7230  -31.0160   22.1080 N   0  0  0  0  0  0  0  0  0  0  0  0
  -23.5520  -32.1270   23.7240 O   0  0  0  0  0  0  0  0  0  0  0  0
  -22.7690  -29.4390   22.5320 C   0  0  0  0  0  0  0  0  0  0  0  0
  -21.4390  -29.2750   22.4230 N   0  0  0  0  0  0  0  0  0  0  0  0
  -23.4460  -28.8130   23.3530 O   0  0  0  0  0  0  0  0  0  0  0  0
  -20.9400  -29.8360   21.7460 H   0  0  0  0  0  0  0  0  0  0  0  0
  -18.0620  -28.0680   22.9660 C   0  0  0  0  0  0  0  0  0  0  0  0
  -20.6260  -28.3340   23.2050 C   0  0  0  0  0  3  0  0  0  0  0  0
  -20.7210  -26.9030   22.6250 C   0  0  0  0  0  2  0  0  0  0  0  0
  -19.6110  -26.5870   21.6200 C   0  0  0  0  0  2  0  0  0  0  0  0
  -18.2340  -26.7230   22.2750 C   0  0  0  0  0  2  0  0  0  0  0  0
  -19.1880  -28.8290   23.3870 C   0  0  0  0  0  0  0  0  0  0  0  0
  -18.9700  -30.0840   23.9940 C   0  0  0  0  0  3  0  0  0  0  0  0
  -17.6680  -30.5820   24.1770 C   0  0  0  0  0  3  0  0  0  0  0  0
  -16.5590  -29.8160   23.7730 C   0  0  0  0  0  3  0  0  0  0  0  0
  -16.7600  -28.5580   23.1760 C   0  0  0  0  0  3  0  0  0  0  0  0
  -25.9100  -32.5030   23.8290 C   0  0  0  0  0  3  0  0  0  0  0  0
  -26.4180  -31.7480   25.1200 C   0  0  1  0  0  0  0  0  0  0  0  0
  -25.3170  -31.5210   26.1820 C   0  0  0  0  0  1  0  0  0  0  0  0
  -27.0100  -30.3710   24.7480 C   0  0  0  0  0  1  0  0  0  0  0  0
  -27.5690  -32.5460   25.7810 C   0  0  0  0  0  1  0  0  0  0  0  0
  -25.5880  -33.9040   24.1670 N   0  0  0  0  0  0  0  0  0  0  0  0
  -25.9080  -34.9640   23.4110 C   0  0  0  0  0  0  0  0  0  0  0  0
  -26.5710  -34.8680   22.3800 O   0  0  0  0  0  0  0  0  0  0  0  0
  -25.0150  -34.0500   24.9830 H   0  0  0  0  0  0  0  0  0  0  0  0
  -24.1580  -36.7380   23.0840 C   0  0  0  0  0  1  0  0  0  0  0  0
  -25.4110  -36.3510   23.8820 C   0  0  0  0  0  3  0  0  0  0  0  0
  -27.5470  -37.2470   24.6910 C   0  0  0  0  0  1  0  0  0  0  0  0
  -26.4340  -37.4140   23.7590 N   0  0  0  0  0  0  0  0  0  0  0  0
  -26.0240  -38.3300   23.9270 H   0  0  0  0  0  0  0  0  0  0  0  0
  3  2  1  1
  3  1  1  0
  5  7  2  0
  5  8  1  0
  6  3  1  0
  6  4  2  0
  7  6  1  0
  8 10  1  0
  8  4  1  0
 10  9  1  0
 11 10  1  0
 12 17  1  0
 13 14  1  0
 13 12  1  0
 15 14  1  0
 15 22  1  0
 15 16  1  0
 17 11  1  0
 17 16  1  0
 18 11  2  0
 19 20  2  0
 20 39  1  0
 21 20  1  0
 21 24  1  0
 22 23  1  0
 22 19  1  0
 23 21  2  0
 24 25  1  0
 25 26  2  0
 27 30  1  0
 27 26  1  0
 28 27  2  0
 29 28  1  0
 29 24  2  0
 30 31  1  0
 31 32  1  0
 32 33  2  0
 34 33  1  0
 34 38  1  0
 35 34  2  0
 36 31  2  0
 36 35  1  0
 37 36  1  0
 39 40  1  0
 40 43  1  0
 40 42  1  0
 41 39  2  0
 44 19  1  0
 44 45  1  0
 46 44  1  0
 47 48  1  0
 47  3  1  0
 49 60  2  0
 50 48  1  0
 50 55  1  0
 51 59  1  0
 51 61  1  0
 52 58  1  0
 52 54  1  0
 53 59  1  0
 54 55  2  0
 54 53  1  0
 56 50  2  0
 57 56  1  0
 57 52  2  0
 58 51  1  0
 59 49  1  0
 61 63  2  0
 62 61  1  0
 64 62  1  0
 65 74  2  0
 65 70  1  0
 66 62  1  0
 66 70  1  0
 67 66  1  0
 68 69  1  0
 68 67  1  0
 69 65  1  0
 70 71  2  0
 71 72  1  0
 73 72  2  0
 74 73  1  0
 75 49  1  0
 75 80  1  0
 75 76  1  0
 76 79  1  1
 76 77  1  0
 78 76  1  0
 80 83  1  0
 81 85  1  0
 81 80  1  0
 82 81  2  0
 85 84  1  0
 87 85  1  0
 87 88  1  0
 87 86  1  0
M  ISO  4  10 100  11 100  47 101  48 101
M  END
>  <TORSDO>  (51) 
F 19

>  <SCORE>  (51) 
-16.162

>  <name>  (51) 
50

>  <ligand_id>  (51) 
50

>  <original_smiles>  (51) 
[H]c1c([H])c([H])c2c(c1[H])C([H])([H])C([H])([H])C([H])([H])C2([H])N([H])C(=O)C1([H])N(C(=O)C([H])(N([H])C(=O)C([H])(N([H])C([H])([H])[H])C([H])([H])[H])C(C([H])([H])[H])(C([H])([H])[H])C([H])([H])[H])C([H])([H])c2c([H])c(OC([H])([H])C(c3nc([H])n(C([H])(C(=O)N4C([H])([H])C([H])([H])C([H])([H])C([H])(n5nc(-c6c([H])c([H])c(Oc7c([H])c([H])c(F)c([H])c7F)c([H])c6[H])c(C(=O)N([H])[H])c5N([H])[H])C4([H])[H])C([H])([H])[H])c3[H])(C([H])([H])[H])C([H])([H])[H])c([H])c([H])c2C1([H])[H]

>  <smiles>  (51) 
[H]c1c([H])c([H])c2c(c1[H])C([H])([H])C([H])([H])C([H])([H])C2([H])N([H])C(=O)C1([H])N(C(=O)C([H])(N([H])C(=O)C([H])(N([H])C([H])([H])[H])C([H])([H])[H])C(C([H])([H])[H])(C([H])([H])[H])C([H])([H])[H])C([H])([H])c2c([H])c(OC([H])([H])C(c3nc([H])n(C([H])(C(=O)N4C([H])([H])C([H])([H])C([H])([H])C([H])(n5nc(-c6c([H])c([H])c(Oc7c([H])c([H])c(F)c([H])c7F)c([H])c6[H])c(C(=O)N([H])[H])c5N([H])[H])C4([H])[H])C([H])([H])[H])c3[H])(C([H])([H])[H])C([H])([H])[H])c([H])c([H])c2C1([H])[H]

$$$$
51:0:0
     RDKit          3D

 90 98  0  0  1  0  0  0  0  0999 V2000
  -29.9860  -21.6640   18.7200 C   0  0  0  0  0  1  0  0  0  0  0  0
  -29.4020  -21.5690   20.1350 C   0  0  0  0  0  3  0  0  0  0  0  0
  -31.2350  -19.7060   22.7890 C   0  0  0  0  0  3  0  0  0  0  0  0
  -30.6860  -20.7800   22.1540 C   0  0  0  0  0  3  0  0  0  0  0  0
  -30.4810  -18.9640   20.8650 C   0  0  0  0  0  0  0  0  0  0  0  0
  -31.0910  -18.5900   21.9920 N   0  0  0  0  0  0  0  0  0  0  0  0
  -30.1490  -20.3960   20.9200 N   0  0  0  0  0  0  0  0  0  0  0  0
  -29.1870  -17.8780   18.8960 C   0  0  0  0  0  1  0  0  0  0  0  0
  -30.3850  -17.6990   19.8360 C   0  0  0  0  0  3  0  0  0  0  0  0
  -31.0380  -14.9920   20.1860 C   0  0  0  0  0  0  0  0  0  0  0  0
  -30.8410  -12.6160   19.3080 C   0  0  0  0  0  2  0  0  0  0  0  0
  -29.9110  -12.5850   18.0700 C   0  0  0  0  0  2  0  0  0  0  0  0
  -28.4400  -12.4360   18.4990 C   0  0  0  0  0  2  0  0  0  0  0  0
  -28.0670  -13.3910   19.6620 C   0  0  0  0  0  3  0  0  0  0  0  0
  -29.1190  -13.3830   20.7940 C   0  0  0  0  0  2  0  0  0  0  0  0
  -30.4090  -13.7420   20.1920 N   0  0  0  0  0  0  0  0  0  0  0  0
  -32.2180  -15.0140   19.8180 O   0  0  0  0  0  0  0  0  0  0  0  0
  -30.3020  -16.1980   20.3860 N   0  0  0  0  0  0  0  0  0  0  0  0
  -29.4150  -16.0230   20.8340 H   0  0  0  0  0  0  0  0  0  0  0  0
  -25.7190  -14.0760   20.4090 C   0  0  0  0  0  0  0  0  0  0  0  0
  -24.6180  -13.3500   20.7750 C   0  0  0  0  0  0  0  0  0  0  0  0
  -25.0150  -11.9790   20.7260 C   0  0  0  0  0  0  0  0  0  0  0  0
  -26.7170  -13.1500   20.1580 N   0  0  0  0  0  0  0  0  0  0  0  0
  -26.3030  -11.8830   20.4140 N   0  0  0  0  0  0  0  0  0  0  0  0
  -24.2250  -10.7530   20.9050 C   0  0  0  0  0  0  0  0  0  0  0  0
  -24.6030   -9.7580   21.8340 C   0  0  0  0  0  3  0  0  0  0  0  0
  -23.8160   -8.5990   22.0020 C   0  0  0  0  0  3  0  0  0  0  0  0
  -22.6370   -8.4250   21.2390 C   0  0  0  0  0  0  0  0  0  0  0  0
  -22.2770   -9.4070   20.2990 C   0  0  0  0  0  3  0  0  0  0  0  0
  -23.0640  -10.5580   20.1300 C   0  0  0  0  0  3  0  0  0  0  0  0
  -21.8240   -7.3190   21.3160 O   0  0  0  0  0  0  0  0  0  0  0  0
  -21.7080   -6.5910   22.4730 C   0  0  0  0  0  0  0  0  0  0  0  0
  -21.2700   -7.1760   23.6810 C   0  0  0  0  0  3  0  0  0  0  0  0
  -21.0980   -6.3760   24.8290 C   0  0  0  0  0  3  0  0  0  0  0  0
  -21.3520   -4.9930   24.7690 C   0  0  0  0  0  0  0  0  0  0  0  0
  -21.7830   -4.4080   23.5640 C   0  0  0  0  0  3  0  0  0  0  0  0
  -21.9570   -5.2050   22.4190 C   0  0  0  0  0  0  0  0  0  0  0  0
  -22.3510   -4.6330   21.2550 F   0  0  0  0  0  0  0  0  0  0  0  0
  -21.1810   -4.2210   25.8680 F   0  0  0  0  0  0  0  0  0  0  0  0
  -23.2470  -13.8940   21.0510 C   0  0  0  0  0  0  0  0  0  0  0  0
  -22.4940  -13.2420   21.9280 N   0  0  0  0  0  0  0  0  0  0  0  0
  -22.8540  -14.9340   20.5230 O   0  0  0  0  0  0  0  0  0  0  0  0
  -22.8250  -12.4000   22.3770 H   0  0  0  0  0  0  0  0  0  0  0  0
  -21.5730  -13.5890   22.1550 H   0  0  0  0  0  0  0  0  0  0  0  0
  -25.9480  -15.4390   20.2440 N   0  0  0  0  0  0  0  0  0  0  0  0
  -25.2130  -16.1270   20.3660 H   0  0  0  0  0  0  0  0  0  0  0  0
  -26.8020  -15.8350   19.8750 H   0  0  0  0  0  0  0  0  0  0  0  0
  -29.2870  -23.1750   20.7560 C   0  0  0  0  0  3  0  0  0  0  0  0
  -28.4020  -24.5140   20.1710 C   0  0  0  0  0  3  0  0  0  0  0  0
  -28.5110  -26.0360   20.5610 O   0  0  0  0  0  0  0  0  0  0  0  0
  -24.6880  -31.7420   23.2730 C   0  0  0  0  0  0  0  0  0  0  0  0
  -27.4570  -27.0220   20.3970 C   0  0  0  0  0  0  0  0  0  0  0  0
  -23.5870  -30.3300   21.5790 C   0  0  0  0  0  3  0  0  0  0  0  0
  -25.1210  -28.7650   20.2300 C   0  0  0  0  0  0  0  0  0  0  0  0
  -26.1440  -30.6120   21.5490 C   0  0  0  0  0  2  0  0  0  0  0  0
  -26.2620  -29.2170   20.9040 C   0  0  0  0  0  0  0  0  0  0  0  0
  -27.4280  -28.3610   20.9730 C   0  0  0  0  0  3  0  0  0  0  0  0
  -26.2980  -26.6870   19.6630 C   0  0  0  0  0  3  0  0  0  0  0  0
  -25.1560  -27.5160   19.5930 C   0  0  0  0  0  3  0  0  0  0  0  0
  -23.8850  -29.6540   20.2140 C   0  0  0  0  0  2  0  0  0  0  0  0
  -24.8240  -30.9170   22.1890 N   0  0  0  0  0  0  0  0  0  0  0  0
  -23.5730  -32.0190   23.7430 O   0  0  0  0  0  0  0  0  0  0  0  0
  -22.8680  -29.3210   22.5080 C   0  0  0  0  0  0  0  0  0  0  0  0
  -21.5450  -29.1560   22.3300 N   0  0  0  0  0  0  0  0  0  0  0  0
  -23.5050  -28.6880   23.3540 O   0  0  0  0  0  0  0  0  0  0  0  0
  -21.0880  -29.7170   21.6240 H   0  0  0  0  0  0  0  0  0  0  0  0
  -18.1400  -27.9710   22.7050 C   0  0  0  0  0  0  0  0  0  0  0  0
  -20.6910  -28.2180   23.0640 C   0  0  0  0  0  3  0  0  0  0  0  0
  -20.8050  -26.7900   22.4820 C   0  0  0  0  0  2  0  0  0  0  0  0
  -19.7360  -26.4810   21.4270 C   0  0  0  0  0  2  0  0  0  0  0  0
  -18.3340  -26.6280   22.0230 C   0  0  0  0  0  2  0  0  0  0  0  0
  -19.2470  -28.7240   23.1800 C   0  0  0  0  0  0  0  0  0  0  0  0
  -19.0120  -29.9820   23.7770 C   0  0  0  0  0  3  0  0  0  0  0  0
  -17.7040  -30.4850   23.9050 C   0  0  0  0  0  3  0  0  0  0  0  0
  -16.6120  -29.7290   23.4450 C   0  0  0  0  0  3  0  0  0  0  0  0
  -16.8310  -28.4740   22.8510 C   0  0  0  0  0  3  0  0  0  0  0  0
  -25.9240  -32.3920   23.9640 C   0  0  0  0  0  3  0  0  0  0  0  0
  -26.3700  -31.6370   25.2760 C   0  0  1  0  0  0  0  0  0  0  0  0
  -25.2170  -31.4020   26.2810 C   0  0  0  0  0  1  0  0  0  0  0  0
  -26.9850  -30.2590   24.9380 C   0  0  0  0  0  1  0  0  0  0  0  0
  -27.4740  -32.4470   25.9980 C   0  0  0  0  0  1  0  0  0  0  0  0
  -25.5840  -33.7910   24.2710 N   0  0  0  0  0  0  0  0  0  0  0  0
  -25.9240  -34.8440   23.5160 C   0  0  0  0  0  0  0  0  0  0  0  0
  -26.6220  -34.7430   22.5040 O   0  0  0  0  0  0  0  0  0  0  0  0
  -24.9660  -33.9430   25.0540 H   0  0  0  0  0  0  0  0  0  0  0  0
  -24.1690  -36.6060   23.1220 C   0  0  0  0  0  1  0  0  0  0  0  0
  -25.4080  -36.2310   23.9510 C   0  0  0  0  0  3  0  0  0  0  0  0
  -27.5160  -37.1670   24.7960 C   0  0  0  0  0  1  0  0  0  0  0  0
  -26.4230  -37.3010   23.8360 N   0  0  0  0  0  0  0  0  0  0  0  0
  -25.9990  -38.2160   23.9630 H   0  0  0  0  0  0  0  0  0  0  0  0
  2  1  1  0
  2 48  1  0
  2  7  1  0
  4  3  2  0
  5  7  1  0
  5  6  2  0
  6  3  1  0
  7  4  1  0
  9  8  1  0
  9 18  1  0
  9  5  1  0
 10 16  1  0
 10 18  1  0
 11 16  1  0
 12 13  1  0
 12 11  1  0
 14 13  1  0
 14 23  1  0
 14 15  1  0
 16 15  1  0
 17 10  2  0
 18 19  1  0
 20 21  2  0
 21 40  1  0
 22 21  1  0
 22 25  1  0
 23 20  1  0
 23 24  1  0
 24 22  2  0
 25 26  1  0
 26 27  2  0
 28 31  1  0
 28 27  1  0
 29 28  2  0
 30 29  1  0
 30 25  2  0
 31 32  1  0
 32 33  1  0
 33 34  2  0
 35 34  1  0
 35 39  1  0
 36 35  2  0
 37 32  2  0
 37 36  1  0
 38 37  1  0
 40 41  1  0
 41 44  1  0
 41 43  1  0
 42 40  2  0
 45 46  1  0
 45 20  1  0
 47 45  1  0
 49 50  1  0
 49 48  2  0
 51 62  2  0
 52 50  1  0
 52 57  1  0
 53 61  1  0
 53 63  1  0
 54 56  1  0
 55 61  1  0
 56 57  2  0
 56 55  1  0
 58 52  2  0
 59 58  1  0
 59 54  2  0
 60 54  1  0
 60 53  1  0
 61 51  1  0
 63 65  2  0
 64 63  1  0
 66 64  1  0
 67 76  2  0
 67 72  1  0
 68 64  1  0
 68 72  1  0
 69 68  1  0
 70 71  1  0
 70 69  1  0
 71 67  1  0
 72 73  2  0
 73 74  1  0
 75 74  2  0
 76 75  1  0
 77 51  1  0
 77 82  1  0
 77 78  1  0
 78 81  1  1
 78 79  1  0
 80 78  1  0
 82 85  1  0
 83 87  1  0
 83 82  1  0
 84 83  2  0
 87 86  1  0
 89 87  1  0
 89 90  1  0
 89 88  1  0
M  ISO  4  10 100  18 100  49 101  50 101
M  END
>  <TORSDO>  (52) 
F 20

>  <SCORE>  (52) 
-14.600

>  <name>  (52) 
51

>  <ligand_id>  (52) 
51

>  <original_smiles>  (52) 
[H]c1nc(C([H])(N([H])C(=O)N2C([H])([H])C([H])([H])C([H])([H])C([H])(n3nc(-c4c([H])c([H])c(Oc5c([H])c([H])c(F)c([H])c5F)c([H])c4[H])c(C(=O)N([H])[H])c3N([H])[H])C2([H])[H])C([H])([H])[H])n(C([H])(C([H])([H])[H])C([H])([H])C([H])([H])Oc2c([H])c([H])c3c(c2[H])C([H])([H])N(C(=O)C([H])(N([H])C(=O)C([H])(N([H])C([H])([H])[H])C([H])([H])[H])C(C([H])([H])[H])(C([H])([H])[H])C([H])([H])[H])C([H])(C(=O)N([H])C2([H])c4c([H])c([H])c([H])c([H])c4C([H])([H])C([H])([H])C2([H])[H])C3([H])[H])c1[H]

>  <smiles>  (52) 
[H]c1nc(C([H])(N([H])C(=O)N2C([H])([H])C([H])([H])C([H])([H])C([H])(n3nc(-c4c([H])c([H])c(Oc5c([H])c([H])c(F)c([H])c5F)c([H])c4[H])c(C(=O)N([H])[H])c3N([H])[H])C2([H])[H])C([H])([H])[H])n(C([H])(C([H])([H])[H])C([H])([H])C([H])([H])Oc2c([H])c([H])c3c(c2[H])C([H])([H])N(C(=O)C([H])(N([H])C(=O)C([H])(N([H])C([H])([H])[H])C([H])([H])[H])C(C([H])([H])[H])(C([H])([H])[H])C([H])([H])[H])C([H])(C(=O)N([H])C2([H])c4c([H])c([H])c([H])c([H])c4C([H])([H])C([H])([H])C2([H])[H])C3([H])[H])c1[H]

$$$$
52:0:0
     RDKit          3D

 86 94  0  0  1  0  0  0  0  0999 V2000
  -30.2960  -15.6660   20.2890 C   0  0  0  0  0  0  0  0  0  0  0  0
  -30.4310  -13.0910   19.5630 C   0  0  0  0  0  2  0  0  0  0  0  0
  -29.5770  -12.6600   18.3350 C   0  0  0  0  0  2  0  0  0  0  0  0
  -28.1370  -12.3220   18.7540 C   0  0  0  0  0  2  0  0  0  0  0  0
  -27.5990  -13.3510   19.7740 C   0  0  0  0  0  3  0  0  0  0  0  0
  -28.5960  -13.6870   20.9090 C   0  0  0  0  0  2  0  0  0  0  0  0
  -29.7920  -14.2880   20.2750 N   0  0  0  0  0  0  0  0  0  0  0  0
  -31.5290  -15.6160   20.1090 O   0  0  0  0  0  0  0  0  0  0  0  0
  -29.8560  -21.2420   19.6100 C   0  0  0  0  0  3  0  0  0  0  0  0
  -28.2100  -19.5380   20.7130 C   0  0  0  0  0  3  0  0  0  0  0  0
  -28.6870  -22.0480   20.1020 C   0  0  0  0  0  0  0  0  0  0  0  0
  -29.3730  -18.7200   20.2500 C   0  0  0  0  0  0  0  0  0  0  0  0
  -27.9110  -20.9750   20.6440 N   0  0  0  0  0  0  0  0  0  0  0  0
  -30.1620  -19.7910   19.6960 N   0  0  0  0  0  0  0  0  0  0  0  0
  -29.4820  -16.9940   20.3640 N   0  0  0  0  0  0  0  0  0  0  0  0
  -28.5540  -16.6700   20.5900 H   0  0  0  0  0  0  0  0  0  0  0  0
  -25.2180  -13.9010   20.4640 C   0  0  0  0  0  0  0  0  0  0  0  0
  -24.1480  -13.1310   20.8180 C   0  0  0  0  0  0  0  0  0  0  0  0
  -24.6160  -11.7800   20.8230 C   0  0  0  0  0  0  0  0  0  0  0  0
  -26.2660  -13.0250   20.2620 N   0  0  0  0  0  0  0  0  0  0  0  0
  -25.9160  -11.7410   20.5460 N   0  0  0  0  0  0  0  0  0  0  0  0
  -23.8790  -10.5220   21.0140 C   0  0  0  0  0  0  0  0  0  0  0  0
  -24.2880   -9.5620   21.9640 C   0  0  0  0  0  3  0  0  0  0  0  0
  -23.5480   -8.3730   22.1440 C   0  0  0  0  0  3  0  0  0  0  0  0
  -22.3840   -8.1370   21.3760 C   0  0  0  0  0  0  0  0  0  0  0  0
  -21.9940   -9.0850   20.4140 C   0  0  0  0  0  3  0  0  0  0  0  0
  -22.7350  -10.2650   20.2320 C   0  0  0  0  0  3  0  0  0  0  0  0
  -21.6190   -6.9990   21.4640 O   0  0  0  0  0  0  0  0  0  0  0  0
  -21.5550   -6.2620   22.6200 C   0  0  0  0  0  0  0  0  0  0  0  0
  -21.1450   -6.8320   23.8450 C   0  0  0  0  0  3  0  0  0  0  0  0
  -21.0270   -6.0230   24.9930 C   0  0  0  0  0  3  0  0  0  0  0  0
  -21.3090   -4.6460   24.9170 C   0  0  0  0  0  0  0  0  0  0  0  0
  -21.7130   -4.0760   23.6970 C   0  0  0  0  0  3  0  0  0  0  0  0
  -21.8320   -4.8820   22.5510 C   0  0  0  0  0  0  0  0  0  0  0  0
  -22.2010   -4.3230   21.3730 F   0  0  0  0  0  0  0  0  0  0  0  0
  -21.1900   -3.8670   26.0170 F   0  0  0  0  0  0  0  0  0  0  0  0
  -22.7440  -13.6150   21.0330 C   0  0  0  0  0  0  0  0  0  0  0  0
  -21.9910  -12.9440   21.8960 N   0  0  0  0  0  0  0  0  0  0  0  0
  -22.3260  -14.6260   20.4720 O   0  0  0  0  0  0  0  0  0  0  0  0
  -22.3430  -12.1280   22.3730 H   0  0  0  0  0  0  0  0  0  0  0  0
  -21.0470  -13.2530   22.0850 H   0  0  0  0  0  0  0  0  0  0  0  0
  -25.3820  -15.2690   20.2620 N   0  0  0  0  0  0  0  0  0  0  0  0
  -24.6010  -15.9130   20.3170 H   0  0  0  0  0  0  0  0  0  0  0  0
  -26.2120  -15.6890   19.8640 H   0  0  0  0  0  0  0  0  0  0  0  0
  -28.0100  -23.7780   19.7800 C   0  0  0  0  0  2  0  0  0  0  0  0
  -28.2460  -25.5000   20.0800 O   0  0  0  0  0  0  0  0  0  0  0  0
  -24.7400  -31.7830   23.0260 C   0  0  0  0  0  0  0  0  0  0  0  0
  -27.2860  -26.7260   20.0030 C   0  0  0  0  0  0  0  0  0  0  0  0
  -23.5540  -30.3860   21.3870 C   0  0  0  0  0  3  0  0  0  0  0  0
  -25.0070  -28.7520   19.9610 C   0  0  0  0  0  0  0  0  0  0  0  0
  -26.1330  -30.5400   21.2600 C   0  0  0  0  0  2  0  0  0  0  0  0
  -26.2020  -29.1100   20.5950 C   0  0  0  0  0  0  0  0  0  0  0  0
  -27.3240  -28.1240   20.5870 C   0  0  0  0  0  3  0  0  0  0  0  0
  -26.0570  -26.5840   19.3080 C   0  0  0  0  0  3  0  0  0  0  0  0
  -24.9730  -27.5160   19.2930 C   0  0  0  0  0  3  0  0  0  0  0  0
  -23.7940  -29.6970   20.0130 C   0  0  0  0  0  2  0  0  0  0  0  0
  -24.8330  -30.9360   21.9440 N   0  0  0  0  0  0  0  0  0  0  0  0
  -23.6480  -32.0760   23.5410 O   0  0  0  0  0  0  0  0  0  0  0  0
  -22.8450  -29.4020   22.3570 C   0  0  0  0  0  0  0  0  0  0  0  0
  -21.5080  -29.2710   22.2620 N   0  0  0  0  0  0  0  0  0  0  0  0
  -23.5100  -28.7540   23.1680 O   0  0  0  0  0  0  0  0  0  0  0  0
  -21.0210  -29.8450   21.5870 H   0  0  0  0  0  0  0  0  0  0  0  0
  -18.1100  -28.1250   22.8590 C   0  0  0  0  0  0  0  0  0  0  0  0
  -20.6850  -28.3340   23.0380 C   0  0  0  0  0  3  0  0  0  0  0  0
  -20.7330  -26.9150   22.4240 C   0  0  0  0  0  2  0  0  0  0  0  0
  -19.5910  -26.6430   21.4410 C   0  0  0  0  0  2  0  0  0  0  0  0
  -18.2350  -26.7950   22.1360 C   0  0  0  0  0  2  0  0  0  0  0  0
  -19.2590  -28.8560   23.2680 C   0  0  0  0  0  0  0  0  0  0  0  0
  -19.0830  -30.0990   23.9120 C   0  0  0  0  0  3  0  0  0  0  0  0
  -17.7940  -30.6140   24.1460 C   0  0  0  0  0  3  0  0  0  0  0  0
  -16.6610  -29.8830   23.7490 C   0  0  0  0  0  3  0  0  0  0  0  0
  -16.8210  -28.6390   23.1120 C   0  0  0  0  0  3  0  0  0  0  0  0
  -26.0010  -32.4380   23.6660 C   0  0  0  0  0  3  0  0  0  0  0  0
  -25.6570  -33.8200   24.0550 N   0  0  0  0  0  0  0  0  0  0  0  0
  -25.9530  -34.9190   23.3470 C   0  0  0  0  0  0  0  0  0  0  0  0
  -26.6000  -34.8770   22.2980 O   0  0  0  0  0  0  0  0  0  0  0  0
  -25.0750  -33.9230   24.8730 H   0  0  0  0  0  0  0  0  0  0  0  0
  -24.1780  -36.6960   23.1370 C   0  0  0  0  0  1  0  0  0  0  0  0
  -25.4560  -36.2790   23.8830 C   0  0  0  0  0  3  0  0  0  0  0  0
  -27.6000  -37.1800   24.6730 C   0  0  0  0  0  1  0  0  0  0  0  0
  -26.4610  -37.3600   23.7780 N   0  0  0  0  0  0  0  0  0  0  0  0
  -26.0410  -38.2640   23.9780 H   0  0  0  0  0  0  0  0  0  0  0  0
  -26.5370  -31.6480   24.9250 C   0  0  1  0  0  0  0  0  0  0  0  0
  -25.4560  -31.3770   25.9980 C   0  0  0  0  0  1  0  0  0  0  0  0
  -27.1320  -30.2840   24.5130 C   0  0  0  0  0  1  0  0  0  0  0  0
  -27.6840  -32.4420   25.5930 C   0  0  0  0  0  1  0  0  0  0  0  0
  1 15  1  0
  2  7  1  0
  3  4  1  0
  3  2  1  0
  5  4  1  0
  5 20  1  0
  5  6  1  0
  7  1  1  0
  7  6  1  0
  8  1  2  0
  9 14  2  0
  9 11  1  0
 11 13  2  0
 12 15  1  0
 12 10  2  0
 13 10  1  0
 14 12  1  0
 15 16  1  0
 17 18  2  0
 18 19  1  0
 18 37  1  0
 19 22  1  0
 20 17  1  0
 20 21  1  0
 21 19  2  0
 22 23  1  0
 23 24  2  0
 25 28  1  0
 25 24  1  0
 26 25  2  0
 27 26  1  0
 27 22  2  0
 28 29  1  0
 29 30  1  0
 30 31  2  0
 32 31  1  0
 32 36  1  0
 33 32  2  0
 34 29  2  0
 34 33  1  0
 35 34  1  0
 37 38  1  0
 38 41  1  0
 38 40  1  0
 39 37  2  0
 42 43  1  0
 42 17  1  0
 44 42  1  0
 45 46  1  0
 45 11  1  0
 47 58  2  0
 48 46  1  0
 48 53  1  0
 49 57  1  0
 49 59  1  0
 50 56  1  0
 50 52  1  0
 51 57  1  0
 52 51  1  0
 53 52  2  0
 54 48  2  0
 55 54  1  0
 55 50  2  0
 56 49  1  0
 57 47  1  0
 59 61  2  0
 60 59  1  0
 62 60  1  0
 63 72  2  0
 63 68  1  0
 64 60  1  0
 64 68  1  0
 65 64  1  0
 66 67  1  0
 66 65  1  0
 67 63  1  0
 68 69  2  0
 69 70  1  0
 71 70  2  0
 72 71  1  0
 73 47  1  0
 73 74  1  0
 73 83  1  0
 74 77  1  0
 75 79  1  0
 75 74  1  0
 76 75  2  0
 79 78  1  0
 81 79  1  0
 81 82  1  0
 81 80  1  0
 83 86  1  1
 83 84  1  0
 85 83  1  0
M  ISO  4   1 100  15 100  45 101  46 101
M  END
>  <TORSDO>  (53) 
F 16

>  <SCORE>  (53) 
-15.942

>  <name>  (53) 
52

>  <ligand_id>  (53) 
52

>  <original_smiles>  (53) 
[H]c1nc(C([H])([H])Oc2c([H])c([H])c3c(c2[H])C([H])([H])N(C(=O)C([H])(N([H])C(=O)C([H])(N([H])C([H])([H])[H])C([H])([H])[H])C(C([H])([H])[H])(C([H])([H])[H])C([H])([H])[H])C([H])(C(=O)N([H])C2([H])c4c([H])c([H])c([H])c([H])c4C([H])([H])C([H])([H])C2([H])[H])C3([H])[H])c([H])nc1N([H])C(=O)N1C([H])([H])C([H])([H])C([H])([H])C([H])(n2nc(-c3c([H])c([H])c(Oc4c([H])c([H])c(F)c([H])c4F)c([H])c3[H])c(C(=O)N([H])[H])c2N([H])[H])C1([H])[H]

>  <smiles>  (53) 
[H]c1nc(C([H])([H])Oc2c([H])c([H])c3c(c2[H])C([H])([H])N(C(=O)C([H])(N([H])C(=O)C([H])(N([H])C([H])([H])[H])C([H])([H])[H])C(C([H])([H])[H])(C([H])([H])[H])C([H])([H])[H])C([H])(C(=O)N([H])C2([H])c4c([H])c([H])c([H])c([H])c4C([H])([H])C([H])([H])C2([H])[H])C3([H])[H])c([H])nc1N([H])C(=O)N1C([H])([H])C([H])([H])C([H])([H])C([H])(n2nc(-c3c([H])c([H])c(Oc4c([H])c([H])c(F)c([H])c4F)c([H])c3[H])c(C(=O)N([H])[H])c2N([H])[H])C1([H])[H]

$$$$
53:0:0
     RDKit          3D

 91 99  0  0  1  0  0  0  0  0999 V2000
  -30.0570  -19.7390   20.1610 C   0  0  0  0  0  3  0  0  0  0  0  0
  -29.2440  -20.9380   19.8330 C   0  0  0  0  0  0  0  0  0  0  0  0
  -28.2610  -18.8660   19.3720 C   0  0  0  0  0  3  0  0  0  0  0  0
  -29.4600  -18.4080   19.8750 N   0  0  0  0  0  0  0  0  0  0  0  0
  -28.1780  -20.2370   19.3210 N   0  0  0  0  0  0  0  0  0  0  0  0
  -27.3460  -20.7020   18.9770 H   0  0  0  0  0  0  0  0  0  0  0  0
  -30.3490  -23.0720   18.8420 C   0  0  0  0  0  1  0  0  0  0  0  0
  -30.0270  -22.9280   21.3040 C   0  0  0  0  0  1  0  0  0  0  0  0
  -29.3450  -22.7020   19.9450 C   0  0  2  0  0  0  0  0  0  0  0  0
  -28.1600  -24.0790   19.8550 C   0  0  0  0  0  2  0  0  0  0  0  0
  -28.3040  -25.7370   19.9460 O   0  0  0  0  0  0  0  0  0  0  0  0
  -24.5340  -31.5750   22.9770 C   0  0  0  0  0  0  0  0  0  0  0  0
  -27.2430  -26.7970   19.9190 C   0  0  0  0  0  0  0  0  0  0  0  0
  -23.3890  -30.1730   21.3100 C   0  0  0  0  0  3  0  0  0  0  0  0
  -24.8890  -28.6240   19.8790 C   0  0  0  0  0  0  0  0  0  0  0  0
  -25.9500  -30.4500   21.1850 C   0  0  0  0  0  2  0  0  0  0  0  0
  -26.0640  -29.0500   20.5110 C   0  0  0  0  0  0  0  0  0  0  0  0
  -27.2330  -28.1620   20.5000 C   0  0  0  0  0  3  0  0  0  0  0  0
  -26.0310  -26.5210   19.2440 C   0  0  0  0  0  3  0  0  0  0  0  0
  -24.8990  -27.3790   19.2250 C   0  0  0  0  0  3  0  0  0  0  0  0
  -23.6470  -29.5140   19.9250 C   0  0  0  0  0  2  0  0  0  0  0  0
  -24.6450  -30.7610   21.8780 N   0  0  0  0  0  0  0  0  0  0  0  0
  -23.4340  -31.8290   23.4950 O   0  0  0  0  0  0  0  0  0  0  0  0
  -22.7120  -29.1470   22.2570 C   0  0  0  0  0  0  0  0  0  0  0  0
  -21.3830  -28.9790   22.1420 N   0  0  0  0  0  0  0  0  0  0  0  0
  -23.3930  -28.5040   23.0600 O   0  0  0  0  0  0  0  0  0  0  0  0
  -20.8890  -29.5490   21.4710 H   0  0  0  0  0  0  0  0  0  0  0  0
  -18.0070  -27.7590   22.6890 C   0  0  0  0  0  0  0  0  0  0  0  0
  -20.5740  -28.0130   22.8960 C   0  0  0  0  0  3  0  0  0  0  0  0
  -20.6580  -26.6050   22.2620 C   0  0  0  0  0  2  0  0  0  0  0  0
  -19.5290  -26.3230   21.2640 C   0  0  0  0  0  2  0  0  0  0  0  0
  -18.1650  -26.4400   21.9490 C   0  0  0  0  0  2  0  0  0  0  0  0
  -19.1370  -28.5050   23.1180 C   0  0  0  0  0  0  0  0  0  0  0  0
  -18.9330  -29.7390   23.7730 C   0  0  0  0  0  3  0  0  0  0  0  0
  -17.6330  -30.2270   24.0010 C   0  0  0  0  0  3  0  0  0  0  0  0
  -16.5180  -29.4780   23.5840 C   0  0  0  0  0  3  0  0  0  0  0  0
  -16.7060  -28.2470   22.9330 C   0  0  0  0  0  3  0  0  0  0  0  0
  -25.7820  -32.2420   23.6310 C   0  0  0  0  0  3  0  0  0  0  0  0
  -26.3180  -31.4490   24.8870 C   0  0  1  0  0  0  0  0  0  0  0  0
  -25.2330  -31.1430   25.9460 C   0  0  0  0  0  1  0  0  0  0  0  0
  -26.9480  -30.1050   24.4620 C   0  0  0  0  0  1  0  0  0  0  0  0
  -27.4390  -32.2610   25.5780 C   0  0  0  0  0  1  0  0  0  0  0  0
  -25.4130  -33.6140   24.0230 N   0  0  0  0  0  0  0  0  0  0  0  0
  -25.7070  -34.7180   23.3240 C   0  0  0  0  0  0  0  0  0  0  0  0
  -26.3810  -34.6920   22.2920 O   0  0  0  0  0  0  0  0  0  0  0  0
  -24.8110  -33.7040   24.8290 H   0  0  0  0  0  0  0  0  0  0  0  0
  -23.9090  -36.4680   23.0740 C   0  0  0  0  0  1  0  0  0  0  0  0
  -25.1730  -36.0680   23.8540 C   0  0  0  0  0  3  0  0  0  0  0  0
  -27.2790  -36.9980   24.7100 C   0  0  0  0  0  1  0  0  0  0  0  0
  -26.1630  -37.1640   23.7820 N   0  0  0  0  0  0  0  0  0  0  0  0
  -25.7230  -38.0600   23.9750 H   0  0  0  0  0  0  0  0  0  0  0  0
  -25.9040  -18.1620   20.0160 C   0  0  0  0  0  1  0  0  0  0  0  0
  -27.0380  -18.0890   18.9790 C   0  0  0  0  0  2  0  0  0  0  0  0
  -29.8130  -16.6580   21.7830 C   0  0  0  0  0  1  0  0  0  0  0  0
  -29.6680  -16.7030   20.2530 C   0  0  0  0  0  3  0  0  0  0  0  0
  -30.4240  -15.1940   19.6940 C   0  0  0  0  0  0  0  0  0  0  0  0
  -30.4070  -12.6880   18.9240 C   0  0  0  0  0  2  0  0  0  0  0  0
  -29.4060  -12.3990   17.7730 C   0  0  0  0  0  2  0  0  0  0  0  0
  -27.9920  -12.1420   18.3170 C   0  0  0  0  0  2  0  0  0  0  0  0
  -27.6050  -13.1570   19.4200 C   0  0  0  0  0  3  0  0  0  0  0  0
  -28.7220  -13.3570   20.4680 C   0  0  0  0  0  2  0  0  0  0  0  0
  -29.9120  -13.8570   19.7480 N   0  0  0  0  0  0  0  0  0  0  0  0
  -31.5810  -15.2070   19.2440 O   0  0  0  0  0  0  0  0  0  0  0  0
  -25.3180  -13.7500   20.3870 C   0  0  0  0  0  0  0  0  0  0  0  0
  -24.2740  -13.0000   20.8400 C   0  0  0  0  0  0  0  0  0  0  0  0
  -24.6900  -11.6400   20.7190 C   0  0  0  0  0  0  0  0  0  0  0  0
  -26.3140  -12.8600   20.0290 N   0  0  0  0  0  0  0  0  0  0  0  0
  -25.9500  -11.5770   20.2910 N   0  0  0  0  0  0  0  0  0  0  0  0
  -23.9360  -10.3990   20.9240 C   0  0  0  0  0  0  0  0  0  0  0  0
  -24.3700   -9.4120   21.8350 C   0  0  0  0  0  3  0  0  0  0  0  0
  -23.6110   -8.2380   22.0310 C   0  0  0  0  0  3  0  0  0  0  0  0
  -22.4040   -8.0450   21.3170 C   0  0  0  0  0  0  0  0  0  0  0  0
  -21.9900   -9.0220   20.3940 C   0  0  0  0  0  3  0  0  0  0  0  0
  -22.7500  -10.1860   20.1950 C   0  0  0  0  0  3  0  0  0  0  0  0
  -21.6140   -6.9250   21.4280 O   0  0  0  0  0  0  0  0  0  0  0  0
  -21.5360   -6.2130   22.5980 C   0  0  0  0  0  0  0  0  0  0  0  0
  -21.1090   -6.8080   23.8050 C   0  0  0  0  0  3  0  0  0  0  0  0
  -20.9730   -6.0220   24.9670 C   0  0  0  0  0  3  0  0  0  0  0  0
  -21.2570   -4.6440   24.9250 C   0  0  0  0  0  0  0  0  0  0  0  0
  -21.6820   -4.0490   23.7230 C   0  0  0  0  0  3  0  0  0  0  0  0
  -21.8170   -4.8320   22.5630 C   0  0  0  0  0  0  0  0  0  0  0  0
  -22.2020   -4.2500   21.4010 F   0  0  0  0  0  0  0  0  0  0  0  0
  -21.1190   -3.8880   26.0380 F   0  0  0  0  0  0  0  0  0  0  0  0
  -22.9250  -13.5180   21.2460 C   0  0  0  0  0  0  0  0  0  0  0  0
  -22.2510  -12.8300   22.1600 N   0  0  0  0  0  0  0  0  0  0  0  0
  -22.4830  -14.5730   20.7900 O   0  0  0  0  0  0  0  0  0  0  0  0
  -22.6220  -11.9830   22.5600 H   0  0  0  0  0  0  0  0  0  0  0  0
  -21.3490  -13.1600   22.4690 H   0  0  0  0  0  0  0  0  0  0  0  0
  -25.4840  -15.1150   20.2110 N   0  0  0  0  0  0  0  0  0  0  0  0
  -24.6940  -15.7400   20.3350 H   0  0  0  0  0  0  0  0  0  0  0  0
  -26.2020  -15.4970   19.6130 H   0  0  0  0  0  0  0  0  0  0  0  0
  2  9  1  0
  2  1  2  0
  3 53  1  0
  3  4  1  0
  4  1  1  0
  4 55  1  0
  5  3  1  0
  5  2  1  0
  6  5  1  0
  9  7  1  6
  9  8  1  0
 10  9  1  0
 10 11  1  0
 12 23  2  0
 13 11  1  0
 13 18  1  0
 14 22  1  0
 14 24  1  0
 15 21  1  0
 15 17  1  0
 16 22  1  0
 17 16  1  0
 18 17  2  0
 19 13  2  0
 20 19  1  0
 20 15  2  0
 21 14  1  0
 22 12  1  0
 24 26  2  0
 25 24  1  0
 27 25  1  0
 28 37  2  0
 28 33  1  0
 29 25  1  0
 29 33  1  0
 30 29  1  0
 31 32  1  0
 31 30  1  0
 32 28  1  0
 33 34  2  0
 34 35  1  0
 36 35  2  0
 37 36  1  0
 38 12  1  0
 38 43  1  0
 38 39  1  0
 39 42  1  1
 39 40  1  0
 41 39  1  0
 43 46  1  0
 44 48  1  0
 44 43  1  0
 45 44  2  0
 48 47  1  0
 50 48  1  0
 50 51  1  0
 50 49  1  0
 53 52  1  0
 55 54  1  0
 56 62  1  0
 56 55  1  0
 57 62  1  0
 58 59  1  0
 58 57  1  0
 60 59  1  0
 60 67  1  0
 60 61  1  0
 62 61  1  0
 63 56  2  0
 64 65  2  0
 65 84  1  0
 66 65  1  0
 66 69  1  0
 67 68  1  0
 67 64  1  0
 68 66  2  0
 69 70  1  0
 70 71  2  0
 72 75  1  0
 72 71  1  0
 73 72  2  0
 74 73  1  0
 74 69  2  0
 75 76  1  0
 76 77  1  0
 77 78  2  0
 79 78  1  0
 79 83  1  0
 80 79  2  0
 81 76  2  0
 81 80  1  0
 82 81  1  0
 84 85  1  0
 85 88  1  0
 85 87  1  0
 86 84  2  0
 89 90  1  0
 89 64  1  0
 91 89  1  0
M  ISO  4  10 101  11 101  55 100  56 100
M  END
>  <TORSDO>  (54) 
F 20

>  <SCORE>  (54) 
-15.097

>  <name>  (54) 
53

>  <ligand_id>  (54) 
53

>  <original_smiles>  (54) 
[H]c1c([H])c([H])c2c(c1[H])C([H])([H])C([H])([H])C([H])([H])C2([H])N([H])C(=O)C1([H])N(C(=O)C([H])(N([H])C(=O)C([H])(N([H])C([H])([H])[H])C([H])([H])[H])C(C([H])([H])[H])(C([H])([H])[H])C([H])([H])[H])C([H])([H])c2c([H])c(OC([H])([H])C(c3c([H])n(C([H])(C(=O)N4C([H])([H])C([H])([H])C([H])([H])C([H])(n5nc(-c6c([H])c([H])c(Oc7c([H])c([H])c(F)c([H])c7F)c([H])c6[H])c(C(=O)N([H])[H])c5N([H])[H])C4([H])[H])C([H])([H])[H])c(C([H])([H])C([H])([H])[H])[n+]3[H])(C([H])([H])[H])C([H])([H])[H])c([H])c([H])c2C1([H])[H]

>  <smiles>  (54) 
[H]c1c([H])c([H])c2c(c1[H])C([H])([H])C([H])([H])C([H])([H])C2([H])N([H])C(=O)C1([H])N(C(=O)C([H])(N([H])C(=O)C([H])(N([H])C([H])([H])[H])C([H])([H])[H])C(C([H])([H])[H])(C([H])([H])[H])C([H])([H])[H])C([H])([H])c2c([H])c(OC([H])([H])C(c3c([H])n(C([H])(C(=O)N4C([H])([H])C([H])([H])C([H])([H])C([H])(n5nc(-c6c([H])c([H])c(Oc7c([H])c([H])c(F)c([H])c7F)c([H])c6[H])c(C(=O)N([H])[H])c5N([H])[H])C4([H])[H])C([H])([H])[H])c(C([H])([H])C([H])([H])[H])[n+]3[H])(C([H])([H])[H])C([H])([H])[H])c([H])c([H])c2C1([H])[H]

$$$$
54:0:0
     RDKit          3D

 96104  0  0  1  0  0  0  0  0999 V2000
  -32.9520  -21.6200   20.2180 C   0  0  0  0  0  2  0  0  0  0  0  0
  -31.9820  -18.7340   22.2910 C   0  0  0  0  0  3  0  0  0  0  0  0
  -31.8670  -17.7140   21.3210 C   0  0  0  0  0  0  0  0  0  0  0  0
  -32.5060  -20.2110   20.6220 C   0  0  0  0  0  0  0  0  0  0  0  0
  -32.2940  -20.0040   21.9280 N   0  0  0  0  0  0  0  0  0  0  0  0
  -32.1300  -18.0050   20.0170 N   0  0  0  0  0  0  0  0  0  0  0  0
  -32.4370  -19.2670   19.6640 N   0  0  0  0  0  0  0  0  0  0  0  0
  -31.3920  -16.2900   21.7020 C   0  0  0  0  0  2  0  0  0  0  0  0
  -30.7710  -14.5550   20.0970 C   0  0  0  0  0  0  0  0  0  0  0  0
  -30.3210  -12.4110   18.9410 C   0  0  0  0  0  2  0  0  0  0  0  0
  -29.3450  -12.6500   17.7750 C   0  0  0  0  0  2  0  0  0  0  0  0
  -27.8880  -12.4870   18.2530 C   0  0  0  0  0  2  0  0  0  0  0  0
  -27.5980  -13.3030   19.5400 C   0  0  0  0  0  3  0  0  0  0  0  0
  -28.7090  -13.0870   20.6010 C   0  0  0  0  0  2  0  0  0  0  0  0
  -30.0090  -13.4130   19.9840 N   0  0  0  0  0  0  0  0  0  0  0  0
  -31.8770  -14.6100   19.5510 O   0  0  0  0  0  0  0  0  0  0  0  0
  -30.3600  -15.6250   20.8500 N   0  0  0  0  0  0  0  0  0  0  0  0
  -25.2120  -13.9390   20.2670 C   0  0  0  0  0  0  0  0  0  0  0  0
  -24.1560  -13.1850   20.6940 C   0  0  0  0  0  0  0  0  0  0  0  0
  -24.6030  -11.8330   20.6680 C   0  0  0  0  0  0  0  0  0  0  0  0
  -26.2560  -13.0480   20.0550 N   0  0  0  0  0  0  0  0  0  0  0  0
  -25.8880  -11.7760   20.3410 N   0  0  0  0  0  0  0  0  0  0  0  0
  -23.8640  -10.5860   20.8820 C   0  0  0  0  0  0  0  0  0  0  0  0
  -24.2960   -9.6270   21.8250 C   0  0  0  0  0  3  0  0  0  0  0  0
  -23.5570   -8.4410   22.0300 C   0  0  0  0  0  3  0  0  0  0  0  0
  -22.3740   -8.2090   21.2920 C   0  0  0  0  0  0  0  0  0  0  0  0
  -21.9660   -9.1510   20.3310 C   0  0  0  0  0  3  0  0  0  0  0  0
  -22.7040  -10.3260   20.1240 C   0  0  0  0  0  3  0  0  0  0  0  0
  -21.6070   -7.0770   21.4110 O   0  0  0  0  0  0  0  0  0  0  0  0
  -21.5610   -6.3600   22.5780 C   0  0  0  0  0  0  0  0  0  0  0  0
  -21.1410   -6.9410   23.7930 C   0  0  0  0  0  3  0  0  0  0  0  0
  -21.0260   -6.1450   24.9500 C   0  0  0  0  0  3  0  0  0  0  0  0
  -21.3400   -4.7730   24.8960 C   0  0  0  0  0  0  0  0  0  0  0  0
  -21.7640   -4.1960   23.6890 C   0  0  0  0  0  3  0  0  0  0  0  0
  -21.8660   -4.9850   22.5300 C   0  0  0  0  0  0  0  0  0  0  0  0
  -22.2520   -4.4180   21.3610 F   0  0  0  0  0  0  0  0  0  0  0  0
  -21.2250   -4.0100   26.0080 F   0  0  0  0  0  0  0  0  0  0  0  0
  -22.7760  -13.6860   21.0060 C   0  0  0  0  0  0  0  0  0  0  0  0
  -22.0810  -13.0170   21.9220 N   0  0  0  0  0  0  0  0  0  0  0  0
  -22.3260  -14.6990   20.4760 O   0  0  0  0  0  0  0  0  0  0  0  0
  -22.4540  -12.1830   22.3550 H   0  0  0  0  0  0  0  0  0  0  0  0
  -21.1600  -13.3320   22.1850 H   0  0  0  0  0  0  0  0  0  0  0  0
  -25.3510  -15.2940   20.0080 N   0  0  0  0  0  0  0  0  0  0  0  0
  -24.5990  -15.9650   20.1270 H   0  0  0  0  0  0  0  0  0  0  0  0
  -26.2030  -15.7040   19.6550 H   0  0  0  0  0  0  0  0  0  0  0  0
  -29.1010  -16.8560   18.9690 C   0  0  0  0  0  1  0  0  0  0  0  0
  -27.9850  -16.3570   21.2790 C   0  0  0  0  0  1  0  0  0  0  0  0
  -29.2740  -16.5910   20.4840 C   0  0  0  0  0  3  0  0  0  0  0  0
  -31.8610  -22.7330   20.1570 C   0  0  0  0  0  2  0  0  0  0  0  0
  -31.8650  -22.7690   17.6550 C   0  0  0  0  0  1  0  0  0  0  0  0
  -31.0650  -22.8940   18.9010 N   0  0  2  0  0  4  0  0  0  0  0  0
  -30.3880  -22.1430   18.8860 H   0  0  0  0  0  0  0  0  0  0  0  0
  -30.2870  -24.1770   18.8540 C   0  0  0  0  0  2  0  0  0  0  0  0
  -29.4030  -24.4450   20.0970 C   0  0  0  0  0  2  0  0  0  0  0  0
  -28.1520  -25.3110   19.8420 C   0  0  0  0  0  2  0  0  0  0  0  0
  -28.2950  -26.7150   20.0940 O   0  0  0  0  0  0  0  0  0  0  0  0
  -24.5250  -31.9060   23.2230 C   0  0  0  0  0  0  0  0  0  0  0  0
  -27.1170  -27.4490   20.1030 C   0  0  0  0  0  0  0  0  0  0  0  0
  -23.2970  -30.5170   21.5900 C   0  0  0  0  0  3  0  0  0  0  0  0
  -24.7270  -28.9760   20.1530 C   0  0  0  0  0  0  0  0  0  0  0  0
  -25.8280  -30.8530   21.3800 C   0  0  0  0  0  2  0  0  0  0  0  0
  -25.8970  -29.4860   20.7330 C   0  0  0  0  0  0  0  0  0  0  0  0
  -27.0910  -28.7290   20.7080 C   0  0  0  0  0  3  0  0  0  0  0  0
  -25.9160  -26.9570   19.5270 C   0  0  0  0  0  3  0  0  0  0  0  0
  -24.7320  -27.7110   19.5510 C   0  0  0  0  0  3  0  0  0  0  0  0
  -23.4920  -29.8450   20.2080 C   0  0  0  0  0  2  0  0  0  0  0  0
  -24.5680  -31.1070   22.1210 N   0  0  0  0  0  0  0  0  0  0  0  0
  -23.4480  -32.1860   23.7670 O   0  0  0  0  0  0  0  0  0  0  0  0
  -22.6500  -29.4930   22.5510 C   0  0  0  0  0  0  0  0  0  0  0  0
  -21.3230  -29.3150   22.4300 N   0  0  0  0  0  0  0  0  0  0  0  0
  -23.3370  -28.8620   23.3570 O   0  0  0  0  0  0  0  0  0  0  0  0
  -20.8290  -29.8790   21.7540 H   0  0  0  0  0  0  0  0  0  0  0  0
  -17.9440  -28.1520   22.9610 C   0  0  0  0  0  0  0  0  0  0  0  0
  -20.5080  -28.3810   23.2060 C   0  0  0  0  0  3  0  0  0  0  0  0
  -20.5870  -26.9510   22.6230 C   0  0  0  0  0  2  0  0  0  0  0  0
  -19.4700  -26.6440   21.6200 C   0  0  0  0  0  2  0  0  0  0  0  0
  -18.0990  -26.8030   22.2820 C   0  0  0  0  0  2  0  0  0  0  0  0
  -19.0750  -28.9000   23.3830 C   0  0  0  0  0  0  0  0  0  0  0  0
  -18.8760  -30.1660   23.9750 C   0  0  0  0  0  3  0  0  0  0  0  0
  -17.5780  -30.6810   24.1550 C   0  0  0  0  0  3  0  0  0  0  0  0
  -16.4620  -29.9290   23.7500 C   0  0  0  0  0  3  0  0  0  0  0  0
  -16.6460  -28.6670   23.1580 C   0  0  0  0  0  3  0  0  0  0  0  0
  -25.8190  -32.5290   23.8330 C   0  0  0  0  0  3  0  0  0  0  0  0
  -25.5230  -33.9280   24.1680 N   0  0  0  0  0  0  0  0  0  0  0  0
  -25.8650  -34.9790   23.4130 C   0  0  0  0  0  0  0  0  0  0  0  0
  -26.5360  -34.8740   22.3830 O   0  0  0  0  0  0  0  0  0  0  0  0
  -24.9320  -34.0860   24.9730 H   0  0  0  0  0  0  0  0  0  0  0  0
  -24.1740  -36.7970   23.0350 C   0  0  0  0  0  1  0  0  0  0  0  0
  -25.3890  -36.3700   23.8720 C   0  0  0  0  0  3  0  0  0  0  0  0
  -27.5150  -37.2170   24.7630 C   0  0  0  0  0  1  0  0  0  0  0  0
  -26.4390  -37.4070   23.7910 N   0  0  0  0  0  0  0  0  0  0  0  0
  -26.0470  -38.3360   23.9290 H   0  0  0  0  0  0  0  0  0  0  0  0
  -26.3480  -31.7480   25.1000 C   0  0  1  0  0  0  0  0  0  0  0  0
  -25.2660  -31.5030   26.1780 C   0  0  0  0  0  1  0  0  0  0  0  0
  -26.9240  -30.3740   24.6890 C   0  0  0  0  0  1  0  0  0  0  0  0
  -27.5040  -32.5380   25.7550 C   0  0  0  0  0  1  0  0  0  0  0  0
  1  4  1  0
  3  8  1  0
  3  2  2  0
  4  5  2  0
  5  2  1  0
  6  3  1  0
  7  6  2  0
  7  4  1  0
  9 17  1  0
 10 15  1  0
 11 12  1  0
 11 10  1  0
 13 12  1  0
 13 21  1  0
 13 14  1  0
 15  9  1  0
 15 14  1  0
 16  9  2  0
 17  8  1  0
 18 19  2  0
 19 38  1  0
 20 19  1  0
 20 23  1  0
 21 18  1  0
 21 22  1  0
 22 20  2  0
 23 24  1  0
 24 25  2  0
 26 29  1  0
 26 25  1  0
 27 26  2  0
 28 27  1  0
 28 23  2  0
 29 30  1  0
 30 31  1  0
 31 32  2  0
 33 32  1  0
 33 37  1  0
 34 33  2  0
 35 30  2  0
 35 34  1  0
 36 35  1  0
 38 39  1  0
 39 42  1  0
 39 41  1  0
 40 38  2  0
 43 44  1  0
 43 18  1  0
 45 43  1  0
 46 48  1  0
 48 17  1  0
 48 47  1  0
 49  1  1  0
 50 51  1  0
 51 49  1  0
 51 52  1  6
 53 51  1  0
 53 54  1  0
 55 56  1  0
 55 54  1  0
 56 58  1  0
 57 68  2  0
 58 63  1  0
 59 67  1  0
 59 69  1  0
 60 66  1  0
 60 62  1  0
 61 67  1  0
 62 61  1  0
 63 62  2  0
 64 65  1  0
 64 58  2  0
 65 60  2  0
 66 59  1  0
 67 57  1  0
 69 71  2  0
 70 69  1  0
 72 70  1  0
 73 82  2  0
 73 78  1  0
 74 70  1  0
 74 78  1  0
 75 74  1  0
 76 77  1  0
 76 75  1  0
 77 73  1  0
 78 79  2  0
 79 80  1  0
 81 80  2  0
 82 81  1  0
 83 57  1  0
 83 84  1  0
 83 93  1  0
 84 87  1  0
 85 89  1  0
 85 84  1  0
 86 85  2  0
 89 88  1  0
 91 89  1  0
 91 92  1  0
 91 90  1  0
 93 96  1  1
 93 94  1  0
 95 93  1  0
M  ISO  4   9 100  17 100  55 101  56 101
M  END
>  <TORSDO>  (55) 
F 24

>  <SCORE>  (55) 
-11.287

>  <name>  (55) 
54

>  <ligand_id>  (55) 
54

>  <original_smiles>  (55) 
[H]c1nc(C([H])([H])C([H])([H])[N+]([H])(C([H])([H])[H])C([H])([H])C([H])([H])C([H])([H])Oc2c([H])c([H])c3c(c2[H])C([H])([H])N(C(=O)C([H])(N([H])C(=O)C([H])(N([H])C([H])([H])[H])C([H])([H])[H])C(C([H])([H])[H])(C([H])([H])[H])C([H])([H])[H])C([H])(C(=O)N([H])C2([H])c4c([H])c([H])c([H])c([H])c4C([H])([H])C([H])([H])C2([H])[H])C3([H])[H])nnc1C([H])([H])N(C(=O)N1C([H])([H])C([H])([H])C([H])([H])C([H])(n2nc(-c3c([H])c([H])c(Oc4c([H])c([H])c(F)c([H])c4F)c([H])c3[H])c(C(=O)N([H])[H])c2N([H])[H])C1([H])[H])C([H])(C([H])([H])[H])C([H])([H])[H]

>  <smiles>  (55) 
[H]c1nc(C([H])([H])C([H])([H])[N+]([H])(C([H])([H])[H])C([H])([H])C([H])([H])C([H])([H])Oc2c([H])c([H])c3c(c2[H])C([H])([H])N(C(=O)C([H])(N([H])C(=O)C([H])(N([H])C([H])([H])[H])C([H])([H])[H])C(C([H])([H])[H])(C([H])([H])[H])C([H])([H])[H])C([H])(C(=O)N([H])C2([H])c4c([H])c([H])c([H])c([H])c4C([H])([H])C([H])([H])C2([H])[H])C3([H])[H])nnc1C([H])([H])N(C(=O)N1C([H])([H])C([H])([H])C([H])([H])C([H])(n2nc(-c3c([H])c([H])c(Oc4c([H])c([H])c(F)c([H])c4F)c([H])c3[H])c(C(=O)N([H])[H])c2N([H])[H])C1([H])[H])C([H])(C([H])([H])[H])C([H])([H])[H]

$$$$
55:0:0
     RDKit          3D

 95103  0  0  1  0  0  0  0  0999 V2000
  -28.2560  -22.9630   19.6800 C   0  0  0  0  0  3  0  0  0  0  0  0
  -28.6760  -24.2890   20.0030 C   0  0  0  0  0  0  0  0  0  0  0  0
  -28.7750  -22.1600   20.6660 C   0  0  0  0  0  0  0  0  0  0  0  0
  -30.2700  -22.6990   22.6890 C   0  0  0  0  0  1  0  0  0  0  0  0
  -29.4450  -24.2900   21.0850 N   0  0  0  0  0  0  0  0  0  0  0  0
  -29.5030  -23.0010   21.4930 N   0  0  0  0  0  0  0  0  0  0  0  0
  -28.4210  -25.5830   19.2450 C   0  0  0  0  0  2  0  0  0  0  0  0
  -28.2610  -26.7450   20.0830 O   0  0  0  0  0  0  0  0  0  0  0  0
  -24.5570  -31.9180   23.3030 C   0  0  0  0  0  0  0  0  0  0  0  0
  -27.0660  -27.4440   20.1220 C   0  0  0  0  0  0  0  0  0  0  0  0
  -23.2990  -30.5610   21.6630 C   0  0  0  0  0  3  0  0  0  0  0  0
  -24.6960  -29.0060   20.2040 C   0  0  0  0  0  0  0  0  0  0  0  0
  -25.8270  -30.8670   21.4260 C   0  0  0  0  0  2  0  0  0  0  0  0
  -25.8750  -29.4960   20.7820 C   0  0  0  0  0  0  0  0  0  0  0  0
  -27.0550  -28.7180   20.7440 C   0  0  0  0  0  3  0  0  0  0  0  0
  -25.8540  -26.9600   19.5730 C   0  0  0  0  0  3  0  0  0  0  0  0
  -24.6820  -27.7360   19.6060 C   0  0  0  0  0  3  0  0  0  0  0  0
  -23.4730  -29.8920   20.2730 C   0  0  0  0  0  2  0  0  0  0  0  0
  -24.5830  -31.1290   22.1910 N   0  0  0  0  0  0  0  0  0  0  0  0
  -23.4880  -32.2050   23.8580 O   0  0  0  0  0  0  0  0  0  0  0  0
  -22.6410  -29.5420   22.6200 C   0  0  0  0  0  0  0  0  0  0  0  0
  -21.3170  -29.3630   22.4780 N   0  0  0  0  0  0  0  0  0  0  0  0
  -23.3140  -28.9190   23.4440 O   0  0  0  0  0  0  0  0  0  0  0  0
  -20.8340  -29.9260   21.7920 H   0  0  0  0  0  0  0  0  0  0  0  0
  -17.9500  -28.1130   22.8790 C   0  0  0  0  0  0  0  0  0  0  0  0
  -20.4910  -28.4230   23.2360 C   0  0  0  0  0  3  0  0  0  0  0  0
  -20.6390  -26.9820   22.6930 C   0  0  0  0  0  2  0  0  0  0  0  0
  -19.5790  -26.6180   21.6490 C   0  0  0  0  0  2  0  0  0  0  0  0
  -18.1740  -26.7510   22.2420 C   0  0  0  0  0  2  0  0  0  0  0  0
  -19.0400  -28.9030   23.3330 C   0  0  0  0  0  0  0  0  0  0  0  0
  -18.7800  -30.1740   23.8860 C   0  0  0  0  0  3  0  0  0  0  0  0
  -17.4620  -30.6570   23.9950 C   0  0  0  0  0  3  0  0  0  0  0  0
  -16.3860  -29.8640   23.5590 C   0  0  0  0  0  3  0  0  0  0  0  0
  -16.6300  -28.5940   23.0050 C   0  0  0  0  0  3  0  0  0  0  0  0
  -25.8630  -32.5120   23.9180 C   0  0  0  0  0  3  0  0  0  0  0  0
  -25.5930  -33.9150   24.2590 N   0  0  0  0  0  0  0  0  0  0  0  0
  -25.9530  -34.9630   23.5060 C   0  0  0  0  0  0  0  0  0  0  0  0
  -26.6200  -34.8480   22.4730 O   0  0  0  0  0  0  0  0  0  0  0  0
  -25.0030  -34.0830   25.0590 H   0  0  0  0  0  0  0  0  0  0  0  0
  -24.2700  -36.7990   23.1720 C   0  0  0  0  0  1  0  0  0  0  0  0
  -25.5060  -36.3610   23.9730 C   0  0  0  0  0  3  0  0  0  0  0  0
  -27.6690  -37.1840   24.7890 C   0  0  0  0  0  1  0  0  0  0  0  0
  -26.5640  -37.3870   23.8560 N   0  0  0  0  0  0  0  0  0  0  0  0
  -26.1860  -38.3180   24.0130 H   0  0  0  0  0  0  0  0  0  0  0  0
  -26.3710  -31.7170   25.1830 C   0  0  1  0  0  0  0  0  0  0  0  0
  -25.2780  -31.4940   26.2550 C   0  0  0  0  0  1  0  0  0  0  0  0
  -26.9200  -30.3330   24.7630 C   0  0  0  0  0  1  0  0  0  0  0  0
  -27.5470  -32.4760   25.8410 C   0  0  0  0  0  1  0  0  0  0  0  0
  -28.5940  -20.6780   20.9190 C   0  0  0  0  0  2  0  0  0  0  0  0
  -29.9350  -19.8080   19.0350 C   0  0  0  0  0  1  0  0  0  0  0  0
  -29.7330  -19.8010   20.5040 N   0  0  2  0  0  4  0  0  0  0  0  0
  -30.5590  -20.2070   20.9180 H   0  0  0  0  0  0  0  0  0  0  0  0
  -29.6370  -18.4180   21.0830 C   0  0  0  0  0  2  0  0  0  0  0  0
  -32.0590  -18.8470   21.8090 C   0  0  0  0  0  1  0  0  0  0  0  0
  -30.7720  -17.0010   22.8600 C   0  0  0  0  0  1  0  0  0  0  0  0
  -30.9930  -17.7620   21.5300 C   0  0  1  0  0  0  0  0  0  0  0  0
  -31.5710  -16.7520   20.4930 C   0  0  0  0  0  2  0  0  0  0  0  0
  -31.3800  -14.3850   19.8170 C   0  0  0  0  0  0  0  0  0  0  0  0
  -30.8900  -12.1360   18.9380 C   0  0  0  0  0  2  0  0  0  0  0  0
  -29.9190  -12.2390   17.7450 C   0  0  0  0  0  2  0  0  0  0  0  0
  -28.4560  -12.2570   18.2290 C   0  0  0  0  0  2  0  0  0  0  0  0
  -28.2150  -13.2590   19.3910 C   0  0  0  0  0  3  0  0  0  0  0  0
  -29.2960  -13.1190   20.4850 C   0  0  0  0  0  2  0  0  0  0  0  0
  -30.6130  -13.2630   19.8400 N   0  0  0  0  0  0  0  0  0  0  0  0
  -32.4690  -14.4460   19.2390 O   0  0  0  0  0  0  0  0  0  0  0  0
  -30.8510  -15.4750   20.3900 N   0  0  0  0  0  0  0  0  0  0  0  0
  -29.9370  -15.3940   20.8100 H   0  0  0  0  0  0  0  0  0  0  0  0
  -25.9430  -14.1030   20.2500 C   0  0  0  0  0  0  0  0  0  0  0  0
  -24.8190  -13.4430   20.6660 C   0  0  0  0  0  0  0  0  0  0  0  0
  -25.1240  -12.0510   20.5820 C   0  0  0  0  0  0  0  0  0  0  0  0
  -26.8700  -13.1200   19.9420 N   0  0  0  0  0  0  0  0  0  0  0  0
  -26.3830  -11.8780   20.1990 N   0  0  0  0  0  0  0  0  0  0  0  0
  -24.2750  -10.8700   20.7930 C   0  0  0  0  0  0  0  0  0  0  0  0
  -24.6370   -9.8550   21.7050 C   0  0  0  0  0  3  0  0  0  0  0  0
  -23.7960   -8.7390   21.9060 C   0  0  0  0  0  3  0  0  0  0  0  0
  -22.5790   -8.6300   21.1910 C   0  0  0  0  0  0  0  0  0  0  0  0
  -22.2340   -9.6330   20.2690 C   0  0  0  0  0  3  0  0  0  0  0  0
  -23.0740  -10.7410   20.0670 C   0  0  0  0  0  3  0  0  0  0  0  0
  -21.7120   -7.5700   21.2990 O   0  0  0  0  0  0  0  0  0  0  0  0
  -21.6050   -6.8440   22.4580 C   0  0  0  0  0  0  0  0  0  0  0  0
  -21.2700   -7.4500   23.6890 C   0  0  0  0  0  3  0  0  0  0  0  0
  -21.1020   -6.6570   24.8410 C   0  0  0  0  0  3  0  0  0  0  0  0
  -21.2580   -5.2600   24.7640 C   0  0  0  0  0  0  0  0  0  0  0  0
  -21.5850   -4.6540   23.5380 C   0  0  0  0  0  3  0  0  0  0  0  0
  -21.7560   -5.4440   22.3890 C   0  0  0  0  0  0  0  0  0  0  0  0
  -22.0510   -4.8540   21.2050 F   0  0  0  0  0  0  0  0  0  0  0  0
  -21.0880   -4.4970   25.8690 F   0  0  0  0  0  0  0  0  0  0  0  0
  -23.5000  -14.0640   21.0280 C   0  0  0  0  0  0  0  0  0  0  0  0
  -22.7600  -13.4410   21.9390 N   0  0  0  0  0  0  0  0  0  0  0  0
  -23.1410  -15.1330   20.5380 O   0  0  0  0  0  0  0  0  0  0  0  0
  -23.0620  -12.5710   22.3500 H   0  0  0  0  0  0  0  0  0  0  0  0
  -21.8760  -13.8380   22.2230 H   0  0  0  0  0  0  0  0  0  0  0  0
  -26.2490  -15.4510   20.0900 N   0  0  0  0  0  0  0  0  0  0  0  0
  -25.5580  -16.1790   20.2380 H   0  0  0  0  0  0  0  0  0  0  0  0
  -27.1100  -15.7970   19.6900 H   0  0  0  0  0  0  0  0  0  0  0  0
  1  2  1  0
  1  3  2  0
  2  5  2  0
  3 49  1  0
  3  6  1  0
  5  6  1  0
  6  4  1  0
  7  2  1  0
  7  8  1  0
  8 10  1  0
  9 20  2  0
 10 15  1  0
 11 19  1  0
 11 21  1  0
 12 18  1  0
 12 14  1  0
 13 19  1  0
 14 13  1  0
 15 14  2  0
 16 17  1  0
 16 10  2  0
 17 12  2  0
 18 11  1  0
 19  9  1  0
 21 23  2  0
 22 21  1  0
 24 22  1  0
 25 34  2  0
 25 30  1  0
 26 22  1  0
 26 30  1  0
 27 26  1  0
 28 29  1  0
 28 27  1  0
 29 25  1  0
 30 31  2  0
 31 32  1  0
 33 32  2  0
 34 33  1  0
 35  9  1  0
 35 36  1  0
 35 45  1  0
 36 39  1  0
 37 41  1  0
 37 36  1  0
 38 37  2  0
 41 40  1  0
 43 41  1  0
 43 44  1  0
 43 42  1  0
 45 48  1  1
 45 46  1  0
 47 45  1  0
 50 51  1  0
 51 52  1  1
 51 49  1  0
 51 53  1  0
 53 56  1  0
 56 54  1  1
 56 55  1  0
 57 56  1  0
 58 64  1  0
 58 66  1  0
 59 64  1  0
 60 61  1  0
 60 59  1  0
 62 61  1  0
 62 71  1  0
 62 63  1  0
 64 63  1  0
 65 58  2  0
 66 57  1  0
 66 67  1  0
 68 69  2  0
 69 88  1  0
 70 69  1  0
 70 73  1  0
 71 72  1  0
 71 68  1  0
 72 70  2  0
 73 74  1  0
 74 75  2  0
 76 79  1  0
 76 75  1  0
 77 76  2  0
 78 77  1  0
 78 73  2  0
 79 80  1  0
 80 81  1  0
 81 82  2  0
 83 82  1  0
 83 87  1  0
 84 83  2  0
 85 80  2  0
 85 84  1  0
 86 85  1  0
 88 89  1  0
 89 92  1  0
 89 91  1  0
 90 88  2  0
 93 94  1  0
 93 68  1  0
 95 93  1  0
M  ISO  4   7 101   8 101  58 100  66 100
M  END
>  <TORSDO>  (56) 
F 22

>  <SCORE>  (56) 
-12.688

>  <name>  (56) 
55

>  <ligand_id>  (56) 
55

>  <original_smiles>  (56) 
[H]c1c([H])c([H])c2c(c1[H])C([H])([H])C([H])([H])C([H])([H])C2([H])N([H])C(=O)C1([H])N(C(=O)C([H])(N([H])C(=O)C([H])(N([H])C([H])([H])[H])C([H])([H])[H])C(C([H])([H])[H])(C([H])([H])[H])C([H])([H])[H])C([H])([H])c2c([H])c(OC([H])([H])c3nn(C([H])([H])[H])c(C([H])([H])[N+]([H])(C([H])([H])[H])C([H])([H])C(C([H])([H])[H])(C([H])([H])[H])C([H])([H])N([H])C(=O)N4C([H])([H])C([H])([H])C([H])([H])C([H])(n5nc(-c6c([H])c([H])c(Oc7c([H])c([H])c(F)c([H])c7F)c([H])c6[H])c(C(=O)N([H])[H])c5N([H])[H])C4([H])[H])c3[H])c([H])c([H])c2C1([H])[H]

>  <smiles>  (56) 
[H]c1c([H])c([H])c2c(c1[H])C([H])([H])C([H])([H])C([H])([H])C2([H])N([H])C(=O)C1([H])N(C(=O)C([H])(N([H])C(=O)C([H])(N([H])C([H])([H])[H])C([H])([H])[H])C(C([H])([H])[H])(C([H])([H])[H])C([H])([H])[H])C([H])([H])c2c([H])c(OC([H])([H])c3nn(C([H])([H])[H])c(C([H])([H])[N+]([H])(C([H])([H])[H])C([H])([H])C(C([H])([H])[H])(C([H])([H])[H])C([H])([H])N([H])C(=O)N4C([H])([H])C([H])([H])C([H])([H])C([H])(n5nc(-c6c([H])c([H])c(Oc7c([H])c([H])c(F)c([H])c7F)c([H])c6[H])c(C(=O)N([H])[H])c5N([H])[H])C4([H])[H])c3[H])c([H])c([H])c2C1([H])[H]

$$$$
56:0:0
     RDKit          3D

 96104  0  0  1  0  0  0  0  0999 V2000
  -27.3360  -18.4380   19.7730 C   0  0  0  0  0  3  0  0  0  0  0  0
  -27.5800  -19.8260   19.8060 C   0  0  0  0  0  0  0  0  0  0  0  0
  -29.5760  -19.4320   20.9040 C   0  0  0  0  0  0  0  0  0  0  0  0
  -29.4270  -18.0160   20.7010 C   0  0  0  0  0  0  0  0  0  0  0  0
  -30.6930  -20.1130   21.6750 C   0  0  0  0  0  1  0  0  0  0  0  0
  -28.2360  -17.5410   20.2390 N   0  0  0  0  0  0  0  0  0  0  0  0
  -28.6690  -20.3250   20.4300 N   0  0  0  0  0  0  0  0  0  0  0  0
  -31.9450  -17.5040   21.0800 C   0  0  0  0  0  1  0  0  0  0  0  0
  -30.1670  -16.2270   22.2750 C   0  0  0  0  0  1  0  0  0  0  0  0
  -30.5150  -16.9100   20.9340 C   0  0  1  0  0  0  0  0  0  0  0  0
  -31.3100  -14.7440   19.8440 C   0  0  0  0  0  0  0  0  0  0  0  0
  -30.9210  -12.5270   18.8440 C   0  0  0  0  0  2  0  0  0  0  0  0
  -29.9300  -12.6730   17.6700 C   0  0  0  0  0  2  0  0  0  0  0  0
  -28.4760  -12.5760   18.1700 C   0  0  0  0  0  2  0  0  0  0  0  0
  -28.1980  -13.4890   19.3920 C   0  0  0  0  0  3  0  0  0  0  0  0
  -29.3020  -13.3350   20.4580 C   0  0  0  0  0  2  0  0  0  0  0  0
  -30.5950  -13.5860   19.8110 N   0  0  0  0  0  0  0  0  0  0  0  0
  -32.4900  -14.7800   19.4790 O   0  0  0  0  0  0  0  0  0  0  0  0
  -30.5890  -16.4970   18.4480 C   0  0  0  0  0  1  0  0  0  0  0  0
  -30.5800  -15.8970   19.8060 N   0  0  0  0  0  0  0  0  0  0  0  0
  -25.8700  -14.1650   20.2520 C   0  0  0  0  0  0  0  0  0  0  0  0
  -24.7970  -13.4270   20.6680 C   0  0  0  0  0  0  0  0  0  0  0  0
  -25.2060  -12.0590   20.5910 C   0  0  0  0  0  0  0  0  0  0  0  0
  -26.8680  -13.2510   19.9470 N   0  0  0  0  0  0  0  0  0  0  0  0
  -26.4730  -11.9790   20.2070 N   0  0  0  0  0  0  0  0  0  0  0  0
  -24.4460  -10.8210   20.8030 C   0  0  0  0  0  0  0  0  0  0  0  0
  -24.8310   -9.8750   21.7790 C   0  0  0  0  0  3  0  0  0  0  0  0
  -24.0740   -8.6990   21.9740 C   0  0  0  0  0  3  0  0  0  0  0  0
  -22.9190   -8.4620   21.1930 C   0  0  0  0  0  0  0  0  0  0  0  0
  -22.5560   -9.3930   20.2040 C   0  0  0  0  0  3  0  0  0  0  0  0
  -23.3120  -10.5600   20.0070 C   0  0  0  0  0  3  0  0  0  0  0  0
  -22.1340   -7.3390   21.2960 O   0  0  0  0  0  0  0  0  0  0  0  0
  -21.9400   -6.7040   22.4960 C   0  0  0  0  0  0  0  0  0  0  0  0
  -21.3970   -7.3730   23.6150 C   0  0  0  0  0  3  0  0  0  0  0  0
  -21.1520   -6.6640   24.8080 C   0  0  0  0  0  3  0  0  0  0  0  0
  -21.4380   -5.2880   24.8810 C   0  0  0  0  0  0  0  0  0  0  0  0
  -21.9730   -4.6200   23.7660 C   0  0  0  0  0  3  0  0  0  0  0  0
  -22.2200   -5.3250   22.5760 C   0  0  0  0  0  0  0  0  0  0  0  0
  -22.7160   -4.6700   21.4970 F   0  0  0  0  0  0  0  0  0  0  0  0
  -21.1950   -4.6060   26.0240 F   0  0  0  0  0  0  0  0  0  0  0  0
  -23.4380  -13.9510   21.0330 C   0  0  0  0  0  0  0  0  0  0  0  0
  -22.7420  -13.2690   21.9370 N   0  0  0  0  0  0  0  0  0  0  0  0
  -23.0060  -14.9980   20.5530 O   0  0  0  0  0  0  0  0  0  0  0  0
  -23.1100  -12.4220   22.3420 H   0  0  0  0  0  0  0  0  0  0  0  0
  -21.8280  -13.5910   22.2200 H   0  0  0  0  0  0  0  0  0  0  0  0
  -26.0790  -15.5310   20.0940 N   0  0  0  0  0  0  0  0  0  0  0  0
  -25.3750  -16.2150   20.3410 H   0  0  0  0  0  0  0  0  0  0  0  0
  -26.9820  -15.9530   19.8980 H   0  0  0  0  0  0  0  0  0  0  0  0
  -26.6300  -20.7880   19.1010 C   0  0  0  0  0  2  0  0  0  0  0  0
  -25.3190  -22.8280   19.3900 C   0  0  0  0  0  1  0  0  0  0  0  0
  -26.6510  -22.1950   19.5900 N   0  0  2  0  0  4  0  0  0  0  0  0
  -26.8110  -22.1120   20.5850 H   0  0  0  0  0  0  0  0  0  0  0  0
  -27.7740  -22.9970   19.0020 C   0  0  0  0  0  2  0  0  0  0  0  0
  -28.0520  -24.3620   19.6950 C   0  0  0  0  0  2  0  0  0  0  0  0
  -28.4140  -25.4810   18.6940 C   0  0  0  0  0  2  0  0  0  0  0  0
  -28.3730  -26.7840   19.2860 O   0  0  0  0  0  0  0  0  0  0  0  0
  -24.7070  -31.4980   23.1180 C   0  0  0  0  0  0  0  0  0  0  0  0
  -27.1720  -27.4570   19.4040 C   0  0  0  0  0  0  0  0  0  0  0  0
  -23.4120  -30.3120   21.3730 C   0  0  0  0  0  3  0  0  0  0  0  0
  -24.7840  -28.9470   19.7160 C   0  0  0  0  0  0  0  0  0  0  0  0
  -25.9290  -30.6840   21.1040 C   0  0  0  0  0  2  0  0  0  0  0  0
  -25.9720  -29.4000   20.3000 C   0  0  0  0  0  0  0  0  0  0  0  0
  -27.1660  -28.6610   20.1410 C   0  0  0  0  0  3  0  0  0  0  0  0
  -25.9570  -27.0070   18.8330 C   0  0  0  0  0  3  0  0  0  0  0  0
  -24.7690  -27.7470   18.9870 C   0  0  0  0  0  3  0  0  0  0  0  0
  -23.5520  -29.7990   19.9160 C   0  0  0  0  0  2  0  0  0  0  0  0
  -24.7040  -30.8380   21.9250 N   0  0  0  0  0  0  0  0  0  0  0  0
  -23.6550  -31.7080   23.7370 O   0  0  0  0  0  0  0  0  0  0  0  0
  -22.7980  -29.1840   22.2310 C   0  0  0  0  0  0  0  0  0  0  0  0
  -21.4700  -29.0150   22.1290 N   0  0  0  0  0  0  0  0  0  0  0  0
  -23.5100  -28.4720   22.9440 O   0  0  0  0  0  0  0  0  0  0  0  0
  -20.9580  -29.6500   21.5330 H   0  0  0  0  0  0  0  0  0  0  0  0
  -18.1200  -27.7300   22.5450 C   0  0  0  0  0  0  0  0  0  0  0  0
  -20.6780  -27.9900   22.8130 C   0  0  0  0  0  3  0  0  0  0  0  0
  -20.7870  -26.6250   22.0940 C   0  0  0  0  0  2  0  0  0  0  0  0
  -19.6790  -26.3930   21.0630 C   0  0  0  0  0  2  0  0  0  0  0  0
  -18.3030  -26.4600   21.7300 C   0  0  0  0  0  2  0  0  0  0  0  0
  -19.2370  -28.4560   23.0370 C   0  0  0  0  0  0  0  0  0  0  0  0
  -19.0100  -29.6510   23.7550 C   0  0  0  0  0  3  0  0  0  0  0  0
  -17.7050  -30.1200   23.9860 C   0  0  0  0  0  3  0  0  0  0  0  0
  -16.6030  -29.3850   23.5120 C   0  0  0  0  0  3  0  0  0  0  0  0
  -16.8120  -28.1910   22.8000 C   0  0  0  0  0  3  0  0  0  0  0  0
  -26.0250  -32.0420   23.7500 C   0  0  0  0  0  3  0  0  0  0  0  0
  -25.7500  -33.3900   24.2630 N   0  0  0  0  0  0  0  0  0  0  0  0
  -26.0760  -34.5250   23.6290 C   0  0  0  0  0  0  0  0  0  0  0  0
  -26.7180  -34.5400   22.5750 O   0  0  0  0  0  0  0  0  0  0  0  0
  -25.1800  -33.4490   25.0940 H   0  0  0  0  0  0  0  0  0  0  0  0
  -24.3660  -36.3620   23.5530 C   0  0  0  0  0  1  0  0  0  0  0  0
  -25.6250  -35.8500   24.2710 C   0  0  0  0  0  3  0  0  0  0  0  0
  -27.7960  -36.6000   25.1370 C   0  0  0  0  0  1  0  0  0  0  0  0
  -26.6690  -36.8970   24.2560 N   0  0  0  0  0  0  0  0  0  0  0  0
  -26.2830  -37.7980   24.5300 H   0  0  0  0  0  0  0  0  0  0  0  0
  -26.5960  -31.1130   24.8920 C   0  0  1  0  0  0  0  0  0  0  0  0
  -25.5560  -30.7540   25.9780 C   0  0  0  0  0  1  0  0  0  0  0  0
  -27.1370  -29.7890   24.3010 C   0  0  0  0  0  1  0  0  0  0  0  0
  -27.7920  -31.8090   25.5840 C   0  0  0  0  0  1  0  0  0  0  0  0
  1  2  2  0
  1  6  1  0
  2  7  1  0
  3  5  1  0
  4  3  1  0
  4 10  1  0
  6  4  2  0
  7  3  2  0
 10  8  1  1
 10  9  1  0
 12 17  1  0
 13 14  1  0
 13 12  1  0
 15 14  1  0
 15 24  1  0
 15 16  1  0
 17 11  1  0
 17 16  1  0
 18 11  2  0
 19 20  1  0
 20 11  1  0
 20 10  1  0
 21 22  2  0
 22 41  1  0
 23 22  1  0
 23 26  1  0
 24 25  1  0
 24 21  1  0
 25 23  2  0
 26 27  1  0
 27 28  2  0
 29 32  1  0
 29 28  1  0
 30 29  2  0
 31 30  1  0
 31 26  2  0
 32 33  1  0
 33 38  2  0
 33 34  1  0
 34 35  2  0
 35 36  1  0
 36 40  1  0
 37 36  2  0
 38 37  1  0
 39 38  1  0
 41 42  1  0
 42 45  1  0
 42 44  1  0
 43 41  2  0
 46 21  1  0
 46 47  1  0
 48 46  1  0
 49 51  1  0
 49  2  1  0
 50 51  1  0
 51 52  1  1
 53 51  1  0
 53 54  1  0
 55 56  1  0
 55 54  1  0
 56 58  1  0
 57 68  2  0
 58 63  1  0
 59 67  1  0
 59 69  1  0
 60 66  1  0
 60 62  1  0
 61 67  1  0
 62 61  1  0
 63 62  2  0
 64 65  1  0
 64 58  2  0
 65 60  2  0
 66 59  1  0
 67 57  1  0
 69 71  2  0
 70 69  1  0
 72 70  1  0
 73 82  2  0
 73 78  1  0
 74 70  1  0
 74 78  1  0
 75 74  1  0
 76 77  1  0
 76 75  1  0
 77 73  1  0
 78 79  2  0
 79 80  1  0
 81 80  2  0
 82 81  1  0
 83 57  1  0
 83 84  1  0
 83 93  1  0
 84 87  1  0
 85 84  1  0
 85 89  1  0
 86 85  2  0
 89 88  1  0
 91 89  1  0
 91 92  1  0
 91 90  1  0
 93 96  1  1
 93 94  1  0
 95 93  1  0
M  ISO  4  11 100  20 100  55 101  56 101
M  END
>  <TORSDO>  (57) 
F 22

>  <SCORE>  (57) 
-11.374

>  <name>  (57) 
56

>  <ligand_id>  (57) 
56

>  <original_smiles>  (57) 
[H]c1nc(C(N(C(=O)N2C([H])([H])C([H])([H])C([H])([H])C([H])(n3nc(-c4c([H])c([H])c(Oc5c([H])c([H])c(F)c([H])c5F)c([H])c4[H])c(C(=O)N([H])[H])c3N([H])[H])C2([H])[H])C([H])([H])[H])(C([H])([H])[H])C([H])([H])[H])c(C([H])([H])[H])nc1C([H])([H])[N+]([H])(C([H])([H])[H])C([H])([H])C([H])([H])C([H])([H])Oc1c([H])c([H])c2c(c1[H])C([H])([H])N(C(=O)C([H])(N([H])C(=O)C([H])(N([H])C([H])([H])[H])C([H])([H])[H])C(C([H])([H])[H])(C([H])([H])[H])C([H])([H])[H])C([H])(C(=O)N([H])C1([H])c3c([H])c([H])c([H])c([H])c3C([H])([H])C([H])([H])C1([H])[H])C2([H])[H]

>  <smiles>  (57) 
[H]c1nc(C(N(C(=O)N2C([H])([H])C([H])([H])C([H])([H])C([H])(n3nc(-c4c([H])c([H])c(Oc5c([H])c([H])c(F)c([H])c5F)c([H])c4[H])c(C(=O)N([H])[H])c3N([H])[H])C2([H])[H])C([H])([H])[H])(C([H])([H])[H])C([H])([H])[H])c(C([H])([H])[H])nc1C([H])([H])[N+]([H])(C([H])([H])[H])C([H])([H])C([H])([H])C([H])([H])Oc1c([H])c([H])c2c(c1[H])C([H])([H])N(C(=O)C([H])(N([H])C(=O)C([H])(N([H])C([H])([H])[H])C([H])([H])[H])C(C([H])([H])[H])(C([H])([H])[H])C([H])([H])[H])C([H])(C(=O)N([H])C1([H])c3c([H])c([H])c([H])c([H])c3C([H])([H])C([H])([H])C1([H])[H])C2([H])[H]

$$$$
57:0:0
     RDKit          3D

 88 96  0  0  1  0  0  0  0  0999 V2000
  -28.7140  -22.0270   18.7980 C   0  0  0  0  0  3  0  0  0  0  0  0
  -28.7330  -22.6460   20.0460 C   0  0  0  0  0  0  0  0  0  0  0  0
  -29.3980  -20.1620   20.0600 C   0  0  0  0  0  3  0  0  0  0  0  0
  -29.3900  -21.3940   22.2280 C   0  0  0  0  0  1  0  0  0  0  0  0
  -29.1740  -21.4070   20.7820 N   0  0  0  0  0  0  0  0  0  0  0  0
  -29.0840  -20.6550   18.8400 N   0  0  0  0  0  0  0  0  0  0  0  0
  -29.1350  -20.0880   18.0020 H   0  0  0  0  0  0  0  0  0  0  0  0
  -28.1230  -24.2580   20.5350 C   0  0  0  0  0  2  0  0  0  0  0  0
  -28.3490  -25.8800   20.1390 O   0  0  0  0  0  0  0  0  0  0  0  0
  -24.6860  -31.9000   23.1430 C   0  0  0  0  0  0  0  0  0  0  0  0
  -27.3310  -27.0020   20.1500 C   0  0  0  0  0  0  0  0  0  0  0  0
  -23.5320  -30.4980   21.4850 C   0  0  0  0  0  3  0  0  0  0  0  0
  -25.0160  -28.9000   20.0830 C   0  0  0  0  0  0  0  0  0  0  0  0
  -26.1020  -30.7190   21.3780 C   0  0  0  0  0  2  0  0  0  0  0  0
  -26.1980  -29.3040   20.7190 C   0  0  0  0  0  0  0  0  0  0  0  0
  -27.3490  -28.3810   20.7190 C   0  0  0  0  0  3  0  0  0  0  0  0
  -26.1130  -26.7670   19.4700 C   0  0  0  0  0  3  0  0  0  0  0  0
  -25.0030  -27.6540   19.4370 C   0  0  0  0  0  3  0  0  0  0  0  0
  -23.7910  -29.8170   20.1120 C   0  0  0  0  0  2  0  0  0  0  0  0
  -24.7950  -31.0690   22.0550 N   0  0  0  0  0  0  0  0  0  0  0  0
  -23.5850  -32.1760   23.6490 O   0  0  0  0  0  0  0  0  0  0  0  0
  -22.8300  -29.4950   22.4400 C   0  0  0  0  0  0  0  0  0  0  0  0
  -21.5020  -29.3190   22.2970 N   0  0  0  0  0  0  0  0  0  0  0  0
  -23.4880  -28.8760   23.2790 O   0  0  0  0  0  0  0  0  0  0  0  0
  -21.0220  -29.8700   21.5990 H   0  0  0  0  0  0  0  0  0  0  0  0
  -18.1240  -28.0700   22.7650 C   0  0  0  0  0  0  0  0  0  0  0  0
  -20.6790  -28.3680   23.0540 C   0  0  0  0  0  3  0  0  0  0  0  0
  -20.8020  -26.9400   22.4740 C   0  0  0  0  0  2  0  0  0  0  0  0
  -19.7140  -26.6100   21.4460 C   0  0  0  0  0  2  0  0  0  0  0  0
  -18.3240  -26.7290   22.0790 C   0  0  0  0  0  2  0  0  0  0  0  0
  -19.2280  -28.8460   23.2090 C   0  0  0  0  0  0  0  0  0  0  0  0
  -18.9840  -30.0980   23.8150 C   0  0  0  0  0  3  0  0  0  0  0  0
  -17.6690  -30.5740   23.9790 C   0  0  0  0  0  3  0  0  0  0  0  0
  -16.5790  -29.7960   23.5480 C   0  0  0  0  0  3  0  0  0  0  0  0
  -16.8090  -28.5450   22.9480 C   0  0  0  0  0  3  0  0  0  0  0  0
  -25.9370  -32.5580   23.7990 C   0  0  0  0  0  3  0  0  0  0  0  0
  -25.6010  -33.9560   24.1250 N   0  0  0  0  0  0  0  0  0  0  0  0
  -25.9480  -35.0220   23.3910 C   0  0  0  0  0  0  0  0  0  0  0  0
  -26.6440  -34.9320   22.3760 O   0  0  0  0  0  0  0  0  0  0  0  0
  -24.9830  -34.0970   24.9110 H   0  0  0  0  0  0  0  0  0  0  0  0
  -24.2370  -36.8310   23.0020 C   0  0  0  0  0  1  0  0  0  0  0  0
  -25.4460  -36.4070   23.8520 C   0  0  0  0  0  3  0  0  0  0  0  0
  -27.5420  -37.2860   24.7840 C   0  0  0  0  0  1  0  0  0  0  0  0
  -26.4830  -37.4600   23.7930 N   0  0  0  0  0  0  0  0  0  0  0  0
  -26.0720  -38.3800   23.9270 H   0  0  0  0  0  0  0  0  0  0  0  0
  -26.4230  -31.8020   25.0970 C   0  0  1  0  0  0  0  0  0  0  0  0
  -25.3040  -31.5680   26.1390 C   0  0  0  0  0  1  0  0  0  0  0  0
  -27.0270  -30.4240   24.7450 C   0  0  0  0  0  1  0  0  0  0  0  0
  -27.5520  -32.6110   25.7800 C   0  0  0  0  0  1  0  0  0  0  0  0
  -30.1450  -18.5570   20.3890 C   0  0  0  0  0  2  0  0  0  0  0  0
  -30.4720  -15.5710   20.1420 C   0  0  0  0  0  0  0  0  0  0  0  0
  -30.4740  -13.0840   19.2760 C   0  0  0  0  0  2  0  0  0  0  0  0
  -29.5340  -12.7680   18.0810 C   0  0  0  0  0  2  0  0  0  0  0  0
  -28.1080  -12.4530   18.5640 C   0  0  0  0  0  2  0  0  0  0  0  0
  -27.6530  -13.4360   19.6680 C   0  0  0  0  0  3  0  0  0  0  0  0
  -28.7280  -13.6560   20.7580 C   0  0  0  0  0  2  0  0  0  0  0  0
  -29.9030  -14.2440   20.0720 N   0  0  0  0  0  0  0  0  0  0  0  0
  -31.7050  -15.5110   19.9950 O   0  0  0  0  0  0  0  0  0  0  0  0
  -28.2930  -16.8810   20.0660 C   0  0  0  0  0  1  0  0  0  0  0  0
  -29.7440  -16.9150   20.1780 N   0  0  0  0  0  0  0  0  0  0  0  0
  -25.3000  -14.0010   20.4670 C   0  0  0  0  0  0  0  0  0  0  0  0
  -24.2420  -13.2290   20.8510 C   0  0  0  0  0  0  0  0  0  0  0  0
  -24.7060  -11.8780   20.8060 C   0  0  0  0  0  0  0  0  0  0  0  0
  -26.3390  -13.1240   20.2080 N   0  0  0  0  0  0  0  0  0  0  0  0
  -25.9930  -11.8400   20.4770 N   0  0  0  0  0  0  0  0  0  0  0  0
  -23.9760  -10.6190   20.9980 C   0  0  0  0  0  0  0  0  0  0  0  0
  -24.4050   -9.6560   21.9370 C   0  0  0  0  0  3  0  0  0  0  0  0
  -23.6740   -8.4630   22.1190 C   0  0  0  0  0  3  0  0  0  0  0  0
  -22.5010   -8.2260   21.3630 C   0  0  0  0  0  0  0  0  0  0  0  0
  -22.0920   -9.1790   20.4140 C   0  0  0  0  0  3  0  0  0  0  0  0
  -22.8240  -10.3630   20.2290 C   0  0  0  0  0  3  0  0  0  0  0  0
  -21.7420   -7.0850   21.4560 O   0  0  0  0  0  0  0  0  0  0  0  0
  -21.6680   -6.3620   22.6180 C   0  0  0  0  0  0  0  0  0  0  0  0
  -21.1690   -6.9240   23.8140 C   0  0  0  0  0  3  0  0  0  0  0  0
  -21.0430   -6.1260   24.9690 C   0  0  0  0  0  3  0  0  0  0  0  0
  -21.4080   -4.7670   24.9280 C   0  0  0  0  0  0  0  0  0  0  0  0
  -21.9010   -4.2050   23.7370 C   0  0  0  0  0  3  0  0  0  0  0  0
  -22.0270   -5.0000   22.5850 C   0  0  0  0  0  0  0  0  0  0  0  0
  -22.4810   -4.4480   21.4350 F   0  0  0  0  0  0  0  0  0  0  0  0
  -21.2790   -3.9970   26.0350 F   0  0  0  0  0  0  0  0  0  0  0  0
  -22.8520  -13.7120   21.1390 C   0  0  0  0  0  0  0  0  0  0  0  0
  -22.1360  -13.0230   22.0190 N   0  0  0  0  0  0  0  0  0  0  0  0
  -22.4130  -14.7390   20.6210 O   0  0  0  0  0  0  0  0  0  0  0  0
  -22.5100  -12.1950   22.4600 H   0  0  0  0  0  0  0  0  0  0  0  0
  -21.2030  -13.3270   22.2560 H   0  0  0  0  0  0  0  0  0  0  0  0
  -25.4490  -15.3710   20.2870 N   0  0  0  0  0  0  0  0  0  0  0  0
  -24.6750  -16.0150   20.4140 H   0  0  0  0  0  0  0  0  0  0  0  0
  -26.2840  -15.8180   19.9360 H   0  0  0  0  0  0  0  0  0  0  0  0
  1  6  1  0
  1  2  2  0
  2  8  1  0
  2  5  1  0
  3 50  1  0
  3  5  1  0
  5  4  1  0
  6  3  1  0
  7  6  1  0
  9 11  1  0
  9  8  1  0
 10 21  2  0
 11 16  1  0
 12 20  1  0
 12 22  1  0
 13 19  1  0
 13 15  1  0
 14 20  1  0
 15 16  2  0
 15 14  1  0
 17 11  2  0
 18 17  1  0
 18 13  2  0
 19 12  1  0
 20 10  1  0
 22 24  2  0
 23 22  1  0
 25 23  1  0
 26 35  2  0
 26 31  1  0
 27 23  1  0
 27 31  1  0
 28 27  1  0
 29 30  1  0
 29 28  1  0
 30 26  1  0
 31 32  2  0
 32 33  1  0
 34 33  2  0
 35 34  1  0
 36 10  1  0
 36 37  1  0
 36 46  1  0
 37 40  1  0
 38 42  1  0
 38 37  1  0
 39 38  2  0
 42 41  1  0
 44 42  1  0
 44 45  1  0
 44 43  1  0
 46 49  1  1
 46 47  1  0
 48 46  1  0
 51 60  1  0
 52 57  1  0
 53 54  1  0
 53 52  1  0
 55 54  1  0
 55 64  1  0
 55 56  1  0
 57 51  1  0
 57 56  1  0
 58 51  2  0
 59 60  1  0
 60 50  1  0
 61 62  2  0
 62 81  1  0
 63 62  1  0
 63 66  1  0
 64 61  1  0
 64 65  1  0
 65 63  2  0
 66 67  1  0
 67 68  2  0
 69 72  1  0
 69 68  1  0
 70 69  2  0
 71 70  1  0
 71 66  2  0
 72 73  1  0
 73 74  1  0
 74 75  2  0
 76 75  1  0
 76 80  1  0
 77 76  2  0
 78 73  2  0
 78 77  1  0
 79 78  1  0
 81 82  1  0
 82 85  1  0
 82 84  1  0
 83 81  2  0
 86 87  1  0
 86 61  1  0
 88 86  1  0
M  ISO  4   8 101   9 101  51 100  60 100
M  END
>  <TORSDO>  (58) 
F 18

>  <SCORE>  (58) 
-16.720

>  <name>  (58) 
57

>  <ligand_id>  (58) 
57

>  <original_smiles>  (58) 
[H]c1c([H])c([H])c2c(c1[H])C([H])([H])C([H])([H])C([H])([H])C2([H])N([H])C(=O)C1([H])N(C(=O)C([H])(N([H])C(=O)C([H])(N([H])C([H])([H])[H])C([H])([H])[H])C(C([H])([H])[H])(C([H])([H])[H])C([H])([H])[H])C([H])([H])c2c([H])c(OC([H])([H])c3c([H])[n+]([H])c(C([H])([H])N(C(=O)N4C([H])([H])C([H])([H])C([H])([H])C([H])(n5nc(-c6c([H])c([H])c(Oc7c([H])c([H])c(F)c([H])c7F)c([H])c6[H])c(C(=O)N([H])[H])c5N([H])[H])C4([H])[H])C([H])([H])[H])n3C([H])([H])[H])c([H])c([H])c2C1([H])[H]

>  <smiles>  (58) 
[H]c1c([H])c([H])c2c(c1[H])C([H])([H])C([H])([H])C([H])([H])C2([H])N([H])C(=O)C1([H])N(C(=O)C([H])(N([H])C(=O)C([H])(N([H])C([H])([H])[H])C([H])([H])[H])C(C([H])([H])[H])(C([H])([H])[H])C([H])([H])[H])C([H])([H])c2c([H])c(OC([H])([H])c3c([H])[n+]([H])c(C([H])([H])N(C(=O)N4C([H])([H])C([H])([H])C([H])([H])C([H])(n5nc(-c6c([H])c([H])c(Oc7c([H])c([H])c(F)c([H])c7F)c([H])c6[H])c(C(=O)N([H])[H])c5N([H])[H])C4([H])[H])C([H])([H])[H])n3C([H])([H])[H])c([H])c([H])c2C1([H])[H]

$$$$
58:0:0
     RDKit          3D

 92100  0  0  1  0  0  0  0  0999 V2000
  -31.0180  -19.7860   20.2760 C   0  0  0  0  0  3  0  0  0  0  0  0
  -28.4170  -20.1660   20.7860 C   0  0  0  0  0  3  0  0  0  0  0  0
  -30.1760  -18.6580   20.5050 C   0  0  0  0  0  0  0  0  0  0  0  0
  -29.2730  -21.3090   20.6620 C   0  0  0  0  0  0  0  0  0  0  0  0
  -28.8500  -18.8680   20.7240 N   0  0  0  0  0  0  0  0  0  0  0  0
  -30.5820  -21.0850   20.3510 N   0  0  0  0  0  0  0  0  0  0  0  0
  -27.4330  -22.7150   21.7570 C   0  0  0  0  0  1  0  0  0  0  0  0
  -29.8070  -23.1240   22.3110 C   0  0  0  0  0  1  0  0  0  0  0  0
  -28.8540  -22.7660   21.1460 C   0  0  1  0  0  0  0  0  0  0  0  0
  -28.8960  -23.9700   20.0830 C   0  0  0  0  0  3  0  0  0  0  0  0
  -28.2460  -25.3640   20.5370 C   0  0  0  0  0  3  0  0  0  0  0  0
  -28.2890  -26.5630   19.6900 O   0  0  0  0  0  0  0  0  0  0  0  0
  -24.5480  -31.7320   23.0440 C   0  0  0  0  0  0  0  0  0  0  0  0
  -27.1570  -27.3810   19.7410 C   0  0  0  0  0  0  0  0  0  0  0  0
  -23.3180  -30.3810   21.3790 C   0  0  0  0  0  3  0  0  0  0  0  0
  -24.7580  -28.9130   19.8570 C   0  0  0  0  0  0  0  0  0  0  0  0
  -25.8430  -30.7610   21.1380 C   0  0  0  0  0  2  0  0  0  0  0  0
  -25.9320  -29.4130   20.4380 C   0  0  0  0  0  0  0  0  0  0  0  0
  -27.1390  -28.6590   20.3690 C   0  0  0  0  0  3  0  0  0  0  0  0
  -25.9640  -26.9200   19.1440 C   0  0  0  0  0  3  0  0  0  0  0  0
  -24.7730  -27.6690   19.2030 C   0  0  0  0  0  3  0  0  0  0  0  0
  -23.5060  -29.7570   19.9700 C   0  0  0  0  0  2  0  0  0  0  0  0
  -24.5890  -30.9720   21.9110 N   0  0  0  0  0  0  0  0  0  0  0  0
  -23.4770  -31.9690   23.6200 O   0  0  0  0  0  0  0  0  0  0  0  0
  -22.7000  -29.3170   22.3160 C   0  0  0  0  0  0  0  0  0  0  0  0
  -21.3740  -29.1260   22.2170 N   0  0  0  0  0  0  0  0  0  0  0  0
  -23.4110  -28.6680   23.0870 O   0  0  0  0  0  0  0  0  0  0  0  0
  -20.8600  -29.7040   21.5670 H   0  0  0  0  0  0  0  0  0  0  0  0
  -18.0210  -27.9010   22.7910 C   0  0  0  0  0  0  0  0  0  0  0  0
  -20.5880  -28.1490   22.9710 C   0  0  0  0  0  3  0  0  0  0  0  0
  -20.6650  -26.7500   22.3160 C   0  0  0  0  0  2  0  0  0  0  0  0
  -19.5220  -26.4790   21.3320 C   0  0  0  0  0  2  0  0  0  0  0  0
  -18.1680  -26.5890   22.0390 C   0  0  0  0  0  2  0  0  0  0  0  0
  -19.1560  -28.6420   23.2150 C   0  0  0  0  0  0  0  0  0  0  0  0
  -18.9620  -29.8720   23.8800 C   0  0  0  0  0  3  0  0  0  0  0  0
  -17.6650  -30.3600   24.1250 C   0  0  0  0  0  3  0  0  0  0  0  0
  -16.5440  -29.6160   23.7160 C   0  0  0  0  0  3  0  0  0  0  0  0
  -16.7230  -28.3880   23.0550 C   0  0  0  0  0  3  0  0  0  0  0  0
  -25.8400  -32.3570   23.6580 C   0  0  0  0  0  3  0  0  0  0  0  0
  -25.5250  -33.7390   24.0410 N   0  0  0  0  0  0  0  0  0  0  0  0
  -25.8550  -34.8230   23.3230 C   0  0  0  0  0  0  0  0  0  0  0  0
  -26.5280  -34.7590   22.2890 O   0  0  0  0  0  0  0  0  0  0  0  0
  -24.9270  -33.8620   24.8450 H   0  0  0  0  0  0  0  0  0  0  0  0
  -24.1440  -36.6390   23.0110 C   0  0  0  0  0  1  0  0  0  0  0  0
  -25.3630  -36.1900   23.8320 C   0  0  0  0  0  3  0  0  0  0  0  0
  -27.4780  -37.0290   24.7570 C   0  0  0  0  0  1  0  0  0  0  0  0
  -26.4030  -37.2420   23.7910 N   0  0  0  0  0  0  0  0  0  0  0  0
  -25.9960  -38.1560   23.9660 H   0  0  0  0  0  0  0  0  0  0  0  0
  -26.3910  -31.5490   24.8960 C   0  0  1  0  0  0  0  0  0  0  0  0
  -25.3270  -31.2680   25.9820 C   0  0  0  0  0  1  0  0  0  0  0  0
  -26.9750  -30.1890   24.4460 C   0  0  0  0  0  1  0  0  0  0  0  0
  -27.5520  -32.3310   25.5570 C   0  0  0  0  0  1  0  0  0  0  0  0
  -30.7670  -17.2170   20.7350 C   0  0  0  0  0  2  0  0  0  0  0  0
  -30.8360  -14.7580   20.3090 C   0  0  0  0  0  0  0  0  0  0  0  0
  -30.5380  -12.4680   19.4310 C   0  0  0  0  0  2  0  0  0  0  0  0
  -29.6200  -12.5030   18.1930 C   0  0  0  0  0  2  0  0  0  0  0  0
  -28.1420  -12.3820   18.6180 C   0  0  0  0  0  2  0  0  0  0  0  0
  -27.7550  -13.3150   19.8040 C   0  0  0  0  0  3  0  0  0  0  0  0
  -28.8220  -13.3150   20.9200 C   0  0  0  0  0  2  0  0  0  0  0  0
  -30.1230  -13.5870   20.2940 N   0  0  0  0  0  0  0  0  0  0  0  0
  -32.0620  -14.7390   20.2010 O   0  0  0  0  0  0  0  0  0  0  0  0
  -30.1830  -15.9650   20.1230 N   0  0  0  0  0  0  0  0  0  0  0  0
  -25.3690  -13.9220   20.5140 C   0  0  0  0  0  0  0  0  0  0  0  0
  -24.2990  -13.1530   20.8800 C   0  0  0  0  0  0  0  0  0  0  0  0
  -24.7620  -11.8010   20.8730 C   0  0  0  0  0  0  0  0  0  0  0  0
  -26.4130  -13.0370   20.3010 N   0  0  0  0  0  0  0  0  0  0  0  0
  -26.0550  -11.7570   20.5810 N   0  0  0  0  0  0  0  0  0  0  0  0
  -24.0330  -10.5430   21.0710 C   0  0  0  0  0  0  0  0  0  0  0  0
  -24.4510   -9.5910   22.0270 C   0  0  0  0  0  3  0  0  0  0  0  0
  -23.7200   -8.3980   22.2110 C   0  0  0  0  0  3  0  0  0  0  0  0
  -22.5580   -8.1500   21.4430 C   0  0  0  0  0  0  0  0  0  0  0  0
  -22.1600   -9.0900   20.4770 C   0  0  0  0  0  3  0  0  0  0  0  0
  -22.8910  -10.2750   20.2890 C   0  0  0  0  0  3  0  0  0  0  0  0
  -21.8000   -7.0080   21.5380 O   0  0  0  0  0  0  0  0  0  0  0  0
  -21.7300   -6.2880   22.7030 C   0  0  0  0  0  0  0  0  0  0  0  0
  -21.2570   -6.8590   23.9040 C   0  0  0  0  0  3  0  0  0  0  0  0
  -21.1270   -6.0630   25.0600 C   0  0  0  0  0  3  0  0  0  0  0  0
  -21.4650   -4.6970   25.0170 C   0  0  0  0  0  0  0  0  0  0  0  0
  -21.9330   -4.1250   23.8210 C   0  0  0  0  0  3  0  0  0  0  0  0
  -22.0620   -4.9180   22.6670 C   0  0  0  0  0  0  0  0  0  0  0  0
  -22.4910   -4.3560   21.5120 F   0  0  0  0  0  0  0  0  0  0  0  0
  -21.3350   -3.9320   26.1270 F   0  0  0  0  0  0  0  0  0  0  0  0
  -22.8990  -13.6360   21.1280 C   0  0  0  0  0  0  0  0  0  0  0  0
  -22.1630  -12.9560   22.0010 N   0  0  0  0  0  0  0  0  0  0  0  0
  -22.4670  -14.6530   20.5860 O   0  0  0  0  0  0  0  0  0  0  0  0
  -22.5260  -12.1370   22.4660 H   0  0  0  0  0  0  0  0  0  0  0  0
  -21.2230  -13.2650   22.2090 H   0  0  0  0  0  0  0  0  0  0  0  0
  -25.5310  -15.2920   20.3180 N   0  0  0  0  0  0  0  0  0  0  0  0
  -24.7640  -15.9450   20.4300 H   0  0  0  0  0  0  0  0  0  0  0  0
  -26.3920  -15.7390   20.0280 H   0  0  0  0  0  0  0  0  0  0  0  0
  -30.7850  -16.5760   17.7420 C   0  0  0  0  0  1  0  0  0  0  0  0
  -29.6740  -16.2560   18.7640 C   0  0  0  0  0  2  0  0  0  0  0  0
  1  6  2  0
  1  3  1  0
  3  5  2  0
  3 53  1  0
  4  2  2  0
  4  9  1  0
  5  2  1  0
  6  4  1  0
  9  7  1  1
  9  8  1  0
 10 11  2  0
 10  9  1  0
 12 14  1  0
 12 11  1  0
 13 24  2  0
 14 19  1  0
 15 23  1  0
 15 25  1  0
 16 22  1  0
 16 18  1  0
 17 23  1  0
 18 17  1  0
 19 18  2  0
 20 21  1  0
 20 14  2  0
 21 16  2  0
 22 15  1  0
 23 13  1  0
 25 27  2  0
 26 25  1  0
 28 26  1  0
 29 38  2  0
 29 34  1  0
 30 26  1  0
 30 34  1  0
 31 30  1  0
 32 33  1  0
 32 31  1  0
 33 29  1  0
 34 35  2  0
 35 36  1  0
 37 36  2  0
 38 37  1  0
 39 13  1  0
 39 40  1  0
 39 49  1  0
 40 43  1  0
 41 45  1  0
 41 40  1  0
 42 41  2  0
 45 44  1  0
 47 45  1  0
 47 48  1  0
 47 46  1  0
 49 52  1  1
 49 50  1  0
 51 49  1  0
 55 60  1  0
 56 57  1  0
 56 55  1  0
 58 57  1  0
 58 66  1  0
 58 59  1  0
 60 54  1  0
 60 59  1  0
 61 54  2  0
 62 54  1  0
 62 53  1  0
 63 64  2  0
 64 83  1  0
 65 64  1  0
 65 68  1  0
 66 63  1  0
 66 67  1  0
 67 65  2  0
 68 69  1  0
 69 70  2  0
 71 74  1  0
 71 70  1  0
 72 71  2  0
 73 72  1  0
 73 68  2  0
 74 75  1  0
 75 76  1  0
 76 77  2  0
 78 77  1  0
 78 82  1  0
 79 78  2  0
 80 75  2  0
 80 79  1  0
 81 80  1  0
 83 84  1  0
 84 87  1  0
 84 86  1  0
 85 83  2  0
 88 89  1  0
 88 63  1  0
 90 88  1  0
 91 92  1  0
 92 62  1  0
M  ISO  4  11 101  12 101  54 100  62 100
M  END
>  <TORSDO>  (59) 
F 21

>  <SCORE>  (59) 
-12.718

>  <name>  (59) 
58

>  <ligand_id>  (59) 
58

>  <original_smiles>  (59) 
[H]c1nc(C(C([H])([H])[H])(C([H])([H])[H])C([H])([H])C([H])([H])Oc2c([H])c([H])c3c(c2[H])C([H])([H])N(C(=O)C([H])(N([H])C(=O)C([H])(N([H])C([H])([H])[H])C([H])([H])[H])C(C([H])([H])[H])(C([H])([H])[H])C([H])([H])[H])C([H])(C(=O)N([H])C2([H])c4c([H])c([H])c([H])c([H])c4C([H])([H])C([H])([H])C2([H])[H])C3([H])[H])c([H])nc1C([H])([H])N(C(=O)N1C([H])([H])C([H])([H])C([H])([H])C([H])(n2nc(-c3c([H])c([H])c(Oc4c([H])c([H])c(F)c([H])c4F)c([H])c3[H])c(C(=O)N([H])[H])c2N([H])[H])C1([H])[H])C([H])([H])C([H])([H])[H]

>  <smiles>  (59) 
[H]c1nc(C(C([H])([H])[H])(C([H])([H])[H])C([H])([H])C([H])([H])Oc2c([H])c([H])c3c(c2[H])C([H])([H])N(C(=O)C([H])(N([H])C(=O)C([H])(N([H])C([H])([H])[H])C([H])([H])[H])C(C([H])([H])[H])(C([H])([H])[H])C([H])([H])[H])C([H])(C(=O)N([H])C2([H])c4c([H])c([H])c([H])c([H])c4C([H])([H])C([H])([H])C2([H])[H])C3([H])[H])c([H])nc1C([H])([H])N(C(=O)N1C([H])([H])C([H])([H])C([H])([H])C([H])(n2nc(-c3c([H])c([H])c(Oc4c([H])c([H])c(F)c([H])c4F)c([H])c3[H])c(C(=O)N([H])[H])c2N([H])[H])C1([H])[H])C([H])([H])C([H])([H])[H]

$$$$
59:0:0
     RDKit          3D

102111  0  0  1  0  0  0  0  0999 V2000
  -30.2090  -20.8430   17.7630 C   0  0  2  0  0  0  0  0  0  0  0  0
  -30.7810  -21.7730   20.1050 C   0  0  0  0  0  3  0  0  0  0  0  0
  -30.6630  -22.8010   21.0470 C   0  0  0  0  0  0  0  0  0  0  0  0
  -30.0730  -21.9000   18.8980 C   0  0  0  0  0  0  0  0  0  0  0  0
  -29.2370  -23.9290   19.6620 C   0  0  0  0  0  0  0  0  0  0  0  0
  -31.4240  -22.7440   22.3520 C   0  0  0  0  0  1  0  0  0  0  0  0
  -29.8780  -23.8750   20.8300 N   0  0  0  0  0  0  0  0  0  0  0  0
  -29.3290  -23.0100   18.6930 N   0  0  0  0  0  0  0  0  0  0  0  0
  -28.1730  -25.0170   19.4540 C   0  0  0  0  0  2  0  0  0  0  0  0
  -28.2320  -26.2510   20.2280 O   0  0  0  0  0  0  0  0  0  0  0  0
  -24.4690  -31.6440   23.1530 C   0  0  0  0  0  0  0  0  0  0  0  0
  -27.0880  -27.0490   20.1940 C   0  0  0  0  0  0  0  0  0  0  0  0
  -23.2850  -30.2530   21.4940 C   0  0  0  0  0  3  0  0  0  0  0  0
  -24.7380  -28.6580   20.1420 C   0  0  0  0  0  0  0  0  0  0  0  0
  -25.8330  -30.5190   21.3880 C   0  0  0  0  0  2  0  0  0  0  0  0
  -25.8980  -29.1340   20.7660 C   0  0  0  0  0  0  0  0  0  0  0  0
  -27.0720  -28.3370   20.7970 C   0  0  0  0  0  3  0  0  0  0  0  0
  -25.8930  -26.6080   19.5640 C   0  0  0  0  0  3  0  0  0  0  0  0
  -24.7320  -27.3930   19.5450 C   0  0  0  0  0  3  0  0  0  0  0  0
  -23.5250  -29.5550   20.1320 C   0  0  0  0  0  2  0  0  0  0  0  0
  -24.5470  -30.8220   22.0690 N   0  0  0  0  0  0  0  0  0  0  0  0
  -23.3760  -31.9490   23.6500 O   0  0  0  0  0  0  0  0  0  0  0  0
  -22.5720  -29.2590   22.4410 C   0  0  0  0  0  0  0  0  0  0  0  0
  -21.2450  -29.1220   22.2790 N   0  0  0  0  0  0  0  0  0  0  0  0
  -23.2090  -28.6180   23.2800 O   0  0  0  0  0  0  0  0  0  0  0  0
  -20.7960  -29.6900   21.5740 H   0  0  0  0  0  0  0  0  0  0  0  0
  -17.8120  -28.0750   22.7200 C   0  0  0  0  0  0  0  0  0  0  0  0
  -20.3740  -28.2200   23.0330 C   0  0  0  0  0  3  0  0  0  0  0  0
  -20.4240  -26.7860   22.4570 C   0  0  0  0  0  2  0  0  0  0  0  0
  -19.3250  -26.5120   21.4250 C   0  0  0  0  0  2  0  0  0  0  0  0
  -17.9400  -26.7190   22.0460 C   0  0  0  0  0  2  0  0  0  0  0  0
  -18.9560  -28.7860   23.1680 C   0  0  0  0  0  0  0  0  0  0  0  0
  -18.7830  -30.0590   23.7540 C   0  0  0  0  0  3  0  0  0  0  0  0
  -17.4990  -30.6170   23.8990 C   0  0  0  0  0  3  0  0  0  0  0  0
  -16.3700  -29.9020   23.4670 C   0  0  0  0  0  3  0  0  0  0  0  0
  -16.5270  -28.6330   22.8840 C   0  0  0  0  0  3  0  0  0  0  0  0
  -25.7460  -32.2530   23.8080 C   0  0  0  0  0  3  0  0  0  0  0  0
  -25.4400  -33.6470   24.1600 N   0  0  0  0  0  0  0  0  0  0  0  0
  -25.7890  -34.7110   23.4250 C   0  0  0  0  0  0  0  0  0  0  0  0
  -26.4730  -34.6250   22.4040 O   0  0  0  0  0  0  0  0  0  0  0  0
  -24.8440  -33.7870   24.9610 H   0  0  0  0  0  0  0  0  0  0  0  0
  -24.0640  -36.5110   23.0860 C   0  0  0  0  0  1  0  0  0  0  0  0
  -25.2970  -36.0930   23.9020 C   0  0  0  0  0  3  0  0  0  0  0  0
  -27.4290  -36.9580   24.7600 C   0  0  0  0  0  1  0  0  0  0  0  0
  -26.3300  -37.1470   23.8170 N   0  0  0  0  0  0  0  0  0  0  0  0
  -25.9230  -38.0640   23.9820 H   0  0  0  0  0  0  0  0  0  0  0  0
  -26.2330  -31.4520   25.0770 C   0  0  1  0  0  0  0  0  0  0  0  0
  -25.1190  -31.1960   26.1200 C   0  0  0  0  0  1  0  0  0  0  0  0
  -26.8140  -30.0800   24.6630 C   0  0  0  0  0  1  0  0  0  0  0  0
  -27.3720  -32.2270   25.7790 C   0  0  0  0  0  1  0  0  0  0  0  0
  -31.9330  -20.1900   15.8570 C   0  0  0  0  0  1  0  0  0  0  0  0
  -31.4920  -21.1980   16.9480 C   0  0  0  0  0  2  0  0  0  0  0  0
  -28.9230  -21.8320   15.6280 C   0  0  0  0  0  1  0  0  0  0  0  0
  -28.9620  -20.8210   16.7980 C   0  0  0  0  0  2  0  0  0  0  0  0
  -30.4460  -19.4060   18.3710 C   0  0  0  0  0  2  0  0  0  0  0  0
  -27.9960  -18.7340   18.8810 C   0  0  0  0  0  3  0  0  0  0  0  0
  -27.4120  -17.8170   19.7190 C   0  0  0  0  0  0  0  0  0  0  0  0
  -29.6210  -17.7700   20.0430 C   0  0  0  0  0  0  0  0  0  0  0  0
  -25.9820  -17.4220   19.9130 C   0  0  0  0  0  1  0  0  0  0  0  0
  -29.3550  -18.6890   19.0850 N   0  0  0  0  0  0  0  0  0  0  0  0
  -28.4430  -17.2640   20.4270 N   0  0  0  0  0  0  0  0  0  0  0  0
  -28.3290  -16.5640   21.1530 H   0  0  0  0  0  0  0  0  0  0  0  0
  -30.9610  -17.4190   20.6380 C   0  0  0  0  0  3  0  0  0  0  0  0
  -30.9830  -16.3150   21.7260 C   0  0  0  0  0  2  0  0  0  0  0  0
  -30.7910  -14.1420   20.5110 C   0  0  0  0  0  0  0  0  0  0  0  0
  -30.4730  -11.9150   19.5050 C   0  0  0  0  0  2  0  0  0  0  0  0
  -29.5310  -11.9760   18.2880 C   0  0  0  0  0  2  0  0  0  0  0  0
  -28.0560  -11.8760   18.7240 C   0  0  0  0  0  2  0  0  0  0  0  0
  -27.7060  -12.8260   19.9030 C   0  0  0  0  0  3  0  0  0  0  0  0
  -28.7600  -12.7290   21.0280 C   0  0  0  0  0  2  0  0  0  0  0  0
  -30.0910  -12.9810   20.4420 N   0  0  0  0  0  0  0  0  0  0  0  0
  -31.8220  -14.3530   19.8660 O   0  0  0  0  0  0  0  0  0  0  0  0
  -30.3040  -15.0670   21.3530 N   0  0  0  0  0  0  0  0  0  0  0  0
  -29.4750  -14.8110   21.8670 H   0  0  0  0  0  0  0  0  0  0  0  0
  -25.3300  -13.4760   20.6650 C   0  0  0  0  0  0  0  0  0  0  0  0
  -24.2540  -12.7240   21.0510 C   0  0  0  0  0  0  0  0  0  0  0  0
  -24.6840  -11.3630   21.0000 C   0  0  0  0  0  0  0  0  0  0  0  0
  -26.3540  -12.5760   20.4050 N   0  0  0  0  0  0  0  0  0  0  0  0
  -25.9660  -11.2990   20.6640 N   0  0  0  0  0  0  0  0  0  0  0  0
  -23.9340  -10.1160   21.2010 C   0  0  0  0  0  0  0  0  0  0  0  0
  -24.3580   -9.1430   22.1310 C   0  0  0  0  0  3  0  0  0  0  0  0
  -23.6140   -7.9580   22.3180 C   0  0  0  0  0  3  0  0  0  0  0  0
  -22.4300   -7.7400   21.5750 C   0  0  0  0  0  0  0  0  0  0  0  0
  -22.0250   -8.7020   20.6340 C   0  0  0  0  0  3  0  0  0  0  0  0
  -22.7700   -9.8780   20.4440 C   0  0  0  0  0  3  0  0  0  0  0  0
  -21.6540   -6.6100   21.6730 O   0  0  0  0  0  0  0  0  0  0  0  0
  -21.6010   -5.8700   22.8270 C   0  0  0  0  0  0  0  0  0  0  0  0
  -21.1720   -6.4290   24.0510 C   0  0  0  0  0  3  0  0  0  0  0  0
  -21.0650   -5.6170   25.1980 C   0  0  0  0  0  3  0  0  0  0  0  0
  -21.3770   -4.2440   25.1200 C   0  0  0  0  0  0  0  0  0  0  0  0
  -21.8010   -3.6850   23.9020 C   0  0  0  0  0  3  0  0  0  0  0  0
  -21.9070   -4.4960   22.7570 C   0  0  0  0  0  0  0  0  0  0  0  0
  -22.2940   -3.9480   21.5790 F   0  0  0  0  0  0  0  0  0  0  0  0
  -21.2680   -3.4610   26.2160 F   0  0  0  0  0  0  0  0  0  0  0  0
  -22.8740  -13.2300   21.3600 C   0  0  0  0  0  0  0  0  0  0  0  0
  -22.1490  -12.5450   22.2390 N   0  0  0  0  0  0  0  0  0  0  0  0
  -22.4440  -14.2650   20.8520 O   0  0  0  0  0  0  0  0  0  0  0  0
  -22.5040  -11.7080   22.6750 H   0  0  0  0  0  0  0  0  0  0  0  0
  -21.2200  -12.8650   22.4770 H   0  0  0  0  0  0  0  0  0  0  0  0
  -25.5160  -14.8480   20.5000 N   0  0  0  0  0  0  0  0  0  0  0  0
  -24.7580  -15.5040   20.6540 H   0  0  0  0  0  0  0  0  0  0  0  0
  -26.3650  -15.2840   20.1680 H   0  0  0  0  0  0  0  0  0  0  0  0
  1 55  1  1
  1  4  1  0
  2  3  2  0
  3  6  1  0
  4  2  1  0
  5  7  2  0
  7  3  1  0
  8  4  2  0
  8  5  1  0
  9  5  1  0
  9 10  1  0
 11 22  2  0
 12 10  1  0
 12 17  1  0
 13 21  1  0
 13 23  1  0
 14 16  1  0
 15 21  1  0
 16 17  2  0
 16 15  1  0
 18 12  2  0
 19 18  1  0
 19 14  2  0
 20 14  1  0
 20 13  1  0
 21 11  1  0
 23 25  2  0
 24 23  1  0
 26 24  1  0
 27 36  2  0
 27 32  1  0
 28 24  1  0
 28 32  1  0
 29 28  1  0
 30 31  1  0
 30 29  1  0
 31 27  1  0
 32 33  2  0
 33 34  1  0
 35 34  2  0
 36 35  1  0
 37 11  1  0
 37 38  1  0
 37 47  1  0
 38 41  1  0
 39 43  1  0
 39 38  1  0
 40 39  2  0
 43 42  1  0
 45 43  1  0
 45 46  1  0
 45 44  1  0
 47 50  1  1
 47 48  1  0
 49 47  1  0
 51 52  1  0
 52  1  1  0
 53 54  1  0
 54  1  1  0
 55 60  1  0
 56 60  1  0
 56 57  2  0
 57 59  1  0
 57 61  1  0
 58 61  1  0
 58 63  2  0
 60 58  1  0
 61 62  1  0
 63 64  1  0
 65 73  1  0
 66 71  1  0
 67 68  1  0
 67 66  1  0
 69 68  1  0
 69 78  1  0
 69 70  1  0
 71 65  1  0
 71 70  1  0
 72 65  2  0
 73 64  1  0
 73 74  1  0
 75 76  2  0
 76 95  1  0
 77 76  1  0
 77 80  1  0
 78 79  1  0
 78 75  1  0
 79 77  2  0
 80 81  1  0
 81 82  2  0
 83 86  1  0
 83 82  1  0
 84 83  2  0
 85 84  1  0
 85 80  2  0
 86 87  1  0
 87 88  1  0
 88 89  2  0
 90 89  1  0
 90 94  1  0
 91 90  2  0
 92 87  2  0
 92 91  1  0
 93 92  1  0
 95 96  1  0
 96 99  1  0
 96 98  1  0
 97 95  2  0
100101  1  0
100 75  1  0
102100  1  0
M  ISO  4   9 101  10 101  65 100  73 100
M  END
>  <TORSDO>  (60) 
F 24

>  <SCORE>  (60) 
-11.137

>  <name>  (60) 
59

>  <ligand_id>  (60) 
59

>  <original_smiles>  (60) 
[H]c1c(C([H])([H])[H])nc(C([H])([H])Oc2c([H])c([H])c3c(c2[H])C([H])([H])N(C(=O)C([H])(N([H])C(=O)C([H])(N([H])C([H])([H])[H])C([H])([H])[H])C(C([H])([H])[H])(C([H])([H])[H])C([H])([H])[H])C([H])(C(=O)N([H])C2([H])c4c([H])c([H])c([H])c([H])c4C([H])([H])C([H])([H])C2([H])[H])C3([H])[H])nc1C(C([H])([H])n1c([H])c(C([H])([H])[H])[n+]([H])c1C([H])([H])C([H])([H])N([H])C(=O)N1C([H])([H])C([H])([H])C([H])([H])C([H])(n2nc(-c3c([H])c([H])c(Oc4c([H])c([H])c(F)c([H])c4F)c([H])c3[H])c(C(=O)N([H])[H])c2N([H])[H])C1([H])[H])(C([H])([H])C([H])([H])[H])C([H])([H])C([H])([H])[H]

>  <smiles>  (60) 
[H]c1c(C([H])([H])[H])nc(C([H])([H])Oc2c([H])c([H])c3c(c2[H])C([H])([H])N(C(=O)C([H])(N([H])C(=O)C([H])(N([H])C([H])([H])[H])C([H])([H])[H])C(C([H])([H])[H])(C([H])([H])[H])C([H])([H])[H])C([H])(C(=O)N([H])C2([H])c4c([H])c([H])c([H])c([H])c4C([H])([H])C([H])([H])C2([H])[H])C3([H])[H])nc1C(C([H])([H])n1c([H])c(C([H])([H])[H])[n+]([H])c1C([H])([H])C([H])([H])N([H])C(=O)N1C([H])([H])C([H])([H])C([H])([H])C([H])(n2nc(-c3c([H])c([H])c(Oc4c([H])c([H])c(F)c([H])c4F)c([H])c3[H])c(C(=O)N([H])[H])c2N([H])[H])C1([H])[H])(C([H])([H])C([H])([H])[H])C([H])([H])C([H])([H])[H]

$$$$
60:0:0
     RDKit          3D

 90 98  0  0  1  0  0  0  0  0999 V2000
  -30.5690  -20.8930   21.1890 C   0  0  0  0  0  3  0  0  0  0  0  0
  -30.9490  -19.5720   21.0900 C   0  0  0  0  0  3  0  0  0  0  0  0
  -29.4080  -21.0300   20.3790 C   0  0  0  0  0  0  0  0  0  0  0  0
  -29.1130  -19.8080   19.8600 N   0  0  0  0  0  0  0  0  0  0  0  0
  -30.0530  -18.8760   20.2880 N   0  0  0  0  0  0  0  0  0  0  0  0
  -29.1520  -17.2380   18.5850 C   0  0  0  0  0  1  0  0  0  0  0  0
  -30.1620  -17.4460   19.7350 C   0  0  0  0  0  3  0  0  0  0  0  0
  -28.8810  -16.1090   21.5170 C   0  0  0  0  0  1  0  0  0  0  0  0
  -31.2920  -16.3720   21.7970 C   0  0  0  0  0  1  0  0  0  0  0  0
  -30.2010  -16.1450   20.7210 C   0  0  2  0  0  0  0  0  0  0  0  0
  -30.6310  -14.7500   19.9970 C   0  0  0  0  0  0  0  0  0  0  0  0
  -30.2670  -12.5470   18.8590 C   0  0  0  0  0  2  0  0  0  0  0  0
  -29.2400  -12.7050   17.7150 C   0  0  0  0  0  2  0  0  0  0  0  0
  -27.8000  -12.5380   18.2390 C   0  0  0  0  0  2  0  0  0  0  0  0
  -27.5480  -13.3500   19.5370 C   0  0  0  0  0  3  0  0  0  0  0  0
  -28.6870  -13.1280   20.5530 C   0  0  0  0  0  2  0  0  0  0  0  0
  -29.9430  -13.5480   19.9120 N   0  0  0  0  0  0  0  0  0  0  0  0
  -31.7170  -14.8100   19.4120 O   0  0  0  0  0  0  0  0  0  0  0  0
  -25.2170  -13.9440   20.4380 C   0  0  0  0  0  0  0  0  0  0  0  0
  -24.1750  -13.1690   20.8680 C   0  0  0  0  0  0  0  0  0  0  0  0
  -24.6220  -11.8160   20.7720 C   0  0  0  0  0  0  0  0  0  0  0  0
  -26.2360  -13.0630   20.1110 N   0  0  0  0  0  0  0  0  0  0  0  0
  -25.8870  -11.7760   20.3680 N   0  0  0  0  0  0  0  0  0  0  0  0
  -23.9000  -10.5550   20.9850 C   0  0  0  0  0  0  0  0  0  0  0  0
  -24.3830   -9.5680   21.8730 C   0  0  0  0  0  3  0  0  0  0  0  0
  -23.6590   -8.3730   22.0760 C   0  0  0  0  0  3  0  0  0  0  0  0
  -22.4400   -8.1560   21.3910 C   0  0  0  0  0  0  0  0  0  0  0  0
  -21.9760   -9.1310   20.4910 C   0  0  0  0  0  3  0  0  0  0  0  0
  -22.7000  -10.3180   20.2860 C   0  0  0  0  0  3  0  0  0  0  0  0
  -21.6860   -7.0130   21.5040 O   0  0  0  0  0  0  0  0  0  0  0  0
  -21.6910   -6.2580   22.6490 C   0  0  0  0  0  0  0  0  0  0  0  0
  -21.3370   -6.8040   23.9040 C   0  0  0  0  0  3  0  0  0  0  0  0
  -21.2880   -5.9770   25.0430 C   0  0  0  0  0  3  0  0  0  0  0  0
  -21.5820   -4.6040   24.9310 C   0  0  0  0  0  0  0  0  0  0  0  0
  -21.9280   -4.0580   23.6830 C   0  0  0  0  0  3  0  0  0  0  0  0
  -21.9800   -4.8830   22.5450 C   0  0  0  0  0  0  0  0  0  0  0  0
  -22.2930   -4.3460   21.3410 F   0  0  0  0  0  0  0  0  0  0  0  0
  -21.5270   -3.8080   26.0240 F   0  0  0  0  0  0  0  0  0  0  0  0
  -22.8060  -13.6500   21.2540 C   0  0  0  0  0  0  0  0  0  0  0  0
  -22.1370  -12.9390   22.1580 N   0  0  0  0  0  0  0  0  0  0  0  0
  -22.3400  -14.6900   20.7920 O   0  0  0  0  0  0  0  0  0  0  0  0
  -22.5270  -12.0970   22.5530 H   0  0  0  0  0  0  0  0  0  0  0  0
  -21.2240  -13.2450   22.4580 H   0  0  0  0  0  0  0  0  0  0  0  0
  -25.3740  -15.3160   20.2760 N   0  0  0  0  0  0  0  0  0  0  0  0
  -24.6210  -15.9720   20.4540 H   0  0  0  0  0  0  0  0  0  0  0  0
  -26.2020  -15.7600   19.8990 H   0  0  0  0  0  0  0  0  0  0  0  0
  -28.5430  -22.3070   20.0660 C   0  0  0  0  0  2  0  0  0  0  0  0
  -29.0080  -23.7910   20.4840 C   0  0  0  0  0  3  0  0  0  0  0  0
  -28.0230  -24.9880   20.0590 C   0  0  0  0  0  3  0  0  0  0  0  0
  -28.2820  -26.4360   20.3360 O   0  0  0  0  0  0  0  0  0  0  0  0
  -24.6100  -31.9220   23.3150 C   0  0  0  0  0  0  0  0  0  0  0  0
  -27.1890  -27.3300   20.2560 C   0  0  0  0  0  0  0  0  0  0  0  0
  -23.4010  -30.5410   21.6640 C   0  0  0  0  0  3  0  0  0  0  0  0
  -24.8450  -28.9870   20.2350 C   0  0  0  0  0  0  0  0  0  0  0  0
  -25.9480  -30.8300   21.4980 C   0  0  0  0  0  2  0  0  0  0  0  0
  -26.0170  -29.4540   20.8450 C   0  0  0  0  0  0  0  0  0  0  0  0
  -27.1920  -28.6370   20.8460 C   0  0  0  0  0  3  0  0  0  0  0  0
  -25.9960  -26.9360   19.6070 C   0  0  0  0  0  3  0  0  0  0  0  0
  -24.8380  -27.7350   19.6070 C   0  0  0  0  0  3  0  0  0  0  0  0
  -23.6170  -29.8720   20.2810 C   0  0  0  0  0  2  0  0  0  0  0  0
  -24.6720  -31.1160   22.2160 N   0  0  0  0  0  0  0  0  0  0  0  0
  -23.5260  -32.2070   23.8450 O   0  0  0  0  0  0  0  0  0  0  0  0
  -22.7250  -29.5250   22.6170 C   0  0  0  0  0  0  0  0  0  0  0  0
  -21.3990  -29.3540   22.4780 N   0  0  0  0  0  0  0  0  0  0  0  0
  -23.3940  -28.8950   23.4410 O   0  0  0  0  0  0  0  0  0  0  0  0
  -20.9180  -29.9150   21.7880 H   0  0  0  0  0  0  0  0  0  0  0  0
  -18.0130  -28.1680   22.9450 C   0  0  0  0  0  0  0  0  0  0  0  0
  -20.5700  -28.4200   23.2420 C   0  0  0  0  0  3  0  0  0  0  0  0
  -20.6730  -26.9860   22.6710 C   0  0  0  0  0  2  0  0  0  0  0  0
  -19.5820  -26.6650   21.6460 C   0  0  0  0  0  2  0  0  0  0  0  0
  -18.1930  -26.8170   22.2740 C   0  0  0  0  0  2  0  0  0  0  0  0
  -19.1300  -28.9280   23.3870 C   0  0  0  0  0  0  0  0  0  0  0  0
  -18.9080  -30.1920   23.9740 C   0  0  0  0  0  3  0  0  0  0  0  0
  -17.6030  -30.6970   24.1250 C   0  0  0  0  0  3  0  0  0  0  0  0
  -16.5010  -29.9350   23.7000 C   0  0  0  0  0  3  0  0  0  0  0  0
  -16.7070  -28.6730   23.1160 C   0  0  0  0  0  3  0  0  0  0  0  0
  -25.8940  -32.5420   23.9450 C   0  0  0  0  0  3  0  0  0  0  0  0
  -25.5950  -33.9420   24.2780 N   0  0  0  0  0  0  0  0  0  0  0  0
  -25.9270  -34.9940   23.5190 C   0  0  0  0  0  0  0  0  0  0  0  0
  -26.5880  -34.8890   22.4820 O   0  0  0  0  0  0  0  0  0  0  0  0
  -25.0080  -34.0990   25.0840 H   0  0  0  0  0  0  0  0  0  0  0  0
  -24.1990  -36.7940   23.1930 C   0  0  0  0  0  1  0  0  0  0  0  0
  -25.4520  -36.3840   23.9830 C   0  0  0  0  0  3  0  0  0  0  0  0
  -27.6020  -37.2640   24.7790 C   0  0  0  0  0  1  0  0  0  0  0  0
  -26.4860  -37.4340   23.8530 N   0  0  0  0  0  0  0  0  0  0  0  0
  -26.0840  -38.3550   24.0040 H   0  0  0  0  0  0  0  0  0  0  0  0
  -26.3980  -31.7630   25.2220 C   0  0  1  0  0  0  0  0  0  0  0  0
  -25.2970  -31.5320   26.2830 C   0  0  0  0  0  1  0  0  0  0  0  0
  -26.9730  -30.3810   24.8310 C   0  0  0  0  0  1  0  0  0  0  0  0
  -27.5500  -32.5470   25.8930 C   0  0  0  0  0  1  0  0  0  0  0  0
  2  1  2  0
  3  1  1  0
  4  5  1  0
  4  3  2  0
  5  2  1  0
  7  6  1  0
  7  5  1  0
  7 10  1  0
 10  8  1  1
 10  9  1  0
 11 10  1  0
 12 17  1  0
 13 14  1  0
 13 12  1  0
 15 14  1  0
 15 22  1  0
 15 16  1  0
 17 11  1  0
 17 16  1  0
 18 11  2  0
 19 20  2  0
 20 39  1  0
 21 20  1  0
 21 24  1  0
 22 23  1  0
 22 19  1  0
 23 21  2  0
 24 25  1  0
 25 26  2  0
 27 30  1  0
 27 26  1  0
 28 27  2  0
 29 28  1  0
 29 24  2  0
 30 31  1  0
 31 32  1  0
 32 33  2  0
 34 33  1  0
 34 38  1  0
 35 34  2  0
 36 31  2  0
 36 35  1  0
 37 36  1  0
 39 40  1  0
 40 43  1  0
 40 42  1  0
 41 39  2  0
 44 19  1  0
 44 45  1  0
 46 44  1  0
 47  3  1  0
 47 48  1  0
 49 50  1  0
 49 48  2  0
 51 62  2  0
 52 50  1  0
 52 57  1  0
 53 61  1  0
 53 63  1  0
 54 60  1  0
 54 56  1  0
 55 61  1  0
 56 57  2  0
 56 55  1  0
 58 52  2  0
 59 58  1  0
 59 54  2  0
 60 53  1  0
 61 51  1  0
 63 65  2  0
 64 63  1  0
 66 64  1  0
 67 76  2  0
 67 72  1  0
 68 64  1  0
 68 72  1  0
 69 68  1  0
 70 71  1  0
 70 69  1  0
 71 67  1  0
 72 73  2  0
 73 74  1  0
 75 74  2  0
 76 75  1  0
 77 51  1  0
 77 78  1  0
 77 87  1  0
 78 81  1  0
 79 83  1  0
 79 78  1  0
 80 79  2  0
 83 82  1  0
 85 83  1  0
 85 86  1  0
 85 84  1  0
 87 90  1  1
 87 88  1  0
 89 87  1  0
M  ISO  4  10 100  11 100  49 101  50 101
M  END
>  <TORSDO>  (61) 
F 21

>  <SCORE>  (61) 
-12.761

>  <name>  (61) 
60

>  <ligand_id>  (61) 
60

>  <original_smiles>  (61) 
[H]c1c([H])c([H])c2c(c1[H])C([H])([H])C([H])([H])C([H])([H])C2([H])N([H])C(=O)C1([H])N(C(=O)C([H])(N([H])C(=O)C([H])(N([H])C([H])([H])[H])C([H])([H])[H])C(C([H])([H])[H])(C([H])([H])[H])C([H])([H])[H])C([H])([H])c2c([H])c(OC([H])([H])C([H])([H])C([H])([H])c3nn(C([H])(C([H])([H])[H])C(C(=O)N4C([H])([H])C([H])([H])C([H])([H])C([H])(n5nc(-c6c([H])c([H])c(Oc7c([H])c([H])c(F)c([H])c7F)c([H])c6[H])c(C(=O)N([H])[H])c5N([H])[H])C4([H])[H])(C([H])([H])[H])C([H])([H])[H])c([H])c3[H])c([H])c([H])c2C1([H])[H]

>  <smiles>  (61) 
[H]c1c([H])c([H])c2c(c1[H])C([H])([H])C([H])([H])C([H])([H])C2([H])N([H])C(=O)C1([H])N(C(=O)C([H])(N([H])C(=O)C([H])(N([H])C([H])([H])[H])C([H])([H])[H])C(C([H])([H])[H])(C([H])([H])[H])C([H])([H])[H])C([H])([H])c2c([H])c(OC([H])([H])C([H])([H])C([H])([H])c3nn(C([H])(C([H])([H])[H])C(C(=O)N4C([H])([H])C([H])([H])C([H])([H])C([H])(n5nc(-c6c([H])c([H])c(Oc7c([H])c([H])c(F)c([H])c7F)c([H])c6[H])c(C(=O)N([H])[H])c5N([H])[H])C4([H])[H])(C([H])([H])[H])C([H])([H])[H])c([H])c3[H])c([H])c([H])c2C1([H])[H]

$$$$
61:0:0
     RDKit          3D

 92100  0  0  1  0  0  0  0  0999 V2000
  -29.6480  -21.8560   19.3460 C   0  0  0  0  0  3  0  0  0  0  0  0
  -29.3710  -20.5820   20.0460 C   0  0  0  0  0  0  0  0  0  0  0  0
  -27.8710  -22.4180   20.4350 C   0  0  0  0  0  3  0  0  0  0  0  0
  -28.7330  -23.0170   19.5490 N   0  0  0  0  0  0  0  0  0  0  0  0
  -28.2310  -21.0870   20.6780 N   0  0  0  0  0  0  0  0  0  0  0  0
  -27.6790  -20.5130   21.3040 H   0  0  0  0  0  0  0  0  0  0  0  0
  -25.4990  -23.0990   19.9730 C   0  0  0  0  0  1  0  0  0  0  0  0
  -26.8490  -24.4120   21.6310 C   0  0  0  0  0  1  0  0  0  0  0  0
  -26.0760  -22.1290   22.2000 C   0  0  0  0  0  1  0  0  0  0  0  0
  -26.6050  -23.0100   21.0420 C   0  0  2  0  0  0  0  0  0  0  0  0
  -27.8440  -24.3430   17.4020 C   0  0  0  0  0  1  0  0  0  0  0  0
  -28.6030  -24.5720   18.7170 C   0  0  0  0  0  3  0  0  0  0  0  0
  -28.5640  -26.1820   19.1750 O   0  0  0  0  0  0  0  0  0  0  0  0
  -24.6860  -31.7020   22.7380 C   0  0  0  0  0  0  0  0  0  0  0  0
  -27.4690  -27.2450   19.1830 C   0  0  0  0  0  0  0  0  0  0  0  0
  -23.5290  -30.3300   21.0600 C   0  0  0  0  0  3  0  0  0  0  0  0
  -25.0240  -28.9810   19.4310 C   0  0  0  0  0  0  0  0  0  0  0  0
  -26.0640  -30.7630   20.8010 C   0  0  0  0  0  2  0  0  0  0  0  0
  -26.2140  -29.4150   20.0220 C   0  0  0  0  0  0  0  0  0  0  0  0
  -27.4210  -28.5720   19.8770 C   0  0  0  0  0  3  0  0  0  0  0  0
  -26.2170  -26.9950   18.5730 C   0  0  0  0  0  3  0  0  0  0  0  0
  -25.0530  -27.7970   18.6870 C   0  0  0  0  0  3  0  0  0  0  0  0
  -23.7380  -29.7860   19.6220 C   0  0  0  0  0  2  0  0  0  0  0  0
  -24.7820  -30.9610   21.5850 N   0  0  0  0  0  0  0  0  0  0  0  0
  -23.6040  -31.8500   23.3310 O   0  0  0  0  0  0  0  0  0  0  0  0
  -22.9840  -29.2000   21.9780 C   0  0  0  0  0  0  0  0  0  0  0  0
  -21.6690  -28.9130   21.9080 N   0  0  0  0  0  0  0  0  0  0  0  0
  -23.7500  -28.5890   22.7260 O   0  0  0  0  0  0  0  0  0  0  0  0
  -21.0930  -29.4680   21.2900 H   0  0  0  0  0  0  0  0  0  0  0  0
  -18.4580  -27.3120   22.4710 C   0  0  0  0  0  0  0  0  0  0  0  0
  -20.9880  -27.8410   22.6410 C   0  0  0  0  0  3  0  0  0  0  0  0
  -21.2090  -26.4680   21.9640 C   0  0  0  0  0  2  0  0  0  0  0  0
  -20.0980  -26.0930   20.9780 C   0  0  0  0  0  2  0  0  0  0  0  0
  -18.7430  -26.0410   21.6900 C   0  0  0  0  0  2  0  0  0  0  0  0
  -19.5080  -28.1650   22.9040 C   0  0  0  0  0  0  0  0  0  0  0  0
  -19.1810  -29.3490   23.6020 C   0  0  0  0  0  3  0  0  0  0  0  0
  -17.8390  -29.6830   23.8640 C   0  0  0  0  0  3  0  0  0  0  0  0
  -16.8050  -28.8300   23.4420 C   0  0  0  0  0  3  0  0  0  0  0  0
  -17.1160  -27.6460   22.7500 C   0  0  0  0  0  3  0  0  0  0  0  0
  -25.9240  -32.4190   23.3570 C   0  0  0  0  0  3  0  0  0  0  0  0
  -26.6390  -31.5640   24.4750 C   0  0  1  0  0  0  0  0  0  0  0  0
  -25.6840  -31.0610   25.5840 C   0  0  0  0  0  1  0  0  0  0  0  0
  -27.3370  -30.3290   23.8650 C   0  0  0  0  0  1  0  0  0  0  0  0
  -27.7510  -32.4090   25.1430 C   0  0  0  0  0  1  0  0  0  0  0  0
  -25.4710  -33.7040   23.9190 N   0  0  0  0  0  0  0  0  0  0  0  0
  -25.6610  -34.9040   23.3560 C   0  0  0  0  0  0  0  0  0  0  0  0
  -26.2970  -35.0550   22.3110 O   0  0  0  0  0  0  0  0  0  0  0  0
  -24.8970  -33.6520   24.7490 H   0  0  0  0  0  0  0  0  0  0  0  0
  -23.7520  -36.5480   23.3640 C   0  0  0  0  0  1  0  0  0  0  0  0
  -25.0540  -36.1310   24.0670 C   0  0  0  0  0  3  0  0  0  0  0  0
  -27.1180  -37.0760   25.0040 C   0  0  0  0  0  1  0  0  0  0  0  0
  -25.9690  -37.2920   24.1290 N   0  0  0  0  0  0  0  0  0  0  0  0
  -25.4760  -38.1200   24.4510 H   0  0  0  0  0  0  0  0  0  0  0  0
  -30.1800  -18.9820   20.2610 C   0  0  0  0  0  2  0  0  0  0  0  0
  -30.6360  -16.0510   20.7860 C   0  0  0  0  0  0  0  0  0  0  0  0
  -30.8230  -13.4850   20.2660 C   0  0  0  0  0  2  0  0  0  0  0  0
  -30.1140  -13.0170   18.9680 C   0  0  0  0  0  2  0  0  0  0  0  0
  -28.6260  -12.7290   19.2300 C   0  0  0  0  0  2  0  0  0  0  0  0
  -27.9770  -13.8240   20.1110 C   0  0  0  0  0  3  0  0  0  0  0  0
  -28.8320  -14.2080   21.3390 C   0  0  0  0  0  2  0  0  0  0  0  0
  -30.1160  -14.7110   20.8200 N   0  0  0  0  0  0  0  0  0  0  0  0
  -31.8790  -16.0350   20.7570 O   0  0  0  0  0  0  0  0  0  0  0  0
  -29.8610  -17.3380   20.6010 N   0  0  0  0  0  0  0  0  0  0  0  0
  -28.8680  -17.1600   20.6300 H   0  0  0  0  0  0  0  0  0  0  0  0
  -25.5410  -14.4130   20.5530 C   0  0  0  0  0  0  0  0  0  0  0  0
  -24.4330  -13.6510   20.8000 C   0  0  0  0  0  0  0  0  0  0  0  0
  -24.8860  -12.2980   20.8540 C   0  0  0  0  0  0  0  0  0  0  0  0
  -26.5960  -13.5240   20.4600 N   0  0  0  0  0  0  0  0  0  0  0  0
  -26.2070  -12.2460   20.7100 N   0  0  0  0  0  0  0  0  0  0  0  0
  -24.1260  -11.0460   20.9690 C   0  0  0  0  0  0  0  0  0  0  0  0
  -24.4680  -10.0570   21.9200 C   0  0  0  0  0  3  0  0  0  0  0  0
  -23.7060   -8.8740   22.0260 C   0  0  0  0  0  3  0  0  0  0  0  0
  -22.5880   -8.6700   21.1820 C   0  0  0  0  0  0  0  0  0  0  0  0
  -22.2670   -9.6460   20.2230 C   0  0  0  0  0  3  0  0  0  0  0  0
  -23.0290  -10.8200   20.1130 C   0  0  0  0  0  3  0  0  0  0  0  0
  -21.8060   -7.5390   21.1990 O   0  0  0  0  0  0  0  0  0  0  0  0
  -21.7320   -6.7320   22.3050 C   0  0  0  0  0  0  0  0  0  0  0  0
  -21.3250   -7.2260   23.5640 C   0  0  0  0  0  3  0  0  0  0  0  0
  -21.1940   -6.3470   24.6570 C   0  0  0  0  0  3  0  0  0  0  0  0
  -21.4620   -4.9740   24.4940 C   0  0  0  0  0  0  0  0  0  0  0  0
  -21.8610   -4.4790   23.2390 C   0  0  0  0  0  3  0  0  0  0  0  0
  -21.9930   -5.3560   22.1480 C   0  0  0  0  0  0  0  0  0  0  0  0
  -22.3570   -4.8690   20.9370 F   0  0  0  0  0  0  0  0  0  0  0  0
  -21.3280   -4.1270   25.5410 F   0  0  0  0  0  0  0  0  0  0  0  0
  -23.0180  -14.1460   20.8730 C   0  0  0  0  0  0  0  0  0  0  0  0
  -22.1750  -13.4820   21.6550 N   0  0  0  0  0  0  0  0  0  0  0  0
  -22.6670  -15.1610   20.2710 O   0  0  0  0  0  0  0  0  0  0  0  0
  -22.4710  -12.6650   22.1680 H   0  0  0  0  0  0  0  0  0  0  0  0
  -21.2200  -13.7970   21.7440 H   0  0  0  0  0  0  0  0  0  0  0  0
  -25.7370  -15.7790   20.3700 N   0  0  0  0  0  0  0  0  0  0  0  0
  -24.9570  -16.4270   20.3470 H   0  0  0  0  0  0  0  0  0  0  0  0
  -26.6100  -16.1980   20.0810 H   0  0  0  0  0  0  0  0  0  0  0  0
  1  4  1  0
  1  2  2  0
  2 54  1  0
  2  5  1  0
  3  5  1  0
  3 10  1  0
  4  3  1  0
  5  6  1  0
 10  7  1  6
 10  8  1  0
 10  9  1  0
 12 11  1  0
 12 13  1  0
 12  4  1  0
 13 15  1  0
 14 25  2  0
 15 20  1  0
 16 24  1  0
 16 26  1  0
 17 23  1  0
 17 19  1  0
 18 24  1  0
 19 18  1  0
 20 19  2  0
 21 22  1  0
 21 15  2  0
 22 17  2  0
 23 16  1  0
 24 14  1  0
 26 28  2  0
 27 26  1  0
 29 27  1  0
 30 39  2  0
 30 35  1  0
 31 27  1  0
 31 35  1  0
 32 31  1  0
 33 34  1  0
 33 32  1  0
 34 30  1  0
 35 36  2  0
 36 37  1  0
 38 37  2  0
 39 38  1  0
 40 14  1  0
 40 45  1  0
 40 41  1  0
 41 44  1  1
 41 42  1  0
 43 41  1  0
 45 48  1  0
 46 45  1  0
 46 50  1  0
 47 46  2  0
 50 49  1  0
 50 52  1  0
 52 53  1  0
 52 51  1  0
 54 63  1  0
 55 61  1  0
 56 61  1  0
 57 58  1  0
 57 56  1  0
 59 58  1  0
 59 68  1  0
 59 60  1  0
 61 60  1  0
 62 55  2  0
 63 64  1  0
 63 55  1  0
 65 66  2  0
 66 67  1  0
 66 85  1  0
 67 70  1  0
 68 65  1  0
 68 69  1  0
 69 67  2  0
 70 71  1  0
 71 72  2  0
 73 76  1  0
 73 72  1  0
 74 73  2  0
 75 74  1  0
 75 70  2  0
 76 77  1  0
 77 78  1  0
 78 79  2  0
 80 79  1  0
 80 84  1  0
 81 80  2  0
 82 77  2  0
 82 81  1  0
 83 82  1  0
 85 86  1  0
 86 89  1  0
 86 88  1  0
 87 85  2  0
 90 65  1  0
 91 90  1  0
 92 90  1  0
M  ISO  4  12 101  13 101  55 100  63 100
M  END
>  <TORSDO>  (62) 
F 19

>  <SCORE>  (62) 
-10.708

>  <name>  (62) 
61

>  <ligand_id>  (62) 
61

>  <original_smiles>  (62) 
[H]c1c([H])c([H])c2c(c1[H])C([H])([H])C([H])([H])C([H])([H])C2([H])N([H])C(=O)C1([H])N(C(=O)C([H])(N([H])C(=O)C([H])(N([H])C([H])([H])[H])C([H])([H])[H])C(C([H])([H])[H])(C([H])([H])[H])C([H])([H])[H])C([H])([H])c2c([H])c(OC([H])(n3c([H])c(C([H])([H])N([H])C(=O)N4C([H])([H])C([H])([H])C([H])([H])C([H])(n5nc(-c6c([H])c([H])c(Oc7c([H])c([H])c(F)c([H])c7F)c([H])c6[H])c(C(=O)N([H])[H])c5N([H])[H])C4([H])[H])[n+]([H])c3C(C([H])([H])[H])(C([H])([H])[H])C([H])([H])[H])C([H])([H])[H])c([H])c([H])c2C1([H])[H]

>  <smiles>  (62) 
[H]c1c([H])c([H])c2c(c1[H])C([H])([H])C([H])([H])C([H])([H])C2([H])N([H])C(=O)C1([H])N(C(=O)C([H])(N([H])C(=O)C([H])(N([H])C([H])([H])[H])C([H])([H])[H])C(C([H])([H])[H])(C([H])([H])[H])C([H])([H])[H])C([H])([H])c2c([H])c(OC([H])(n3c([H])c(C([H])([H])N([H])C(=O)N4C([H])([H])C([H])([H])C([H])([H])C([H])(n5nc(-c6c([H])c([H])c(Oc7c([H])c([H])c(F)c([H])c7F)c([H])c6[H])c(C(=O)N([H])[H])c5N([H])[H])C4([H])[H])[n+]([H])c3C(C([H])([H])[H])(C([H])([H])[H])C([H])([H])[H])C([H])([H])[H])c([H])c([H])c2C1([H])[H]

$$$$
62:0:0
     RDKit          3D

 91 99  0  0  1  0  0  0  0  0999 V2000
  -29.0770  -21.8270   20.6630 C   0  0  0  0  0  3  0  0  0  0  0  0
  -28.7460  -23.1750   20.0800 C   0  0  0  0  0  0  0  0  0  0  0  0
  -29.4110  -20.8290   19.6880 C   0  0  0  0  0  0  0  0  0  0  0  0
  -29.3670  -21.3270   17.1460 C   0  0  0  0  0  1  0  0  0  0  0  0
  -28.8830  -22.9780   18.7810 N   0  0  0  0  0  0  0  0  0  0  0  0
  -29.2370  -21.6620   18.5560 N   0  0  0  0  0  0  0  0  0  0  0  0
  -31.2040  -19.1610   18.6660 C   0  0  0  0  0  1  0  0  0  0  0  0
  -29.8870  -19.2040   19.4740 C   0  0  0  0  0  3  0  0  0  0  0  0
  -28.8800  -18.0490   21.5480 C   0  0  0  0  0  1  0  0  0  0  0  0
  -31.3380  -17.9870   21.3240 C   0  0  0  0  0  1  0  0  0  0  0  0
  -30.0160  -17.8550   20.5320 C   0  0  2  0  0  0  0  0  0  0  0  0
  -30.6880  -15.1080   19.9210 C   0  0  0  0  0  0  0  0  0  0  0  0
  -30.5230  -12.7570   18.9300 C   0  0  0  0  0  2  0  0  0  0  0  0
  -29.5040  -12.6910   17.7690 C   0  0  0  0  0  2  0  0  0  0  0  0
  -28.0780  -12.4550   18.3020 C   0  0  0  0  0  2  0  0  0  0  0  0
  -27.7420  -13.3680   19.5090 C   0  0  0  0  0  3  0  0  0  0  0  0
  -28.8750  -13.3910   20.5550 C   0  0  0  0  0  2  0  0  0  0  0  0
  -30.0870  -13.8440   19.8560 N   0  0  0  0  0  0  0  0  0  0  0  0
  -31.8920  -15.1530   19.6450 O   0  0  0  0  0  0  0  0  0  0  0  0
  -29.8960  -16.3000   20.0960 N   0  0  0  0  0  0  0  0  0  0  0  0
  -28.9280  -16.0210   20.1100 H   0  0  0  0  0  0  0  0  0  0  0  0
  -25.4240  -13.9290   20.4320 C   0  0  0  0  0  0  0  0  0  0  0  0
  -24.3830  -13.1480   20.8500 C   0  0  0  0  0  0  0  0  0  0  0  0
  -24.8380  -11.7960   20.7490 C   0  0  0  0  0  0  0  0  0  0  0  0
  -26.4440  -13.0550   20.0960 N   0  0  0  0  0  0  0  0  0  0  0  0
  -26.1070  -11.7650   20.3540 N   0  0  0  0  0  0  0  0  0  0  0  0
  -24.1180  -10.5300   20.9490 C   0  0  0  0  0  0  0  0  0  0  0  0
  -24.5500   -9.5750   21.8950 C   0  0  0  0  0  3  0  0  0  0  0  0
  -23.8280   -8.3770   22.0850 C   0  0  0  0  0  3  0  0  0  0  0  0
  -22.6580   -8.1250   21.3280 C   0  0  0  0  0  0  0  0  0  0  0  0
  -22.2450   -9.0690   20.3720 C   0  0  0  0  0  3  0  0  0  0  0  0
  -22.9670  -10.2590   20.1800 C   0  0  0  0  0  3  0  0  0  0  0  0
  -21.9090   -6.9770   21.4240 O   0  0  0  0  0  0  0  0  0  0  0  0
  -21.7900   -6.2930   22.6070 C   0  0  0  0  0  0  0  0  0  0  0  0
  -21.2610   -6.8990   23.7670 C   0  0  0  0  0  3  0  0  0  0  0  0
  -21.0920   -6.1390   24.9430 C   0  0  0  0  0  3  0  0  0  0  0  0
  -21.4420   -4.7770   24.9590 C   0  0  0  0  0  0  0  0  0  0  0  0
  -21.9660   -4.1720   23.8020 C   0  0  0  0  0  3  0  0  0  0  0  0
  -22.1360   -4.9280   22.6290 C   0  0  0  0  0  0  0  0  0  0  0  0
  -22.6210   -4.3340   21.5120 F   0  0  0  0  0  0  0  0  0  0  0  0
  -21.2740   -4.0450   26.0840 F   0  0  0  0  0  0  0  0  0  0  0  0
  -23.0090  -13.6210   21.2230 C   0  0  0  0  0  0  0  0  0  0  0  0
  -22.3320  -12.9010   22.1100 N   0  0  0  0  0  0  0  0  0  0  0  0
  -22.5470  -14.6650   20.7640 O   0  0  0  0  0  0  0  0  0  0  0  0
  -22.7210  -12.0560   22.5010 H   0  0  0  0  0  0  0  0  0  0  0  0
  -21.4130  -13.2010   22.4030 H   0  0  0  0  0  0  0  0  0  0  0  0
  -25.5800  -15.3030   20.2790 N   0  0  0  0  0  0  0  0  0  0  0  0
  -24.8180  -15.9520   20.4490 H   0  0  0  0  0  0  0  0  0  0  0  0
  -26.3890  -15.7490   19.8680 H   0  0  0  0  0  0  0  0  0  0  0  0
  -28.0860  -24.6160   20.6560 C   0  0  0  0  0  2  0  0  0  0  0  0
  -28.3500  -26.1160   20.2370 O   0  0  0  0  0  0  0  0  0  0  0  0
  -24.6690  -31.8670   23.2040 C   0  0  0  0  0  0  0  0  0  0  0  0
  -27.2920  -27.1150   20.2310 C   0  0  0  0  0  0  0  0  0  0  0  0
  -23.4860  -30.4460   21.5720 C   0  0  0  0  0  3  0  0  0  0  0  0
  -24.9530  -28.8630   20.1710 C   0  0  0  0  0  0  0  0  0  0  0  0
  -26.0400  -30.7260   21.4140 C   0  0  0  0  0  2  0  0  0  0  0  0
  -26.1310  -29.3230   20.7770 C   0  0  0  0  0  0  0  0  0  0  0  0
  -27.3010  -28.4650   20.7860 C   0  0  0  0  0  3  0  0  0  0  0  0
  -26.0870  -26.7700   19.5840 C   0  0  0  0  0  3  0  0  0  0  0  0
  -24.9460  -27.6010   19.5590 C   0  0  0  0  0  3  0  0  0  0  0  0
  -23.7200  -29.7530   20.2030 C   0  0  0  0  0  2  0  0  0  0  0  0
  -24.7520  -31.0360   22.1190 N   0  0  0  0  0  0  0  0  0  0  0  0
  -23.5790  -32.1460   23.7280 O   0  0  0  0  0  0  0  0  0  0  0  0
  -22.8080  -29.4460   22.5420 C   0  0  0  0  0  0  0  0  0  0  0  0
  -21.4790  -29.2780   22.4260 N   0  0  0  0  0  0  0  0  0  0  0  0
  -23.4820  -28.8220   23.3640 O   0  0  0  0  0  0  0  0  0  0  0  0
  -20.9890  -29.8290   21.7360 H   0  0  0  0  0  0  0  0  0  0  0  0
  -18.1020  -28.0750   22.9480 C   0  0  0  0  0  0  0  0  0  0  0  0
  -20.6610  -28.3440   23.2070 C   0  0  0  0  0  3  0  0  0  0  0  0
  -20.7640  -26.9100   22.6360 C   0  0  0  0  0  2  0  0  0  0  0  0
  -19.6590  -26.5820   21.6260 C   0  0  0  0  0  2  0  0  0  0  0  0
  -18.2790  -26.7240   22.2750 C   0  0  0  0  0  2  0  0  0  0  0  0
  -19.2200  -28.8410   23.3700 C   0  0  0  0  0  0  0  0  0  0  0  0
  -18.9990  -30.1030   23.9630 C   0  0  0  0  0  3  0  0  0  0  0  0
  -17.6930  -30.6020   24.1340 C   0  0  0  0  0  3  0  0  0  0  0  0
  -16.5890  -29.8320   23.7280 C   0  0  0  0  0  3  0  0  0  0  0  0
  -16.7940  -28.5700   23.1430 C   0  0  0  0  0  3  0  0  0  0  0  0
  -25.9370  -32.5210   23.8300 C   0  0  0  0  0  3  0  0  0  0  0  0
  -26.4590  -31.7570   25.1080 C   0  0  1  0  0  0  0  0  0  0  0  0
  -25.3660  -31.5040   26.1710 C   0  0  0  0  0  1  0  0  0  0  0  0
  -27.0640  -30.3890   24.7220 C   0  0  0  0  0  1  0  0  0  0  0  0
  -27.5970  -32.5670   25.7750 C   0  0  0  0  0  1  0  0  0  0  0  0
  -25.6090  -33.9150   24.1690 N   0  0  0  0  0  0  0  0  0  0  0  0
  -25.9260  -34.9810   23.4200 C   0  0  0  0  0  0  0  0  0  0  0  0
  -26.5940  -34.8910   22.3850 O   0  0  0  0  0  0  0  0  0  0  0  0
  -25.0190  -34.0550   24.9760 H   0  0  0  0  0  0  0  0  0  0  0  0
  -24.1810  -36.7590   23.0800 C   0  0  0  0  0  1  0  0  0  0  0  0
  -25.4260  -36.3610   23.8880 C   0  0  0  0  0  3  0  0  0  0  0  0
  -27.5500  -37.2650   24.7280 C   0  0  0  0  0  1  0  0  0  0  0  0
  -26.4490  -37.4260   23.7820 N   0  0  0  0  0  0  0  0  0  0  0  0
  -26.0320  -38.3400   23.9340 H   0  0  0  0  0  0  0  0  0  0  0  0
  2 50  1  0
  2  1  1  0
  3  1  2  0
  4  6  1  0
  5  2  2  0
  6  5  1  0
  6  3  1  0
  8  7  1  0
  8  3  1  0
  8 11  1  0
 11 10  1  1
 11  9  1  0
 12 20  1  0
 13 18  1  0
 14 15  1  0
 14 13  1  0
 16 15  1  0
 16 25  1  0
 16 17  1  0
 18 12  1  0
 18 17  1  0
 19 12  2  0
 20 21  1  0
 20 11  1  0
 22 23  2  0
 23 42  1  0
 24 23  1  0
 24 27  1  0
 25 26  1  0
 25 22  1  0
 26 24  2  0
 27 28  1  0
 28 29  2  0
 30 33  1  0
 30 29  1  0
 31 30  2  0
 32 31  1  0
 32 27  2  0
 33 34  1  0
 34 39  2  0
 34 35  1  0
 35 36  2  0
 36 37  1  0
 37 41  1  0
 38 37  2  0
 39 38  1  0
 40 39  1  0
 42 43  1  0
 43 46  1  0
 43 45  1  0
 44 42  2  0
 47 22  1  0
 47 48  1  0
 49 47  1  0
 51 50  1  0
 52 63  2  0
 53 51  1  0
 53 58  1  0
 54 62  1  0
 54 64  1  0
 55 61  1  0
 55 57  1  0
 56 62  1  0
 57 58  2  0
 57 56  1  0
 59 53  2  0
 60 59  1  0
 60 55  2  0
 61 54  1  0
 62 52  1  0
 64 66  2  0
 65 64  1  0
 67 65  1  0
 68 77  2  0
 68 73  1  0
 69 65  1  0
 69 73  1  0
 70 69  1  0
 71 72  1  0
 71 70  1  0
 72 68  1  0
 73 74  2  0
 74 75  1  0
 76 75  2  0
 77 76  1  0
 78 52  1  0
 78 83  1  0
 78 79  1  0
 79 82  1  1
 79 80  1  0
 81 79  1  0
 83 86  1  0
 84 88  1  0
 84 83  1  0
 85 84  2  0
 88 87  1  0
 90 88  1  0
 90 91  1  0
 90 89  1  0
M  ISO  4  12 100  20 100  50 101  51 101
M  END
>  <TORSDO>  (63) 
F 19

>  <SCORE>  (63) 
-13.960

>  <name>  (63) 
62

>  <ligand_id>  (63) 
62

>  <original_smiles>  (63) 
[H]c1c([H])c([H])c2c(c1[H])C([H])([H])C([H])([H])C([H])([H])C2([H])N([H])C(=O)C1([H])N(C(=O)C([H])(N([H])C(=O)C([H])(N([H])C([H])([H])[H])C([H])([H])[H])C(C([H])([H])[H])(C([H])([H])[H])C([H])([H])[H])C([H])([H])c2c([H])c(OC([H])([H])c3nn(C([H])([H])[H])c(C([H])(C([H])([H])[H])C(N([H])C(=O)N4C([H])([H])C([H])([H])C([H])([H])C([H])(n5nc(-c6c([H])c([H])c(Oc7c([H])c([H])c(F)c([H])c7F)c([H])c6[H])c(C(=O)N([H])[H])c5N([H])[H])C4([H])[H])(C([H])([H])[H])C([H])([H])[H])c3[H])c([H])c([H])c2C1([H])[H]

>  <smiles>  (63) 
[H]c1c([H])c([H])c2c(c1[H])C([H])([H])C([H])([H])C([H])([H])C2([H])N([H])C(=O)C1([H])N(C(=O)C([H])(N([H])C(=O)C([H])(N([H])C([H])([H])[H])C([H])([H])[H])C(C([H])([H])[H])(C([H])([H])[H])C([H])([H])[H])C([H])([H])c2c([H])c(OC([H])([H])c3nn(C([H])([H])[H])c(C([H])(C([H])([H])[H])C(N([H])C(=O)N4C([H])([H])C([H])([H])C([H])([H])C([H])(n5nc(-c6c([H])c([H])c(Oc7c([H])c([H])c(F)c([H])c7F)c([H])c6[H])c(C(=O)N([H])[H])c5N([H])[H])C4([H])[H])(C([H])([H])[H])C([H])([H])[H])c3[H])c([H])c([H])c2C1([H])[H]

$$$$
63:0:0
     RDKit          3D

 87 95  0  0  1  0  0  0  0  0999 V2000
  -29.0460  -21.9820   21.3030 C   0  0  0  0  0  2  0  0  0  0  0  0
  -28.6670  -22.7990   20.1550 C   0  0  0  0  0  0  0  0  0  0  0  0
  -29.4440  -19.8330   20.1440 C   0  0  0  0  0  0  0  0  0  0  0  0
  -29.4340  -20.6070   21.2840 N   0  0  0  0  0  0  0  0  0  0  0  0
  -28.7070  -21.9360   19.0490 N   0  0  0  0  0  0  0  0  0  0  0  0
  -29.0900  -20.5790   19.0310 N   0  0  0  0  0  2  0  0  0  0  0  0
  -27.8430  -24.3430   20.0690 C   0  0  0  0  0  2  0  0  0  0  0  0
  -28.1850  -25.9270   20.3160 O   0  0  0  0  0  0  0  0  0  0  0  0
  -24.6410  -31.9090   23.2510 C   0  0  0  0  0  0  0  0  0  0  0  0
  -27.1800  -27.0270   20.2440 C   0  0  0  0  0  0  0  0  0  0  0  0
  -23.4370  -30.5110   21.6210 C   0  0  0  0  0  3  0  0  0  0  0  0
  -24.8780  -28.9030   20.1990 C   0  0  0  0  0  0  0  0  0  0  0  0
  -26.0050  -30.7200   21.4640 C   0  0  0  0  0  2  0  0  0  0  0  0
  -26.0700  -29.3110   20.8100 C   0  0  0  0  0  0  0  0  0  0  0  0
  -27.2170  -28.3950   20.8080 C   0  0  0  0  0  3  0  0  0  0  0  0
  -25.9520  -26.7670   19.5920 C   0  0  0  0  0  3  0  0  0  0  0  0
  -24.8420  -27.6490   19.5730 C   0  0  0  0  0  3  0  0  0  0  0  0
  -23.6570  -29.8230   20.2470 C   0  0  0  0  0  2  0  0  0  0  0  0
  -24.7150  -31.0730   22.1650 N   0  0  0  0  0  0  0  0  0  0  0  0
  -23.5560  -32.2050   23.7750 O   0  0  0  0  0  0  0  0  0  0  0  0
  -22.7420  -29.5210   22.5920 C   0  0  0  0  0  0  0  0  0  0  0  0
  -21.4130  -29.3570   22.4650 N   0  0  0  0  0  0  0  0  0  0  0  0
  -23.4060  -28.9000   23.4260 O   0  0  0  0  0  0  0  0  0  0  0  0
  -20.9320  -29.9120   21.7720 H   0  0  0  0  0  0  0  0  0  0  0  0
  -18.0260  -28.1490   22.9700 C   0  0  0  0  0  0  0  0  0  0  0  0
  -20.5870  -28.4270   23.2420 C   0  0  0  0  0  3  0  0  0  0  0  0
  -20.6930  -26.9880   22.6840 C   0  0  0  0  0  2  0  0  0  0  0  0
  -19.5960  -26.6520   21.6660 C   0  0  0  0  0  2  0  0  0  0  0  0
  -18.2100  -26.7960   22.3040 C   0  0  0  0  0  2  0  0  0  0  0  0
  -19.1420  -28.9220   23.3950 C   0  0  0  0  0  0  0  0  0  0  0  0
  -18.9130  -30.1850   23.9830 C   0  0  0  0  0  3  0  0  0  0  0  0
  -17.6050  -30.6780   24.1460 C   0  0  0  0  0  3  0  0  0  0  0  0
  -16.5060  -29.9050   23.7330 C   0  0  0  0  0  3  0  0  0  0  0  0
  -16.7170  -28.6410   23.1530 C   0  0  0  0  0  3  0  0  0  0  0  0
  -25.9180  -32.5470   23.8770 C   0  0  0  0  0  3  0  0  0  0  0  0
  -25.6070  -33.9490   24.2060 N   0  0  0  0  0  0  0  0  0  0  0  0
  -25.9300  -35.0040   23.4450 C   0  0  0  0  0  0  0  0  0  0  0  0
  -26.5780  -34.8980   22.4010 O   0  0  0  0  0  0  0  0  0  0  0  0
  -25.0190  -34.1040   25.0110 H   0  0  0  0  0  0  0  0  0  0  0  0
  -24.1820  -36.7980   23.1490 C   0  0  0  0  0  1  0  0  0  0  0  0
  -25.4570  -36.3980   23.9110 C   0  0  0  0  0  3  0  0  0  0  0  0
  -27.6190  -37.2990   24.6540 C   0  0  0  0  0  1  0  0  0  0  0  0
  -26.4820  -37.4530   23.7490 N   0  0  0  0  0  0  0  0  0  0  0  0
  -26.0810  -38.3730   23.9020 H   0  0  0  0  0  0  0  0  0  0  0  0
  -26.4170  -31.7860   25.1680 C   0  0  1  0  0  0  0  0  0  0  0  0
  -25.3120  -31.5690   26.2290 C   0  0  0  0  0  1  0  0  0  0  0  0
  -26.9940  -30.3990   24.8070 C   0  0  0  0  0  1  0  0  0  0  0  0
  -27.5680  -32.5830   25.8270 C   0  0  0  0  0  1  0  0  0  0  0  0
  -30.2040  -18.2620   20.0140 C   0  0  0  0  0  2  0  0  0  0  0  0
  -30.4940  -15.3770   20.0580 C   0  0  0  0  0  0  0  0  0  0  0  0
  -30.4160  -12.9720   19.0710 C   0  0  0  0  0  2  0  0  0  0  0  0
  -29.4230  -12.7690   17.8960 C   0  0  0  0  0  2  0  0  0  0  0  0
  -28.0060  -12.4610   18.4100 C   0  0  0  0  0  2  0  0  0  0  0  0
  -27.6110  -13.3830   19.5880 C   0  0  0  0  0  3  0  0  0  0  0  0
  -28.7310  -13.4880   20.6530 C   0  0  0  0  0  2  0  0  0  0  0  0
  -29.9070  -14.0730   19.9740 N   0  0  0  0  0  0  0  0  0  0  0  0
  -31.6840  -15.3680   19.7080 O   0  0  0  0  0  0  0  0  0  0  0  0
  -28.5730  -16.6710   21.0750 C   0  0  0  0  0  1  0  0  0  0  0  0
  -29.7900  -16.6770   20.2770 N   0  0  0  0  0  0  0  0  0  0  0  0
  -25.2650  -13.8970   20.4600 C   0  0  0  0  0  0  0  0  0  0  0  0
  -24.2330  -13.1000   20.8650 C   0  0  0  0  0  0  0  0  0  0  0  0
  -24.7130  -11.7580   20.7780 C   0  0  0  0  0  0  0  0  0  0  0  0
  -26.3110  -13.0430   20.1530 N   0  0  0  0  0  0  0  0  0  0  0  0
  -25.9910  -11.7470   20.4080 N   0  0  0  0  0  0  0  0  0  0  0  0
  -24.0090  -10.4830   20.9670 C   0  0  0  0  0  0  0  0  0  0  0  0
  -24.4600   -9.5190   21.8940 C   0  0  0  0  0  3  0  0  0  0  0  0
  -23.7510   -8.3130   22.0750 C   0  0  0  0  0  3  0  0  0  0  0  0
  -22.5760   -8.0610   21.3290 C   0  0  0  0  0  0  0  0  0  0  0  0
  -22.1420   -9.0130   20.3910 C   0  0  0  0  0  3  0  0  0  0  0  0
  -22.8520  -10.2130   20.2070 C   0  0  0  0  0  3  0  0  0  0  0  0
  -21.8380   -6.9060   21.4200 O   0  0  0  0  0  0  0  0  0  0  0  0
  -21.7610   -6.1900   22.5880 C   0  0  0  0  0  0  0  0  0  0  0  0
  -21.2790   -6.7660   23.7830 C   0  0  0  0  0  3  0  0  0  0  0  0
  -21.1510   -5.9780   24.9440 C   0  0  0  0  0  3  0  0  0  0  0  0
  -21.4940   -4.6140   24.9100 C   0  0  0  0  0  0  0  0  0  0  0  0
  -21.9680   -4.0360   23.7190 C   0  0  0  0  0  3  0  0  0  0  0  0
  -22.0990   -4.8220   22.5610 C   0  0  0  0  0  0  0  0  0  0  0  0
  -22.5370   -4.2560   21.4110 F   0  0  0  0  0  0  0  0  0  0  0  0
  -21.3630   -3.8530   26.0230 F   0  0  0  0  0  0  0  0  0  0  0  0
  -22.8460  -13.5550   21.2100 C   0  0  0  0  0  0  0  0  0  0  0  0
  -22.1700  -12.8380   22.0980 N   0  0  0  0  0  0  0  0  0  0  0  0
  -22.3740  -14.5850   20.7300 O   0  0  0  0  0  0  0  0  0  0  0  0
  -22.5690  -12.0070   22.5120 H   0  0  0  0  0  0  0  0  0  0  0  0
  -21.2400  -13.1240   22.3700 H   0  0  0  0  0  0  0  0  0  0  0  0
  -25.3820  -15.2720   20.2960 N   0  0  0  0  0  0  0  0  0  0  0  0
  -24.6000  -15.8980   20.4500 H   0  0  0  0  0  0  0  0  0  0  0  0
  -26.1880  -15.7360   19.9030 H   0  0  0  0  0  0  0  0  0  0  0  0
  2  1  1  0
  3  4  2  0
  4  1  1  0
  5  2  2  0
  6  5  1  0
  6  3  1  0
  7  2  1  0
  7  8  1  0
  9 20  2  0
 10  8  1  0
 10 15  1  0
 11 19  1  0
 11 21  1  0
 12 18  1  0
 12 14  1  0
 13 19  1  0
 14 13  1  0
 15 14  2  0
 16 10  2  0
 17 16  1  0
 17 12  2  0
 18 11  1  0
 19  9  1  0
 21 23  2  0
 22 21  1  0
 24 22  1  0
 25 34  2  0
 25 30  1  0
 26 22  1  0
 26 30  1  0
 27 26  1  0
 28 29  1  0
 28 27  1  0
 29 25  1  0
 30 31  2  0
 31 32  1  0
 33 32  2  0
 34 33  1  0
 35  9  1  0
 35 36  1  0
 35 45  1  0
 36 39  1  0
 37 41  1  0
 37 36  1  0
 38 37  2  0
 41 40  1  0
 43 44  1  0
 43 41  1  0
 43 42  1  0
 45 48  1  1
 45 46  1  0
 47 45  1  0
 49  3  1  0
 49 59  1  0
 50 59  1  0
 51 56  1  0
 52 53  1  0
 52 51  1  0
 54 53  1  0
 54 63  1  0
 54 55  1  0
 56 50  1  0
 56 55  1  0
 57 50  2  0
 59 58  1  0
 60 61  2  0
 61 80  1  0
 62 61  1  0
 62 65  1  0
 63 64  1  0
 63 60  1  0
 64 62  2  0
 65 66  1  0
 66 67  2  0
 68 71  1  0
 68 67  1  0
 69 68  2  0
 70 69  1  0
 70 65  2  0
 71 72  1  0
 72 73  1  0
 73 74  2  0
 75 74  1  0
 75 79  1  0
 76 75  2  0
 77 72  2  0
 77 76  1  0
 78 77  1  0
 80 81  1  0
 81 84  1  0
 81 83  1  0
 82 80  2  0
 85 86  1  0
 85 60  1  0
 87 85  1  0
M  ISO  4   7 101   8 101  50 100  59 100
M  END
>  <TORSDO>  (64) 
F 18

>  <SCORE>  (64) 
-15.661

>  <name>  (64) 
63

>  <ligand_id>  (64) 
63

>  <original_smiles>  (64) 
[H]c1nc(C([H])([H])N(C(=O)N2C([H])([H])C([H])([H])C([H])([H])C([H])(n3nc(-c4c([H])c([H])c(Oc5c([H])c([H])c(F)c([H])c5F)c([H])c4[H])c(C(=O)N([H])[H])c3N([H])[H])C2([H])[H])C([H])([H])[H])nnc1C([H])([H])Oc1c([H])c([H])c2c(c1[H])C([H])([H])N(C(=O)C([H])(N([H])C(=O)C([H])(N([H])C([H])([H])[H])C([H])([H])[H])C(C([H])([H])[H])(C([H])([H])[H])C([H])([H])[H])C([H])(C(=O)N([H])C1([H])c3c([H])c([H])c([H])c([H])c3C([H])([H])C([H])([H])C1([H])[H])C2([H])[H]

>  <smiles>  (64) 
[H]c1nc(C([H])([H])N(C(=O)N2C([H])([H])C([H])([H])C([H])([H])C([H])(n3nc(-c4c([H])c([H])c(Oc5c([H])c([H])c(F)c([H])c5F)c([H])c4[H])c(C(=O)N([H])[H])c3N([H])[H])C2([H])[H])C([H])([H])[H])nnc1C([H])([H])Oc1c([H])c([H])c2c(c1[H])C([H])([H])N(C(=O)C([H])(N([H])C(=O)C([H])(N([H])C([H])([H])[H])C([H])([H])[H])C(C([H])([H])[H])(C([H])([H])[H])C([H])([H])[H])C([H])(C(=O)N([H])C1([H])c3c([H])c([H])c([H])c([H])c3C([H])([H])C([H])([H])C1([H])[H])C2([H])[H]

$$$$
64:0:0
     RDKit          3D

 93101  0  0  1  0  0  0  0  0999 V2000
  -28.0110  -22.0530   19.1460 C   0  0  0  0  0  3  0  0  0  0  0  0
  -28.6460  -20.8550   18.9410 C   0  0  0  0  0  0  0  0  0  0  0  0
  -29.6050  -20.7670   19.9870 C   0  0  0  0  0  0  0  0  0  0  0  0
  -29.5820  -21.8770   20.7460 N   0  0  0  0  0  0  0  0  0  0  0  0
  -28.6250  -22.6990   20.2010 N   0  0  0  0  0  0  0  0  0  0  0  0
  -29.0640  -20.3310   16.5250 C   0  0  0  0  0  1  0  0  0  0  0  0
  -28.4350  -19.8490   17.8360 C   0  0  0  0  0  2  0  0  0  0  0  0
  -30.6290  -19.6300   20.1490 C   0  0  0  0  0  2  0  0  0  0  0  0
  -30.0910  -18.2430   20.6750 C   0  0  0  0  0  2  0  0  0  0  0  0
  -32.3780  -17.2760   20.3860 C   0  0  0  0  0  1  0  0  0  0  0  0
  -30.9100  -17.0270   20.2730 N   0  0  1  0  0  4  0  0  0  0  0  0
  -30.7490  -16.9020   19.2850 H   0  0  0  0  0  0  0  0  0  0  0  0
  -30.9280  -15.5030   22.2970 C   0  0  0  0  0  1  0  0  0  0  0  0
  -30.4530  -15.6910   20.8360 C   0  0  0  0  0  3  0  0  0  0  0  0
  -30.9000  -14.4630   19.9540 C   0  0  0  0  0  0  0  0  0  0  0  0
  -30.4740  -12.2870   18.8310 C   0  0  0  0  0  2  0  0  0  0  0  0
  -29.4910  -12.5160   17.6670 C   0  0  0  0  0  2  0  0  0  0  0  0
  -28.0350  -12.4040   18.1660 C   0  0  0  0  0  2  0  0  0  0  0  0
  -27.7800  -13.2430   19.4480 C   0  0  0  0  0  3  0  0  0  0  0  0
  -28.8870  -13.0130   20.5030 C   0  0  0  0  0  2  0  0  0  0  0  0
  -30.1820  -13.2980   19.8660 N   0  0  0  0  0  0  0  0  0  0  0  0
  -31.9300  -14.6040   19.2880 O   0  0  0  0  0  0  0  0  0  0  0  0
  -25.4470  -13.9000   20.3020 C   0  0  0  0  0  0  0  0  0  0  0  0
  -24.3810  -13.1500   20.7290 C   0  0  0  0  0  0  0  0  0  0  0  0
  -24.8030  -11.7870   20.6540 C   0  0  0  0  0  0  0  0  0  0  0  0
  -26.4500  -12.9910   19.9980 N   0  0  0  0  0  0  0  0  0  0  0  0
  -26.0700  -11.7160   20.2660 N   0  0  0  0  0  0  0  0  0  0  0  0
  -24.0550  -10.5420   20.8770 C   0  0  0  0  0  0  0  0  0  0  0  0
  -24.4900   -9.5790   21.8120 C   0  0  0  0  0  3  0  0  0  0  0  0
  -23.7470   -8.3970   22.0230 C   0  0  0  0  0  3  0  0  0  0  0  0
  -22.5520   -8.1730   21.2960 C   0  0  0  0  0  0  0  0  0  0  0  0
  -22.1350   -9.1270   20.3510 C   0  0  0  0  0  3  0  0  0  0  0  0
  -22.8780  -10.3010   20.1390 C   0  0  0  0  0  3  0  0  0  0  0  0
  -21.7780   -7.0450   21.4140 O   0  0  0  0  0  0  0  0  0  0  0  0
  -21.7050   -6.3390   22.5890 C   0  0  0  0  0  0  0  0  0  0  0  0
  -21.2850   -6.9420   23.7960 C   0  0  0  0  0  3  0  0  0  0  0  0
  -21.1630   -6.1670   24.9650 C   0  0  0  0  0  3  0  0  0  0  0  0
  -21.4480   -4.7880   24.9310 C   0  0  0  0  0  0  0  0  0  0  0  0
  -21.8570   -4.1840   23.7280 C   0  0  0  0  0  3  0  0  0  0  0  0
  -21.9860   -4.9580   22.5620 C   0  0  0  0  0  0  0  0  0  0  0  0
  -22.3620   -4.3670   21.4020 F   0  0  0  0  0  0  0  0  0  0  0  0
  -21.3230   -4.0410   26.0510 F   0  0  0  0  0  0  0  0  0  0  0  0
  -23.0180  -13.6660   21.0930 C   0  0  0  0  0  0  0  0  0  0  0  0
  -22.3330  -12.9920   22.0100 N   0  0  0  0  0  0  0  0  0  0  0  0
  -22.5720  -14.7000   20.6000 O   0  0  0  0  0  0  0  0  0  0  0  0
  -22.7090  -12.1570   22.4340 H   0  0  0  0  0  0  0  0  0  0  0  0
  -21.4210  -13.3210   22.2950 H   0  0  0  0  0  0  0  0  0  0  0  0
  -25.6410  -15.2670   20.1300 N   0  0  0  0  0  0  0  0  0  0  0  0
  -24.9030  -15.9470   20.2750 H   0  0  0  0  0  0  0  0  0  0  0  0
  -26.4720  -15.6760   19.7190 H   0  0  0  0  0  0  0  0  0  0  0  0
  -28.3180  -24.0500   20.7490 C   0  0  0  0  0  2  0  0  0  0  0  0
  -28.5640  -25.2320   19.7410 C   0  0  0  0  0  2  0  0  0  0  0  0
  -28.4660  -26.6040   20.2400 O   0  0  0  0  0  0  0  0  0  0  0  0
  -24.6040  -31.8250   23.2220 C   0  0  0  0  0  0  0  0  0  0  0  0
  -27.2950  -27.3510   20.1690 C   0  0  0  0  0  0  0  0  0  0  0  0
  -23.4260  -30.4270   21.5560 C   0  0  0  0  0  3  0  0  0  0  0  0
  -24.9070  -28.9010   20.1350 C   0  0  0  0  0  0  0  0  0  0  0  0
  -25.9580  -30.7800   21.4040 C   0  0  0  0  0  2  0  0  0  0  0  0
  -26.0570  -29.4120   20.7480 C   0  0  0  0  0  0  0  0  0  0  0  0
  -27.2510  -28.6450   20.7590 C   0  0  0  0  0  3  0  0  0  0  0  0
  -26.1250  -26.8700   19.5430 C   0  0  0  0  0  3  0  0  0  0  0  0
  -24.9410  -27.6350   19.5280 C   0  0  0  0  0  3  0  0  0  0  0  0
  -23.6540  -29.7510   20.1770 C   0  0  0  0  0  2  0  0  0  0  0  0
  -24.6800  -31.0260   22.1180 N   0  0  0  0  0  0  0  0  0  0  0  0
  -23.5140  -32.0940   23.7450 O   0  0  0  0  0  0  0  0  0  0  0  0
  -22.7630  -29.4020   22.5040 C   0  0  0  0  0  0  0  0  0  0  0  0
  -21.4400  -29.2120   22.3550 N   0  0  0  0  0  0  0  0  0  0  0  0
  -23.4360  -28.7750   23.3260 O   0  0  0  0  0  0  0  0  0  0  0  0
  -20.9560  -29.7640   21.6600 H   0  0  0  0  0  0  0  0  0  0  0  0
  -18.0700  -27.9870   22.8000 C   0  0  0  0  0  0  0  0  0  0  0  0
  -20.6220  -28.2640   23.1100 C   0  0  0  0  0  3  0  0  0  0  0  0
  -20.7430  -26.8360   22.5290 C   0  0  0  0  0  2  0  0  0  0  0  0
  -19.6600  -26.5100   21.4970 C   0  0  0  0  0  2  0  0  0  0  0  0
  -18.2680  -26.6420   22.1210 C   0  0  0  0  0  2  0  0  0  0  0  0
  -19.1760  -28.7560   23.2510 C   0  0  0  0  0  0  0  0  0  0  0  0
  -18.9380  -30.0160   23.8400 C   0  0  0  0  0  3  0  0  0  0  0  0
  -17.6270  -30.5080   23.9850 C   0  0  0  0  0  3  0  0  0  0  0  0
  -16.5360  -29.7340   23.5520 C   0  0  0  0  0  3  0  0  0  0  0  0
  -16.7580  -28.4760   22.9670 C   0  0  0  0  0  3  0  0  0  0  0  0
  -25.8800  -32.4560   23.8620 C   0  0  0  0  0  3  0  0  0  0  0  0
  -25.5620  -33.8530   24.1910 N   0  0  0  0  0  0  0  0  0  0  0  0
  -25.8990  -34.9070   23.4380 C   0  0  0  0  0  0  0  0  0  0  0  0
  -26.5790  -34.8090   22.4140 O   0  0  0  0  0  0  0  0  0  0  0  0
  -24.9500  -34.0040   24.9800 H   0  0  0  0  0  0  0  0  0  0  0  0
  -24.1640  -36.6890   23.0750 C   0  0  0  0  0  1  0  0  0  0  0  0
  -25.4010  -36.2910   23.8950 C   0  0  0  0  0  3  0  0  0  0  0  0
  -27.5220  -37.1830   24.7460 C   0  0  0  0  0  1  0  0  0  0  0  0
  -26.4280  -37.3490   23.7940 N   0  0  0  0  0  0  0  0  0  0  0  0
  -26.0170  -38.2660   23.9410 H   0  0  0  0  0  0  0  0  0  0  0  0
  -26.3840  -31.6840   25.1430 C   0  0  1  0  0  0  0  0  0  0  0  0
  -25.2710  -31.4410   26.1910 C   0  0  0  0  0  1  0  0  0  0  0  0
  -26.9780  -30.3090   24.7610 C   0  0  0  0  0  1  0  0  0  0  0  0
  -27.5240  -32.4810   25.8190 C   0  0  0  0  0  1  0  0  0  0  0  0
  1  5  1  0
  2  1  2  0
  2  3  1  0
  3  8  1  0
  3  4  2  0
  5  4  1  0
  5 51  1  0
  6  7  1  0
  7  2  1  0
  8  9  1  0
 11 10  1  0
 11  9  1  0
 11 14  1  0
 11 12  1  6
 14 13  1  0
 15 14  1  0
 16 21  1  0
 17 18  1  0
 17 16  1  0
 19 18  1  0
 19 26  1  0
 19 20  1  0
 21 15  1  0
 21 20  1  0
 22 15  2  0
 23 24  2  0
 24 43  1  0
 25 24  1  0
 25 28  1  0
 26 27  1  0
 26 23  1  0
 27 25  2  0
 28 29  1  0
 29 30  2  0
 31 34  1  0
 31 30  1  0
 32 31  2  0
 33 32  1  0
 33 28  2  0
 34 35  1  0
 35 36  1  0
 36 37  2  0
 38 37  1  0
 38 42  1  0
 39 38  2  0
 40 35  2  0
 40 39  1  0
 41 40  1  0
 43 44  1  0
 44 47  1  0
 44 46  1  0
 45 43  2  0
 48 49  1  0
 48 23  1  0
 50 48  1  0
 52 53  1  0
 52 51  1  0
 54 65  2  0
 55 53  1  0
 55 60  1  0
 56 64  1  0
 56 66  1  0
 57 63  1  0
 57 59  1  0
 58 64  1  0
 59 60  2  0
 59 58  1  0
 61 55  2  0
 62 61  1  0
 62 57  2  0
 63 56  1  0
 64 54  1  0
 66 68  2  0
 67 66  1  0
 69 67  1  0
 70 79  2  0
 70 75  1  0
 71 67  1  0
 71 75  1  0
 72 71  1  0
 73 74  1  0
 73 72  1  0
 74 70  1  0
 75 76  2  0
 76 77  1  0
 78 77  2  0
 79 78  1  0
 80 54  1  0
 80 81  1  0
 80 90  1  0
 81 84  1  0
 82 86  1  0
 82 81  1  0
 83 82  2  0
 86 85  1  0
 88 86  1  0
 88 89  1  0
 88 87  1  0
 90 93  1  1
 90 91  1  0
 92 90  1  0
M  ISO  4  14 100  15 100  52 101  53 101
M  END
>  <TORSDO>  (65) 
F 23

>  <SCORE>  (65) 
-12.400

>  <name>  (65) 
64

>  <ligand_id>  (65) 
64

>  <original_smiles>  (65) 
[H]c1c([H])c([H])c2c(c1[H])C([H])([H])C([H])([H])C([H])([H])C2([H])N([H])C(=O)C1([H])N(C(=O)C([H])(N([H])C(=O)C([H])(N([H])C([H])([H])[H])C([H])([H])[H])C(C([H])([H])[H])(C([H])([H])[H])C([H])([H])[H])C([H])([H])c2c([H])c(OC([H])([H])C([H])([H])n3nc(C([H])([H])C([H])([H])[N+]([H])(C([H])([H])[H])C([H])(C(=O)N4C([H])([H])C([H])([H])C([H])([H])C([H])(n5nc(-c6c([H])c([H])c(Oc7c([H])c([H])c(F)c([H])c7F)c([H])c6[H])c(C(=O)N([H])[H])c5N([H])[H])C4([H])[H])C([H])([H])[H])c(C([H])([H])C([H])([H])[H])c3[H])c([H])c([H])c2C1([H])[H]

>  <smiles>  (65) 
[H]c1c([H])c([H])c2c(c1[H])C([H])([H])C([H])([H])C([H])([H])C2([H])N([H])C(=O)C1([H])N(C(=O)C([H])(N([H])C(=O)C([H])(N([H])C([H])([H])[H])C([H])([H])[H])C(C([H])([H])[H])(C([H])([H])[H])C([H])([H])[H])C([H])([H])c2c([H])c(OC([H])([H])C([H])([H])n3nc(C([H])([H])C([H])([H])[N+]([H])(C([H])([H])[H])C([H])(C(=O)N4C([H])([H])C([H])([H])C([H])([H])C([H])(n5nc(-c6c([H])c([H])c(Oc7c([H])c([H])c(F)c([H])c7F)c([H])c6[H])c(C(=O)N([H])[H])c5N([H])[H])C4([H])[H])C([H])([H])[H])c(C([H])([H])C([H])([H])[H])c3[H])c([H])c([H])c2C1([H])[H]

$$$$
65:0:0
     RDKit          3D

 89 97  0  0  1  0  0  0  0  0999 V2000
  -29.2390  -22.1080   17.9910 C   0  0  0  0  0  0  0  0  0  0  0  0
  -29.1300  -20.7440   19.7970 C   0  0  0  0  0  0  0  0  0  0  0  0
  -28.6580  -23.1420   19.9110 C   0  0  0  0  0  0  0  0  0  0  0  0
  -29.5230  -22.2520   16.5080 C   0  0  0  0  0  1  0  0  0  0  0  0
  -29.3490  -20.8710   18.4920 N   0  0  0  0  0  4  0  0  0  0  0  0
  -28.9160  -23.2460   18.6120 N   0  0  0  0  0  0  0  0  0  0  0  0
  -28.7450  -21.8770   20.5370 N   0  0  0  0  0  2  0  0  0  0  0  0
  -29.1130  -19.1530   20.3480 C   0  0  0  0  0  3  0  0  0  0  0  0
  -30.0540  -17.7800   19.8690 C   0  0  0  0  0  3  0  0  0  0  0  0
  -30.5630  -15.0070   19.9900 C   0  0  0  0  0  0  0  0  0  0  0  0
  -30.3960  -12.6700   18.9580 C   0  0  0  0  0  2  0  0  0  0  0  0
  -29.3940  -12.6530   17.7790 C   0  0  0  0  0  2  0  0  0  0  0  0
  -27.9560  -12.4230   18.2870 C   0  0  0  0  0  2  0  0  0  0  0  0
  -27.6230  -13.2960   19.5280 C   0  0  0  0  0  3  0  0  0  0  0  0
  -28.7430  -13.2140   20.5830 C   0  0  0  0  0  2  0  0  0  0  0  0
  -29.9660  -13.7280   19.9360 N   0  0  0  0  0  0  0  0  0  0  0  0
  -31.7070  -15.0600   19.5180 O   0  0  0  0  0  0  0  0  0  0  0  0
  -29.0890  -16.2370   21.5750 C   0  0  0  0  0  1  0  0  0  0  0  0
  -29.8480  -16.2380   20.3230 N   0  0  0  0  0  0  0  0  0  0  0  0
  -25.2870  -13.8720   20.4030 C   0  0  0  0  0  0  0  0  0  0  0  0
  -24.2430  -13.0990   20.8250 C   0  0  0  0  0  0  0  0  0  0  0  0
  -24.6960  -11.7450   20.7470 C   0  0  0  0  0  0  0  0  0  0  0  0
  -26.3120  -12.9940   20.0910 N   0  0  0  0  0  0  0  0  0  0  0  0
  -25.9670  -11.7070   20.3610 N   0  0  0  0  0  0  0  0  0  0  0  0
  -23.9720  -10.4850   20.9580 C   0  0  0  0  0  0  0  0  0  0  0  0
  -24.4300   -9.5120   21.8720 C   0  0  0  0  0  3  0  0  0  0  0  0
  -23.7030   -8.3180   22.0710 C   0  0  0  0  0  3  0  0  0  0  0  0
  -22.5040   -8.0880   21.3540 C   0  0  0  0  0  0  0  0  0  0  0  0
  -22.0630   -9.0540   20.4310 C   0  0  0  0  0  3  0  0  0  0  0  0
  -22.7910  -10.2380   20.2290 C   0  0  0  0  0  3  0  0  0  0  0  0
  -21.7500   -6.9440   21.4610 O   0  0  0  0  0  0  0  0  0  0  0  0
  -21.7170   -6.2100   22.6190 C   0  0  0  0  0  0  0  0  0  0  0  0
  -21.3210   -6.7770   23.8490 C   0  0  0  0  0  3  0  0  0  0  0  0
  -21.2350   -5.9700   25.0010 C   0  0  0  0  0  3  0  0  0  0  0  0
  -21.5360   -4.5970   24.9240 C   0  0  0  0  0  0  0  0  0  0  0  0
  -21.9290   -4.0300   23.7000 C   0  0  0  0  0  3  0  0  0  0  0  0
  -22.0160   -4.8340   22.5500 C   0  0  0  0  0  0  0  0  0  0  0  0
  -22.3710   -4.2780   21.3670 F   0  0  0  0  0  0  0  0  0  0  0  0
  -21.4480   -3.8200   26.0310 F   0  0  0  0  0  0  0  0  0  0  0  0
  -22.8670  -13.5790   21.1820 C   0  0  0  0  0  0  0  0  0  0  0  0
  -22.1830  -12.8810   22.0800 N   0  0  0  0  0  0  0  0  0  0  0  0
  -22.4100  -14.6140   20.6970 O   0  0  0  0  0  0  0  0  0  0  0  0
  -22.5700  -12.0480   22.4990 H   0  0  0  0  0  0  0  0  0  0  0  0
  -21.2600  -13.1880   22.3540 H   0  0  0  0  0  0  0  0  0  0  0  0
  -25.4400  -15.2460   20.2340 N   0  0  0  0  0  0  0  0  0  0  0  0
  -24.6720  -15.8900   20.3900 H   0  0  0  0  0  0  0  0  0  0  0  0
  -26.2500  -15.6910   19.8190 H   0  0  0  0  0  0  0  0  0  0  0  0
  -28.1020  -24.5540   20.6280 C   0  0  0  0  0  2  0  0  0  0  0  0
  -28.3790  -26.0590   20.2260 O   0  0  0  0  0  0  0  0  0  0  0  0
  -24.6520  -31.8000   23.1640 C   0  0  0  0  0  0  0  0  0  0  0  0
  -27.3310  -27.0650   20.2070 C   0  0  0  0  0  0  0  0  0  0  0  0
  -23.5060  -30.3930   21.5010 C   0  0  0  0  0  3  0  0  0  0  0  0
  -24.9990  -28.8160   20.1270 C   0  0  0  0  0  0  0  0  0  0  0  0
  -26.0670  -30.6590   21.4060 C   0  0  0  0  0  2  0  0  0  0  0  0
  -26.1670  -29.2660   20.7540 C   0  0  0  0  0  0  0  0  0  0  0  0
  -27.3440  -28.4130   20.7650 C   0  0  0  0  0  3  0  0  0  0  0  0
  -26.1380  -26.7240   19.5450 C   0  0  0  0  0  3  0  0  0  0  0  0
  -24.9960  -27.5580   19.5100 C   0  0  0  0  0  3  0  0  0  0  0  0
  -23.7700  -29.7160   20.1330 C   0  0  0  0  0  2  0  0  0  0  0  0
  -24.7620  -30.9710   22.0790 N   0  0  0  0  0  0  0  0  0  0  0  0
  -23.5520  -32.0860   23.6600 O   0  0  0  0  0  0  0  0  0  0  0  0
  -22.8040  -29.3850   22.4480 C   0  0  0  0  0  0  0  0  0  0  0  0
  -21.4790  -29.2220   22.2990 N   0  0  0  0  0  0  0  0  0  0  0  0
  -23.4580  -28.7500   23.2780 O   0  0  0  0  0  0  0  0  0  0  0  0
  -21.0090  -29.7900   21.6080 H   0  0  0  0  0  0  0  0  0  0  0  0
  -18.0830  -28.0340   22.7400 C   0  0  0  0  0  0  0  0  0  0  0  0
  -20.6380  -28.2860   23.0530 C   0  0  0  0  0  3  0  0  0  0  0  0
  -20.7430  -26.8540   22.4760 C   0  0  0  0  0  2  0  0  0  0  0  0
  -19.6570  -26.5370   21.4440 C   0  0  0  0  0  2  0  0  0  0  0  0
  -18.2660  -26.6860   22.0630 C   0  0  0  0  0  2  0  0  0  0  0  0
  -19.1960  -28.7930   23.1900 C   0  0  0  0  0  0  0  0  0  0  0  0
  -18.9700  -30.0550   23.7800 C   0  0  0  0  0  3  0  0  0  0  0  0
  -17.6610  -30.5570   23.9250 C   0  0  0  0  0  3  0  0  0  0  0  0
  -16.5640  -29.7940   23.4950 C   0  0  0  0  0  3  0  0  0  0  0  0
  -16.7750  -28.5350   22.9040 C   0  0  0  0  0  3  0  0  0  0  0  0
  -25.9090  -32.4480   23.8200 C   0  0  0  0  0  3  0  0  0  0  0  0
  -26.3900  -31.6870   25.1180 C   0  0  1  0  0  0  0  0  0  0  0  0
  -25.2690  -31.4470   26.1560 C   0  0  0  0  0  1  0  0  0  0  0  0
  -26.9890  -30.3100   24.7530 C   0  0  0  0  0  1  0  0  0  0  0  0
  -27.5170  -32.4950   25.8050 C   0  0  0  0  0  1  0  0  0  0  0  0
  -25.5790  -33.8440   24.1420 N   0  0  0  0  0  0  0  0  0  0  0  0
  -25.9180  -34.9070   23.3990 C   0  0  0  0  0  0  0  0  0  0  0  0
  -26.6080  -34.8120   22.3800 O   0  0  0  0  0  0  0  0  0  0  0  0
  -24.9720  -33.9890   24.9320 H   0  0  0  0  0  0  0  0  0  0  0  0
  -24.1810  -36.6910   23.0260 C   0  0  0  0  0  1  0  0  0  0  0  0
  -25.4110  -36.2870   23.8540 C   0  0  0  0  0  3  0  0  0  0  0  0
  -27.5240  -37.1870   24.7220 C   0  0  0  0  0  1  0  0  0  0  0  0
  -26.4330  -37.3530   23.7670 N   0  0  0  0  0  0  0  0  0  0  0  0
  -26.0120  -38.2630   23.9300 H   0  0  0  0  0  0  0  0  0  0  0  0
  1  5  2  0
  1  6  1  0
  2  8  1  0
  2  7  1  0
  3  7  1  0
  3 48  1  0
  4  1  1  0
  5  2  2  0
  6  3  2  0
  9 19  1  0
  9  8  2  0
 10 19  1  0
 11 16  1  0
 12 13  1  0
 12 11  1  0
 14 13  1  0
 14 23  1  0
 14 15  1  0
 16 10  1  0
 16 15  1  0
 17 10  2  0
 19 18  1  0
 20 21  2  0
 21 40  1  0
 22 21  1  0
 22 25  1  0
 23 24  1  0
 23 20  1  0
 24 22  2  0
 25 26  1  0
 26 27  2  0
 28 31  1  0
 28 27  1  0
 29 28  2  0
 30 29  1  0
 30 25  2  0
 31 32  1  0
 32 33  1  0
 33 34  2  0
 35 34  1  0
 35 39  1  0
 36 35  2  0
 37 32  2  0
 37 36  1  0
 38 37  1  0
 40 41  1  0
 41 44  1  0
 41 43  1  0
 42 40  2  0
 45 46  1  0
 45 20  1  0
 47 45  1  0
 49 48  1  0
 50 61  2  0
 51 49  1  0
 51 56  1  0
 52 60  1  0
 52 62  1  0
 53 59  1  0
 53 55  1  0
 54 60  1  0
 55 56  2  0
 55 54  1  0
 57 51  2  0
 58 57  1  0
 58 53  2  0
 59 52  1  0
 60 50  1  0
 62 64  2  0
 63 62  1  0
 65 63  1  0
 66 75  2  0
 66 71  1  0
 67 63  1  0
 67 71  1  0
 68 67  1  0
 69 70  1  0
 69 68  1  0
 70 66  1  0
 71 72  2  0
 72 73  1  0
 74 73  2  0
 75 74  1  0
 76 50  1  0
 76 81  1  0
 76 77  1  0
 77 80  1  1
 77 78  1  0
 79 77  1  0
 81 84  1  0
 82 86  1  0
 82 81  1  0
 83 82  2  0
 86 85  1  0
 88 86  1  0
 88 89  1  0
 88 87  1  0
M  ISO  4  10 100  19 100  48 101  49 101
M  END
>  <TORSDO>  (66) 
F 19

>  <SCORE>  (66) 
-14.310

>  <name>  (66) 
65

>  <ligand_id>  (66) 
65

>  <original_smiles>  (66) 
[H]c1c([H])c([H])c2c(c1[H])C([H])([H])C([H])([H])C([H])([H])C2([H])N([H])C(=O)C1([H])N(C(=O)C([H])(N([H])C(=O)C([H])(N([H])C([H])([H])[H])C([H])([H])[H])C(C([H])([H])[H])(C([H])([H])[H])C([H])([H])[H])C([H])([H])c2c([H])c(OC([H])([H])c3nc(C([H])([H])[H])nc(C([H])([H])C([H])([H])N(C(=O)N4C([H])([H])C([H])([H])C([H])([H])C([H])(n5nc(-c6c([H])c([H])c(Oc7c([H])c([H])c(F)c([H])c7F)c([H])c6[H])c(C(=O)N([H])[H])c5N([H])[H])C4([H])[H])C([H])([H])[H])n3)c([H])c([H])c2C1([H])[H]

>  <smiles>  (66) 
[H]c1c([H])c([H])c2c(c1[H])C([H])([H])C([H])([H])C([H])([H])C2([H])N([H])C(=O)C1([H])N(C(=O)C([H])(N([H])C(=O)C([H])(N([H])C([H])([H])[H])C([H])([H])[H])C(C([H])([H])[H])(C([H])([H])[H])C([H])([H])[H])C([H])([H])c2c([H])c(OC([H])([H])c3nc(C([H])([H])[H])nc(C([H])([H])C([H])([H])N(C(=O)N4C([H])([H])C([H])([H])C([H])([H])C([H])(n5nc(-c6c([H])c([H])c(Oc7c([H])c([H])c(F)c([H])c7F)c([H])c6[H])c(C(=O)N([H])[H])c5N([H])[H])C4([H])[H])C([H])([H])[H])n3)c([H])c([H])c2C1([H])[H]

$$$$
66:0:0
     RDKit          3D

 91 99  0  0  1  0  0  0  0  0999 V2000
  -31.1360  -22.4530   19.5140 C   0  0  0  0  0  0  0  0  0  0  0  0
  -29.0890  -23.2350   20.0700 C   0  0  0  0  0  0  0  0  0  0  0  0
  -29.6440  -20.8640   20.0880 C   0  0  0  0  0  0  0  0  0  0  0  0
  -32.5420  -22.7640   19.0370 C   0  0  0  0  0  1  0  0  0  0  0  0
  -30.3260  -23.5080   19.6610 N   0  0  0  0  0  4  0  0  0  0  0  0
  -30.8790  -21.1550   19.7100 N   0  0  0  0  0  0  0  0  0  0  0  0
  -28.7190  -21.8990   20.2980 N   0  0  0  0  0  2  0  0  0  0  0  0
  -27.8710  -19.0100   20.0100 C   0  0  0  0  0  1  0  0  0  0  0  0
  -29.4620  -19.0710   21.9130 C   0  0  0  0  0  1  0  0  0  0  0  0
  -29.3470  -19.2360   20.3870 C   0  0  2  0  0  0  0  0  0  0  0  0
  -30.2930  -17.9240   19.7620 C   0  0  0  0  0  2  0  0  0  0  0  0
  -30.6660  -15.1260   19.7680 C   0  0  0  0  0  0  0  0  0  0  0  0
  -30.5070  -12.7150   18.9340 C   0  0  0  0  0  2  0  0  0  0  0  0
  -29.4900  -12.5640   17.7790 C   0  0  0  0  0  2  0  0  0  0  0  0
  -28.0630  -12.3570   18.3250 C   0  0  0  0  0  2  0  0  0  0  0  0
  -27.7220  -13.3070   19.5010 C   0  0  0  0  0  3  0  0  0  0  0  0
  -28.8660  -13.4390   20.5310 C   0  0  0  0  0  2  0  0  0  0  0  0
  -30.0640  -13.8570   19.7880 N   0  0  0  0  0  0  0  0  0  0  0  0
  -31.8930  -15.1320   19.6110 O   0  0  0  0  0  0  0  0  0  0  0  0
  -28.9650  -16.3110   18.5030 C   0  0  0  0  0  1  0  0  0  0  0  0
  -29.8970  -16.3600   19.6470 N   0  0  0  0  0  0  0  0  0  0  0  0
  -25.4410  -13.9160   20.4690 C   0  0  0  0  0  0  0  0  0  0  0  0
  -24.3880  -13.1500   20.8840 C   0  0  0  0  0  0  0  0  0  0  0  0
  -24.8180  -11.7920   20.7660 C   0  0  0  0  0  0  0  0  0  0  0  0
  -26.4370  -13.0200   20.1130 N   0  0  0  0  0  0  0  0  0  0  0  0
  -26.0790  -11.7370   20.3580 N   0  0  0  0  0  0  0  0  0  0  0  0
  -24.0800  -10.5390   20.9600 C   0  0  0  0  0  0  0  0  0  0  0  0
  -24.5070   -9.5680   21.8910 C   0  0  0  0  0  3  0  0  0  0  0  0
  -23.7680   -8.3790   22.0730 C   0  0  0  0  0  3  0  0  0  0  0  0
  -22.5890   -8.1560   21.3240 C   0  0  0  0  0  0  0  0  0  0  0  0
  -22.1820   -9.1160   20.3800 C   0  0  0  0  0  3  0  0  0  0  0  0
  -22.9220  -10.2940   20.1950 C   0  0  0  0  0  3  0  0  0  0  0  0
  -21.8210   -7.0200   21.4170 O   0  0  0  0  0  0  0  0  0  0  0  0
  -21.6990   -6.3300   22.5960 C   0  0  0  0  0  0  0  0  0  0  0  0
  -21.1690   -6.9290   23.7600 C   0  0  0  0  0  3  0  0  0  0  0  0
  -20.9970   -6.1650   24.9290 C   0  0  0  0  0  3  0  0  0  0  0  0
  -21.3460   -4.8010   24.9370 C   0  0  0  0  0  0  0  0  0  0  0  0
  -21.8700   -4.2000   23.7790 C   0  0  0  0  0  3  0  0  0  0  0  0
  -22.0440   -4.9630   22.6100 C   0  0  0  0  0  0  0  0  0  0  0  0
  -22.5290   -4.3750   21.4900 F   0  0  0  0  0  0  0  0  0  0  0  0
  -21.1730   -4.0630   26.0590 F   0  0  0  0  0  0  0  0  0  0  0  0
  -23.0290  -13.6460   21.2790 C   0  0  0  0  0  0  0  0  0  0  0  0
  -22.3550  -12.9290   22.1720 N   0  0  0  0  0  0  0  0  0  0  0  0
  -22.5770  -14.7010   20.8350 O   0  0  0  0  0  0  0  0  0  0  0  0
  -22.7330  -12.0710   22.5430 H   0  0  0  0  0  0  0  0  0  0  0  0
  -21.4490  -13.2430   22.4890 H   0  0  0  0  0  0  0  0  0  0  0  0
  -25.6270  -15.2890   20.3330 N   0  0  0  0  0  0  0  0  0  0  0  0
  -24.8960  -15.9610   20.5340 H   0  0  0  0  0  0  0  0  0  0  0  0
  -26.4790  -15.7160   19.9950 H   0  0  0  0  0  0  0  0  0  0  0  0
  -28.0330  -24.5350   20.1390 C   0  0  0  0  0  2  0  0  0  0  0  0
  -28.3330  -26.0900   20.2070 O   0  0  0  0  0  0  0  0  0  0  0  0
  -24.5120  -31.7290   23.2030 C   0  0  0  0  0  0  0  0  0  0  0  0
  -27.2650  -27.0820   20.1550 C   0  0  0  0  0  0  0  0  0  0  0  0
  -23.3840  -30.3320   21.5160 C   0  0  0  0  0  3  0  0  0  0  0  0
  -24.9020  -28.8110   20.1010 C   0  0  0  0  0  0  0  0  0  0  0  0
  -25.9400  -30.6440   21.4210 C   0  0  0  0  0  2  0  0  0  0  0  0
  -26.0620  -29.2610   20.7450 C   0  0  0  0  0  0  0  0  0  0  0  0
  -27.2430  -28.4160   20.7510 C   0  0  0  0  0  3  0  0  0  0  0  0
  -26.0720  -26.7500   19.4710 C   0  0  0  0  0  3  0  0  0  0  0  0
  -24.9240  -27.5720   19.4480 C   0  0  0  0  0  3  0  0  0  0  0  0
  -23.6560  -29.6860   20.1330 C   0  0  0  0  0  2  0  0  0  0  0  0
  -24.6310  -30.9240   22.1020 N   0  0  0  0  0  0  0  0  0  0  0  0
  -23.4060  -31.9810   23.7060 O   0  0  0  0  0  0  0  0  0  0  0  0
  -22.7030  -29.2950   22.4450 C   0  0  0  0  0  0  0  0  0  0  0  0
  -21.3820  -29.0990   22.2850 N   0  0  0  0  0  0  0  0  0  0  0  0
  -23.3670  -28.6700   23.2750 O   0  0  0  0  0  0  0  0  0  0  0  0
  -20.9000  -29.6550   21.5930 H   0  0  0  0  0  0  0  0  0  0  0  0
  -18.0130  -27.8290   22.7010 C   0  0  0  0  0  0  0  0  0  0  0  0
  -20.5630  -28.1340   23.0230 C   0  0  0  0  0  3  0  0  0  0  0  0
  -20.7010  -26.7150   22.4240 C   0  0  0  0  0  2  0  0  0  0  0  0
  -19.6250  -26.3910   21.3830 C   0  0  0  0  0  2  0  0  0  0  0  0
  -18.2280  -26.4970   22.0010 C   0  0  0  0  0  2  0  0  0  0  0  0
  -19.1100  -28.6040   23.1670 C   0  0  0  0  0  0  0  0  0  0  0  0
  -18.8540  -29.8490   23.7810 C   0  0  0  0  0  3  0  0  0  0  0  0
  -17.5350  -30.3200   23.9340 C   0  0  0  0  0  3  0  0  0  0  0  0
  -16.4540  -29.5430   23.4830 C   0  0  0  0  0  3  0  0  0  0  0  0
  -16.6940  -28.2990   22.8740 C   0  0  0  0  0  3  0  0  0  0  0  0
  -25.7590  -32.3830   23.8720 C   0  0  0  0  0  3  0  0  0  0  0  0
  -26.2510  -31.6110   25.1570 C   0  0  1  0  0  0  0  0  0  0  0  0
  -25.1290  -31.3370   26.1870 C   0  0  0  0  0  1  0  0  0  0  0  0
  -26.8760  -30.2490   24.7770 C   0  0  0  0  0  1  0  0  0  0  0  0
  -27.3590  -32.4260   25.8630 C   0  0  0  0  0  1  0  0  0  0  0  0
  -25.4090  -33.7720   24.2120 N   0  0  0  0  0  0  0  0  0  0  0  0
  -25.7200  -34.8420   23.4690 C   0  0  0  0  0  0  0  0  0  0  0  0
  -26.3970  -34.7670   22.4400 O   0  0  0  0  0  0  0  0  0  0  0  0
  -24.8090  -33.9060   25.0130 H   0  0  0  0  0  0  0  0  0  0  0  0
  -23.9430  -36.5940   23.1430 C   0  0  0  0  0  1  0  0  0  0  0  0
  -25.2000  -36.2140   23.9420 C   0  0  0  0  0  3  0  0  0  0  0  0
  -27.3070  -37.1570   24.7780 C   0  0  0  0  0  1  0  0  0  0  0  0
  -26.2030  -37.2950   23.8320 N   0  0  0  0  0  0  0  0  0  0  0  0
  -25.7710  -38.2020   23.9810 H   0  0  0  0  0  0  0  0  0  0  0  0
  1  5  2  0
  1  6  1  0
  2 50  1  0
  2  7  1  0
  3  7  1  0
  3 10  1  0
  4  1  1  0
  5  2  2  0
  6  3  2  0
 10  8  1  6
 10  9  1  0
 11 10  1  0
 12 18  1  0
 13 18  1  0
 14 15  1  0
 14 13  1  0
 16 15  1  0
 16 25  1  0
 16 17  1  0
 18 17  1  0
 19 12  2  0
 20 21  1  0
 21 11  1  0
 21 12  1  0
 22 23  2  0
 23 42  1  0
 24 23  1  0
 24 27  1  0
 25 26  1  0
 25 22  1  0
 26 24  2  0
 27 28  1  0
 28 29  2  0
 30 33  1  0
 30 29  1  0
 31 30  2  0
 32 31  1  0
 32 27  2  0
 33 34  1  0
 34 39  2  0
 34 35  1  0
 35 36  2  0
 36 37  1  0
 37 41  1  0
 38 37  2  0
 39 38  1  0
 40 39  1  0
 42 43  1  0
 43 46  1  0
 43 45  1  0
 44 42  2  0
 47 22  1  0
 47 48  1  0
 49 47  1  0
 50 51  1  0
 52 63  2  0
 53 51  1  0
 53 58  1  0
 54 62  1  0
 54 64  1  0
 55 61  1  0
 55 57  1  0
 56 62  1  0
 57 58  2  0
 57 56  1  0
 59 53  2  0
 60 59  1  0
 60 55  2  0
 61 54  1  0
 62 52  1  0
 64 66  2  0
 65 64  1  0
 67 65  1  0
 68 77  2  0
 68 73  1  0
 69 65  1  0
 69 73  1  0
 70 69  1  0
 71 72  1  0
 71 70  1  0
 72 68  1  0
 73 74  2  0
 74 75  1  0
 76 75  2  0
 77 76  1  0
 78 52  1  0
 78 83  1  0
 78 79  1  0
 79 82  1  1
 79 80  1  0
 81 79  1  0
 83 86  1  0
 84 88  1  0
 84 83  1  0
 85 84  2  0
 88 87  1  0
 90 88  1  0
 90 91  1  0
 90 89  1  0
M  ISO  4  12 100  21 100  50 101  51 101
M  END
>  <TORSDO>  (67) 
F 19

>  <SCORE>  (67) 
-13.131

>  <name>  (67) 
66

>  <ligand_id>  (67) 
66

>  <original_smiles>  (67) 
[H]c1c([H])c([H])c2c(c1[H])C([H])([H])C([H])([H])C([H])([H])C2([H])N([H])C(=O)C1([H])N(C(=O)C([H])(N([H])C(=O)C([H])(N([H])C([H])([H])[H])C([H])([H])[H])C(C([H])([H])[H])(C([H])([H])[H])C([H])([H])[H])C([H])([H])c2c([H])c(OC([H])([H])c3nc(C([H])([H])[H])nc(C(C([H])([H])[H])(C([H])([H])[H])C([H])([H])N(C(=O)N4C([H])([H])C([H])([H])C([H])([H])C([H])(n5nc(-c6c([H])c([H])c(Oc7c([H])c([H])c(F)c([H])c7F)c([H])c6[H])c(C(=O)N([H])[H])c5N([H])[H])C4([H])[H])C([H])([H])[H])n3)c([H])c([H])c2C1([H])[H]

>  <smiles>  (67) 
[H]c1c([H])c([H])c2c(c1[H])C([H])([H])C([H])([H])C([H])([H])C2([H])N([H])C(=O)C1([H])N(C(=O)C([H])(N([H])C(=O)C([H])(N([H])C([H])([H])[H])C([H])([H])[H])C(C([H])([H])[H])(C([H])([H])[H])C([H])([H])[H])C([H])([H])c2c([H])c(OC([H])([H])c3nc(C([H])([H])[H])nc(C(C([H])([H])[H])(C([H])([H])[H])C([H])([H])N(C(=O)N4C([H])([H])C([H])([H])C([H])([H])C([H])(n5nc(-c6c([H])c([H])c(Oc7c([H])c([H])c(F)c([H])c7F)c([H])c6[H])c(C(=O)N([H])[H])c5N([H])[H])C4([H])[H])C([H])([H])[H])n3)c([H])c([H])c2C1([H])[H]

$$$$
67:0:0
     RDKit          3D

 94102  0  0  1  0  0  0  0  0999 V2000
  -28.7200  -22.4650   20.4260 C   0  0  0  0  0  3  0  0  0  0  0  0
  -31.3610  -22.9720   20.7790 C   0  0  0  0  0  3  0  0  0  0  0  0
  -29.1000  -23.8500   20.5890 C   0  0  0  0  0  0  0  0  0  0  0  0
  -30.4800  -24.0790   20.7700 C   0  0  0  0  0  0  0  0  0  0  0  0
  -29.6760  -21.3860   20.4520 C   0  0  0  0  0  0  0  0  0  0  0  0
  -30.9840  -21.6720   20.6410 N   0  0  0  0  0  0  0  0  0  0  0  0
  -30.9640  -25.3330   20.9510 F   0  0  0  0  0  0  0  0  0  0  0  0
  -28.0280  -25.0100   20.6380 C   0  0  0  0  0  2  0  0  0  0  0  0
  -28.3570  -26.4470   20.3850 O   0  0  0  0  0  0  0  0  0  0  0  0
  -24.5910  -31.9150   23.2660 C   0  0  0  0  0  0  0  0  0  0  0  0
  -27.2550  -27.3210   20.3010 C   0  0  0  0  0  0  0  0  0  0  0  0
  -23.4090  -30.4810   21.6410 C   0  0  0  0  0  3  0  0  0  0  0  0
  -24.8820  -28.9280   20.2420 C   0  0  0  0  0  0  0  0  0  0  0  0
  -25.9480  -30.8150   21.4690 C   0  0  0  0  0  2  0  0  0  0  0  0
  -26.0450  -29.4280   20.8430 C   0  0  0  0  0  0  0  0  0  0  0  0
  -27.2350  -28.6390   20.8610 C   0  0  0  0  0  3  0  0  0  0  0  0
  -26.0750  -26.8930   19.6460 C   0  0  0  0  0  3  0  0  0  0  0  0
  -24.9020  -27.6700   19.6300 C   0  0  0  0  0  3  0  0  0  0  0  0
  -23.6370  -29.7930   20.2700 C   0  0  0  0  0  2  0  0  0  0  0  0
  -24.6680  -31.0890   22.1820 N   0  0  0  0  0  0  0  0  0  0  0  0
  -23.5020  -32.1920   23.7890 O   0  0  0  0  0  0  0  0  0  0  0  0
  -22.7500  -29.4730   22.6110 C   0  0  0  0  0  0  0  0  0  0  0  0
  -21.4290  -29.2660   22.4620 N   0  0  0  0  0  0  0  0  0  0  0  0
  -23.4280  -28.8800   23.4550 O   0  0  0  0  0  0  0  0  0  0  0  0
  -20.9430  -29.8040   21.7570 H   0  0  0  0  0  0  0  0  0  0  0  0
  -18.0750  -27.9790   22.9010 C   0  0  0  0  0  0  0  0  0  0  0  0
  -20.6120  -28.3300   23.2390 C   0  0  0  0  0  3  0  0  0  0  0  0
  -20.7780  -26.8830   22.7200 C   0  0  0  0  0  2  0  0  0  0  0  0
  -19.7220  -26.4900   21.6830 C   0  0  0  0  0  2  0  0  0  0  0  0
  -18.3160  -26.6130   22.2780 C   0  0  0  0  0  2  0  0  0  0  0  0
  -19.1550  -28.7920   23.3380 C   0  0  0  0  0  0  0  0  0  0  0  0
  -18.8780  -30.0660   23.8770 C   0  0  0  0  0  3  0  0  0  0  0  0
  -17.5550  -30.5330   23.9840 C   0  0  0  0  0  3  0  0  0  0  0  0
  -16.4890  -29.7180   23.5650 C   0  0  0  0  0  3  0  0  0  0  0  0
  -16.7490  -28.4430   23.0300 C   0  0  0  0  0  3  0  0  0  0  0  0
  -25.8660  -32.5670   23.8840 C   0  0  0  0  0  3  0  0  0  0  0  0
  -25.5410  -33.9660   24.1960 N   0  0  0  0  0  0  0  0  0  0  0  0
  -25.8880  -35.0160   23.4380 C   0  0  0  0  0  0  0  0  0  0  0  0
  -26.5840  -34.9090   22.4250 O   0  0  0  0  0  0  0  0  0  0  0  0
  -24.9230  -34.1210   24.9810 H   0  0  0  0  0  0  0  0  0  0  0  0
  -24.1790  -36.8130   23.0090 C   0  0  0  0  0  1  0  0  0  0  0  0
  -25.3840  -36.4060   23.8710 C   0  0  0  0  0  3  0  0  0  0  0  0
  -27.4830  -37.2870   24.7950 C   0  0  0  0  0  1  0  0  0  0  0  0
  -26.4220  -37.4590   23.8040 N   0  0  0  0  0  0  0  0  0  0  0  0
  -26.0070  -38.3780   23.9360 H   0  0  0  0  0  0  0  0  0  0  0  0
  -26.3840  -31.8150   25.1730 C   0  0  1  0  0  0  0  0  0  0  0  0
  -25.2860  -31.5680   26.2350 C   0  0  0  0  0  1  0  0  0  0  0  0
  -26.9930  -30.4440   24.8030 C   0  0  0  0  0  1  0  0  0  0  0  0
  -27.5220  -32.6340   25.8300 C   0  0  0  0  0  1  0  0  0  0  0  0
  -29.2510  -19.8580   20.3340 C   0  0  0  0  0  2  0  0  0  0  0  0
  -30.8560  -19.0640   18.5950 C   0  0  0  0  0  1  0  0  0  0  0  0
  -30.2250  -18.7440   19.9060 N   0  0  2  0  0  4  0  0  0  0  0  0
  -30.9720  -18.7930   20.5840 H   0  0  0  0  0  0  0  0  0  0  0  0
  -28.2020  -17.1590   20.1660 C   0  0  0  0  0  1  0  0  0  0  0  0
  -29.7130  -17.2710   19.8930 C   0  0  0  0  0  3  0  0  0  0  0  0
  -31.9800  -16.6530   20.9430 C   0  0  0  0  0  1  0  0  0  0  0  0
  -30.0290  -15.7760   22.0750 C   0  0  0  0  0  1  0  0  0  0  0  0
  -30.5550  -16.0850   20.6440 C   0  0  1  0  0  0  0  0  0  0  0  0
  -30.7920  -14.7210   19.7840 C   0  0  0  0  0  0  0  0  0  0  0  0
  -30.3460  -12.4920   18.7250 C   0  0  0  0  0  2  0  0  0  0  0  0
  -29.3490  -12.6280   17.5540 C   0  0  0  0  0  2  0  0  0  0  0  0
  -27.9090  -12.4560   18.0660 C   0  0  0  0  0  2  0  0  0  0  0  0
  -27.6330  -13.3300   19.3150 C   0  0  0  0  0  3  0  0  0  0  0  0
  -28.7590  -13.2130   20.3720 C   0  0  0  0  0  2  0  0  0  0  0  0
  -30.0440  -13.5510   19.7320 N   0  0  0  0  0  0  0  0  0  0  0  0
  -31.8020  -14.7540   19.0780 O   0  0  0  0  0  0  0  0  0  0  0  0
  -25.2910  -13.9380   20.1900 C   0  0  0  0  0  0  0  0  0  0  0  0
  -24.2480  -13.1740   20.6310 C   0  0  0  0  0  0  0  0  0  0  0  0
  -24.6930  -11.8180   20.5610 C   0  0  0  0  0  0  0  0  0  0  0  0
  -26.3150  -13.0510   19.8870 N   0  0  0  0  0  0  0  0  0  0  0  0
  -25.9620  -11.7690   20.1680 N   0  0  0  0  0  0  0  0  0  0  0  0
  -23.9650  -10.5640   20.7950 C   0  0  0  0  0  0  0  0  0  0  0  0
  -24.4000   -9.6240   21.7540 C   0  0  0  0  0  3  0  0  0  0  0  0
  -23.6710   -8.4360   21.9720 C   0  0  0  0  0  3  0  0  0  0  0  0
  -22.4920   -8.1790   21.2320 C   0  0  0  0  0  0  0  0  0  0  0  0
  -22.0760   -9.1090   20.2630 C   0  0  0  0  0  3  0  0  0  0  0  0
  -22.8050  -10.2900   20.0430 C   0  0  0  0  0  3  0  0  0  0  0  0
  -21.7340   -7.0410   21.3580 O   0  0  0  0  0  0  0  0  0  0  0  0
  -21.6470   -6.3630   22.5480 C   0  0  0  0  0  0  0  0  0  0  0  0
  -21.1810   -6.9860   23.7280 C   0  0  0  0  0  3  0  0  0  0  0  0
  -21.0410   -6.2350   24.9110 C   0  0  0  0  0  3  0  0  0  0  0  0
  -21.3550   -4.8620   24.9170 C   0  0  0  0  0  0  0  0  0  0  0  0
  -21.8120   -4.2390   23.7410 C   0  0  0  0  0  3  0  0  0  0  0  0
  -21.9540   -4.9880   22.5600 C   0  0  0  0  0  0  0  0  0  0  0  0
  -22.3760   -4.3790   21.4260 F   0  0  0  0  0  0  0  0  0  0  0  0
  -21.2130   -4.1380   26.0520 F   0  0  0  0  0  0  0  0  0  0  0  0
  -22.8790  -13.6670   20.9990 C   0  0  0  0  0  0  0  0  0  0  0  0
  -22.2090  -12.9840   21.9210 N   0  0  0  0  0  0  0  0  0  0  0  0
  -22.4140  -14.6920   20.5040 O   0  0  0  0  0  0  0  0  0  0  0  0
  -22.5990  -12.1540   22.3410 H   0  0  0  0  0  0  0  0  0  0  0  0
  -21.2920  -13.2960   22.2100 H   0  0  0  0  0  0  0  0  0  0  0  0
  -25.4390  -15.3060   19.9980 N   0  0  0  0  0  0  0  0  0  0  0  0
  -24.6710  -15.9500   20.1540 H   0  0  0  0  0  0  0  0  0  0  0  0
  -26.2490  -15.7450   19.5850 H   0  0  0  0  0  0  0  0  0  0  0  0
  1  5  2  0
  1  3  1  0
  3  8  1  0
  3  4  2  0
  4  2  1  0
  4  7  1  0
  5  6  1  0
  6  2  2  0
  9  8  1  0
 10 21  2  0
 11  9  1  0
 11 16  1  0
 12 20  1  0
 12 22  1  0
 13 19  1  0
 13 15  1  0
 14 20  1  0
 15 16  2  0
 15 14  1  0
 17 11  2  0
 18 17  1  0
 18 13  2  0
 19 12  1  0
 20 10  1  0
 22 24  2  0
 23 22  1  0
 25 23  1  0
 26 35  2  0
 26 31  1  0
 27 23  1  0
 27 31  1  0
 28 27  1  0
 29 30  1  0
 29 28  1  0
 30 26  1  0
 31 32  2  0
 32 33  1  0
 34 33  2  0
 35 34  1  0
 36 10  1  0
 36 37  1  0
 36 46  1  0
 37 40  1  0
 38 42  1  0
 38 37  1  0
 39 38  2  0
 42 41  1  0
 44 42  1  0
 44 45  1  0
 44 43  1  0
 46 49  1  1
 46 47  1  0
 48 46  1  0
 50  5  1  0
 51 52  1  0
 52 50  1  0
 52 53  1  1
 55 52  1  0
 55 54  1  0
 55 58  1  0
 58 56  1  1
 58 57  1  0
 59 58  1  0
 60 65  1  0
 61 62  1  0
 61 60  1  0
 63 62  1  0
 63 70  1  0
 63 64  1  0
 65 59  1  0
 65 64  1  0
 66 59  2  0
 67 68  2  0
 68 87  1  0
 69 68  1  0
 69 72  1  0
 70 71  1  0
 70 67  1  0
 71 69  2  0
 72 73  1  0
 73 74  2  0
 75 78  1  0
 75 74  1  0
 76 75  2  0
 77 76  1  0
 77 72  2  0
 78 79  1  0
 79 84  2  0
 79 80  1  0
 80 81  2  0
 81 82  1  0
 82 86  1  0
 83 82  2  0
 84 83  1  0
 85 84  1  0
 87 88  1  0
 88 91  1  0
 88 90  1  0
 89 87  2  0
 92 93  1  0
 92 67  1  0
 94 92  1  0
M  ISO  4   8 101   9 101  58 100  59 100
M  END
>  <TORSDO>  (68) 
F 21

>  <SCORE>  (68) 
-12.797

>  <name>  (68) 
67

>  <ligand_id>  (68) 
67

>  <original_smiles>  (68) 
[H]c1nc(C([H])([H])[N+]([H])(C([H])([H])[H])C([H])(C([H])([H])[H])C(C(=O)N2C([H])([H])C([H])([H])C([H])([H])C([H])(n3nc(-c4c([H])c([H])c(Oc5c([H])c([H])c(F)c([H])c5F)c([H])c4[H])c(C(=O)N([H])[H])c3N([H])[H])C2([H])[H])(C([H])([H])[H])C([H])([H])[H])c([H])c(C([H])([H])Oc2c([H])c([H])c3c(c2[H])C([H])([H])N(C(=O)C([H])(N([H])C(=O)C([H])(N([H])C([H])([H])[H])C([H])([H])[H])C(C([H])([H])[H])(C([H])([H])[H])C([H])([H])[H])C([H])(C(=O)N([H])C2([H])c4c([H])c([H])c([H])c([H])c4C([H])([H])C([H])([H])C2([H])[H])C3([H])[H])c1F

>  <smiles>  (68) 
[H]c1nc(C([H])([H])[N+]([H])(C([H])([H])[H])C([H])(C([H])([H])[H])C(C(=O)N2C([H])([H])C([H])([H])C([H])([H])C([H])(n3nc(-c4c([H])c([H])c(Oc5c([H])c([H])c(F)c([H])c5F)c([H])c4[H])c(C(=O)N([H])[H])c3N([H])[H])C2([H])[H])(C([H])([H])[H])C([H])([H])[H])c([H])c(C([H])([H])Oc2c([H])c([H])c3c(c2[H])C([H])([H])N(C(=O)C([H])(N([H])C(=O)C([H])(N([H])C([H])([H])[H])C([H])([H])[H])C(C([H])([H])[H])(C([H])([H])[H])C([H])([H])[H])C([H])(C(=O)N([H])C2([H])c4c([H])c([H])c([H])c([H])c4C([H])([H])C([H])([H])C2([H])[H])C3([H])[H])c1F

$$$$
68:0:0
     RDKit          3D

 92 93  0  0  1  0  0  0  0  0999 V2000
  -26.3890  -26.7790   18.8860 C   0  0  0  0  0  2  0  0  0  0  0  0
  -27.1040  -24.3790   18.9820 C   0  0  0  0  0  2  0  0  0  0  0  0
  -26.1560  -27.6910   17.7780 C   0  0  0  0  0  1  0  0  0  0  0  0
  -27.4450  -25.3240   16.7310 C   0  0  0  0  0  1  0  0  0  0  0  0
  -26.4380  -25.7450   19.1550 N   0  0  0  0  0  0  0  0  0  0  0  0
  -27.1170  -25.5130   18.1680 N   0  0  0  0  0  0  0  0  0  0  0  0
  -25.9140  -27.3040   21.2650 N   0  0  0  0  0  2  0  0  0  0  0  0
  -25.5420  -28.2270   21.0860 H   0  0  0  0  0  0  0  0  0  0  0  0
  -29.0020  -22.3080   18.0490 C   0  0  0  0  0  1  0  0  0  0  0  0
  -28.0490  -22.2580   19.2490 C   0  0  0  0  0  1  0  0  0  0  0  0
  -28.1440  -19.9590   19.4830 C   0  0  0  0  0 15  0  0  0  0  0  0
  -29.8120  -16.5330   19.8380 C   0  0  0  0  0  0  0  0  0  0  0  0
  -30.2110  -13.8030   19.1840 C   0  0  0  0  0  2  0  0  0  0  0  0
  -29.4320  -12.9150   18.1530 C   0  0  0  0  0  2  0  0  0  0  0  0
  -28.1370  -12.3700   18.7540 C   0  0  0  0  0  2  0  0  0  0  0  0
  -27.5090  -13.4370   19.6620 C   0  0  0  0  0  3  0  0  0  0  0  0
  -28.4940  -14.1530   20.6310 C   0  0  0  0  0  2  0  0  0  0  0  0
  -29.3890  -15.0290   19.7770 N   0  0  0  0  0  0  0  0  0  0  0  0
  -31.0570  -16.2550   19.9170 O   0  0  0  0  0  0  0  0  0  0  0  0
  -30.4160  -18.9150   20.3270 C   0  0  0  0  0  1  0  0  0  0  0  0
  -29.2600  -18.2300   19.7500 N   0  0  0  0  0  2  0  0  0  0  0  0
  -25.2170  -13.9030   20.5660 C   0  0  0  0  0  0  0  0  0  0  0  0
  -24.1770  -13.1080   20.9430 C   0  0  0  0  0  0  0  0  0  0  0  0
  -24.6520  -11.7620   20.8600 C   0  0  0  0  0  0  0  0  0  0  0  0
  -26.2540  -13.0460   20.2710 N   0  0  0  0  0  0  0  0  0  0  0  0
  -25.9360  -11.7450   20.5060 N   0  0  0  0  0  0  0  0  0  0  0  0
  -23.9290  -10.4940   21.0330 C   0  0  0  0  0  0  0  0  0  0  0  0
  -24.3540   -9.5190   21.9600 C   0  0  0  0  0  3  0  0  0  0  0  0
  -23.6220   -8.3240   22.1290 C   0  0  0  0  0  3  0  0  0  0  0  0
  -22.4490   -8.0960   21.3690 C   0  0  0  0  0  0  0  0  0  0  0  0
  -22.0430   -9.0600   20.4300 C   0  0  0  0  0  3  0  0  0  0  0  0
  -22.7760  -10.2470   20.2610 C   0  0  0  0  0  3  0  0  0  0  0  0
  -21.6890   -6.9550   21.4480 O   0  0  0  0  0  0  0  0  0  0  0  0
  -21.6000   -6.2270   22.6070 C   0  0  0  0  0  0  0  0  0  0  0  0
  -21.0960   -6.7860   23.8020 C   0  0  0  0  0  3  0  0  0  0  0  0
  -20.9560   -5.9840   24.9520 C   0  0  0  0  0  3  0  0  0  0  0  0
  -21.3130   -4.6220   24.9080 C   0  0  0  0  0  0  0  0  0  0  0  0
  -21.8120   -4.0630   23.7190 C   0  0  0  0  0  3  0  0  0  0  0  0
  -21.9520   -4.8620   22.5710 C   0  0  0  0  0  0  0  0  0  0  0  0
  -22.4120   -4.3120   21.4220 F   0  0  0  0  0  0  0  0  0  0  0  0
  -21.1730   -3.8490   26.0110 F   0  0  0  0  0  0  0  0  0  0  0  0
  -22.7880  -13.5780   21.2530 C   0  0  0  0  0  0  0  0  0  0  0  0
  -22.0840  -12.8650   22.1220 N   0  0  0  0  0  0  0  0  0  0  0  0
  -22.3420  -14.6140   20.7600 O   0  0  0  0  0  0  0  0  0  0  0  0
  -22.4650  -12.0270   22.5370 H   0  0  0  0  0  0  0  0  0  0  0  0
  -21.1510  -13.1600   22.3770 H   0  0  0  0  0  0  0  0  0  0  0  0
  -25.3630  -15.2780   20.4060 N   0  0  0  0  0  0  0  0  0  0  0  0
  -24.5920  -15.9220   20.5430 H   0  0  0  0  0  0  0  0  0  0  0  0
  -26.1920  -15.7280   20.0390 H   0  0  0  0  0  0  0  0  0  0  0  0
  -26.5540  -27.1860   22.7330 C   0  0  0  0  0  2  0  0  0  0  0  0
  -28.1240  -26.8860   22.8000 C   0  0  0  0  0  2  0  0  0  0  0  0
  -28.6570  -26.2290   21.6200 O   0  0  0  0  0  0  0  0  0  0  0  0
  -24.4920  -31.7090   23.1800 C   0  0  0  0  0  0  0  0  0  0  0  0
  -27.6420  -26.3090   20.8750 C   0  0  0  0  0  1  0  0  0  0  0  0
  -23.2370  -30.2950   21.5560 C   0  0  0  0  0  3  0  0  0  0  0  0
  -24.3330  -28.2860   20.0510 C   0  0  0  0  0  3  0  0  0  0  0  0
  -25.7740  -30.5670   21.0630 C   0  0  0  0  0  2  0  0  0  0  0  0
  -25.9450  -29.1840   20.1030 C   0  0  0  0  0  3  0  0  0  0  0  0
  -27.5730  -28.2070   20.2670 C   0  0  0  0  0  1  0  0  0  0  0  0
  -25.7200  -25.2630   21.3200 C   0  0  0  0  0 15  0  0  0  0  0  0
  -24.1300  -26.3870   20.5150 C   0  0  0  0  0  1  0  0  0  0  0  0
  -23.2710  -29.4220   20.2210 C   0  0  0  0  0  2  0  0  0  0  0  0
  -24.5640  -30.8640   22.0260 N   0  0  0  0  0  0  0  0  0  0  0  0
  -23.4040  -32.0100   23.7100 O   0  0  0  0  0  0  0  0  0  0  0  0
  -22.4810  -29.4650   22.6140 C   0  0  0  0  0  0  0  0  0  0  0  0
  -21.1400  -29.4140   22.5140 N   0  0  0  0  0  0  0  0  0  0  0  0
  -23.1170  -28.8200   23.4490 O   0  0  0  0  0  0  0  0  0  0  0  0
  -20.6880  -30.0000   21.8250 H   0  0  0  0  0  0  0  0  0  0  0  0
  -17.7040  -28.3310   22.9280 C   0  0  0  0  0  0  0  0  0  0  0  0
  -20.2670  -28.4950   23.2460 C   0  0  0  0  0  3  0  0  0  0  0  0
  -20.3210  -27.0740   22.6300 C   0  0  0  0  0  2  0  0  0  0  0  0
  -19.2300  -26.8280   21.5840 C   0  0  0  0  0  2  0  0  0  0  0  0
  -17.8450  -26.9960   22.2140 C   0  0  0  0  0  2  0  0  0  0  0  0
  -18.8400  -29.0420   23.3960 C   0  0  0  0  0  0  0  0  0  0  0  0
  -18.6530  -30.2900   24.0270 C   0  0  0  0  0  3  0  0  0  0  0  0
  -17.3630  -30.8300   24.1900 C   0  0  0  0  0  3  0  0  0  0  0  0
  -16.2410  -30.1150   23.7330 C   0  0  0  0  0  3  0  0  0  0  0  0
  -16.4130  -28.8660   23.1090 C   0  0  0  0  0  3  0  0  0  0  0  0
  -25.7210  -32.3770   23.9400 C   0  0  0  0  0  3  0  0  0  0  0  0
  -26.1270  -31.6590   25.3010 C   0  0  1  0  0  0  0  0  0  0  0  0
  -24.9600  -31.4490   26.3010 C   0  0  0  0  0  1  0  0  0  0  0  0
  -26.7260  -30.2960   24.9680 C   0  0  0  0  0  1  0  0  0  0  0  0
  -27.2320  -32.4390   26.0520 C   0  0  0  0  0  1  0  0  0  0  0  0
  -25.4020  -33.7860   24.2830 N   0  0  0  0  0  0  0  0  0  0  0  0
  -25.8480  -34.8680   23.6290 C   0  0  0  0  0  0  0  0  0  0  0  0
  -26.5810  -34.7760   22.6420 O   0  0  0  0  0  0  0  0  0  0  0  0
  -24.7530  -33.9280   25.0430 H   0  0  0  0  0  0  0  0  0  0  0  0
  -24.2140  -36.7660   23.3040 C   0  0  0  0  0  1  0  0  0  0  0  0
  -25.4140  -36.2650   24.1250 C   0  0  0  0  0  3  0  0  0  0  0  0
  -27.5590  -37.0610   25.0370 C   0  0  0  0  0  1  0  0  0  0  0  0
  -26.4890  -37.2850   24.0690 N   0  0  0  0  0  0  0  0  0  0  0  0
  -26.1090  -38.2140   24.2240 H   0  0  0  0  0  0  0  0  0  0  0  0
  1  5  1  0
  2  5  1  0
  3  1  1  0
  4  6  1  0
  6  2  1  0
  6  5  1  0
  7 50  1  0
  8  7  1  0
  9 10  1  0
 12 19  2  0
 13 18  1  0
 14 15  1  0
 14 13  1  0
 16 15  1  0
 16 25  1  0
 16 17  1  0
 18 12  1  0
 18 17  1  0
 21 12  1  0
 21 20  1  0
 22 23  2  0
 23 42  1  0
 24 23  1  0
 24 27  1  0
 25 26  1  0
 25 22  1  0
 26 24  2  0
 27 28  1  0
 28 29  2  0
 30 33  1  0
 30 29  1  0
 31 30  2  0
 32 31  1  0
 32 27  2  0
 33 34  1  0
 34 35  1  0
 35 36  2  0
 37 36  1  0
 37 41  1  0
 38 37  2  0
 39 34  2  0
 39 38  1  0
 40 39  1  0
 42 43  1  0
 43 46  1  0
 43 45  1  0
 44 42  2  0
 47 48  1  0
 47 22  1  0
 49 47  1  0
 50 51  1  0
 52 51  1  0
 53 64  2  0
 54 52  1  0
 55 63  1  0
 55 65  1  0
 56 58  1  0
 56 62  1  0
 56 61  1  0
 57 63  1  0
 58 59  1  0
 58 57  1  0
 62 55  1  0
 63 53  1  0
 65 67  2  0
 66 65  1  0
 68 66  1  0
 69 78  2  0
 69 74  1  0
 70 66  1  0
 70 74  1  0
 71 70  1  0
 72 73  1  0
 72 71  1  0
 73 69  1  0
 74 75  2  0
 75 76  1  0
 77 76  2  0
 78 77  1  0
 79 53  1  0
 79 84  1  0
 79 80  1  0
 80 83  1  1
 80 81  1  0
 82 80  1  0
 84 87  1  0
 85 89  1  0
 85 84  1  0
 86 85  2  0
 89 88  1  0
 91 89  1  0
 91 92  1  0
 91 90  1  0
M  ISO  4  12 100  21 100  51 101  52 101
M  END
>  <TORSDO>  (69) 
F 20

>  <SCORE>  (69) 
-15.046

>  <name>  (69) 
68

>  <ligand_id>  (69) 
68

>  <original_smiles>  (69) 
[H]C([H])=C1N(C([H])([H])[H])C(C([H])(C([H])([H])[H])C([H])([H])N(C(=O)N2C([H])([H])C([H])([H])C([H])([H])C([H])(n3nc(-c4c([H])c([H])c(Oc5c([H])c([H])c(F)c([H])c5F)c([H])c4[H])c(C(=O)N([H])[H])c3N([H])[H])C2([H])[H])C([H])([H])[H])=N[N+]1([H])C([H])([H])C([H])([H])Oc1c([H])c([H])c2c(c1[H])C([H])([H])N(C(=O)C([H])(N([H])C(=O)C([H])(N([H])C([H])([H])[H])C([H])([H])[H])C(C([H])([H])[H])(C([H])([H])[H])C([H])([H])[H])C([H])(C(=O)N([H])C1([H])c3c([H])c([H])c([H])c([H])c3C([H])([H])C([H])([H])C1([H])[H])C2([H])[H]

>  <smiles>  (69) 
[H]C([H])=C1N(C([H])([H])[H])C(C([H])(C([H])([H])[H])C([H])([H])N(C(=O)N2C([H])([H])C([H])([H])C([H])([H])C([H])(n3nc(-c4c([H])c([H])c(Oc5c([H])c([H])c(F)c([H])c5F)c([H])c4[H])c(C(=O)N([H])[H])c3N([H])[H])C2([H])[H])C([H])([H])[H])=N[N+]1([H])C([H])([H])C([H])([H])Oc1c([H])c([H])c2c(c1[H])C([H])([H])N(C(=O)C([H])(N([H])C(=O)C([H])(N([H])C([H])([H])[H])C([H])([H])[H])C(C([H])([H])[H])(C([H])([H])[H])C([H])([H])[H])C([H])(C(=O)N([H])C1([H])c3c([H])c([H])c([H])c([H])c3C([H])([H])C([H])([H])C1([H])[H])C2([H])[H]

$$$$
69:0:0
     RDKit          3D

 90 94  0  0  1  0  0  0  0  0999 V2000
  -29.2090  -28.1350   20.9060 C   0  0  0  0  0  3  0  0  0  0  0  0
  -29.1290  -25.7270   18.8880 C   0  0  0  0  0  2  0  0  0  0  0  0
  -26.2820  -27.7100   20.5460 C   0  0  0  0  0  3  0  0  0  0  0  0
  -30.1210  -28.4520   22.0720 C   0  0  0  0  0  1  0  0  0  0  0  0
  -29.8480  -26.9950   19.7630 N   0  0  0  0  0  2  0  0  0  0  0  0
  -27.6030  -28.4210   21.4880 N   0  0  0  0  0  2  0  0  0  0  0  0
  -27.6890  -26.6010   18.5910 N   0  0  0  0  0  1  0  0  0  0  0  0
  -29.5650  -23.4020   18.8630 C   0  0  0  0  0 15  0  0  0  0  0  0
  -29.5800  -20.9540   19.5100 C   0  0  0  0  0 15  0  0  0  0  0  0
  -30.4260  -16.9420   19.7360 C   0  0  0  0  0  0  0  0  0  0  0  0
  -30.6130  -14.0310   19.1290 C   0  0  0  0  0  2  0  0  0  0  0  0
  -29.8300  -13.0050   18.1880 C   0  0  0  0  0  2  0  0  0  0  0  0
  -28.5490  -12.4570   18.8130 C   0  0  0  0  0  2  0  0  0  0  0  0
  -27.9150  -13.5830   19.6300 C   0  0  0  0  0  3  0  0  0  0  0  0
  -28.9320  -14.4520   20.5090 C   0  0  0  0  0  2  0  0  0  0  0  0
  -29.8690  -15.3830   19.6470 N   0  0  0  0  0  0  0  0  0  0  0  0
  -31.6180  -16.4720   19.9110 O   0  0  0  0  0  0  0  0  0  0  0  0
  -31.3830  -19.0610   18.7190 C   0  0  0  0  0  1  0  0  0  0  0  0
  -30.0880  -18.7590   19.3430 N   0  0  0  0  0  2  0  0  0  0  0  0
  -25.5850  -14.0620   20.4990 C   0  0  0  0  0  0  0  0  0  0  0  0
  -24.5090  -13.2940   20.8450 C   0  0  0  0  0  0  0  0  0  0  0  0
  -24.9390  -11.9330   20.7560 C   0  0  0  0  0  0  0  0  0  0  0  0
  -26.6230  -13.1940   20.2330 N   0  0  0  0  0  0  0  0  0  0  0  0
  -26.2370  -11.8890   20.4230 N   0  0  0  0  0  0  0  0  0  0  0  0
  -24.1450  -10.6940   20.9210 C   0  0  0  0  0  0  0  0  0  0  0  0
  -24.5110   -9.6870   21.8440 C   0  0  0  0  0  3  0  0  0  0  0  0
  -23.7110   -8.5330   22.0130 C   0  0  0  0  0  3  0  0  0  0  0  0
  -22.5210   -8.3730   21.2600 C   0  0  0  0  0  0  0  0  0  0  0  0
  -22.1670   -9.3680   20.3290 C   0  0  0  0  0  3  0  0  0  0  0  0
  -22.9700  -10.5120   20.1610 C   0  0  0  0  0  3  0  0  0  0  0  0
  -21.6950   -7.2740   21.3370 O   0  0  0  0  0  0  0  0  0  0  0  0
  -21.5850   -6.5280   22.4850 C   0  0  0  0  0  0  0  0  0  0  0  0
  -21.1640   -7.0970   23.7070 C   0  0  0  0  0  3  0  0  0  0  0  0
  -21.0020   -6.2810   24.8440 C   0  0  0  0  0  3  0  0  0  0  0  0
  -21.2480   -4.8980   24.7590 C   0  0  0  0  0  0  0  0  0  0  0  0
  -21.6590   -4.3290   23.5410 C   0  0  0  0  0  3  0  0  0  0  0  0
  -21.8240   -5.1410   22.4070 C   0  0  0  0  0  0  0  0  0  0  0  0
  -22.2030   -4.5840   21.2300 F   0  0  0  0  0  0  0  0  0  0  0  0
  -21.0850   -4.1120   25.8490 F   0  0  0  0  0  0  0  0  0  0  0  0
  -23.1300  -13.8110   21.1310 C   0  0  0  0  0  0  0  0  0  0  0  0
  -22.3940  -13.1330   22.0030 N   0  0  0  0  0  0  0  0  0  0  0  0
  -22.7230  -14.8540   20.6220 O   0  0  0  0  0  0  0  0  0  0  0  0
  -22.7410  -12.2860   22.4270 H   0  0  0  0  0  0  0  0  0  0  0  0
  -21.4720  -13.4590   22.2520 H   0  0  0  0  0  0  0  0  0  0  0  0
  -25.7590  -15.4330   20.3460 N   0  0  0  0  0  0  0  0  0  0  0  0
  -24.9740  -16.0660   20.4530 H   0  0  0  0  0  0  0  0  0  0  0  0
  -26.5910  -15.8960   20.0030 H   0  0  0  0  0  0  0  0  0  0  0  0
  -25.2270  -27.0090   21.5390 C   0  0  0  0  0  2  0  0  0  0  0  0
  -25.4490  -25.4510   21.7210 C   0  0  0  0  0  2  0  0  0  0  0  0
  -25.2940  -24.7050   20.4670 O   0  0  0  0  0  0  0  0  0  0  0  0
  -24.0910  -31.1120   22.7560 C   0  0  0  0  0  0  0  0  0  0  0  0
  -24.5750  -25.3540   19.6620 C   0  0  0  0  0  3  0  0  0  0  0  0
  -22.3810  -30.2160   21.2890 C   0  0  0  0  0  3  0  0  0  0  0  0
  -23.1150  -28.7430   19.0590 C   0  0  0  0  0  3  0  0  0  0  0  0
  -24.7580  -30.2540   20.0620 C   0  0  0  0  0  2  0  0  0  0  0  0
  -24.7920  -28.8310   18.8460 C   0  0  0  0  0  2  0  0  0  0  0  0
  -25.8060  -26.2660   19.4150 C   0  0  0  0  0  2  0  0  0  0  0  0
  -23.0050  -25.8850   19.6110 C   0  0  0  0  0  3  0  0  0  0  0  0
  -22.3950  -27.3570   19.3170 C   0  0  0  0  0  3  0  0  0  0  0  0
  -22.1520  -29.8180   19.7680 C   0  0  0  0  0  2  0  0  0  0  0  0
  -23.8580  -30.4980   21.4650 N   0  0  0  0  0  0  0  0  0  0  0  0
  -23.1660  -31.3490   23.5820 O   0  0  0  0  0  0  0  0  0  0  0  0
  -21.7090  -29.2300   22.3570 C   0  0  0  0  0  0  0  0  0  0  0  0
  -20.3690  -28.9850   22.3930 N   0  0  0  0  0  0  0  0  0  0  0  0
  -22.4420  -28.6760   23.1710 O   0  0  0  0  0  0  0  0  0  0  0  0
  -19.7580  -29.4920   21.7660 H   0  0  0  0  0  0  0  0  0  0  0  0
  -17.3350  -26.9520   22.8380 C   0  0  0  0  0  0  0  0  0  0  0  0
  -19.7170  -27.9310   23.2200 C   0  0  0  0  0  3  0  0  0  0  0  0
  -20.2260  -26.5250   22.8140 C   0  0  0  0  0  2  0  0  0  0  0  0
  -19.3410  -25.8500   21.7630 C   0  0  0  0  0  2  0  0  0  0  0  0
  -17.9140  -25.6590   22.2890 C   0  0  0  0  0  2  0  0  0  0  0  0
  -18.1770  -28.0170   23.2710 C   0  0  0  0  0  0  0  0  0  0  0  0
  -17.5690  -29.1920   23.7670 C   0  0  0  0  0  3  0  0  0  0  0  0
  -16.1680  -29.3200   23.8200 C   0  0  0  0  0  3  0  0  0  0  0  0
  -15.3450  -28.2620   23.3930 C   0  0  0  0  0  3  0  0  0  0  0  0
  -15.9300  -27.0810   22.9040 C   0  0  0  0  0  3  0  0  0  0  0  0
  -25.4670  -31.6040   23.3520 C   0  0  0  0  0  3  0  0  0  0  0  0
  -26.0010  -30.7200   24.5530 C   0  0  1  0  0  0  0  0  0  0  0  0
  -25.0880  -30.6650   25.8090 C   0  0  0  0  0  1  0  0  0  0  0  0
  -26.2480  -29.3080   24.0280 C   0  0  0  0  0  1  0  0  0  0  0  0
  -27.3690  -31.2480   25.0380 C   0  0  0  0  0  1  0  0  0  0  0  0
  -25.3660  -32.9960   23.8810 N   0  0  0  0  0  0  0  0  0  0  0  0
  -25.9270  -34.0830   23.3370 C   0  0  0  0  0  0  0  0  0  0  0  0
  -26.5670  -34.0200   22.2890 O   0  0  0  0  0  0  0  0  0  0  0  0
  -24.7840  -33.1210   24.6970 H   0  0  0  0  0  0  0  0  0  0  0  0
  -24.6440  -36.2540   23.3840 C   0  0  0  0  0  1  0  0  0  0  0  0
  -25.7630  -35.4470   24.0540 C   0  0  0  0  0  3  0  0  0  0  0  0
  -28.0470  -35.7210   24.9320 C   0  0  0  0  0  1  0  0  0  0  0  0
  -26.9980  -36.2660   24.0740 N   0  0  0  0  0  0  0  0  0  0  0  0
  -26.7860  -37.2100   24.3820 H   0  0  0  0  0  0  0  0  0  0  0  0
  1  6  1  0
  1  4  1  0
  2  5  1  0
  3  6  1  0
  3 48  1  0
  5  1  1  0
  7  2  1  0
 10 17  2  0
 11 16  1  0
 12 13  1  0
 12 11  1  0
 14 13  1  0
 14 23  1  0
 14 15  1  0
 16 10  1  0
 16 15  1  0
 18 19  1  0
 19 10  1  0
 20 21  2  0
 21 40  1  0
 22 21  1  0
 22 25  1  0
 23 24  1  0
 23 20  1  0
 24 22  2  0
 25 26  1  0
 26 27  2  0
 28 31  1  0
 28 27  1  0
 29 28  2  0
 30 29  1  0
 30 25  2  0
 31 32  1  0
 32 33  1  0
 33 34  2  0
 35 34  1  0
 35 39  1  0
 36 35  2  0
 37 32  2  0
 37 36  1  0
 38 37  1  0
 40 41  1  0
 41 44  1  0
 41 43  1  0
 42 40  2  0
 45 46  1  0
 45 20  1  0
 47 45  1  0
 48 49  1  0
 50 49  1  0
 51 62  2  0
 52 58  1  0
 52 50  1  0
 53 61  1  0
 53 63  1  0
 54 59  1  0
 54 60  1  0
 55 61  1  0
 56 54  1  0
 56 55  1  0
 57 52  1  0
 57  3  1  0
 59 58  2  0
 60 53  1  0
 61 51  1  0
 63 64  1  0
 63 65  2  0
 66 64  1  0
 67 76  2  0
 67 72  1  0
 68 64  1  0
 68 72  1  0
 69 68  1  0
 70 71  1  0
 70 69  1  0
 71 67  1  0
 72 73  2  0
 73 74  1  0
 75 74  2  0
 76 75  1  0
 77 51  1  0
 77 82  1  0
 77 78  1  0
 78 81  1  1
 78 79  1  0
 80 78  1  0
 82 85  1  0
 83 82  1  0
 83 87  1  0
 84 83  2  0
 87 86  1  0
 87 89  1  0
 89 90  1  0
 89 88  1  0
M  ISO  4  10 100  19 100  49 101  50 101
M  END
>  <TORSDO>  (70) 
F 20

>  <SCORE>  (70) 
-11.734

>  <name>  (70) 
69

>  <ligand_id>  (70) 
69

>  <original_smiles>  (70) 
[H]c1c([H])c([H])c2c(c1[H])C([H])([H])C([H])([H])C([H])([H])C2([H])N([H])C(=O)C1([H])N(C(=O)C([H])(N([H])C(=O)C([H])(N([H])C([H])([H])[H])C([H])([H])[H])C(C([H])([H])[H])(C([H])([H])[H])C([H])([H])[H])C([H])([H])c2c([H])c(OC([H])([H])C([H])([H])c3nc(C([H])([H])[H])nc(C([H])([H])C([H])([H])N(C(=O)N4C([H])([H])C([H])([H])C([H])([H])C([H])(n5nc(-c6c([H])c([H])c(Oc7c([H])c([H])c(F)c([H])c7F)c([H])c6[H])c(C(=O)N([H])[H])c5N([H])[H])C4([H])[H])C([H])([H])[H])n3)c([H])c([H])c2C1([H])[H]

>  <smiles>  (70) 
[H]c1c([H])c([H])c2c(c1[H])C([H])([H])C([H])([H])C([H])([H])C2([H])N([H])C(=O)C1([H])N(C(=O)C([H])(N([H])C(=O)C([H])(N([H])C([H])([H])[H])C([H])([H])[H])C(C([H])([H])[H])(C([H])([H])[H])C([H])([H])[H])C([H])([H])c2c([H])c(OC([H])([H])C([H])([H])c3nc(C([H])([H])[H])nc(C([H])([H])C([H])([H])N(C(=O)N4C([H])([H])C([H])([H])C([H])([H])C([H])(n5nc(-c6c([H])c([H])c(Oc7c([H])c([H])c(F)c([H])c7F)c([H])c6[H])c(C(=O)N([H])[H])c5N([H])[H])C4([H])[H])C([H])([H])[H])n3)c([H])c([H])c2C1([H])[H]

$$$$
70:0:0
     RDKit          3D

 92100  0  0  1  0  0  0  0  0999 V2000
  -29.1820  -21.1900   19.6740 C   0  0  0  0  0  3  0  0  0  0  0  0
  -29.3330  -22.4630   20.3330 C   0  0  0  0  0  0  0  0  0  0  0  0
  -29.7060  -19.9860   20.2740 C   0  0  0  0  0  0  0  0  0  0  0  0
  -30.4540  -21.3350   22.0030 C   0  0  0  0  0  0  0  0  0  0  0  0
  -31.2560  -21.4610   23.2850 C   0  0  0  0  0  1  0  0  0  0  0  0
  -30.0110  -22.4810   21.4920 N   0  0  0  0  0  0  0  0  0  0  0  0
  -30.3090  -20.1170   21.4780 N   0  0  0  0  0  0  0  0  0  0  0  0
  -29.4500  -18.4710   18.2020 C   0  0  0  0  0  1  0  0  0  0  0  0
  -28.0270  -18.1020   20.2210 C   0  0  0  0  0  1  0  0  0  0  0  0
  -29.4530  -18.4860   19.7530 C   0  0  2  0  0  0  0  0  0  0  0  0
  -30.5500  -17.3470   20.1880 C   0  0  0  0  0  2  0  0  0  0  0  0
  -30.8160  -14.7430   20.0230 C   0  0  0  0  0  0  0  0  0  0  0  0
  -30.5360  -12.4910   18.9360 C   0  0  0  0  0  2  0  0  0  0  0  0
  -29.5260  -12.6130   17.7740 C   0  0  0  0  0  2  0  0  0  0  0  0
  -28.0840  -12.4230   18.2850 C   0  0  0  0  0  2  0  0  0  0  0  0
  -27.7980  -13.2650   19.5560 C   0  0  0  0  0  3  0  0  0  0  0  0
  -28.9190  -13.0680   20.5900 C   0  0  0  0  0  2  0  0  0  0  0  0
  -30.1720  -13.5120   19.9520 N   0  0  0  0  0  0  0  0  0  0  0  0
  -31.9240  -14.8560   19.4830 O   0  0  0  0  0  0  0  0  0  0  0  0
  -29.5800  -15.8380   21.8450 C   0  0  0  0  0  1  0  0  0  0  0  0
  -30.1490  -15.8880   20.4890 N   0  0  0  0  0  0  0  0  0  0  0  0
  -25.4600  -13.8520   20.4230 C   0  0  0  0  0  0  0  0  0  0  0  0
  -24.4130  -13.0770   20.8400 C   0  0  0  0  0  0  0  0  0  0  0  0
  -24.8650  -11.7230   20.7460 C   0  0  0  0  0  0  0  0  0  0  0  0
  -26.4830  -12.9720   20.1100 N   0  0  0  0  0  0  0  0  0  0  0  0
  -26.1350  -11.6850   20.3630 N   0  0  0  0  0  0  0  0  0  0  0  0
  -24.1460  -10.4590   20.9480 C   0  0  0  0  0  0  0  0  0  0  0  0
  -24.5850   -9.5050   21.8900 C   0  0  0  0  0  3  0  0  0  0  0  0
  -23.8650   -8.3070   22.0790 C   0  0  0  0  0  3  0  0  0  0  0  0
  -22.6910   -8.0590   21.3290 C   0  0  0  0  0  0  0  0  0  0  0  0
  -22.2750   -9.0030   20.3720 C   0  0  0  0  0  3  0  0  0  0  0  0
  -22.9960  -10.1930   20.1810 C   0  0  0  0  0  3  0  0  0  0  0  0
  -21.9450   -6.9090   21.4250 O   0  0  0  0  0  0  0  0  0  0  0  0
  -21.8370   -6.2140   22.6050 C   0  0  0  0  0  0  0  0  0  0  0  0
  -21.3220   -6.8110   23.7780 C   0  0  0  0  0  3  0  0  0  0  0  0
  -21.1720   -6.0440   24.9500 C   0  0  0  0  0  3  0  0  0  0  0  0
  -21.5230   -4.6800   24.9500 C   0  0  0  0  0  0  0  0  0  0  0  0
  -22.0250   -4.0810   23.7790 C   0  0  0  0  0  3  0  0  0  0  0  0
  -22.1800   -4.8480   22.6090 C   0  0  0  0  0  0  0  0  0  0  0  0
  -22.6470   -4.2610   21.4810 F   0  0  0  0  0  0  0  0  0  0  0  0
  -21.3690   -3.9390   26.0710 F   0  0  0  0  0  0  0  0  0  0  0  0
  -23.0400  -13.5540   21.2050 C   0  0  0  0  0  0  0  0  0  0  0  0
  -22.3590  -12.8390   22.0950 N   0  0  0  0  0  0  0  0  0  0  0  0
  -22.5780  -14.5980   20.7400 O   0  0  0  0  0  0  0  0  0  0  0  0
  -22.7470  -11.9990   22.4950 H   0  0  0  0  0  0  0  0  0  0  0  0
  -21.4360  -13.1350   22.3760 H   0  0  0  0  0  0  0  0  0  0  0  0
  -25.6220  -15.2210   20.2620 N   0  0  0  0  0  0  0  0  0  0  0  0
  -24.8630  -15.8750   20.4280 H   0  0  0  0  0  0  0  0  0  0  0  0
  -26.4610  -15.6510   19.8960 H   0  0  0  0  0  0  0  0  0  0  0  0
  -28.9830  -23.8980   19.7470 C   0  0  0  0  0  2  0  0  0  0  0  0
  -28.2170  -25.0010   20.6320 C   0  0  0  0  0  2  0  0  0  0  0  0
  -28.3890  -26.4560   20.3340 O   0  0  0  0  0  0  0  0  0  0  0  0
  -24.6200  -31.9280   23.2490 C   0  0  0  0  0  0  0  0  0  0  0  0
  -27.2670  -27.3010   20.3200 C   0  0  0  0  0  0  0  0  0  0  0  0
  -23.4400  -30.5010   21.6170 C   0  0  0  0  0  3  0  0  0  0  0  0
  -24.9070  -28.9150   20.2460 C   0  0  0  0  0  0  0  0  0  0  0  0
  -25.9810  -30.8100   21.4650 C   0  0  0  0  0  2  0  0  0  0  0  0
  -26.0690  -29.4170   20.8490 C   0  0  0  0  0  0  0  0  0  0  0  0
  -27.2580  -28.6250   20.8670 C   0  0  0  0  0  3  0  0  0  0  0  0
  -26.0860  -26.8500   19.7000 C   0  0  0  0  0  3  0  0  0  0  0  0
  -24.9180  -27.6380   19.6620 C   0  0  0  0  0  3  0  0  0  0  0  0
  -23.6710  -29.7930   20.2550 C   0  0  0  0  0  2  0  0  0  0  0  0
  -24.7000  -31.0950   22.1690 N   0  0  0  0  0  0  0  0  0  0  0  0
  -23.5290  -32.2220   23.7580 O   0  0  0  0  0  0  0  0  0  0  0  0
  -22.7530  -29.5100   22.5870 C   0  0  0  0  0  0  0  0  0  0  0  0
  -21.4270  -29.3500   22.4510 N   0  0  0  0  0  0  0  0  0  0  0  0
  -23.4160  -28.8840   23.4190 O   0  0  0  0  0  0  0  0  0  0  0  0
  -20.9540  -29.8990   21.7490 H   0  0  0  0  0  0  0  0  0  0  0  0
  -18.0250  -28.2300   22.9600 C   0  0  0  0  0  0  0  0  0  0  0  0
  -20.5890  -28.4330   23.2250 C   0  0  0  0  0  3  0  0  0  0  0  0
  -20.6580  -26.9980   22.6520 C   0  0  0  0  0  2  0  0  0  0  0  0
  -19.5470  -26.6970   21.6420 C   0  0  0  0  0  2  0  0  0  0  0  0
  -18.1700  -26.8760   22.2870 C   0  0  0  0  0  2  0  0  0  0  0  0
  -19.1610  -28.9680   23.3860 C   0  0  0  0  0  0  0  0  0  0  0  0
  -18.9710  -30.2380   23.9760 C   0  0  0  0  0  3  0  0  0  0  0  0
  -17.6790  -30.7700   24.1380 C   0  0  0  0  0  3  0  0  0  0  0  0
  -16.5570  -30.0280   23.7300 C   0  0  0  0  0  3  0  0  0  0  0  0
  -16.7300  -28.7590   23.1500 C   0  0  0  0  0  3  0  0  0  0  0  0
  -25.8950  -32.5670   23.8810 C   0  0  0  0  0  3  0  0  0  0  0  0
  -26.3900  -31.8090   25.1740 C   0  0  1  0  0  0  0  0  0  0  0  0
  -25.2760  -31.5710   26.2210 C   0  0  0  0  0  1  0  0  0  0  0  0
  -26.9850  -30.4330   24.8000 C   0  0  0  0  0  1  0  0  0  0  0  0
  -27.5310  -32.6080   25.8470 C   0  0  0  0  0  1  0  0  0  0  0  0
  -25.5840  -33.9690   24.1950 N   0  0  0  0  0  0  0  0  0  0  0  0
  -25.9280  -35.0150   23.4320 C   0  0  0  0  0  0  0  0  0  0  0  0
  -26.6100  -34.9000   22.4100 O   0  0  0  0  0  0  0  0  0  0  0  0
  -24.9840  -34.1310   24.9910 H   0  0  0  0  0  0  0  0  0  0  0  0
  -24.2120  -36.8050   23.0320 C   0  0  0  0  0  1  0  0  0  0  0  0
  -25.4390  -36.4090   23.8680 C   0  0  0  0  0  3  0  0  0  0  0  0
  -27.5590  -37.2970   24.7280 C   0  0  0  0  0  1  0  0  0  0  0  0
  -26.4760  -37.4580   23.7610 N   0  0  0  0  0  0  0  0  0  0  0  0
  -26.0710  -38.3810   23.8910 H   0  0  0  0  0  0  0  0  0  0  0  0
  1  3  1  0
  1  2  2  0
  2  6  1  0
  3  7  2  0
  4  5  1  0
  6  4  2  0
  7  4  1  0
 10  8  1  6
 10 11  1  0
 10  9  1  0
 10  3  1  0
 11 21  1  0
 12 21  1  0
 13 18  1  0
 14 15  1  0
 14 13  1  0
 16 15  1  0
 16 25  1  0
 16 17  1  0
 18 12  1  0
 18 17  1  0
 19 12  2  0
 21 20  1  0
 22 23  2  0
 23 42  1  0
 24 23  1  0
 24 27  1  0
 25 26  1  0
 25 22  1  0
 26 24  2  0
 27 28  1  0
 28 29  2  0
 30 33  1  0
 30 29  1  0
 31 30  2  0
 32 31  1  0
 32 27  2  0
 33 34  1  0
 34 39  2  0
 34 35  1  0
 35 36  2  0
 36 37  1  0
 37 41  1  0
 38 37  2  0
 39 38  1  0
 40 39  1  0
 42 43  1  0
 43 46  1  0
 43 45  1  0
 44 42  2  0
 47 22  1  0
 47 48  1  0
 49 47  1  0
 50  2  1  0
 50 51  1  0
 52 51  1  0
 53 64  2  0
 54 52  1  0
 54 59  1  0
 55 63  1  0
 55 65  1  0
 56 62  1  0
 56 58  1  0
 57 63  1  0
 58 59  2  0
 58 57  1  0
 60 54  2  0
 61 60  1  0
 61 56  2  0
 62 55  1  0
 63 53  1  0
 65 67  2  0
 66 65  1  0
 68 66  1  0
 69 78  2  0
 69 74  1  0
 70 66  1  0
 70 74  1  0
 71 70  1  0
 72 73  1  0
 72 71  1  0
 73 69  1  0
 74 75  2  0
 75 76  1  0
 77 76  2  0
 78 77  1  0
 79 53  1  0
 79 84  1  0
 79 80  1  0
 80 83  1  1
 80 81  1  0
 82 80  1  0
 84 87  1  0
 85 89  1  0
 85 84  1  0
 86 85  2  0
 89 88  1  0
 91 89  1  0
 91 92  1  0
 91 90  1  0
M  ISO  4  12 100  21 100  51 101  52 101
M  END
>  <TORSDO>  (71) 
F 20

>  <SCORE>  (71) 
-13.651

>  <name>  (71) 
70

>  <ligand_id>  (71) 
70

>  <original_smiles>  (71) 
[H]c1c(C([H])([H])C([H])([H])Oc2c([H])c([H])c3c(c2[H])C([H])([H])N(C(=O)C([H])(N([H])C(=O)C([H])(N([H])C([H])([H])[H])C([H])([H])[H])C(C([H])([H])[H])(C([H])([H])[H])C([H])([H])[H])C([H])(C(=O)N([H])C2([H])c4c([H])c([H])c([H])c([H])c4C([H])([H])C([H])([H])C2([H])[H])C3([H])[H])nc(C([H])([H])[H])nc1C(C([H])([H])[H])(C([H])([H])[H])C([H])([H])N(C(=O)N1C([H])([H])C([H])([H])C([H])([H])C([H])(n2nc(-c3c([H])c([H])c(Oc4c([H])c([H])c(F)c([H])c4F)c([H])c3[H])c(C(=O)N([H])[H])c2N([H])[H])C1([H])[H])C([H])([H])[H]

>  <smiles>  (71) 
[H]c1c(C([H])([H])C([H])([H])Oc2c([H])c([H])c3c(c2[H])C([H])([H])N(C(=O)C([H])(N([H])C(=O)C([H])(N([H])C([H])([H])[H])C([H])([H])[H])C(C([H])([H])[H])(C([H])([H])[H])C([H])([H])[H])C([H])(C(=O)N([H])C2([H])c4c([H])c([H])c([H])c([H])c4C([H])([H])C([H])([H])C2([H])[H])C3([H])[H])nc(C([H])([H])[H])nc1C(C([H])([H])[H])(C([H])([H])[H])C([H])([H])N(C(=O)N1C([H])([H])C([H])([H])C([H])([H])C([H])(n2nc(-c3c([H])c([H])c(Oc4c([H])c([H])c(F)c([H])c4F)c([H])c3[H])c(C(=O)N([H])[H])c2N([H])[H])C1([H])[H])C([H])([H])[H]

$$$$
71:0:0
     RDKit          3D

 91 99  0  0  1  0  0  0  0  0999 V2000
  -29.7720  -22.7090   19.3970 C   0  0  0  0  0  3  0  0  0  0  0  0
  -28.7510  -23.7250   19.6380 C   0  0  0  0  0  0  0  0  0  0  0  0
  -29.2380  -21.4320   19.5820 C   0  0  0  0  0  0  0  0  0  0  0  0
  -26.8020  -20.8350   20.1290 C   0  0  0  0  0  1  0  0  0  0  0  0
  -27.6500  -23.0780   20.0080 N   0  0  0  0  0  0  0  0  0  0  0  0
  -27.9210  -21.7350   19.9350 N   0  0  0  0  0  0  0  0  0  0  0  0
  -28.7260  -25.2750   19.2510 C   0  0  0  0  0  2  0  0  0  0  0  0
  -28.3880  -26.3960   20.1890 O   0  0  0  0  0  0  0  0  0  0  0  0
  -24.4580  -31.7260   23.1050 C   0  0  0  0  0  0  0  0  0  0  0  0
  -27.2540  -27.2330   20.0640 C   0  0  0  0  0  0  0  0  0  0  0  0
  -23.3320  -30.3220   21.4160 C   0  0  0  0  0  3  0  0  0  0  0  0
  -24.8570  -28.8190   20.0060 C   0  0  0  0  0  0  0  0  0  0  0  0
  -25.8690  -30.6920   21.3070 C   0  0  0  0  0  2  0  0  0  0  0  0
  -25.9970  -29.3190   20.6460 C   0  0  0  0  0  0  0  0  0  0  0  0
  -27.1920  -28.5350   20.6700 C   0  0  0  0  0  3  0  0  0  0  0  0
  -26.0860  -26.7920   19.4040 C   0  0  0  0  0  3  0  0  0  0  0  0
  -24.9070  -27.5670   19.3730 C   0  0  0  0  0  3  0  0  0  0  0  0
  -23.5980  -29.6680   20.0320 C   0  0  0  0  0  2  0  0  0  0  0  0
  -24.5700  -30.9330   21.9990 N   0  0  0  0  0  0  0  0  0  0  0  0
  -23.3540  -31.9700   23.6150 O   0  0  0  0  0  0  0  0  0  0  0  0
  -22.6660  -29.2820   22.3500 C   0  0  0  0  0  0  0  0  0  0  0  0
  -21.3410  -29.0980   22.2140 N   0  0  0  0  0  0  0  0  0  0  0  0
  -23.3440  -28.6420   23.1590 O   0  0  0  0  0  0  0  0  0  0  0  0
  -20.8520  -29.6670   21.5370 H   0  0  0  0  0  0  0  0  0  0  0  0
  -17.9630  -27.8940   22.6940 C   0  0  0  0  0  0  0  0  0  0  0  0
  -20.5240  -28.1360   22.9580 C   0  0  0  0  0  3  0  0  0  0  0  0
  -20.6170  -26.7250   22.3320 C   0  0  0  0  0  2  0  0  0  0  0  0
  -19.5100  -26.4420   21.3130 C   0  0  0  0  0  2  0  0  0  0  0  0
  -18.1320  -26.5690   21.9700 C   0  0  0  0  0  2  0  0  0  0  0  0
  -19.0870  -28.6370   23.1450 C   0  0  0  0  0  0  0  0  0  0  0  0
  -18.8760  -29.8780   23.7850 C   0  0  0  0  0  3  0  0  0  0  0  0
  -17.5740  -30.3800   23.9720 C   0  0  0  0  0  3  0  0  0  0  0  0
  -16.4640  -29.6330   23.5390 C   0  0  0  0  0  3  0  0  0  0  0  0
  -16.6590  -28.3910   22.9080 C   0  0  0  0  0  3  0  0  0  0  0  0
  -25.7060  -32.3840   23.7670 C   0  0  0  0  0  3  0  0  0  0  0  0
  -26.2070  -31.6100   25.0490 C   0  0  1  0  0  0  0  0  0  0  0  0
  -25.0940  -31.3310   26.0840 C   0  0  0  0  0  1  0  0  0  0  0  0
  -26.8380  -30.2530   24.6580 C   0  0  0  0  0  1  0  0  0  0  0  0
  -27.3160  -32.4270   25.7530 C   0  0  0  0  0  1  0  0  0  0  0  0
  -25.3540  -33.7710   24.1060 N   0  0  0  0  0  0  0  0  0  0  0  0
  -25.6610  -34.8390   23.3610 C   0  0  0  0  0  0  0  0  0  0  0  0
  -26.3410  -34.7650   22.3340 O   0  0  0  0  0  0  0  0  0  0  0  0
  -24.7490  -33.8990   24.9040 H   0  0  0  0  0  0  0  0  0  0  0  0
  -23.8810  -36.5830   23.0170 C   0  0  0  0  0  1  0  0  0  0  0  0
  -25.1320  -36.2100   23.8280 C   0  0  0  0  0  3  0  0  0  0  0  0
  -27.2380  -37.1600   24.6640 C   0  0  0  0  0  1  0  0  0  0  0  0
  -26.1300  -37.2960   23.7220 N   0  0  0  0  0  0  0  0  0  0  0  0
  -25.6950  -38.2030   23.8710 H   0  0  0  0  0  0  0  0  0  0  0  0
  -29.7830  -19.9630   19.2500 C   0  0  0  0  0  2  0  0  0  0  0  0
  -31.3220  -19.6430   21.2220 C   0  0  0  0  0  1  0  0  0  0  0  0
  -29.1810  -18.4050   21.2550 C   0  0  0  0  0  1  0  0  0  0  0  0
  -30.3260  -18.8670   20.3310 C   0  0  1  0  0  0  0  0  0  0  0  0
  -31.1350  -17.5280   19.8070 C   0  0  0  0  0  2  0  0  0  0  0  0
  -31.2260  -14.9340   19.6740 C   0  0  0  0  0  0  0  0  0  0  0  0
  -30.9670  -12.5460   18.9650 C   0  0  0  0  0  2  0  0  0  0  0  0
  -29.9740  -12.4350   17.7880 C   0  0  0  0  0  2  0  0  0  0  0  0
  -28.5240  -12.3230   18.3060 C   0  0  0  0  0  2  0  0  0  0  0  0
  -28.1870  -13.3410   19.4290 C   0  0  0  0  0  3  0  0  0  0  0  0
  -29.3130  -13.4490   20.4820 C   0  0  0  0  0  2  0  0  0  0  0  0
  -30.5640  -13.7240   19.7680 N   0  0  0  0  0  0  0  0  0  0  0  0
  -32.4410  -14.9270   19.4600 O   0  0  0  0  0  0  0  0  0  0  0  0
  -29.5660  -16.2830   18.4660 C   0  0  0  0  0  1  0  0  0  0  0  0
  -30.5070  -16.1460   19.5880 N   0  0  0  0  0  0  0  0  0  0  0  0
  -25.9190  -14.0680   20.3650 C   0  0  0  0  0  0  0  0  0  0  0  0
  -24.8310  -13.3540   20.7820 C   0  0  0  0  0  0  0  0  0  0  0  0
  -25.2010  -11.9780   20.6790 C   0  0  0  0  0  0  0  0  0  0  0  0
  -26.8790  -13.1250   20.0250 N   0  0  0  0  0  0  0  0  0  0  0  0
  -26.4600  -11.8630   20.2790 N   0  0  0  0  0  0  0  0  0  0  0  0
  -24.4100  -10.7600   20.8780 C   0  0  0  0  0  0  0  0  0  0  0  0
  -24.7880   -9.7810   21.8210 C   0  0  0  0  0  3  0  0  0  0  0  0
  -24.0020   -8.6250   22.0060 C   0  0  0  0  0  3  0  0  0  0  0  0
  -22.8220   -8.4420   21.2450 C   0  0  0  0  0  0  0  0  0  0  0  0
  -22.4640   -9.4070   20.2880 C   0  0  0  0  0  3  0  0  0  0  0  0
  -23.2530  -10.5540   20.1010 C   0  0  0  0  0  3  0  0  0  0  0  0
  -22.0070   -7.3400   21.3400 O   0  0  0  0  0  0  0  0  0  0  0  0
  -21.8390   -6.6700   22.5260 C   0  0  0  0  0  0  0  0  0  0  0  0
  -21.3290   -7.3080   23.6780 C   0  0  0  0  0  3  0  0  0  0  0  0
  -21.1120   -6.5640   24.8550 C   0  0  0  0  0  3  0  0  0  0  0  0
  -21.3900   -5.1850   24.8770 C   0  0  0  0  0  0  0  0  0  0  0  0
  -21.8910   -4.5480   23.7290 C   0  0  0  0  0  3  0  0  0  0  0  0
  -22.1140   -5.2880   22.5550 C   0  0  0  0  0  0  0  0  0  0  0  0
  -22.5770   -4.6650   21.4450 F   0  0  0  0  0  0  0  0  0  0  0  0
  -21.1750   -4.4670   26.0050 F   0  0  0  0  0  0  0  0  0  0  0  0
  -23.4910  -13.9120   21.1610 C   0  0  0  0  0  0  0  0  0  0  0  0
  -22.7830  -13.2480   22.0650 N   0  0  0  0  0  0  0  0  0  0  0  0
  -23.0830  -14.9730   20.6910 O   0  0  0  0  0  0  0  0  0  0  0  0
  -23.1290  -12.3940   22.4750 H   0  0  0  0  0  0  0  0  0  0  0  0
  -21.8830  -13.6030   22.3550 H   0  0  0  0  0  0  0  0  0  0  0  0
  -26.1620  -15.4320   20.2230 N   0  0  0  0  0  0  0  0  0  0  0  0
  -25.4550  -16.1340   20.4140 H   0  0  0  0  0  0  0  0  0  0  0  0
  -27.0380  -15.8250   19.9060 H   0  0  0  0  0  0  0  0  0  0  0  0
  1  3  2  0
  1  2  1  0
  2  5  2  0
  3  6  1  0
  6  5  1  0
  6  4  1  0
  7  2  1  0
  7  8  1  0
  9 20  2  0
 10  8  1  0
 10 15  1  0
 11 19  1  0
 11 21  1  0
 12 18  1  0
 12 14  1  0
 13 19  1  0
 14 15  2  0
 14 13  1  0
 16 10  2  0
 17 16  1  0
 17 12  2  0
 18 11  1  0
 19  9  1  0
 21 23  2  0
 22 21  1  0
 24 22  1  0
 25 34  2  0
 25 30  1  0
 26 22  1  0
 26 30  1  0
 27 26  1  0
 28 29  1  0
 28 27  1  0
 29 25  1  0
 30 31  2  0
 31 32  1  0
 33 32  2  0
 34 33  1  0
 35  9  1  0
 35 40  1  0
 35 36  1  0
 36 39  1  1
 36 37  1  0
 38 36  1  0
 40 43  1  0
 41 45  1  0
 41 40  1  0
 42 41  2  0
 45 44  1  0
 47 45  1  0
 47 48  1  0
 47 46  1  0
 49  3  1  0
 49 52  1  0
 52 50  1  1
 52 51  1  0
 53 52  1  0
 54 60  1  0
 55 60  1  0
 56 57  1  0
 56 55  1  0
 58 57  1  0
 58 67  1  0
 58 59  1  0
 60 59  1  0
 61 54  2  0
 62 63  1  0
 63 54  1  0
 63 53  1  0
 64 65  2  0
 65 84  1  0
 66 65  1  0
 66 69  1  0
 67 68  1  0
 67 64  1  0
 68 66  2  0
 69 70  1  0
 70 71  2  0
 72 75  1  0
 72 71  1  0
 73 72  2  0
 74 73  1  0
 74 69  2  0
 75 76  1  0
 76 81  2  0
 76 77  1  0
 77 78  2  0
 78 79  1  0
 79 83  1  0
 80 79  2  0
 81 80  1  0
 82 81  1  0
 84 85  1  0
 85 88  1  0
 85 87  1  0
 86 84  2  0
 89 64  1  0
 89 90  1  0
 91 89  1  0
M  ISO  4   7 101   8 101  54 100  63 100
M  END
>  <TORSDO>  (72) 
F 20

>  <SCORE>  (72) 
-11.652

>  <name>  (72) 
71

>  <ligand_id>  (72) 
71

>  <original_smiles>  (72) 
[H]c1c([H])c([H])c2c(c1[H])C([H])([H])C([H])([H])C([H])([H])C2([H])N([H])C(=O)C1([H])N(C(=O)C([H])(N([H])C(=O)C([H])(N([H])C([H])([H])[H])C([H])([H])[H])C(C([H])([H])[H])(C([H])([H])[H])C([H])([H])[H])C([H])([H])c2c([H])c(OC([H])([H])c3nn(C([H])([H])[H])c(C([H])([H])C(C([H])([H])[H])(C([H])([H])[H])C([H])([H])N(C(=O)N4C([H])([H])C([H])([H])C([H])([H])C([H])(n5nc(-c6c([H])c([H])c(Oc7c([H])c([H])c(F)c([H])c7F)c([H])c6[H])c(C(=O)N([H])[H])c5N([H])[H])C4([H])[H])C([H])([H])[H])c3[H])c([H])c([H])c2C1([H])[H]

>  <smiles>  (72) 
[H]c1c([H])c([H])c2c(c1[H])C([H])([H])C([H])([H])C([H])([H])C2([H])N([H])C(=O)C1([H])N(C(=O)C([H])(N([H])C(=O)C([H])(N([H])C([H])([H])[H])C([H])([H])[H])C(C([H])([H])[H])(C([H])([H])[H])C([H])([H])[H])C([H])([H])c2c([H])c(OC([H])([H])c3nn(C([H])([H])[H])c(C([H])([H])C(C([H])([H])[H])(C([H])([H])[H])C([H])([H])N(C(=O)N4C([H])([H])C([H])([H])C([H])([H])C([H])(n5nc(-c6c([H])c([H])c(Oc7c([H])c([H])c(F)c([H])c7F)c([H])c6[H])c(C(=O)N([H])[H])c5N([H])[H])C4([H])[H])C([H])([H])[H])c3[H])c([H])c([H])c2C1([H])[H]

$$$$
72:0:0
     RDKit          3D

 92100  0  0  1  0  0  0  0  0999 V2000
  -29.4600  -23.5110   17.9410 C   0  0  0  0  0  3  0  0  0  0  0  0
  -28.9940  -24.2230   19.0180 C   0  0  0  0  0  0  0  0  0  0  0  0
  -29.4040  -22.0620   19.6390 C   0  0  0  0  0  3  0  0  0  0  0  0
  -30.3020  -21.1810   17.4880 C   0  0  0  0  0  1  0  0  0  0  0  0
  -29.7260  -22.2270   18.3410 N   0  0  0  0  0  0  0  0  0  0  0  0
  -28.9550  -23.2840   20.0460 N   0  0  0  0  0  0  0  0  0  0  0  0
  -28.6560  -23.4910   20.9910 H   0  0  0  0  0  0  0  0  0  0  0  0
  -28.6350  -25.7220   18.9770 C   0  0  0  0  0  2  0  0  0  0  0  0
  -28.2800  -26.4730   20.1720 O   0  0  0  0  0  0  0  0  0  0  0  0
  -24.5660  -31.8230   23.2230 C   0  0  0  0  0  0  0  0  0  0  0  0
  -27.1510  -27.2920   20.1320 C   0  0  0  0  0  0  0  0  0  0  0  0
  -23.3450  -30.4290   21.5910 C   0  0  0  0  0  3  0  0  0  0  0  0
  -24.7790  -28.8730   20.1590 C   0  0  0  0  0  0  0  0  0  0  0  0
  -25.8820  -30.7450   21.3890 C   0  0  0  0  0  2  0  0  0  0  0  0
  -25.9490  -29.3670   20.7450 C   0  0  0  0  0  0  0  0  0  0  0  0
  -27.1360  -28.5820   20.7350 C   0  0  0  0  0  3  0  0  0  0  0  0
  -25.9480  -26.8250   19.5540 C   0  0  0  0  0  3  0  0  0  0  0  0
  -24.7760  -27.6030   19.5610 C   0  0  0  0  0  3  0  0  0  0  0  0
  -23.5440  -29.7500   20.2110 C   0  0  0  0  0  2  0  0  0  0  0  0
  -24.6170  -31.0150   22.1260 N   0  0  0  0  0  0  0  0  0  0  0  0
  -23.4890  -32.1060   23.7640 O   0  0  0  0  0  0  0  0  0  0  0  0
  -22.6850  -29.4150   22.5550 C   0  0  0  0  0  0  0  0  0  0  0  0
  -21.3560  -29.2530   22.4420 N   0  0  0  0  0  0  0  0  0  0  0  0
  -23.3660  -28.7800   23.3640 O   0  0  0  0  0  0  0  0  0  0  0  0
  -20.8680  -29.8150   21.7590 H   0  0  0  0  0  0  0  0  0  0  0  0
  -17.9720  -28.0920   22.9680 C   0  0  0  0  0  0  0  0  0  0  0  0
  -20.5350  -28.3240   23.2200 C   0  0  0  0  0  3  0  0  0  0  0  0
  -20.6190  -26.8910   22.6450 C   0  0  0  0  0  2  0  0  0  0  0  0
  -19.5060  -26.5780   21.6400 C   0  0  0  0  0  2  0  0  0  0  0  0
  -18.1300  -26.7390   22.2940 C   0  0  0  0  0  2  0  0  0  0  0  0
  -19.1020  -28.8430   23.3880 C   0  0  0  0  0  0  0  0  0  0  0  0
  -18.9000  -30.1090   23.9790 C   0  0  0  0  0  3  0  0  0  0  0  0
  -17.6010  -30.6230   24.1540 C   0  0  0  0  0  3  0  0  0  0  0  0
  -16.4860  -29.8690   23.7480 C   0  0  0  0  0  3  0  0  0  0  0  0
  -16.6730  -28.6060   23.1610 C   0  0  0  0  0  3  0  0  0  0  0  0
  -25.8580  -32.4480   23.8370 C   0  0  0  0  0  3  0  0  0  0  0  0
  -25.5530  -33.8420   24.1860 N   0  0  0  0  0  0  0  0  0  0  0  0
  -25.8670  -34.9030   23.4310 C   0  0  0  0  0  0  0  0  0  0  0  0
  -26.5160  -34.8100   22.3850 O   0  0  0  0  0  0  0  0  0  0  0  0
  -24.9740  -33.9880   25.0010 H   0  0  0  0  0  0  0  0  0  0  0  0
  -24.1250  -36.6930   23.1300 C   0  0  0  0  0  1  0  0  0  0  0  0
  -25.3860  -36.2860   23.9110 C   0  0  0  0  0  3  0  0  0  0  0  0
  -27.5360  -37.1710   24.7020 C   0  0  0  0  0  1  0  0  0  0  0  0
  -26.4130  -37.3420   23.7840 N   0  0  0  0  0  0  0  0  0  0  0  0
  -26.0070  -38.2600   23.9480 H   0  0  0  0  0  0  0  0  0  0  0  0
  -26.3890  -31.6620   25.0990 C   0  0  1  0  0  0  0  0  0  0  0  0
  -25.3090  -31.4130   26.1780 C   0  0  0  0  0  1  0  0  0  0  0  0
  -26.9670  -30.2900   24.6850 C   0  0  0  0  0  1  0  0  0  0  0  0
  -27.5490  -32.4490   25.7540 C   0  0  0  0  0  1  0  0  0  0  0  0
  -29.6080  -20.7750   20.4830 C   0  0  0  0  0  2  0  0  0  0  0  0
  -28.0250  -19.2210   19.5570 C   0  0  0  0  0  1  0  0  0  0  0  0
  -29.4460  -19.4280   19.8460 N   0  0  0  0  0  0  0  0  0  0  0  0
  -29.9470  -18.2820   20.6630 C   0  0  0  0  0  3  0  0  0  0  0  0
  -30.1610  -16.9210   19.8690 C   0  0  0  0  0  3  0  0  0  0  0  0
  -30.9770  -14.5480   20.0910 C   0  0  0  0  0  0  0  0  0  0  0  0
  -30.5890  -12.3870   18.9290 C   0  0  0  0  0  2  0  0  0  0  0  0
  -29.5900  -12.6010   17.7720 C   0  0  0  0  0  2  0  0  0  0  0  0
  -28.1380  -12.4700   18.2720 C   0  0  0  0  0  2  0  0  0  0  0  0
  -27.8770  -13.2920   19.5630 C   0  0  0  0  0  3  0  0  0  0  0  0
  -28.9840  -13.0540   20.6100 C   0  0  0  0  0  2  0  0  0  0  0  0
  -30.2760  -13.3740   19.9810 N   0  0  0  0  0  0  0  0  0  0  0  0
  -32.0640  -14.6950   19.5230 O   0  0  0  0  0  0  0  0  0  0  0  0
  -30.2870  -15.7410   22.0940 C   0  0  0  0  0  1  0  0  0  0  0  0
  -30.3290  -15.6310   20.6320 N   0  0  0  0  0  0  0  0  0  0  0  0
  -25.5390  -13.9230   20.4260 C   0  0  0  0  0  0  0  0  0  0  0  0
  -24.4770  -13.1630   20.8360 C   0  0  0  0  0  0  0  0  0  0  0  0
  -24.9060  -11.8030   20.7470 C   0  0  0  0  0  0  0  0  0  0  0  0
  -26.5490  -13.0270   20.1120 N   0  0  0  0  0  0  0  0  0  0  0  0
  -26.1750  -11.7450   20.3630 N   0  0  0  0  0  0  0  0  0  0  0  0
  -24.1630  -10.5520   20.9490 C   0  0  0  0  0  0  0  0  0  0  0  0
  -24.5980   -9.5760   21.8730 C   0  0  0  0  0  3  0  0  0  0  0  0
  -23.8590   -8.3890   22.0620 C   0  0  0  0  0  3  0  0  0  0  0  0
  -22.6690   -8.1700   21.3280 C   0  0  0  0  0  0  0  0  0  0  0  0
  -22.2520   -9.1330   20.3940 C   0  0  0  0  0  3  0  0  0  0  0  0
  -22.9920  -10.3120   20.2030 C   0  0  0  0  0  3  0  0  0  0  0  0
  -21.8990   -7.0370   21.4280 O   0  0  0  0  0  0  0  0  0  0  0  0
  -21.8240   -6.3190   22.5930 C   0  0  0  0  0  0  0  0  0  0  0  0
  -21.3890   -6.9020   23.8040 C   0  0  0  0  0  3  0  0  0  0  0  0
  -21.2600   -6.1100   24.9620 C   0  0  0  0  0  3  0  0  0  0  0  0
  -21.5550   -4.7340   24.9100 C   0  0  0  0  0  0  0  0  0  0  0  0
  -21.9810   -4.1490   23.7050 C   0  0  0  0  0  3  0  0  0  0  0  0
  -22.1120   -4.9390   22.5490 C   0  0  0  0  0  0  0  0  0  0  0  0
  -22.5040   -4.3660   21.3860 F   0  0  0  0  0  0  0  0  0  0  0  0
  -21.4230   -3.9710   26.0210 F   0  0  0  0  0  0  0  0  0  0  0  0
  -23.1080  -13.6630   21.1980 C   0  0  0  0  0  0  0  0  0  0  0  0
  -22.4160  -12.9640   22.0920 N   0  0  0  0  0  0  0  0  0  0  0  0
  -22.6620  -14.7060   20.7230 O   0  0  0  0  0  0  0  0  0  0  0  0
  -22.7910  -12.1200   22.5000 H   0  0  0  0  0  0  0  0  0  0  0  0
  -21.4970  -13.2760   22.3720 H   0  0  0  0  0  0  0  0  0  0  0  0
  -25.7260  -15.2940   20.2760 N   0  0  0  0  0  0  0  0  0  0  0  0
  -24.9870  -15.9650   20.4530 H   0  0  0  0  0  0  0  0  0  0  0  0
  -26.5810  -15.7200   19.9410 H   0  0  0  0  0  0  0  0  0  0  0  0
  1  5  1  0
  1  2  2  0
  2  6  1  0
  3  6  1  0
  3 50  1  0
  4  5  1  0
  5  3  1  0
  6  7  1  0
  8  2  1  0
  8  9  1  0
 10 21  2  0
 11  9  1  0
 11 16  1  0
 12 20  1  0
 12 22  1  0
 13 19  1  0
 13 15  1  0
 14 20  1  0
 15 14  1  0
 16 15  2  0
 17 18  1  0
 17 11  2  0
 18 13  2  0
 19 12  1  0
 20 10  1  0
 22 24  2  0
 23 22  1  0
 25 23  1  0
 26 35  2  0
 26 31  1  0
 27 23  1  0
 27 31  1  0
 28 27  1  0
 29 30  1  0
 29 28  1  0
 30 26  1  0
 31 32  2  0
 32 33  1  0
 34 33  2  0
 35 34  1  0
 36 10  1  0
 36 37  1  0
 36 46  1  0
 37 40  1  0
 38 42  1  0
 38 37  1  0
 39 38  2  0
 42 41  1  0
 44 42  1  0
 44 45  1  0
 44 43  1  0
 46 49  1  1
 46 47  1  0
 48 46  1  0
 51 52  1  0
 52 50  1  0
 52 53  1  0
 54 64  1  0
 54 53  2  0
 55 64  1  0
 56 61  1  0
 57 58  1  0
 57 56  1  0
 59 58  1  0
 59 68  1  0
 59 60  1  0
 61 55  1  0
 61 60  1  0
 62 55  2  0
 64 63  1  0
 65 66  2  0
 66 85  1  0
 67 66  1  0
 67 70  1  0
 68 69  1  0
 68 65  1  0
 69 67  2  0
 70 71  1  0
 71 72  2  0
 73 76  1  0
 73 72  1  0
 74 73  2  0
 75 74  1  0
 75 70  2  0
 76 77  1  0
 77 78  1  0
 78 79  2  0
 80 79  1  0
 80 84  1  0
 81 80  2  0
 82 77  2  0
 82 81  1  0
 83 82  1  0
 85 86  1  0
 86 89  1  0
 86 88  1  0
 87 85  2  0
 90 65  1  0
 90 91  1  0
 92 90  1  0
M  ISO  4   8 101   9 101  55 100  64 100
M  END
>  <TORSDO>  (73) 
F 21

>  <SCORE>  (73) 
-12.970

>  <name>  (73) 
72

>  <ligand_id>  (73) 
72

>  <original_smiles>  (73) 
[H]c1c([H])c([H])c2c(c1[H])C([H])([H])C([H])([H])C([H])([H])C2([H])N([H])C(=O)C1([H])N(C(=O)C([H])(N([H])C(=O)C([H])(N([H])C([H])([H])[H])C([H])([H])[H])C(C([H])([H])[H])(C([H])([H])[H])C([H])([H])[H])C([H])([H])c2c([H])c(OC([H])([H])c3c([H])n(C([H])([H])[H])c(C([H])([H])N(C([H])([H])[H])C([H])([H])C([H])([H])N(C(=O)N4C([H])([H])C([H])([H])C([H])([H])C([H])(n5nc(-c6c([H])c([H])c(Oc7c([H])c([H])c(F)c([H])c7F)c([H])c6[H])c(C(=O)N([H])[H])c5N([H])[H])C4([H])[H])C([H])([H])[H])[n+]3[H])c([H])c([H])c2C1([H])[H]

>  <smiles>  (73) 
[H]c1c([H])c([H])c2c(c1[H])C([H])([H])C([H])([H])C([H])([H])C2([H])N([H])C(=O)C1([H])N(C(=O)C([H])(N([H])C(=O)C([H])(N([H])C([H])([H])[H])C([H])([H])[H])C(C([H])([H])[H])(C([H])([H])[H])C([H])([H])[H])C([H])([H])c2c([H])c(OC([H])([H])c3c([H])n(C([H])([H])[H])c(C([H])([H])N(C([H])([H])[H])C([H])([H])C([H])([H])N(C(=O)N4C([H])([H])C([H])([H])C([H])([H])C([H])(n5nc(-c6c([H])c([H])c(Oc7c([H])c([H])c(F)c([H])c7F)c([H])c6[H])c(C(=O)N([H])[H])c5N([H])[H])C4([H])[H])C([H])([H])[H])[n+]3[H])c([H])c([H])c2C1([H])[H]

$$$$
73:0:0
     RDKit          3D

 92100  0  0  1  0  0  0  0  0999 V2000
  -29.3780  -23.0330   21.1300 C   0  0  0  0  0  3  0  0  0  0  0  0
  -28.8070  -24.1260   20.3990 C   0  0  0  0  0  0  0  0  0  0  0  0
  -29.7010  -22.0620   20.2100 C   0  0  0  0  0  0  0  0  0  0  0  0
  -29.3870  -21.9830   17.6680 C   0  0  0  0  0  1  0  0  0  0  0  0
  -28.7540  -23.8280   19.1050 N   0  0  0  0  0  0  0  0  0  0  0  0
  -29.2980  -22.5850   18.9870 N   0  0  0  0  0  0  0  0  0  0  0  0
  -28.2180  -25.4270   20.9730 C   0  0  0  0  0  2  0  0  0  0  0  0
  -28.3460  -26.6390   20.1830 O   0  0  0  0  0  0  0  0  0  0  0  0
  -24.5260  -31.8740   23.2590 C   0  0  0  0  0  0  0  0  0  0  0  0
  -27.2120  -27.4310   20.1810 C   0  0  0  0  0  0  0  0  0  0  0  0
  -23.3380  -30.4630   21.6130 C   0  0  0  0  0  3  0  0  0  0  0  0
  -24.8100  -28.9380   20.1880 C   0  0  0  0  0  0  0  0  0  0  0  0
  -25.8650  -30.8360   21.4260 C   0  0  0  0  0  2  0  0  0  0  0  0
  -25.9660  -29.4650   20.7800 C   0  0  0  0  0  0  0  0  0  0  0  0
  -27.1740  -28.7210   20.7690 C   0  0  0  0  0  3  0  0  0  0  0  0
  -26.0410  -26.9290   19.5760 C   0  0  0  0  0  3  0  0  0  0  0  0
  -24.8440  -27.6710   19.5800 C   0  0  0  0  0  3  0  0  0  0  0  0
  -23.5570  -29.7840   20.2350 C   0  0  0  0  0  2  0  0  0  0  0  0
  -24.5950  -31.0730   22.1570 N   0  0  0  0  0  0  0  0  0  0  0  0
  -23.4400  -32.1370   23.7940 O   0  0  0  0  0  0  0  0  0  0  0  0
  -22.6910  -29.4380   22.5720 C   0  0  0  0  0  0  0  0  0  0  0  0
  -21.3660  -29.2510   22.4450 N   0  0  0  0  0  0  0  0  0  0  0  0
  -23.3780  -28.8150   23.3850 O   0  0  0  0  0  0  0  0  0  0  0  0
  -20.8760  -29.8060   21.7570 H   0  0  0  0  0  0  0  0  0  0  0  0
  -17.9990  -28.0330   22.9390 C   0  0  0  0  0  0  0  0  0  0  0  0
  -20.5550  -28.3050   23.2100 C   0  0  0  0  0  3  0  0  0  0  0  0
  -20.6660  -26.8770   22.6290 C   0  0  0  0  0  2  0  0  0  0  0  0
  -19.5650  -26.5520   21.6150 C   0  0  0  0  0  2  0  0  0  0  0  0
  -18.1830  -26.6870   22.2590 C   0  0  0  0  0  2  0  0  0  0  0  0
  -19.1130  -28.7990   23.3710 C   0  0  0  0  0  0  0  0  0  0  0  0
  -18.8880  -30.0590   23.9680 C   0  0  0  0  0  3  0  0  0  0  0  0
  -17.5800  -30.5540   24.1330 C   0  0  0  0  0  3  0  0  0  0  0  0
  -16.4790  -29.7840   23.7170 C   0  0  0  0  0  3  0  0  0  0  0  0
  -16.6900  -28.5250   23.1260 C   0  0  0  0  0  3  0  0  0  0  0  0
  -25.8030  -32.5170   23.8850 C   0  0  0  0  0  3  0  0  0  0  0  0
  -25.4860  -33.9180   24.1950 N   0  0  0  0  0  0  0  0  0  0  0  0
  -25.8290  -34.9630   23.4300 C   0  0  0  0  0  0  0  0  0  0  0  0
  -26.5160  -34.8500   22.4110 O   0  0  0  0  0  0  0  0  0  0  0  0
  -24.8790  -34.0790   24.9850 H   0  0  0  0  0  0  0  0  0  0  0  0
  -24.1070  -36.7480   23.0290 C   0  0  0  0  0  1  0  0  0  0  0  0
  -25.3330  -36.3540   23.8670 C   0  0  0  0  0  3  0  0  0  0  0  0
  -27.4540  -37.2440   24.7260 C   0  0  0  0  0  1  0  0  0  0  0  0
  -26.3680  -37.4060   23.7630 N   0  0  0  0  0  0  0  0  0  0  0  0
  -25.9600  -38.3260   23.8990 H   0  0  0  0  0  0  0  0  0  0  0  0
  -26.3110  -31.7620   25.1740 C   0  0  1  0  0  0  0  0  0  0  0  0
  -25.2100  -31.5280   26.2340 C   0  0  0  0  0  1  0  0  0  0  0  0
  -26.9050  -30.3830   24.8000 C   0  0  0  0  0  1  0  0  0  0  0  0
  -27.4520  -32.5690   25.8370 C   0  0  0  0  0  1  0  0  0  0  0  0
  -30.4170  -20.7150   20.4100 C   0  0  0  0  0  2  0  0  0  0  0  0
  -28.2830  -19.4430   20.4990 C   0  0  0  0  0  1  0  0  0  0  0  0
  -29.7060  -19.4300   20.0710 N   0  0  2  0  0  4  0  0  0  0  0  0
  -29.7000  -19.3840   19.0620 H   0  0  0  0  0  0  0  0  0  0  0  0
  -30.4450  -18.2030   20.5640 C   0  0  0  0  0  3  0  0  0  0  0  0
  -29.9000  -16.8110   20.0690 C   0  0  0  0  0  3  0  0  0  0  0  0
  -31.0750  -14.5730   20.0510 C   0  0  0  0  0  0  0  0  0  0  0  0
  -30.7010  -12.3940   18.9290 C   0  0  0  0  0  2  0  0  0  0  0  0
  -29.7330  -12.5790   17.7430 C   0  0  0  0  0  2  0  0  0  0  0  0
  -28.2670  -12.4760   18.2090 C   0  0  0  0  0  2  0  0  0  0  0  0
  -27.9780  -13.3580   19.4520 C   0  0  0  0  0  3  0  0  0  0  0  0
  -29.0480  -13.1320   20.5410 C   0  0  0  0  0  2  0  0  0  0  0  0
  -30.3700  -13.4050   19.9480 N   0  0  0  0  0  0  0  0  0  0  0  0
  -32.1360  -14.7610   19.4490 O   0  0  0  0  0  0  0  0  0  0  0  0
  -30.5500  -15.6320   22.1840 C   0  0  0  0  0  1  0  0  0  0  0  0
  -30.4650  -15.5920   20.7200 N   0  0  0  0  0  0  0  0  0  0  0  0
  -25.6220  -14.0590   20.2130 C   0  0  0  0  0  0  0  0  0  0  0  0
  -24.5370  -13.3300   20.6190 C   0  0  0  0  0  0  0  0  0  0  0  0
  -24.9490  -11.9620   20.5930 C   0  0  0  0  0  0  0  0  0  0  0  0
  -26.6290  -13.1380   19.9670 N   0  0  0  0  0  0  0  0  0  0  0  0
  -26.2290  -11.8720   20.2520 N   0  0  0  0  0  0  0  0  0  0  0  0
  -24.1830  -10.7290   20.8160 C   0  0  0  0  0  0  0  0  0  0  0  0
  -24.5780   -9.7790   21.7840 C   0  0  0  0  0  3  0  0  0  0  0  0
  -23.8150   -8.6100   21.9910 C   0  0  0  0  0  3  0  0  0  0  0  0
  -22.6430   -8.3820   21.2310 C   0  0  0  0  0  0  0  0  0  0  0  0
  -22.2670   -9.3210   20.2530 C   0  0  0  0  0  3  0  0  0  0  0  0
  -23.0300  -10.4810   20.0440 C   0  0  0  0  0  3  0  0  0  0  0  0
  -21.8550   -7.2630   21.3470 O   0  0  0  0  0  0  0  0  0  0  0  0
  -21.7330   -6.5880   22.5350 C   0  0  0  0  0  0  0  0  0  0  0  0
  -21.2820   -7.2230   23.7110 C   0  0  0  0  0  3  0  0  0  0  0  0
  -21.1060   -6.4750   24.8930 C   0  0  0  0  0  3  0  0  0  0  0  0
  -21.3720   -5.0920   24.8970 C   0  0  0  0  0  0  0  0  0  0  0  0
  -21.8160   -4.4570   23.7250 C   0  0  0  0  0  3  0  0  0  0  0  0
  -21.9940   -5.2020   22.5460 C   0  0  0  0  0  0  0  0  0  0  0  0
  -22.4020   -4.5800   21.4140 F   0  0  0  0  0  0  0  0  0  0  0  0
  -21.1950   -4.3720   26.0290 F   0  0  0  0  0  0  0  0  0  0  0  0
  -23.1660  -13.8610   20.9200 C   0  0  0  0  0  0  0  0  0  0  0  0
  -22.4390  -13.2070   21.8200 N   0  0  0  0  0  0  0  0  0  0  0  0
  -22.7460  -14.8900   20.3920 O   0  0  0  0  0  0  0  0  0  0  0  0
  -22.7920  -12.3750   22.2700 H   0  0  0  0  0  0  0  0  0  0  0  0
  -21.5190  -13.5430   22.0620 H   0  0  0  0  0  0  0  0  0  0  0  0
  -25.8320  -15.4200   20.0140 N   0  0  0  0  0  0  0  0  0  0  0  0
  -25.0880  -16.1010   20.1200 H   0  0  0  0  0  0  0  0  0  0  0  0
  -26.6820  -15.8150   19.6340 H   0  0  0  0  0  0  0  0  0  0  0  0
  2  7  1  0
  2  1  1  0
  3 49  1  0
  3  1  2  0
  4  6  1  0
  5  2  2  0
  6  5  1  0
  6  3  1  0
  8  7  1  0
  9 20  2  0
 10  8  1  0
 10 15  1  0
 11 19  1  0
 11 21  1  0
 12 18  1  0
 12 14  1  0
 13 19  1  0
 14 13  1  0
 15 14  2  0
 16 17  1  0
 16 10  2  0
 17 12  2  0
 18 11  1  0
 19  9  1  0
 21 23  2  0
 22 21  1  0
 24 22  1  0
 25 34  2  0
 25 30  1  0
 26 22  1  0
 26 30  1  0
 27 26  1  0
 28 29  1  0
 28 27  1  0
 29 25  1  0
 30 31  2  0
 31 32  1  0
 33 32  2  0
 34 33  1  0
 35  9  1  0
 35 36  1  0
 35 45  1  0
 36 39  1  0
 37 41  1  0
 37 36  1  0
 38 37  2  0
 41 40  1  0
 43 41  1  0
 43 44  1  0
 43 42  1  0
 45 48  1  1
 45 46  1  0
 47 45  1  0
 51 49  1  0
 51 50  1  0
 51 53  1  0
 51 52  1  6
 54 53  2  0
 54 64  1  0
 55 64  1  0
 56 61  1  0
 57 58  1  0
 57 56  1  0
 59 58  1  0
 59 68  1  0
 59 60  1  0
 61 55  1  0
 61 60  1  0
 62 55  2  0
 64 63  1  0
 65 66  2  0
 66 85  1  0
 67 66  1  0
 67 70  1  0
 68 65  1  0
 68 69  1  0
 69 67  2  0
 70 71  1  0
 71 72  2  0
 73 76  1  0
 73 72  1  0
 74 73  2  0
 75 74  1  0
 75 70  2  0
 76 77  1  0
 77 82  2  0
 77 78  1  0
 78 79  2  0
 79 80  1  0
 80 84  1  0
 81 80  2  0
 82 81  1  0
 83 82  1  0
 85 86  1  0
 86 89  1  0
 86 88  1  0
 87 85  2  0
 90 91  1  0
 90 65  1  0
 92 90  1  0
M  ISO  4   7 101   8 101  55 100  64 100
M  END
>  <TORSDO>  (74) 
F 21

>  <SCORE>  (74) 
-12.849

>  <name>  (74) 
73

>  <ligand_id>  (74) 
73

>  <original_smiles>  (74) 
[H]c1c([H])c([H])c2c(c1[H])C([H])([H])C([H])([H])C([H])([H])C2([H])N([H])C(=O)C1([H])N(C(=O)C([H])(N([H])C(=O)C([H])(N([H])C([H])([H])[H])C([H])([H])[H])C(C([H])([H])[H])(C([H])([H])[H])C([H])([H])[H])C([H])([H])c2c([H])c(OC([H])([H])c3nn(C([H])([H])[H])c(C([H])([H])[N+]([H])(C([H])([H])[H])C([H])([H])C([H])([H])N(C(=O)N4C([H])([H])C([H])([H])C([H])([H])C([H])(n5nc(-c6c([H])c([H])c(Oc7c([H])c([H])c(F)c([H])c7F)c([H])c6[H])c(C(=O)N([H])[H])c5N([H])[H])C4([H])[H])C([H])([H])[H])c3[H])c([H])c([H])c2C1([H])[H]

>  <smiles>  (74) 
[H]c1c([H])c([H])c2c(c1[H])C([H])([H])C([H])([H])C([H])([H])C2([H])N([H])C(=O)C1([H])N(C(=O)C([H])(N([H])C(=O)C([H])(N([H])C([H])([H])[H])C([H])([H])[H])C(C([H])([H])[H])(C([H])([H])[H])C([H])([H])[H])C([H])([H])c2c([H])c(OC([H])([H])c3nn(C([H])([H])[H])c(C([H])([H])[N+]([H])(C([H])([H])[H])C([H])([H])C([H])([H])N(C(=O)N4C([H])([H])C([H])([H])C([H])([H])C([H])(n5nc(-c6c([H])c([H])c(Oc7c([H])c([H])c(F)c([H])c7F)c([H])c6[H])c(C(=O)N([H])[H])c5N([H])[H])C4([H])[H])C([H])([H])[H])c3[H])c([H])c([H])c2C1([H])[H]

$$$$
74:0:0
     RDKit          3D

 91 99  0  0  1  0  0  0  0  0999 V2000
  -29.7340  -20.2980   19.2640 C   0  0  0  0  0  3  0  0  0  0  0  0
  -30.2420  -20.0190   21.3410 C   0  0  0  0  0  3  0  0  0  0  0  0
  -29.4990  -21.4830   19.9420 C   0  0  0  0  0  0  0  0  0  0  0  0
  -29.8180  -21.2840   21.2830 N   0  0  0  0  0  0  0  0  0  0  0  0
  -30.1740  -19.3350   20.1850 N   0  0  0  0  0  0  0  0  0  0  0  0
  -30.0000  -17.4220   18.6080 C   0  0  0  0  0  1  0  0  0  0  0  0
  -32.1280  -17.9410   19.8620 C   0  0  0  0  0  1  0  0  0  0  0  0
  -30.5890  -17.9230   19.9460 C   0  0  1  0  0  0  0  0  0  0  0  0
  -30.1160  -16.9890   21.1270 C   0  0  0  0  0  2  0  0  0  0  0  0
  -30.6490  -14.5180   20.5100 C   0  0  0  0  0  0  0  0  0  0  0  0
  -30.3830  -12.3540   19.3550 C   0  0  0  0  0  2  0  0  0  0  0  0
  -29.4500  -12.5600   18.1440 C   0  0  0  0  0  2  0  0  0  0  0  0
  -27.9670  -12.4290   18.5520 C   0  0  0  0  0  2  0  0  0  0  0  0
  -27.6190  -13.2630   19.8140 C   0  0  0  0  0  3  0  0  0  0  0  0
  -28.6610  -13.0260   20.9300 C   0  0  0  0  0  2  0  0  0  0  0  0
  -29.9910  -13.3340   20.3770 N   0  0  0  0  0  0  0  0  0  0  0  0
  -31.8190  -14.6720   20.1580 O   0  0  0  0  0  0  0  0  0  0  0  0
  -29.8580  -15.5460   20.8810 N   0  0  0  0  0  0  0  0  0  0  0  0
  -28.9140  -15.2530   21.0780 H   0  0  0  0  0  0  0  0  0  0  0  0
  -25.2170  -13.8970   20.4820 C   0  0  0  0  0  0  0  0  0  0  0  0
  -24.1370  -13.1380   20.8460 C   0  0  0  0  0  0  0  0  0  0  0  0
  -24.5890  -11.7830   20.8390 C   0  0  0  0  0  0  0  0  0  0  0  0
  -26.2580  -13.0040   20.2760 N   0  0  0  0  0  0  0  0  0  0  0  0
  -25.8820  -11.7300   20.5490 N   0  0  0  0  0  0  0  0  0  0  0  0
  -23.8510  -10.5280   21.0340 C   0  0  0  0  0  0  0  0  0  0  0  0
  -24.2770   -9.5590   21.9710 C   0  0  0  0  0  3  0  0  0  0  0  0
  -23.5430   -8.3680   22.1520 C   0  0  0  0  0  3  0  0  0  0  0  0
  -22.3700   -8.1360   21.3970 C   0  0  0  0  0  0  0  0  0  0  0  0
  -21.9630   -9.0910   20.4490 C   0  0  0  0  0  3  0  0  0  0  0  0
  -22.6980  -10.2740   20.2660 C   0  0  0  0  0  3  0  0  0  0  0  0
  -21.6060   -6.9960   21.4870 O   0  0  0  0  0  0  0  0  0  0  0  0
  -21.5610   -6.2500   22.6370 C   0  0  0  0  0  0  0  0  0  0  0  0
  -21.1690   -6.8070   23.8730 C   0  0  0  0  0  3  0  0  0  0  0  0
  -21.0710   -5.9870   25.0150 C   0  0  0  0  0  3  0  0  0  0  0  0
  -21.3530   -4.6110   24.9220 C   0  0  0  0  0  0  0  0  0  0  0  0
  -21.7380   -4.0540   23.6900 C   0  0  0  0  0  3  0  0  0  0  0  0
  -21.8390   -4.8700   22.5510 C   0  0  0  0  0  0  0  0  0  0  0  0
  -22.1900   -4.3230   21.3610 F   0  0  0  0  0  0  0  0  0  0  0  0
  -21.2530   -3.8220   26.0170 F   0  0  0  0  0  0  0  0  0  0  0  0
  -22.7390  -13.6280   21.0890 C   0  0  0  0  0  0  0  0  0  0  0  0
  -21.9900  -12.9500   21.9520 N   0  0  0  0  0  0  0  0  0  0  0  0
  -22.3150  -14.6480   20.5460 O   0  0  0  0  0  0  0  0  0  0  0  0
  -22.3430  -12.1280   22.4190 H   0  0  0  0  0  0  0  0  0  0  0  0
  -21.0500  -13.2630   22.1540 H   0  0  0  0  0  0  0  0  0  0  0  0
  -25.3970  -15.2640   20.2870 N   0  0  0  0  0  0  0  0  0  0  0  0
  -24.6340  -15.9300   20.3620 H   0  0  0  0  0  0  0  0  0  0  0  0
  -26.2490  -15.6820   19.9370 H   0  0  0  0  0  0  0  0  0  0  0  0
  -28.8150  -22.7430   19.4310 C   0  0  0  0  0  2  0  0  0  0  0  0
  -29.2440  -24.1290   20.0230 C   0  0  0  0  0  2  0  0  0  0  0  0
  -28.1840  -25.2130   19.6680 C   0  0  0  0  0  2  0  0  0  0  0  0
  -28.3420  -26.5830   20.1350 O   0  0  0  0  0  0  0  0  0  0  0  0
  -24.6010  -31.8790   23.2470 C   0  0  0  0  0  0  0  0  0  0  0  0
  -27.1930  -27.3790   20.1230 C   0  0  0  0  0  0  0  0  0  0  0  0
  -23.3780  -30.4840   21.6160 C   0  0  0  0  0  3  0  0  0  0  0  0
  -24.8130  -28.9480   20.1720 C   0  0  0  0  0  0  0  0  0  0  0  0
  -25.9110  -30.8130   21.4080 C   0  0  0  0  0  2  0  0  0  0  0  0
  -25.9850  -29.4400   20.7590 C   0  0  0  0  0  0  0  0  0  0  0  0
  -27.1760  -28.6640   20.7360 C   0  0  0  0  0  3  0  0  0  0  0  0
  -25.9930  -26.9350   19.5120 C   0  0  0  0  0  3  0  0  0  0  0  0
  -24.8140  -27.6960   19.5450 C   0  0  0  0  0  3  0  0  0  0  0  0
  -23.5770  -29.8160   20.2310 C   0  0  0  0  0  2  0  0  0  0  0  0
  -24.6490  -31.0740   22.1480 N   0  0  0  0  0  0  0  0  0  0  0  0
  -23.5230  -32.1560   23.7940 O   0  0  0  0  0  0  0  0  0  0  0  0
  -22.7290  -29.4600   22.5780 C   0  0  0  0  0  0  0  0  0  0  0  0
  -21.4050  -29.2810   22.4610 N   0  0  0  0  0  0  0  0  0  0  0  0
  -23.4180  -28.8380   23.3920 O   0  0  0  0  0  0  0  0  0  0  0  0
  -20.9080  -29.8410   21.7830 H   0  0  0  0  0  0  0  0  0  0  0  0
  -18.0330  -28.0680   22.9690 C   0  0  0  0  0  0  0  0  0  0  0  0
  -20.5910  -28.3420   23.2380 C   0  0  0  0  0  3  0  0  0  0  0  0
  -20.6990  -26.9090   22.6710 C   0  0  0  0  0  2  0  0  0  0  0  0
  -19.5980  -26.5720   21.6600 C   0  0  0  0  0  2  0  0  0  0  0  0
  -18.2170  -26.7140   22.3050 C   0  0  0  0  0  2  0  0  0  0  0  0
  -19.1480  -28.8390   23.3940 C   0  0  0  0  0  0  0  0  0  0  0  0
  -18.9230  -30.1050   23.9740 C   0  0  0  0  0  3  0  0  0  0  0  0
  -17.6170  -30.6010   24.1400 C   0  0  0  0  0  3  0  0  0  0  0  0
  -16.5160  -29.8290   23.7280 C   0  0  0  0  0  3  0  0  0  0  0  0
  -16.7260  -28.5660   23.1480 C   0  0  0  0  0  3  0  0  0  0  0  0
  -25.8940  -32.5070   23.8560 C   0  0  0  0  0  3  0  0  0  0  0  0
  -25.5900  -33.9050   24.1920 N   0  0  0  0  0  0  0  0  0  0  0  0
  -25.9120  -34.9570   23.4290 C   0  0  0  0  0  0  0  0  0  0  0  0
  -26.5690  -34.8530   22.3890 O   0  0  0  0  0  0  0  0  0  0  0  0
  -25.0060  -34.0560   25.0020 H   0  0  0  0  0  0  0  0  0  0  0  0
  -24.1800  -36.7500   23.0920 C   0  0  0  0  0  1  0  0  0  0  0  0
  -25.4290  -36.3450   23.8920 C   0  0  0  0  0  3  0  0  0  0  0  0
  -27.5760  -37.2250   24.6960 C   0  0  0  0  0  1  0  0  0  0  0  0
  -26.4590  -37.4000   23.7700 N   0  0  0  0  0  0  0  0  0  0  0  0
  -26.0550  -38.3190   23.9300 H   0  0  0  0  0  0  0  0  0  0  0  0
  -26.4200  -31.7320   25.1250 C   0  0  1  0  0  0  0  0  0  0  0  0
  -25.3400  -31.4980   26.2060 C   0  0  0  0  0  1  0  0  0  0  0  0
  -26.9940  -30.3510   24.7270 C   0  0  0  0  0  1  0  0  0  0  0  0
  -27.5800  -32.5200   25.7770 C   0  0  0  0  0  1  0  0  0  0  0  0
  1  3  2  0
  1  5  1  0
  3  4  1  0
  4  2  2  0
  5  2  1  0
  8  6  1  6
  7  8  1  0
  8  5  1  0
  8  9  1  0
 10 18  1  0
 11 16  1  0
 12 13  1  0
 12 11  1  0
 14 13  1  0
 14 23  1  0
 14 15  1  0
 16 10  1  0
 16 15  1  0
 17 10  2  0
 18 19  1  0
 18  9  1  0
 20 21  2  0
 21 40  1  0
 22 21  1  0
 22 25  1  0
 23 20  1  0
 23 24  1  0
 24 22  2  0
 25 26  1  0
 26 27  2  0
 28 31  1  0
 28 27  1  0
 29 28  2  0
 30 29  1  0
 30 25  2  0
 31 32  1  0
 32 33  1  0
 33 34  2  0
 35 34  1  0
 35 39  1  0
 36 35  2  0
 37 32  2  0
 37 36  1  0
 38 37  1  0
 40 41  1  0
 41 44  1  0
 41 43  1  0
 42 40  2  0
 45 46  1  0
 45 20  1  0
 47 45  1  0
 48  3  1  0
 48 49  1  0
 50 49  1  0
 50 51  1  0
 52 63  2  0
 53 51  1  0
 53 58  1  0
 54 62  1  0
 54 64  1  0
 55 61  1  0
 55 57  1  0
 56 62  1  0
 57 56  1  0
 58 57  2  0
 59 60  1  0
 59 53  2  0
 60 55  2  0
 61 54  1  0
 62 52  1  0
 64 66  2  0
 65 64  1  0
 67 65  1  0
 68 77  2  0
 68 73  1  0
 69 65  1  0
 69 73  1  0
 70 69  1  0
 71 72  1  0
 71 70  1  0
 72 68  1  0
 73 74  2  0
 74 75  1  0
 76 75  2  0
 77 76  1  0
 78 52  1  0
 78 79  1  0
 78 88  1  0
 79 82  1  0
 80 84  1  0
 80 79  1  0
 81 80  2  0
 84 83  1  0
 86 84  1  0
 86 87  1  0
 86 85  1  0
 88 91  1  1
 88 89  1  0
 90 88  1  0
M  ISO  4  10 100  18 100  50 101  51 101
M  END
>  <TORSDO>  (75) 
F 21

>  <SCORE>  (75) 
-13.499

>  <name>  (75) 
74

>  <ligand_id>  (75) 
74

>  <original_smiles>  (75) 
[H]c1c([H])c([H])c2c(c1[H])C([H])([H])C([H])([H])C([H])([H])C2([H])N([H])C(=O)C1([H])N(C(=O)C([H])(N([H])C(=O)C([H])(N([H])C([H])([H])[H])C([H])([H])[H])C(C([H])([H])[H])(C([H])([H])[H])C([H])([H])[H])C([H])([H])c2c([H])c(OC([H])([H])C([H])([H])C([H])([H])c3nc([H])n(C(C([H])([H])[H])(C([H])([H])[H])C([H])([H])N([H])C(=O)N4C([H])([H])C([H])([H])C([H])([H])C([H])(n5nc(-c6c([H])c([H])c(Oc7c([H])c([H])c(F)c([H])c7F)c([H])c6[H])c(C(=O)N([H])[H])c5N([H])[H])C4([H])[H])c3[H])c([H])c([H])c2C1([H])[H]

>  <smiles>  (75) 
[H]c1c([H])c([H])c2c(c1[H])C([H])([H])C([H])([H])C([H])([H])C2([H])N([H])C(=O)C1([H])N(C(=O)C([H])(N([H])C(=O)C([H])(N([H])C([H])([H])[H])C([H])([H])[H])C(C([H])([H])[H])(C([H])([H])[H])C([H])([H])[H])C([H])([H])c2c([H])c(OC([H])([H])C([H])([H])C([H])([H])c3nc([H])n(C(C([H])([H])[H])(C([H])([H])[H])C([H])([H])N([H])C(=O)N4C([H])([H])C([H])([H])C([H])([H])C([H])(n5nc(-c6c([H])c([H])c(Oc7c([H])c([H])c(F)c([H])c7F)c([H])c6[H])c(C(=O)N([H])[H])c5N([H])[H])C4([H])[H])c3[H])c([H])c([H])c2C1([H])[H]

$$$$
75:0:0
     RDKit          3D

 85 93  0  0  1  0  0  0  0  0999 V2000
  -30.2040  -21.4630   20.2570 C   0  0  0  0  0  3  0  0  0  0  0  0
  -28.4570  -20.4480   20.1100 C   0  0  0  0  0  3  0  0  0  0  0  0
  -28.8170  -21.9230   20.1700 C   0  0  0  0  0  0  0  0  0  0  0  0
  -30.5260  -20.0880   20.2710 N   0  0  0  0  0  0  0  0  0  0  0  0
  -29.4470  -19.2250   20.1330 N   0  0  0  0  0  0  0  0  0  0  0  0
  -29.3150  -17.2800   21.8600 C   0  0  0  0  0  1  0  0  0  0  0  0
  -29.4390  -17.4010   20.3310 C   0  0  0  0  0  3  0  0  0  0  0  0
  -30.2810  -15.7440   19.8730 C   0  0  0  0  0  0  0  0  0  0  0  0
  -30.3560  -13.2060   18.9380 C   0  0  0  0  0  2  0  0  0  0  0  0
  -29.3680  -12.8560   17.7810 C   0  0  0  0  0  2  0  0  0  0  0  0
  -27.9810  -12.4760   18.3220 C   0  0  0  0  0  2  0  0  0  0  0  0
  -27.5610  -13.4210   19.4680 C   0  0  0  0  0  3  0  0  0  0  0  0
  -28.6770  -13.6790   20.5080 C   0  0  0  0  0  2  0  0  0  0  0  0
  -29.8070  -14.3460   19.8120 N   0  0  0  0  0  0  0  0  0  0  0  0
  -31.4760  -15.7040   19.5110 O   0  0  0  0  0  0  0  0  0  0  0  0
  -25.2670  -13.9120   20.4380 C   0  0  0  0  0  0  0  0  0  0  0  0
  -24.2420  -13.1170   20.8600 C   0  0  0  0  0  0  0  0  0  0  0  0
  -24.7090  -11.7710   20.7440 C   0  0  0  0  0  0  0  0  0  0  0  0
  -26.2900  -13.0560   20.0780 N   0  0  0  0  0  0  0  0  0  0  0  0
  -25.9740  -11.7570   20.3290 N   0  0  0  0  0  0  0  0  0  0  0  0
  -23.9980  -10.5000   20.9480 C   0  0  0  0  0  0  0  0  0  0  0  0
  -24.4620   -9.5290   21.8630 C   0  0  0  0  0  3  0  0  0  0  0  0
  -23.7470   -8.3270   22.0570 C   0  0  0  0  0  3  0  0  0  0  0  0
  -22.5520   -8.0880   21.3380 C   0  0  0  0  0  0  0  0  0  0  0  0
  -22.1060   -9.0470   20.4120 C   0  0  0  0  0  3  0  0  0  0  0  0
  -22.8220  -10.2400   20.2160 C   0  0  0  0  0  3  0  0  0  0  0  0
  -21.8050   -6.9390   21.4420 O   0  0  0  0  0  0  0  0  0  0  0  0
  -21.7430   -6.2240   22.6110 C   0  0  0  0  0  0  0  0  0  0  0  0
  -21.2960   -6.8070   23.8180 C   0  0  0  0  0  3  0  0  0  0  0  0
  -21.1810   -6.0170   24.9800 C   0  0  0  0  0  3  0  0  0  0  0  0
  -21.5040   -4.6480   24.9370 C   0  0  0  0  0  0  0  0  0  0  0  0
  -21.9440   -4.0650   23.7350 C   0  0  0  0  0  3  0  0  0  0  0  0
  -22.0600   -4.8510   22.5760 C   0  0  0  0  0  0  0  0  0  0  0  0
  -22.4640   -4.2800   21.4150 F   0  0  0  0  0  0  0  0  0  0  0  0
  -21.3860   -3.8880   26.0510 F   0  0  0  0  0  0  0  0  0  0  0  0
  -22.8690  -13.5790   21.2490 C   0  0  0  0  0  0  0  0  0  0  0  0
  -22.2130  -12.8630   22.1550 N   0  0  0  0  0  0  0  0  0  0  0  0
  -22.3890  -14.6120   20.7840 O   0  0  0  0  0  0  0  0  0  0  0  0
  -22.6170  -12.0280   22.5530 H   0  0  0  0  0  0  0  0  0  0  0  0
  -21.2950  -13.1560   22.4570 H   0  0  0  0  0  0  0  0  0  0  0  0
  -25.4110  -15.2900   20.2980 N   0  0  0  0  0  0  0  0  0  0  0  0
  -24.6510  -15.9330   20.4960 H   0  0  0  0  0  0  0  0  0  0  0  0
  -26.2250  -15.7480   19.9110 H   0  0  0  0  0  0  0  0  0  0  0  0
  -27.9470  -23.6550   20.1280 C   0  0  0  0  0  2  0  0  0  0  0  0
  -28.2090  -25.4150   20.2920 O   0  0  0  0  0  0  0  0  0  0  0  0
  -24.6920  -31.7940   23.1710 C   0  0  0  0  0  0  0  0  0  0  0  0
  -27.2520  -26.6620   20.2270 C   0  0  0  0  0  0  0  0  0  0  0  0
  -23.5240  -30.3890   21.5280 C   0  0  0  0  0  3  0  0  0  0  0  0
  -24.9880  -28.7280   20.1390 C   0  0  0  0  0  0  0  0  0  0  0  0
  -26.1070  -30.5180   21.4370 C   0  0  0  0  0  2  0  0  0  0  0  0
  -26.1790  -29.0780   20.7860 C   0  0  0  0  0  0  0  0  0  0  0  0
  -27.2940  -28.0740   20.7940 C   0  0  0  0  0  3  0  0  0  0  0  0
  -26.0250  -26.5390   19.5210 C   0  0  0  0  0  3  0  0  0  0  0  0
  -24.9530  -27.4860   19.4820 C   0  0  0  0  0  3  0  0  0  0  0  0
  -23.7820  -29.6850   20.1640 C   0  0  0  0  0  2  0  0  0  0  0  0
  -24.7990  -30.9340   22.0980 N   0  0  0  0  0  0  0  0  0  0  0  0
  -23.5920  -32.0960   23.6670 O   0  0  0  0  0  0  0  0  0  0  0  0
  -22.7930  -29.4190   22.4950 C   0  0  0  0  0  0  0  0  0  0  0  0
  -21.4600  -29.2740   22.3620 N   0  0  0  0  0  0  0  0  0  0  0  0
  -23.4380  -28.7930   23.3390 O   0  0  0  0  0  0  0  0  0  0  0  0
  -20.9880  -29.8290   21.6620 H   0  0  0  0  0  0  0  0  0  0  0  0
  -18.0630  -28.0740   22.8550 C   0  0  0  0  0  0  0  0  0  0  0  0
  -20.6220  -28.3420   23.1310 C   0  0  0  0  0  3  0  0  0  0  0  0
  -20.7240  -26.9070   22.5620 C   0  0  0  0  0  2  0  0  0  0  0  0
  -19.6290  -26.5850   21.5410 C   0  0  0  0  0  2  0  0  0  0  0  0
  -18.2430  -26.7280   22.1760 C   0  0  0  0  0  2  0  0  0  0  0  0
  -19.1790  -28.8400   23.2890 C   0  0  0  0  0  0  0  0  0  0  0  0
  -18.9520  -30.0970   23.8900 C   0  0  0  0  0  3  0  0  0  0  0  0
  -17.6440  -30.5910   24.0580 C   0  0  0  0  0  3  0  0  0  0  0  0
  -16.5440  -29.8240   23.6360 C   0  0  0  0  0  3  0  0  0  0  0  0
  -16.7530  -28.5680   23.0420 C   0  0  0  0  0  3  0  0  0  0  0  0
  -25.9460  -32.4490   23.8250 C   0  0  0  0  0  3  0  0  0  0  0  0
  -25.6130  -33.8480   24.1640 N   0  0  0  0  0  0  0  0  0  0  0  0
  -25.9380  -34.9200   23.4280 C   0  0  0  0  0  0  0  0  0  0  0  0
  -26.6050  -34.8360   22.3940 O   0  0  0  0  0  0  0  0  0  0  0  0
  -25.0180  -33.9850   24.9670 H   0  0  0  0  0  0  0  0  0  0  0  0
  -24.1910  -36.7140   23.1330 C   0  0  0  0  0  1  0  0  0  0  0  0
  -25.4510  -36.3030   23.9110 C   0  0  0  0  0  3  0  0  0  0  0  0
  -27.5930  -37.2060   24.7120 C   0  0  0  0  0  1  0  0  0  0  0  0
  -26.4730  -37.3680   23.7880 N   0  0  0  0  0  0  0  0  0  0  0  0
  -26.0610  -38.2840   23.9460 H   0  0  0  0  0  0  0  0  0  0  0  0
  -26.4330  -31.6900   25.1230 C   0  0  1  0  0  0  0  0  0  0  0  0
  -25.3170  -31.4620   26.1700 C   0  0  0  0  0  1  0  0  0  0  0  0
  -27.0240  -30.3080   24.7680 C   0  0  0  0  0  1  0  0  0  0  0  0
  -27.5690  -32.4890   25.8020 C   0  0  0  0  0  1  0  0  0  0  0  0
  1  4  2  0
  2  5  1  0
  2  3  2  0
  3  1  1  0
  5  4  1  0
  5  7  1  0
  7  6  1  0
  8  7  1  0
  9 14  1  0
 10 11  1  0
 10  9  1  0
 12 11  1  0
 12 19  1  0
 12 13  1  0
 14  8  1  0
 14 13  1  0
 15  8  2  0
 16 17  2  0
 17 36  1  0
 18 17  1  0
 18 21  1  0
 19 20  1  0
 19 16  1  0
 20 18  2  0
 21 22  1  0
 22 23  2  0
 24 27  1  0
 24 23  1  0
 25 24  2  0
 26 25  1  0
 26 21  2  0
 27 28  1  0
 28 29  1  0
 29 30  2  0
 31 30  1  0
 31 35  1  0
 32 31  2  0
 33 28  2  0
 33 32  1  0
 34 33  1  0
 36 37  1  0
 37 40  1  0
 37 39  1  0
 38 36  2  0
 41 16  1  0
 41 42  1  0
 43 41  1  0
 44  3  1  0
 44 45  1  0
 46 57  2  0
 47 45  1  0
 47 52  1  0
 48 56  1  0
 48 58  1  0
 49 55  1  0
 49 51  1  0
 50 56  1  0
 51 52  2  0
 51 50  1  0
 53 47  2  0
 54 53  1  0
 54 49  2  0
 55 48  1  0
 56 46  1  0
 58 60  2  0
 59 58  1  0
 61 59  1  0
 62 71  2  0
 62 67  1  0
 63 59  1  0
 63 67  1  0
 64 63  1  0
 65 66  1  0
 65 64  1  0
 66 62  1  0
 67 68  2  0
 68 69  1  0
 70 69  2  0
 71 70  1  0
 72 46  1  0
 72 73  1  0
 72 82  1  0
 73 76  1  0
 74 78  1  0
 74 73  1  0
 75 74  2  0
 78 77  1  0
 80 78  1  0
 80 81  1  0
 80 79  1  0
 82 85  1  1
 82 83  1  0
 84 82  1  0
M  ISO  4   7 100   8 100  44 101  45 101
M  END
>  <TORSDO>  (76) 
F 18

>  <SCORE>  (76) 
-15.649

>  <name>  (76) 
75

>  <ligand_id>  (76) 
75

>  <original_smiles>  (76) 
[H]c1nn(C([H])(C(=O)N2C([H])([H])C([H])([H])C([H])([H])C([H])(n3nc(-c4c([H])c([H])c(Oc5c([H])c([H])c(F)c([H])c5F)c([H])c4[H])c(C(=O)N([H])[H])c3N([H])[H])C2([H])[H])C([H])([H])[H])c([H])c1C([H])([H])Oc1c([H])c([H])c2c(c1[H])C([H])([H])N(C(=O)C([H])(N([H])C(=O)C([H])(N([H])C([H])([H])[H])C([H])([H])[H])C(C([H])([H])[H])(C([H])([H])[H])C([H])([H])[H])C([H])(C(=O)N([H])C1([H])c3c([H])c([H])c([H])c([H])c3C([H])([H])C([H])([H])C1([H])[H])C2([H])[H]

>  <smiles>  (76) 
[H]c1nn(C([H])(C(=O)N2C([H])([H])C([H])([H])C([H])([H])C([H])(n3nc(-c4c([H])c([H])c(Oc5c([H])c([H])c(F)c([H])c5F)c([H])c4[H])c(C(=O)N([H])[H])c3N([H])[H])C2([H])[H])C([H])([H])[H])c([H])c1C([H])([H])Oc1c([H])c([H])c2c(c1[H])C([H])([H])N(C(=O)C([H])(N([H])C(=O)C([H])(N([H])C([H])([H])[H])C([H])([H])[H])C(C([H])([H])[H])(C([H])([H])[H])C([H])([H])[H])C([H])(C(=O)N([H])C1([H])c3c([H])c([H])c([H])c([H])c3C([H])([H])C([H])([H])C1([H])[H])C2([H])[H]

$$$$
77:0:0
     RDKit          3D

 90 98  0  0  1  0  0  0  0  0999 V2000
  -28.9610  -21.1200   19.0970 C   0  0  0  0  0  0  0  0  0  0  0  0
  -29.2920  -21.8120   20.2510 C   0  0  0  0  0  0  0  0  0  0  0  0
  -29.7850  -19.4320   20.3670 C   0  0  0  0  0  0  0  0  0  0  0  0
  -30.4190  -20.8400   22.3510 C   0  0  0  0  0  1  0  0  0  0  0  0
  -29.2370  -19.7240   19.1800 N   0  0  0  0  0  0  0  0  0  0  0  0
  -29.8320  -20.6830   21.0330 N   0  0  0  0  0  0  0  0  0  0  0  0
  -27.0740  -21.2580   17.4240 C   0  0  0  0  0  1  0  0  0  0  0  0
  -28.4880  -21.7060   17.7990 C   0  0  0  0  0  2  0  0  0  0  0  0
  -29.3180  -23.4560   20.5630 C   0  0  0  0  0  3  0  0  0  0  0  0
  -28.2700  -24.7210   20.0860 C   0  0  0  0  0  3  0  0  0  0  0  0
  -28.4610  -26.2720   20.2920 O   0  0  0  0  0  0  0  0  0  0  0  0
  -24.7490  -31.9220   23.2810 C   0  0  0  0  0  0  0  0  0  0  0  0
  -27.3940  -27.2510   20.2090 C   0  0  0  0  0  0  0  0  0  0  0  0
  -23.5690  -30.5290   21.6220 C   0  0  0  0  0  3  0  0  0  0  0  0
  -25.0430  -28.9830   20.1820 C   0  0  0  0  0  0  0  0  0  0  0  0
  -26.1200  -30.8240   21.4660 C   0  0  0  0  0  2  0  0  0  0  0  0
  -26.2150  -29.4360   20.7990 C   0  0  0  0  0  0  0  0  0  0  0  0
  -27.3900  -28.5890   20.7900 C   0  0  0  0  0  3  0  0  0  0  0  0
  -26.1910  -26.9060   19.5510 C   0  0  0  0  0  3  0  0  0  0  0  0
  -25.0490  -27.7370   19.5340 C   0  0  0  0  0  3  0  0  0  0  0  0
  -23.8060  -29.8680   20.2350 C   0  0  0  0  0  2  0  0  0  0  0  0
  -24.8320  -31.1130   22.1790 N   0  0  0  0  0  0  0  0  0  0  0  0
  -23.6580  -32.1860   23.8100 O   0  0  0  0  0  0  0  0  0  0  0  0
  -22.8970  -29.5070   22.5750 C   0  0  0  0  0  0  0  0  0  0  0  0
  -21.5770  -29.3030   22.4270 N   0  0  0  0  0  0  0  0  0  0  0  0
  -23.5700  -28.9000   23.4120 O   0  0  0  0  0  0  0  0  0  0  0  0
  -21.0910  -29.8460   21.7260 H   0  0  0  0  0  0  0  0  0  0  0  0
  -18.2290  -27.9840   22.8550 C   0  0  0  0  0  0  0  0  0  0  0  0
  -20.7680  -28.3450   23.1880 C   0  0  0  0  0  3  0  0  0  0  0  0
  -20.9370  -26.9110   22.6330 C   0  0  0  0  0  2  0  0  0  0  0  0
  -19.8760  -26.5360   21.5930 C   0  0  0  0  0  2  0  0  0  0  0  0
  -18.4730  -26.6360   22.1980 C   0  0  0  0  0  2  0  0  0  0  0  0
  -19.3060  -28.7920   23.3080 C   0  0  0  0  0  0  0  0  0  0  0  0
  -19.0220  -30.0480   23.8860 C   0  0  0  0  0  3  0  0  0  0  0  0
  -17.6940  -30.4980   24.0190 C   0  0  0  0  0  3  0  0  0  0  0  0
  -16.6320  -29.6870   23.5820 C   0  0  0  0  0  3  0  0  0  0  0  0
  -16.8990  -28.4340   23.0040 C   0  0  0  0  0  3  0  0  0  0  0  0
  -26.0160  -32.5690   23.9190 C   0  0  0  0  0  3  0  0  0  0  0  0
  -26.5050  -31.8290   25.2250 C   0  0  1  0  0  0  0  0  0  0  0  0
  -25.3900  -31.6160   26.2760 C   0  0  0  0  0  1  0  0  0  0  0  0
  -27.0950  -30.4410   24.8810 C   0  0  0  0  0  1  0  0  0  0  0  0
  -27.6420  -32.6380   25.8910 C   0  0  0  0  0  1  0  0  0  0  0  0
  -25.7040  -33.9750   24.2180 N   0  0  0  0  0  0  0  0  0  0  0  0
  -26.0470  -35.0170   23.4480 C   0  0  0  0  0  0  0  0  0  0  0  0
  -26.7260  -34.8930   22.4250 O   0  0  0  0  0  0  0  0  0  0  0  0
  -25.1110  -34.1470   25.0150 H   0  0  0  0  0  0  0  0  0  0  0  0
  -24.3440  -36.8270   23.0350 C   0  0  0  0  0  1  0  0  0  0  0  0
  -25.5610  -36.4150   23.8790 C   0  0  0  0  0  3  0  0  0  0  0  0
  -27.6730  -37.3080   24.7620 C   0  0  0  0  0  1  0  0  0  0  0  0
  -26.6040  -37.4590   23.7790 N   0  0  0  0  0  0  0  0  0  0  0  0
  -26.2000  -38.3850   23.8900 H   0  0  0  0  0  0  0  0  0  0  0  0
  -30.4360  -17.9640   20.8560 C   0  0  0  0  0  2  0  0  0  0  0  0
  -30.8880  -15.2430   20.4750 C   0  0  0  0  0  0  0  0  0  0  0  0
  -30.8080  -12.8300   19.6440 C   0  0  0  0  0  2  0  0  0  0  0  0
  -29.9340  -12.6740   18.3790 C   0  0  0  0  0  2  0  0  0  0  0  0
  -28.4540  -12.4650   18.7560 C   0  0  0  0  0  2  0  0  0  0  0  0
  -27.9770  -13.4420   19.8660 C   0  0  0  0  0  3  0  0  0  0  0  0
  -28.9890  -13.5710   21.0230 C   0  0  0  0  0  2  0  0  0  0  0  0
  -30.2690  -13.9830   20.4260 N   0  0  0  0  0  0  0  0  0  0  0  0
  -32.1240  -15.2360   20.4470 O   0  0  0  0  0  0  0  0  0  0  0  0
  -29.4800  -16.6050   19.0030 C   0  0  0  0  0  1  0  0  0  0  0  0
  -30.1600  -16.4860   20.2950 N   0  0  0  0  0  0  0  0  0  0  0  0
  -25.5870  -14.0470   20.5250 C   0  0  0  0  0  0  0  0  0  0  0  0
  -24.5000  -13.2850   20.8550 C   0  0  0  0  0  0  0  0  0  0  0  0
  -24.9540  -11.9300   20.8550 C   0  0  0  0  0  0  0  0  0  0  0  0
  -26.6290  -13.1550   20.3300 N   0  0  0  0  0  0  0  0  0  0  0  0
  -26.2570  -11.8780   20.5960 N   0  0  0  0  0  0  0  0  0  0  0  0
  -24.2080  -10.6760   21.0250 C   0  0  0  0  0  0  0  0  0  0  0  0
  -24.5740   -9.7250   22.0040 C   0  0  0  0  0  3  0  0  0  0  0  0
  -23.8260   -8.5380   22.1600 C   0  0  0  0  0  3  0  0  0  0  0  0
  -22.7000   -8.2940   21.3400 C   0  0  0  0  0  0  0  0  0  0  0  0
  -22.3550   -9.2320   20.3520 C   0  0  0  0  0  3  0  0  0  0  0  0
  -23.1020  -10.4110   20.1920 C   0  0  0  0  0  3  0  0  0  0  0  0
  -21.9310   -7.1560   21.4050 O   0  0  0  0  0  0  0  0  0  0  0  0
  -21.7790   -6.4570   22.5750 C   0  0  0  0  0  0  0  0  0  0  0  0
  -21.1940   -7.0400   23.7200 C   0  0  0  0  0  3  0  0  0  0  0  0
  -20.9950   -6.2640   24.8800 C   0  0  0  0  0  3  0  0  0  0  0  0
  -21.3690   -4.9070   24.8930 C   0  0  0  0  0  0  0  0  0  0  0  0
  -21.9440   -4.3230   23.7520 C   0  0  0  0  0  3  0  0  0  0  0  0
  -22.1470   -5.0970   22.5950 C   0  0  0  0  0  0  0  0  0  0  0  0
  -22.6850   -4.5260   21.4900 F   0  0  0  0  0  0  0  0  0  0  0  0
  -21.1680   -4.1580   26.0040 F   0  0  0  0  0  0  0  0  0  0  0  0
  -23.0990  -13.7800   21.0600 C   0  0  0  0  0  0  0  0  0  0  0  0
  -22.3290  -13.1010   21.9050 N   0  0  0  0  0  0  0  0  0  0  0  0
  -22.6950  -14.8020   20.5080 O   0  0  0  0  0  0  0  0  0  0  0  0
  -22.6730  -12.2790   22.3750 H   0  0  0  0  0  0  0  0  0  0  0  0
  -21.3840  -13.4100   22.0810 H   0  0  0  0  0  0  0  0  0  0  0  0
  -25.7730  -15.4140   20.3470 N   0  0  0  0  0  0  0  0  0  0  0  0
  -25.0130  -16.0810   20.4240 H   0  0  0  0  0  0  0  0  0  0  0  0
  -26.6520  -15.8390   20.0810 H   0  0  0  0  0  0  0  0  0  0  0  0
  1  5  1  0
  1  2  2  0
  2  9  1  0
  2  6  1  0
  3 52  1  0
  3  6  1  0
  5  3  2  0
  6  4  1  0
  7  8  1  0
  8  1  1  0
 10 11  1  0
 10  9  2  0
 12 23  2  0
 13 11  1  0
 13 18  1  0
 14 22  1  0
 14 24  1  0
 15 21  1  0
 15 17  1  0
 16 22  1  0
 17 16  1  0
 18 17  2  0
 19 13  2  0
 20 19  1  0
 20 15  2  0
 21 14  1  0
 22 12  1  0
 24 26  2  0
 25 24  1  0
 27 25  1  0
 28 37  2  0
 28 33  1  0
 29 25  1  0
 29 33  1  0
 30 29  1  0
 31 32  1  0
 31 30  1  0
 32 28  1  0
 33 34  2  0
 34 35  1  0
 36 35  2  0
 37 36  1  0
 38 12  1  0
 38 43  1  0
 38 39  1  0
 39 42  1  1
 39 40  1  0
 41 39  1  0
 43 46  1  0
 44 48  1  0
 44 43  1  0
 45 44  2  0
 48 47  1  0
 50 48  1  0
 50 51  1  0
 50 49  1  0
 54 59  1  0
 55 56  1  0
 55 54  1  0
 57 56  1  0
 57 66  1  0
 57 58  1  0
 59 53  1  0
 59 58  1  0
 60 53  2  0
 61 62  1  0
 62 53  1  0
 62 52  1  0
 63 64  2  0
 64 65  1  0
 64 83  1  0
 65 68  1  0
 66 63  1  0
 66 67  1  0
 67 65  2  0
 68 69  1  0
 69 70  2  0
 71 74  1  0
 71 70  1  0
 72 71  2  0
 73 72  1  0
 73 68  2  0
 74 75  1  0
 75 80  2  0
 75 76  1  0
 76 77  2  0
 77 78  1  0
 78 82  1  0
 79 78  2  0
 80 79  1  0
 81 80  1  0
 83 84  1  0
 84 87  1  0
 84 86  1  0
 85 83  2  0
 88 89  1  0
 88 63  1  0
 90 88  1  0
M  ISO  4  10 101  11 101  53 100  62 100
M  END
>  <TORSDO>  (77) 
F 20

>  <SCORE>  (77) 
-14.153

>  <name>  (77) 
77

>  <ligand_id>  (77) 
77

>  <original_smiles>  (77) 
[H]c1c([H])c([H])c2c(c1[H])C([H])([H])C([H])([H])C([H])([H])C2([H])N([H])C(=O)C1([H])N(C(=O)C([H])(N([H])C(=O)C([H])(N([H])C([H])([H])[H])C([H])([H])[H])C(C([H])([H])[H])(C([H])([H])[H])C([H])([H])[H])C([H])([H])c2c([H])c(OC([H])([H])C([H])([H])c3c(C([H])([H])C([H])([H])[H])nc(C([H])([H])N(C(=O)N4C([H])([H])C([H])([H])C([H])([H])C([H])(n5nc(-c6c([H])c([H])c(Oc7c([H])c([H])c(F)c([H])c7F)c([H])c6[H])c(C(=O)N([H])[H])c5N([H])[H])C4([H])[H])C([H])([H])[H])n3C([H])([H])[H])c([H])c([H])c2C1([H])[H]

>  <smiles>  (77) 
[H]c1c([H])c([H])c2c(c1[H])C([H])([H])C([H])([H])C([H])([H])C2([H])N([H])C(=O)C1([H])N(C(=O)C([H])(N([H])C(=O)C([H])(N([H])C([H])([H])[H])C([H])([H])[H])C(C([H])([H])[H])(C([H])([H])[H])C([H])([H])[H])C([H])([H])c2c([H])c(OC([H])([H])C([H])([H])c3c(C([H])([H])C([H])([H])[H])nc(C([H])([H])N(C(=O)N4C([H])([H])C([H])([H])C([H])([H])C([H])(n5nc(-c6c([H])c([H])c(Oc7c([H])c([H])c(F)c([H])c7F)c([H])c6[H])c(C(=O)N([H])[H])c5N([H])[H])C4([H])[H])C([H])([H])[H])n3C([H])([H])[H])c([H])c([H])c2C1([H])[H]

$$$$
78:0:0
     RDKit          3D

 89 97  0  0  1  0  0  0  0  0999 V2000
  -28.1560  -21.0160   20.4340 C   0  0  0  0  0  0  0  0  0  0  0  0
  -29.2240  -21.8350   20.1000 C   0  0  0  0  0  0  0  0  0  0  0  0
  -29.7690  -19.4680   20.0810 C   0  0  0  0  0  0  0  0  0  0  0  0
  -26.7820  -21.4550   20.8310 C   0  0  0  0  0  1  0  0  0  0  0  0
  -31.6080  -21.0850   19.5140 C   0  0  0  0  0  1  0  0  0  0  0  0
  -28.4780  -19.6240   20.4010 N   0  0  0  0  0  0  0  0  0  0  0  0
  -30.2390  -20.7880   19.8910 N   0  0  0  0  0  0  0  0  0  0  0  0
  -29.3970  -23.4990   20.0350 C   0  0  0  0  0  3  0  0  0  0  0  0
  -28.2390  -24.7630   19.9980 C   0  0  0  0  0  3  0  0  0  0  0  0
  -28.4730  -26.3280   20.0560 O   0  0  0  0  0  0  0  0  0  0  0  0
  -24.7430  -31.9050   23.2200 C   0  0  0  0  0  0  0  0  0  0  0  0
  -27.4010  -27.3130   20.0340 C   0  0  0  0  0  0  0  0  0  0  0  0
  -23.5690  -30.5510   21.5280 C   0  0  0  0  0  3  0  0  0  0  0  0
  -25.0470  -29.0480   20.0520 C   0  0  0  0  0  0  0  0  0  0  0  0
  -26.1210  -30.8570   21.3800 C   0  0  0  0  0  2  0  0  0  0  0  0
  -26.2210  -29.4860   20.6790 C   0  0  0  0  0  0  0  0  0  0  0  0
  -27.3970  -28.6380   20.6470 C   0  0  0  0  0  3  0  0  0  0  0  0
  -26.1950  -26.9870   19.3740 C   0  0  0  0  0  3  0  0  0  0  0  0
  -25.0500  -27.8150   19.3830 C   0  0  0  0  0  3  0  0  0  0  0  0
  -23.8050  -29.9250   20.1270 C   0  0  0  0  0  2  0  0  0  0  0  0
  -24.8320  -31.1260   22.0980 N   0  0  0  0  0  0  0  0  0  0  0  0
  -23.6510  -32.1520   23.7550 O   0  0  0  0  0  0  0  0  0  0  0  0
  -22.9040  -29.5010   22.4530 C   0  0  0  0  0  0  0  0  0  0  0  0
  -21.5840  -29.2910   22.2980 N   0  0  0  0  0  0  0  0  0  0  0  0
  -23.5800  -28.8770   23.2750 O   0  0  0  0  0  0  0  0  0  0  0  0
  -21.0910  -29.8510   21.6160 H   0  0  0  0  0  0  0  0  0  0  0  0
  -18.2350  -27.9720   22.7120 C   0  0  0  0  0  0  0  0  0  0  0  0
  -20.7790  -28.3090   23.0300 C   0  0  0  0  0  3  0  0  0  0  0  0
  -20.9350  -26.8950   22.4210 C   0  0  0  0  0  2  0  0  0  0  0  0
  -19.8620  -26.5650   21.3790 C   0  0  0  0  0  2  0  0  0  0  0  0
  -18.4660  -26.6470   22.0030 C   0  0  0  0  0  2  0  0  0  0  0  0
  -19.3210  -28.7580   23.1800 C   0  0  0  0  0  0  0  0  0  0  0  0
  -19.0490  -29.9940   23.8050 C   0  0  0  0  0  3  0  0  0  0  0  0
  -17.7260  -30.4470   23.9630 C   0  0  0  0  0  3  0  0  0  0  0  0
  -16.6540  -29.6570   23.5090 C   0  0  0  0  0  3  0  0  0  0  0  0
  -16.9090  -28.4210   22.8900 C   0  0  0  0  0  3  0  0  0  0  0  0
  -26.0080  -32.5410   23.8730 C   0  0  0  0  0  3  0  0  0  0  0  0
  -26.5050  -31.7570   25.1520 C   0  0  1  0  0  0  0  0  0  0  0  0
  -25.3930  -31.5050   26.1960 C   0  0  0  0  0  1  0  0  0  0  0  0
  -27.1040  -30.3860   24.7620 C   0  0  0  0  0  1  0  0  0  0  0  0
  -27.6360  -32.5530   25.8460 C   0  0  0  0  0  1  0  0  0  0  0  0
  -25.6810  -33.9320   24.2220 N   0  0  0  0  0  0  0  0  0  0  0  0
  -25.9840  -35.0010   23.4740 C   0  0  0  0  0  0  0  0  0  0  0  0
  -26.6350  -34.9210   22.4300 O   0  0  0  0  0  0  0  0  0  0  0  0
  -25.1010  -34.0670   25.0370 H   0  0  0  0  0  0  0  0  0  0  0  0
  -24.2150  -36.7720   23.2000 C   0  0  0  0  0  1  0  0  0  0  0  0
  -25.4910  -36.3790   23.9620 C   0  0  0  0  0  3  0  0  0  0  0  0
  -27.6310  -37.3050   24.7340 C   0  0  0  0  0  1  0  0  0  0  0  0
  -26.5000  -37.4510   23.8220 N   0  0  0  0  0  0  0  0  0  0  0  0
  -26.0800  -38.3630   23.9820 H   0  0  0  0  0  0  0  0  0  0  0  0
  -30.6260  -18.0400   19.9000 C   0  0  0  0  0  2  0  0  0  0  0  0
  -30.9390  -15.3120   19.9880 C   0  0  0  0  0  0  0  0  0  0  0  0
  -30.7920  -12.9770   18.9490 C   0  0  0  0  0  2  0  0  0  0  0  0
  -29.7870  -12.9410   17.7710 C   0  0  0  0  0  2  0  0  0  0  0  0
  -28.3540  -12.6820   18.2770 C   0  0  0  0  0  2  0  0  0  0  0  0
  -28.0100  -13.5490   19.5150 C   0  0  0  0  0  3  0  0  0  0  0  0
  -29.1340  -13.5030   20.5690 C   0  0  0  0  0  2  0  0  0  0  0  0
  -30.3460  -14.0350   19.9160 N   0  0  0  0  0  0  0  0  0  0  0  0
  -32.0910  -15.3720   19.5340 O   0  0  0  0  0  0  0  0  0  0  0  0
  -29.3300  -16.5450   21.4580 C   0  0  0  0  0  1  0  0  0  0  0  0
  -30.2310  -16.5400   20.3050 N   0  0  0  0  0  0  0  0  0  0  0  0
  -25.6810  -14.0820   20.4290 C   0  0  0  0  0  0  0  0  0  0  0  0
  -24.6470  -13.2860   20.8370 C   0  0  0  0  0  0  0  0  0  0  0  0
  -25.1110  -11.9400   20.7140 C   0  0  0  0  0  0  0  0  0  0  0  0
  -26.7080  -13.2200   20.0810 N   0  0  0  0  0  0  0  0  0  0  0  0
  -26.3790  -11.9230   20.3150 N   0  0  0  0  0  0  0  0  0  0  0  0
  -24.4000  -10.6680   20.8940 C   0  0  0  0  0  0  0  0  0  0  0  0
  -24.8050   -9.7270   21.8650 C   0  0  0  0  0  3  0  0  0  0  0  0
  -24.0930   -8.5200   22.0330 C   0  0  0  0  0  3  0  0  0  0  0  0
  -22.9610   -8.2460   21.2290 C   0  0  0  0  0  0  0  0  0  0  0  0
  -22.5750   -9.1770   20.2490 C   0  0  0  0  0  3  0  0  0  0  0  0
  -23.2890  -10.3750   20.0800 C   0  0  0  0  0  3  0  0  0  0  0  0
  -22.2230   -7.0900   21.3030 O   0  0  0  0  0  0  0  0  0  0  0  0
  -22.0030   -6.4520   22.4980 C   0  0  0  0  0  0  0  0  0  0  0  0
  -21.3500   -7.0910   23.5750 C   0  0  0  0  0  3  0  0  0  0  0  0
  -21.0820   -6.3760   24.7600 C   0  0  0  0  0  3  0  0  0  0  0  0
  -21.4570   -5.0230   24.8670 C   0  0  0  0  0  0  0  0  0  0  0  0
  -22.1030   -4.3840   23.7940 C   0  0  0  0  0  3  0  0  0  0  0  0
  -22.3720   -5.0970   22.6120 C   0  0  0  0  0  0  0  0  0  0  0  0
  -22.9760   -4.4710   21.5740 F   0  0  0  0  0  0  0  0  0  0  0  0
  -21.1920   -4.3340   26.0010 F   0  0  0  0  0  0  0  0  0  0  0  0
  -23.2710  -13.7470   21.2220 C   0  0  0  0  0  0  0  0  0  0  0  0
  -22.6050  -13.0160   22.1080 N   0  0  0  0  0  0  0  0  0  0  0  0
  -22.7990  -14.7910   20.7730 O   0  0  0  0  0  0  0  0  0  0  0  0
  -23.0020  -12.1710   22.4930 H   0  0  0  0  0  0  0  0  0  0  0  0
  -21.6860  -13.3050   22.4070 H   0  0  0  0  0  0  0  0  0  0  0  0
  -25.8230  -15.4590   20.2960 N   0  0  0  0  0  0  0  0  0  0  0  0
  -25.0580  -16.0990   20.4870 H   0  0  0  0  0  0  0  0  0  0  0  0
  -26.6360  -15.9180   19.9060 H   0  0  0  0  0  0  0  0  0  0  0  0
  1  4  1  0
  2  1  2  0
  3  6  2  0
  5  7  1  0
  6  1  1  0
  7  3  1  0
  7  2  1  0
  8  2  1  0
  9  8  2  0
  9 10  1  0
 11 22  2  0
 12 10  1  0
 12 17  1  0
 13 21  1  0
 13 23  1  0
 14 20  1  0
 14 16  1  0
 15 21  1  0
 16 15  1  0
 17 16  2  0
 18 19  1  0
 18 12  2  0
 19 14  2  0
 20 13  1  0
 21 11  1  0
 23 25  2  0
 24 23  1  0
 26 24  1  0
 27 36  2  0
 27 32  1  0
 28 24  1  0
 28 32  1  0
 29 28  1  0
 30 31  1  0
 30 29  1  0
 31 27  1  0
 32 33  2  0
 33 34  1  0
 35 34  2  0
 36 35  1  0
 37 11  1  0
 37 42  1  0
 37 38  1  0
 38 41  1  1
 38 39  1  0
 40 38  1  0
 42 45  1  0
 43 47  1  0
 43 42  1  0
 44 43  2  0
 47 46  1  0
 49 47  1  0
 49 50  1  0
 49 48  1  0
 51  3  1  0
 51 61  1  0
 52 61  1  0
 53 58  1  0
 54 55  1  0
 54 53  1  0
 56 55  1  0
 56 65  1  0
 56 57  1  0
 58 52  1  0
 58 57  1  0
 59 52  2  0
 61 60  1  0
 62 63  2  0
 63 82  1  0
 64 63  1  0
 64 67  1  0
 65 66  1  0
 65 62  1  0
 66 64  2  0
 67 68  1  0
 68 69  2  0
 70 73  1  0
 70 69  1  0
 71 70  2  0
 72 71  1  0
 72 67  2  0
 73 74  1  0
 74 79  2  0
 74 75  1  0
 75 76  2  0
 76 77  1  0
 77 81  1  0
 78 77  2  0
 79 78  1  0
 80 79  1  0
 82 83  1  0
 83 86  1  0
 83 85  1  0
 84 82  2  0
 87 62  1  0
 87 88  1  0
 89 87  1  0
M  ISO  4   9 101  10 101  52 100  61 100
M  END
>  <TORSDO>  (78) 
F 19

>  <SCORE>  (78) 
-13.104

>  <name>  (78) 
78

>  <ligand_id>  (78) 
78

>  <original_smiles>  (78) 
[H]c1c([H])c([H])c2c(c1[H])C([H])([H])C([H])([H])C([H])([H])C2([H])N([H])C(=O)C1([H])N(C(=O)C([H])(N([H])C(=O)C([H])(N([H])C([H])([H])[H])C([H])([H])[H])C(C([H])([H])[H])(C([H])([H])[H])C([H])([H])[H])C([H])([H])c2c([H])c(OC([H])([H])C([H])([H])c3c(C([H])([H])[H])nc(C([H])([H])N(C(=O)N4C([H])([H])C([H])([H])C([H])([H])C([H])(n5nc(-c6c([H])c([H])c(Oc7c([H])c([H])c(F)c([H])c7F)c([H])c6[H])c(C(=O)N([H])[H])c5N([H])[H])C4([H])[H])C([H])([H])[H])n3C([H])([H])[H])c([H])c([H])c2C1([H])[H]

>  <smiles>  (78) 
[H]c1c([H])c([H])c2c(c1[H])C([H])([H])C([H])([H])C([H])([H])C2([H])N([H])C(=O)C1([H])N(C(=O)C([H])(N([H])C(=O)C([H])(N([H])C([H])([H])[H])C([H])([H])[H])C(C([H])([H])[H])(C([H])([H])[H])C([H])([H])[H])C([H])([H])c2c([H])c(OC([H])([H])C([H])([H])c3c(C([H])([H])[H])nc(C([H])([H])N(C(=O)N4C([H])([H])C([H])([H])C([H])([H])C([H])(n5nc(-c6c([H])c([H])c(Oc7c([H])c([H])c(F)c([H])c7F)c([H])c6[H])c(C(=O)N([H])[H])c5N([H])[H])C4([H])[H])C([H])([H])[H])n3C([H])([H])[H])c([H])c([H])c2C1([H])[H]

$$$$
79:0:0
     RDKit          3D

 91 99  0  0  1  0  0  0  0  0999 V2000
  -30.9330  -21.2560   19.4820 C   0  0  0  0  0  3  0  0  0  0  0  0
  -31.1760  -22.6230   19.2310 C   0  0  0  0  0  0  0  0  0  0  0  0
  -29.7290  -20.8670   20.0790 C   0  0  0  0  0  0  0  0  0  0  0  0
  -29.1310  -23.3060   20.0850 C   0  0  0  0  0  0  0  0  0  0  0  0
  -32.4650  -23.0650   18.5720 C   0  0  0  0  0  1  0  0  0  0  0  0
  -30.2980  -23.6120   19.5240 N   0  0  0  0  0  0  0  0  0  0  0  0
  -28.8480  -21.9530   20.3640 N   0  0  0  0  0  0  0  0  0  0  0  0
  -27.9420  -19.0500   20.0460 C   0  0  0  0  0  1  0  0  0  0  0  0
  -29.5750  -19.0790   21.9120 C   0  0  0  0  0  1  0  0  0  0  0  0
  -29.4290  -19.2500   20.3890 C   0  0  2  0  0  0  0  0  0  0  0  0
  -30.3520  -17.9430   19.7390 C   0  0  0  0  0  2  0  0  0  0  0  0
  -30.7070  -15.1510   19.7580 C   0  0  0  0  0  0  0  0  0  0  0  0
  -30.5470  -12.7450   18.9250 C   0  0  0  0  0  2  0  0  0  0  0  0
  -29.5270  -12.5760   17.7740 C   0  0  0  0  0  2  0  0  0  0  0  0
  -28.1000  -12.3660   18.3190 C   0  0  0  0  0  2  0  0  0  0  0  0
  -27.7520  -13.3270   19.4830 C   0  0  0  0  0  3  0  0  0  0  0  0
  -28.8950  -13.4690   20.5120 C   0  0  0  0  0  2  0  0  0  0  0  0
  -30.0970  -13.8860   19.7760 N   0  0  0  0  0  0  0  0  0  0  0  0
  -31.9350  -15.1530   19.6020 O   0  0  0  0  0  0  0  0  0  0  0  0
  -28.9740  -16.3300   18.5340 C   0  0  0  0  0  1  0  0  0  0  0  0
  -29.9440  -16.3840   19.6410 N   0  0  0  0  0  0  0  0  0  0  0  0
  -25.4800  -13.9450   20.4690 C   0  0  0  0  0  0  0  0  0  0  0  0
  -24.4230  -13.1830   20.8830 C   0  0  0  0  0  0  0  0  0  0  0  0
  -24.8420  -11.8230   20.7510 C   0  0  0  0  0  0  0  0  0  0  0  0
  -26.4670  -13.0450   20.0990 N   0  0  0  0  0  0  0  0  0  0  0  0
  -26.1020  -11.7630   20.3370 N   0  0  0  0  0  0  0  0  0  0  0  0
  -24.0980  -10.5750   20.9360 C   0  0  0  0  0  0  0  0  0  0  0  0
  -24.4940   -9.6160   21.8930 C   0  0  0  0  0  3  0  0  0  0  0  0
  -23.7510   -8.4300   22.0660 C   0  0  0  0  0  3  0  0  0  0  0  0
  -22.5980   -8.1940   21.2810 C   0  0  0  0  0  0  0  0  0  0  0  0
  -22.2220   -9.1420   20.3130 C   0  0  0  0  0  3  0  0  0  0  0  0
  -22.9650  -10.3200   20.1380 C   0  0  0  0  0  3  0  0  0  0  0  0
  -21.8290   -7.0600   21.3640 O   0  0  0  0  0  0  0  0  0  0  0  0
  -21.6400   -6.4050   22.5540 C   0  0  0  0  0  0  0  0  0  0  0  0
  -21.0140   -7.0280   23.6550 C   0  0  0  0  0  3  0  0  0  0  0  0
  -20.7730   -6.2950   24.8360 C   0  0  0  0  0  3  0  0  0  0  0  0
  -21.1530   -4.9410   24.9130 C   0  0  0  0  0  0  0  0  0  0  0  0
  -21.7740   -4.3200   23.8170 C   0  0  0  0  0  3  0  0  0  0  0  0
  -22.0130   -5.0480   22.6390 C   0  0  0  0  0  0  0  0  0  0  0  0
  -22.5910   -4.4370   21.5770 F   0  0  0  0  0  0  0  0  0  0  0  0
  -20.9150   -4.2360   26.0440 F   0  0  0  0  0  0  0  0  0  0  0  0
  -23.0670  -13.6850   21.2820 C   0  0  0  0  0  0  0  0  0  0  0  0
  -22.3820  -12.9620   22.1600 N   0  0  0  0  0  0  0  0  0  0  0  0
  -22.6270  -14.7510   20.8530 O   0  0  0  0  0  0  0  0  0  0  0  0
  -22.7520  -12.0970   22.5280 H   0  0  0  0  0  0  0  0  0  0  0  0
  -21.4740  -13.2780   22.4690 H   0  0  0  0  0  0  0  0  0  0  0  0
  -25.6720  -15.3180   20.3500 N   0  0  0  0  0  0  0  0  0  0  0  0
  -24.9440  -15.9900   20.5700 H   0  0  0  0  0  0  0  0  0  0  0  0
  -26.5270  -15.7490   20.0260 H   0  0  0  0  0  0  0  0  0  0  0  0
  -28.0680  -24.5770   20.2770 C   0  0  0  0  0  2  0  0  0  0  0  0
  -28.3520  -26.1300   20.2140 O   0  0  0  0  0  0  0  0  0  0  0  0
  -24.4850  -31.7570   23.1220 C   0  0  0  0  0  0  0  0  0  0  0  0
  -27.2740  -27.1010   20.1490 C   0  0  0  0  0  0  0  0  0  0  0  0
  -23.3680  -30.3310   21.4540 C   0  0  0  0  0  3  0  0  0  0  0  0
  -24.8980  -28.8020   20.0610 C   0  0  0  0  0  0  0  0  0  0  0  0
  -25.9200  -30.6620   21.3550 C   0  0  0  0  0  2  0  0  0  0  0  0
  -26.0510  -29.2720   20.7020 C   0  0  0  0  0  0  0  0  0  0  0  0
  -27.2390  -28.4420   20.7240 C   0  0  0  0  0  3  0  0  0  0  0  0
  -26.0880  -26.7460   19.4650 C   0  0  0  0  0  3  0  0  0  0  0  0
  -24.9330  -27.5540   19.4230 C   0  0  0  0  0  3  0  0  0  0  0  0
  -23.6430  -29.6650   20.0800 C   0  0  0  0  0  2  0  0  0  0  0  0
  -24.6100  -30.9390   22.0310 N   0  0  0  0  0  0  0  0  0  0  0  0
  -23.3780  -32.0090   23.6230 O   0  0  0  0  0  0  0  0  0  0  0  0
  -22.6950  -29.3020   22.3980 C   0  0  0  0  0  0  0  0  0  0  0  0
  -21.3740  -29.1000   22.2450 N   0  0  0  0  0  0  0  0  0  0  0  0
  -23.3650  -28.6880   23.2320 O   0  0  0  0  0  0  0  0  0  0  0  0
  -20.8890  -29.6480   21.5480 H   0  0  0  0  0  0  0  0  0  0  0  0
  -18.0080  -27.8310   22.6990 C   0  0  0  0  0  0  0  0  0  0  0  0
  -20.5600  -28.1390   22.9950 C   0  0  0  0  0  3  0  0  0  0  0  0
  -20.6940  -26.7160   22.4070 C   0  0  0  0  0  2  0  0  0  0  0  0
  -19.6090  -26.3830   21.3780 C   0  0  0  0  0  2  0  0  0  0  0  0
  -18.2180  -26.4940   22.0080 C   0  0  0  0  0  2  0  0  0  0  0  0
  -19.1090  -28.6110   23.1480 C   0  0  0  0  0  0  0  0  0  0  0  0
  -18.8580  -29.8600   23.7560 C   0  0  0  0  0  3  0  0  0  0  0  0
  -17.5420  -30.3310   23.9170 C   0  0  0  0  0  3  0  0  0  0  0  0
  -16.4570  -29.5500   23.4820 C   0  0  0  0  0  3  0  0  0  0  0  0
  -16.6910  -28.3020   22.8790 C   0  0  0  0  0  3  0  0  0  0  0  0
  -25.7270  -32.4300   23.7810 C   0  0  0  0  0  3  0  0  0  0  0  0
  -26.2320  -31.6710   25.0700 C   0  0  1  0  0  0  0  0  0  0  0  0
  -25.1160  -31.3870   26.1040 C   0  0  0  0  0  1  0  0  0  0  0  0
  -26.8770  -30.3160   24.6960 C   0  0  0  0  0  1  0  0  0  0  0  0
  -27.3310  -32.5030   25.7690 C   0  0  0  0  0  1  0  0  0  0  0  0
  -25.3610  -33.8160   24.1160 N   0  0  0  0  0  0  0  0  0  0  0  0
  -25.6620  -34.8890   23.3710 C   0  0  0  0  0  0  0  0  0  0  0  0
  -26.3450  -34.8180   22.3460 O   0  0  0  0  0  0  0  0  0  0  0  0
  -24.7520  -33.9410   24.9100 H   0  0  0  0  0  0  0  0  0  0  0  0
  -23.8810  -36.6320   23.0160 C   0  0  0  0  0  1  0  0  0  0  0  0
  -25.1240  -36.2570   23.8380 C   0  0  0  0  0  3  0  0  0  0  0  0
  -27.2080  -37.2120   24.7180 C   0  0  0  0  0  1  0  0  0  0  0  0
  -26.1230  -37.3450   23.7490 N   0  0  0  0  0  0  0  0  0  0  0  0
  -25.6840  -38.2510   23.8860 H   0  0  0  0  0  0  0  0  0  0  0  0
  1  3  1  0
  2  1  2  0
  2  6  1  0
  3  7  2  0
  3 10  1  0
  4 50  1  0
  4  7  1  0
  5  2  1  0
  6  4  2  0
 10  8  1  1
 10  9  1  0
 11 10  1  0
 12 18  1  0
 13 18  1  0
 14 15  1  0
 14 13  1  0
 16 15  1  0
 16 25  1  0
 16 17  1  0
 18 17  1  0
 19 12  2  0
 20 21  1  0
 21 11  1  0
 21 12  1  0
 22 23  2  0
 23 42  1  0
 24 23  1  0
 24 27  1  0
 25 26  1  0
 25 22  1  0
 26 24  2  0
 27 28  1  0
 28 29  2  0
 30 33  1  0
 30 29  1  0
 31 30  2  0
 32 31  1  0
 32 27  2  0
 33 34  1  0
 34 39  2  0
 34 35  1  0
 35 36  2  0
 36 37  1  0
 37 41  1  0
 38 37  2  0
 39 38  1  0
 40 39  1  0
 42 43  1  0
 43 46  1  0
 43 45  1  0
 44 42  2  0
 47 22  1  0
 47 48  1  0
 49 47  1  0
 51 50  1  0
 52 63  2  0
 53 51  1  0
 53 58  1  0
 54 62  1  0
 54 64  1  0
 55 61  1  0
 55 57  1  0
 56 62  1  0
 57 58  2  0
 57 56  1  0
 59 53  2  0
 60 59  1  0
 60 55  2  0
 61 54  1  0
 62 52  1  0
 64 66  2  0
 65 64  1  0
 67 65  1  0
 68 77  2  0
 68 73  1  0
 69 65  1  0
 69 73  1  0
 70 69  1  0
 71 72  1  0
 71 70  1  0
 72 68  1  0
 73 74  2  0
 74 75  1  0
 76 75  2  0
 77 76  1  0
 78 52  1  0
 78 83  1  0
 78 79  1  0
 79 82  1  1
 79 80  1  0
 81 79  1  0
 83 86  1  0
 84 88  1  0
 84 83  1  0
 85 84  2  0
 88 87  1  0
 90 88  1  0
 90 91  1  0
 90 89  1  0
M  ISO  4  12 100  21 100  50 101  51 101
M  END
>  <TORSDO>  (79) 
F 19

>  <SCORE>  (79) 
-13.133

>  <name>  (79) 
79

>  <ligand_id>  (79) 
79

>  <original_smiles>  (79) 
[H]c1c(C([H])([H])[H])nc(C([H])([H])Oc2c([H])c([H])c3c(c2[H])C([H])([H])N(C(=O)C([H])(N([H])C(=O)C([H])(N([H])C([H])([H])[H])C([H])([H])[H])C(C([H])([H])[H])(C([H])([H])[H])C([H])([H])[H])C([H])(C(=O)N([H])C2([H])c4c([H])c([H])c([H])c([H])c4C([H])([H])C([H])([H])C2([H])[H])C3([H])[H])nc1C(C([H])([H])[H])(C([H])([H])[H])C([H])([H])N(C(=O)N1C([H])([H])C([H])([H])C([H])([H])C([H])(n2nc(-c3c([H])c([H])c(Oc4c([H])c([H])c(F)c([H])c4F)c([H])c3[H])c(C(=O)N([H])[H])c2N([H])[H])C1([H])[H])C([H])([H])[H]

>  <smiles>  (79) 
[H]c1c(C([H])([H])[H])nc(C([H])([H])Oc2c([H])c([H])c3c(c2[H])C([H])([H])N(C(=O)C([H])(N([H])C(=O)C([H])(N([H])C([H])([H])[H])C([H])([H])[H])C(C([H])([H])[H])(C([H])([H])[H])C([H])([H])[H])C([H])(C(=O)N([H])C2([H])c4c([H])c([H])c([H])c([H])c4C([H])([H])C([H])([H])C2([H])[H])C3([H])[H])nc1C(C([H])([H])[H])(C([H])([H])[H])C([H])([H])N(C(=O)N1C([H])([H])C([H])([H])C([H])([H])C([H])(n2nc(-c3c([H])c([H])c(Oc4c([H])c([H])c(F)c([H])c4F)c([H])c3[H])c(C(=O)N([H])[H])c2N([H])[H])C1([H])[H])C([H])([H])[H]

$$$$
80:0:0
     RDKit          3D

 89 97  0  0  1  0  0  0  0  0999 V2000
  -29.7410  -21.0240   18.2040 C   0  0  0  0  0  3  0  0  0  0  0  0
  -29.3400  -20.7920   19.5390 C   0  0  0  0  0  0  0  0  0  0  0  0
  -29.3290  -23.3530   18.3370 C   0  0  0  0  0  0  0  0  0  0  0  0
  -28.8420  -23.2760   19.6760 C   0  0  0  0  0  0  0  0  0  0  0  0
  -29.4090  -24.6370   17.5190 C   0  0  0  0  0  1  0  0  0  0  0  0
  -29.7510  -22.2590   17.6330 N   0  0  0  0  0  0  0  0  0  0  0  0
  -28.8760  -21.9540   20.2410 N   0  0  0  0  0  0  0  0  0  0  0  0
  -29.3280  -19.2360   20.1360 C   0  0  0  0  0  3  0  0  0  0  0  0
  -30.0300  -17.7920   19.5180 C   0  0  0  0  0  3  0  0  0  0  0  0
  -30.5780  -15.0620   19.9300 C   0  0  0  0  0  0  0  0  0  0  0  0
  -30.4070  -12.7190   18.9410 C   0  0  0  0  0  2  0  0  0  0  0  0
  -29.3880  -12.6350   17.7790 C   0  0  0  0  0  2  0  0  0  0  0  0
  -27.9610  -12.3940   18.3020 C   0  0  0  0  0  2  0  0  0  0  0  0
  -27.6180  -13.3090   19.5030 C   0  0  0  0  0  3  0  0  0  0  0  0
  -28.7450  -13.2940   20.5560 C   0  0  0  0  0  2  0  0  0  0  0  0
  -29.9600  -13.7960   19.8830 N   0  0  0  0  0  0  0  0  0  0  0  0
  -31.7540  -15.0820   19.5440 O   0  0  0  0  0  0  0  0  0  0  0  0
  -28.9390  -16.3820   21.2660 C   0  0  0  0  0  1  0  0  0  0  0  0
  -29.8490  -16.3110   20.1230 N   0  0  0  0  0  0  0  0  0  0  0  0
  -25.2910  -13.8870   20.3960 C   0  0  0  0  0  0  0  0  0  0  0  0
  -24.2480  -13.1160   20.8230 C   0  0  0  0  0  0  0  0  0  0  0  0
  -24.7040  -11.7630   20.7500 C   0  0  0  0  0  0  0  0  0  0  0  0
  -26.3150  -13.0070   20.0840 N   0  0  0  0  0  0  0  0  0  0  0  0
  -25.9740  -11.7210   20.3630 N   0  0  0  0  0  0  0  0  0  0  0  0
  -23.9790  -10.5020   20.9580 C   0  0  0  0  0  0  0  0  0  0  0  0
  -24.4340   -9.5350   21.8810 C   0  0  0  0  0  3  0  0  0  0  0  0
  -23.7140   -8.3390   22.0800 C   0  0  0  0  0  3  0  0  0  0  0  0
  -22.5210   -8.1010   21.3560 C   0  0  0  0  0  0  0  0  0  0  0  0
  -22.0850   -9.0520   20.4170 C   0  0  0  0  0  3  0  0  0  0  0  0
  -22.8090  -10.2410   20.2170 C   0  0  0  0  0  3  0  0  0  0  0  0
  -21.7690   -6.9560   21.4660 O   0  0  0  0  0  0  0  0  0  0  0  0
  -21.7260   -6.2300   22.6290 C   0  0  0  0  0  0  0  0  0  0  0  0
  -21.2800   -6.7940   23.8450 C   0  0  0  0  0  3  0  0  0  0  0  0
  -21.1860   -5.9930   25.0020 C   0  0  0  0  0  3  0  0  0  0  0  0
  -21.5280   -4.6280   24.9430 C   0  0  0  0  0  0  0  0  0  0  0  0
  -21.9690   -4.0640   23.7330 C   0  0  0  0  0  3  0  0  0  0  0  0
  -22.0650   -4.8620   22.5790 C   0  0  0  0  0  0  0  0  0  0  0  0
  -22.4680   -4.3070   21.4110 F   0  0  0  0  0  0  0  0  0  0  0  0
  -21.4300   -3.8580   26.0510 F   0  0  0  0  0  0  0  0  0  0  0  0
  -22.8680  -13.5960   21.1730 C   0  0  0  0  0  0  0  0  0  0  0  0
  -22.1780  -12.8890   22.0610 N   0  0  0  0  0  0  0  0  0  0  0  0
  -22.4090  -14.6320   20.6920 O   0  0  0  0  0  0  0  0  0  0  0  0
  -22.5590  -12.0540   22.4820 H   0  0  0  0  0  0  0  0  0  0  0  0
  -21.2510  -13.1880   22.3250 H   0  0  0  0  0  0  0  0  0  0  0  0
  -25.4460  -15.2570   20.2160 N   0  0  0  0  0  0  0  0  0  0  0  0
  -24.6870  -15.9180   20.3490 H   0  0  0  0  0  0  0  0  0  0  0  0
  -26.2690  -15.6800   19.8050 H   0  0  0  0  0  0  0  0  0  0  0  0
  -28.0760  -24.5700   20.4070 C   0  0  0  0  0  2  0  0  0  0  0  0
  -28.3660  -26.1080   20.2780 O   0  0  0  0  0  0  0  0  0  0  0  0
  -24.6400  -31.8440   23.2070 C   0  0  0  0  0  0  0  0  0  0  0  0
  -27.3030  -27.0950   20.2570 C   0  0  0  0  0  0  0  0  0  0  0  0
  -23.4890  -30.4220   21.5560 C   0  0  0  0  0  3  0  0  0  0  0  0
  -24.9740  -28.8450   20.1760 C   0  0  0  0  0  0  0  0  0  0  0  0
  -26.0440  -30.6900   21.4560 C   0  0  0  0  0  2  0  0  0  0  0  0
  -26.1380  -29.2900   20.8190 C   0  0  0  0  0  0  0  0  0  0  0  0
  -27.3020  -28.4290   20.8460 C   0  0  0  0  0  3  0  0  0  0  0  0
  -26.1150  -26.7630   19.5740 C   0  0  0  0  0  3  0  0  0  0  0  0
  -24.9740  -27.5970   19.5370 C   0  0  0  0  0  3  0  0  0  0  0  0
  -23.7430  -29.7350   20.1890 C   0  0  0  0  0  2  0  0  0  0  0  0
  -24.7410  -31.0130   22.1260 N   0  0  0  0  0  0  0  0  0  0  0  0
  -23.5390  -32.1330   23.7010 O   0  0  0  0  0  0  0  0  0  0  0  0
  -22.7850  -29.4240   22.5140 C   0  0  0  0  0  0  0  0  0  0  0  0
  -21.4590  -29.2550   22.3630 N   0  0  0  0  0  0  0  0  0  0  0  0
  -23.4370  -28.7990   23.3530 O   0  0  0  0  0  0  0  0  0  0  0  0
  -20.9990  -29.8150   21.6600 H   0  0  0  0  0  0  0  0  0  0  0  0
  -18.0570  -28.0510   22.7730 C   0  0  0  0  0  0  0  0  0  0  0  0
  -20.6110  -28.3220   23.1170 C   0  0  0  0  0  3  0  0  0  0  0  0
  -20.7290  -26.8830   22.5620 C   0  0  0  0  0  2  0  0  0  0  0  0
  -19.6600  -26.5490   21.5180 C   0  0  0  0  0  2  0  0  0  0  0  0
  -18.2580  -26.6930   22.1200 C   0  0  0  0  0  2  0  0  0  0  0  0
  -19.1620  -28.8240   23.2230 C   0  0  0  0  0  0  0  0  0  0  0  0
  -18.9200  -30.0900   23.7960 C   0  0  0  0  0  3  0  0  0  0  0  0
  -17.6090  -30.5870   23.9190 C   0  0  0  0  0  3  0  0  0  0  0  0
  -16.5190  -29.8110   23.4890 C   0  0  0  0  0  3  0  0  0  0  0  0
  -16.7440  -28.5450   22.9230 C   0  0  0  0  0  3  0  0  0  0  0  0
  -25.8950  -32.4940   23.8660 C   0  0  0  0  0  3  0  0  0  0  0  0
  -26.3700  -31.7340   25.1650 C   0  0  1  0  0  0  0  0  0  0  0  0
  -25.2460  -31.4900   26.2040 C   0  0  0  0  0  1  0  0  0  0  0  0
  -26.9740  -30.3610   24.8020 C   0  0  0  0  0  1  0  0  0  0  0  0
  -27.5070  -32.5360   25.8450 C   0  0  0  0  0  1  0  0  0  0  0  0
  -25.5700  -33.8930   24.1860 N   0  0  0  0  0  0  0  0  0  0  0  0
  -25.9080  -34.9500   23.4340 C   0  0  0  0  0  0  0  0  0  0  0  0
  -26.5960  -34.8430   22.4150 O   0  0  0  0  0  0  0  0  0  0  0  0
  -24.9760  -34.0430   24.9900 H   0  0  0  0  0  0  0  0  0  0  0  0
  -24.1820  -36.7360   23.0360 C   0  0  0  0  0  1  0  0  0  0  0  0
  -25.4090  -36.3410   23.8760 C   0  0  0  0  0  3  0  0  0  0  0  0
  -27.5260  -37.2360   24.7390 C   0  0  0  0  0  1  0  0  0  0  0  0
  -26.4440  -37.3990   23.7740 N   0  0  0  0  0  0  0  0  0  0  0  0
  -26.0360  -38.3210   23.9060 H   0  0  0  0  0  0  0  0  0  0  0  0
  1  2  1  0
  2  8  1  0
  2  7  2  0
  3  4  2  0
  4  7  1  0
  4 48  1  0
  5  3  1  0
  6  1  2  0
  6  3  1  0
  9 19  1  0
  9  8  2  0
 10 19  1  0
 11 16  1  0
 12 13  1  0
 12 11  1  0
 14 13  1  0
 14 23  1  0
 14 15  1  0
 16 10  1  0
 16 15  1  0
 17 10  2  0
 19 18  1  0
 20 21  2  0
 21 40  1  0
 22 21  1  0
 22 25  1  0
 23 24  1  0
 23 20  1  0
 24 22  2  0
 25 26  1  0
 26 27  2  0
 28 31  1  0
 28 27  1  0
 29 28  2  0
 30 29  1  0
 30 25  2  0
 31 32  1  0
 32 33  1  0
 33 34  2  0
 35 34  1  0
 35 39  1  0
 36 35  2  0
 37 32  2  0
 37 36  1  0
 38 37  1  0
 40 41  1  0
 41 44  1  0
 41 43  1  0
 42 40  2  0
 45 46  1  0
 45 20  1  0
 47 45  1  0
 49 48  1  0
 50 61  2  0
 51 49  1  0
 51 56  1  0
 52 60  1  0
 52 62  1  0
 53 59  1  0
 53 55  1  0
 54 60  1  0
 55 56  2  0
 55 54  1  0
 57 51  2  0
 58 57  1  0
 58 53  2  0
 59 52  1  0
 60 50  1  0
 62 64  2  0
 63 62  1  0
 65 63  1  0
 66 75  2  0
 66 71  1  0
 67 63  1  0
 67 71  1  0
 68 67  1  0
 69 70  1  0
 69 68  1  0
 70 66  1  0
 71 72  2  0
 72 73  1  0
 74 73  2  0
 75 74  1  0
 76 50  1  0
 76 81  1  0
 76 77  1  0
 77 80  1  1
 77 78  1  0
 79 77  1  0
 81 84  1  0
 82 86  1  0
 82 81  1  0
 83 82  2  0
 86 85  1  0
 88 86  1  0
 88 89  1  0
 88 87  1  0
M  ISO  4  10 100  19 100  48 101  49 101
M  END
>  <TORSDO>  (80) 
F 19

>  <SCORE>  (80) 
-14.620

>  <name>  (80) 
80

>  <ligand_id>  (80) 
80

>  <original_smiles>  (80) 
[H]c1nc(C([H])([H])[H])c(C([H])([H])Oc2c([H])c([H])c3c(c2[H])C([H])([H])N(C(=O)C([H])(N([H])C(=O)C([H])(N([H])C([H])([H])[H])C([H])([H])[H])C(C([H])([H])[H])(C([H])([H])[H])C([H])([H])[H])C([H])(C(=O)N([H])C2([H])c4c([H])c([H])c([H])c([H])c4C([H])([H])C([H])([H])C2([H])[H])C3([H])[H])nc1C([H])([H])C([H])([H])N(C(=O)N1C([H])([H])C([H])([H])C([H])([H])C([H])(n2nc(-c3c([H])c([H])c(Oc4c([H])c([H])c(F)c([H])c4F)c([H])c3[H])c(C(=O)N([H])[H])c2N([H])[H])C1([H])[H])C([H])([H])[H]

>  <smiles>  (80) 
[H]c1nc(C([H])([H])[H])c(C([H])([H])Oc2c([H])c([H])c3c(c2[H])C([H])([H])N(C(=O)C([H])(N([H])C(=O)C([H])(N([H])C([H])([H])[H])C([H])([H])[H])C(C([H])([H])[H])(C([H])([H])[H])C([H])([H])[H])C([H])(C(=O)N([H])C2([H])c4c([H])c([H])c([H])c([H])c4C([H])([H])C([H])([H])C2([H])[H])C3([H])[H])nc1C([H])([H])C([H])([H])N(C(=O)N1C([H])([H])C([H])([H])C([H])([H])C([H])(n2nc(-c3c([H])c([H])c(Oc4c([H])c([H])c(F)c([H])c4F)c([H])c3[H])c(C(=O)N([H])[H])c2N([H])[H])C1([H])[H])C([H])([H])[H]

$$$$
81:0:0
     RDKit          3D

 86 94  0  0  1  0  0  0  0  0999 V2000
  -28.7280  -18.0390   20.7740 C   0  0  0  0  0  3  0  0  0  0  0  0
  -29.7990  -17.2750   20.0740 C   0  0  0  0  0  0  0  0  0  0  0  0
  -30.1880  -19.7550   19.3860 C   0  0  0  0  0  0  0  0  0  0  0  0
  -29.1130  -20.5260   20.0610 C   0  0  0  0  0  0  0  0  0  0  0  0
  -31.2220  -20.5360   18.5970 C   0  0  0  0  0  1  0  0  0  0  0  0
  -28.4360  -19.4830   20.7710 N   0  0  0  0  0  0  0  0  0  0  0  0
  -30.4740  -18.3280   19.3980 N   0  0  0  0  0  0  0  0  0  0  0  0
  -30.3660  -15.6040   20.0970 C   0  0  0  0  0  0  0  0  0  0  0  0
  -30.3600  -13.0590   19.3630 C   0  0  0  0  0  2  0  0  0  0  0  0
  -29.4570  -12.7140   18.1480 C   0  0  0  0  0  2  0  0  0  0  0  0
  -28.0270  -12.3940   18.6100 C   0  0  0  0  0  2  0  0  0  0  0  0
  -27.5460  -13.4020   19.6810 C   0  0  0  0  0  3  0  0  0  0  0  0
  -28.5900  -13.7110   20.7760 C   0  0  0  0  0  2  0  0  0  0  0  0
  -29.7880  -14.2670   20.1110 N   0  0  0  0  0  0  0  0  0  0  0  0
  -31.5860  -15.4600   19.8800 O   0  0  0  0  0  0  0  0  0  0  0  0
  -25.2110  -13.9390   20.5220 C   0  0  0  0  0  0  0  0  0  0  0  0
  -24.1550  -13.1620   20.9030 C   0  0  0  0  0  0  0  0  0  0  0  0
  -24.6130  -11.8090   20.8360 C   0  0  0  0  0  0  0  0  0  0  0  0
  -26.2390  -13.0660   20.2300 N   0  0  0  0  0  0  0  0  0  0  0  0
  -25.8970  -11.7740   20.4890 N   0  0  0  0  0  0  0  0  0  0  0  0
  -23.8800  -10.5480   21.0240 C   0  0  0  0  0  0  0  0  0  0  0  0
  -24.3120   -9.5710   21.9480 C   0  0  0  0  0  3  0  0  0  0  0  0
  -23.5780   -8.3800   22.1270 C   0  0  0  0  0  3  0  0  0  0  0  0
  -22.3950   -8.1550   21.3840 C   0  0  0  0  0  0  0  0  0  0  0  0
  -21.9810   -9.1200   20.4480 C   0  0  0  0  0  3  0  0  0  0  0  0
  -22.7160  -10.3040   20.2670 C   0  0  0  0  0  3  0  0  0  0  0  0
  -21.6320   -7.0170   21.4720 O   0  0  0  0  0  0  0  0  0  0  0  0
  -21.5680   -6.2790   22.6280 C   0  0  0  0  0  0  0  0  0  0  0  0
  -21.1030   -6.8320   23.8400 C   0  0  0  0  0  3  0  0  0  0  0  0
  -20.9890   -6.0210   24.9870 C   0  0  0  0  0  3  0  0  0  0  0  0
  -21.3310   -4.6560   24.9210 C   0  0  0  0  0  0  0  0  0  0  0  0
  -21.7870   -4.1030   23.7130 C   0  0  0  0  0  3  0  0  0  0  0  0
  -21.9030   -4.9100   22.5680 C   0  0  0  0  0  0  0  0  0  0  0  0
  -22.3240   -4.3680   21.4010 F   0  0  0  0  0  0  0  0  0  0  0  0
  -21.2140   -3.8740   26.0200 F   0  0  0  0  0  0  0  0  0  0  0  0
  -22.7670  -13.6430   21.2080 C   0  0  0  0  0  0  0  0  0  0  0  0
  -22.0530  -12.9470   22.0850 N   0  0  0  0  0  0  0  0  0  0  0  0
  -22.3250  -14.6740   20.7020 O   0  0  0  0  0  0  0  0  0  0  0  0
  -22.4230  -12.1150   22.5210 H   0  0  0  0  0  0  0  0  0  0  0  0
  -21.1210  -13.2530   22.3260 H   0  0  0  0  0  0  0  0  0  0  0  0
  -25.3790  -15.3120   20.3650 N   0  0  0  0  0  0  0  0  0  0  0  0
  -24.6240  -15.9710   20.5240 H   0  0  0  0  0  0  0  0  0  0  0  0
  -26.2160  -15.7510   20.0060 H   0  0  0  0  0  0  0  0  0  0  0  0
  -29.0080  -22.3590   20.2980 C   0  0  0  0  0  3  0  0  0  0  0  0
  -28.0410  -23.9490   19.8860 C   0  0  0  0  0  3  0  0  0  0  0  0
  -28.1680  -25.6630   20.1480 O   0  0  0  0  0  0  0  0  0  0  0  0
  -24.6320  -31.8280   23.1220 C   0  0  0  0  0  0  0  0  0  0  0  0
  -27.1780  -26.8370   20.0810 C   0  0  0  0  0  0  0  0  0  0  0  0
  -23.4440  -30.4370   21.4790 C   0  0  0  0  0  3  0  0  0  0  0  0
  -24.8930  -28.8190   20.0440 C   0  0  0  0  0  0  0  0  0  0  0  0
  -26.0170  -30.6090   21.3440 C   0  0  0  0  0  2  0  0  0  0  0  0
  -26.0860  -29.1890   20.6780 C   0  0  0  0  0  0  0  0  0  0  0  0
  -27.2140  -28.2240   20.6650 C   0  0  0  0  0  3  0  0  0  0  0  0
  -25.9520  -26.6600   19.3940 C   0  0  0  0  0  3  0  0  0  0  0  0
  -24.8620  -27.5800   19.3790 C   0  0  0  0  0  3  0  0  0  0  0  0
  -23.6790  -29.7560   20.1000 C   0  0  0  0  0  2  0  0  0  0  0  0
  -24.7210  -30.9900   22.0350 N   0  0  0  0  0  0  0  0  0  0  0  0
  -23.5400  -32.1170   23.6410 O   0  0  0  0  0  0  0  0  0  0  0  0
  -22.7400  -29.4450   22.4430 C   0  0  0  0  0  0  0  0  0  0  0  0
  -21.4060  -29.2990   22.3330 N   0  0  0  0  0  0  0  0  0  0  0  0
  -23.4050  -28.8060   23.2620 O   0  0  0  0  0  0  0  0  0  0  0  0
  -20.9210  -29.8630   21.6500 H   0  0  0  0  0  0  0  0  0  0  0  0
  -18.0130  -28.1260   22.8890 C   0  0  0  0  0  0  0  0  0  0  0  0
  -20.5820  -28.3570   23.1020 C   0  0  0  0  0  3  0  0  0  0  0  0
  -20.6530  -26.9360   22.4930 C   0  0  0  0  0  2  0  0  0  0  0  0
  -19.5240  -26.6510   21.4960 C   0  0  0  0  0  2  0  0  0  0  0  0
  -18.1590  -26.7940   22.1740 C   0  0  0  0  0  2  0  0  0  0  0  0
  -19.1510  -28.8670   23.3110 C   0  0  0  0  0  0  0  0  0  0  0  0
  -18.9560  -30.1130   23.9460 C   0  0  0  0  0  3  0  0  0  0  0  0
  -17.6590  -30.6180   24.1620 C   0  0  0  0  0  3  0  0  0  0  0  0
  -16.5380  -29.8730   23.7530 C   0  0  0  0  0  3  0  0  0  0  0  0
  -16.7160  -28.6300   23.1230 C   0  0  0  0  0  3  0  0  0  0  0  0
  -25.8970  -32.4760   23.7650 C   0  0  0  0  0  3  0  0  0  0  0  0
  -25.5730  -33.8760   24.1000 N   0  0  0  0  0  0  0  0  0  0  0  0
  -25.8980  -34.9430   23.3580 C   0  0  0  0  0  0  0  0  0  0  0  0
  -26.5610  -34.8530   22.3210 O   0  0  0  0  0  0  0  0  0  0  0  0
  -24.9820  -34.0190   24.9060 H   0  0  0  0  0  0  0  0  0  0  0  0
  -24.1650  -36.7470   23.0460 C   0  0  0  0  0  1  0  0  0  0  0  0
  -25.4170  -36.3290   23.8370 C   0  0  0  0  0  3  0  0  0  0  0  0
  -27.5560  -37.2210   24.6570 C   0  0  0  0  0  1  0  0  0  0  0  0
  -26.4470  -37.3860   23.7210 N   0  0  0  0  0  0  0  0  0  0  0  0
  -26.0390  -38.3060   23.8710 H   0  0  0  0  0  0  0  0  0  0  0  0
  -26.3900  -31.7140   25.0570 C   0  0  1  0  0  0  0  0  0  0  0  0
  -25.2820  -31.4930   26.1140 C   0  0  0  0  0  1  0  0  0  0  0  0
  -26.9740  -30.3290   24.6960 C   0  0  0  0  0  1  0  0  0  0  0  0
  -27.5340  -32.5110   25.7280 C   0  0  0  0  0  1  0  0  0  0  0  0
  2  8  1  0
  2  1  2  0
  3  7  2  0
  3  4  1  0
  4 44  1  0
  4  6  2  0
  5  3  1  0
  6  1  1  0
  7  2  1  0
  8 14  1  0
  9 14  1  0
 10 11  1  0
 10  9  1  0
 12 11  1  0
 12 19  1  0
 12 13  1  0
 14 13  1  0
 15  8  2  0
 16 17  2  0
 17 36  1  0
 18 17  1  0
 18 21  1  0
 19 20  1  0
 19 16  1  0
 20 18  2  0
 21 22  1  0
 22 23  2  0
 24 27  1  0
 24 23  1  0
 25 24  2  0
 26 25  1  0
 26 21  2  0
 27 28  1  0
 28 29  1  0
 29 30  2  0
 31 30  1  0
 31 35  1  0
 32 31  2  0
 33 28  2  0
 33 32  1  0
 34 33  1  0
 36 37  1  0
 37 40  1  0
 37 39  1  0
 38 36  2  0
 41 16  1  0
 41 42  1  0
 43 41  1  0
 45 46  1  0
 45 44  2  0
 47 58  2  0
 48 46  1  0
 48 53  1  0
 49 57  1  0
 49 59  1  0
 50 56  1  0
 50 52  1  0
 51 57  1  0
 52 51  1  0
 53 52  2  0
 54 48  2  0
 55 54  1  0
 55 50  2  0
 56 49  1  0
 57 47  1  0
 59 61  2  0
 60 59  1  0
 62 60  1  0
 63 72  2  0
 63 68  1  0
 64 60  1  0
 64 68  1  0
 65 64  1  0
 66 67  1  0
 66 65  1  0
 67 63  1  0
 68 69  2  0
 69 70  1  0
 71 70  2  0
 72 71  1  0
 73 47  1  0
 73 74  1  0
 73 83  1  0
 74 77  1  0
 75 79  1  0
 75 74  1  0
 76 75  2  0
 79 78  1  0
 81 79  1  0
 81 82  1  0
 81 80  1  0
 83 86  1  1
 83 84  1  0
 85 83  1  0
M  ISO  4   2 100   8 100  45 101  46 101
M  END
>  <TORSDO>  (81) 
F 18

>  <SCORE>  (81) 
-16.361

>  <name>  (81) 
81

>  <ligand_id>  (81) 
81

>  <original_smiles>  (81) 
[H]c1nc(C([H])([H])C([H])([H])Oc2c([H])c([H])c3c(c2[H])C([H])([H])N(C(=O)C([H])(N([H])C(=O)C([H])(N([H])C([H])([H])[H])C([H])([H])[H])C(C([H])([H])[H])(C([H])([H])[H])C([H])([H])[H])C([H])(C(=O)N([H])C2([H])c4c([H])c([H])c([H])c([H])c4C([H])([H])C([H])([H])C2([H])[H])C3([H])[H])c(C([H])([H])[H])nc1C(=O)N1C([H])([H])C([H])([H])C([H])([H])C([H])(n2nc(-c3c([H])c([H])c(Oc4c([H])c([H])c(F)c([H])c4F)c([H])c3[H])c(C(=O)N([H])[H])c2N([H])[H])C1([H])[H]

>  <smiles>  (81) 
[H]c1nc(C([H])([H])C([H])([H])Oc2c([H])c([H])c3c(c2[H])C([H])([H])N(C(=O)C([H])(N([H])C(=O)C([H])(N([H])C([H])([H])[H])C([H])([H])[H])C(C([H])([H])[H])(C([H])([H])[H])C([H])([H])[H])C([H])(C(=O)N([H])C2([H])c4c([H])c([H])c([H])c([H])c4C([H])([H])C([H])([H])C2([H])[H])C3([H])[H])c(C([H])([H])[H])nc1C(=O)N1C([H])([H])C([H])([H])C([H])([H])C([H])(n2nc(-c3c([H])c([H])c(Oc4c([H])c([H])c(F)c([H])c4F)c([H])c3[H])c(C(=O)N([H])[H])c2N([H])[H])C1([H])[H]

$$$$
82:0:0
     RDKit          3D

 96104  0  0  1  0  0  0  0  0999 V2000
  -30.7700  -20.3020   19.8440 C   0  0  0  0  0  3  0  0  0  0  0  0
  -29.2870  -20.3900   21.6790 C   0  0  0  0  0  3  0  0  0  0  0  0
  -29.9230  -21.0940   20.6400 C   0  0  0  0  0  0  0  0  0  0  0  0
  -30.3270  -18.4090   21.0840 C   0  0  0  0  0  0  0  0  0  0  0  0
  -30.9750  -18.9860   20.0800 N   0  0  0  0  0  0  0  0  0  0  0  0
  -29.4820  -19.0610   21.8830 N   0  0  0  0  0  0  0  0  0  0  0  0
  -29.8730  -22.6310   20.4070 C   0  0  0  0  0  2  0  0  0  0  0  0
  -28.7400  -23.4470   20.9510 N   0  0  0  0  0  4  0  0  0  0  0  0
  -28.1710  -22.8840   21.5590 H   0  0  0  0  0  0  0  0  0  0  0  0
  -29.1370  -24.1690   21.5360 H   0  0  0  0  0  0  0  0  0  0  0  0
  -27.8330  -24.1280   19.9730 C   0  0  0  0  0  2  0  0  0  0  0  0
  -28.3910  -25.4130   19.2740 C   0  0  0  0  0  2  0  0  0  0  0  0
  -28.2720  -26.6680   19.9870 O   0  0  0  0  0  0  0  0  0  0  0  0
  -24.5210  -31.8170   23.1820 C   0  0  0  0  0  0  0  0  0  0  0  0
  -27.0940  -27.4020   19.9660 C   0  0  0  0  0  0  0  0  0  0  0  0
  -23.2820  -30.4540   21.5320 C   0  0  0  0  0  3  0  0  0  0  0  0
  -24.7050  -28.9390   20.0470 C   0  0  0  0  0  0  0  0  0  0  0  0
  -25.8080  -30.7990   21.3000 C   0  0  0  0  0  2  0  0  0  0  0  0
  -25.8760  -29.4400   20.6300 C   0  0  0  0  0  0  0  0  0  0  0  0
  -27.0680  -28.6760   20.5910 C   0  0  0  0  0  3  0  0  0  0  0  0
  -25.9020  -26.9300   19.3680 C   0  0  0  0  0  3  0  0  0  0  0  0
  -24.7150  -27.6850   19.4140 C   0  0  0  0  0  3  0  0  0  0  0  0
  -23.4650  -29.8020   20.1350 C   0  0  0  0  0  2  0  0  0  0  0  0
  -24.5570  -31.0390   22.0620 N   0  0  0  0  0  0  0  0  0  0  0  0
  -23.4500  -32.0820   23.7460 O   0  0  0  0  0  0  0  0  0  0  0  0
  -22.6430  -29.4150   22.4840 C   0  0  0  0  0  0  0  0  0  0  0  0
  -21.3160  -29.2420   22.3770 N   0  0  0  0  0  0  0  0  0  0  0  0
  -23.3390  -28.7690   23.2710 O   0  0  0  0  0  0  0  0  0  0  0  0
  -20.8150  -29.8160   21.7150 H   0  0  0  0  0  0  0  0  0  0  0  0
  -17.9500  -28.0250   22.8850 C   0  0  0  0  0  0  0  0  0  0  0  0
  -20.5100  -28.2900   23.1400 C   0  0  0  0  0  3  0  0  0  0  0  0
  -20.6140  -26.8670   22.5440 C   0  0  0  0  0  2  0  0  0  0  0  0
  -19.5050  -26.5530   21.5340 C   0  0  0  0  0  2  0  0  0  0  0  0
  -18.1280  -26.6860   22.1900 C   0  0  0  0  0  2  0  0  0  0  0  0
  -19.0700  -28.7860   23.3160 C   0  0  0  0  0  0  0  0  0  0  0  0
  -18.8520  -30.0410   23.9250 C   0  0  0  0  0  3  0  0  0  0  0  0
  -17.5470  -30.5360   24.1060 C   0  0  0  0  0  3  0  0  0  0  0  0
  -16.4420  -29.7720   23.6910 C   0  0  0  0  0  3  0  0  0  0  0  0
  -16.6450  -28.5180   23.0870 C   0  0  0  0  0  3  0  0  0  0  0  0
  -25.8200  -32.4330   23.7920 C   0  0  0  0  0  3  0  0  0  0  0  0
  -25.5270  -33.8300   24.1390 N   0  0  0  0  0  0  0  0  0  0  0  0
  -25.8710  -34.8870   23.3900 C   0  0  0  0  0  0  0  0  0  0  0  0
  -26.5390  -34.7870   22.3580 O   0  0  0  0  0  0  0  0  0  0  0  0
  -24.9400  -33.9830   24.9450 H   0  0  0  0  0  0  0  0  0  0  0  0
  -24.1840  -36.7170   23.0290 C   0  0  0  0  0  1  0  0  0  0  0  0
  -25.3980  -36.2750   23.8620 C   0  0  0  0  0  3  0  0  0  0  0  0
  -27.5290  -37.1060   24.7580 C   0  0  0  0  0  1  0  0  0  0  0  0
  -26.4530  -37.3110   23.7920 N   0  0  0  0  0  0  0  0  0  0  0  0
  -26.0600  -38.2370   23.9460 H   0  0  0  0  0  0  0  0  0  0  0  0
  -26.3480  -31.6440   25.0540 C   0  0  1  0  0  0  0  0  0  0  0  0
  -25.2700  -31.4050   26.1350 C   0  0  0  0  0  1  0  0  0  0  0  0
  -26.9150  -30.2660   24.6380 C   0  0  0  0  0  1  0  0  0  0  0  0
  -27.5150  -32.4230   25.7060 C   0  0  0  0  0  1  0  0  0  0  0  0
  -30.6470  -16.9280   21.4340 C   0  0  0  0  0  2  0  0  0  0  0  0
  -31.3440  -14.7090   20.6210 C   0  0  0  0  0  0  0  0  0  0  0  0
  -31.0560  -12.4280   19.7400 C   0  0  0  0  0  2  0  0  0  0  0  0
  -30.2020  -12.4800   18.4560 C   0  0  0  0  0  2  0  0  0  0  0  0
  -28.7000  -12.4330   18.7910 C   0  0  0  0  0  2  0  0  0  0  0  0
  -28.2870  -13.4100   19.9260 C   0  0  0  0  0  3  0  0  0  0  0  0
  -29.2690  -13.3490   21.1160 C   0  0  0  0  0  2  0  0  0  0  0  0
  -30.6260  -13.5500   20.5870 N   0  0  0  0  0  0  0  0  0  0  0  0
  -32.5710  -14.7200   20.5260 O   0  0  0  0  0  0  0  0  0  0  0  0
  -30.6470  -15.8550   20.3930 N   0  0  0  0  0  0  0  0  0  0  0  0
  -25.9020  -14.1570   20.5050 C   0  0  0  0  0  0  0  0  0  0  0  0
  -24.7680  -13.4490   20.7950 C   0  0  0  0  0  0  0  0  0  0  0  0
  -25.1500  -12.0730   20.7860 C   0  0  0  0  0  0  0  0  0  0  0  0
  -26.9030  -13.2140   20.3350 N   0  0  0  0  0  0  0  0  0  0  0  0
  -26.4540  -11.9560   20.5680 N   0  0  0  0  0  0  0  0  0  0  0  0
  -24.3420  -10.8550   20.9170 C   0  0  0  0  0  0  0  0  0  0  0  0
  -24.6720   -9.8480   21.8490 C   0  0  0  0  0  3  0  0  0  0  0  0
  -23.8680   -8.6940   21.9690 C   0  0  0  0  0  3  0  0  0  0  0  0
  -22.7210   -8.5400   21.1550 C   0  0  0  0  0  0  0  0  0  0  0  0
  -22.4100   -9.5350   20.2120 C   0  0  0  0  0  3  0  0  0  0  0  0
  -23.2140  -10.6810   20.0900 C   0  0  0  0  0  3  0  0  0  0  0  0
  -21.8950   -7.4430   21.1860 O   0  0  0  0  0  0  0  0  0  0  0  0
  -21.7400   -6.6910   22.3230 C   0  0  0  0  0  0  0  0  0  0  0  0
  -21.2550   -7.2510   23.5260 C   0  0  0  0  0  3  0  0  0  0  0  0
  -21.0440   -6.4280   24.6510 C   0  0  0  0  0  3  0  0  0  0  0  0
  -21.3080   -5.0470   24.5720 C   0  0  0  0  0  0  0  0  0  0  0  0
  -21.7870   -4.4870   23.3740 C   0  0  0  0  0  3  0  0  0  0  0  0
  -21.9990   -5.3080   22.2520 C   0  0  0  0  0  0  0  0  0  0  0  0
  -22.4400   -4.7600   21.0940 F   0  0  0  0  0  0  0  0  0  0  0  0
  -21.0990   -4.2540   25.6490 F   0  0  0  0  0  0  0  0  0  0  0  0
  -23.3870  -14.0080   20.9740 C   0  0  0  0  0  0  0  0  0  0  0  0
  -22.5680  -13.3680   21.8010 N   0  0  0  0  0  0  0  0  0  0  0  0
  -23.0420  -15.0480   20.4150 O   0  0  0  0  0  0  0  0  0  0  0  0
  -22.8580  -12.5270   22.2790 H   0  0  0  0  0  0  0  0  0  0  0  0
  -21.6370  -13.7270   21.9600 H   0  0  0  0  0  0  0  0  0  0  0  0
  -26.1600  -15.5160   20.3480 N   0  0  0  0  0  0  0  0  0  0  0  0
  -25.4250  -16.2120   20.4160 H   0  0  0  0  0  0  0  0  0  0  0  0
  -27.0570  -15.9110   20.1010 H   0  0  0  0  0  0  0  0  0  0  0  0
  -30.4430  -16.2530   18.9780 C   0  0  0  0  0  2  0  0  0  0  0  0
  -31.7270  -16.3920   18.1200 C   0  0  1  0  0  0  0  0  0  0  0  0
  -32.1310  -15.2090   17.6580 F   0  0  0  0  0  0  0  0  0  0  0  0
  -31.4350  -17.1480   17.0630 F   0  0  0  0  0  0  0  0  0  0  0  0
  -32.7390  -16.9620   18.7680 F   0  0  0  0  0  0  0  0  0  0  0  0
  1  5  1  0
  1  3  2  0
  2  6  2  0
  3  2  1  0
  4 54  1  0
  4  6  1  0
  5  4  2  0
  7  3  1  0
  7  8  1  0
  8 10  1  0
  8  9  1  0
 11  8  1  0
 12 11  1  0
 12 13  1  0
 14 25  2  0
 15 13  1  0
 15 20  1  0
 16 24  1  0
 16 26  1  0
 17 23  1  0
 17 19  1  0
 18 24  1  0
 19 18  1  0
 20 19  2  0
 21 22  1  0
 21 15  2  0
 22 17  2  0
 23 16  1  0
 24 14  1  0
 26 28  2  0
 27 26  1  0
 29 27  1  0
 30 39  2  0
 30 35  1  0
 31 27  1  0
 31 35  1  0
 32 31  1  0
 33 34  1  0
 33 32  1  0
 34 30  1  0
 35 36  2  0
 36 37  1  0
 38 37  2  0
 39 38  1  0
 40 14  1  0
 40 41  1  0
 40 50  1  0
 41 44  1  0
 42 46  1  0
 42 41  1  0
 43 42  2  0
 46 45  1  0
 48 46  1  0
 48 49  1  0
 48 47  1  0
 50 53  1  1
 50 51  1  0
 52 50  1  0
 56 61  1  0
 57 58  1  0
 57 56  1  0
 59 58  1  0
 59 67  1  0
 59 60  1  0
 61 55  1  0
 61 60  1  0
 62 55  2  0
 63 55  1  0
 63 54  1  0
 64 65  2  0
 65 84  1  0
 66 65  1  0
 66 69  1  0
 67 64  1  0
 67 68  1  0
 68 66  2  0
 69 70  1  0
 70 71  2  0
 72 75  1  0
 72 71  1  0
 73 72  2  0
 74 73  1  0
 74 69  2  0
 75 76  1  0
 76 77  1  0
 77 78  2  0
 79 78  1  0
 79 83  1  0
 80 79  2  0
 81 76  2  0
 81 80  1  0
 82 81  1  0
 84 85  1  0
 85 88  1  0
 85 87  1  0
 86 84  2  0
 89 90  1  0
 89 64  1  0
 91 89  1  0
 92 63  1  0
 93 96  1  1
 93 92  1  0
 94 93  1  0
 95 93  1  0
M  ISO  4  12 101  13 101  55 100  63 100
M  END
>  <TORSDO>  (82) 
F 23

>  <SCORE>  (82) 
-11.458

>  <name>  (82) 
82

>  <ligand_id>  (82) 
82

>  <original_smiles>  (82) 
[H]c1nc(C([H])([H])N(C(=O)N2C([H])([H])C([H])([H])C([H])([H])C([H])(n3nc(-c4c([H])c([H])c(Oc5c([H])c([H])c(F)c([H])c5F)c([H])c4[H])c(C(=O)N([H])[H])c3N([H])[H])C2([H])[H])C([H])([H])C(F)(F)F)nc([H])c1C([H])([H])[N+]([H])([H])C([H])([H])C([H])([H])Oc1c([H])c([H])c2c(c1[H])C([H])([H])N(C(=O)C([H])(N([H])C(=O)C([H])(N([H])C([H])([H])[H])C([H])([H])[H])C(C([H])([H])[H])(C([H])([H])[H])C([H])([H])[H])C([H])(C(=O)N([H])C1([H])c3c([H])c([H])c([H])c([H])c3C([H])([H])C([H])([H])C1([H])[H])C2([H])[H]

>  <smiles>  (82) 
[H]c1nc(C([H])([H])N(C(=O)N2C([H])([H])C([H])([H])C([H])([H])C([H])(n3nc(-c4c([H])c([H])c(Oc5c([H])c([H])c(F)c([H])c5F)c([H])c4[H])c(C(=O)N([H])[H])c3N([H])[H])C2([H])[H])C([H])([H])C(F)(F)F)nc([H])c1C([H])([H])[N+]([H])([H])C([H])([H])C([H])([H])Oc1c([H])c([H])c2c(c1[H])C([H])([H])N(C(=O)C([H])(N([H])C(=O)C([H])(N([H])C([H])([H])[H])C([H])([H])[H])C(C([H])([H])[H])(C([H])([H])[H])C([H])([H])[H])C([H])(C(=O)N([H])C1([H])c3c([H])c([H])c([H])c([H])c3C([H])([H])C([H])([H])C1([H])[H])C2([H])[H]

$$$$
83:0:0
     RDKit          3D

 91 99  0  0  1  0  0  0  0  0999 V2000
  -30.3820  -20.8830   19.6680 C   0  0  0  0  0  3  0  0  0  0  0  0
  -28.6620  -20.0790   20.7530 C   0  0  0  0  0  3  0  0  0  0  0  0
  -29.1060  -21.2510   20.1890 C   0  0  0  0  0  0  0  0  0  0  0  0
  -30.6730  -19.5990   19.8730 N   0  0  0  0  0  0  0  0  0  0  0  0
  -29.5990  -19.0860   20.5170 N   0  0  0  0  0  0  0  0  0  0  0  0
  -28.3280  -22.5540   20.0390 C   0  0  0  0  0  2  0  0  0  0  0  0
  -28.9860  -23.9250   20.3950 C   0  0  0  0  0  2  0  0  0  0  0  0
  -28.0060  -25.0490   19.9590 C   0  0  0  0  0  2  0  0  0  0  0  0
  -28.2320  -26.4430   20.2890 O   0  0  0  0  0  0  0  0  0  0  0  0
  -24.5240  -31.8310   23.2050 C   0  0  0  0  0  0  0  0  0  0  0  0
  -27.0970  -27.2550   20.2200 C   0  0  0  0  0  0  0  0  0  0  0  0
  -23.3020  -30.4220   21.5860 C   0  0  0  0  0  3  0  0  0  0  0  0
  -24.7360  -28.8440   20.1910 C   0  0  0  0  0  0  0  0  0  0  0  0
  -25.8400  -30.7230   21.3940 C   0  0  0  0  0  2  0  0  0  0  0  0
  -25.9060  -29.3380   20.7820 C   0  0  0  0  0  0  0  0  0  0  0  0
  -27.0880  -28.5530   20.7950 C   0  0  0  0  0  3  0  0  0  0  0  0
  -25.9030  -26.8070   19.5980 C   0  0  0  0  0  3  0  0  0  0  0  0
  -24.7330  -27.5780   19.5950 C   0  0  0  0  0  3  0  0  0  0  0  0
  -23.5070  -29.7240   20.2180 C   0  0  0  0  0  2  0  0  0  0  0  0
  -24.5750  -31.0080   22.1190 N   0  0  0  0  0  0  0  0  0  0  0  0
  -23.4440  -32.1270   23.7360 O   0  0  0  0  0  0  0  0  0  0  0  0
  -22.6340  -29.4240   22.5610 C   0  0  0  0  0  0  0  0  0  0  0  0
  -21.3110  -29.2370   22.4150 N   0  0  0  0  0  0  0  0  0  0  0  0
  -23.3020  -28.8210   23.4050 O   0  0  0  0  0  0  0  0  0  0  0  0
  -20.8340  -29.7710   21.7010 H   0  0  0  0  0  0  0  0  0  0  0  0
  -17.9330  -28.0410   22.8710 C   0  0  0  0  0  0  0  0  0  0  0  0
  -20.4810  -28.3210   23.1990 C   0  0  0  0  0  3  0  0  0  0  0  0
  -20.6060  -26.8730   22.6740 C   0  0  0  0  0  2  0  0  0  0  0  0
  -19.5310  -26.5100   21.6450 C   0  0  0  0  0  2  0  0  0  0  0  0
  -18.1320  -26.6700   22.2480 C   0  0  0  0  0  2  0  0  0  0  0  0
  -19.0360  -28.8220   23.3040 C   0  0  0  0  0  0  0  0  0  0  0  0
  -18.7960  -30.1030   23.8460 C   0  0  0  0  0  3  0  0  0  0  0  0
  -17.4860  -30.6050   23.9620 C   0  0  0  0  0  3  0  0  0  0  0  0
  -16.3960  -29.8220   23.5460 C   0  0  0  0  0  3  0  0  0  0  0  0
  -16.6200  -28.5420   23.0070 C   0  0  0  0  0  3  0  0  0  0  0  0
  -25.8140  -32.4570   23.8170 C   0  0  0  0  0  3  0  0  0  0  0  0
  -25.5130  -33.8590   24.1400 N   0  0  0  0  0  0  0  0  0  0  0  0
  -25.8390  -34.9030   23.3670 C   0  0  0  0  0  0  0  0  0  0  0  0
  -26.4970  -34.7890   22.3300 O   0  0  0  0  0  0  0  0  0  0  0  0
  -24.9320  -34.0240   24.9470 H   0  0  0  0  0  0  0  0  0  0  0  0
  -24.1090  -36.6940   23.0190 C   0  0  0  0  0  1  0  0  0  0  0  0
  -25.3610  -36.2980   23.8190 C   0  0  0  0  0  3  0  0  0  0  0  0
  -27.5140  -37.1770   24.6050 C   0  0  0  0  0  1  0  0  0  0  0  0
  -26.3960  -37.3470   23.6800 N   0  0  0  0  0  0  0  0  0  0  0  0
  -25.9940  -38.2690   23.8310 H   0  0  0  0  0  0  0  0  0  0  0  0
  -26.3290  -31.6900   25.0960 C   0  0  1  0  0  0  0  0  0  0  0  0
  -25.2360  -31.4620   26.1660 C   0  0  0  0  0  1  0  0  0  0  0  0
  -26.9060  -30.3100   24.7060 C   0  0  0  0  0  1  0  0  0  0  0  0
  -27.4790  -32.4850   25.7580 C   0  0  0  0  0  1  0  0  0  0  0  0
  -29.5340  -17.6740   20.9360 C   0  0  0  0  0  3  0  0  0  0  0  0
  -30.2760  -16.6560   20.0120 C   0  0  0  0  0  3  0  0  0  0  0  0
  -30.5190  -14.3370   19.3940 C   0  0  0  0  0  0  0  0  0  0  0  0
  -29.7860  -12.4020   18.0200 C   0  0  0  0  0  2  0  0  0  0  0  0
  -28.6510  -12.7690   17.0460 C   0  0  0  0  0  2  0  0  0  0  0  0
  -27.2840  -12.6030   17.7310 C   0  0  0  0  0  2  0  0  0  0  0  0
  -27.2270  -13.2940   19.1170 C   0  0  0  0  0  3  0  0  0  0  0  0
  -28.4630  -12.9650   19.9730 C   0  0  0  0  0  2  0  0  0  0  0  0
  -29.6850  -13.2690   19.2120 N   0  0  0  0  0  0  0  0  0  0  0  0
  -31.4180  -14.5940   18.5820 O   0  0  0  0  0  0  0  0  0  0  0  0
  -30.2550  -15.2120   20.4140 N   0  0  0  0  0  0  0  0  0  0  0  0
  -25.0540  -13.8380   20.3840 C   0  0  0  0  0  0  0  0  0  0  0  0
  -24.0580  -13.0410   20.8820 C   0  0  0  0  0  0  0  0  0  0  0  0
  -24.4570  -11.6970   20.6090 C   0  0  0  0  0  0  0  0  0  0  0  0
  -25.9930  -12.9780   19.8350 N   0  0  0  0  0  0  0  0  0  0  0  0
  -25.6520  -11.6770   20.0310 N   0  0  0  0  0  0  0  0  0  0  0  0
  -23.7380  -10.4290   20.8080 C   0  0  0  0  0  0  0  0  0  0  0  0
  -24.3120   -9.3590   21.5300 C   0  0  0  0  0  3  0  0  0  0  0  0
  -23.5930   -8.1580   21.7240 C   0  0  0  0  0  3  0  0  0  0  0  0
  -22.2870   -8.0200   21.1970 C   0  0  0  0  0  0  0  0  0  0  0  0
  -21.7300   -9.0790   20.4610 C   0  0  0  0  0  3  0  0  0  0  0  0
  -22.4470  -10.2700   20.2640 C   0  0  0  0  0  3  0  0  0  0  0  0
  -21.5280   -6.8790   21.3100 O   0  0  0  0  0  0  0  0  0  0  0  0
  -21.6850   -6.0110   22.3600 C   0  0  0  0  0  0  0  0  0  0  0  0
  -21.5680   -6.4320   23.7020 C   0  0  0  0  0  3  0  0  0  0  0  0
  -21.6680   -5.4940   24.7490 C   0  0  0  0  0  3  0  0  0  0  0  0
  -21.8810   -4.1330   24.4560 C   0  0  0  0  0  0  0  0  0  0  0  0
  -21.9960   -3.7100   23.1190 C   0  0  0  0  0  3  0  0  0  0  0  0
  -21.8960   -4.6470   22.0750 C   0  0  0  0  0  0  0  0  0  0  0  0
  -21.9870   -4.2310   20.7890 F   0  0  0  0  0  0  0  0  0  0  0  0
  -21.9690   -3.2290   25.4590 F   0  0  0  0  0  0  0  0  0  0  0  0
  -22.7640  -13.5020   21.4870 C   0  0  0  0  0  0  0  0  0  0  0  0
  -22.2090  -12.7320   22.4190 N   0  0  0  0  0  0  0  0  0  0  0  0
  -22.2570  -14.5770   21.1680 O   0  0  0  0  0  0  0  0  0  0  0  0
  -22.6350  -11.8630   22.7040 H   0  0  0  0  0  0  0  0  0  0  0  0
  -21.3470  -13.0230   22.8580 H   0  0  0  0  0  0  0  0  0  0  0  0
  -25.2250  -15.2170   20.3300 N   0  0  0  0  0  0  0  0  0  0  0  0
  -24.5160  -15.8600   20.6660 H   0  0  0  0  0  0  0  0  0  0  0  0
  -26.0000  -15.6810   19.8730 H   0  0  0  0  0  0  0  0  0  0  0  0
  -30.6920  -13.4990   22.3080 C   0  0  0  0  0  1  0  0  0  0  0  0
  -32.1530  -15.5180   22.0740 C   0  0  0  0  0  1  0  0  0  0  0  0
  -30.7340  -14.9650   21.8130 C   0  0  0  0  0  3  0  0  0  0  0  0
  1  4  2  0
  1  3  1  0
  3  2  2  0
  4  5  1  0
  5  2  1  0
  5 50  1  0
  6  3  1  0
  6  7  1  0
  8  9  1  0
  8  7  1  0
 10 21  2  0
 11  9  1  0
 11 16  1  0
 12 20  1  0
 12 22  1  0
 13 19  1  0
 13 15  1  0
 14 20  1  0
 15 16  2  0
 15 14  1  0
 17 11  2  0
 18 17  1  0
 18 13  2  0
 19 12  1  0
 20 10  1  0
 22 24  2  0
 23 22  1  0
 25 23  1  0
 26 35  2  0
 26 31  1  0
 27 23  1  0
 27 31  1  0
 28 27  1  0
 29 30  1  0
 29 28  1  0
 30 26  1  0
 31 32  2  0
 32 33  1  0
 34 33  2  0
 35 34  1  0
 36 10  1  0
 36 37  1  0
 36 46  1  0
 37 40  1  0
 38 42  1  0
 38 37  1  0
 39 38  2  0
 42 41  1  0
 44 42  1  0
 44 45  1  0
 44 43  1  0
 46 49  1  1
 46 47  1  0
 48 46  1  0
 51 60  1  0
 51 50  2  0
 52 60  1  0
 53 58  1  0
 54 55  1  0
 54 53  1  0
 56 55  1  0
 56 64  1  0
 56 57  1  0
 58 52  1  0
 58 57  1  0
 59 52  2  0
 60 91  1  0
 61 62  2  0
 62 81  1  0
 63 66  1  0
 63 62  1  0
 64 65  1  0
 64 61  1  0
 65 63  2  0
 66 67  1  0
 67 68  2  0
 69 72  1  0
 69 68  1  0
 70 69  2  0
 71 70  1  0
 71 66  2  0
 72 73  1  0
 73 74  1  0
 74 75  2  0
 76 75  1  0
 76 80  1  0
 77 76  2  0
 78 73  2  0
 78 77  1  0
 79 78  1  0
 81 82  1  0
 82 84  1  0
 82 85  1  0
 83 81  2  0
 86 61  1  0
 86 87  1  0
 88 86  1  0
 91 90  1  0
 91 89  1  0
M  ISO  4   8 101   9 101  52 100  60 100
M  END
>  <TORSDO>  (83) 
F 22

>  <SCORE>  (83) 
-8.123

>  <name>  (83) 
83

>  <ligand_id>  (83) 
83

>  <original_smiles>  (83) 
[H]c1nn(C([H])([H])C([H])([H])N(C(=O)N2C([H])([H])C([H])([H])C([H])([H])C([H])(n3nc(-c4c([H])c([H])c(Oc5c([H])c([H])c(F)c([H])c5F)c([H])c4[H])c(C(=O)N([H])[H])c3N([H])[H])C2([H])[H])C([H])(C([H])([H])[H])C([H])([H])[H])c([H])c1C([H])([H])C([H])([H])C([H])([H])Oc1c([H])c([H])c2c(c1[H])C([H])([H])N(C(=O)C([H])(N([H])C(=O)C([H])(N([H])C([H])([H])[H])C([H])([H])[H])C(C([H])([H])[H])(C([H])([H])[H])C([H])([H])[H])C([H])(C(=O)N([H])C1([H])c3c([H])c([H])c([H])c([H])c3C([H])([H])C([H])([H])C1([H])[H])C2([H])[H]

>  <smiles>  (83) 
[H]c1nn(C([H])([H])C([H])([H])N(C(=O)N2C([H])([H])C([H])([H])C([H])([H])C([H])(n3nc(-c4c([H])c([H])c(Oc5c([H])c([H])c(F)c([H])c5F)c([H])c4[H])c(C(=O)N([H])[H])c3N([H])[H])C2([H])[H])C([H])(C([H])([H])[H])C([H])([H])[H])c([H])c1C([H])([H])C([H])([H])C([H])([H])Oc1c([H])c([H])c2c(c1[H])C([H])([H])N(C(=O)C([H])(N([H])C(=O)C([H])(N([H])C([H])([H])[H])C([H])([H])[H])C(C([H])([H])[H])(C([H])([H])[H])C([H])([H])[H])C([H])(C(=O)N([H])C1([H])c3c([H])c([H])c([H])c([H])c3C([H])([H])C([H])([H])C1([H])[H])C2([H])[H]

$$$$
84:0:0
     RDKit          3D

 88 96  0  0  1  0  0  0  0  0999 V2000
  -29.4430  -20.7150   21.4990 C   0  0  0  0  0  3  0  0  0  0  0  0
  -29.4040  -20.0920   20.2530 C   0  0  0  0  0  0  0  0  0  0  0  0
  -28.7030  -22.5650   20.2470 C   0  0  0  0  0  3  0  0  0  0  0  0
  -28.6360  -21.3060   18.0890 C   0  0  0  0  0  1  0  0  0  0  0  0
  -28.9160  -21.3170   19.5270 N   0  0  0  0  0  0  0  0  0  0  0  0
  -29.0530  -22.0810   21.4630 N   0  0  0  0  0  0  0  0  0  0  0  0
  -29.0210  -22.6590   22.2940 H   0  0  0  0  0  0  0  0  0  0  0  0
  -29.9600  -18.4640   19.7410 C   0  0  0  0  0  2  0  0  0  0  0  0
  -30.5080  -15.5040   19.9450 C   0  0  0  0  0  0  0  0  0  0  0  0
  -30.4320  -13.0640   18.9720 C   0  0  0  0  0  2  0  0  0  0  0  0
  -29.4390  -12.8570   17.7950 C   0  0  0  0  0  2  0  0  0  0  0  0
  -28.0230  -12.5520   18.3140 C   0  0  0  0  0  2  0  0  0  0  0  0
  -27.6430  -13.4730   19.4970 C   0  0  0  0  0  3  0  0  0  0  0  0
  -28.7620  -13.5780   20.5580 C   0  0  0  0  0  2  0  0  0  0  0  0
  -29.9330  -14.1780   19.8790 N   0  0  0  0  0  0  0  0  0  0  0  0
  -31.6850  -15.4780   19.5440 O   0  0  0  0  0  0  0  0  0  0  0  0
  -28.7700  -16.7980   21.2400 C   0  0  0  0  0  1  0  0  0  0  0  0
  -29.8050  -16.8310   20.2130 N   0  0  0  0  0  0  0  0  0  0  0  0
  -25.3170  -14.0120   20.3900 C   0  0  0  0  0  0  0  0  0  0  0  0
  -24.2790  -13.2290   20.8040 C   0  0  0  0  0  0  0  0  0  0  0  0
  -24.7380  -11.8790   20.7120 C   0  0  0  0  0  0  0  0  0  0  0  0
  -26.3460  -13.1430   20.0710 N   0  0  0  0  0  0  0  0  0  0  0  0
  -26.0120  -11.8500   20.3290 N   0  0  0  0  0  0  0  0  0  0  0  0
  -24.0160  -10.6150   20.9080 C   0  0  0  0  0  0  0  0  0  0  0  0
  -24.4480   -9.6550   21.8480 C   0  0  0  0  0  3  0  0  0  0  0  0
  -23.7210   -8.4590   22.0360 C   0  0  0  0  0  3  0  0  0  0  0  0
  -22.5490   -8.2160   21.2810 C   0  0  0  0  0  0  0  0  0  0  0  0
  -22.1350   -9.1650   20.3300 C   0  0  0  0  0  3  0  0  0  0  0  0
  -22.8630  -10.3520   20.1410 C   0  0  0  0  0  3  0  0  0  0  0  0
  -21.7950   -7.0700   21.3760 O   0  0  0  0  0  0  0  0  0  0  0  0
  -21.6830   -6.3780   22.5550 C   0  0  0  0  0  0  0  0  0  0  0  0
  -21.1650   -6.9770   23.7240 C   0  0  0  0  0  3  0  0  0  0  0  0
  -21.0010   -6.2120   24.8950 C   0  0  0  0  0  3  0  0  0  0  0  0
  -21.3450   -4.8480   24.8990 C   0  0  0  0  0  0  0  0  0  0  0  0
  -21.8560   -4.2460   23.7350 C   0  0  0  0  0  3  0  0  0  0  0  0
  -22.0210   -5.0100   22.5660 C   0  0  0  0  0  0  0  0  0  0  0  0
  -22.4960   -4.4220   21.4410 F   0  0  0  0  0  0  0  0  0  0  0  0
  -21.1800   -4.1100   26.0210 F   0  0  0  0  0  0  0  0  0  0  0  0
  -22.9030  -13.7050   21.1610 C   0  0  0  0  0  0  0  0  0  0  0  0
  -22.2220  -12.9980   22.0540 N   0  0  0  0  0  0  0  0  0  0  0  0
  -22.4430  -14.7420   20.6840 O   0  0  0  0  0  0  0  0  0  0  0  0
  -22.6090  -12.1590   22.4570 H   0  0  0  0  0  0  0  0  0  0  0  0
  -21.3010  -13.3010   22.3370 H   0  0  0  0  0  0  0  0  0  0  0  0
  -25.4600  -15.3850   20.2240 N   0  0  0  0  0  0  0  0  0  0  0  0
  -24.6910  -16.0270   20.3860 H   0  0  0  0  0  0  0  0  0  0  0  0
  -26.2640  -15.8310   19.8010 H   0  0  0  0  0  0  0  0  0  0  0  0
  -27.9710  -24.1670   19.8800 C   0  0  0  0  0  2  0  0  0  0  0  0
  -28.1900  -25.7860   20.2890 O   0  0  0  0  0  0  0  0  0  0  0  0
  -24.6310  -31.8670   23.1870 C   0  0  0  0  0  0  0  0  0  0  0  0
  -27.2030  -26.9300   20.1890 C   0  0  0  0  0  0  0  0  0  0  0  0
  -23.4440  -30.4580   21.5560 C   0  0  0  0  0  3  0  0  0  0  0  0
  -24.9010  -28.8460   20.1350 C   0  0  0  0  0  0  0  0  0  0  0  0
  -26.0130  -30.6610   21.4140 C   0  0  0  0  0  2  0  0  0  0  0  0
  -26.0890  -29.2420   20.7620 C   0  0  0  0  0  0  0  0  0  0  0  0
  -27.2290  -28.3060   20.7660 C   0  0  0  0  0  3  0  0  0  0  0  0
  -25.9870  -26.7100   19.4990 C   0  0  0  0  0  3  0  0  0  0  0  0
  -24.8800  -27.6030   19.4810 C   0  0  0  0  0  3  0  0  0  0  0  0
  -23.6800  -29.7670   20.1830 C   0  0  0  0  0  2  0  0  0  0  0  0
  -24.7180  -31.0240   22.1040 N   0  0  0  0  0  0  0  0  0  0  0  0
  -23.5400  -32.1550   23.7060 O   0  0  0  0  0  0  0  0  0  0  0  0
  -22.7520  -29.4660   22.5280 C   0  0  0  0  0  0  0  0  0  0  0  0
  -21.4230  -29.2970   22.4080 N   0  0  0  0  0  0  0  0  0  0  0  0
  -23.4210  -28.8500   23.3620 O   0  0  0  0  0  0  0  0  0  0  0  0
  -20.9350  -29.8450   21.7140 H   0  0  0  0  0  0  0  0  0  0  0  0
  -18.0450  -28.0730   22.9390 C   0  0  0  0  0  0  0  0  0  0  0  0
  -20.6060  -28.3570   23.1870 C   0  0  0  0  0  3  0  0  0  0  0  0
  -20.7110  -26.9220   22.6160 C   0  0  0  0  0  2  0  0  0  0  0  0
  -19.6050  -26.5920   21.6080 C   0  0  0  0  0  2  0  0  0  0  0  0
  -18.2270  -26.7260   22.2600 C   0  0  0  0  0  2  0  0  0  0  0  0
  -19.1610  -28.8470   23.3610 C   0  0  0  0  0  0  0  0  0  0  0  0
  -18.9330  -30.1040   23.9590 C   0  0  0  0  0  3  0  0  0  0  0  0
  -17.6240  -30.5910   24.1380 C   0  0  0  0  0  3  0  0  0  0  0  0
  -16.5240  -29.8170   23.7310 C   0  0  0  0  0  3  0  0  0  0  0  0
  -16.7370  -28.5590   23.1380 C   0  0  0  0  0  3  0  0  0  0  0  0
  -25.8980  -32.5220   23.8160 C   0  0  0  0  0  3  0  0  0  0  0  0
  -25.5710  -33.9220   24.1470 N   0  0  0  0  0  0  0  0  0  0  0  0
  -25.8850  -34.9840   23.3940 C   0  0  0  0  0  0  0  0  0  0  0  0
  -26.5420  -34.8890   22.3530 O   0  0  0  0  0  0  0  0  0  0  0  0
  -24.9860  -34.0670   24.9570 H   0  0  0  0  0  0  0  0  0  0  0  0
  -24.1350  -36.7700   23.0840 C   0  0  0  0  0  1  0  0  0  0  0  0
  -25.3980  -36.3700   23.8650 C   0  0  0  0  0  3  0  0  0  0  0  0
  -27.5380  -37.2820   24.6560 C   0  0  0  0  0  1  0  0  0  0  0  0
  -26.4190  -37.4330   23.7300 N   0  0  0  0  0  0  0  0  0  0  0  0
  -26.0060  -38.3510   23.8770 H   0  0  0  0  0  0  0  0  0  0  0  0
  -26.4080  -31.7680   25.1070 C   0  0  1  0  0  0  0  0  0  0  0  0
  -25.3060  -31.5320   26.1670 C   0  0  0  0  0  1  0  0  0  0  0  0
  -27.0060  -30.3910   24.7430 C   0  0  0  0  0  1  0  0  0  0  0  0
  -27.5460  -32.5780   25.7710 C   0  0  0  0  0  1  0  0  0  0  0  0
  2  1  2  0
  3 47  1  0
  3  6  1  0
  4  5  1  0
  5  3  1  0
  5  2  1  0
  6  1  1  0
  6  7  1  0
  8 18  1  0
  8  2  1  0
  9 18  1  0
 10 15  1  0
 11 12  1  0
 11 10  1  0
 13 12  1  0
 13 22  1  0
 13 14  1  0
 15  9  1  0
 15 14  1  0
 16  9  2  0
 18 17  1  0
 19 20  2  0
 20 39  1  0
 21 20  1  0
 21 24  1  0
 22 23  1  0
 22 19  1  0
 23 21  2  0
 24 25  1  0
 25 26  2  0
 27 30  1  0
 27 26  1  0
 28 27  2  0
 29 28  1  0
 29 24  2  0
 30 31  1  0
 31 36  2  0
 31 32  1  0
 32 33  2  0
 33 34  1  0
 34 38  1  0
 35 34  2  0
 36 35  1  0
 37 36  1  0
 39 40  1  0
 40 43  1  0
 40 42  1  0
 41 39  2  0
 44 45  1  0
 44 19  1  0
 46 44  1  0
 47 48  1  0
 49 60  2  0
 50 48  1  0
 50 55  1  0
 51 59  1  0
 51 61  1  0
 52 58  1  0
 52 54  1  0
 53 59  1  0
 54 55  2  0
 54 53  1  0
 56 50  2  0
 57 56  1  0
 57 52  2  0
 58 51  1  0
 59 49  1  0
 61 63  2  0
 62 61  1  0
 64 62  1  0
 65 74  2  0
 65 70  1  0
 66 62  1  0
 66 70  1  0
 67 66  1  0
 68 69  1  0
 68 67  1  0
 69 65  1  0
 70 71  2  0
 71 72  1  0
 73 72  2  0
 74 73  1  0
 75 49  1  0
 75 76  1  0
 75 85  1  0
 76 79  1  0
 77 81  1  0
 77 76  1  0
 78 77  2  0
 81 80  1  0
 83 81  1  0
 83 84  1  0
 83 82  1  0
 85 88  1  1
 85 86  1  0
 87 85  1  0
M  ISO  4   9 100  18 100  47 101  48 101
M  END
>  <TORSDO>  (84) 
F 18

>  <SCORE>  (84) 
-16.201

>  <name>  (84) 
84

>  <ligand_id>  (84) 
84

>  <original_smiles>  (84) 
[H]c1c([H])c([H])c2c(c1[H])C([H])([H])C([H])([H])C([H])([H])C2([H])N([H])C(=O)C1([H])N(C(=O)C([H])(N([H])C(=O)C([H])(N([H])C([H])([H])[H])C([H])([H])[H])C(C([H])([H])[H])(C([H])([H])[H])C([H])([H])[H])C([H])([H])c2c([H])c(OC([H])([H])c3n(C([H])([H])[H])c(C([H])([H])N(C(=O)N4C([H])([H])C([H])([H])C([H])([H])C([H])(n5nc(-c6c([H])c([H])c(Oc7c([H])c([H])c(F)c([H])c7F)c([H])c6[H])c(C(=O)N([H])[H])c5N([H])[H])C4([H])[H])C([H])([H])[H])c([H])[n+]3[H])c([H])c([H])c2C1([H])[H]

>  <smiles>  (84) 
[H]c1c([H])c([H])c2c(c1[H])C([H])([H])C([H])([H])C([H])([H])C2([H])N([H])C(=O)C1([H])N(C(=O)C([H])(N([H])C(=O)C([H])(N([H])C([H])([H])[H])C([H])([H])[H])C(C([H])([H])[H])(C([H])([H])[H])C([H])([H])[H])C([H])([H])c2c([H])c(OC([H])([H])c3n(C([H])([H])[H])c(C([H])([H])N(C(=O)N4C([H])([H])C([H])([H])C([H])([H])C([H])(n5nc(-c6c([H])c([H])c(Oc7c([H])c([H])c(F)c([H])c7F)c([H])c6[H])c(C(=O)N([H])[H])c5N([H])[H])C4([H])[H])C([H])([H])[H])c([H])[n+]3[H])c([H])c([H])c2C1([H])[H]

$$$$
85:0:0
     RDKit          3D

 89 97  0  0  1  0  0  0  0  0999 V2000
  -29.5120  -19.9670   18.9660 C   0  0  0  0  0  3  0  0  0  0  0  0
  -29.8200  -19.1130   20.0850 C   0  0  0  0  0  0  0  0  0  0  0  0
  -29.2430  -21.9880   20.2400 C   0  0  0  0  0  0  0  0  0  0  0  0
  -29.5120  -21.1330   21.3710 C   0  0  0  0  0  0  0  0  0  0  0  0
  -29.2430  -21.3340   19.0290 N   0  0  0  0  0  0  0  0  0  0  0  0
  -29.7950  -19.7670   21.2950 N   0  0  0  0  0  0  0  0  0  0  0  0
  -29.5760  -21.6920   22.6020 F   0  0  0  0  0  0  0  0  0  0  0  0
  -29.3090  -23.6310   20.3200 C   0  0  0  0  0  3  0  0  0  0  0  0
  -28.1410  -24.7720   20.0080 C   0  0  0  0  0  3  0  0  0  0  0  0
  -28.3510  -26.2910   20.2060 O   0  0  0  0  0  0  0  0  0  0  0  0
  -24.6500  -31.8680   23.2230 C   0  0  0  0  0  0  0  0  0  0  0  0
  -27.2670  -27.2290   20.1520 C   0  0  0  0  0  0  0  0  0  0  0  0
  -23.4560  -30.4700   21.5790 C   0  0  0  0  0  3  0  0  0  0  0  0
  -24.9140  -28.9200   20.1420 C   0  0  0  0  0  0  0  0  0  0  0  0
  -26.0040  -30.7700   21.4060 C   0  0  0  0  0  2  0  0  0  0  0  0
  -26.0880  -29.3860   20.7460 C   0  0  0  0  0  0  0  0  0  0  0  0
  -27.2670  -28.5540   20.7340 C   0  0  0  0  0  3  0  0  0  0  0  0
  -26.0640  -26.8530   19.5140 C   0  0  0  0  0  3  0  0  0  0  0  0
  -24.9120  -27.6660   19.5120 C   0  0  0  0  0  3  0  0  0  0  0  0
  -23.6770  -29.8030   20.1960 C   0  0  0  0  0  2  0  0  0  0  0  0
  -24.7230  -31.0560   22.1250 N   0  0  0  0  0  0  0  0  0  0  0  0
  -23.5630  -32.1390   23.7570 O   0  0  0  0  0  0  0  0  0  0  0  0
  -22.7920  -29.4510   22.5380 C   0  0  0  0  0  0  0  0  0  0  0  0
  -21.4660  -29.2630   22.4070 N   0  0  0  0  0  0  0  0  0  0  0  0
  -23.4700  -28.8320   23.3610 O   0  0  0  0  0  0  0  0  0  0  0  0
  -20.9750  -29.8140   21.7170 H   0  0  0  0  0  0  0  0  0  0  0  0
  -18.1020  -28.0110   22.8880 C   0  0  0  0  0  0  0  0  0  0  0  0
  -20.6540  -28.3150   23.1740 C   0  0  0  0  0  3  0  0  0  0  0  0
  -20.7830  -26.8820   22.6040 C   0  0  0  0  0  2  0  0  0  0  0  0
  -19.6940  -26.5390   21.5820 C   0  0  0  0  0  2  0  0  0  0  0  0
  -18.3050  -26.6630   22.2150 C   0  0  0  0  0  2  0  0  0  0  0  0
  -19.2050  -28.7930   23.3230 C   0  0  0  0  0  0  0  0  0  0  0  0
  -18.9610  -30.0510   23.9130 C   0  0  0  0  0  3  0  0  0  0  0  0
  -17.6460  -30.5310   24.0700 C   0  0  0  0  0  3  0  0  0  0  0  0
  -16.5570  -29.7460   23.6490 C   0  0  0  0  0  3  0  0  0  0  0  0
  -16.7870  -28.4880   23.0640 C   0  0  0  0  0  3  0  0  0  0  0  0
  -25.9260  -32.5090   23.8500 C   0  0  0  0  0  3  0  0  0  0  0  0
  -26.4470  -31.7360   25.1240 C   0  0  1  0  0  0  0  0  0  0  0  0
  -25.3540  -31.4830   26.1900 C   0  0  0  0  0  1  0  0  0  0  0  0
  -27.0430  -30.3660   24.7300 C   0  0  0  0  0  1  0  0  0  0  0  0
  -27.5890  -32.5370   25.7920 C   0  0  0  0  0  1  0  0  0  0  0  0
  -25.6030  -33.9040   24.1940 N   0  0  0  0  0  0  0  0  0  0  0  0
  -25.9010  -34.9650   23.4330 C   0  0  0  0  0  0  0  0  0  0  0  0
  -26.5440  -34.8760   22.3850 O   0  0  0  0  0  0  0  0  0  0  0  0
  -25.0270  -34.0450   25.0100 H   0  0  0  0  0  0  0  0  0  0  0  0
  -24.1320  -36.7330   23.1490 C   0  0  0  0  0  1  0  0  0  0  0  0
  -25.4090  -36.3460   23.9120 C   0  0  0  0  0  3  0  0  0  0  0  0
  -27.5550  -37.2700   24.6710 C   0  0  0  0  0  1  0  0  0  0  0  0
  -26.4200  -37.4160   23.7630 N   0  0  0  0  0  0  0  0  0  0  0  0
  -26.0040  -38.3300   23.9200 H   0  0  0  0  0  0  0  0  0  0  0  0
  -30.5070  -17.6250   19.9070 C   0  0  0  0  0  2  0  0  0  0  0  0
  -30.7290  -14.9780   20.0590 C   0  0  0  0  0  0  0  0  0  0  0  0
  -30.4860  -12.7140   18.9470 C   0  0  0  0  0  2  0  0  0  0  0  0
  -29.4700  -12.7760   17.7810 C   0  0  0  0  0  2  0  0  0  0  0  0
  -28.0290  -12.5680   18.2900 C   0  0  0  0  0  2  0  0  0  0  0  0
  -27.7270  -13.3970   19.5650 C   0  0  0  0  0  3  0  0  0  0  0  0
  -28.8570  -13.2510   20.6040 C   0  0  0  0  0  2  0  0  0  0  0  0
  -30.0870  -13.7380   19.9590 N   0  0  0  0  0  0  0  0  0  0  0  0
  -31.8790  -15.0350   19.6060 O   0  0  0  0  0  0  0  0  0  0  0  0
  -29.1180  -16.2620   21.4990 C   0  0  0  0  0  1  0  0  0  0  0  0
  -30.0480  -16.1980   20.3700 N   0  0  0  0  0  0  0  0  0  0  0  0
  -25.3870  -13.9590   20.4480 C   0  0  0  0  0  0  0  0  0  0  0  0
  -24.3460  -13.1730   20.8570 C   0  0  0  0  0  0  0  0  0  0  0  0
  -24.8060  -11.8240   20.7560 C   0  0  0  0  0  0  0  0  0  0  0  0
  -26.4160  -13.0880   20.1250 N   0  0  0  0  0  0  0  0  0  0  0  0
  -26.0770  -11.7970   20.3720 N   0  0  0  0  0  0  0  0  0  0  0  0
  -24.0880  -10.5570   20.9470 C   0  0  0  0  0  0  0  0  0  0  0  0
  -24.5270   -9.5910   21.8790 C   0  0  0  0  0  3  0  0  0  0  0  0
  -23.8070   -8.3900   22.0570 C   0  0  0  0  0  3  0  0  0  0  0  0
  -22.6360   -8.1460   21.3030 C   0  0  0  0  0  0  0  0  0  0  0  0
  -22.2160   -9.1000   20.3590 C   0  0  0  0  0  3  0  0  0  0  0  0
  -22.9370  -10.2930   20.1790 C   0  0  0  0  0  3  0  0  0  0  0  0
  -21.8870   -6.9960   21.3910 O   0  0  0  0  0  0  0  0  0  0  0  0
  -21.7780   -6.2970   22.5650 C   0  0  0  0  0  0  0  0  0  0  0  0
  -21.2520   -6.8850   23.7370 C   0  0  0  0  0  3  0  0  0  0  0  0
  -21.0930   -6.1100   24.9030 C   0  0  0  0  0  3  0  0  0  0  0  0
  -21.4500   -4.7490   24.8990 C   0  0  0  0  0  0  0  0  0  0  0  0
  -21.9680   -4.1610   23.7320 C   0  0  0  0  0  3  0  0  0  0  0  0
  -22.1300   -4.9330   22.5680 C   0  0  0  0  0  0  0  0  0  0  0  0
  -22.6100   -4.3560   21.4400 F   0  0  0  0  0  0  0  0  0  0  0  0
  -21.2890   -4.0020   26.0160 F   0  0  0  0  0  0  0  0  0  0  0  0
  -22.9680  -13.6420   21.2240 C   0  0  0  0  0  0  0  0  0  0  0  0
  -22.2920  -12.9240   22.1130 N   0  0  0  0  0  0  0  0  0  0  0  0
  -22.5040  -14.6820   20.7590 O   0  0  0  0  0  0  0  0  0  0  0  0
  -22.6820  -12.0830   22.5130 H   0  0  0  0  0  0  0  0  0  0  0  0
  -21.3700  -13.2210   22.3990 H   0  0  0  0  0  0  0  0  0  0  0  0
  -25.5340  -15.3340   20.2980 N   0  0  0  0  0  0  0  0  0  0  0  0
  -24.7680  -15.9770   20.4660 H   0  0  0  0  0  0  0  0  0  0  0  0
  -26.3550  -15.7870   19.9140 H   0  0  0  0  0  0  0  0  0  0  0  0
  1  5  2  0
  1  2  1  0
  2  6  2  0
  3  8  1  0
  3  4  2  0
  4  7  1  0
  5  3  1  0
  6  4  1  0
  9 10  1  0
  9  8  2  0
 11 22  2  0
 12 10  1  0
 12 17  1  0
 13 21  1  0
 13 23  1  0
 14 20  1  0
 14 16  1  0
 15 21  1  0
 16 15  1  0
 17 16  2  0
 18 12  2  0
 19 18  1  0
 19 14  2  0
 20 13  1  0
 21 11  1  0
 23 25  2  0
 24 23  1  0
 26 24  1  0
 27 36  2  0
 27 32  1  0
 28 24  1  0
 28 32  1  0
 29 28  1  0
 30 31  1  0
 30 29  1  0
 31 27  1  0
 32 33  2  0
 33 34  1  0
 35 34  2  0
 36 35  1  0
 37 11  1  0
 37 42  1  0
 37 38  1  0
 38 41  1  1
 38 39  1  0
 40 38  1  0
 42 45  1  0
 43 47  1  0
 43 42  1  0
 44 43  2  0
 47 46  1  0
 49 47  1  0
 49 50  1  0
 49 48  1  0
 51  2  1  0
 51 61  1  0
 52 61  1  0
 53 58  1  0
 54 55  1  0
 54 53  1  0
 56 55  1  0
 56 65  1  0
 56 57  1  0
 58 52  1  0
 58 57  1  0
 59 52  2  0
 61 60  1  0
 62 63  2  0
 63 82  1  0
 64 63  1  0
 64 67  1  0
 65 66  1  0
 65 62  1  0
 66 64  2  0
 67 68  1  0
 68 69  2  0
 70 73  1  0
 70 69  1  0
 71 70  2  0
 72 71  1  0
 72 67  2  0
 73 74  1  0
 74 79  2  0
 74 75  1  0
 75 76  2  0
 77 76  1  0
 77 81  1  0
 78 77  2  0
 79 78  1  0
 80 79  1  0
 82 83  1  0
 83 86  1  0
 83 85  1  0
 84 82  2  0
 87 62  1  0
 87 88  1  0
 89 87  1  0
M  ISO  4   9 101  10 101  52 100  61 100
M  END
>  <TORSDO>  (85) 
F 19

>  <SCORE>  (85) 
-13.779

>  <name>  (85) 
85

>  <ligand_id>  (85) 
85

>  <original_smiles>  (85) 
[H]c1nc(C([H])([H])C([H])([H])Oc2c([H])c([H])c3c(c2[H])C([H])([H])N(C(=O)C([H])(N([H])C(=O)C([H])(N([H])C([H])([H])[H])C([H])([H])[H])C(C([H])([H])[H])(C([H])([H])[H])C([H])([H])[H])C([H])(C(=O)N([H])C2([H])c4c([H])c([H])c([H])c([H])c4C([H])([H])C([H])([H])C2([H])[H])C3([H])[H])c(F)nc1C([H])([H])N(C(=O)N1C([H])([H])C([H])([H])C([H])([H])C([H])(n2nc(-c3c([H])c([H])c(Oc4c([H])c([H])c(F)c([H])c4F)c([H])c3[H])c(C(=O)N([H])[H])c2N([H])[H])C1([H])[H])C([H])([H])[H]

>  <smiles>  (85) 
[H]c1nc(C([H])([H])C([H])([H])Oc2c([H])c([H])c3c(c2[H])C([H])([H])N(C(=O)C([H])(N([H])C(=O)C([H])(N([H])C([H])([H])[H])C([H])([H])[H])C(C([H])([H])[H])(C([H])([H])[H])C([H])([H])[H])C([H])(C(=O)N([H])C2([H])c4c([H])c([H])c([H])c([H])c4C([H])([H])C([H])([H])C2([H])[H])C3([H])[H])c(F)nc1C([H])([H])N(C(=O)N1C([H])([H])C([H])([H])C([H])([H])C([H])(n2nc(-c3c([H])c([H])c(Oc4c([H])c([H])c(F)c([H])c4F)c([H])c3[H])c(C(=O)N([H])[H])c2N([H])[H])C1([H])[H])C([H])([H])[H]

$$$$
86:0:0
     RDKit          3D

 91 99  0  0  1  0  0  0  0  0999 V2000
  -28.6140  -19.5920   20.2760 C   0  0  0  0  0  3  0  0  0  0  0  0
  -29.0610  -20.9580   20.5040 C   0  0  0  0  0  0  0  0  0  0  0  0
  -29.5210  -18.7050   20.8550 C   0  0  0  0  0  0  0  0  0  0  0  0
  -31.6270  -19.2310   22.1910 C   0  0  0  0  0  1  0  0  0  0  0  0
  -30.2050  -20.9050   21.1730 N   0  0  0  0  0  0  0  0  0  0  0  0
  -30.4650  -19.5760   21.3950 N   0  0  0  0  0  0  0  0  0  0  0  0
  -28.3600  -22.3190   20.0940 C   0  0  0  0  0  2  0  0  0  0  0  0
  -28.9210  -23.8000   20.4310 C   0  0  0  0  0  3  0  0  0  0  0  0
  -27.9380  -25.0230   20.0600 C   0  0  0  0  0  3  0  0  0  0  0  0
  -28.2400  -26.4870   20.2300 O   0  0  0  0  0  0  0  0  0  0  0  0
  -24.5620  -31.9800   23.2510 C   0  0  0  0  0  0  0  0  0  0  0  0
  -27.1500  -27.3910   20.1710 C   0  0  0  0  0  0  0  0  0  0  0  0
  -23.3530  -30.5780   21.6250 C   0  0  0  0  0  3  0  0  0  0  0  0
  -24.7940  -29.0380   20.1830 C   0  0  0  0  0  0  0  0  0  0  0  0
  -25.8980  -30.8900   21.4280 C   0  0  0  0  0  2  0  0  0  0  0  0
  -25.9740  -29.5120   20.7720 C   0  0  0  0  0  0  0  0  0  0  0  0
  -27.1560  -28.7030   20.7530 C   0  0  0  0  0  3  0  0  0  0  0  0
  -25.9430  -26.9910   19.5470 C   0  0  0  0  0  3  0  0  0  0  0  0
  -24.7850  -27.7850   19.5590 C   0  0  0  0  0  3  0  0  0  0  0  0
  -23.5600  -29.9140   20.2410 C   0  0  0  0  0  2  0  0  0  0  0  0
  -24.6250  -31.1680   22.1560 N   0  0  0  0  0  0  0  0  0  0  0  0
  -23.4810  -32.2550   23.7920 O   0  0  0  0  0  0  0  0  0  0  0  0
  -22.7010  -29.5550   22.5880 C   0  0  0  0  0  0  0  0  0  0  0  0
  -21.3770  -29.3660   22.4670 N   0  0  0  0  0  0  0  0  0  0  0  0
  -23.3880  -28.9370   23.4060 O   0  0  0  0  0  0  0  0  0  0  0  0
  -20.8830  -29.9180   21.7790 H   0  0  0  0  0  0  0  0  0  0  0  0
  -18.0110  -28.1330   22.9730 C   0  0  0  0  0  0  0  0  0  0  0  0
  -20.5660  -28.4260   23.2440 C   0  0  0  0  0  3  0  0  0  0  0  0
  -20.6860  -26.9910   22.6810 C   0  0  0  0  0  2  0  0  0  0  0  0
  -19.5890  -26.6450   21.6700 C   0  0  0  0  0  2  0  0  0  0  0  0
  -18.2060  -26.7800   22.3100 C   0  0  0  0  0  2  0  0  0  0  0  0
  -19.1200  -28.9130   23.3970 C   0  0  0  0  0  0  0  0  0  0  0  0
  -18.8840  -30.1780   23.9770 C   0  0  0  0  0  3  0  0  0  0  0  0
  -17.5720  -30.6640   24.1400 C   0  0  0  0  0  3  0  0  0  0  0  0
  -16.4780  -29.8810   23.7320 C   0  0  0  0  0  3  0  0  0  0  0  0
  -16.6990  -28.6180   23.1540 C   0  0  0  0  0  3  0  0  0  0  0  0
  -25.8460  -32.6220   23.8620 C   0  0  0  0  0  3  0  0  0  0  0  0
  -25.5300  -34.0190   24.1920 N   0  0  0  0  0  0  0  0  0  0  0  0
  -25.8690  -35.0760   23.4420 C   0  0  0  0  0  0  0  0  0  0  0  0
  -26.5530  -34.9770   22.4200 O   0  0  0  0  0  0  0  0  0  0  0  0
  -24.9260  -34.1700   24.9870 H   0  0  0  0  0  0  0  0  0  0  0  0
  -24.1640  -36.8840   23.0550 C   0  0  0  0  0  1  0  0  0  0  0  0
  -25.3760  -36.4620   23.9020 C   0  0  0  0  0  3  0  0  0  0  0  0
  -27.4880  -37.3250   24.8110 C   0  0  0  0  0  1  0  0  0  0  0  0
  -26.4180  -37.5110   23.8340 N   0  0  0  0  0  0  0  0  0  0  0  0
  -26.0110  -38.4320   23.9810 H   0  0  0  0  0  0  0  0  0  0  0  0
  -26.3730  -31.8570   25.1390 C   0  0  1  0  0  0  0  0  0  0  0  0
  -25.2890  -31.6170   26.2150 C   0  0  0  0  0  1  0  0  0  0  0  0
  -26.9630  -30.4820   24.7520 C   0  0  0  0  0  1  0  0  0  0  0  0
  -27.5230  -32.6630   25.7890 C   0  0  0  0  0  1  0  0  0  0  0  0
  -29.5250  -17.1380   21.1150 C   0  0  0  0  0  2  0  0  0  0  0  0
  -30.8020  -14.9300   20.5820 C   0  0  0  0  0  0  0  0  0  0  0  0
  -30.6160  -12.6440   19.6060 C   0  0  0  0  0  2  0  0  0  0  0  0
  -29.7370  -12.6880   18.3390 C   0  0  0  0  0  2  0  0  0  0  0  0
  -28.2540  -12.5100   18.7110 C   0  0  0  0  0  2  0  0  0  0  0  0
  -27.8160  -13.4110   19.8990 C   0  0  0  0  0  3  0  0  0  0  0  0
  -28.8300  -13.3890   21.0610 C   0  0  0  0  0  2  0  0  0  0  0  0
  -30.1390  -13.7270   20.4930 N   0  0  0  0  0  0  0  0  0  0  0  0
  -32.0310  -14.9350   20.4730 O   0  0  0  0  0  0  0  0  0  0  0  0
  -30.1230  -16.0870   20.1810 N   0  0  0  0  0  0  0  0  0  0  0  0
  -25.3940  -13.9810   20.5130 C   0  0  0  0  0  0  0  0  0  0  0  0
  -24.3230  -13.1990   20.8470 C   0  0  0  0  0  0  0  0  0  0  0  0
  -24.8070  -11.8540   20.8660 C   0  0  0  0  0  0  0  0  0  0  0  0
  -26.4600  -13.1130   20.3410 N   0  0  0  0  0  0  0  0  0  0  0  0
  -26.1110  -11.8300   20.6190 N   0  0  0  0  0  0  0  0  0  0  0  0
  -24.0880  -10.5860   21.0430 C   0  0  0  0  0  0  0  0  0  0  0  0
  -24.4950   -9.6380   22.0070 C   0  0  0  0  0  3  0  0  0  0  0  0
  -23.7770   -8.4330   22.1730 C   0  0  0  0  0  3  0  0  0  0  0  0
  -22.6410   -8.1680   21.3730 C   0  0  0  0  0  0  0  0  0  0  0  0
  -22.2560   -9.1050   20.3970 C   0  0  0  0  0  3  0  0  0  0  0  0
  -22.9740  -10.3000   20.2310 C   0  0  0  0  0  3  0  0  0  0  0  0
  -21.8980   -7.0150   21.4470 O   0  0  0  0  0  0  0  0  0  0  0  0
  -21.8080   -6.2880   22.6070 C   0  0  0  0  0  0  0  0  0  0  0  0
  -21.3150   -6.8520   23.8040 C   0  0  0  0  0  3  0  0  0  0  0  0
  -21.1750   -6.0500   24.9540 C   0  0  0  0  0  3  0  0  0  0  0  0
  -21.5170   -4.6850   24.9090 C   0  0  0  0  0  0  0  0  0  0  0  0
  -22.0030   -4.1210   23.7170 C   0  0  0  0  0  3  0  0  0  0  0  0
  -22.1460   -4.9200   22.5690 C   0  0  0  0  0  0  0  0  0  0  0  0
  -22.5940   -4.3660   21.4170 F   0  0  0  0  0  0  0  0  0  0  0  0
  -21.3760   -3.9140   26.0120 F   0  0  0  0  0  0  0  0  0  0  0  0
  -22.9090  -13.6600   21.0390 C   0  0  0  0  0  0  0  0  0  0  0  0
  -22.1470  -12.9740   21.8840 N   0  0  0  0  0  0  0  0  0  0  0  0
  -22.4850  -14.6640   20.4700 O   0  0  0  0  0  0  0  0  0  0  0  0
  -22.5030  -12.1640   22.3690 H   0  0  0  0  0  0  0  0  0  0  0  0
  -21.1940  -13.2660   22.0460 H   0  0  0  0  0  0  0  0  0  0  0  0
  -25.5490  -15.3510   20.3190 N   0  0  0  0  0  0  0  0  0  0  0  0
  -24.7660  -15.9930   20.3800 H   0  0  0  0  0  0  0  0  0  0  0  0
  -26.4030  -15.7970   20.0140 H   0  0  0  0  0  0  0  0  0  0  0  0
  -29.0800  -17.0200   18.0750 C   0  0  0  0  0  1  0  0  0  0  0  0
  -31.5760  -17.4380   18.5640 C   0  0  0  0  0  1  0  0  0  0  0  0
  -30.3550  -16.5180   18.7740 C   0  0  0  0  0  3  0  0  0  0  0  0
  1  2  1  0
  1  3  2  0
  2  5  2  0
  3 51  1  0
  3  6  1  0
  5  6  1  0
  6  4  1  0
  7  8  1  0
  7  2  1  0
  9 10  1  0
  9  8  2  0
 11 22  2  0
 12 10  1  0
 12 17  1  0
 13 21  1  0
 13 23  1  0
 14 20  1  0
 14 16  1  0
 15 21  1  0
 16 15  1  0
 17 16  2  0
 18 19  1  0
 18 12  2  0
 19 14  2  0
 20 13  1  0
 21 11  1  0
 23 25  2  0
 24 23  1  0
 26 24  1  0
 27 36  2  0
 27 32  1  0
 28 24  1  0
 28 32  1  0
 29 28  1  0
 30 31  1  0
 30 29  1  0
 31 27  1  0
 32 33  2  0
 33 34  1  0
 35 34  2  0
 36 35  1  0
 37 11  1  0
 37 38  1  0
 37 47  1  0
 38 41  1  0
 39 43  1  0
 39 38  1  0
 40 39  2  0
 43 42  1  0
 45 43  1  0
 45 46  1  0
 45 44  1  0
 47 50  1  1
 47 48  1  0
 49 47  1  0
 53 58  1  0
 54 55  1  0
 54 53  1  0
 56 55  1  0
 56 64  1  0
 56 57  1  0
 58 52  1  0
 58 57  1  0
 59 52  2  0
 60 52  1  0
 60 51  1  0
 61 62  2  0
 62 63  1  0
 62 81  1  0
 63 66  1  0
 64 61  1  0
 64 65  1  0
 65 63  2  0
 66 67  1  0
 67 68  2  0
 69 72  1  0
 69 68  1  0
 70 69  2  0
 71 70  1  0
 71 66  2  0
 72 73  1  0
 73 74  1  0
 74 75  2  0
 76 75  1  0
 76 80  1  0
 77 76  2  0
 78 73  2  0
 78 77  1  0
 79 78  1  0
 81 82  1  0
 82 85  1  0
 82 84  1  0
 83 81  2  0
 86 87  1  0
 86 61  1  0
 88 86  1  0
 89 91  1  0
 90 91  1  0
 91 60  1  0
M  ISO  4   9 101  10 101  52 100  60 100
M  END
>  <TORSDO>  (86) 
F 21

>  <SCORE>  (86) 
-13.160

>  <name>  (86) 
86

>  <ligand_id>  (86) 
86

>  <original_smiles>  (86) 
[H]c1c([H])c([H])c2c(c1[H])C([H])([H])C([H])([H])C([H])([H])C2([H])N([H])C(=O)C1([H])N(C(=O)C([H])(N([H])C(=O)C([H])(N([H])C([H])([H])[H])C([H])([H])[H])C(C([H])([H])[H])(C([H])([H])[H])C([H])([H])[H])C([H])([H])c2c([H])c(OC([H])([H])C([H])([H])C([H])([H])c3nn(C([H])([H])[H])c(C([H])([H])N(C(=O)N4C([H])([H])C([H])([H])C([H])([H])C([H])(n5nc(-c6c([H])c([H])c(Oc7c([H])c([H])c(F)c([H])c7F)c([H])c6[H])c(C(=O)N([H])[H])c5N([H])[H])C4([H])[H])C([H])(C([H])([H])[H])C([H])([H])[H])c3[H])c([H])c([H])c2C1([H])[H]

>  <smiles>  (86) 
[H]c1c([H])c([H])c2c(c1[H])C([H])([H])C([H])([H])C([H])([H])C2([H])N([H])C(=O)C1([H])N(C(=O)C([H])(N([H])C(=O)C([H])(N([H])C([H])([H])[H])C([H])([H])[H])C(C([H])([H])[H])(C([H])([H])[H])C([H])([H])[H])C([H])([H])c2c([H])c(OC([H])([H])C([H])([H])C([H])([H])c3nn(C([H])([H])[H])c(C([H])([H])N(C(=O)N4C([H])([H])C([H])([H])C([H])([H])C([H])(n5nc(-c6c([H])c([H])c(Oc7c([H])c([H])c(F)c([H])c7F)c([H])c6[H])c(C(=O)N([H])[H])c5N([H])[H])C4([H])[H])C([H])(C([H])([H])[H])C([H])([H])[H])c3[H])c([H])c([H])c2C1([H])[H]

$$$$
87:0:0
     RDKit          3D

 88 96  0  0  1  0  0  0  0  0999 V2000
  -28.2490  -19.6950   20.3910 C   0  0  0  0  0  3  0  0  0  0  0  0
  -29.6050  -19.4770   19.9720 C   0  0  0  0  0  0  0  0  0  0  0  0
  -27.9490  -21.0570   20.3380 C   0  0  0  0  0  0  0  0  0  0  0  0
  -26.6480  -21.6990   20.7050 C   0  0  0  0  0  1  0  0  0  0  0  0
  -30.0350  -20.7870   19.6860 N   0  0  0  0  0  0  0  0  0  0  0  0
  -29.0410  -21.8100   19.8880 N   0  0  0  0  0  0  0  0  0  0  0  0
  -30.4930  -18.0530   19.7860 C   0  0  0  0  0  2  0  0  0  0  0  0
  -30.8710  -15.3020   19.9370 C   0  0  0  0  0  0  0  0  0  0  0  0
  -30.6920  -12.9410   18.9530 C   0  0  0  0  0  2  0  0  0  0  0  0
  -29.6790  -12.8820   17.7820 C   0  0  0  0  0  2  0  0  0  0  0  0
  -28.2470  -12.6570   18.3000 C   0  0  0  0  0  2  0  0  0  0  0  0
  -27.9180  -13.5630   19.5110 C   0  0  0  0  0  3  0  0  0  0  0  0
  -29.0410  -13.5330   20.5650 C   0  0  0  0  0  2  0  0  0  0  0  0
  -30.2620  -14.0280   19.8970 N   0  0  0  0  0  0  0  0  0  0  0  0
  -32.0200  -15.3370   19.4740 O   0  0  0  0  0  0  0  0  0  0  0  0
  -29.4310  -16.5920   21.5030 C   0  0  0  0  0  1  0  0  0  0  0  0
  -30.1780  -16.5440   20.2470 N   0  0  0  0  0  0  0  0  0  0  0  0
  -25.6060  -14.1430   20.4350 C   0  0  0  0  0  0  0  0  0  0  0  0
  -24.5550  -13.3680   20.8420 C   0  0  0  0  0  0  0  0  0  0  0  0
  -24.9920  -12.0140   20.7210 C   0  0  0  0  0  0  0  0  0  0  0  0
  -26.6130  -13.2600   20.0870 N   0  0  0  0  0  0  0  0  0  0  0  0
  -26.2580  -11.9700   20.3230 N   0  0  0  0  0  0  0  0  0  0  0  0
  -24.2560  -10.7570   20.9050 C   0  0  0  0  0  0  0  0  0  0  0  0
  -24.6650   -9.7880   21.8510 C   0  0  0  0  0  3  0  0  0  0  0  0
  -23.9260   -8.5980   22.0220 C   0  0  0  0  0  3  0  0  0  0  0  0
  -22.7630   -8.3650   21.2490 C   0  0  0  0  0  0  0  0  0  0  0  0
  -22.3750   -9.3210   20.2940 C   0  0  0  0  0  3  0  0  0  0  0  0
  -23.1140  -10.5030   20.1200 C   0  0  0  0  0  3  0  0  0  0  0  0
  -21.9970   -7.2260   21.3300 O   0  0  0  0  0  0  0  0  0  0  0  0
  -21.8300   -6.5570   22.5160 C   0  0  0  0  0  0  0  0  0  0  0  0
  -21.2500   -7.1770   23.6440 C   0  0  0  0  0  3  0  0  0  0  0  0
  -21.0280   -6.4310   24.8200 C   0  0  0  0  0  3  0  0  0  0  0  0
  -21.3780   -5.0680   24.8670 C   0  0  0  0  0  0  0  0  0  0  0  0
  -21.9500   -4.4490   23.7410 C   0  0  0  0  0  3  0  0  0  0  0  0
  -22.1720   -5.1910   22.5680 C   0  0  0  0  0  0  0  0  0  0  0  0
  -22.7040   -4.5850   21.4800 F   0  0  0  0  0  0  0  0  0  0  0  0
  -21.1610   -4.3500   25.9930 F   0  0  0  0  0  0  0  0  0  0  0  0
  -23.1880  -13.8560   21.2250 C   0  0  0  0  0  0  0  0  0  0  0  0
  -22.5130  -13.1450   22.1230 N   0  0  0  0  0  0  0  0  0  0  0  0
  -22.7310  -14.9030   20.7690 O   0  0  0  0  0  0  0  0  0  0  0  0
  -22.8940  -12.2930   22.5050 H   0  0  0  0  0  0  0  0  0  0  0  0
  -21.6040  -13.4600   22.4320 H   0  0  0  0  0  0  0  0  0  0  0  0
  -25.7850  -15.5170   20.3050 N   0  0  0  0  0  0  0  0  0  0  0  0
  -25.0460  -16.1830   20.5070 H   0  0  0  0  0  0  0  0  0  0  0  0
  -26.6200  -15.9510   19.9320 H   0  0  0  0  0  0  0  0  0  0  0  0
  -29.2820  -23.4050   19.7660 C   0  0  0  0  0  3  0  0  0  0  0  0
  -28.1580  -24.7020   19.6420 C   0  0  0  0  0  3  0  0  0  0  0  0
  -28.4110  -26.2640   19.7760 O   0  0  0  0  0  0  0  0  0  0  0  0
  -24.6830  -31.7660   23.0870 C   0  0  0  0  0  0  0  0  0  0  0  0
  -27.3530  -27.2630   19.7800 C   0  0  0  0  0  0  0  0  0  0  0  0
  -23.5160  -30.4450   21.3690 C   0  0  0  0  0  3  0  0  0  0  0  0
  -24.9960  -28.9880   19.8490 C   0  0  0  0  0  0  0  0  0  0  0  0
  -26.0650  -30.7700   21.2150 C   0  0  0  0  0  2  0  0  0  0  0  0
  -26.1690  -29.4180   20.4830 C   0  0  0  0  0  0  0  0  0  0  0  0
  -27.3470  -28.5700   20.4320 C   0  0  0  0  0  3  0  0  0  0  0  0
  -26.1500  -26.9550   19.1110 C   0  0  0  0  0  3  0  0  0  0  0  0
  -25.0020  -27.7760   19.1480 C   0  0  0  0  0  3  0  0  0  0  0  0
  -23.7520  -29.8570   19.9520 C   0  0  0  0  0  2  0  0  0  0  0  0
  -24.7770  -31.0150   21.9460 N   0  0  0  0  0  0  0  0  0  0  0  0
  -23.5900  -31.9910   23.6330 O   0  0  0  0  0  0  0  0  0  0  0  0
  -22.8610  -29.3690   22.2750 C   0  0  0  0  0  0  0  0  0  0  0  0
  -21.5350  -29.1790   22.1450 N   0  0  0  0  0  0  0  0  0  0  0  0
  -23.5500  -28.7120   23.0580 O   0  0  0  0  0  0  0  0  0  0  0  0
  -21.0370  -29.7660   21.4930 H   0  0  0  0  0  0  0  0  0  0  0  0
  -18.1770  -27.8950   22.6130 C   0  0  0  0  0  0  0  0  0  0  0  0
  -20.7390  -28.1760   22.8590 C   0  0  0  0  0  3  0  0  0  0  0  0
  -20.8500  -26.7910   22.1820 C   0  0  0  0  0  2  0  0  0  0  0  0
  -19.7330  -26.5250   21.1670 C   0  0  0  0  0  2  0  0  0  0  0  0
  -18.3600  -26.6030   21.8390 C   0  0  0  0  0  2  0  0  0  0  0  0
  -19.2930  -28.6420   23.0800 C   0  0  0  0  0  0  0  0  0  0  0  0
  -19.0660  -29.8530   23.7670 C   0  0  0  0  0  3  0  0  0  0  0  0
  -17.7570  -30.3180   23.9950 C   0  0  0  0  0  3  0  0  0  0  0  0
  -16.6570  -29.5660   23.5480 C   0  0  0  0  0  3  0  0  0  0  0  0
  -16.8680  -28.3570   22.8600 C   0  0  0  0  0  3  0  0  0  0  0  0
  -25.9400  -32.4010   23.7530 C   0  0  0  0  0  3  0  0  0  0  0  0
  -26.4420  -31.6000   25.0170 C   0  0  1  0  0  0  0  0  0  0  0  0
  -25.3310  -31.3230   26.0600 C   0  0  0  0  0  1  0  0  0  0  0  0
  -27.0430  -30.2400   24.5990 C   0  0  0  0  0  1  0  0  0  0  0  0
  -27.5710  -32.3870   25.7200 C   0  0  0  0  0  1  0  0  0  0  0  0
  -25.6060  -33.7870   24.1250 N   0  0  0  0  0  0  0  0  0  0  0  0
  -25.9060  -34.8700   23.3940 C   0  0  0  0  0  0  0  0  0  0  0  0
  -26.5590  -34.8100   22.3490 O   0  0  0  0  0  0  0  0  0  0  0  0
  -25.0280  -33.9060   24.9430 H   0  0  0  0  0  0  0  0  0  0  0  0
  -24.1260  -36.6350   23.1580 C   0  0  0  0  0  1  0  0  0  0  0  0
  -25.4080  -36.2370   23.9050 C   0  0  0  0  0  3  0  0  0  0  0  0
  -27.5440  -37.1640   24.6820 C   0  0  0  0  0  1  0  0  0  0  0  0
  -26.4100  -37.3190   23.7760 N   0  0  0  0  0  0  0  0  0  0  0  0
  -25.9870  -38.2260   23.9560 H   0  0  0  0  0  0  0  0  0  0  0  0
  2  1  1  0
  3  1  2  0
  3  4  1  0
  5  6  1  0
  5  2  2  0
  6  3  1  0
  7  2  1  0
  7 17  1  0
  8 17  1  0
  9 14  1  0
 10 11  1  0
 10  9  1  0
 12 11  1  0
 12 21  1  0
 12 13  1  0
 14  8  1  0
 14 13  1  0
 15  8  2  0
 17 16  1  0
 18 19  2  0
 19 38  1  0
 20 19  1  0
 20 23  1  0
 21 22  1  0
 21 18  1  0
 22 20  2  0
 23 24  1  0
 24 25  2  0
 26 29  1  0
 26 25  1  0
 27 26  2  0
 28 27  1  0
 28 23  2  0
 29 30  1  0
 30 35  2  0
 30 31  1  0
 31 32  2  0
 32 33  1  0
 33 37  1  0
 34 33  2  0
 35 34  1  0
 36 35  1  0
 38 39  1  0
 39 42  1  0
 39 41  1  0
 40 38  2  0
 43 18  1  0
 43 44  1  0
 45 43  1  0
 46  6  1  0
 47 46  2  0
 47 48  1  0
 48 50  1  0
 49 60  2  0
 50 55  1  0
 51 59  1  0
 51 61  1  0
 52 58  1  0
 52 54  1  0
 53 59  1  0
 54 53  1  0
 55 54  2  0
 56 57  1  0
 56 50  2  0
 57 52  2  0
 58 51  1  0
 59 49  1  0
 61 63  2  0
 62 61  1  0
 64 62  1  0
 65 74  2  0
 65 70  1  0
 66 62  1  0
 66 70  1  0
 67 66  1  0
 68 69  1  0
 68 67  1  0
 69 65  1  0
 70 71  2  0
 71 72  1  0
 73 72  2  0
 74 73  1  0
 75 49  1  0
 75 80  1  0
 75 76  1  0
 76 79  1  1
 76 77  1  0
 78 76  1  0
 80 83  1  0
 81 85  1  0
 81 80  1  0
 82 81  2  0
 85 84  1  0
 87 85  1  0
 87 88  1  0
 87 86  1  0
M  ISO  4   8 100  17 100  47 101  48 101
M  END
>  <TORSDO>  (87) 
F 19

>  <SCORE>  (87) 
-13.191

>  <name>  (87) 
87

>  <ligand_id>  (87) 
87

>  <original_smiles>  (87) 
[H]c1c([H])c([H])c2c(c1[H])C([H])([H])C([H])([H])C([H])([H])C2([H])N([H])C(=O)C1([H])N(C(=O)C([H])(N([H])C(=O)C([H])(N([H])C([H])([H])[H])C([H])([H])[H])C(C([H])([H])[H])(C([H])([H])[H])C([H])([H])[H])C([H])([H])c2c([H])c(OC([H])([H])C([H])([H])n3nc(C([H])([H])N(C(=O)N4C([H])([H])C([H])([H])C([H])([H])C([H])(n5nc(-c6c([H])c([H])c(Oc7c([H])c([H])c(F)c([H])c7F)c([H])c6[H])c(C(=O)N([H])[H])c5N([H])[H])C4([H])[H])C([H])([H])[H])c([H])c3C([H])([H])[H])c([H])c([H])c2C1([H])[H]

>  <smiles>  (87) 
[H]c1c([H])c([H])c2c(c1[H])C([H])([H])C([H])([H])C([H])([H])C2([H])N([H])C(=O)C1([H])N(C(=O)C([H])(N([H])C(=O)C([H])(N([H])C([H])([H])[H])C([H])([H])[H])C(C([H])([H])[H])(C([H])([H])[H])C([H])([H])[H])C([H])([H])c2c([H])c(OC([H])([H])C([H])([H])n3nc(C([H])([H])N(C(=O)N4C([H])([H])C([H])([H])C([H])([H])C([H])(n5nc(-c6c([H])c([H])c(Oc7c([H])c([H])c(F)c([H])c7F)c([H])c6[H])c(C(=O)N([H])[H])c5N([H])[H])C4([H])[H])C([H])([H])[H])c([H])c3C([H])([H])[H])c([H])c([H])c2C1([H])[H]

$$$$
88:0:0
     RDKit          3D

 91 93  0  0  1  0  0  0  0  0999 V2000
  -25.4980  -29.1600   20.5490 C   0  0  0  0  0  3  0  0  0  0  0  0
  -24.9930  -27.3320   21.9570 C   0  0  0  0  0  1  0  0  0  0  0  0
  -27.1330  -27.7710   19.0890 C   0  0  1  0  0  0  0  0  0  0  0  0
  -26.8040  -25.5790   20.8590 C   0  0  0  0  0  1  0  0  0  0  0  0
  -28.0670  -28.0870   17.8580 C   0  0  0  0  0  1  0  0  0  0  0  0
  -26.4390  -29.1130   19.3530 N   0  0  0  0  0  0  0  0  0  0  0  0
  -25.8380  -25.9900   22.0130 N   0  0  0  0  0  0  0  0  0  0  0  0
  -24.4140  -25.5030   21.3410 C   0  0  0  0  0  1  0  0  0  0  0  0
  -24.8250  -24.4940   19.5600 C   0  0  0  0  0 15  0  0  0  0  0  0
  -26.2730  -24.9450   18.3170 O   0  0  0  0  0  0  0  0  0  0  0  0
  -24.8220  -31.5800   23.1090 C   0  0  0  0  0  0  0  0  0  0  0  0
  -27.4700  -26.0370   18.3130 C   0  0  0  0  0  2  0  0  0  0  0  0
  -23.3450  -29.9950   21.5460 C   0  0  0  0  0  2  0  0  0  0  0  0
  -24.6840  -27.6150   19.3460 C   0  0  0  0  0  1  0  0  0  0  0  0
  -26.5110  -29.5080   22.0360 C   0  0  0  0  0  2  0  0  0  0  0  0
  -26.8080  -28.0990   20.6690 C   0  0  2  0  0  0  0  0  0  0  0  0
  -28.1470  -27.1780   19.8100 C   0  0  0  0  0  2  0  0  0  0  0  0
  -25.9630  -26.1420   17.6140 C   0  0  0  0  0  3  0  0  0  0  0  0
  -24.6570  -26.9080   18.0660 C   0  0  0  0  0  2  0  0  0  0  0  0
  -23.1040  -28.7310   19.9930 C   0  0  0  0  0 15  0  0  0  0  0  0
  -24.9020  -30.3780   22.3620 N   0  0  0  0  0  0  0  0  0  0  0  0
  -23.7380  -32.0880   23.4640 O   0  0  0  0  0  0  0  0  0  0  0  0
  -22.5200  -29.4760   22.6560 C   0  0  0  0  0  0  0  0  0  0  0  0
  -21.2080  -29.3970   22.4920 N   0  0  0  0  0  0  0  0  0  0  0  0
  -23.1200  -29.0310   23.6280 O   0  0  0  0  0  0  0  0  0  0  0  0
  -20.7650  -29.7880   21.6720 H   0  0  0  0  0  0  0  0  0  0  0  0
  -17.9710  -27.9710   23.0110 C   0  0  0  0  0  0  0  0  0  0  0  0
  -20.4540  -28.4780   23.3170 C   0  0  0  0  0  3  0  0  0  0  0  0
  -20.7200  -27.0270   22.8530 C   0  0  0  0  0  2  0  0  0  0  0  0
  -19.7020  -26.5480   21.8210 C   0  0  0  0  0  2  0  0  0  0  0  0
  -18.2960  -26.6050   22.4270 C   0  0  0  0  0  2  0  0  0  0  0  0
  -18.9940  -28.8680   23.3980 C   0  0  0  0  0  0  0  0  0  0  0  0
  -18.6590  -30.1460   23.8930 C   0  0  0  0  0  3  0  0  0  0  0  0
  -17.3130  -30.5290   24.0170 C   0  0  0  0  0  3  0  0  0  0  0  0
  -16.2960  -29.6280   23.6580 C   0  0  0  0  0  3  0  0  0  0  0  0
  -16.6240  -28.3540   23.1590 C   0  0  0  0  0  3  0  0  0  0  0  0
  -26.0860  -32.3630   23.6210 C   0  0  0  0  0  3  0  0  0  0  0  0
  -26.6650  -31.7230   24.9430 C   0  0  1  0  0  0  0  0  0  0  0  0
  -25.5780  -31.5220   26.0250 C   0  0  0  0  0  1  0  0  0  0  0  0
  -27.3060  -30.3500   24.7900 C   0  0  0  0  0  1  0  0  0  0  0  0
  -27.8140  -32.5900   25.4990 C   0  0  0  0  0  1  0  0  0  0  0  0
  -25.7790  -33.8010   23.9310 N   0  0  0  0  0  0  0  0  0  0  0  0
  -26.2000  -34.9110   23.2920 C   0  0  0  0  0  0  0  0  0  0  0  0
  -26.8660  -34.8610   22.2570 O   0  0  0  0  0  0  0  0  0  0  0  0
  -25.1740  -33.9390   24.7250 H   0  0  0  0  0  0  0  0  0  0  0  0
  -24.5710  -36.8600   23.2000 C   0  0  0  0  0  1  0  0  0  0  0  0
  -25.8300  -36.3020   23.8860 C   0  0  0  0  0  3  0  0  0  0  0  0
  -28.0460  -37.0550   24.6620 C   0  0  0  0  0  1  0  0  0  0  0  0
  -26.9090  -37.3150   23.7840 N   0  0  0  0  0  0  0  0  0  0  0  0
  -26.5530  -38.2440   23.9940 H   0  0  0  0  0  0  0  0  0  0  0  0
  -27.8560  -22.8570   20.7110 C   0  0  0  0  0 15  0  0  0  0  0  0
  -29.1890  -18.0730   20.2160 C   0  0  0  0  0  2  0  0  0  0  0  0
  -29.9840  -14.9450   19.3010 C   0  0  0  0  0  2  0  0  0  0  0  0
  -29.5330  -13.6590   18.3210 C   0  0  0  0  0  2  0  0  0  0  0  0
  -28.4540  -12.7290   18.8750 C   0  0  0  0  0  2  0  0  0  0  0  0
  -27.6240  -13.6810   19.7280 C   0  0  0  0  0  3  0  0  0  0  0  0
  -28.3750  -14.8550   20.6530 C   0  0  0  0  0  2  0  0  0  0  0  0
  -29.0130  -16.2380   19.9800 N   0  0  0  0  0  0  0  0  0  0  0  0
  -30.4400  -17.6180   20.0950 O   0  0  0  0  0  1  0  0  0  0  0  0
  -28.4430  -20.1720   20.4500 N   0  0  0  0  0  1  0  0  0  0  0  0
  -25.2840  -13.7820   20.5580 C   0  0  0  0  0  0  0  0  0  0  0  0
  -24.3070  -12.9130   20.9260 C   0  0  0  0  0  0  0  0  0  0  0  0
  -24.8580  -11.5980   20.8050 C   0  0  0  0  0  0  0  0  0  0  0  0
  -26.4040  -13.0460   20.2800 N   0  0  0  0  0  0  0  0  0  0  0  0
  -26.1550  -11.6920   20.4370 N   0  0  0  0  0  0  0  0  0  0  0  0
  -24.1640  -10.2940   20.9780 C   0  0  0  0  0  0  0  0  0  0  0  0
  -24.5940   -9.3220   21.9110 C   0  0  0  0  0  3  0  0  0  0  0  0
  -23.8700   -8.1180   22.0970 C   0  0  0  0  0  3  0  0  0  0  0  0
  -22.6920   -7.8680   21.3530 C   0  0  0  0  0  0  0  0  0  0  0  0
  -22.2710   -8.8270   20.4150 C   0  0  0  0  0  3  0  0  0  0  0  0
  -22.9970  -10.0190   20.2270 C   0  0  0  0  0  3  0  0  0  0  0  0
  -21.9460   -6.7120   21.4410 O   0  0  0  0  0  0  0  0  0  0  0  0
  -21.8430   -5.9990   22.6110 C   0  0  0  0  0  0  0  0  0  0  0  0
  -21.2820   -6.5650   23.7770 C   0  0  0  0  0  3  0  0  0  0  0  0
  -21.1300   -5.7800   24.9380 C   0  0  0  0  0  3  0  0  0  0  0  0
  -21.5310   -4.4300   24.9360 C   0  0  0  0  0  0  0  0  0  0  0  0
  -22.0810   -3.8630   23.7720 C   0  0  0  0  0  3  0  0  0  0  0  0
  -22.2330   -4.6440   22.6140 C   0  0  0  0  0  0  0  0  0  0  0  0
  -22.7440   -4.0840   21.4910 F   0  0  0  0  0  0  0  0  0  0  0  0
  -21.3810   -3.6750   26.0490 F   0  0  0  0  0  0  0  0  0  0  0  0
  -22.9050  -13.3160   21.2650 C   0  0  0  0  0  0  0  0  0  0  0  0
  -22.2610  -12.5970   22.1740 N   0  0  0  0  0  0  0  0  0  0  0  0
  -22.4020  -14.3250   20.7710 O   0  0  0  0  0  0  0  0  0  0  0  0
  -22.6880  -11.7880   22.5990 H   0  0  0  0  0  0  0  0  0  0  0  0
  -21.3250  -12.8590   22.4490 H   0  0  0  0  0  0  0  0  0  0  0  0
  -25.3030  -15.1630   20.3990 N   0  0  0  0  0  0  0  0  0  0  0  0
  -24.4710  -15.7270   20.5260 H   0  0  0  0  0  0  0  0  0  0  0  0
  -26.0990  -15.6890   20.0600 H   0  0  0  0  0  0  0  0  0  0  0  0
  -29.5700  -20.9920   22.5470 C   0  0  0  0  0  1  0  0  0  0  0  0
  -30.6570  -21.4450   20.2010 C   0  0  0  0  0  1  0  0  0  0  0  0
  -29.7420  -20.5620   21.0780 C   0  0  0  0  0  3  0  0  0  0  0  0
  1 16  1  0
  1 15  1  0
  2  7  1  0
  3  5  1  6
  3  6  1  0
  3 17  1  0
  3 16  1  0
  4  7  1  0
  6  1  1  0
  6 16  1  0
  8  7  1  0
 11 22  2  0
 11 37  1  0
 12 10  1  0
 13 21  1  0
 13 23  1  0
 15 21  1  0
 16 17  1  1
 18 19  1  0
 18 12  1  0
 18 10  1  0
 19 14  1  0
 21 11  1  0
 23 25  2  0
 24 23  1  0
 24 28  1  0
 26 24  1  0
 27 36  2  0
 27 32  1  0
 28 32  1  0
 29 28  1  0
 30 31  1  0
 30 29  1  0
 31 27  1  0
 32 33  2  0
 33 34  1  0
 35 34  2  0
 36 35  1  0
 37 42  1  0
 37 38  1  0
 38 41  1  1
 38 39  1  0
 40 38  1  0
 42 45  1  0
 43 47  1  0
 43 42  1  0
 44 43  2  0
 46 47  1  0
 49 47  1  0
 49 50  1  0
 49 48  1  0
 53 58  1  0
 54 55  1  0
 54 53  1  0
 55 56  1  0
 56 64  1  0
 56 57  1  0
 58 52  1  0
 58 57  1  0
 59 52  1  0
 60 91  1  0
 61 62  2  0
 62 81  1  0
 63 62  1  0
 63 66  1  0
 64 65  1  0
 64 61  1  0
 65 63  2  0
 66 67  1  0
 67 68  2  0
 69 72  1  0
 69 68  1  0
 70 69  2  0
 71 70  1  0
 71 66  2  0
 72 73  1  0
 73 78  2  0
 73 74  1  0
 74 75  2  0
 76 75  1  0
 76 80  1  0
 77 76  2  0
 78 77  1  0
 79 78  1  0
 81 82  1  0
 82 85  1  0
 82 84  1  0
 83 81  2  0
 86 87  1  0
 86 61  1  0
 88 86  1  0
 90 91  1  0
 91 89  1  0
M  ISO  4   9 101  10 101  52 100  60 100
M  END
>  <TORSDO>  (88) 
F 20

>  <SCORE>  (88) 
-14.731

>  <name>  (88) 
88

>  <ligand_id>  (88) 
88

>  <original_smiles>  (88) 
[H]c1nc(C([H])([H])[H])c(C([H])([H])N(C(=O)N2C([H])([H])C([H])([H])C([H])([H])C([H])(n3nc(-c4c([H])c([H])c(Oc5c([H])c([H])c(F)c([H])c5F)c([H])c4[H])c(C(=O)N([H])[H])c3N([H])[H])C2([H])[H])C([H])(C([H])([H])[H])C([H])([H])[H])nc1C([H])([H])C([H])([H])Oc1c([H])c([H])c2c(c1[H])C([H])([H])N(C(=O)C([H])(N([H])C(=O)C([H])(N([H])C([H])([H])[H])C([H])([H])[H])C(C([H])([H])[H])(C([H])([H])[H])C([H])([H])[H])C([H])(C(=O)N([H])C1([H])c3c([H])c([H])c([H])c([H])c3C([H])([H])C([H])([H])C1([H])[H])C2([H])[H]

>  <smiles>  (88) 
[H]c1nc(C([H])([H])[H])c(C([H])([H])N(C(=O)N2C([H])([H])C([H])([H])C([H])([H])C([H])(n3nc(-c4c([H])c([H])c(Oc5c([H])c([H])c(F)c([H])c5F)c([H])c4[H])c(C(=O)N([H])[H])c3N([H])[H])C2([H])[H])C([H])(C([H])([H])[H])C([H])([H])[H])nc1C([H])([H])C([H])([H])Oc1c([H])c([H])c2c(c1[H])C([H])([H])N(C(=O)C([H])(N([H])C(=O)C([H])(N([H])C([H])([H])[H])C([H])([H])[H])C(C([H])([H])[H])(C([H])([H])[H])C([H])([H])[H])C([H])(C(=O)N([H])C1([H])c3c([H])c([H])c([H])c([H])c3C([H])([H])C([H])([H])C1([H])[H])C2([H])[H]

$$$$
89:0:0
     RDKit          3D

 88 96  0  0  1  0  0  0  0  0999 V2000
  -28.8400  -23.1450   20.2570 C   0  0  0  0  0  2  0  0  0  0  0  0
  -26.6900  -24.3680   21.2650 C   0  0  0  0  0  1  0  0  0  0  0  0
  -28.1220  -24.6480   20.7550 C   0  0  0  0  0  3  0  0  0  0  0  0
  -28.2580  -26.1290   20.2020 O   0  0  0  0  0  0  0  0  0  0  0  0
  -24.5980  -31.8570   23.2080 C   0  0  0  0  0  0  0  0  0  0  0  0
  -27.2060  -27.1310   20.1910 C   0  0  0  0  0  0  0  0  0  0  0  0
  -23.4150  -30.4650   21.5540 C   0  0  0  0  0  3  0  0  0  0  0  0
  -24.8800  -28.8950   20.1350 C   0  0  0  0  0  0  0  0  0  0  0  0
  -25.9720  -30.7280   21.4150 C   0  0  0  0  0  2  0  0  0  0  0  0
  -26.0540  -29.3340   20.7610 C   0  0  0  0  0  0  0  0  0  0  0  0
  -27.2180  -28.4690   20.7720 C   0  0  0  0  0  3  0  0  0  0  0  0
  -26.0160  -26.8180   19.5000 C   0  0  0  0  0  3  0  0  0  0  0  0
  -24.8760  -27.6510   19.4860 C   0  0  0  0  0  3  0  0  0  0  0  0
  -23.6510  -29.7920   20.1750 C   0  0  0  0  0  2  0  0  0  0  0  0
  -24.6810  -31.0400   22.1130 N   0  0  0  0  0  0  0  0  0  0  0  0
  -23.5060  -32.1370   23.7270 O   0  0  0  0  0  0  0  0  0  0  0  0
  -22.7300  -29.4530   22.5070 C   0  0  0  0  0  0  0  0  0  0  0  0
  -21.4020  -29.2870   22.3770 N   0  0  0  0  0  0  0  0  0  0  0  0
  -23.3970  -28.8190   23.3290 O   0  0  0  0  0  0  0  0  0  0  0  0
  -20.9190  -29.8490   21.6900 H   0  0  0  0  0  0  0  0  0  0  0  0
  -18.0140  -28.1020   22.8760 C   0  0  0  0  0  0  0  0  0  0  0  0
  -20.5760  -28.3470   23.1390 C   0  0  0  0  0  3  0  0  0  0  0  0
  -20.6660  -26.9190   22.5470 C   0  0  0  0  0  2  0  0  0  0  0  0
  -19.5600  -26.6150   21.5320 C   0  0  0  0  0  2  0  0  0  0  0  0
  -18.1810  -26.7590   22.1820 C   0  0  0  0  0  2  0  0  0  0  0  0
  -19.1380  -28.8530   23.3110 C   0  0  0  0  0  0  0  0  0  0  0  0
  -18.9260  -30.1080   23.9220 C   0  0  0  0  0  3  0  0  0  0  0  0
  -17.6240  -30.6110   24.1010 C   0  0  0  0  0  3  0  0  0  0  0  0
  -16.5150  -29.8570   23.6810 C   0  0  0  0  0  3  0  0  0  0  0  0
  -16.7100  -28.6040   23.0750 C   0  0  0  0  0  3  0  0  0  0  0  0
  -25.8670  -32.4950   23.8470 C   0  0  0  0  0  3  0  0  0  0  0  0
  -26.3610  -31.7310   25.1380 C   0  0  1  0  0  0  0  0  0  0  0  0
  -25.2510  -31.5040   26.1900 C   0  0  0  0  0  1  0  0  0  0  0  0
  -26.9480  -30.3490   24.7690 C   0  0  0  0  0  1  0  0  0  0  0  0
  -27.5040  -32.5280   25.8120 C   0  0  0  0  0  1  0  0  0  0  0  0
  -25.5520  -33.8950   24.1720 N   0  0  0  0  0  0  0  0  0  0  0  0
  -25.8930  -34.9520   23.4200 C   0  0  0  0  0  0  0  0  0  0  0  0
  -26.5720  -34.8480   22.3950 O   0  0  0  0  0  0  0  0  0  0  0  0
  -24.9490  -34.0480   24.9670 H   0  0  0  0  0  0  0  0  0  0  0  0
  -24.1730  -36.7540   23.0540 C   0  0  0  0  0  1  0  0  0  0  0  0
  -25.4050  -36.3410   23.8770 C   0  0  0  0  0  3  0  0  0  0  0  0
  -27.5320  -37.2210   24.7350 C   0  0  0  0  0  1  0  0  0  0  0  0
  -26.4420  -37.3920   23.7780 N   0  0  0  0  0  0  0  0  0  0  0  0
  -26.0360  -38.3130   23.9200 H   0  0  0  0  0  0  0  0  0  0  0  0
  -28.3700  -21.4770   20.2360 C   0  0  0  0  0  2  0  0  0  0  0  0
  -30.8260  -18.5950   20.0740 C   0  0  0  0  0  3  0  0  0  0  0  0
  -28.7240  -18.7310   20.5380 C   0  0  0  0  0  3  0  0  0  0  0  0
  -29.7220  -17.7310   20.3880 C   0  0  0  0  0  0  0  0  0  0  0  0
  -30.5120  -19.9290   20.0260 N   0  0  0  0  0  0  0  0  0  0  0  0
  -29.1840  -20.0950   20.3270 N   0  0  0  0  0  0  0  0  0  0  0  0
  -30.4650  -15.0400   20.3060 C   0  0  0  0  0  0  0  0  0  0  0  0
  -30.3930  -12.6730   19.3660 C   0  0  0  0  0  2  0  0  0  0  0  0
  -29.4560  -12.6130   18.1340 C   0  0  0  0  0  2  0  0  0  0  0  0
  -27.9940  -12.3890   18.5670 C   0  0  0  0  0  2  0  0  0  0  0  0
  -27.5820  -13.3110   19.7450 C   0  0  0  0  0  3  0  0  0  0  0  0
  -28.6380  -13.3220   20.8710 C   0  0  0  0  0  2  0  0  0  0  0  0
  -29.9050  -13.7600   20.2670 N   0  0  0  0  0  0  0  0  0  0  0  0
  -31.6600  -15.1380   20.0050 O   0  0  0  0  0  0  0  0  0  0  0  0
  -29.6270  -16.1840   20.5040 N   0  0  0  0  0  0  0  0  0  0  0  0
  -28.6950  -15.8770   20.7410 H   0  0  0  0  0  0  0  0  0  0  0  0
  -25.1990  -13.8820   20.4800 C   0  0  0  0  0  0  0  0  0  0  0  0
  -24.1380  -13.1050   20.8520 C   0  0  0  0  0  0  0  0  0  0  0  0
  -24.6060  -11.7550   20.8230 C   0  0  0  0  0  0  0  0  0  0  0  0
  -26.2450  -13.0070   20.2420 N   0  0  0  0  0  0  0  0  0  0  0  0
  -25.8970  -11.7220   20.5140 N   0  0  0  0  0  0  0  0  0  0  0  0
  -23.8820  -10.4910   21.0140 C   0  0  0  0  0  0  0  0  0  0  0  0
  -24.3040   -9.5330   21.9620 C   0  0  0  0  0  3  0  0  0  0  0  0
  -23.5790   -8.3350   22.1400 C   0  0  0  0  0  3  0  0  0  0  0  0
  -22.4180   -8.0860   21.3700 C   0  0  0  0  0  0  0  0  0  0  0  0
  -22.0150   -9.0340   20.4120 C   0  0  0  0  0  3  0  0  0  0  0  0
  -22.7400  -10.2230   20.2320 C   0  0  0  0  0  3  0  0  0  0  0  0
  -21.6650   -6.9400   21.4570 O   0  0  0  0  0  0  0  0  0  0  0  0
  -21.5920   -6.2130   22.6180 C   0  0  0  0  0  0  0  0  0  0  0  0
  -21.1180   -6.7780   23.8220 C   0  0  0  0  0  3  0  0  0  0  0  0
  -20.9950   -5.9760   24.9740 C   0  0  0  0  0  3  0  0  0  0  0  0
  -21.3340   -4.6120   24.9240 C   0  0  0  0  0  0  0  0  0  0  0  0
  -21.8020   -4.0460   23.7240 C   0  0  0  0  0  3  0  0  0  0  0  0
  -21.9270   -4.8440   22.5740 C   0  0  0  0  0  0  0  0  0  0  0  0
  -22.3570   -4.2900   21.4150 F   0  0  0  0  0  0  0  0  0  0  0  0
  -21.2090   -3.8390   26.0280 F   0  0  0  0  0  0  0  0  0  0  0  0
  -22.7380  -13.5790   21.1180 C   0  0  0  0  0  0  0  0  0  0  0  0
  -22.0080  -12.8810   21.9810 N   0  0  0  0  0  0  0  0  0  0  0  0
  -22.3010  -14.6040   20.5970 O   0  0  0  0  0  0  0  0  0  0  0  0
  -22.3740  -12.0520   22.4240 H   0  0  0  0  0  0  0  0  0  0  0  0
  -21.0690  -13.1800   22.2010 H   0  0  0  0  0  0  0  0  0  0  0  0
  -25.3570  -15.2530   20.2980 N   0  0  0  0  0  0  0  0  0  0  0  0
  -24.5770  -15.8960   20.3910 H   0  0  0  0  0  0  0  0  0  0  0  0
  -26.1790  -15.6890   19.9020 H   0  0  0  0  0  0  0  0  0  0  0  0
  1  3  1  0
  3  2  1  0
  4  3  1  0
  5 16  2  0
  6  4  1  0
  6 11  1  0
  7 15  1  0
  7 17  1  0
  8 14  1  0
  8 10  1  0
  9 15  1  0
 10 11  2  0
 10  9  1  0
 12  6  2  0
 13 12  1  0
 13  8  2  0
 14  7  1  0
 15  5  1  0
 17 19  2  0
 18 17  1  0
 20 18  1  0
 21 30  2  0
 21 26  1  0
 22 18  1  0
 22 26  1  0
 23 22  1  0
 24 25  1  0
 24 23  1  0
 25 21  1  0
 26 27  2  0
 27 28  1  0
 29 28  2  0
 30 29  1  0
 31  5  1  0
 31 36  1  0
 31 32  1  0
 32 35  1  1
 32 33  1  0
 34 32  1  0
 36 39  1  0
 37 41  1  0
 37 36  1  0
 38 37  2  0
 41 40  1  0
 43 41  1  0
 43 44  1  0
 43 42  1  0
 45  1  1  0
 45 50  1  0
 46 48  1  0
 48 59  1  0
 48 47  2  0
 49 46  2  0
 49 50  1  0
 50 47  1  0
 51 59  1  0
 52 57  1  0
 53 54  1  0
 53 52  1  0
 55 54  1  0
 55 64  1  0
 55 56  1  0
 57 51  1  0
 57 56  1  0
 58 51  2  0
 59 60  1  0
 61 62  2  0
 62 81  1  0
 63 62  1  0
 63 66  1  0
 64 61  1  0
 64 65  1  0
 65 63  2  0
 66 67  1  0
 67 68  2  0
 69 72  1  0
 69 68  1  0
 70 69  2  0
 71 70  1  0
 71 66  2  0
 72 73  1  0
 73 74  1  0
 74 75  2  0
 76 75  1  0
 76 80  1  0
 77 76  2  0
 78 73  2  0
 78 77  1  0
 79 78  1  0
 81 82  1  0
 82 85  1  0
 82 84  1  0
 83 81  2  0
 86 87  1  0
 86 61  1  0
 88 86  1  0
M  ISO  4   3 101   4 101  51 100  59 100
M  END
>  <TORSDO>  (89) 
F 19

>  <SCORE>  (89) 
-15.248

>  <name>  (89) 
89

>  <ligand_id>  (89) 
89

>  <original_smiles>  (89) 
[H]c1nn(C([H])([H])C([H])([H])C([H])(Oc2c([H])c([H])c3c(c2[H])C([H])([H])N(C(=O)C([H])(N([H])C(=O)C([H])(N([H])C([H])([H])[H])C([H])([H])[H])C(C([H])([H])[H])(C([H])([H])[H])C([H])([H])[H])C([H])(C(=O)N([H])C2([H])c4c([H])c([H])c([H])c([H])c4C([H])([H])C([H])([H])C2([H])[H])C3([H])[H])C([H])([H])[H])c([H])c1N([H])C(=O)N1C([H])([H])C([H])([H])C([H])([H])C([H])(n2nc(-c3c([H])c([H])c(Oc4c([H])c([H])c(F)c([H])c4F)c([H])c3[H])c(C(=O)N([H])[H])c2N([H])[H])C1([H])[H]

>  <smiles>  (89) 
[H]c1nn(C([H])([H])C([H])([H])C([H])(Oc2c([H])c([H])c3c(c2[H])C([H])([H])N(C(=O)C([H])(N([H])C(=O)C([H])(N([H])C([H])([H])[H])C([H])([H])[H])C(C([H])([H])[H])(C([H])([H])[H])C([H])([H])[H])C([H])(C(=O)N([H])C2([H])c4c([H])c([H])c([H])c([H])c4C([H])([H])C([H])([H])C2([H])[H])C3([H])[H])C([H])([H])[H])c([H])c1N([H])C(=O)N1C([H])([H])C([H])([H])C([H])([H])C([H])(n2nc(-c3c([H])c([H])c(Oc4c([H])c([H])c(F)c([H])c4F)c([H])c3[H])c(C(=O)N([H])[H])c2N([H])[H])C1([H])[H]

$$$$
90:0:0
     RDKit          3D

 87 95  0  0  1  0  0  0  0  0999 V2000
  -28.6960  -22.2150   21.4370 C   0  0  0  0  0  3  0  0  0  0  0  0
  -29.0920  -20.7990   21.5110 C   0  0  0  0  0  3  0  0  0  0  0  0
  -28.8510  -22.0420   19.1480 C   0  0  0  0  0  3  0  0  0  0  0  0
  -28.5470  -22.9800   20.2200 C   0  0  0  0  0  0  0  0  0  0  0  0
  -29.3710  -19.9370   20.3840 C   0  0  0  0  0  0  0  0  0  0  0  0
  -29.2430  -20.6770   19.2160 N   0  0  0  0  0  0  0  0  0  0  0  0
  -27.7720  -24.5000   20.0250 C   0  0  0  0  0  2  0  0  0  0  0  0
  -28.1490  -26.0410   20.2950 O   0  0  0  0  0  0  0  0  0  0  0  0
  -24.6290  -31.9460   23.2640 C   0  0  0  0  0  0  0  0  0  0  0  0
  -27.1480  -27.1240   20.2200 C   0  0  0  0  0  0  0  0  0  0  0  0
  -23.4150  -30.5590   21.6320 C   0  0  0  0  0  3  0  0  0  0  0  0
  -24.8480  -28.9670   20.1950 C   0  0  0  0  0  0  0  0  0  0  0  0
  -25.9780  -30.7790   21.4650 C   0  0  0  0  0  2  0  0  0  0  0  0
  -26.0400  -29.3780   20.8060 C   0  0  0  0  0  0  0  0  0  0  0  0
  -27.1860  -28.4760   20.7980 C   0  0  0  0  0  3  0  0  0  0  0  0
  -25.9270  -26.8530   19.5580 C   0  0  0  0  0  3  0  0  0  0  0  0
  -24.8120  -27.7220   19.5530 C   0  0  0  0  0  3  0  0  0  0  0  0
  -23.6290  -29.8830   20.2530 C   0  0  0  0  0  2  0  0  0  0  0  0
  -24.6960  -31.1190   22.1740 N   0  0  0  0  0  0  0  0  0  0  0  0
  -23.5440  -32.2380   23.7950 O   0  0  0  0  0  0  0  0  0  0  0  0
  -22.7280  -29.5590   22.5980 C   0  0  0  0  0  0  0  0  0  0  0  0
  -21.4000  -29.3860   22.4700 N   0  0  0  0  0  0  0  0  0  0  0  0
  -23.3960  -28.9410   23.4320 O   0  0  0  0  0  0  0  0  0  0  0  0
  -20.9160  -29.9330   21.7720 H   0  0  0  0  0  0  0  0  0  0  0  0
  -18.0220  -28.1650   22.9690 C   0  0  0  0  0  0  0  0  0  0  0  0
  -20.5790  -28.4500   23.2450 C   0  0  0  0  0  3  0  0  0  0  0  0
  -20.6920  -27.0140   22.6840 C   0  0  0  0  0  2  0  0  0  0  0  0
  -19.5970  -26.6750   21.6670 C   0  0  0  0  0  2  0  0  0  0  0  0
  -18.2110  -26.8130   22.3030 C   0  0  0  0  0  2  0  0  0  0  0  0
  -19.1320  -28.9410   23.3980 C   0  0  0  0  0  0  0  0  0  0  0  0
  -18.9000  -30.2030   23.9840 C   0  0  0  0  0  3  0  0  0  0  0  0
  -17.5890  -30.6920   24.1460 C   0  0  0  0  0  3  0  0  0  0  0  0
  -16.4930  -29.9150   23.7320 C   0  0  0  0  0  3  0  0  0  0  0  0
  -16.7110  -28.6540   23.1510 C   0  0  0  0  0  3  0  0  0  0  0  0
  -25.9090  -32.5800   23.8870 C   0  0  0  0  0  3  0  0  0  0  0  0
  -26.4140  -31.8160   25.1730 C   0  0  1  0  0  0  0  0  0  0  0  0
  -25.3140  -31.5970   26.2390 C   0  0  0  0  0  1  0  0  0  0  0  0
  -26.9880  -30.4290   24.8040 C   0  0  0  0  0  1  0  0  0  0  0  0
  -27.5680  -32.6070   25.8320 C   0  0  0  0  0  1  0  0  0  0  0  0
  -25.6040  -33.9830   24.2140 N   0  0  0  0  0  0  0  0  0  0  0  0
  -25.9210  -35.0350   23.4490 C   0  0  0  0  0  0  0  0  0  0  0  0
  -26.5660  -34.9260   22.4020 O   0  0  0  0  0  0  0  0  0  0  0  0
  -25.0270  -34.1390   25.0280 H   0  0  0  0  0  0  0  0  0  0  0  0
  -24.1820  -36.8310   23.1520 C   0  0  0  0  0  1  0  0  0  0  0  0
  -25.4530  -36.4290   23.9170 C   0  0  0  0  0  3  0  0  0  0  0  0
  -27.6150  -37.3230   24.6660 C   0  0  0  0  0  1  0  0  0  0  0  0
  -26.4820  -37.4800   23.7580 N   0  0  0  0  0  0  0  0  0  0  0  0
  -26.0800  -38.4030   23.9080 H   0  0  0  0  0  0  0  0  0  0  0  0
  -30.0880  -18.3780   20.4780 C   0  0  0  0  0  2  0  0  0  0  0  0
  -28.7580  -16.8060   18.8890 C   0  0  0  0  0  1  0  0  0  0  0  0
  -29.5330  -16.7430   20.2220 C   0  0  0  0  0  3  0  0  0  0  0  0
  -30.4140  -15.2560   20.2330 C   0  0  0  0  0  0  0  0  0  0  0  0
  -30.3920  -12.8270   19.3910 C   0  0  0  0  0  2  0  0  0  0  0  0
  -29.4590  -12.6920   18.1600 C   0  0  0  0  0  2  0  0  0  0  0  0
  -28.0010  -12.4430   18.5950 C   0  0  0  0  0  2  0  0  0  0  0  0
  -27.5680  -13.3800   19.7500 C   0  0  0  0  0  3  0  0  0  0  0  0
  -28.6280  -13.4860   20.8650 C   0  0  0  0  0  2  0  0  0  0  0  0
  -29.8810  -13.9460   20.2500 N   0  0  0  0  0  0  0  0  0  0  0  0
  -31.6310  -15.2890   20.0090 O   0  0  0  0  0  0  0  0  0  0  0  0
  -25.2020  -13.9380   20.5290 C   0  0  0  0  0  0  0  0  0  0  0  0
  -24.1420  -13.1560   20.8960 C   0  0  0  0  0  0  0  0  0  0  0  0
  -24.6090  -11.8070   20.8450 C   0  0  0  0  0  0  0  0  0  0  0  0
  -26.2430  -13.0640   20.2660 N   0  0  0  0  0  0  0  0  0  0  0  0
  -25.8990  -11.7750   20.5240 N   0  0  0  0  0  0  0  0  0  0  0  0
  -23.8840  -10.5420   21.0250 C   0  0  0  0  0  0  0  0  0  0  0  0
  -24.3120   -9.5720   21.9580 C   0  0  0  0  0  3  0  0  0  0  0  0
  -23.5860   -8.3720   22.1270 C   0  0  0  0  0  3  0  0  0  0  0  0
  -22.4180   -8.1360   21.3640 C   0  0  0  0  0  0  0  0  0  0  0  0
  -22.0110   -9.0960   20.4200 C   0  0  0  0  0  3  0  0  0  0  0  0
  -22.7370  -10.2860   20.2490 C   0  0  0  0  0  3  0  0  0  0  0  0
  -21.6640   -6.9900   21.4420 O   0  0  0  0  0  0  0  0  0  0  0  0
  -21.5930   -6.2530   22.5970 C   0  0  0  0  0  0  0  0  0  0  0  0
  -21.1160   -6.8060   23.8050 C   0  0  0  0  0  3  0  0  0  0  0  0
  -20.9940   -5.9950   24.9520 C   0  0  0  0  0  3  0  0  0  0  0  0
  -21.3400   -4.6310   24.8890 C   0  0  0  0  0  0  0  0  0  0  0  0
  -21.8110   -4.0780   23.6860 C   0  0  0  0  0  3  0  0  0  0  0  0
  -21.9350   -4.8870   22.5430 C   0  0  0  0  0  0  0  0  0  0  0  0
  -22.3690   -4.3430   21.3800 F   0  0  0  0  0  0  0  0  0  0  0  0
  -21.2160   -3.8500   25.9880 F   0  0  0  0  0  0  0  0  0  0  0  0
  -22.7470  -13.6290   21.1790 C   0  0  0  0  0  0  0  0  0  0  0  0
  -22.0250  -12.9240   22.0430 N   0  0  0  0  0  0  0  0  0  0  0  0
  -22.3060  -14.6600   20.6720 O   0  0  0  0  0  0  0  0  0  0  0  0
  -22.3970  -12.0920   22.4760 H   0  0  0  0  0  0  0  0  0  0  0  0
  -21.0890  -13.2230   22.2760 H   0  0  0  0  0  0  0  0  0  0  0  0
  -25.3630  -15.3110   20.3670 N   0  0  0  0  0  0  0  0  0  0  0  0
  -24.5950  -15.9630   20.4890 H   0  0  0  0  0  0  0  0  0  0  0  0
  -26.2110  -15.7540   20.0380 H   0  0  0  0  0  0  0  0  0  0  0  0
  1  2  1  0
  3  6  2  0
  3  4  1  0
  4  1  2  0
  5 49  1  0
  5  2  2  0
  6  5  1  0
  7  4  1  0
  7  8  1  0
  9 20  2  0
 10  8  1  0
 10 15  1  0
 11 19  1  0
 11 21  1  0
 12 18  1  0
 12 14  1  0
 13 19  1  0
 14 13  1  0
 15 14  2  0
 16 10  2  0
 17 16  1  0
 17 12  2  0
 18 11  1  0
 19  9  1  0
 21 23  2  0
 22 21  1  0
 24 22  1  0
 25 34  2  0
 25 30  1  0
 26 22  1  0
 26 30  1  0
 27 26  1  0
 28 29  1  0
 28 27  1  0
 29 25  1  0
 30 31  2  0
 31 32  1  0
 33 32  2  0
 34 33  1  0
 35  9  1  0
 35 40  1  0
 35 36  1  0
 36 39  1  1
 36 37  1  0
 38 36  1  0
 40 43  1  0
 41 45  1  0
 41 40  1  0
 42 41  2  0
 45 44  1  0
 47 48  1  0
 47 45  1  0
 47 46  1  0
 51 50  1  0
 51 52  1  0
 51 49  1  0
 52 58  1  0
 53 58  1  0
 54 55  1  0
 54 53  1  0
 56 55  1  0
 56 63  1  0
 56 57  1  0
 58 57  1  0
 59 52  2  0
 60 61  2  0
 61 80  1  0
 62 61  1  0
 62 65  1  0
 63 64  1  0
 63 60  1  0
 64 62  2  0
 65 66  1  0
 66 67  2  0
 68 71  1  0
 68 67  1  0
 69 68  2  0
 70 69  1  0
 70 65  2  0
 71 72  1  0
 72 73  1  0
 73 74  2  0
 75 74  1  0
 75 79  1  0
 76 75  2  0
 77 72  2  0
 77 76  1  0
 78 77  1  0
 80 81  1  0
 81 84  1  0
 81 83  1  0
 82 80  2  0
 85 86  1  0
 85 60  1  0
 87 85  1  0
M  ISO  4   7 101   8 101  51 100  52 100
M  END
>  <TORSDO>  (90) 
F 19

>  <SCORE>  (90) 
-16.134

>  <name>  (90) 
90

>  <ligand_id>  (90) 
90

>  <original_smiles>  (90) 
[H]c1nc(C([H])([H])C([H])(C(=O)N2C([H])([H])C([H])([H])C([H])([H])C([H])(n3nc(-c4c([H])c([H])c(Oc5c([H])c([H])c(F)c([H])c5F)c([H])c4[H])c(C(=O)N([H])[H])c3N([H])[H])C2([H])[H])C([H])([H])[H])c([H])c([H])c1C([H])([H])Oc1c([H])c([H])c2c(c1[H])C([H])([H])N(C(=O)C([H])(N([H])C(=O)C([H])(N([H])C([H])([H])[H])C([H])([H])[H])C(C([H])([H])[H])(C([H])([H])[H])C([H])([H])[H])C([H])(C(=O)N([H])C1([H])c3c([H])c([H])c([H])c([H])c3C([H])([H])C([H])([H])C1([H])[H])C2([H])[H]

>  <smiles>  (90) 
[H]c1nc(C([H])([H])C([H])(C(=O)N2C([H])([H])C([H])([H])C([H])([H])C([H])(n3nc(-c4c([H])c([H])c(Oc5c([H])c([H])c(F)c([H])c5F)c([H])c4[H])c(C(=O)N([H])[H])c3N([H])[H])C2([H])[H])C([H])([H])[H])c([H])c([H])c1C([H])([H])Oc1c([H])c([H])c2c(c1[H])C([H])([H])N(C(=O)C([H])(N([H])C(=O)C([H])(N([H])C([H])([H])[H])C([H])([H])[H])C(C([H])([H])[H])(C([H])([H])[H])C([H])([H])[H])C([H])(C(=O)N([H])C1([H])c3c([H])c([H])c([H])c([H])c3C([H])([H])C([H])([H])C1([H])[H])C2([H])[H]

$$$$
91:0:0
     RDKit          3D

 88 96  0  0  1  0  0  0  0  0999 V2000
  -28.8780  -21.8660   20.4230 C   0  0  0  0  0  3  0  0  0  0  0  0
  -28.9680  -23.4410   19.8520 C   0  0  0  0  0  3  0  0  0  0  0  0
  -28.2180  -24.7720   20.5200 C   0  0  0  0  0  2  0  0  0  0  0  0
  -28.4710  -26.2590   20.1840 O   0  0  0  0  0  0  0  0  0  0  0  0
  -24.8470  -31.8660   23.2630 C   0  0  0  0  0  0  0  0  0  0  0  0
  -27.4050  -27.2140   20.1770 C   0  0  0  0  0  0  0  0  0  0  0  0
  -23.6370  -30.4910   21.6120 C   0  0  0  0  0  3  0  0  0  0  0  0
  -25.0760  -28.9330   20.1670 C   0  0  0  0  0  0  0  0  0  0  0  0
  -26.1880  -30.7650   21.4370 C   0  0  0  0  0  2  0  0  0  0  0  0
  -26.2570  -29.3820   20.7730 C   0  0  0  0  0  0  0  0  0  0  0  0
  -27.4260  -28.5400   20.7580 C   0  0  0  0  0  3  0  0  0  0  0  0
  -26.2020  -26.8570   19.5310 C   0  0  0  0  0  3  0  0  0  0  0  0
  -25.0590  -27.6820   19.5300 C   0  0  0  0  0  3  0  0  0  0  0  0
  -23.8500  -29.8280   20.2250 C   0  0  0  0  0  2  0  0  0  0  0  0
  -24.9100  -31.0610   22.1590 N   0  0  0  0  0  0  0  0  0  0  0  0
  -23.7640  -32.1440   23.7990 O   0  0  0  0  0  0  0  0  0  0  0  0
  -22.9630  -29.4720   22.5650 C   0  0  0  0  0  0  0  0  0  0  0  0
  -21.6370  -29.2930   22.4290 N   0  0  0  0  0  0  0  0  0  0  0  0
  -23.6360  -28.8450   23.3880 O   0  0  0  0  0  0  0  0  0  0  0  0
  -21.1510  -29.8500   21.7410 H   0  0  0  0  0  0  0  0  0  0  0  0
  -18.2630  -28.0630   22.8950 C   0  0  0  0  0  0  0  0  0  0  0  0
  -20.8160  -28.3490   23.1920 C   0  0  0  0  0  3  0  0  0  0  0  0
  -20.9380  -26.9170   22.6190 C   0  0  0  0  0  2  0  0  0  0  0  0
  -19.8510  -26.5830   21.5920 C   0  0  0  0  0  2  0  0  0  0  0  0
  -18.4600  -26.7160   22.2210 C   0  0  0  0  0  2  0  0  0  0  0  0
  -19.3700  -28.8360   23.3380 C   0  0  0  0  0  0  0  0  0  0  0  0
  -19.1310  -30.0950   23.9290 C   0  0  0  0  0  3  0  0  0  0  0  0
  -17.8190  -30.5820   24.0820 C   0  0  0  0  0  3  0  0  0  0  0  0
  -16.7270  -29.8060   23.6560 C   0  0  0  0  0  3  0  0  0  0  0  0
  -16.9500  -28.5490   23.0690 C   0  0  0  0  0  3  0  0  0  0  0  0
  -26.1300  -32.4900   23.8920 C   0  0  0  0  0  3  0  0  0  0  0  0
  -26.6430  -31.7050   25.1620 C   0  0  1  0  0  0  0  0  0  0  0  0
  -25.5480  -31.4580   26.2260 C   0  0  0  0  0  1  0  0  0  0  0  0
  -27.2260  -30.3310   24.7590 C   0  0  0  0  0  1  0  0  0  0  0  0
  -27.7920  -32.4920   25.8330 C   0  0  0  0  0  1  0  0  0  0  0  0
  -25.8220  -33.8860   24.2410 N   0  0  0  0  0  0  0  0  0  0  0  0
  -26.1550  -34.9490   23.4990 C   0  0  0  0  0  0  0  0  0  0  0  0
  -26.8200  -34.8600   22.4640 O   0  0  0  0  0  0  0  0  0  0  0  0
  -25.2290  -34.0300   25.0450 H   0  0  0  0  0  0  0  0  0  0  0  0
  -24.4310  -36.7560   23.1820 C   0  0  0  0  0  1  0  0  0  0  0  0
  -25.6750  -36.3340   23.9800 C   0  0  0  0  0  3  0  0  0  0  0  0
  -27.8160  -37.2020   24.8130 C   0  0  0  0  0  1  0  0  0  0  0  0
  -26.7110  -37.3850   23.8770 N   0  0  0  0  0  0  0  0  0  0  0  0
  -26.3070  -38.3050   24.0370 H   0  0  0  0  0  0  0  0  0  0  0  0
  -29.3620  -20.6970   19.5770 O   0  0  0  0  0  0  0  0  0  0  0  0
  -29.8080  -17.1220   18.8260 C   0  0  0  0  0  2  0  0  0  0  0  0
  -30.2270  -16.4060   19.9940 C   0  0  0  0  0  0  0  0  0  0  0  0
  -29.9960  -18.5820   21.0690 C   0  0  0  0  0  3  0  0  0  0  0  0
  -29.6060  -19.2870   19.8680 C   0  0  0  0  0  0  0  0  0  0  0  0
  -30.1500  -19.3280   22.3760 C   0  0  0  0  0  1  0  0  0  0  0  0
  -29.5140  -18.4770   18.7660 N   0  0  0  0  0  0  0  0  0  0  0  0
  -30.3050  -17.2110   21.1210 N   0  0  0  0  0  0  0  0  0  0  0  0
  -30.8800  -14.9490   19.8500 C   0  0  0  0  0  0  0  0  0  0  0  0
  -30.5830  -12.6820   18.8020 C   0  0  0  0  0  2  0  0  0  0  0  0
  -29.5640  -12.7630   17.6440 C   0  0  0  0  0  2  0  0  0  0  0  0
  -28.1360  -12.5450   18.1760 C   0  0  0  0  0  2  0  0  0  0  0  0
  -27.8390  -13.3920   19.4420 C   0  0  0  0  0  3  0  0  0  0  0  0
  -28.9790  -13.3360   20.4760 C   0  0  0  0  0  2  0  0  0  0  0  0
  -30.2160  -13.7300   19.7960 N   0  0  0  0  0  0  0  0  0  0  0  0
  -32.0680  -14.9410   19.5070 O   0  0  0  0  0  0  0  0  0  0  0  0
  -25.5170  -13.9110   20.3790 C   0  0  0  0  0  0  0  0  0  0  0  0
  -24.4940  -13.1090   20.8020 C   0  0  0  0  0  0  0  0  0  0  0  0
  -24.9710  -11.7670   20.6960 C   0  0  0  0  0  0  0  0  0  0  0  0
  -26.5490  -13.0560   20.0330 N   0  0  0  0  0  0  0  0  0  0  0  0
  -26.2360  -11.7600   20.2920 N   0  0  0  0  0  0  0  0  0  0  0  0
  -24.2760  -10.4890   20.9000 C   0  0  0  0  0  0  0  0  0  0  0  0
  -24.7020   -9.5600   21.8750 C   0  0  0  0  0  3  0  0  0  0  0  0
  -24.0040   -8.3490   22.0650 C   0  0  0  0  0  3  0  0  0  0  0  0
  -22.8630   -8.0570   21.2800 C   0  0  0  0  0  0  0  0  0  0  0  0
  -22.4550   -8.9740   20.2950 C   0  0  0  0  0  3  0  0  0  0  0  0
  -23.1550  -10.1770   20.1030 C   0  0  0  0  0  3  0  0  0  0  0  0
  -22.1370   -6.8940   21.3760 O   0  0  0  0  0  0  0  0  0  0  0  0
  -21.9560   -6.2560   22.5770 C   0  0  0  0  0  0  0  0  0  0  0  0
  -21.3400   -6.8950   23.6750 C   0  0  0  0  0  3  0  0  0  0  0  0
  -21.1110   -6.1810   24.8680 C   0  0  0  0  0  3  0  0  0  0  0  0
  -21.4870   -4.8270   24.9630 C   0  0  0  0  0  0  0  0  0  0  0  0
  -22.0970   -4.1880   23.8680 C   0  0  0  0  0  3  0  0  0  0  0  0
  -22.3270   -4.9000   22.6780 C   0  0  0  0  0  0  0  0  0  0  0  0
  -22.8940   -4.2730   21.6190 F   0  0  0  0  0  0  0  0  0  0  0  0
  -21.2620   -4.1380   26.1050 F   0  0  0  0  0  0  0  0  0  0  0  0
  -23.1140  -13.5580   21.1860 C   0  0  0  0  0  0  0  0  0  0  0  0
  -22.4650  -12.8380   22.0930 N   0  0  0  0  0  0  0  0  0  0  0  0
  -22.6220  -14.5840   20.7170 O   0  0  0  0  0  0  0  0  0  0  0  0
  -22.8790  -12.0080   22.4930 H   0  0  0  0  0  0  0  0  0  0  0  0
  -21.5440  -13.1190   22.3940 H   0  0  0  0  0  0  0  0  0  0  0  0
  -25.6520  -15.2890   20.2360 N   0  0  0  0  0  0  0  0  0  0  0  0
  -24.8930  -15.9310   20.4380 H   0  0  0  0  0  0  0  0  0  0  0  0
  -26.4830  -15.7550   19.8930 H   0  0  0  0  0  0  0  0  0  0  0  0
  2  1  2  0
  2  3  1  0
  4  3  1  0
  5 16  2  0
  6  4  1  0
  6 11  1  0
  7 15  1  0
  7 17  1  0
  8 14  1  0
  8 10  1  0
  9 15  1  0
 10  9  1  0
 11 10  2  0
 12  6  2  0
 13 12  1  0
 13  8  2  0
 14  7  1  0
 15  5  1  0
 17 19  2  0
 18 17  1  0
 20 18  1  0
 21 30  2  0
 21 26  1  0
 22 18  1  0
 22 26  1  0
 23 22  1  0
 24 25  1  0
 24 23  1  0
 25 21  1  0
 26 27  2  0
 27 28  1  0
 29 28  2  0
 30 29  1  0
 31  5  1  0
 31 36  1  0
 31 32  1  0
 32 35  1  1
 32 33  1  0
 34 32  1  0
 36 39  1  0
 37 41  1  0
 37 36  1  0
 38 37  2  0
 41 40  1  0
 43 41  1  0
 43 44  1  0
 43 42  1  0
 45 49  1  0
 45  1  1  0
 46 47  1  0
 47 52  2  0
 48 52  1  0
 48 50  1  0
 49 48  1  0
 51 46  1  0
 51 49  2  0
 53 47  1  0
 54 59  1  0
 55 56  1  0
 55 54  1  0
 57 56  1  0
 57 64  1  0
 57 58  1  0
 59 53  1  0
 59 58  1  0
 60 53  2  0
 61 62  2  0
 62 81  1  0
 63 62  1  0
 63 66  1  0
 64 65  1  0
 64 61  1  0
 65 63  2  0
 66 67  1  0
 67 68  2  0
 69 72  1  0
 69 68  1  0
 70 69  2  0
 71 70  1  0
 71 66  2  0
 72 73  1  0
 73 78  2  0
 73 74  1  0
 74 75  2  0
 75 76  1  0
 76 80  1  0
 77 76  2  0
 78 77  1  0
 79 78  1  0
 81 82  1  0
 82 85  1  0
 82 84  1  0
 83 81  2  0
 86 61  1  0
 86 87  1  0
 88 86  1  0
M  ISO  4   3 101   4 101  47 100  53 100
M  END
>  <TORSDO>  (91) 
F 20

>  <SCORE>  (91) 
-12.385

>  <name>  (91) 
91

>  <ligand_id>  (91) 
91

>  <original_smiles>  (91) 
[H]c1nc(OC([H])([H])C([H])([H])C([H])([H])Oc2c([H])c([H])c3c(c2[H])C([H])([H])N(C(=O)C([H])(N([H])C(=O)C([H])(N([H])C([H])([H])[H])C([H])([H])[H])C(C([H])([H])[H])(C([H])([H])[H])C([H])([H])[H])C([H])(C(=O)N([H])C2([H])c4c([H])c([H])c([H])c([H])c4C([H])([H])C([H])([H])C2([H])[H])C3([H])[H])c(C([H])([H])[H])nc1C(=O)N1C([H])([H])C([H])([H])C([H])([H])C([H])(n2nc(-c3c([H])c([H])c(Oc4c([H])c([H])c(F)c([H])c4F)c([H])c3[H])c(C(=O)N([H])[H])c2N([H])[H])C1([H])[H]

>  <smiles>  (91) 
[H]c1nc(OC([H])([H])C([H])([H])C([H])([H])Oc2c([H])c([H])c3c(c2[H])C([H])([H])N(C(=O)C([H])(N([H])C(=O)C([H])(N([H])C([H])([H])[H])C([H])([H])[H])C(C([H])([H])[H])(C([H])([H])[H])C([H])([H])[H])C([H])(C(=O)N([H])C2([H])c4c([H])c([H])c([H])c([H])c4C([H])([H])C([H])([H])C2([H])[H])C3([H])[H])c(C([H])([H])[H])nc1C(=O)N1C([H])([H])C([H])([H])C([H])([H])C([H])(n2nc(-c3c([H])c([H])c(Oc4c([H])c([H])c(F)c([H])c4F)c([H])c3[H])c(C(=O)N([H])[H])c2N([H])[H])C1([H])[H]

$$$$
92:0:0
     RDKit          3D

 85 93  0  0  1  0  0  0  0  0999 V2000
  -28.4360  -20.4550   20.3650 C   0  0  0  0  0  3  0  0  0  0  0  0
  -30.3470  -20.1750   19.6990 C   0  0  0  0  0  3  0  0  0  0  0  0
  -28.7670  -21.9350   20.1480 C   0  0  0  0  0  0  0  0  0  0  0  0
  -30.0750  -21.5570   19.6920 N   0  0  0  0  0  0  0  0  0  0  0  0
  -29.4180  -19.2420   20.1060 N   0  0  0  0  0  0  0  0  0  0  0  0
  -29.1960  -17.3030   21.8320 C   0  0  0  0  0  1  0  0  0  0  0  0
  -29.4090  -17.4200   20.3130 C   0  0  0  0  0  3  0  0  0  0  0  0
  -30.2740  -15.7680   19.8820 C   0  0  0  0  0  0  0  0  0  0  0  0
  -30.3680  -13.2300   18.9430 C   0  0  0  0  0  2  0  0  0  0  0  0
  -29.3850  -12.8700   17.7850 C   0  0  0  0  0  2  0  0  0  0  0  0
  -27.9980  -12.4840   18.3220 C   0  0  0  0  0  2  0  0  0  0  0  0
  -27.5710  -13.4300   19.4640 C   0  0  0  0  0  3  0  0  0  0  0  0
  -28.6830  -13.6840   20.5060 C   0  0  0  0  0  2  0  0  0  0  0  0
  -29.8100  -14.3650   19.8180 N   0  0  0  0  0  0  0  0  0  0  0  0
  -31.4720  -15.7360   19.5300 O   0  0  0  0  0  0  0  0  0  0  0  0
  -25.2750  -13.9170   20.4310 C   0  0  0  0  0  0  0  0  0  0  0  0
  -24.2480  -13.1190   20.8510 C   0  0  0  0  0  0  0  0  0  0  0  0
  -24.7200  -11.7750   20.7360 C   0  0  0  0  0  0  0  0  0  0  0  0
  -26.2990  -13.0620   20.0710 N   0  0  0  0  0  0  0  0  0  0  0  0
  -25.9850  -11.7630   20.3220 N   0  0  0  0  0  0  0  0  0  0  0  0
  -24.0120  -10.5020   20.9370 C   0  0  0  0  0  0  0  0  0  0  0  0
  -24.4720   -9.5340   21.8560 C   0  0  0  0  0  3  0  0  0  0  0  0
  -23.7590   -8.3310   22.0480 C   0  0  0  0  0  3  0  0  0  0  0  0
  -22.5700   -8.0870   21.3210 C   0  0  0  0  0  0  0  0  0  0  0  0
  -22.1270   -9.0440   20.3910 C   0  0  0  0  0  3  0  0  0  0  0  0
  -22.8410  -10.2370   20.1970 C   0  0  0  0  0  3  0  0  0  0  0  0
  -21.8250   -6.9350   21.4220 O   0  0  0  0  0  0  0  0  0  0  0  0
  -21.7530   -6.2260   22.5950 C   0  0  0  0  0  0  0  0  0  0  0  0
  -21.2890   -6.8110   23.7930 C   0  0  0  0  0  3  0  0  0  0  0  0
  -21.1650   -6.0270   24.9570 C   0  0  0  0  0  3  0  0  0  0  0  0
  -21.4940   -4.6600   24.9240 C   0  0  0  0  0  0  0  0  0  0  0  0
  -21.9510   -4.0730   23.7310 C   0  0  0  0  0  3  0  0  0  0  0  0
  -22.0770   -4.8540   22.5690 C   0  0  0  0  0  0  0  0  0  0  0  0
  -22.4970   -4.2800   21.4160 F   0  0  0  0  0  0  0  0  0  0  0  0
  -21.3680   -3.9040   26.0410 F   0  0  0  0  0  0  0  0  0  0  0  0
  -22.8740  -13.5790   21.2370 C   0  0  0  0  0  0  0  0  0  0  0  0
  -22.2190  -12.8590   22.1400 N   0  0  0  0  0  0  0  0  0  0  0  0
  -22.3930  -14.6120   20.7730 O   0  0  0  0  0  0  0  0  0  0  0  0
  -22.6240  -12.0230   22.5360 H   0  0  0  0  0  0  0  0  0  0  0  0
  -21.3000  -13.1490   22.4420 H   0  0  0  0  0  0  0  0  0  0  0  0
  -25.4150  -15.2960   20.2920 N   0  0  0  0  0  0  0  0  0  0  0  0
  -24.6560  -15.9380   20.4940 H   0  0  0  0  0  0  0  0  0  0  0  0
  -26.2320  -15.7540   19.9120 H   0  0  0  0  0  0  0  0  0  0  0  0
  -27.9110  -23.6570   20.1910 C   0  0  0  0  0  2  0  0  0  0  0  0
  -28.1840  -25.4230   20.2820 O   0  0  0  0  0  0  0  0  0  0  0  0
  -24.6890  -31.8060   23.1920 C   0  0  0  0  0  0  0  0  0  0  0  0
  -27.2240  -26.6680   20.2340 C   0  0  0  0  0  0  0  0  0  0  0  0
  -23.5050  -30.3960   21.5660 C   0  0  0  0  0  3  0  0  0  0  0  0
  -24.9550  -28.7330   20.1650 C   0  0  0  0  0  0  0  0  0  0  0  0
  -26.0860  -30.5280   21.4460 C   0  0  0  0  0  2  0  0  0  0  0  0
  -26.1530  -29.0850   20.7980 C   0  0  0  0  0  0  0  0  0  0  0  0
  -27.2690  -28.0840   20.7970 C   0  0  0  0  0  3  0  0  0  0  0  0
  -25.9880  -26.5420   19.5440 C   0  0  0  0  0  3  0  0  0  0  0  0
  -24.9150  -27.4890   19.5130 C   0  0  0  0  0  3  0  0  0  0  0  0
  -23.7480  -29.6880   20.2000 C   0  0  0  0  0  2  0  0  0  0  0  0
  -24.7850  -30.9440   22.1200 N   0  0  0  0  0  0  0  0  0  0  0  0
  -23.5950  -32.1090   23.6990 O   0  0  0  0  0  0  0  0  0  0  0  0
  -22.7850  -29.4270   22.5440 C   0  0  0  0  0  0  0  0  0  0  0  0
  -21.4550  -29.2630   22.4130 N   0  0  0  0  0  0  0  0  0  0  0  0
  -23.4390  -28.8200   23.3960 O   0  0  0  0  0  0  0  0  0  0  0  0
  -20.9750  -29.8020   21.7050 H   0  0  0  0  0  0  0  0  0  0  0  0
  -18.0780  -28.0060   22.9010 C   0  0  0  0  0  0  0  0  0  0  0  0
  -20.6300  -28.3290   23.1920 C   0  0  0  0  0  3  0  0  0  0  0  0
  -20.7650  -26.8870   22.6500 C   0  0  0  0  0  2  0  0  0  0  0  0
  -19.6830  -26.5240   21.6260 C   0  0  0  0  0  2  0  0  0  0  0  0
  -18.2910  -26.6520   22.2480 C   0  0  0  0  0  2  0  0  0  0  0  0
  -19.1760  -28.8000   23.3300 C   0  0  0  0  0  0  0  0  0  0  0  0
  -18.9200  -30.0640   23.9060 C   0  0  0  0  0  3  0  0  0  0  0  0
  -17.6020  -30.5350   24.0550 C   0  0  0  0  0  3  0  0  0  0  0  0
  -16.5190  -29.7400   23.6390 C   0  0  0  0  0  3  0  0  0  0  0  0
  -16.7590  -28.4770   23.0690 C   0  0  0  0  0  3  0  0  0  0  0  0
  -25.9490  -32.4650   23.8300 C   0  0  0  0  0  3  0  0  0  0  0  0
  -25.6180  -33.8640   24.1710 N   0  0  0  0  0  0  0  0  0  0  0  0
  -25.9320  -34.9350   23.4310 C   0  0  0  0  0  0  0  0  0  0  0  0
  -26.5860  -34.8520   22.3880 O   0  0  0  0  0  0  0  0  0  0  0  0
  -25.0320  -34.0010   24.9820 H   0  0  0  0  0  0  0  0  0  0  0  0
  -24.1780  -36.7250   23.1530 C   0  0  0  0  0  1  0  0  0  0  0  0
  -25.4480  -36.3190   23.9180 C   0  0  0  0  0  3  0  0  0  0  0  0
  -27.5970  -37.2270   24.6910 C   0  0  0  0  0  1  0  0  0  0  0  0
  -26.4660  -37.3850   23.7800 N   0  0  0  0  0  0  0  0  0  0  0  0
  -26.0540  -38.3000   23.9420 H   0  0  0  0  0  0  0  0  0  0  0  0
  -26.4530  -31.7090   25.1220 C   0  0  1  0  0  0  0  0  0  0  0  0
  -25.3510  -31.4820   26.1840 C   0  0  0  0  0  1  0  0  0  0  0  0
  -27.0430  -30.3270   24.7640 C   0  0  0  0  0  1  0  0  0  0  0  0
  -27.5970  -32.5120   25.7870 C   0  0  0  0  0  1  0  0  0  0  0  0
  2  5  1  0
  3 44  1  0
  3  1  2  0
  4  2  2  0
  4  3  1  0
  5  7  1  0
  5  1  1  0
  7  6  1  0
  8  7  1  0
  9 14  1  0
 10 11  1  0
 10  9  1  0
 12 11  1  0
 12 19  1  0
 12 13  1  0
 14  8  1  0
 14 13  1  0
 15  8  2  0
 16 17  2  0
 17 36  1  0
 18 17  1  0
 18 21  1  0
 19 20  1  0
 19 16  1  0
 20 18  2  0
 21 22  1  0
 22 23  2  0
 24 27  1  0
 24 23  1  0
 25 24  2  0
 26 25  1  0
 26 21  2  0
 27 28  1  0
 28 29  1  0
 29 30  2  0
 31 30  1  0
 31 35  1  0
 32 31  2  0
 33 28  2  0
 33 32  1  0
 34 33  1  0
 36 37  1  0
 37 40  1  0
 37 39  1  0
 38 36  2  0
 41 16  1  0
 41 42  1  0
 43 41  1  0
 44 45  1  0
 46 57  2  0
 47 45  1  0
 47 52  1  0
 48 56  1  0
 48 58  1  0
 49 55  1  0
 49 51  1  0
 50 56  1  0
 51 50  1  0
 52 51  2  0
 53 47  2  0
 54 53  1  0
 54 49  2  0
 55 48  1  0
 56 46  1  0
 58 60  2  0
 59 58  1  0
 61 59  1  0
 62 71  2  0
 62 67  1  0
 63 59  1  0
 63 67  1  0
 64 63  1  0
 65 66  1  0
 65 64  1  0
 66 62  1  0
 67 68  2  0
 68 69  1  0
 70 69  2  0
 71 70  1  0
 72 46  1  0
 72 73  1  0
 72 82  1  0
 73 76  1  0
 74 78  1  0
 74 73  1  0
 75 74  2  0
 78 77  1  0
 80 78  1  0
 80 81  1  0
 80 79  1  0
 82 85  1  1
 82 83  1  0
 84 82  1  0
M  ISO  4   7 100   8 100  44 101  45 101
M  END
>  <TORSDO>  (92) 
F 18

>  <SCORE>  (92) 
-15.458

>  <name>  (92) 
92

>  <ligand_id>  (92) 
92

>  <original_smiles>  (92) 
[H]c1c([H])c([H])c2c(c1[H])C([H])([H])C([H])([H])C([H])([H])C2([H])N([H])C(=O)C1([H])N(C(=O)C([H])(N([H])C(=O)C([H])(N([H])C([H])([H])[H])C([H])([H])[H])C(C([H])([H])[H])(C([H])([H])[H])C([H])([H])[H])C([H])([H])c2c([H])c(OC([H])([H])c3nc([H])n(C([H])(C(=O)N4C([H])([H])C([H])([H])C([H])([H])C([H])(n5nc(-c6c([H])c([H])c(Oc7c([H])c([H])c(F)c([H])c7F)c([H])c6[H])c(C(=O)N([H])[H])c5N([H])[H])C4([H])[H])C([H])([H])[H])c3[H])c([H])c([H])c2C1([H])[H]

>  <smiles>  (92) 
[H]c1c([H])c([H])c2c(c1[H])C([H])([H])C([H])([H])C([H])([H])C2([H])N([H])C(=O)C1([H])N(C(=O)C([H])(N([H])C(=O)C([H])(N([H])C([H])([H])[H])C([H])([H])[H])C(C([H])([H])[H])(C([H])([H])[H])C([H])([H])[H])C([H])([H])c2c([H])c(OC([H])([H])c3nc([H])n(C([H])(C(=O)N4C([H])([H])C([H])([H])C([H])([H])C([H])(n5nc(-c6c([H])c([H])c(Oc7c([H])c([H])c(F)c([H])c7F)c([H])c6[H])c(C(=O)N([H])[H])c5N([H])[H])C4([H])[H])C([H])([H])[H])c3[H])c([H])c([H])c2C1([H])[H]

$$$$
93:0:0
     RDKit          3D

 92100  0  0  1  0  0  0  0  0999 V2000
  -30.6920  -19.3210   20.6170 C   0  0  0  0  0  3  0  0  0  0  0  0
  -29.6090  -18.5680   20.1070 C   0  0  0  0  0  0  0  0  0  0  0  0
  -29.8160  -21.3970   19.8260 C   0  0  0  0  0  0  0  0  0  0  0  0
  -28.6860  -20.6360   19.3600 C   0  0  0  0  0  0  0  0  0  0  0  0
  -30.8050  -20.6790   20.4490 N   0  0  0  0  0  0  0  0  0  0  0  0
  -28.6270  -19.2590   19.4640 N   0  0  0  0  0  0  0  0  0  0  0  0
  -26.1920  -21.0260   19.6550 C   0  0  0  0  0  1  0  0  0  0  0  0
  -27.4240  -21.2200   18.7420 C   0  0  0  0  0  2  0  0  0  0  0  0
  -30.0710  -22.9770   19.8800 C   0  0  0  0  0  3  0  0  0  0  0  0
  -29.2980  -24.1100   19.0470 C   0  0  0  0  0  3  0  0  0  0  0  0
  -29.8690  -25.6180   19.0050 C   0  0  0  0  0  2  0  0  0  0  0  0
  -29.4730  -26.7250   19.9140 O   0  0  0  0  0  0  0  0  0  0  0  0
  -24.9740  -31.3650   23.1400 C   0  0  0  0  0  0  0  0  0  0  0  0
  -28.2610  -27.4340   19.8290 C   0  0  0  0  0  0  0  0  0  0  0  0
  -24.0300  -30.0420   21.2730 C   0  0  0  0  0  3  0  0  0  0  0  0
  -25.7310  -28.7840   19.8160 C   0  0  0  0  0  0  0  0  0  0  0  0
  -26.5280  -30.6170   21.3210 C   0  0  0  0  0  2  0  0  0  0  0  0
  -26.7960  -29.3270   20.5450 C   0  0  0  0  0  0  0  0  0  0  0  0
  -28.0570  -28.6580   20.5500 C   0  0  0  0  0  3  0  0  0  0  0  0
  -27.1720  -26.9490   19.0770 C   0  0  0  0  0  3  0  0  0  0  0  0
  -25.9200  -27.6010   19.0790 C   0  0  0  0  0  3  0  0  0  0  0  0
  -24.4040  -29.5140   19.8570 C   0  0  0  0  0  2  0  0  0  0  0  0
  -25.1880  -30.6870   21.9710 N   0  0  0  0  0  0  0  0  0  0  0  0
  -23.8360  -31.4840   23.6160 O   0  0  0  0  0  0  0  0  0  0  0  0
  -23.4040  -28.8830   22.0850 C   0  0  0  0  0  0  0  0  0  0  0  0
  -22.0970  -28.6470   21.8870 N   0  0  0  0  0  0  0  0  0  0  0  0
  -24.0970  -28.2050   22.8520 O   0  0  0  0  0  0  0  0  0  0  0  0
  -21.5960  -29.2660   21.2640 H   0  0  0  0  0  0  0  0  0  0  0  0
  -18.7850  -27.2020   22.1090 C   0  0  0  0  0  0  0  0  0  0  0  0
  -21.3170  -27.5720   22.5000 C   0  0  0  0  0  3  0  0  0  0  0  0
  -21.5230  -26.2400   21.7380 C   0  0  0  0  0  2  0  0  0  0  0  0
  -20.4650  -26.0060   20.6500 C   0  0  0  0  0  2  0  0  0  0  0  0
  -19.0650  -25.9700   21.2650 C   0  0  0  0  0  2  0  0  0  0  0  0
  -19.8460  -27.9630   22.6730 C   0  0  0  0  0  0  0  0  0  0  0  0
  -19.5330  -29.1200   23.4210 C   0  0  0  0  0  3  0  0  0  0  0  0
  -18.1970  -29.5190   23.6100 C   0  0  0  0  0  3  0  0  0  0  0  0
  -17.1510  -28.7550   23.0650 C   0  0  0  0  0  3  0  0  0  0  0  0
  -17.4460  -27.5980   22.3200 C   0  0  0  0  0  3  0  0  0  0  0  0
  -26.1430  -32.0400   23.9220 C   0  0  0  0  0  3  0  0  0  0  0  0
  -25.6910  -33.3800   24.3310 N   0  0  0  0  0  0  0  0  0  0  0  0
  -26.0030  -34.5180   23.6960 C   0  0  0  0  0  0  0  0  0  0  0  0
  -26.7690  -34.5500   22.7280 O   0  0  0  0  0  0  0  0  0  0  0  0
  -25.0050  -33.4210   25.0700 H   0  0  0  0  0  0  0  0  0  0  0  0
  -24.1690  -36.2020   23.3480 C   0  0  0  0  0  1  0  0  0  0  0  0
  -25.3730  -35.8230   24.2220 C   0  0  0  0  0  3  0  0  0  0  0  0
  -27.3590  -36.8000   25.2830 C   0  0  0  0  0  1  0  0  0  0  0  0
  -26.3210  -36.9560   24.2690 N   0  0  0  0  0  0  0  0  0  0  0  0
  -25.8320  -37.8280   24.4470 H   0  0  0  0  0  0  0  0  0  0  0  0
  -26.6140  -31.2040   25.1750 C   0  0  1  0  0  0  0  0  0  0  0  0
  -25.4640  -30.8080   26.1290 C   0  0  0  0  0  1  0  0  0  0  0  0
  -27.3240  -29.9030   24.7300 C   0  0  0  0  0  1  0  0  0  0  0  0
  -27.6470  -32.0200   25.9870 C   0  0  0  0  0  1  0  0  0  0  0  0
  -29.4420  -16.9950   20.2890 C   0  0  0  0  0  2  0  0  0  0  0  0
  -30.8990  -14.8860   20.0800 C   0  0  0  0  0  0  0  0  0  0  0  0
  -30.6460  -12.5110   19.4060 C   0  0  0  0  0  2  0  0  0  0  0  0
  -29.7550  -12.3590   18.1610 C   0  0  0  0  0  2  0  0  0  0  0  0
  -28.2880  -12.1970   18.5810 C   0  0  0  0  0  2  0  0  0  0  0  0
  -27.8420  -13.2980   19.5820 C   0  0  0  0  0  3  0  0  0  0  0  0
  -28.8630  -13.4750   20.7240 C   0  0  0  0  0  2  0  0  0  0  0  0
  -30.1790  -13.7160   20.1170 N   0  0  0  0  0  0  0  0  0  0  0  0
  -32.1260  -14.8150   19.9940 O   0  0  0  0  0  0  0  0  0  0  0  0
  -30.3140  -16.0140   19.5300 N   0  0  0  0  0  0  0  0  0  0  0  0
  -25.4780  -13.9550   20.3270 C   0  0  0  0  0  0  0  0  0  0  0  0
  -24.3910  -13.2070   20.6980 C   0  0  0  0  0  0  0  0  0  0  0  0
  -24.8220  -11.8470   20.6780 C   0  0  0  0  0  0  0  0  0  0  0  0
  -26.4980  -13.0470   20.0930 N   0  0  0  0  0  0  0  0  0  0  0  0
  -26.1110  -11.7730   20.3740 N   0  0  0  0  0  0  0  0  0  0  0  0
  -24.0690  -10.6020   20.8690 C   0  0  0  0  0  0  0  0  0  0  0  0
  -24.4990   -9.6080   21.7740 C   0  0  0  0  0  3  0  0  0  0  0  0
  -23.7460   -8.4270   21.9550 C   0  0  0  0  0  3  0  0  0  0  0  0
  -22.5460   -8.2350   21.2260 C   0  0  0  0  0  0  0  0  0  0  0  0
  -22.1340   -9.2170   20.3100 C   0  0  0  0  0  3  0  0  0  0  0  0
  -22.8890  -10.3880   20.1300 C   0  0  0  0  0  3  0  0  0  0  0  0
  -21.7550   -7.1140   21.3240 O   0  0  0  0  0  0  0  0  0  0  0  0
  -21.7540   -6.3310   22.4500 C   0  0  0  0  0  0  0  0  0  0  0  0
  -21.4310   -6.8530   23.7230 C   0  0  0  0  0  3  0  0  0  0  0  0
  -21.3730   -5.9960   24.8400 C   0  0  0  0  0  3  0  0  0  0  0  0
  -21.6270   -4.6190   24.6860 C   0  0  0  0  0  0  0  0  0  0  0  0
  -21.9410   -4.0980   23.4190 C   0  0  0  0  0  3  0  0  0  0  0  0
  -22.0050   -4.9520   22.3040 C   0  0  0  0  0  0  0  0  0  0  0  0
  -22.2880   -4.4410   21.0810 F   0  0  0  0  0  0  0  0  0  0  0  0
  -21.5620   -3.7940   25.7570 F   0  0  0  0  0  0  0  0  0  0  0  0
  -23.0050  -13.7200   20.9590 C   0  0  0  0  0  0  0  0  0  0  0  0
  -22.2590  -13.0550   21.8390 N   0  0  0  0  0  0  0  0  0  0  0  0
  -22.5940  -14.7410   20.4210 O   0  0  0  0  0  0  0  0  0  0  0  0
  -22.6050  -12.2230   22.2940 H   0  0  0  0  0  0  0  0  0  0  0  0
  -21.3250  -13.3790   22.0480 H   0  0  0  0  0  0  0  0  0  0  0  0
  -25.6900  -15.3140   20.1450 N   0  0  0  0  0  0  0  0  0  0  0  0
  -24.9500  -16.0010   20.2590 H   0  0  0  0  0  0  0  0  0  0  0  0
  -26.5640  -15.7150   19.8310 H   0  0  0  0  0  0  0  0  0  0  0  0
  -32.3240  -17.0700   18.2230 C   0  0  0  0  0  1  0  0  0  0  0  0
  -30.8510  -16.5300   18.2280 C   0  0  0  0  0  2  0  0  0  0  0  0
  2 53  1  0
  2  1  2  0
  3  9  1  0
  3  5  2  0
  4  6  2  0
  4  3  1  0
  5  1  1  0
  6  2  1  0
  8  4  1  0
  8  7  1  0
 10  9  2  0
 11 10  1  0
 11 12  1  0
 13 24  2  0
 14 12  1  0
 14 19  1  0
 15 23  1  0
 15 25  1  0
 16 22  1  0
 16 18  1  0
 17 23  1  0
 18 19  2  0
 18 17  1  0
 20 21  1  0
 20 14  2  0
 21 16  2  0
 22 15  1  0
 23 13  1  0
 25 27  2  0
 26 25  1  0
 28 26  1  0
 29 38  2  0
 29 34  1  0
 30 26  1  0
 30 34  1  0
 31 30  1  0
 32 33  1  0
 32 31  1  0
 33 29  1  0
 34 35  2  0
 35 36  1  0
 37 36  2  0
 38 37  1  0
 39 13  1  0
 39 40  1  0
 39 49  1  0
 40 43  1  0
 41 45  1  0
 41 40  1  0
 42 41  2  0
 45 44  1  0
 45 47  1  0
 47 48  1  0
 47 46  1  0
 49 52  1  1
 49 50  1  0
 51 49  1  0
 54 60  1  0
 55 60  1  0
 56 57  1  0
 56 55  1  0
 58 57  1  0
 58 66  1  0
 58 59  1  0
 60 59  1  0
 61 54  2  0
 62 54  1  0
 62 53  1  0
 63 64  2  0
 64 83  1  0
 65 64  1  0
 65 68  1  0
 66 63  1  0
 66 67  1  0
 67 65  2  0
 68 69  1  0
 69 70  2  0
 71 74  1  0
 71 70  1  0
 72 71  2  0
 73 72  1  0
 73 68  2  0
 74 75  1  0
 75 76  1  0
 76 77  2  0
 78 77  1  0
 78 82  1  0
 79 78  2  0
 80 75  2  0
 80 79  1  0
 81 80  1  0
 83 84  1  0
 84 87  1  0
 84 86  1  0
 85 83  2  0
 88 89  1  0
 88 63  1  0
 90 88  1  0
 91 92  1  0
 92 62  1  0
M  ISO  4  11 101  12 101  54 100  62 100
M  END
>  <TORSDO>  (93) 
F 22

>  <SCORE>  (93) 
-10.317

>  <name>  (93) 
93

>  <ligand_id>  (93) 
93

>  <original_smiles>  (93) 
[H]c1nc(C([H])([H])C([H])([H])C([H])([H])Oc2c([H])c([H])c3c(c2[H])C([H])([H])N(C(=O)C([H])(N([H])C(=O)C([H])(N([H])C([H])([H])[H])C([H])([H])[H])C(C([H])([H])[H])(C([H])([H])[H])C([H])([H])[H])C([H])(C(=O)N([H])C2([H])c4c([H])c([H])c([H])c([H])c4C([H])([H])C([H])([H])C2([H])[H])C3([H])[H])c(C([H])([H])C([H])([H])[H])nc1C([H])([H])N(C(=O)N1C([H])([H])C([H])([H])C([H])([H])C([H])(n2nc(-c3c([H])c([H])c(Oc4c([H])c([H])c(F)c([H])c4F)c([H])c3[H])c(C(=O)N([H])[H])c2N([H])[H])C1([H])[H])C([H])([H])C([H])([H])[H]

>  <smiles>  (93) 
[H]c1nc(C([H])([H])C([H])([H])C([H])([H])Oc2c([H])c([H])c3c(c2[H])C([H])([H])N(C(=O)C([H])(N([H])C(=O)C([H])(N([H])C([H])([H])[H])C([H])([H])[H])C(C([H])([H])[H])(C([H])([H])[H])C([H])([H])[H])C([H])(C(=O)N([H])C2([H])c4c([H])c([H])c([H])c([H])c4C([H])([H])C([H])([H])C2([H])[H])C3([H])[H])c(C([H])([H])C([H])([H])[H])nc1C([H])([H])N(C(=O)N1C([H])([H])C([H])([H])C([H])([H])C([H])(n2nc(-c3c([H])c([H])c(Oc4c([H])c([H])c(F)c([H])c4F)c([H])c3[H])c(C(=O)N([H])[H])c2N([H])[H])C1([H])[H])C([H])([H])C([H])([H])[H]

$$$$
94:0:0
     RDKit          3D

 89 97  0  0  1  0  0  0  0  0999 V2000
  -30.7010  -21.5580   19.7210 C   0  0  0  0  0  3  0  0  0  0  0  0
  -29.3660  -21.6920   20.0410 C   0  0  0  0  0  0  0  0  0  0  0  0
  -30.0160  -19.3440   19.7660 C   0  0  0  0  0  3  0  0  0  0  0  0
  -32.4130  -19.8190   19.1540 C   0  0  0  0  0  1  0  0  0  0  0  0
  -31.0510  -20.2160   19.5590 N   0  0  0  0  0  0  0  0  0  0  0  0
  -29.0030  -20.2770   20.0570 N   0  0  0  0  0  0  0  0  0  0  0  0
  -28.0540  -19.9720   20.2350 H   0  0  0  0  0  0  0  0  0  0  0  0
  -28.5240  -23.0760   20.4640 C   0  0  0  0  0  2  0  0  0  0  0  0
  -28.5190  -24.6390   19.7340 C   0  0  0  0  0  2  0  0  0  0  0  0
  -28.3160  -26.1080   20.3150 O   0  0  0  0  0  0  0  0  0  0  0  0
  -24.6230  -31.8410   23.2070 C   0  0  0  0  0  0  0  0  0  0  0  0
  -27.2230  -27.0690   20.2000 C   0  0  0  0  0  0  0  0  0  0  0  0
  -23.4240  -30.4270   21.5800 C   0  0  0  0  0  3  0  0  0  0  0  0
  -24.8750  -28.8290   20.1630 C   0  0  0  0  0  0  0  0  0  0  0  0
  -25.9800  -30.6760   21.4220 C   0  0  0  0  0  2  0  0  0  0  0  0
  -26.0510  -29.2770   20.7750 C   0  0  0  0  0  0  0  0  0  0  0  0
  -27.2140  -28.4090   20.7810 C   0  0  0  0  0  3  0  0  0  0  0  0
  -26.0150  -26.7230   19.5550 C   0  0  0  0  0  3  0  0  0  0  0  0
  -24.8700  -27.5630   19.5460 C   0  0  0  0  0  3  0  0  0  0  0  0
  -23.6430  -29.7300   20.2070 C   0  0  0  0  0  2  0  0  0  0  0  0
  -24.6950  -31.0080   22.1240 N   0  0  0  0  0  0  0  0  0  0  0  0
  -23.5380  -32.1370   23.7330 O   0  0  0  0  0  0  0  0  0  0  0  0
  -22.7410  -29.4400   22.5560 C   0  0  0  0  0  0  0  0  0  0  0  0
  -21.4090  -29.2780   22.4420 N   0  0  0  0  0  0  0  0  0  0  0  0
  -23.4120  -28.8170   23.3830 O   0  0  0  0  0  0  0  0  0  0  0  0
  -20.9200  -29.8380   21.7550 H   0  0  0  0  0  0  0  0  0  0  0  0
  -18.0260  -28.0900   22.9660 C   0  0  0  0  0  0  0  0  0  0  0  0
  -20.5870  -28.3490   23.2220 C   0  0  0  0  0  3  0  0  0  0  0  0
  -20.6820  -26.9120   22.6600 C   0  0  0  0  0  2  0  0  0  0  0  0
  -19.5770  -26.5850   21.6510 C   0  0  0  0  0  2  0  0  0  0  0  0
  -18.1970  -26.7360   22.2970 C   0  0  0  0  0  2  0  0  0  0  0  0
  -19.1480  -28.8540   23.3840 C   0  0  0  0  0  0  0  0  0  0  0  0
  -18.9320  -30.1190   23.9730 C   0  0  0  0  0  3  0  0  0  0  0  0
  -17.6280  -30.6210   24.1470 C   0  0  0  0  0  3  0  0  0  0  0  0
  -16.5210  -29.8520   23.7490 C   0  0  0  0  0  3  0  0  0  0  0  0
  -16.7200  -28.5900   23.1610 C   0  0  0  0  0  3  0  0  0  0  0  0
  -25.9010  -32.4840   23.8310 C   0  0  0  0  0  3  0  0  0  0  0  0
  -26.4250  -31.7190   25.1100 C   0  0  1  0  0  0  0  0  0  0  0  0
  -25.3360  -31.4790   26.1840 C   0  0  0  0  0  1  0  0  0  0  0  0
  -27.0150  -30.3430   24.7290 C   0  0  0  0  0  1  0  0  0  0  0  0
  -27.5720  -32.5220   25.7640 C   0  0  0  0  0  1  0  0  0  0  0  0
  -25.5850  -33.8830   24.1720 N   0  0  0  0  0  0  0  0  0  0  0  0
  -25.9040  -34.9470   23.4230 C   0  0  0  0  0  0  0  0  0  0  0  0
  -26.5590  -34.8560   22.3830 O   0  0  0  0  0  0  0  0  0  0  0  0
  -25.0080  -34.0310   24.9870 H   0  0  0  0  0  0  0  0  0  0  0  0
  -24.1610  -36.7370   23.1220 C   0  0  0  0  0  1  0  0  0  0  0  0
  -25.4200  -36.3300   23.9030 C   0  0  0  0  0  3  0  0  0  0  0  0
  -27.5620  -37.2240   24.7050 C   0  0  0  0  0  1  0  0  0  0  0  0
  -26.4450  -37.3910   23.7810 N   0  0  0  0  0  0  0  0  0  0  0  0
  -26.0350  -38.3070   23.9420 H   0  0  0  0  0  0  0  0  0  0  0  0
  -30.0550  -17.6950   19.3510 C   0  0  0  0  0  2  0  0  0  0  0  0
  -30.6220  -15.0550   19.9440 C   0  0  0  0  0  0  0  0  0  0  0  0
  -30.4060  -12.7080   18.9620 C   0  0  0  0  0  2  0  0  0  0  0  0
  -29.4080  -12.6470   17.7840 C   0  0  0  0  0  2  0  0  0  0  0  0
  -27.9740  -12.4150   18.3010 C   0  0  0  0  0  2  0  0  0  0  0  0
  -27.6270  -13.3360   19.4990 C   0  0  0  0  0  3  0  0  0  0  0  0
  -28.7480  -13.3290   20.5620 C   0  0  0  0  0  2  0  0  0  0  0  0
  -29.9760  -13.8010   19.8960 N   0  0  0  0  0  0  0  0  0  0  0  0
  -31.7780  -15.0590   19.5060 O   0  0  0  0  0  0  0  0  0  0  0  0
  -29.0970  -16.4460   21.3710 C   0  0  0  0  0  1  0  0  0  0  0  0
  -29.9530  -16.3230   20.1840 N   0  0  0  0  0  0  0  0  0  0  0  0
  -25.3060  -13.9170   20.4030 C   0  0  0  0  0  0  0  0  0  0  0  0
  -24.2580  -13.1440   20.8250 C   0  0  0  0  0  0  0  0  0  0  0  0
  -24.7050  -11.7920   20.7330 C   0  0  0  0  0  0  0  0  0  0  0  0
  -26.3200  -13.0330   20.0730 N   0  0  0  0  0  0  0  0  0  0  0  0
  -25.9720  -11.7490   20.3380 N   0  0  0  0  0  0  0  0  0  0  0  0
  -23.9780  -10.5330   20.9460 C   0  0  0  0  0  0  0  0  0  0  0  0
  -24.4340   -9.5590   21.8610 C   0  0  0  0  0  3  0  0  0  0  0  0
  -23.7070   -8.3640   22.0560 C   0  0  0  0  0  3  0  0  0  0  0  0
  -22.5120   -8.1350   21.3350 C   0  0  0  0  0  0  0  0  0  0  0  0
  -22.0760   -9.0960   20.4070 C   0  0  0  0  0  3  0  0  0  0  0  0
  -22.8030  -10.2830   20.2110 C   0  0  0  0  0  3  0  0  0  0  0  0
  -21.7530   -6.9960   21.4420 O   0  0  0  0  0  0  0  0  0  0  0  0
  -21.7070   -6.2710   22.6060 C   0  0  0  0  0  0  0  0  0  0  0  0
  -21.2790   -6.8420   23.8240 C   0  0  0  0  0  3  0  0  0  0  0  0
  -21.1790   -6.0400   24.9780 C   0  0  0  0  0  3  0  0  0  0  0  0
  -21.4960   -4.6700   24.9170 C   0  0  0  0  0  0  0  0  0  0  0  0
  -21.9140   -4.0990   23.7010 C   0  0  0  0  0  3  0  0  0  0  0  0
  -22.0170   -4.8980   22.5490 C   0  0  0  0  0  0  0  0  0  0  0  0
  -22.4040   -4.3380   21.3770 F   0  0  0  0  0  0  0  0  0  0  0  0
  -21.3900   -3.8990   26.0230 F   0  0  0  0  0  0  0  0  0  0  0  0
  -22.8870  -13.6320   21.1860 C   0  0  0  0  0  0  0  0  0  0  0  0
  -22.2040  -12.9260   22.0820 N   0  0  0  0  0  0  0  0  0  0  0  0
  -22.4300  -14.6720   20.7130 O   0  0  0  0  0  0  0  0  0  0  0  0
  -22.5950  -12.0940   22.4980 H   0  0  0  0  0  0  0  0  0  0  0  0
  -21.2810  -13.2310   22.3540 H   0  0  0  0  0  0  0  0  0  0  0  0
  -25.4730  -15.2870   20.2410 N   0  0  0  0  0  0  0  0  0  0  0  0
  -24.7200  -15.9440   20.4040 H   0  0  0  0  0  0  0  0  0  0  0  0
  -26.2870  -15.7150   19.8190 H   0  0  0  0  0  0  0  0  0  0  0  0
  1  2  2  0
  2  6  1  0
  2  8  1  0
  3 51  1  0
  3  6  1  0
  4  5  1  0
  5  1  1  0
  5  3  1  0
  6  7  1  0
  9 10  1  0
  9  8  1  0
 11 22  2  0
 12 10  1  0
 12 17  1  0
 13 21  1  0
 13 23  1  0
 14 20  1  0
 14 16  1  0
 15 21  1  0
 16 17  2  0
 16 15  1  0
 18 12  2  0
 19 18  1  0
 19 14  2  0
 20 13  1  0
 21 11  1  0
 23 25  2  0
 24 23  1  0
 26 24  1  0
 27 36  2  0
 27 32  1  0
 28 24  1  0
 28 32  1  0
 29 28  1  0
 30 31  1  0
 30 29  1  0
 31 27  1  0
 32 33  2  0
 33 34  1  0
 35 34  2  0
 36 35  1  0
 37 11  1  0
 37 42  1  0
 37 38  1  0
 38 41  1  1
 38 39  1  0
 40 38  1  0
 42 45  1  0
 43 47  1  0
 43 42  1  0
 44 43  2  0
 47 46  1  0
 49 47  1  0
 49 50  1  0
 49 48  1  0
 51 61  1  0
 52 61  1  0
 53 58  1  0
 54 55  1  0
 54 53  1  0
 56 55  1  0
 56 65  1  0
 56 57  1  0
 58 52  1  0
 58 57  1  0
 59 52  2  0
 61 60  1  0
 62 63  2  0
 63 82  1  0
 64 63  1  0
 64 67  1  0
 65 66  1  0
 65 62  1  0
 66 64  2  0
 67 68  1  0
 68 69  2  0
 70 73  1  0
 70 69  1  0
 71 70  2  0
 72 71  1  0
 72 67  2  0
 73 74  1  0
 74 75  1  0
 75 76  2  0
 77 76  1  0
 77 81  1  0
 78 77  2  0
 79 74  2  0
 79 78  1  0
 80 79  1  0
 82 83  1  0
 83 86  1  0
 83 85  1  0
 84 82  2  0
 87 62  1  0
 87 88  1  0
 89 87  1  0
M  ISO  4   9 101  10 101  52 100  61 100
M  END
>  <TORSDO>  (94) 
F 19

>  <SCORE>  (94) 
-15.302

>  <name>  (94) 
94

>  <ligand_id>  (94) 
94

>  <original_smiles>  (94) 
[H]c1c([H])c([H])c2c(c1[H])C([H])([H])C([H])([H])C([H])([H])C2([H])N([H])C(=O)C1([H])N(C(=O)C([H])(N([H])C(=O)C([H])(N([H])C([H])([H])[H])C([H])([H])[H])C(C([H])([H])[H])(C([H])([H])[H])C([H])([H])[H])C([H])([H])c2c([H])c(OC([H])([H])C([H])([H])c3c([H])n(C([H])([H])[H])c(C([H])([H])N(C(=O)N4C([H])([H])C([H])([H])C([H])([H])C([H])(n5nc(-c6c([H])c([H])c(Oc7c([H])c([H])c(F)c([H])c7F)c([H])c6[H])c(C(=O)N([H])[H])c5N([H])[H])C4([H])[H])C([H])([H])[H])[n+]3[H])c([H])c([H])c2C1([H])[H]

>  <smiles>  (94) 
[H]c1c([H])c([H])c2c(c1[H])C([H])([H])C([H])([H])C([H])([H])C2([H])N([H])C(=O)C1([H])N(C(=O)C([H])(N([H])C(=O)C([H])(N([H])C([H])([H])[H])C([H])([H])[H])C(C([H])([H])[H])(C([H])([H])[H])C([H])([H])[H])C([H])([H])c2c([H])c(OC([H])([H])C([H])([H])c3c([H])n(C([H])([H])[H])c(C([H])([H])N(C(=O)N4C([H])([H])C([H])([H])C([H])([H])C([H])(n5nc(-c6c([H])c([H])c(Oc7c([H])c([H])c(F)c([H])c7F)c([H])c6[H])c(C(=O)N([H])[H])c5N([H])[H])C4([H])[H])C([H])([H])[H])[n+]3[H])c([H])c([H])c2C1([H])[H]

$$$$
95:0:0
     RDKit          3D

 93101  0  0  1  0  0  0  0  0999 V2000
  -27.1140  -24.8910   21.4230 C   0  0  0  0  0  3  0  0  0  0  0  0
  -28.3120  -24.7020   20.7950 C   0  0  0  0  0  0  0  0  0  0  0  0
  -28.5940  -23.2950   21.0100 C   0  0  0  0  0  0  0  0  0  0  0  0
  -25.4480  -23.3980   22.5980 C   0  0  0  0  0  1  0  0  0  0  0  0
  -27.6100  -22.7080   21.6930 N   0  0  0  0  0  0  0  0  0  0  0  0
  -26.6990  -23.6830   21.9210 N   0  0  0  0  0  0  0  0  0  0  0  0
  -29.1040  -25.7670   20.0450 C   0  0  0  0  0  2  0  0  0  0  0  0
  -28.8560  -27.1290   20.4620 O   0  0  0  0  0  0  0  0  0  0  0  0
  -24.5460  -31.9640   23.3590 C   0  0  0  0  0  0  0  0  0  0  0  0
  -27.6170  -27.7410   20.3560 C   0  0  0  0  0  0  0  0  0  0  0  0
  -23.5130  -30.5390   21.6190 C   0  0  0  0  0  3  0  0  0  0  0  0
  -25.1310  -29.1130   20.2480 C   0  0  0  0  0  0  0  0  0  0  0  0
  -26.0150  -31.0550   21.5510 C   0  0  0  0  0  2  0  0  0  0  0  0
  -26.2200  -29.6970   20.9050 C   0  0  0  0  0  0  0  0  0  0  0  0
  -27.4600  -29.0200   20.9490 C   0  0  0  0  0  3  0  0  0  0  0  0
  -26.5050  -27.1680   19.6950 C   0  0  0  0  0  3  0  0  0  0  0  0
  -25.2700  -27.8520   19.6380 C   0  0  0  0  0  3  0  0  0  0  0  0
  -23.8360  -29.8980   20.2400 C   0  0  0  0  0  2  0  0  0  0  0  0
  -24.7090  -31.1980   22.2420 N   0  0  0  0  0  0  0  0  0  0  0  0
  -23.4220  -32.1620   23.8400 O   0  0  0  0  0  0  0  0  0  0  0  0
  -22.8660  -29.4640   22.5210 C   0  0  0  0  0  0  0  0  0  0  0  0
  -21.5620  -29.2100   22.3160 N   0  0  0  0  0  0  0  0  0  0  0  0
  -23.5390  -28.8550   23.3570 O   0  0  0  0  0  0  0  0  0  0  0  0
  -21.0810  -29.7600   21.6140 H   0  0  0  0  0  0  0  0  0  0  0  0
  -18.2250  -27.8580   22.6420 C   0  0  0  0  0  0  0  0  0  0  0  0
  -20.7580  -28.2100   23.0170 C   0  0  0  0  0  3  0  0  0  0  0  0
  -20.9420  -26.8070   22.3920 C   0  0  0  0  0  2  0  0  0  0  0  0
  -19.8910  -26.4790   21.3270 C   0  0  0  0  0  2  0  0  0  0  0  0
  -18.4810  -26.5450   21.9240 C   0  0  0  0  0  2  0  0  0  0  0  0
  -19.2930  -28.6470   23.1440 C   0  0  0  0  0  0  0  0  0  0  0  0
  -18.9990  -29.8750   23.7740 C   0  0  0  0  0  3  0  0  0  0  0  0
  -17.6670  -30.3160   23.9030 C   0  0  0  0  0  3  0  0  0  0  0  0
  -16.6130  -29.5230   23.4180 C   0  0  0  0  0  3  0  0  0  0  0  0
  -16.8920  -28.2950   22.7930 C   0  0  0  0  0  3  0  0  0  0  0  0
  -25.7560  -32.6510   24.0670 C   0  0  0  0  0  3  0  0  0  0  0  0
  -25.3980  -34.0550   24.3050 N   0  0  0  0  0  0  0  0  0  0  0  0
  -25.7570  -35.0730   23.5130 C   0  0  0  0  0  0  0  0  0  0  0  0
  -26.4980  -34.9320   22.5360 O   0  0  0  0  0  0  0  0  0  0  0  0
  -24.7670  -34.2410   25.0710 H   0  0  0  0  0  0  0  0  0  0  0  0
  -24.0130  -36.7910   22.9450 C   0  0  0  0  0  1  0  0  0  0  0  0
  -25.2060  -36.4690   23.8580 C   0  0  0  0  0  3  0  0  0  0  0  0
  -27.2580  -37.4570   24.7790 C   0  0  0  0  0  1  0  0  0  0  0  0
  -26.2190  -37.5440   23.7560 N   0  0  0  0  0  0  0  0  0  0  0  0
  -25.7790  -38.4580   23.8300 H   0  0  0  0  0  0  0  0  0  0  0  0
  -26.1710  -31.9460   25.4160 C   0  0  1  0  0  0  0  0  0  0  0  0
  -24.9830  -31.7100   26.3780 C   0  0  0  0  0  1  0  0  0  0  0  0
  -26.8380  -30.5790   25.1280 C   0  0  0  0  0  1  0  0  0  0  0  0
  -27.2290  -32.8080   26.1500 C   0  0  0  0  0  1  0  0  0  0  0  0
  -29.8230  -22.4640   20.5910 C   0  0  0  0  0  2  0  0  0  0  0  0
  -28.4220  -20.8720   19.2550 C   0  0  0  0  0  1  0  0  0  0  0  0
  -29.6190  -21.0510   20.1110 N   0  0  2  0  0  4  0  0  0  0  0  0
  -30.4080  -20.9470   19.4880 H   0  0  0  0  0  0  0  0  0  0  0  0
  -29.8310  -19.9360   21.1040 C   0  0  0  0  0  2  0  0  0  0  0  0
  -29.8450  -18.4900   20.4610 C   0  0  0  0  0  2  0  0  0  0  0  0
  -30.6510  -17.3800   21.2290 C   0  0  0  0  0  2  0  0  0  0  0  0
  -31.0050  -14.9250   20.5650 C   0  0  0  0  0  0  0  0  0  0  0  0
  -30.7840  -12.7290   19.4420 C   0  0  0  0  0  2  0  0  0  0  0  0
  -29.8720  -12.8720   18.2040 C   0  0  0  0  0  2  0  0  0  0  0  0
  -28.3830  -12.7560   18.5930 C   0  0  0  0  0  2  0  0  0  0  0  0
  -28.0040  -13.6060   19.8330 C   0  0  0  0  0  3  0  0  0  0  0  0
  -29.0260  -13.4070   20.9720 C   0  0  0  0  0  2  0  0  0  0  0  0
  -30.3580  -13.7320   20.4330 N   0  0  0  0  0  0  0  0  0  0  0  0
  -32.1690  -15.0830   20.1940 O   0  0  0  0  0  0  0  0  0  0  0  0
  -30.2360  -15.9730   20.9610 N   0  0  0  0  0  0  0  0  0  0  0  0
  -29.2680  -15.7530   21.1390 H   0  0  0  0  0  0  0  0  0  0  0  0
  -25.5980  -14.2280   20.4850 C   0  0  0  0  0  0  0  0  0  0  0  0
  -24.5070  -13.4650   20.8130 C   0  0  0  0  0  0  0  0  0  0  0  0
  -24.9500  -12.1100   20.7700 C   0  0  0  0  0  0  0  0  0  0  0  0
  -26.6360  -13.3350   20.2710 N   0  0  0  0  0  0  0  0  0  0  0  0
  -26.2490  -12.0550   20.5000 N   0  0  0  0  0  0  0  0  0  0  0  0
  -24.1990  -10.8560   20.9260 C   0  0  0  0  0  0  0  0  0  0  0  0
  -24.5540   -9.8990   21.9020 C   0  0  0  0  0  3  0  0  0  0  0  0
  -23.8110   -8.7060   22.0360 C   0  0  0  0  0  3  0  0  0  0  0  0
  -22.6990   -8.4640   21.1950 C   0  0  0  0  0  0  0  0  0  0  0  0
  -22.3660   -9.4070   20.2090 C   0  0  0  0  0  3  0  0  0  0  0  0
  -23.1090  -10.5920   20.0730 C   0  0  0  0  0  3  0  0  0  0  0  0
  -21.9340   -7.3210   21.2390 O   0  0  0  0  0  0  0  0  0  0  0  0
  -21.7490   -6.6230   22.4040 C   0  0  0  0  0  0  0  0  0  0  0  0
  -21.1620   -7.2180   23.5420 C   0  0  0  0  0  3  0  0  0  0  0  0
  -20.9250   -6.4440   24.6960 C   0  0  0  0  0  3  0  0  0  0  0  0
  -21.2670   -5.0780   24.7130 C   0  0  0  0  0  0  0  0  0  0  0  0
  -21.8460   -4.4850   23.5790 C   0  0  0  0  0  3  0  0  0  0  0  0
  -22.0840   -5.2540   22.4260 C   0  0  0  0  0  0  0  0  0  0  0  0
  -22.6240   -4.6730   21.3280 F   0  0  0  0  0  0  0  0  0  0  0  0
  -21.0340   -4.3330   25.8190 F   0  0  0  0  0  0  0  0  0  0  0  0
  -23.1120  -13.9600   21.0580 C   0  0  0  0  0  0  0  0  0  0  0  0
  -22.3530  -13.2590   21.8970 N   0  0  0  0  0  0  0  0  0  0  0  0
  -22.7040  -14.9980   20.5450 O   0  0  0  0  0  0  0  0  0  0  0  0
  -22.7020  -12.4210   22.3380 H   0  0  0  0  0  0  0  0  0  0  0  0
  -21.4130  -13.5700   22.0940 H   0  0  0  0  0  0  0  0  0  0  0  0
  -25.7880  -15.5950   20.3310 N   0  0  0  0  0  0  0  0  0  0  0  0
  -25.0380  -16.2690   20.4420 H   0  0  0  0  0  0  0  0  0  0  0  0
  -26.6490  -16.0140   20.0040 H   0  0  0  0  0  0  0  0  0  0  0  0
  1  6  1  0
  2  3  1  0
  2  1  2  0
  3  5  2  0
  5  6  1  0
  6  4  1  0
  7  8  1  0
  7  2  1  0
  9 20  2  0
 10  8  1  0
 10 15  1  0
 11 19  1  0
 11 21  1  0
 12 14  1  0
 13 19  1  0
 14 15  2  0
 14 13  1  0
 16 10  2  0
 17 16  1  0
 17 12  2  0
 18 12  1  0
 18 11  1  0
 19  9  1  0
 21 23  2  0
 22 21  1  0
 24 22  1  0
 25 34  2  0
 25 30  1  0
 26 22  1  0
 26 30  1  0
 27 26  1  0
 28 29  1  0
 28 27  1  0
 29 25  1  0
 30 31  2  0
 31 32  1  0
 33 32  2  0
 34 33  1  0
 35  9  1  0
 35 36  1  0
 35 45  1  0
 36 39  1  0
 37 41  1  0
 37 36  1  0
 38 37  2  0
 41 40  1  0
 43 44  1  0
 43 41  1  0
 43 42  1  0
 45 48  1  1
 45 46  1  0
 47 45  1  0
 49  3  1  0
 50 51  1  0
 51 49  1  0
 51 53  1  0
 51 52  1  6
 54 53  1  0
 54 55  1  0
 56 64  1  0
 57 62  1  0
 58 59  1  0
 58 57  1  0
 60 59  1  0
 60 69  1  0
 60 61  1  0
 62 56  1  0
 62 61  1  0
 63 56  2  0
 64 65  1  0
 64 55  1  0
 66 67  2  0
 67 86  1  0
 68 67  1  0
 68 71  1  0
 69 66  1  0
 69 70  1  0
 70 68  2  0
 71 72  1  0
 72 73  2  0
 74 77  1  0
 74 73  1  0
 75 74  2  0
 76 75  1  0
 76 71  2  0
 77 78  1  0
 78 83  2  0
 78 79  1  0
 79 80  2  0
 80 81  1  0
 81 85  1  0
 82 81  2  0
 83 82  1  0
 84 83  1  0
 86 87  1  0
 87 90  1  0
 87 89  1  0
 88 86  2  0
 91 92  1  0
 91 66  1  0
 93 91  1  0
M  ISO  4   7 101   8 101  56 100  64 100
M  END
>  <TORSDO>  (95) 
F 22

>  <SCORE>  (95) 
-12.169

>  <name>  (95) 
95

>  <ligand_id>  (95) 
95

>  <original_smiles>  (95) 
[H]c1c([H])c([H])c2c(c1[H])C([H])([H])C([H])([H])C([H])([H])C2([H])N([H])C(=O)C1([H])N(C(=O)C([H])(N([H])C(=O)C([H])(N([H])C([H])([H])[H])C([H])([H])[H])C(C([H])([H])[H])(C([H])([H])[H])C([H])([H])[H])C([H])([H])c2c([H])c(OC([H])([H])c3c(C([H])([H])[N+]([H])(C([H])([H])[H])C([H])([H])C([H])([H])C([H])([H])N([H])C(=O)N4C([H])([H])C([H])([H])C([H])([H])C([H])(n5nc(-c6c([H])c([H])c(Oc7c([H])c([H])c(F)c([H])c7F)c([H])c6[H])c(C(=O)N([H])[H])c5N([H])[H])C4([H])[H])nn(C([H])([H])[H])c3[H])c([H])c([H])c2C1([H])[H]

>  <smiles>  (95) 
[H]c1c([H])c([H])c2c(c1[H])C([H])([H])C([H])([H])C([H])([H])C2([H])N([H])C(=O)C1([H])N(C(=O)C([H])(N([H])C(=O)C([H])(N([H])C([H])([H])[H])C([H])([H])[H])C(C([H])([H])[H])(C([H])([H])[H])C([H])([H])[H])C([H])([H])c2c([H])c(OC([H])([H])c3c(C([H])([H])[N+]([H])(C([H])([H])[H])C([H])([H])C([H])([H])C([H])([H])N([H])C(=O)N4C([H])([H])C([H])([H])C([H])([H])C([H])(n5nc(-c6c([H])c([H])c(Oc7c([H])c([H])c(F)c([H])c7F)c([H])c6[H])c(C(=O)N([H])[H])c5N([H])[H])C4([H])[H])nn(C([H])([H])[H])c3[H])c([H])c([H])c2C1([H])[H]

$$$$
