1:0:0
     RDKit          3D

 87 95  0  0  1  0  0  0  0  0999 V2000
  -30.1620  -22.7810   19.8600 C   0  0  0  0  0  3  0  0  0  0  0  0
  -28.7740  -23.0770   20.0870 C   0  0  0  0  0  0  0  0  0  0  0  0
  -30.4760  -21.4790   19.9310 N   0  0  0  0  0  0  0  0  0  0  0  0
  -28.2720  -21.8170   20.2870 N   0  0  0  0  0  0  0  0  0  0  0  0
  -29.3030  -20.8190   20.1650 N   0  0  0  0  0  0  0  0  0  0  0  0
  -27.8870  -24.5000   19.9230 C   0  0  0  0  0  2  0  0  0  0  0  0
  -28.2280  -26.0250   20.2080 O   0  0  0  0  0  0  0  0  0  0  0  0
  -24.6230  -31.8300   23.1750 C   0  0  0  0  0  0  0  0  0  0  0  0
  -27.1980  -27.0640   20.1400 C   0  0  0  0  0  0  0  0  0  0  0  0
  -23.4220  -30.4310   21.5420 C   0  0  0  0  0  3  0  0  0  0  0  0
  -24.8710  -28.8500   20.1150 C   0  0  0  0  0  0  0  0  0  0  0  0
  -25.9800  -30.6810   21.3760 C   0  0  0  0  0  2  0  0  0  0  0  0
  -26.0550  -29.2820   20.7270 C   0  0  0  0  0  0  0  0  0  0  0  0
  -27.2150  -28.4040   20.7250 C   0  0  0  0  0  3  0  0  0  0  0  0
  -25.9840  -26.7600   19.4780 C   0  0  0  0  0  3  0  0  0  0  0  0
  -24.8550  -27.6050   19.4720 C   0  0  0  0  0  3  0  0  0  0  0  0
  -23.6430  -29.7510   20.1640 C   0  0  0  0  0  2  0  0  0  0  0  0
  -24.6960  -31.0040   22.0850 N   0  0  0  0  0  0  0  0  0  0  0  0
  -23.5360  -32.1150   23.7050 O   0  0  0  0  0  0  0  0  0  0  0  0
  -22.7440  -29.4260   22.5090 C   0  0  0  0  0  0  0  0  0  0  0  0
  -21.4130  -29.2610   22.3940 N   0  0  0  0  0  0  0  0  0  0  0  0
  -23.4180  -28.7980   23.3280 O   0  0  0  0  0  0  0  0  0  0  0  0
  -20.9230  -29.8220   21.7130 H   0  0  0  0  0  0  0  0  0  0  0  0
  -18.0340  -28.0630   22.9230 C   0  0  0  0  0  0  0  0  0  0  0  0
  -20.5950  -28.3250   23.1710 C   0  0  0  0  0  3  0  0  0  0  0  0
  -20.6900  -26.8910   22.5990 C   0  0  0  0  0  2  0  0  0  0  0  0
  -19.5820  -26.5680   21.5920 C   0  0  0  0  0  2  0  0  0  0  0  0
  -18.2050  -26.7140   22.2460 C   0  0  0  0  0  2  0  0  0  0  0  0
  -19.1560  -28.8260   23.3430 C   0  0  0  0  0  0  0  0  0  0  0  0
  -18.9390  -30.0870   23.9410 C   0  0  0  0  0  3  0  0  0  0  0  0
  -17.6350  -30.5860   24.1200 C   0  0  0  0  0  3  0  0  0  0  0  0
  -16.5290  -29.8210   23.7130 C   0  0  0  0  0  3  0  0  0  0  0  0
  -16.7280  -28.5620   23.1200 C   0  0  0  0  0  3  0  0  0  0  0  0
  -25.8990  -32.4730   23.7970 C   0  0  0  0  0  3  0  0  0  0  0  0
  -26.4240  -31.6990   25.0690 C   0  0  1  0  0  0  0  0  0  0  0  0
  -25.3380  -31.4530   26.1420 C   0  0  0  0  0  1  0  0  0  0  0  0
  -27.0120  -30.3260   24.6740 C   0  0  0  0  0  1  0  0  0  0  0  0
  -27.5730  -32.4970   25.7300 C   0  0  0  0  0  1  0  0  0  0  0  0
  -25.5770  -33.8670   24.1470 N   0  0  0  0  0  0  0  0  0  0  0  0
  -25.8790  -34.9350   23.3970 C   0  0  0  0  0  0  0  0  0  0  0  0
  -26.5260  -34.8520   22.3490 O   0  0  0  0  0  0  0  0  0  0  0  0
  -25.0020  -34.0030   24.9650 H   0  0  0  0  0  0  0  0  0  0  0  0
  -24.1190  -36.7140   23.1190 C   0  0  0  0  0  1  0  0  0  0  0  0
  -25.3910  -36.3130   23.8850 C   0  0  0  0  0  3  0  0  0  0  0  0
  -27.5410  -37.2220   24.6520 C   0  0  0  0  0  1  0  0  0  0  0  0
  -26.4060  -37.3820   23.7470 N   0  0  0  0  0  0  0  0  0  0  0  0
  -25.9930  -38.2950   23.9160 H   0  0  0  0  0  0  0  0  0  0  0  0
  -29.1630  -19.2420   20.4910 C   0  0  0  0  0  3  0  0  0  0  0  0
  -30.0760  -17.8660   19.9640 C   0  0  0  0  0  3  0  0  0  0  0  0
  -30.5170  -15.0700   20.0020 C   0  0  0  0  0  0  0  0  0  0  0  0
  -30.3440  -12.7370   18.9420 C   0  0  0  0  0  2  0  0  0  0  0  0
  -29.3210  -12.7050   17.7780 C   0  0  0  0  0  2  0  0  0  0  0  0
  -27.8860  -12.4740   18.2920 C   0  0  0  0  0  2  0  0  0  0  0  0
  -27.5710  -13.3330   19.5450 C   0  0  0  0  0  3  0  0  0  0  0  0
  -28.7090  -13.2470   20.5830 C   0  0  0  0  0  2  0  0  0  0  0  0
  -29.9160  -13.7900   19.9270 N   0  0  0  0  0  0  0  0  0  0  0  0
  -31.6640  -15.1200   19.5330 O   0  0  0  0  0  0  0  0  0  0  0  0
  -28.9130  -16.2440   21.5030 C   0  0  0  0  0  1  0  0  0  0  0  0
  -29.8200  -16.3060   20.3530 N   0  0  0  0  0  0  0  0  0  0  0  0
  -25.2430  -13.8920   20.4460 C   0  0  0  0  0  0  0  0  0  0  0  0
  -24.2040  -13.1090   20.8680 C   0  0  0  0  0  0  0  0  0  0  0  0
  -24.6610  -11.7590   20.7680 C   0  0  0  0  0  0  0  0  0  0  0  0
  -26.2670  -13.0200   20.1170 N   0  0  0  0  0  0  0  0  0  0  0  0
  -25.9290  -11.7290   20.3730 N   0  0  0  0  0  0  0  0  0  0  0  0
  -23.9400  -10.4940   20.9650 C   0  0  0  0  0  0  0  0  0  0  0  0
  -24.4040   -9.5130   21.8680 C   0  0  0  0  0  3  0  0  0  0  0  0
  -23.6810   -8.3150   22.0560 C   0  0  0  0  0  3  0  0  0  0  0  0
  -22.4810   -8.0880   21.3420 C   0  0  0  0  0  0  0  0  0  0  0  0
  -22.0350   -9.0590   20.4260 C   0  0  0  0  0  3  0  0  0  0  0  0
  -22.7590  -10.2480   20.2360 C   0  0  0  0  0  3  0  0  0  0  0  0
  -21.7280   -6.9430   21.4400 O   0  0  0  0  0  0  0  0  0  0  0  0
  -21.6900   -6.2040   22.5960 C   0  0  0  0  0  0  0  0  0  0  0  0
  -21.2900   -6.7670   23.8270 C   0  0  0  0  0  3  0  0  0  0  0  0
  -21.2000   -5.9560   24.9770 C   0  0  0  0  0  3  0  0  0  0  0  0
  -21.4980   -4.5830   24.8950 C   0  0  0  0  0  0  0  0  0  0  0  0
  -21.8910   -4.0190   23.6680 C   0  0  0  0  0  3  0  0  0  0  0  0
  -21.9830   -4.8270   22.5220 C   0  0  0  0  0  0  0  0  0  0  0  0
  -22.3420   -4.2750   21.3370 F   0  0  0  0  0  0  0  0  0  0  0  0
  -21.4040   -3.8010   25.9970 F   0  0  0  0  0  0  0  0  0  0  0  0
  -22.8300  -13.5830   21.2410 C   0  0  0  0  0  0  0  0  0  0  0  0
  -22.1580  -12.8700   22.1390 N   0  0  0  0  0  0  0  0  0  0  0  0
  -22.3620  -14.6200   20.7710 O   0  0  0  0  0  0  0  0  0  0  0  0
  -22.5520  -12.0330   22.5410 H   0  0  0  0  0  0  0  0  0  0  0  0
  -21.2370  -13.1660   22.4270 H   0  0  0  0  0  0  0  0  0  0  0  0
  -25.3940  -15.2660   20.2860 N   0  0  0  0  0  0  0  0  0  0  0  0
  -24.6350  -15.9160   20.4560 H   0  0  0  0  0  0  0  0  0  0  0  0
  -26.2110  -15.7070   19.8840 H   0  0  0  0  0  0  0  0  0  0  0  0
  1  3  2  0
  1  2  1  0
  2  4  2  0
  3  5  1  0
  5  4  1  0
  5 48  1  0
  6  2  1  0
  6  7  1  0
  8 19  2  0
  9  7  1  0
  9 14  1  0
 10 18  1  0
 10 20  1  0
 11 17  1  0
 11 13  1  0
 12 18  1  0
 13 12  1  0
 14 13  2  0
 15  9  2  0
 16 15  1  0
 16 11  2  0
 17 10  1  0
 18  8  1  0
 20 22  2  0
 21 20  1  0
 23 21  1  0
 24 33  2  0
 24 29  1  0
 25 21  1  0
 25 29  1  0
 26 25  1  0
 27 28  1  0
 27 26  1  0
 28 24  1  0
 29 30  2  0
 30 31  1  0
 32 31  2  0
 33 32  1  0
 34  8  1  0
 34 39  1  0
 34 35  1  0
 35 38  1  1
 35 36  1  0
 37 35  1  0
 39 42  1  0
 40 44  1  0
 40 39  1  0
 41 40  2  0
 44 43  1  0
 46 44  1  0
 46 47  1  0
 46 45  1  0
 49 59  1  0
 49 48  2  0
 50 59  1  0
 51 56  1  0
 52 53  1  0
 52 51  1  0
 54 53  1  0
 54 63  1  0
 54 55  1  0
 56 50  1  0
 56 55  1  0
 57 50  2  0
 59 58  1  0
 60 61  2  0
 61 80  1  0
 62 61  1  0
 62 65  1  0
 63 64  1  0
 63 60  1  0
 64 62  2  0
 65 66  1  0
 66 67  2  0
 68 71  1  0
 68 67  1  0
 69 68  2  0
 70 69  1  0
 70 65  2  0
 71 72  1  0
 72 73  1  0
 73 74  2  0
 75 74  1  0
 75 79  1  0
 76 75  2  0
 77 72  2  0
 77 76  1  0
 78 77  1  0
 80 81  1  0
 81 84  1  0
 81 83  1  0
 82 80  2  0
 85 60  1  0
 85 86  1  0
 87 85  1  0
M  ISO  4   6 101   7 101  50 100  59 100
M  END
>  <TORSDO>  (1) 
F 19

>  <SCORE>  (1) 
-14.265

>  <name>  (1) 
1

>  <ligand_id>  (1) 
1

>  <original_smiles>  (1) 
[H]c1nn(C([H])([H])C([H])([H])N(C(=O)N2C([H])([H])C([H])([H])C([H])([H])C([H])(n3nc(-c4c([H])c([H])c(Oc5c([H])c([H])c(F)c([H])c5F)c([H])c4[H])c(C(=O)N([H])[H])c3N([H])[H])C2([H])[H])C([H])([H])[H])nc1C([H])([H])Oc1c([H])c([H])c2c(c1[H])C([H])([H])N(C(=O)C([H])(N([H])C(=O)C([H])(N([H])C([H])([H])[H])C([H])([H])[H])C(C([H])([H])[H])(C([H])([H])[H])C([H])([H])[H])C([H])(C(=O)N([H])C1([H])c3c([H])c([H])c([H])c([H])c3C([H])([H])C([H])([H])C1([H])[H])C2([H])[H]

>  <smiles>  (1) 
[H]c1nn(C([H])([H])C([H])([H])N(C(=O)N2C([H])([H])C([H])([H])C([H])([H])C([H])(n3nc(-c4c([H])c([H])c(Oc5c([H])c([H])c(F)c([H])c5F)c([H])c4[H])c(C(=O)N([H])[H])c3N([H])[H])C2([H])[H])C([H])([H])[H])nc1C([H])([H])Oc1c([H])c([H])c2c(c1[H])C([H])([H])N(C(=O)C([H])(N([H])C(=O)C([H])(N([H])C([H])([H])[H])C([H])([H])[H])C(C([H])([H])[H])(C([H])([H])[H])C([H])([H])[H])C([H])(C(=O)N([H])C1([H])c3c([H])c([H])c([H])c([H])c3C([H])([H])C([H])([H])C1([H])[H])C2([H])[H]

$$$$
2:0:0
     RDKit          3D

 93101  0  0  1  0  0  0  0  0999 V2000
  -30.0400  -19.9340   20.6930 C   0  0  0  0  0  3  0  0  0  0  0  0
  -29.3230  -21.0010   20.0060 C   0  0  0  0  0  0  0  0  0  0  0  0
  -29.5010  -18.6910   20.3450 C   0  0  0  0  0  0  0  0  0  0  0  0
  -28.4300  -20.4190   19.2270 N   0  0  0  0  0  0  0  0  0  0  0  0
  -28.4780  -19.0700   19.4710 N   0  0  0  0  0  0  0  0  0  0  0  0
  -29.5710  -22.5640   19.8810 C   0  0  0  0  0  3  0  0  0  0  0  0
  -28.4880  -23.7060   20.2590 C   0  0  0  0  0  3  0  0  0  0  0  0
  -28.7850  -25.2100   19.7310 C   0  0  0  0  0  2  0  0  0  0  0  0
  -28.4470  -26.5030   20.3960 O   0  0  0  0  0  0  0  0  0  0  0  0
  -24.6610  -31.9030   23.2140 C   0  0  0  0  0  0  0  0  0  0  0  0
  -27.3010  -27.3050   20.2330 C   0  0  0  0  0  0  0  0  0  0  0  0
  -23.4660  -30.5040   21.5620 C   0  0  0  0  0  3  0  0  0  0  0  0
  -24.9300  -28.9240   20.1580 C   0  0  0  0  0  0  0  0  0  0  0  0
  -26.0040  -30.8090   21.4050 C   0  0  0  0  0  2  0  0  0  0  0  0
  -26.0830  -29.4200   20.7770 C   0  0  0  0  0  0  0  0  0  0  0  0
  -27.2580  -28.6130   20.8160 C   0  0  0  0  0  3  0  0  0  0  0  0
  -26.1320  -26.8560   19.5890 C   0  0  0  0  0  3  0  0  0  0  0  0
  -24.9560  -27.6460   19.5610 C   0  0  0  0  0  3  0  0  0  0  0  0
  -23.6870  -29.7970   20.1920 C   0  0  0  0  0  2  0  0  0  0  0  0
  -24.7270  -31.0940   22.1160 N   0  0  0  0  0  0  0  0  0  0  0  0
  -23.5750  -32.1870   23.7390 O   0  0  0  0  0  0  0  0  0  0  0  0
  -22.7870  -29.5020   22.5260 C   0  0  0  0  0  0  0  0  0  0  0  0
  -21.4590  -29.3410   22.3950 N   0  0  0  0  0  0  0  0  0  0  0  0
  -23.4550  -28.8690   23.3490 O   0  0  0  0  0  0  0  0  0  0  0  0
  -20.9790  -29.8710   21.6820 H   0  0  0  0  0  0  0  0  0  0  0  0
  -18.0680  -28.2200   22.9240 C   0  0  0  0  0  0  0  0  0  0  0  0
  -20.6340  -28.4170   23.1720 C   0  0  0  0  0  3  0  0  0  0  0  0
  -20.6950  -26.9860   22.5870 C   0  0  0  0  0  2  0  0  0  0  0  0
  -19.5820  -26.7010   21.5750 C   0  0  0  0  0  2  0  0  0  0  0  0
  -18.2090  -26.8730   22.2310 C   0  0  0  0  0  2  0  0  0  0  0  0
  -19.2080  -28.9490   23.3530 C   0  0  0  0  0  0  0  0  0  0  0  0
  -19.0270  -30.2090   23.9640 C   0  0  0  0  0  3  0  0  0  0  0  0
  -17.7380  -30.7400   24.1520 C   0  0  0  0  0  3  0  0  0  0  0  0
  -16.6100  -30.0070   23.7390 C   0  0  0  0  0  3  0  0  0  0  0  0
  -16.7760  -28.7500   23.1300 C   0  0  0  0  0  3  0  0  0  0  0  0
  -25.9430  -32.5300   23.8480 C   0  0  0  0  0  3  0  0  0  0  0  0
  -25.6350  -33.9310   24.1760 N   0  0  0  0  0  0  0  0  0  0  0  0
  -25.9760  -34.9840   23.4200 C   0  0  0  0  0  0  0  0  0  0  0  0
  -26.6530  -34.8780   22.3920 O   0  0  0  0  0  0  0  0  0  0  0  0
  -25.0310  -34.0870   24.9700 H   0  0  0  0  0  0  0  0  0  0  0  0
  -24.2600  -36.7880   23.0590 C   0  0  0  0  0  1  0  0  0  0  0  0
  -25.4940  -36.3740   23.8770 C   0  0  0  0  0  3  0  0  0  0  0  0
  -27.6230  -37.2500   24.7320 C   0  0  0  0  0  1  0  0  0  0  0  0
  -26.5350  -37.4210   23.7730 N   0  0  0  0  0  0  0  0  0  0  0  0
  -26.1320  -38.3450   23.9100 H   0  0  0  0  0  0  0  0  0  0  0  0
  -26.4470  -31.7580   25.1300 C   0  0  1  0  0  0  0  0  0  0  0  0
  -25.3430  -31.5240   26.1880 C   0  0  0  0  0  1  0  0  0  0  0  0
  -27.0300  -30.3780   24.7450 C   0  0  0  0  0  1  0  0  0  0  0  0
  -27.5950  -32.5500   25.8010 C   0  0  0  0  0  1  0  0  0  0  0  0
  -29.7600  -17.2200   20.9240 C   0  0  0  0  0  2  0  0  0  0  0  0
  -30.8250  -14.8420   20.5760 C   0  0  0  0  0  0  0  0  0  0  0  0
  -30.6650  -12.5340   19.6440 C   0  0  0  0  0  2  0  0  0  0  0  0
  -29.7780  -12.5360   18.3780 C   0  0  0  0  0  2  0  0  0  0  0  0
  -28.3050  -12.3340   18.7710 C   0  0  0  0  0  2  0  0  0  0  0  0
  -27.8550  -13.2720   19.9210 C   0  0  0  0  0  3  0  0  0  0  0  0
  -28.8710  -13.2850   21.0820 C   0  0  0  0  0  2  0  0  0  0  0  0
  -30.1750  -13.6320   20.5060 N   0  0  0  0  0  0  0  0  0  0  0  0
  -32.0590  -14.8540   20.5210 O   0  0  0  0  0  0  0  0  0  0  0  0
  -30.5800  -16.3500   18.7420 C   0  0  0  0  0  1  0  0  0  0  0  0
  -30.1550  -15.9820   20.1010 N   0  0  0  0  0  0  0  0  0  0  0  0
  -25.4380  -13.8320   20.5510 C   0  0  0  0  0  0  0  0  0  0  0  0
  -24.3630  -13.0490   20.8810 C   0  0  0  0  0  0  0  0  0  0  0  0
  -24.8470  -11.7060   20.8850 C   0  0  0  0  0  0  0  0  0  0  0  0
  -26.5020  -12.9640   20.3700 N   0  0  0  0  0  0  0  0  0  0  0  0
  -26.1520  -11.6800   20.6400 N   0  0  0  0  0  0  0  0  0  0  0  0
  -24.1310  -10.4360   21.0560 C   0  0  0  0  0  0  0  0  0  0  0  0
  -24.5240   -9.4930   22.0320 C   0  0  0  0  0  3  0  0  0  0  0  0
  -23.8070   -8.2870   22.1900 C   0  0  0  0  0  3  0  0  0  0  0  0
  -22.6830   -8.0170   21.3710 C   0  0  0  0  0  0  0  0  0  0  0  0
  -22.3120   -8.9510   20.3860 C   0  0  0  0  0  3  0  0  0  0  0  0
  -23.0290  -10.1470   20.2270 C   0  0  0  0  0  3  0  0  0  0  0  0
  -21.9410   -6.8620   21.4370 O   0  0  0  0  0  0  0  0  0  0  0  0
  -21.8080   -6.1560   22.6070 C   0  0  0  0  0  0  0  0  0  0  0  0
  -21.2560   -6.7370   23.7710 C   0  0  0  0  0  3  0  0  0  0  0  0
  -21.0790   -5.9570   24.9310 C   0  0  0  0  0  3  0  0  0  0  0  0
  -21.4390   -4.5960   24.9270 C   0  0  0  0  0  0  0  0  0  0  0  0
  -21.9800   -4.0130   23.7670 C   0  0  0  0  0  3  0  0  0  0  0  0
  -22.1620   -4.7920   22.6100 C   0  0  0  0  0  0  0  0  0  0  0  0
  -22.6650   -4.2210   21.4890 F   0  0  0  0  0  0  0  0  0  0  0  0
  -21.2630   -3.8440   26.0380 F   0  0  0  0  0  0  0  0  0  0  0  0
  -22.9510  -13.5120   21.0860 C   0  0  0  0  0  0  0  0  0  0  0  0
  -22.1950  -12.8090   21.9260 N   0  0  0  0  0  0  0  0  0  0  0  0
  -22.5230  -14.5260   20.5360 O   0  0  0  0  0  0  0  0  0  0  0  0
  -22.5540  -11.9830   22.3770 H   0  0  0  0  0  0  0  0  0  0  0  0
  -21.2460  -13.0970   22.1150 H   0  0  0  0  0  0  0  0  0  0  0  0
  -25.6010  -15.1960   20.3680 N   0  0  0  0  0  0  0  0  0  0  0  0
  -24.8340  -15.8570   20.4040 H   0  0  0  0  0  0  0  0  0  0  0  0
  -26.4820  -15.6160   20.1160 H   0  0  0  0  0  0  0  0  0  0  0  0
  -27.4640  -18.2440   18.8280 C   0  0  0  0  0  2  0  0  0  0  0  0
  -26.0710  -18.3960   19.4600 C   0  0  2  0  0  0  0  0  0  0  0  0
  -26.1440  -18.1450   20.7660 F   0  0  0  0  0  0  0  0  0  0  0  0
  -25.2580  -17.5000   18.9030 F   0  0  0  0  0  0  0  0  0  0  0  0
  -25.5390  -19.6080   19.2780 F   0  0  0  0  0  0  0  0  0  0  0  0
  2  1  1  0
  3  1  2  0
  3 50  1  0
  4  5  1  0
  4  2  2  0
  5  3  1  0
  6  2  1  0
  6  7  2  0
  8  7  1  0
  8  9  1  0
 10 21  2  0
 11  9  1  0
 11 16  1  0
 12 20  1  0
 12 22  1  0
 13 19  1  0
 13 15  1  0
 14 20  1  0
 15 16  2  0
 15 14  1  0
 17 11  2  0
 18 17  1  0
 18 13  2  0
 19 12  1  0
 20 10  1  0
 22 24  2  0
 23 22  1  0
 25 23  1  0
 26 35  2  0
 26 31  1  0
 27 23  1  0
 27 31  1  0
 28 27  1  0
 29 30  1  0
 29 28  1  0
 30 26  1  0
 31 32  2  0
 32 33  1  0
 34 33  2  0
 35 34  1  0
 36 10  1  0
 36 37  1  0
 36 46  1  0
 37 40  1  0
 38 42  1  0
 38 37  1  0
 39 38  2  0
 42 41  1  0
 44 42  1  0
 44 45  1  0
 44 43  1  0
 46 49  1  1
 46 47  1  0
 48 46  1  0
 52 57  1  0
 53 54  1  0
 53 52  1  0
 55 54  1  0
 55 64  1  0
 55 56  1  0
 57 51  1  0
 57 56  1  0
 58 51  2  0
 59 60  1  0
 60 51  1  0
 60 50  1  0
 61 62  2  0
 62 63  1  0
 62 81  1  0
 63 66  1  0
 64 61  1  0
 64 65  1  0
 65 63  2  0
 66 67  1  0
 67 68  2  0
 69 72  1  0
 69 68  1  0
 70 69  2  0
 71 70  1  0
 71 66  2  0
 72 73  1  0
 73 78  2  0
 73 74  1  0
 74 75  2  0
 76 75  1  0
 76 80  1  0
 77 76  2  0
 78 77  1  0
 79 78  1  0
 81 82  1  0
 82 85  1  0
 82 84  1  0
 83 81  2  0
 86 87  1  0
 86 61  1  0
 88 86  1  0
 89 90  1  0
 89  5  1  0
 90 91  1  1
 92 90  1  0
 93 90  1  0
M  ISO  4   8 101   9 101  51 100  60 100
M  END
>  <TORSDO>  (2) 
F 22

>  <SCORE>  (2) 
-11.659

>  <name>  (2) 
2

>  <ligand_id>  (2) 
2

>  <original_smiles>  (2) 
[H]c1c([H])c([H])c2c(c1[H])C([H])([H])C([H])([H])C([H])([H])C2([H])N([H])C(=O)C1([H])N(C(=O)C([H])(N([H])C(=O)C([H])(N([H])C([H])([H])[H])C([H])([H])[H])C(C([H])([H])[H])(C([H])([H])[H])C([H])([H])[H])C([H])([H])c2c([H])c(OC([H])([H])C([H])([H])C([H])([H])c3nn(C([H])([H])C(F)(F)F)c(C([H])([H])N(C(=O)N4C([H])([H])C([H])([H])C([H])([H])C([H])(n5nc(-c6c([H])c([H])c(Oc7c([H])c([H])c(F)c([H])c7F)c([H])c6[H])c(C(=O)N([H])[H])c5N([H])[H])C4([H])[H])C([H])([H])[H])c3[H])c([H])c([H])c2C1([H])[H]

>  <smiles>  (2) 
[H]c1c([H])c([H])c2c(c1[H])C([H])([H])C([H])([H])C([H])([H])C2([H])N([H])C(=O)C1([H])N(C(=O)C([H])(N([H])C(=O)C([H])(N([H])C([H])([H])[H])C([H])([H])[H])C(C([H])([H])[H])(C([H])([H])[H])C([H])([H])[H])C([H])([H])c2c([H])c(OC([H])([H])C([H])([H])C([H])([H])c3nn(C([H])([H])C(F)(F)F)c(C([H])([H])N(C(=O)N4C([H])([H])C([H])([H])C([H])([H])C([H])(n5nc(-c6c([H])c([H])c(Oc7c([H])c([H])c(F)c([H])c7F)c([H])c6[H])c(C(=O)N([H])[H])c5N([H])[H])C4([H])[H])C([H])([H])[H])c3[H])c([H])c([H])c2C1([H])[H]

$$$$
3:0:0
     RDKit          3D

 91 99  0  0  1  0  0  0  0  0999 V2000
  -27.8350  -21.9160   18.0360 C   0  0  0  0  0  3  0  0  0  0  0  0
  -28.0660  -23.1720   18.6180 C   0  0  0  0  0  3  0  0  0  0  0  0
  -28.2120  -20.7030   18.6670 C   0  0  0  0  0  0  0  0  0  0  0  0
  -28.6580  -23.2610   19.8770 C   0  0  0  0  0  0  0  0  0  0  0  0
  -29.0210  -20.7110   19.8440 C   0  0  0  0  0  0  0  0  0  0  0  0
  -29.1530  -22.0210   20.4360 N   0  0  0  0  0  0  0  0  0  0  0  0
  -26.0600  -19.4020   18.3820 C   0  0  0  0  0  1  0  0  0  0  0  0
  -27.5710  -19.4550   18.0680 C   0  0  0  0  0  2  0  0  0  0  0  0
  -28.4190  -18.7710   21.5250 C   0  0  0  0  0  1  0  0  0  0  0  0
  -29.5110  -19.2490   20.5530 C   0  0  0  0  0  3  0  0  0  0  0  0
  -30.2100  -17.8510   19.8080 C   0  0  0  0  0  2  0  0  0  0  0  0
  -30.7780  -15.1020   19.8640 C   0  0  0  0  0  0  0  0  0  0  0  0
  -30.6130  -12.7500   18.8990 C   0  0  0  0  0  2  0  0  0  0  0  0
  -29.6110  -12.7110   17.7220 C   0  0  0  0  0  2  0  0  0  0  0  0
  -28.1730  -12.4960   18.2320 C   0  0  0  0  0  2  0  0  0  0  0  0
  -27.8330  -13.4130   19.4360 C   0  0  0  0  0  3  0  0  0  0  0  0
  -28.9500  -13.3990   20.5020 C   0  0  0  0  0  2  0  0  0  0  0  0
  -30.1870  -13.8340   19.8380 N   0  0  0  0  0  0  0  0  0  0  0  0
  -31.9350  -15.1730   19.4340 O   0  0  0  0  0  0  0  0  0  0  0  0
  -30.0310  -16.2900   20.1790 N   0  0  0  0  0  0  0  0  0  0  0  0
  -29.1420  -16.0720   20.6050 H   0  0  0  0  0  0  0  0  0  0  0  0
  -25.5020  -14.0000   20.3170 C   0  0  0  0  0  0  0  0  0  0  0  0
  -24.4520  -13.2290   20.7360 C   0  0  0  0  0  0  0  0  0  0  0  0
  -24.8930  -11.8740   20.6460 C   0  0  0  0  0  0  0  0  0  0  0  0
  -26.5200  -13.1150   20.0000 N   0  0  0  0  0  0  0  0  0  0  0  0
  -26.1640  -11.8290   20.2600 N   0  0  0  0  0  0  0  0  0  0  0  0
  -24.1580  -10.6180   20.8400 C   0  0  0  0  0  0  0  0  0  0  0  0
  -24.5710   -9.6590   21.7890 C   0  0  0  0  0  3  0  0  0  0  0  0
  -23.8340   -8.4720   21.9770 C   0  0  0  0  0  3  0  0  0  0  0  0
  -22.6660   -8.2330   21.2130 C   0  0  0  0  0  0  0  0  0  0  0  0
  -22.2720   -9.1780   20.2510 C   0  0  0  0  0  3  0  0  0  0  0  0
  -23.0130  -10.3570   20.0620 C   0  0  0  0  0  3  0  0  0  0  0  0
  -21.9050   -7.0920   21.3020 O   0  0  0  0  0  0  0  0  0  0  0  0
  -21.7540   -6.4220   22.4890 C   0  0  0  0  0  0  0  0  0  0  0  0
  -21.2260   -7.0500   23.6390 C   0  0  0  0  0  3  0  0  0  0  0  0
  -21.0270   -6.3040   24.8180 C   0  0  0  0  0  3  0  0  0  0  0  0
  -21.3460   -4.9330   24.8470 C   0  0  0  0  0  0  0  0  0  0  0  0
  -21.8670   -4.3060   23.7020 C   0  0  0  0  0  3  0  0  0  0  0  0
  -22.0690   -5.0500   22.5260 C   0  0  0  0  0  0  0  0  0  0  0  0
  -22.5530   -4.4370   21.4190 F   0  0  0  0  0  0  0  0  0  0  0  0
  -21.1450   -4.2150   25.9760 F   0  0  0  0  0  0  0  0  0  0  0  0
  -23.0810  -13.7220   21.0990 C   0  0  0  0  0  0  0  0  0  0  0  0
  -22.3930  -13.0240   21.9970 N   0  0  0  0  0  0  0  0  0  0  0  0
  -22.6340  -14.7650   20.6270 O   0  0  0  0  0  0  0  0  0  0  0  0
  -22.7720  -12.1870   22.4120 H   0  0  0  0  0  0  0  0  0  0  0  0
  -21.4790  -13.3420   22.2860 H   0  0  0  0  0  0  0  0  0  0  0  0
  -25.6680  -15.3700   20.1570 N   0  0  0  0  0  0  0  0  0  0  0  0
  -24.8910  -16.0080   20.2980 H   0  0  0  0  0  0  0  0  0  0  0  0
  -26.4480  -15.7980   19.6750 H   0  0  0  0  0  0  0  0  0  0  0  0
  -28.5380  -24.7470   20.6280 C   0  0  0  0  0  2  0  0  0  0  0  0
  -28.5230  -26.1880   19.9830 O   0  0  0  0  0  0  0  0  0  0  0  0
  -24.5840  -31.7050   23.0480 C   0  0  0  0  0  0  0  0  0  0  0  0
  -27.4110  -27.1160   20.0100 C   0  0  0  0  0  0  0  0  0  0  0  0
  -23.4720  -30.2870   21.3650 C   0  0  0  0  0  3  0  0  0  0  0  0
  -25.0120  -28.7860   19.9510 C   0  0  0  0  0  0  0  0  0  0  0  0
  -26.0190  -30.6560   21.2500 C   0  0  0  0  0  2  0  0  0  0  0  0
  -26.1650  -29.2720   20.5810 C   0  0  0  0  0  0  0  0  0  0  0  0
  -27.3640  -28.4550   20.5860 C   0  0  0  0  0  3  0  0  0  0  0  0
  -26.2250  -26.7380   19.3440 C   0  0  0  0  0  3  0  0  0  0  0  0
  -25.0580  -27.5370   19.3120 C   0  0  0  0  0  3  0  0  0  0  0  0
  -23.7500  -29.6380   19.9820 C   0  0  0  0  0  2  0  0  0  0  0  0
  -24.7100  -30.9020   21.9440 N   0  0  0  0  0  0  0  0  0  0  0  0
  -23.4760  -31.9320   23.5620 O   0  0  0  0  0  0  0  0  0  0  0  0
  -22.8180  -29.2380   22.3000 C   0  0  0  0  0  0  0  0  0  0  0  0
  -21.4920  -29.0420   22.1750 N   0  0  0  0  0  0  0  0  0  0  0  0
  -23.5050  -28.6010   23.1020 O   0  0  0  0  0  0  0  0  0  0  0  0
  -20.9920  -29.6040   21.5000 H   0  0  0  0  0  0  0  0  0  0  0  0
  -18.1330  -27.7790   22.6820 C   0  0  0  0  0  0  0  0  0  0  0  0
  -20.6920  -28.0640   22.9210 C   0  0  0  0  0  3  0  0  0  0  0  0
  -20.8030  -26.6580   22.2850 C   0  0  0  0  0  2  0  0  0  0  0  0
  -19.6900  -26.3640   21.2750 C   0  0  0  0  0  2  0  0  0  0  0  0
  -18.3170  -26.4630   21.9460 C   0  0  0  0  0  2  0  0  0  0  0  0
  -19.2490  -28.5390   23.1250 C   0  0  0  0  0  0  0  0  0  0  0  0
  -19.0200  -29.7720   23.7740 C   0  0  0  0  0  3  0  0  0  0  0  0
  -17.7110  -30.2450   23.9840 C   0  0  0  0  0  3  0  0  0  0  0  0
  -16.6110  -29.4820   23.5560 C   0  0  0  0  0  3  0  0  0  0  0  0
  -16.8240  -28.2490   22.9130 C   0  0  0  0  0  3  0  0  0  0  0  0
  -25.8210  -32.3820   23.7080 C   0  0  0  0  0  3  0  0  0  0  0  0
  -26.3500  -31.6060   24.9800 C   0  0  1  0  0  0  0  0  0  0  0  0
  -25.2490  -31.3000   26.0220 C   0  0  0  0  0  1  0  0  0  0  0  0
  -26.9940  -30.2620   24.5730 C   0  0  0  0  0  1  0  0  0  0  0  0
  -27.4580  -32.4330   25.6740 C   0  0  0  0  0  1  0  0  0  0  0  0
  -25.4440  -33.7580   24.0720 N   0  0  0  0  0  0  0  0  0  0  0  0
  -25.7360  -34.8480   23.3490 C   0  0  0  0  0  0  0  0  0  0  0  0
  -26.4200  -34.8020   22.3240 O   0  0  0  0  0  0  0  0  0  0  0  0
  -24.8370  -33.8620   24.8730 H   0  0  0  0  0  0  0  0  0  0  0  0
  -23.9310  -36.5730   23.0330 C   0  0  0  0  0  1  0  0  0  0  0  0
  -25.1850  -36.2010   23.8410 C   0  0  0  0  0  3  0  0  0  0  0  0
  -27.2690  -37.1600   24.7180 C   0  0  0  0  0  1  0  0  0  0  0  0
  -26.1690  -37.3030   23.7670 N   0  0  0  0  0  0  0  0  0  0  0  0
  -25.7200  -38.1990   23.9350 H   0  0  0  0  0  0  0  0  0  0  0  0
  1  2  2  0
  1  3  1  0
  2  4  1  0
  3  5  2  0
  4  6  2  0
  4 50  1  0
  5  6  1  0
  5 10  1  0
  8  7  1  0
  8  3  1  0
 10  9  1  0
 11 20  1  0
 11 10  1  0
 12 20  1  0
 13 18  1  0
 14 15  1  0
 14 13  1  0
 16 15  1  0
 16 25  1  0
 16 17  1  0
 18 12  1  0
 18 17  1  0
 19 12  2  0
 20 21  1  0
 22 23  2  0
 23 42  1  0
 24 23  1  0
 24 27  1  0
 25 26  1  0
 25 22  1  0
 26 24  2  0
 27 28  1  0
 28 29  2  0
 30 33  1  0
 30 29  1  0
 31 30  2  0
 32 31  1  0
 32 27  2  0
 33 34  1  0
 34 39  2  0
 34 35  1  0
 35 36  2  0
 36 37  1  0
 37 41  1  0
 38 37  2  0
 39 38  1  0
 40 39  1  0
 42 43  1  0
 43 46  1  0
 43 45  1  0
 44 42  2  0
 47 48  1  0
 47 22  1  0
 49 47  1  0
 51 53  1  0
 51 50  1  0
 52 63  2  0
 53 58  1  0
 54 62  1  0
 54 64  1  0
 55 61  1  0
 55 57  1  0
 56 62  1  0
 57 58  2  0
 57 56  1  0
 59 53  2  0
 60 59  1  0
 60 55  2  0
 61 54  1  0
 62 52  1  0
 64 66  2  0
 65 64  1  0
 67 65  1  0
 68 77  2  0
 68 73  1  0
 69 65  1  0
 69 73  1  0
 70 69  1  0
 71 72  1  0
 71 70  1  0
 72 68  1  0
 73 74  2  0
 74 75  1  0
 76 75  2  0
 77 76  1  0
 78 52  1  0
 78 83  1  0
 78 79  1  0
 79 82  1  1
 79 80  1  0
 81 79  1  0
 83 86  1  0
 84 88  1  0
 84 83  1  0
 85 84  2  0
 88 87  1  0
 90 88  1  0
 90 91  1  0
 90 89  1  0
M  ISO  4  12 100  20 100  50 101  51 101
M  END
>  <TORSDO>  (3) 
F 20

>  <SCORE>  (3) 
-12.506

>  <name>  (3) 
3

>  <ligand_id>  (3) 
3

>  <original_smiles>  (3) 
[H]c1c(C([H])([H])Oc2c([H])c([H])c3c(c2[H])C([H])([H])N(C(=O)C([H])(N([H])C(=O)C([H])(N([H])C([H])([H])[H])C([H])([H])[H])C(C([H])([H])[H])(C([H])([H])[H])C([H])([H])[H])C([H])(C(=O)N([H])C2([H])c4c([H])c([H])c([H])c([H])c4C([H])([H])C([H])([H])C2([H])[H])C3([H])[H])nc(C([H])(C([H])([H])[H])C([H])([H])N([H])C(=O)N2C([H])([H])C([H])([H])C([H])([H])C([H])(n3nc(-c4c([H])c([H])c(Oc5c([H])c([H])c(F)c([H])c5F)c([H])c4[H])c(C(=O)N([H])[H])c3N([H])[H])C2([H])[H])c(C([H])([H])C([H])([H])[H])c1[H]

>  <smiles>  (3) 
[H]c1c(C([H])([H])Oc2c([H])c([H])c3c(c2[H])C([H])([H])N(C(=O)C([H])(N([H])C(=O)C([H])(N([H])C([H])([H])[H])C([H])([H])[H])C(C([H])([H])[H])(C([H])([H])[H])C([H])([H])[H])C([H])(C(=O)N([H])C2([H])c4c([H])c([H])c([H])c([H])c4C([H])([H])C([H])([H])C2([H])[H])C3([H])[H])nc(C([H])(C([H])([H])[H])C([H])([H])N([H])C(=O)N2C([H])([H])C([H])([H])C([H])([H])C([H])(n3nc(-c4c([H])c([H])c(Oc5c([H])c([H])c(F)c([H])c5F)c([H])c4[H])c(C(=O)N([H])[H])c3N([H])[H])C2([H])[H])c(C([H])([H])C([H])([H])[H])c1[H]

$$$$
4:0:0
     RDKit          3D

 89 97  0  0  1  0  0  0  0  0999 V2000
  -30.3210  -20.5220   19.4070 C   0  0  0  0  0  3  0  0  0  0  0  0
  -28.9840  -19.5570   20.6700 C   0  0  0  0  0  3  0  0  0  0  0  0
  -29.2070  -20.9340   20.2340 C   0  0  0  0  0  0  0  0  0  0  0  0
  -30.6780  -19.1840   19.3830 N   0  0  0  0  0  0  0  0  0  0  0  0
  -29.8700  -18.4320   20.2060 N   0  0  0  0  0  0  0  0  0  0  0  0
  -28.5730  -22.5510   20.6700 C   0  0  0  0  0  2  0  0  0  0  0  0
  -28.2870  -24.1530   19.8830 C   0  0  0  0  0  2  0  0  0  0  0  0
  -28.1650  -25.7320   20.3830 O   0  0  0  0  0  0  0  0  0  0  0  0
  -24.5450  -31.7550   23.0670 C   0  0  0  0  0  0  0  0  0  0  0  0
  -27.1430  -26.8090   20.2060 C   0  0  0  0  0  0  0  0  0  0  0  0
  -23.3710  -30.3220   21.4430 C   0  0  0  0  0  3  0  0  0  0  0  0
  -24.8410  -28.6850   20.0700 C   0  0  0  0  0  0  0  0  0  0  0  0
  -25.9370  -30.5310   21.3240 C   0  0  0  0  0  2  0  0  0  0  0  0
  -26.0150  -29.1050   20.7060 C   0  0  0  0  0  0  0  0  0  0  0  0
  -27.1550  -28.1840   20.7550 C   0  0  0  0  0  3  0  0  0  0  0  0
  -25.9450  -26.5400   19.5030 C   0  0  0  0  0  3  0  0  0  0  0  0
  -24.8320  -27.4240   19.4470 C   0  0  0  0  0  3  0  0  0  0  0  0
  -23.6190  -29.6060   20.0840 C   0  0  0  0  0  2  0  0  0  0  0  0
  -24.6390  -30.8970   22.0000 N   0  0  0  0  0  0  0  0  0  0  0  0
  -23.4500  -32.0560   23.5710 O   0  0  0  0  0  0  0  0  0  0  0  0
  -22.6640  -29.3500   22.4220 C   0  0  0  0  0  0  0  0  0  0  0  0
  -21.3330  -29.1940   22.2940 N   0  0  0  0  0  0  0  0  0  0  0  0
  -23.3200  -28.7340   23.2640 O   0  0  0  0  0  0  0  0  0  0  0  0
  -20.8580  -29.7420   21.5910 H   0  0  0  0  0  0  0  0  0  0  0  0
  -17.9410  -28.0140   22.7930 C   0  0  0  0  0  0  0  0  0  0  0  0
  -20.4990  -28.2770   23.0760 C   0  0  0  0  0  3  0  0  0  0  0  0
  -20.6000  -26.8330   22.5340 C   0  0  0  0  0  2  0  0  0  0  0  0
  -19.5080  -26.4930   21.5150 C   0  0  0  0  0  2  0  0  0  0  0  0
  -18.1200  -26.6520   22.1430 C   0  0  0  0  0  2  0  0  0  0  0  0
  -19.0560  -28.7840   23.2180 C   0  0  0  0  0  0  0  0  0  0  0  0
  -18.8330  -30.0540   23.7910 C   0  0  0  0  0  3  0  0  0  0  0  0
  -17.5270  -30.5570   23.9410 C   0  0  0  0  0  3  0  0  0  0  0  0
  -16.4250  -29.7860   23.5320 C   0  0  0  0  0  3  0  0  0  0  0  0
  -16.6330  -28.5160   22.9650 C   0  0  0  0  0  3  0  0  0  0  0  0
  -25.8070  -32.4110   23.7040 C   0  0  0  0  0  3  0  0  0  0  0  0
  -26.3240  -31.6460   24.9840 C   0  0  1  0  0  0  0  0  0  0  0  0
  -25.2260  -31.3910   26.0430 C   0  0  0  0  0  1  0  0  0  0  0  0
  -26.9320  -30.2790   24.6010 C   0  0  0  0  0  1  0  0  0  0  0  0
  -27.4580  -32.4570   25.6580 C   0  0  0  0  0  1  0  0  0  0  0  0
  -25.4720  -33.8050   24.0490 N   0  0  0  0  0  0  0  0  0  0  0  0
  -25.7840  -34.8760   23.3090 C   0  0  0  0  0  0  0  0  0  0  0  0
  -26.4470  -34.7980   22.2720 O   0  0  0  0  0  0  0  0  0  0  0  0
  -24.8820  -33.9380   24.8580 H   0  0  0  0  0  0  0  0  0  0  0  0
  -24.0250  -36.6540   23.0070 C   0  0  0  0  0  1  0  0  0  0  0  0
  -25.2840  -36.2530   23.7930 C   0  0  0  0  0  3  0  0  0  0  0  0
  -27.4150  -37.1650   24.6040 C   0  0  0  0  0  1  0  0  0  0  0  0
  -26.2990  -37.3240   23.6760 N   0  0  0  0  0  0  0  0  0  0  0  0
  -25.8820  -38.2370   23.8370 H   0  0  0  0  0  0  0  0  0  0  0  0
  -30.0200  -16.7700   20.5870 C   0  0  0  0  0  3  0  0  0  0  0  0
  -30.7020  -15.3020   19.8440 C   0  0  0  0  0  0  0  0  0  0  0  0
  -30.5230  -12.9400   18.7150 C   0  0  0  0  0  2  0  0  0  0  0  0
  -29.4750  -12.8810   17.5710 C   0  0  0  0  0  2  0  0  0  0  0  0
  -28.0630  -12.6160   18.1190 C   0  0  0  0  0  2  0  0  0  0  0  0
  -27.7680  -13.4810   19.3690 C   0  0  0  0  0  3  0  0  0  0  0  0
  -28.9200  -13.4600   20.3910 C   0  0  0  0  0  2  0  0  0  0  0  0
  -30.1180  -13.9990   19.7200 N   0  0  0  0  0  0  0  0  0  0  0  0
  -31.8420  -15.3190   19.3430 O   0  0  0  0  0  0  0  0  0  0  0  0
  -25.4920  -14.0620   20.3560 C   0  0  0  0  0  0  0  0  0  0  0  0
  -24.4520  -13.2970   20.7990 C   0  0  0  0  0  0  0  0  0  0  0  0
  -24.8840  -11.9370   20.6820 C   0  0  0  0  0  0  0  0  0  0  0  0
  -26.4830  -13.1730   19.9820 N   0  0  0  0  0  0  0  0  0  0  0  0
  -26.1370  -11.8870   20.2460 N   0  0  0  0  0  0  0  0  0  0  0  0
  -24.1480  -10.6850   20.9020 C   0  0  0  0  0  0  0  0  0  0  0  0
  -24.5980   -9.7160   21.8260 C   0  0  0  0  0  3  0  0  0  0  0  0
  -23.8630   -8.5290   22.0330 C   0  0  0  0  0  3  0  0  0  0  0  0
  -22.6620   -8.3040   21.3170 C   0  0  0  0  0  0  0  0  0  0  0  0
  -22.2300   -9.2630   20.3840 C   0  0  0  0  0  3  0  0  0  0  0  0
  -22.9670  -10.4410   20.1740 C   0  0  0  0  0  3  0  0  0  0  0  0
  -21.8940   -7.1710   21.4360 O   0  0  0  0  0  0  0  0  0  0  0  0
  -21.8060   -6.4790   22.6180 C   0  0  0  0  0  0  0  0  0  0  0  0
  -21.3620   -7.0930   23.8090 C   0  0  0  0  0  3  0  0  0  0  0  0
  -21.2240   -6.3290   24.9860 C   0  0  0  0  0  3  0  0  0  0  0  0
  -21.5160   -4.9530   24.9700 C   0  0  0  0  0  0  0  0  0  0  0  0
  -21.9510   -4.3380   23.7820 C   0  0  0  0  0  3  0  0  0  0  0  0
  -22.0940   -5.1000   22.6090 C   0  0  0  0  0  0  0  0  0  0  0  0
  -22.4940   -4.4990   21.4630 F   0  0  0  0  0  0  0  0  0  0  0  0
  -21.3730   -4.2160   26.0960 F   0  0  0  0  0  0  0  0  0  0  0  0
  -23.0970  -13.7920   21.2080 C   0  0  0  0  0  0  0  0  0  0  0  0
  -22.4490  -13.1060   22.1430 N   0  0  0  0  0  0  0  0  0  0  0  0
  -22.6260  -14.8260   20.7370 O   0  0  0  0  0  0  0  0  0  0  0  0
  -22.8470  -12.2710   22.5490 H   0  0  0  0  0  0  0  0  0  0  0  0
  -21.5420  -13.4160   22.4570 H   0  0  0  0  0  0  0  0  0  0  0  0
  -25.6720  -15.4360   20.2070 N   0  0  0  0  0  0  0  0  0  0  0  0
  -24.9330  -16.0990   20.4170 H   0  0  0  0  0  0  0  0  0  0  0  0
  -26.4690  -15.8650   19.7580 H   0  0  0  0  0  0  0  0  0  0  0  0
  -30.5860  -16.7500   22.0380 C   0  0  2  0  0  0  0  0  0  0  0  0
  -31.8700  -17.1160   22.0440 F   0  0  0  0  0  0  0  0  0  0  0  0
  -30.5170  -15.5460   22.6040 F   0  0  0  0  0  0  0  0  0  0  0  0
  -29.9130  -17.5850   22.8350 F   0  0  0  0  0  0  0  0  0  0  0  0
  1  3  1  0
  3  2  2  0
  3  6  1  0
  4  1  2  0
  4  5  1  0
  5 49  1  0
  5  2  1  0
  7  8  1  0
  7  6  1  0
  9 20  2  0
 10  8  1  0
 10 15  1  0
 11 19  1  0
 11 21  1  0
 12 18  1  0
 12 14  1  0
 13 19  1  0
 14 15  2  0
 14 13  1  0
 16 10  2  0
 17 16  1  0
 17 12  2  0
 18 11  1  0
 19  9  1  0
 21 23  2  0
 22 21  1  0
 24 22  1  0
 25 34  2  0
 25 30  1  0
 26 22  1  0
 26 30  1  0
 27 26  1  0
 28 29  1  0
 28 27  1  0
 29 25  1  0
 30 31  2  0
 31 32  1  0
 33 32  2  0
 34 33  1  0
 35  9  1  0
 35 40  1  0
 35 36  1  0
 36 39  1  1
 36 37  1  0
 38 36  1  0
 40 43  1  0
 41 45  1  0
 41 40  1  0
 42 41  2  0
 45 44  1  0
 47 45  1  0
 47 48  1  0
 47 46  1  0
 49 50  1  0
 49 86  1  0
 51 56  1  0
 52 53  1  0
 52 51  1  0
 54 53  1  0
 54 61  1  0
 54 55  1  0
 56 50  1  0
 56 55  1  0
 57 50  2  0
 58 59  2  0
 59 78  1  0
 60 59  1  0
 60 63  1  0
 61 62  1  0
 61 58  1  0
 62 60  2  0
 63 64  1  0
 64 65  2  0
 66 69  1  0
 66 65  1  0
 67 66  2  0
 68 67  1  0
 68 63  2  0
 69 70  1  0
 70 71  1  0
 71 72  2  0
 73 72  1  0
 73 77  1  0
 74 73  2  0
 75 70  2  0
 75 74  1  0
 76 75  1  0
 78 79  1  0
 79 82  1  0
 79 81  1  0
 80 78  2  0
 83 58  1  0
 83 84  1  0
 85 83  1  0
 86 87  1  6
 86 88  1  0
 86 89  1  0
M  ISO  4   7 101   8 101  49 100  50 100
M  END
>  <TORSDO>  (4) 
F 20

>  <SCORE>  (4) 
-15.050

>  <name>  (4) 
4

>  <ligand_id>  (4) 
4

>  <original_smiles>  (4) 
[H]c1nn(C([H])(C(=O)N2C([H])([H])C([H])([H])C([H])([H])C([H])(n3nc(-c4c([H])c([H])c(Oc5c([H])c([H])c(F)c([H])c5F)c([H])c4[H])c(C(=O)N([H])[H])c3N([H])[H])C2([H])[H])C(F)(F)F)c([H])c1C([H])([H])C([H])([H])Oc1c([H])c([H])c2c(c1[H])C([H])([H])N(C(=O)C([H])(N([H])C(=O)C([H])(N([H])C([H])([H])[H])C([H])([H])[H])C(C([H])([H])[H])(C([H])([H])[H])C([H])([H])[H])C([H])(C(=O)N([H])C1([H])c3c([H])c([H])c([H])c([H])c3C([H])([H])C([H])([H])C1([H])[H])C2([H])[H]

>  <smiles>  (4) 
[H]c1nn(C([H])(C(=O)N2C([H])([H])C([H])([H])C([H])([H])C([H])(n3nc(-c4c([H])c([H])c(Oc5c([H])c([H])c(F)c([H])c5F)c([H])c4[H])c(C(=O)N([H])[H])c3N([H])[H])C2([H])[H])C(F)(F)F)c([H])c1C([H])([H])C([H])([H])Oc1c([H])c([H])c2c(c1[H])C([H])([H])N(C(=O)C([H])(N([H])C(=O)C([H])(N([H])C([H])([H])[H])C([H])([H])[H])C(C([H])([H])[H])(C([H])([H])[H])C([H])([H])[H])C([H])(C(=O)N([H])C1([H])c3c([H])c([H])c([H])c([H])c3C([H])([H])C([H])([H])C1([H])[H])C2([H])[H]

$$$$
5:0:0
     RDKit          3D

 94102  0  0  1  0  0  0  0  0999 V2000
  -30.4400  -22.3910   19.5870 C   0  0  0  0  0  3  0  0  0  0  0  0
  -29.1460  -21.9080   19.4460 C   0  0  0  0  0  3  0  0  0  0  0  0
  -29.1180  -24.1370   19.6680 C   0  0  0  0  0  3  0  0  0  0  0  0
  -31.7750  -21.7130   19.3990 C   0  0  0  0  0  1  0  0  0  0  0  0
  -26.8670  -23.0650   19.9310 C   0  0  0  0  0  1  0  0  0  0  0  0
  -30.4020  -23.7790   19.7360 N   0  0  0  0  0  2  0  0  0  0  0  0
  -28.3170  -23.0350   19.7240 N   0  0  0  0  0  0  0  0  0  0  0  0
  -28.6790  -20.5630   18.8210 C   0  0  0  0  0  2  0  0  0  0  0  0
  -27.8480  -19.2630   20.8180 C   0  0  0  0  0  1  0  0  0  0  0  0
  -28.6570  -19.2490   19.5650 N   0  0  2  0  0  4  0  0  0  0  0  0
  -28.1030  -18.6560   18.9560 H   0  0  0  0  0  0  0  0  0  0  0  0
  -29.9760  -18.5130   19.6780 C   0  0  0  0  0  2  0  0  0  0  0  0
  -29.9510  -16.9400   19.3780 C   0  0  0  0  0  2  0  0  0  0  0  0
  -29.8830  -15.8160   21.6570 C   0  0  0  0  0  1  0  0  0  0  0  0
  -32.0610  -16.5260   20.7920 C   0  0  0  0  0  1  0  0  0  0  0  0
  -30.6970  -15.9050   20.3520 C   0  0  2  0  0  0  0  0  0  0  0  0
  -31.0590  -14.4990   19.6500 C   0  0  0  0  0  0  0  0  0  0  0  0
  -30.5990  -12.2710   18.6180 C   0  0  0  0  0  2  0  0  0  0  0  0
  -29.5750  -12.4020   17.4650 C   0  0  0  0  0  2  0  0  0  0  0  0
  -28.1320  -12.3200   18.0080 C   0  0  0  0  0  2  0  0  0  0  0  0
  -27.9200  -13.2500   19.2360 C   0  0  0  0  0  3  0  0  0  0  0  0
  -29.0390  -13.0030   20.2700 C   0  0  0  0  0  2  0  0  0  0  0  0
  -30.3170  -13.3310   19.6240 N   0  0  0  0  0  0  0  0  0  0  0  0
  -32.1170  -14.5050   19.0080 O   0  0  0  0  0  0  0  0  0  0  0  0
  -25.6230  -14.0240   20.0960 C   0  0  0  0  0  0  0  0  0  0  0  0
  -24.5340  -13.3310   20.5340 C   0  0  0  0  0  0  0  0  0  0  0  0
  -24.8980  -11.9450   20.4850 C   0  0  0  0  0  0  0  0  0  0  0  0
  -26.5890  -13.0730   19.8070 N   0  0  0  0  0  0  0  0  0  0  0  0
  -26.1610  -11.8190   20.0970 N   0  0  0  0  0  0  0  0  0  0  0  0
  -24.1080  -10.7370   20.7390 C   0  0  0  0  0  0  0  0  0  0  0  0
  -24.5030   -9.7680   21.6870 C   0  0  0  0  0  3  0  0  0  0  0  0
  -23.7110   -8.6230   21.9140 C   0  0  0  0  0  3  0  0  0  0  0  0
  -22.5040   -8.4470   21.2010 C   0  0  0  0  0  0  0  0  0  0  0  0
  -22.1230   -9.4000   20.2430 C   0  0  0  0  0  3  0  0  0  0  0  0
  -22.9160  -10.5350   20.0130 C   0  0  0  0  0  3  0  0  0  0  0  0
  -21.6730   -7.3620   21.3390 O   0  0  0  0  0  0  0  0  0  0  0  0
  -21.5830   -6.6830   22.5240 C   0  0  0  0  0  0  0  0  0  0  0  0
  -21.2070   -7.3230   23.7240 C   0  0  0  0  0  3  0  0  0  0  0  0
  -21.0690   -6.5730   24.9100 C   0  0  0  0  0  3  0  0  0  0  0  0
  -21.2910   -5.1810   24.8920 C   0  0  0  0  0  0  0  0  0  0  0  0
  -21.6560   -4.5420   23.6940 C   0  0  0  0  0  3  0  0  0  0  0  0
  -21.8010   -5.2930   22.5150 C   0  0  0  0  0  0  0  0  0  0  0  0
  -22.1340   -4.6700   21.3590 F   0  0  0  0  0  0  0  0  0  0  0  0
  -21.1470   -4.4570   26.0260 F   0  0  0  0  0  0  0  0  0  0  0  0
  -23.1930  -13.8960   20.9090 C   0  0  0  0  0  0  0  0  0  0  0  0
  -22.4960  -13.2580   21.8410 N   0  0  0  0  0  0  0  0  0  0  0  0
  -22.7780  -14.9420   20.4020 O   0  0  0  0  0  0  0  0  0  0  0  0
  -22.8440  -12.4130   22.2760 H   0  0  0  0  0  0  0  0  0  0  0  0
  -21.5980  -13.6210   22.1300 H   0  0  0  0  0  0  0  0  0  0  0  0
  -25.8880  -15.3820   19.9170 N   0  0  0  0  0  0  0  0  0  0  0  0
  -25.2230  -16.1150   20.1310 H   0  0  0  0  0  0  0  0  0  0  0  0
  -26.8280  -15.7140   19.7540 H   0  0  0  0  0  0  0  0  0  0  0  0
  -28.6620  -25.5300   19.1720 C   0  0  0  0  0  2  0  0  0  0  0  0
  -28.3300  -26.5010   20.1990 O   0  0  0  0  0  0  0  0  0  0  0  0
  -24.4540  -31.7050   23.1710 C   0  0  0  0  0  0  0  0  0  0  0  0
  -27.1640  -27.2720   20.0920 C   0  0  0  0  0  0  0  0  0  0  0  0
  -23.2730  -30.3150   21.5000 C   0  0  0  0  0  3  0  0  0  0  0  0
  -24.7520  -28.8060   20.0720 C   0  0  0  0  0  0  0  0  0  0  0  0
  -25.8030  -30.6860   21.3270 C   0  0  0  0  0  2  0  0  0  0  0  0
  -25.9060  -29.3190   20.6790 C   0  0  0  0  0  0  0  0  0  0  0  0
  -27.1100  -28.5610   20.6830 C   0  0  0  0  0  3  0  0  0  0  0  0
  -25.9810  -26.7860   19.4840 C   0  0  0  0  0  3  0  0  0  0  0  0
  -24.7870  -27.5390   19.4690 C   0  0  0  0  0  3  0  0  0  0  0  0
  -23.5050  -29.6680   20.1120 C   0  0  0  0  0  2  0  0  0  0  0  0
  -24.5280  -30.9110   22.0650 N   0  0  0  0  0  0  0  0  0  0  0  0
  -23.3660  -31.9780   23.6950 O   0  0  0  0  0  0  0  0  0  0  0  0
  -22.6200  -29.2780   22.4460 C   0  0  0  0  0  0  0  0  0  0  0  0
  -21.2960  -29.0990   22.3130 N   0  0  0  0  0  0  0  0  0  0  0  0
  -23.3020  -28.6470   23.2580 O   0  0  0  0  0  0  0  0  0  0  0  0
  -20.8200  -29.6450   21.6110 H   0  0  0  0  0  0  0  0  0  0  0  0
  -17.9100  -27.8970   22.7850 C   0  0  0  0  0  0  0  0  0  0  0  0
  -20.4750  -28.1540   23.0700 C   0  0  0  0  0  3  0  0  0  0  0  0
  -20.5760  -26.7300   22.4770 C   0  0  0  0  0  2  0  0  0  0  0  0
  -19.4760  -26.4270   21.4490 C   0  0  0  0  0  2  0  0  0  0  0  0
  -18.0930  -26.5560   22.0930 C   0  0  0  0  0  2  0  0  0  0  0  0
  -19.0350  -28.6490   23.2320 C   0  0  0  0  0  0  0  0  0  0  0  0
  -18.8260  -29.9050   23.8450 C   0  0  0  0  0  3  0  0  0  0  0  0
  -17.5240  -30.4020   24.0310 C   0  0  0  0  0  3  0  0  0  0  0  0
  -16.4160  -29.6500   23.6040 C   0  0  0  0  0  3  0  0  0  0  0  0
  -16.6090  -28.4040   22.9840 C   0  0  0  0  0  3  0  0  0  0  0  0
  -25.7300  -32.3410   23.8050 C   0  0  0  0  0  3  0  0  0  0  0  0
  -25.4110  -33.7370   24.1420 N   0  0  0  0  0  0  0  0  0  0  0  0
  -25.7300  -34.8030   23.3950 C   0  0  0  0  0  0  0  0  0  0  0  0
  -26.4080  -34.7160   22.3680 O   0  0  0  0  0  0  0  0  0  0  0  0
  -24.8270  -33.8870   24.9520 H   0  0  0  0  0  0  0  0  0  0  0  0
  -23.9920  -36.5850   23.0420 C   0  0  0  0  0  1  0  0  0  0  0  0
  -25.2250  -36.1790   23.8620 C   0  0  0  0  0  3  0  0  0  0  0  0
  -27.3360  -37.0820   24.7250 C   0  0  0  0  0  1  0  0  0  0  0  0
  -26.2420  -37.2480   23.7750 N   0  0  0  0  0  0  0  0  0  0  0  0
  -25.8170  -38.1580   23.9350 H   0  0  0  0  0  0  0  0  0  0  0  0
  -26.2500  -31.5610   25.0780 C   0  0  1  0  0  0  0  0  0  0  0  0
  -25.1460  -31.3020   26.1310 C   0  0  0  0  0  1  0  0  0  0  0  0
  -26.8530  -30.1940   24.6750 C   0  0  0  0  0  1  0  0  0  0  0  0
  -27.3870  -32.3680   25.7580 C   0  0  0  0  0  1  0  0  0  0  0  0
  1  4  1  0
  1  6  1  0
  2  8  1  0
  2  1  1  0
  2  7  1  0
  3 53  1  0
  3  7  1  0
  3  6  1  0
  7  5  1  0
  8 10  1  0
 10 12  1  0
 10  9  1  0
 10 11  1  6
 13 12  1  0
 13 16  1  0
 16 15  1  1
 16 14  1  0
 17 16  1  0
 18 23  1  0
 19 20  1  0
 19 18  1  0
 21 20  1  0
 21 28  1  0
 21 22  1  0
 23 17  1  0
 23 22  1  0
 24 17  2  0
 25 26  2  0
 26 45  1  0
 27 26  1  0
 27 30  1  0
 28 25  1  0
 28 29  1  0
 29 27  2  0
 30 31  1  0
 31 32  2  0
 33 36  1  0
 33 32  1  0
 34 33  2  0
 35 34  1  0
 35 30  2  0
 36 37  1  0
 37 38  1  0
 38 39  2  0
 40 39  1  0
 40 44  1  0
 41 40  2  0
 42 37  2  0
 42 41  1  0
 43 42  1  0
 45 46  1  0
 46 49  1  0
 46 48  1  0
 47 45  2  0
 50 25  1  0
 50 51  1  0
 52 50  1  0
 53 54  1  0
 55 66  2  0
 56 54  1  0
 56 61  1  0
 57 65  1  0
 57 67  1  0
 58 64  1  0
 58 60  1  0
 59 65  1  0
 60 61  2  0
 60 59  1  0
 62 56  2  0
 63 62  1  0
 63 58  2  0
 64 57  1  0
 65 55  1  0
 67 69  2  0
 68 67  1  0
 70 68  1  0
 71 80  2  0
 71 76  1  0
 72 68  1  0
 72 76  1  0
 73 72  1  0
 74 75  1  0
 74 73  1  0
 75 71  1  0
 76 77  2  0
 77 78  1  0
 79 78  2  0
 80 79  1  0
 81 55  1  0
 81 82  1  0
 81 91  1  0
 82 85  1  0
 83 87  1  0
 83 82  1  0
 84 83  2  0
 87 86  1  0
 89 87  1  0
 89 90  1  0
 89 88  1  0
 91 94  1  1
 91 92  1  0
 93 91  1  0
M  ISO  4  16 100  17 100  53 101  54 101
M  END
>  <TORSDO>  (5) 
F 22

>  <SCORE>  (5) 
-11.829

>  <name>  (5) 
5

>  <ligand_id>  (5) 
5

>  <original_smiles>  (5) 
[H]c1c([H])c([H])c2c(c1[H])C([H])([H])C([H])([H])C([H])([H])C2([H])N([H])C(=O)C1([H])N(C(=O)C([H])(N([H])C(=O)C([H])(N([H])C([H])([H])[H])C([H])([H])[H])C(C([H])([H])[H])(C([H])([H])[H])C([H])([H])[H])C([H])([H])c2c([H])c(OC([H])([H])c3nc(C([H])([H])[H])c(C([H])([H])[N+]([H])(C([H])([H])[H])C([H])([H])C([H])([H])C(C(=O)N4C([H])([H])C([H])([H])C([H])([H])C([H])(n5nc(-c6c([H])c([H])c(Oc7c([H])c([H])c(F)c([H])c7F)c([H])c6[H])c(C(=O)N([H])[H])c5N([H])[H])C4([H])[H])(C([H])([H])[H])C([H])([H])[H])n3C([H])([H])[H])c([H])c([H])c2C1([H])[H]

>  <smiles>  (5) 
[H]c1c([H])c([H])c2c(c1[H])C([H])([H])C([H])([H])C([H])([H])C2([H])N([H])C(=O)C1([H])N(C(=O)C([H])(N([H])C(=O)C([H])(N([H])C([H])([H])[H])C([H])([H])[H])C(C([H])([H])[H])(C([H])([H])[H])C([H])([H])[H])C([H])([H])c2c([H])c(OC([H])([H])c3nc(C([H])([H])[H])c(C([H])([H])[N+]([H])(C([H])([H])[H])C([H])([H])C([H])([H])C(C(=O)N4C([H])([H])C([H])([H])C([H])([H])C([H])(n5nc(-c6c([H])c([H])c(Oc7c([H])c([H])c(F)c([H])c7F)c([H])c6[H])c(C(=O)N([H])[H])c5N([H])[H])C4([H])[H])(C([H])([H])[H])C([H])([H])[H])n3C([H])([H])[H])c([H])c([H])c2C1([H])[H]

$$$$
6:0:0
     RDKit          3D

 92100  0  0  1  0  0  0  0  0999 V2000
  -29.5260  -23.9530   19.8560 C   0  0  0  0  0  3  0  0  0  0  0  0
  -30.0320  -22.6330   19.8010 C   0  0  0  0  0  3  0  0  0  0  0  0
  -29.2990  -23.6650   22.2340 C   0  0  0  0  0  3  0  0  0  0  0  0
  -29.1610  -24.4980   21.1050 C   0  0  0  0  0  0  0  0  0  0  0  0
  -30.1540  -21.8820   20.9900 C   0  0  0  0  0  0  0  0  0  0  0  0
  -29.7710  -22.3960   22.1830 N   0  0  0  0  0  0  0  0  0  0  0  0
  -28.6760  -25.9460   21.2940 C   0  0  0  0  0  2  0  0  0  0  0  0
  -28.3400  -26.6330   20.0830 O   0  0  0  0  0  0  0  0  0  0  0  0
  -24.5540  -31.8570   23.2070 C   0  0  0  0  0  0  0  0  0  0  0  0
  -27.1990  -27.4020   20.1400 C   0  0  0  0  0  0  0  0  0  0  0  0
  -23.3440  -30.4460   21.5730 C   0  0  0  0  0  3  0  0  0  0  0  0
  -24.8000  -28.9010   20.1540 C   0  0  0  0  0  0  0  0  0  0  0  0
  -25.8680  -30.8030   21.3690 C   0  0  0  0  0  2  0  0  0  0  0  0
  -25.9570  -29.4250   20.7460 C   0  0  0  0  0  0  0  0  0  0  0  0
  -27.1610  -28.6790   20.7490 C   0  0  0  0  0  3  0  0  0  0  0  0
  -26.0310  -26.8920   19.5420 C   0  0  0  0  0  3  0  0  0  0  0  0
  -24.8310  -27.6290   19.5520 C   0  0  0  0  0  3  0  0  0  0  0  0
  -23.5530  -29.7580   20.1960 C   0  0  0  0  0  2  0  0  0  0  0  0
  -24.6060  -31.0520   22.1080 N   0  0  0  0  0  0  0  0  0  0  0  0
  -23.4740  -32.1330   23.7490 O   0  0  0  0  0  0  0  0  0  0  0  0
  -22.6950  -29.4280   22.5400 C   0  0  0  0  0  0  0  0  0  0  0  0
  -21.3720  -29.2420   22.4170 N   0  0  0  0  0  0  0  0  0  0  0  0
  -23.3820  -28.8090   23.3570 O   0  0  0  0  0  0  0  0  0  0  0  0
  -20.8750  -29.7970   21.7350 H   0  0  0  0  0  0  0  0  0  0  0  0
  -18.0070  -28.0210   22.9040 C   0  0  0  0  0  0  0  0  0  0  0  0
  -20.5600  -28.3040   23.1920 C   0  0  0  0  0  3  0  0  0  0  0  0
  -20.6790  -26.8680   22.6310 C   0  0  0  0  0  2  0  0  0  0  0  0
  -19.5880  -26.5250   21.6110 C   0  0  0  0  0  2  0  0  0  0  0  0
  -18.2010  -26.6660   22.2440 C   0  0  0  0  0  2  0  0  0  0  0  0
  -19.1150  -28.7970   23.3340 C   0  0  0  0  0  0  0  0  0  0  0  0
  -18.8810  -30.0660   23.9060 C   0  0  0  0  0  3  0  0  0  0  0  0
  -17.5710  -30.5590   24.0540 C   0  0  0  0  0  3  0  0  0  0  0  0
  -16.4760  -29.7790   23.6410 C   0  0  0  0  0  3  0  0  0  0  0  0
  -16.6960  -28.5120   23.0730 C   0  0  0  0  0  3  0  0  0  0  0  0
  -25.8410  -32.4900   23.8210 C   0  0  0  0  0  3  0  0  0  0  0  0
  -25.5340  -33.8870   24.1490 N   0  0  0  0  0  0  0  0  0  0  0  0
  -25.8550  -34.9370   23.3810 C   0  0  0  0  0  0  0  0  0  0  0  0
  -26.5120  -34.8300   22.3420 O   0  0  0  0  0  0  0  0  0  0  0  0
  -24.9500  -34.0460   24.9580 H   0  0  0  0  0  0  0  0  0  0  0  0
  -24.1140  -36.7200   23.0420 C   0  0  0  0  0  1  0  0  0  0  0  0
  -25.3690  -36.3260   23.8390 C   0  0  0  0  0  3  0  0  0  0  0  0
  -27.5150  -37.2210   24.6290 C   0  0  0  0  0  1  0  0  0  0  0  0
  -26.3950  -37.3830   23.7040 N   0  0  0  0  0  0  0  0  0  0  0  0
  -25.9880  -38.3010   23.8560 H   0  0  0  0  0  0  0  0  0  0  0  0
  -26.3690  -31.7200   25.0920 C   0  0  1  0  0  0  0  0  0  0  0  0
  -25.2850  -31.4810   26.1690 C   0  0  0  0  0  1  0  0  0  0  0  0
  -26.9510  -30.3430   24.6930 C   0  0  0  0  0  1  0  0  0  0  0  0
  -27.5220  -32.5140   25.7460 C   0  0  0  0  0  1  0  0  0  0  0  0
  -30.8230  -20.4900   21.0240 C   0  0  0  0  0  2  0  0  0  0  0  0
  -28.6050  -19.4080   20.7130 C   0  0  0  0  0  1  0  0  0  0  0  0
  -30.0640  -19.3340   20.4390 N   0  0  2  0  0  4  0  0  0  0  0  0
  -30.1730  -19.4280   19.4410 H   0  0  0  0  0  0  0  0  0  0  0  0
  -30.6700  -18.0190   20.8510 C   0  0  0  0  0  3  0  0  0  0  0  0
  -30.0730  -16.7300   20.1850 C   0  0  0  0  0  3  0  0  0  0  0  0
  -31.0870  -14.4450   20.0110 C   0  0  0  0  0  0  0  0  0  0  0  0
  -30.6400  -12.2940   18.8680 C   0  0  0  0  0  2  0  0  0  0  0  0
  -29.6570  -12.5100   17.6980 C   0  0  0  0  0  2  0  0  0  0  0  0
  -28.1960  -12.4450   18.1850 C   0  0  0  0  0  2  0  0  0  0  0  0
  -27.9480  -13.3170   19.4410 C   0  0  0  0  0  3  0  0  0  0  0  0
  -29.0280  -13.0520   20.5100 C   0  0  0  0  0  2  0  0  0  0  0  0
  -30.3510  -13.2990   19.9040 N   0  0  0  0  0  0  0  0  0  0  0  0
  -32.1200  -14.6410   19.3630 O   0  0  0  0  0  0  0  0  0  0  0  0
  -30.6170  -15.3560   22.2170 C   0  0  0  0  0  1  0  0  0  0  0  0
  -30.5350  -15.4370   20.7570 N   0  0  0  0  0  0  0  0  0  0  0  0
  -25.6120  -14.0540   20.2390 C   0  0  0  0  0  0  0  0  0  0  0  0
  -24.5210  -13.3400   20.6570 C   0  0  0  0  0  0  0  0  0  0  0  0
  -24.9090  -11.9650   20.6160 C   0  0  0  0  0  0  0  0  0  0  0  0
  -26.6000  -13.1180   19.9740 N   0  0  0  0  0  0  0  0  0  0  0  0
  -26.1810  -11.8570   20.2570 N   0  0  0  0  0  0  0  0  0  0  0  0
  -24.1270  -10.7430   20.8460 C   0  0  0  0  0  0  0  0  0  0  0  0
  -24.5380   -9.7670   21.7790 C   0  0  0  0  0  3  0  0  0  0  0  0
  -23.7590   -8.6110   21.9950 C   0  0  0  0  0  3  0  0  0  0  0  0
  -22.5550   -8.4220   21.2760 C   0  0  0  0  0  0  0  0  0  0  0  0
  -22.1610   -9.3860   20.3320 C   0  0  0  0  0  3  0  0  0  0  0  0
  -22.9400  -10.5350   20.1150 C   0  0  0  0  0  3  0  0  0  0  0  0
  -21.7490   -7.3150   21.3990 O   0  0  0  0  0  0  0  0  0  0  0  0
  -21.6840   -6.6000   22.5680 C   0  0  0  0  0  0  0  0  0  0  0  0
  -21.3250   -7.2050   23.7930 C   0  0  0  0  0  3  0  0  0  0  0  0
  -21.2030   -6.4200   24.9550 C   0  0  0  0  0  3  0  0  0  0  0  0
  -21.4280   -5.0310   24.8960 C   0  0  0  0  0  0  0  0  0  0  0  0
  -21.7780   -4.4270   23.6750 C   0  0  0  0  0  3  0  0  0  0  0  0
  -21.9020   -5.2090   22.5140 C   0  0  0  0  0  0  0  0  0  0  0  0
  -22.2190   -4.6180   21.3370 F   0  0  0  0  0  0  0  0  0  0  0  0
  -21.3020   -4.2740   26.0110 F   0  0  0  0  0  0  0  0  0  0  0  0
  -23.1620  -13.8900   20.9840 C   0  0  0  0  0  0  0  0  0  0  0  0
  -22.4410  -13.2430   21.8940 N   0  0  0  0  0  0  0  0  0  0  0  0
  -22.7500  -14.9290   20.4670 O   0  0  0  0  0  0  0  0  0  0  0  0
  -22.7870  -12.4020   22.3300 H   0  0  0  0  0  0  0  0  0  0  0  0
  -21.5320  -13.5960   22.1580 H   0  0  0  0  0  0  0  0  0  0  0  0
  -25.8450  -15.4120   20.0440 N   0  0  0  0  0  0  0  0  0  0  0  0
  -25.1230  -16.1130   20.1800 H   0  0  0  0  0  0  0  0  0  0  0  0
  -26.7010  -15.7940   19.6670 H   0  0  0  0  0  0  0  0  0  0  0  0
  1  4  1  0
  2  1  2  0
  2  5  1  0
  4  7  1  0
  4  3  2  0
  5 49  1  0
  5  6  2  0
  6  3  1  0
  8 10  1  0
  8  7  1  0
  9 20  2  0
 10 15  1  0
 11 19  1  0
 11 21  1  0
 12 18  1  0
 12 14  1  0
 13 19  1  0
 14 15  2  0
 14 13  1  0
 16 17  1  0
 16 10  2  0
 17 12  2  0
 18 11  1  0
 19  9  1  0
 21 23  2  0
 22 21  1  0
 24 22  1  0
 25 34  2  0
 25 30  1  0
 26 22  1  0
 26 30  1  0
 27 26  1  0
 28 29  1  0
 28 27  1  0
 29 25  1  0
 30 31  2  0
 31 32  1  0
 33 32  2  0
 34 33  1  0
 35  9  1  0
 35 36  1  0
 35 45  1  0
 36 39  1  0
 37 41  1  0
 37 36  1  0
 38 37  2  0
 41 40  1  0
 43 41  1  0
 43 44  1  0
 43 42  1  0
 45 48  1  1
 45 46  1  0
 47 45  1  0
 51 50  1  0
 51 53  1  0
 51 49  1  0
 51 52  1  6
 54 64  1  0
 54 53  2  0
 55 64  1  0
 56 61  1  0
 57 58  1  0
 57 56  1  0
 59 58  1  0
 59 68  1  0
 59 60  1  0
 61 55  1  0
 61 60  1  0
 62 55  2  0
 64 63  1  0
 65 66  2  0
 66 85  1  0
 67 66  1  0
 67 70  1  0
 68 65  1  0
 68 69  1  0
 69 67  2  0
 70 71  1  0
 71 72  2  0
 73 76  1  0
 73 72  1  0
 74 73  2  0
 75 74  1  0
 75 70  2  0
 76 77  1  0
 77 78  1  0
 78 79  2  0
 80 79  1  0
 80 84  1  0
 81 80  2  0
 82 77  2  0
 82 81  1  0
 83 82  1  0
 85 86  1  0
 86 89  1  0
 86 88  1  0
 87 85  2  0
 90 91  1  0
 90 65  1  0
 92 90  1  0
M  ISO  4   7 101   8 101  55 100  64 100
M  END
>  <TORSDO>  (6) 
F 21

>  <SCORE>  (6) 
-12.764

>  <name>  (6) 
6

>  <ligand_id>  (6) 
6

>  <original_smiles>  (6) 
[H]c1nc(C([H])([H])[N+]([H])(C([H])([H])[H])C([H])([H])C([H])([H])N(C(=O)N2C([H])([H])C([H])([H])C([H])([H])C([H])(n3nc(-c4c([H])c([H])c(Oc5c([H])c([H])c(F)c([H])c5F)c([H])c4[H])c(C(=O)N([H])[H])c3N([H])[H])C2([H])[H])C([H])([H])[H])c([H])c([H])c1C([H])([H])Oc1c([H])c([H])c2c(c1[H])C([H])([H])N(C(=O)C([H])(N([H])C(=O)C([H])(N([H])C([H])([H])[H])C([H])([H])[H])C(C([H])([H])[H])(C([H])([H])[H])C([H])([H])[H])C([H])(C(=O)N([H])C1([H])c3c([H])c([H])c([H])c([H])c3C([H])([H])C([H])([H])C1([H])[H])C2([H])[H]

>  <smiles>  (6) 
[H]c1nc(C([H])([H])[N+]([H])(C([H])([H])[H])C([H])([H])C([H])([H])N(C(=O)N2C([H])([H])C([H])([H])C([H])([H])C([H])(n3nc(-c4c([H])c([H])c(Oc5c([H])c([H])c(F)c([H])c5F)c([H])c4[H])c(C(=O)N([H])[H])c3N([H])[H])C2([H])[H])C([H])([H])[H])c([H])c([H])c1C([H])([H])Oc1c([H])c([H])c2c(c1[H])C([H])([H])N(C(=O)C([H])(N([H])C(=O)C([H])(N([H])C([H])([H])[H])C([H])([H])[H])C(C([H])([H])[H])(C([H])([H])[H])C([H])([H])[H])C([H])(C(=O)N([H])C1([H])c3c([H])c([H])c([H])c([H])c3C([H])([H])C([H])([H])C1([H])[H])C2([H])[H]

$$$$
7:0:0
     RDKit          3D

 89 97  0  0  1  0  0  0  0  0999 V2000
  -28.8290  -19.6070   19.9670 C   0  0  0  0  0  3  0  0  0  0  0  0
  -29.2840  -20.8750   20.5200 C   0  0  0  0  0  0  0  0  0  0  0  0
  -29.8290  -18.6490   20.1270 C   0  0  0  0  0  0  0  0  0  0  0  0
  -32.1570  -18.9130   21.1300 C   0  0  0  0  0  1  0  0  0  0  0  0
  -30.4970  -20.6740   21.0250 N   0  0  0  0  0  0  0  0  0  0  0  0
  -30.8310  -19.3700   20.7660 N   0  0  0  0  0  0  0  0  0  0  0  0
  -28.5100  -22.2350   20.7680 C   0  0  0  0  0  2  0  0  0  0  0  0
  -29.0550  -23.7010   20.3550 C   0  0  0  0  0  3  0  0  0  0  0  0
  -28.0930  -24.9500   20.7150 C   0  0  0  0  0  3  0  0  0  0  0  0
  -28.3860  -26.3870   20.3780 O   0  0  0  0  0  0  0  0  0  0  0  0
  -24.6290  -31.8880   23.2790 C   0  0  0  0  0  0  0  0  0  0  0  0
  -27.2900  -27.2780   20.3150 C   0  0  0  0  0  0  0  0  0  0  0  0
  -23.4510  -30.4600   21.6470 C   0  0  0  0  0  3  0  0  0  0  0  0
  -24.9260  -28.9050   20.2510 C   0  0  0  0  0  0  0  0  0  0  0  0
  -25.9940  -30.7860   21.4880 C   0  0  0  0  0  2  0  0  0  0  0  0
  -26.0890  -29.3980   20.8590 C   0  0  0  0  0  0  0  0  0  0  0  0
  -27.2750  -28.5970   20.8790 C   0  0  0  0  0  3  0  0  0  0  0  0
  -26.1110  -26.8630   19.6570 C   0  0  0  0  0  3  0  0  0  0  0  0
  -24.9410  -27.6450   19.6380 C   0  0  0  0  0  3  0  0  0  0  0  0
  -23.6830  -29.7730   20.2770 C   0  0  0  0  0  2  0  0  0  0  0  0
  -24.7090  -31.0640   22.1930 N   0  0  0  0  0  0  0  0  0  0  0  0
  -23.5370  -32.1640   23.7990 O   0  0  0  0  0  0  0  0  0  0  0  0
  -22.7860  -29.4500   22.6120 C   0  0  0  0  0  0  0  0  0  0  0  0
  -21.4600  -29.2660   22.4790 N   0  0  0  0  0  0  0  0  0  0  0  0
  -23.4600  -28.8360   23.4420 O   0  0  0  0  0  0  0  0  0  0  0  0
  -20.9740  -29.8120   21.7820 H   0  0  0  0  0  0  0  0  0  0  0  0
  -18.0840  -28.0620   22.9720 C   0  0  0  0  0  0  0  0  0  0  0  0
  -20.6400  -28.3330   23.2530 C   0  0  0  0  0  3  0  0  0  0  0  0
  -20.7500  -26.8950   22.6930 C   0  0  0  0  0  2  0  0  0  0  0  0
  -19.6550  -26.5600   21.6760 C   0  0  0  0  0  2  0  0  0  0  0  0
  -18.2690  -26.7060   22.3110 C   0  0  0  0  0  2  0  0  0  0  0  0
  -19.1970  -28.8330   23.4000 C   0  0  0  0  0  0  0  0  0  0  0  0
  -18.9700  -30.1010   23.9770 C   0  0  0  0  0  3  0  0  0  0  0  0
  -17.6620  -30.5980   24.1310 C   0  0  0  0  0  3  0  0  0  0  0  0
  -16.5630  -29.8250   23.7190 C   0  0  0  0  0  3  0  0  0  0  0  0
  -16.7750  -28.5580   23.1450 C   0  0  0  0  0  3  0  0  0  0  0  0
  -25.8990  -32.5390   23.9060 C   0  0  0  0  0  3  0  0  0  0  0  0
  -26.4090  -31.7880   25.1970 C   0  0  1  0  0  0  0  0  0  0  0  0
  -25.3070  -31.5540   26.2570 C   0  0  0  0  0  1  0  0  0  0  0  0
  -27.0080  -30.4100   24.8300 C   0  0  0  0  0  1  0  0  0  0  0  0
  -27.5450  -32.6020   25.8590 C   0  0  0  0  0  1  0  0  0  0  0  0
  -25.5740  -33.9380   24.2170 N   0  0  0  0  0  0  0  0  0  0  0  0
  -25.9090  -34.9860   23.4520 C   0  0  0  0  0  0  0  0  0  0  0  0
  -26.5900  -34.8770   22.4290 O   0  0  0  0  0  0  0  0  0  0  0  0
  -24.9710  -34.0970   25.0120 H   0  0  0  0  0  0  0  0  0  0  0  0
  -24.1750  -36.7670   23.0550 C   0  0  0  0  0  1  0  0  0  0  0  0
  -25.4060  -36.3760   23.8900 C   0  0  0  0  0  3  0  0  0  0  0  0
  -27.5240  -37.2800   24.7440 C   0  0  0  0  0  1  0  0  0  0  0  0
  -26.4340  -37.4340   23.7830 N   0  0  0  0  0  0  0  0  0  0  0  0
  -26.0210  -38.3530   23.9190 H   0  0  0  0  0  0  0  0  0  0  0  0
  -30.0300  -17.1780   19.5750 C   0  0  0  0  0  2  0  0  0  0  0  0
  -30.6570  -14.7280   20.0540 C   0  0  0  0  0  0  0  0  0  0  0  0
  -30.3200  -12.5160   18.9350 C   0  0  0  0  0  2  0  0  0  0  0  0
  -29.3130  -12.6640   17.7740 C   0  0  0  0  0  2  0  0  0  0  0  0
  -27.8680  -12.4930   18.2840 C   0  0  0  0  0  2  0  0  0  0  0  0
  -27.5880  -13.3250   19.5650 C   0  0  0  0  0  3  0  0  0  0  0  0
  -28.7090  -13.1490   20.6080 C   0  0  0  0  0  2  0  0  0  0  0  0
  -29.9760  -13.5280   19.9650 N   0  0  0  0  0  0  0  0  0  0  0  0
  -31.7800  -14.8120   19.5450 O   0  0  0  0  0  0  0  0  0  0  0  0
  -29.5380  -16.0940   21.7910 C   0  0  0  0  0  1  0  0  0  0  0  0
  -29.9760  -15.8950   20.4070 N   0  0  0  0  0  0  0  0  0  0  0  0
  -25.2510  -13.9090   20.4430 C   0  0  0  0  0  0  0  0  0  0  0  0
  -24.2040  -13.1320   20.8590 C   0  0  0  0  0  0  0  0  0  0  0  0
  -24.6570  -11.7800   20.7720 C   0  0  0  0  0  0  0  0  0  0  0  0
  -26.2730  -13.0310   20.1250 N   0  0  0  0  0  0  0  0  0  0  0  0
  -25.9270  -11.7450   20.3860 N   0  0  0  0  0  0  0  0  0  0  0  0
  -23.9360  -10.5170   20.9790 C   0  0  0  0  0  0  0  0  0  0  0  0
  -24.4030   -9.5380   21.8830 C   0  0  0  0  0  3  0  0  0  0  0  0
  -23.6820   -8.3410   22.0790 C   0  0  0  0  0  3  0  0  0  0  0  0
  -22.4800   -8.1120   21.3700 C   0  0  0  0  0  0  0  0  0  0  0  0
  -22.0310   -9.0790   20.4530 C   0  0  0  0  0  3  0  0  0  0  0  0
  -22.7520  -10.2690   20.2560 C   0  0  0  0  0  3  0  0  0  0  0  0
  -21.7260   -6.9690   21.4760 O   0  0  0  0  0  0  0  0  0  0  0  0
  -21.7030   -6.2270   22.6300 C   0  0  0  0  0  0  0  0  0  0  0  0
  -21.3050   -6.7810   23.8660 C   0  0  0  0  0  3  0  0  0  0  0  0
  -21.2320   -5.9650   25.0120 C   0  0  0  0  0  3  0  0  0  0  0  0
  -21.5430   -4.5960   24.9230 C   0  0  0  0  0  0  0  0  0  0  0  0
  -21.9340   -4.0400   23.6920 C   0  0  0  0  0  3  0  0  0  0  0  0
  -22.0110   -4.8540   22.5480 C   0  0  0  0  0  0  0  0  0  0  0  0
  -22.3670   -4.3100   21.3590 F   0  0  0  0  0  0  0  0  0  0  0  0
  -21.4630   -3.8090   26.0220 F   0  0  0  0  0  0  0  0  0  0  0  0
  -22.8280  -13.6100   21.2220 C   0  0  0  0  0  0  0  0  0  0  0  0
  -22.1480  -12.9000   22.1160 N   0  0  0  0  0  0  0  0  0  0  0  0
  -22.3660  -14.6470   20.7480 O   0  0  0  0  0  0  0  0  0  0  0  0
  -22.5340  -12.0610   22.5220 H   0  0  0  0  0  0  0  0  0  0  0  0
  -21.2250  -13.2010   22.3990 H   0  0  0  0  0  0  0  0  0  0  0  0
  -25.4140  -15.2830   20.2860 N   0  0  0  0  0  0  0  0  0  0  0  0
  -24.6640  -15.9400   20.4670 H   0  0  0  0  0  0  0  0  0  0  0  0
  -26.2560  -15.7250   19.9410 H   0  0  0  0  0  0  0  0  0  0  0  0
  1  3  2  0
  1  2  1  0
  2  7  1  0
  2  5  2  0
  3  6  1  0
  6  5  1  0
  6  4  1  0
  8  9  2  0
  8  7  1  0
 10  9  1  0
 11 22  2  0
 12 10  1  0
 12 17  1  0
 13 21  1  0
 13 23  1  0
 14 20  1  0
 14 16  1  0
 15 21  1  0
 16 17  2  0
 16 15  1  0
 18 12  2  0
 19 18  1  0
 19 14  2  0
 20 13  1  0
 21 11  1  0
 23 25  2  0
 24 23  1  0
 26 24  1  0
 27 36  2  0
 27 32  1  0
 28 24  1  0
 28 32  1  0
 29 28  1  0
 30 31  1  0
 30 29  1  0
 31 27  1  0
 32 33  2  0
 33 34  1  0
 35 34  2  0
 36 35  1  0
 37 11  1  0
 37 42  1  0
 37 38  1  0
 38 41  1  1
 38 39  1  0
 40 38  1  0
 42 45  1  0
 43 47  1  0
 43 42  1  0
 44 43  2  0
 47 46  1  0
 49 47  1  0
 49 50  1  0
 49 48  1  0
 51  3  1  0
 51 61  1  0
 52 61  1  0
 53 58  1  0
 54 55  1  0
 54 53  1  0
 56 55  1  0
 56 65  1  0
 56 57  1  0
 58 52  1  0
 58 57  1  0
 59 52  2  0
 61 60  1  0
 62 63  2  0
 63 82  1  0
 64 63  1  0
 64 67  1  0
 65 66  1  0
 65 62  1  0
 66 64  2  0
 67 68  1  0
 68 69  2  0
 70 73  1  0
 70 69  1  0
 71 70  2  0
 72 71  1  0
 72 67  2  0
 73 74  1  0
 74 75  1  0
 75 76  2  0
 77 76  1  0
 77 81  1  0
 78 77  2  0
 79 74  2  0
 79 78  1  0
 80 79  1  0
 82 83  1  0
 83 86  1  0
 83 85  1  0
 84 82  2  0
 87 62  1  0
 87 88  1  0
 89 87  1  0
M  ISO  4   9 101  10 101  52 100  61 100
M  END
>  <TORSDO>  (7) 
F 20

>  <SCORE>  (7) 
-13.558

>  <name>  (7) 
7

>  <ligand_id>  (7) 
7

>  <original_smiles>  (7) 
[H]c1c([H])c([H])c2c(c1[H])C([H])([H])C([H])([H])C([H])([H])C2([H])N([H])C(=O)C1([H])N(C(=O)C([H])(N([H])C(=O)C([H])(N([H])C([H])([H])[H])C([H])([H])[H])C(C([H])([H])[H])(C([H])([H])[H])C([H])([H])[H])C([H])([H])c2c([H])c(OC([H])([H])C([H])([H])C([H])([H])c3nn(C([H])([H])[H])c(C([H])([H])N(C(=O)N4C([H])([H])C([H])([H])C([H])([H])C([H])(n5nc(-c6c([H])c([H])c(Oc7c([H])c([H])c(F)c([H])c7F)c([H])c6[H])c(C(=O)N([H])[H])c5N([H])[H])C4([H])[H])C([H])([H])[H])c3[H])c([H])c([H])c2C1([H])[H]

>  <smiles>  (7) 
[H]c1c([H])c([H])c2c(c1[H])C([H])([H])C([H])([H])C([H])([H])C2([H])N([H])C(=O)C1([H])N(C(=O)C([H])(N([H])C(=O)C([H])(N([H])C([H])([H])[H])C([H])([H])[H])C(C([H])([H])[H])(C([H])([H])[H])C([H])([H])[H])C([H])([H])c2c([H])c(OC([H])([H])C([H])([H])C([H])([H])c3nn(C([H])([H])[H])c(C([H])([H])N(C(=O)N4C([H])([H])C([H])([H])C([H])([H])C([H])(n5nc(-c6c([H])c([H])c(Oc7c([H])c([H])c(F)c([H])c7F)c([H])c6[H])c(C(=O)N([H])[H])c5N([H])[H])C4([H])[H])C([H])([H])[H])c3[H])c([H])c([H])c2C1([H])[H]

$$$$
8:0:0
     RDKit          3D

 90 98  0  0  1  0  0  0  0  0999 V2000
  -29.6590  -21.5790   18.5300 C   0  0  0  0  0  3  0  0  0  0  0  0
  -30.2270  -20.4370   17.9320 C   0  0  0  0  0  0  0  0  0  0  0  0
  -28.9850  -21.4710   19.7540 C   0  0  0  0  0  0  0  0  0  0  0  0
  -29.4670  -18.9940   19.5860 C   0  0  0  0  0  0  0  0  0  0  0  0
  -30.9840  -20.5450   16.6220 C   0  0  0  0  0  1  0  0  0  0  0  0
  -30.1360  -19.1950   18.4580 N   0  0  0  0  0  0  0  0  0  0  0  0
  -28.9040  -20.1190   20.2460 N   0  0  0  0  0  0  0  0  0  0  0  0
  -27.9530  -17.2100   20.7540 C   0  0  0  0  0  1  0  0  0  0  0  0
  -29.1880  -17.3580   19.8490 C   0  0  0  0  0  3  0  0  0  0  0  0
  -30.6580  -14.9110   19.7500 C   0  0  0  0  0  0  0  0  0  0  0  0
  -30.3870  -12.4970   18.9710 C   0  0  0  0  0  2  0  0  0  0  0  0
  -29.3980  -12.3650   17.7930 C   0  0  0  0  0  2  0  0  0  0  0  0
  -27.9770  -12.1630   18.3390 C   0  0  0  0  0  2  0  0  0  0  0  0
  -27.6330  -13.1750   19.4620 C   0  0  0  0  0  3  0  0  0  0  0  0
  -28.7500  -13.3120   20.5210 C   0  0  0  0  0  2  0  0  0  0  0  0
  -29.9780  -13.6790   19.8060 N   0  0  0  0  0  0  0  0  0  0  0  0
  -31.8140  -14.8130   19.3130 O   0  0  0  0  0  0  0  0  0  0  0  0
  -31.2800  -16.8620   21.0340 C   0  0  0  0  0  1  0  0  0  0  0  0
  -30.2280  -16.2040   20.2410 N   0  0  0  0  0  0  0  0  0  0  0  0
  -25.3470  -13.8100   20.4070 C   0  0  0  0  0  0  0  0  0  0  0  0
  -24.2870  -13.0640   20.8440 C   0  0  0  0  0  0  0  0  0  0  0  0
  -24.6960  -11.6980   20.7460 C   0  0  0  0  0  0  0  0  0  0  0  0
  -26.3330  -12.9040   20.0630 N   0  0  0  0  0  0  0  0  0  0  0  0
  -25.9570  -11.6260   20.3320 N   0  0  0  0  0  0  0  0  0  0  0  0
  -23.9380  -10.4580   20.9640 C   0  0  0  0  0  0  0  0  0  0  0  0
  -24.3890   -9.4610   21.8560 C   0  0  0  0  0  3  0  0  0  0  0  0
  -23.6280   -8.2910   22.0620 C   0  0  0  0  0  3  0  0  0  0  0  0
  -22.4040   -8.1080   21.3770 C   0  0  0  0  0  0  0  0  0  0  0  0
  -21.9720   -9.0920   20.4710 C   0  0  0  0  0  3  0  0  0  0  0  0
  -22.7330  -10.2550   20.2620 C   0  0  0  0  0  3  0  0  0  0  0  0
  -21.6120   -6.9900   21.4960 O   0  0  0  0  0  0  0  0  0  0  0  0
  -21.5990   -6.2370   22.6420 C   0  0  0  0  0  0  0  0  0  0  0  0
  -21.2270   -6.7860   23.8890 C   0  0  0  0  0  3  0  0  0  0  0  0
  -21.1540   -5.9600   25.0280 C   0  0  0  0  0  3  0  0  0  0  0  0
  -21.4470   -4.5880   24.9240 C   0  0  0  0  0  0  0  0  0  0  0  0
  -21.8130   -4.0370   23.6820 C   0  0  0  0  0  3  0  0  0  0  0  0
  -21.8840   -4.8600   22.5440 C   0  0  0  0  0  0  0  0  0  0  0  0
  -22.2180   -4.3210   21.3460 F   0  0  0  0  0  0  0  0  0  0  0  0
  -21.3730   -3.7920   26.0160 F   0  0  0  0  0  0  0  0  0  0  0  0
  -22.9350  -13.5870   21.2320 C   0  0  0  0  0  0  0  0  0  0  0  0
  -22.2490  -12.8990   22.1390 N   0  0  0  0  0  0  0  0  0  0  0  0
  -22.5020  -14.6390   20.7670 O   0  0  0  0  0  0  0  0  0  0  0  0
  -22.6120  -12.0480   22.5420 H   0  0  0  0  0  0  0  0  0  0  0  0
  -21.3460  -13.2370   22.4420 H   0  0  0  0  0  0  0  0  0  0  0  0
  -25.5460  -15.1780   20.2450 N   0  0  0  0  0  0  0  0  0  0  0  0
  -24.8120  -15.8540   20.4220 H   0  0  0  0  0  0  0  0  0  0  0  0
  -26.3720  -15.5900   19.8330 H   0  0  0  0  0  0  0  0  0  0  0  0
  -28.5500  -22.9020   20.5270 C   0  0  0  0  0  2  0  0  0  0  0  0
  -27.9980  -24.3940   19.8560 C   0  0  0  0  0  2  0  0  0  0  0  0
  -28.1020  -25.8910   20.3920 O   0  0  0  0  0  0  0  0  0  0  0  0
  -24.6530  -31.7870   23.2710 C   0  0  0  0  0  0  0  0  0  0  0  0
  -27.0960  -26.9400   20.2730 C   0  0  0  0  0  0  0  0  0  0  0  0
  -23.4250  -30.4180   21.6300 C   0  0  0  0  0  3  0  0  0  0  0  0
  -24.8340  -28.7960   20.2130 C   0  0  0  0  0  0  0  0  0  0  0  0
  -25.9880  -30.5940   21.4860 C   0  0  0  0  0  2  0  0  0  0  0  0
  -26.0220  -29.1920   20.8390 C   0  0  0  0  0  0  0  0  0  0  0  0
  -27.1480  -28.2780   20.8580 C   0  0  0  0  0  3  0  0  0  0  0  0
  -25.8950  -26.6710   19.5820 C   0  0  0  0  0  3  0  0  0  0  0  0
  -24.7890  -27.5500   19.5670 C   0  0  0  0  0  3  0  0  0  0  0  0
  -23.6360  -29.7330   20.2530 C   0  0  0  0  0  2  0  0  0  0  0  0
  -24.7090  -30.9570   22.1820 N   0  0  0  0  0  0  0  0  0  0  0  0
  -23.5710  -32.1040   23.7890 O   0  0  0  0  0  0  0  0  0  0  0  0
  -22.7130  -29.4330   22.5950 C   0  0  0  0  0  0  0  0  0  0  0  0
  -21.3830  -29.2920   22.4610 N   0  0  0  0  0  0  0  0  0  0  0  0
  -23.3630  -28.7990   23.4310 O   0  0  0  0  0  0  0  0  0  0  0  0
  -20.9150  -29.8560   21.7630 H   0  0  0  0  0  0  0  0  0  0  0  0
  -17.9720  -28.1690   22.9480 C   0  0  0  0  0  0  0  0  0  0  0  0
  -20.5340  -28.3790   23.2310 C   0  0  0  0  0  3  0  0  0  0  0  0
  -20.6080  -26.9420   22.6680 C   0  0  0  0  0  2  0  0  0  0  0  0
  -19.5070  -26.6350   21.6470 C   0  0  0  0  0  2  0  0  0  0  0  0
  -18.1240  -26.8140   22.2790 C   0  0  0  0  0  2  0  0  0  0  0  0
  -19.1040  -28.9110   23.3800 C   0  0  0  0  0  0  0  0  0  0  0  0
  -18.9070  -30.1790   23.9690 C   0  0  0  0  0  3  0  0  0  0  0  0
  -17.6120  -30.7070   24.1270 C   0  0  0  0  0  3  0  0  0  0  0  0
  -16.4950  -29.9640   23.7080 C   0  0  0  0  0  3  0  0  0  0  0  0
  -16.6750  -28.6960   23.1260 C   0  0  0  0  0  3  0  0  0  0  0  0
  -25.9440  -32.3930   23.9020 C   0  0  0  0  0  3  0  0  0  0  0  0
  -26.4210  -31.6260   25.1960 C   0  0  1  0  0  0  0  0  0  0  0  0
  -25.3070  -31.4340   26.2520 C   0  0  0  0  0  1  0  0  0  0  0  0
  -26.9730  -30.2260   24.8360 C   0  0  0  0  0  1  0  0  0  0  0  0
  -27.5820  -32.3980   25.8650 C   0  0  0  0  0  1  0  0  0  0  0  0
  -25.6670  -33.8050   24.2190 N   0  0  0  0  0  0  0  0  0  0  0  0
  -26.0200  -34.8460   23.4530 C   0  0  0  0  0  0  0  0  0  0  0  0
  -26.6800  -34.7190   22.4180 O   0  0  0  0  0  0  0  0  0  0  0  0
  -25.0870  -33.9790   25.0260 H   0  0  0  0  0  0  0  0  0  0  0  0
  -24.3340  -36.6840   23.1090 C   0  0  0  0  0  1  0  0  0  0  0  0
  -25.5740  -36.2510   23.9070 C   0  0  0  0  0  3  0  0  0  0  0  0
  -27.7350  -37.0990   24.7110 C   0  0  0  0  0  1  0  0  0  0  0  0
  -26.6300  -37.2780   23.7710 N   0  0  0  0  0  0  0  0  0  0  0  0
  -26.2450  -38.2090   23.9060 H   0  0  0  0  0  0  0  0  0  0  0  0
  1  3  1  0
  2  6  1  0
  2  1  2  0
  3  7  2  0
  3 48  1  0
  4  9  1  0
  4  7  1  0
  5  2  1  0
  6  4  2  0
  9 19  1  0
  9  8  1  0
 10 16  1  0
 10 19  1  0
 11 16  1  0
 12 13  1  0
 12 11  1  0
 14 13  1  0
 14 23  1  0
 14 15  1  0
 16 15  1  0
 17 10  2  0
 19 18  1  0
 20 21  2  0
 21 40  1  0
 22 21  1  0
 22 25  1  0
 23 24  1  0
 23 20  1  0
 24 22  2  0
 25 26  1  0
 26 27  2  0
 28 31  1  0
 28 27  1  0
 29 28  2  0
 30 29  1  0
 30 25  2  0
 31 32  1  0
 32 33  1  0
 33 34  2  0
 35 34  1  0
 35 39  1  0
 36 35  2  0
 37 32  2  0
 37 36  1  0
 38 37  1  0
 40 41  1  0
 41 44  1  0
 41 43  1  0
 42 40  2  0
 45 20  1  0
 45 46  1  0
 47 45  1  0
 49 50  1  0
 49 48  1  0
 51 62  2  0
 52 50  1  0
 52 57  1  0
 53 61  1  0
 53 63  1  0
 54 60  1  0
 54 56  1  0
 55 61  1  0
 56 57  2  0
 56 55  1  0
 58 52  2  0
 59 58  1  0
 59 54  2  0
 60 53  1  0
 61 51  1  0
 63 65  2  0
 64 63  1  0
 66 64  1  0
 67 76  2  0
 67 72  1  0
 68 64  1  0
 68 72  1  0
 69 68  1  0
 70 71  1  0
 70 69  1  0
 71 67  1  0
 72 73  2  0
 73 74  1  0
 75 74  2  0
 76 75  1  0
 77 51  1  0
 77 82  1  0
 77 78  1  0
 78 81  1  1
 78 79  1  0
 80 78  1  0
 82 85  1  0
 83 87  1  0
 83 82  1  0
 84 83  2  0
 87 86  1  0
 89 90  1  0
 89 87  1  0
 89 88  1  0
M  ISO  4  10 100  19 100  49 101  50 101
M  END
>  <TORSDO>  (8) 
F 19

>  <SCORE>  (8) 
-14.557

>  <name>  (8) 
8

>  <ligand_id>  (8) 
8

>  <original_smiles>  (8) 
[H]c1c(C([H])([H])[H])nc(C([H])(N(C(=O)N2C([H])([H])C([H])([H])C([H])([H])C([H])(n3nc(-c4c([H])c([H])c(Oc5c([H])c([H])c(F)c([H])c5F)c([H])c4[H])c(C(=O)N([H])[H])c3N([H])[H])C2([H])[H])C([H])([H])[H])C([H])([H])[H])nc1C([H])([H])C([H])([H])Oc1c([H])c([H])c2c(c1[H])C([H])([H])N(C(=O)C([H])(N([H])C(=O)C([H])(N([H])C([H])([H])[H])C([H])([H])[H])C(C([H])([H])[H])(C([H])([H])[H])C([H])([H])[H])C([H])(C(=O)N([H])C1([H])c3c([H])c([H])c([H])c([H])c3C([H])([H])C([H])([H])C1([H])[H])C2([H])[H]

>  <smiles>  (8) 
[H]c1c(C([H])([H])[H])nc(C([H])(N(C(=O)N2C([H])([H])C([H])([H])C([H])([H])C([H])(n3nc(-c4c([H])c([H])c(Oc5c([H])c([H])c(F)c([H])c5F)c([H])c4[H])c(C(=O)N([H])[H])c3N([H])[H])C2([H])[H])C([H])([H])[H])C([H])([H])[H])nc1C([H])([H])C([H])([H])Oc1c([H])c([H])c2c(c1[H])C([H])([H])N(C(=O)C([H])(N([H])C(=O)C([H])(N([H])C([H])([H])[H])C([H])([H])[H])C(C([H])([H])[H])(C([H])([H])[H])C([H])([H])[H])C([H])(C(=O)N([H])C1([H])c3c([H])c([H])c([H])c([H])c3C([H])([H])C([H])([H])C1([H])[H])C2([H])[H]

$$$$
9:0:0
     RDKit          3D

 89 97  0  0  1  0  0  0  0  0999 V2000
  -30.7010  -21.5580   19.7210 C   0  0  0  0  0  3  0  0  0  0  0  0
  -29.3660  -21.6920   20.0410 C   0  0  0  0  0  0  0  0  0  0  0  0
  -30.0160  -19.3440   19.7660 C   0  0  0  0  0  3  0  0  0  0  0  0
  -32.4130  -19.8190   19.1540 C   0  0  0  0  0  1  0  0  0  0  0  0
  -31.0510  -20.2160   19.5590 N   0  0  0  0  0  0  0  0  0  0  0  0
  -29.0030  -20.2770   20.0570 N   0  0  0  0  0  0  0  0  0  0  0  0
  -28.0540  -19.9720   20.2350 H   0  0  0  0  0  0  0  0  0  0  0  0
  -28.5240  -23.0760   20.4640 C   0  0  0  0  0  2  0  0  0  0  0  0
  -28.5190  -24.6390   19.7340 C   0  0  0  0  0  2  0  0  0  0  0  0
  -28.3160  -26.1080   20.3150 O   0  0  0  0  0  0  0  0  0  0  0  0
  -24.6230  -31.8410   23.2070 C   0  0  0  0  0  0  0  0  0  0  0  0
  -27.2230  -27.0690   20.2000 C   0  0  0  0  0  0  0  0  0  0  0  0
  -23.4240  -30.4270   21.5800 C   0  0  0  0  0  3  0  0  0  0  0  0
  -24.8750  -28.8290   20.1630 C   0  0  0  0  0  0  0  0  0  0  0  0
  -25.9800  -30.6760   21.4220 C   0  0  0  0  0  2  0  0  0  0  0  0
  -26.0510  -29.2770   20.7750 C   0  0  0  0  0  0  0  0  0  0  0  0
  -27.2140  -28.4090   20.7810 C   0  0  0  0  0  3  0  0  0  0  0  0
  -26.0150  -26.7230   19.5550 C   0  0  0  0  0  3  0  0  0  0  0  0
  -24.8700  -27.5630   19.5460 C   0  0  0  0  0  3  0  0  0  0  0  0
  -23.6430  -29.7300   20.2070 C   0  0  0  0  0  2  0  0  0  0  0  0
  -24.6950  -31.0080   22.1240 N   0  0  0  0  0  0  0  0  0  0  0  0
  -23.5380  -32.1370   23.7330 O   0  0  0  0  0  0  0  0  0  0  0  0
  -22.7410  -29.4400   22.5560 C   0  0  0  0  0  0  0  0  0  0  0  0
  -21.4090  -29.2780   22.4420 N   0  0  0  0  0  0  0  0  0  0  0  0
  -23.4120  -28.8170   23.3830 O   0  0  0  0  0  0  0  0  0  0  0  0
  -20.9200  -29.8380   21.7550 H   0  0  0  0  0  0  0  0  0  0  0  0
  -18.0260  -28.0900   22.9660 C   0  0  0  0  0  0  0  0  0  0  0  0
  -20.5870  -28.3490   23.2220 C   0  0  0  0  0  3  0  0  0  0  0  0
  -20.6820  -26.9120   22.6600 C   0  0  0  0  0  2  0  0  0  0  0  0
  -19.5770  -26.5850   21.6510 C   0  0  0  0  0  2  0  0  0  0  0  0
  -18.1970  -26.7360   22.2970 C   0  0  0  0  0  2  0  0  0  0  0  0
  -19.1480  -28.8540   23.3840 C   0  0  0  0  0  0  0  0  0  0  0  0
  -18.9320  -30.1190   23.9730 C   0  0  0  0  0  3  0  0  0  0  0  0
  -17.6280  -30.6210   24.1470 C   0  0  0  0  0  3  0  0  0  0  0  0
  -16.5210  -29.8520   23.7490 C   0  0  0  0  0  3  0  0  0  0  0  0
  -16.7200  -28.5900   23.1610 C   0  0  0  0  0  3  0  0  0  0  0  0
  -25.9010  -32.4840   23.8310 C   0  0  0  0  0  3  0  0  0  0  0  0
  -26.4250  -31.7190   25.1100 C   0  0  1  0  0  0  0  0  0  0  0  0
  -25.3360  -31.4790   26.1840 C   0  0  0  0  0  1  0  0  0  0  0  0
  -27.0150  -30.3430   24.7290 C   0  0  0  0  0  1  0  0  0  0  0  0
  -27.5720  -32.5220   25.7640 C   0  0  0  0  0  1  0  0  0  0  0  0
  -25.5850  -33.8830   24.1720 N   0  0  0  0  0  0  0  0  0  0  0  0
  -25.9040  -34.9470   23.4230 C   0  0  0  0  0  0  0  0  0  0  0  0
  -26.5590  -34.8560   22.3830 O   0  0  0  0  0  0  0  0  0  0  0  0
  -25.0080  -34.0310   24.9870 H   0  0  0  0  0  0  0  0  0  0  0  0
  -24.1610  -36.7370   23.1220 C   0  0  0  0  0  1  0  0  0  0  0  0
  -25.4200  -36.3300   23.9030 C   0  0  0  0  0  3  0  0  0  0  0  0
  -27.5620  -37.2240   24.7050 C   0  0  0  0  0  1  0  0  0  0  0  0
  -26.4450  -37.3910   23.7810 N   0  0  0  0  0  0  0  0  0  0  0  0
  -26.0350  -38.3070   23.9420 H   0  0  0  0  0  0  0  0  0  0  0  0
  -30.0550  -17.6950   19.3510 C   0  0  0  0  0  2  0  0  0  0  0  0
  -30.6220  -15.0550   19.9440 C   0  0  0  0  0  0  0  0  0  0  0  0
  -30.4060  -12.7080   18.9620 C   0  0  0  0  0  2  0  0  0  0  0  0
  -29.4080  -12.6470   17.7840 C   0  0  0  0  0  2  0  0  0  0  0  0
  -27.9740  -12.4150   18.3010 C   0  0  0  0  0  2  0  0  0  0  0  0
  -27.6270  -13.3360   19.4990 C   0  0  0  0  0  3  0  0  0  0  0  0
  -28.7480  -13.3290   20.5620 C   0  0  0  0  0  2  0  0  0  0  0  0
  -29.9760  -13.8010   19.8960 N   0  0  0  0  0  0  0  0  0  0  0  0
  -31.7780  -15.0590   19.5060 O   0  0  0  0  0  0  0  0  0  0  0  0
  -29.0970  -16.4460   21.3710 C   0  0  0  0  0  1  0  0  0  0  0  0
  -29.9530  -16.3230   20.1840 N   0  0  0  0  0  0  0  0  0  0  0  0
  -25.3060  -13.9170   20.4030 C   0  0  0  0  0  0  0  0  0  0  0  0
  -24.2580  -13.1440   20.8250 C   0  0  0  0  0  0  0  0  0  0  0  0
  -24.7050  -11.7920   20.7330 C   0  0  0  0  0  0  0  0  0  0  0  0
  -26.3200  -13.0330   20.0730 N   0  0  0  0  0  0  0  0  0  0  0  0
  -25.9720  -11.7490   20.3380 N   0  0  0  0  0  0  0  0  0  0  0  0
  -23.9780  -10.5330   20.9460 C   0  0  0  0  0  0  0  0  0  0  0  0
  -24.4340   -9.5590   21.8610 C   0  0  0  0  0  3  0  0  0  0  0  0
  -23.7070   -8.3640   22.0560 C   0  0  0  0  0  3  0  0  0  0  0  0
  -22.5120   -8.1350   21.3350 C   0  0  0  0  0  0  0  0  0  0  0  0
  -22.0760   -9.0960   20.4070 C   0  0  0  0  0  3  0  0  0  0  0  0
  -22.8030  -10.2830   20.2110 C   0  0  0  0  0  3  0  0  0  0  0  0
  -21.7530   -6.9960   21.4420 O   0  0  0  0  0  0  0  0  0  0  0  0
  -21.7070   -6.2710   22.6060 C   0  0  0  0  0  0  0  0  0  0  0  0
  -21.2790   -6.8420   23.8240 C   0  0  0  0  0  3  0  0  0  0  0  0
  -21.1790   -6.0400   24.9780 C   0  0  0  0  0  3  0  0  0  0  0  0
  -21.4960   -4.6700   24.9170 C   0  0  0  0  0  0  0  0  0  0  0  0
  -21.9140   -4.0990   23.7010 C   0  0  0  0  0  3  0  0  0  0  0  0
  -22.0170   -4.8980   22.5490 C   0  0  0  0  0  0  0  0  0  0  0  0
  -22.4040   -4.3380   21.3770 F   0  0  0  0  0  0  0  0  0  0  0  0
  -21.3900   -3.8990   26.0230 F   0  0  0  0  0  0  0  0  0  0  0  0
  -22.8870  -13.6320   21.1860 C   0  0  0  0  0  0  0  0  0  0  0  0
  -22.2040  -12.9260   22.0820 N   0  0  0  0  0  0  0  0  0  0  0  0
  -22.4300  -14.6720   20.7130 O   0  0  0  0  0  0  0  0  0  0  0  0
  -22.5950  -12.0940   22.4980 H   0  0  0  0  0  0  0  0  0  0  0  0
  -21.2810  -13.2310   22.3540 H   0  0  0  0  0  0  0  0  0  0  0  0
  -25.4730  -15.2870   20.2410 N   0  0  0  0  0  0  0  0  0  0  0  0
  -24.7200  -15.9440   20.4040 H   0  0  0  0  0  0  0  0  0  0  0  0
  -26.2870  -15.7150   19.8190 H   0  0  0  0  0  0  0  0  0  0  0  0
  1  2  2  0
  2  6  1  0
  2  8  1  0
  3 51  1  0
  3  6  1  0
  4  5  1  0
  5  1  1  0
  5  3  1  0
  6  7  1  0
  9 10  1  0
  9  8  1  0
 11 22  2  0
 12 10  1  0
 12 17  1  0
 13 21  1  0
 13 23  1  0
 14 20  1  0
 14 16  1  0
 15 21  1  0
 16 17  2  0
 16 15  1  0
 18 12  2  0
 19 18  1  0
 19 14  2  0
 20 13  1  0
 21 11  1  0
 23 25  2  0
 24 23  1  0
 26 24  1  0
 27 36  2  0
 27 32  1  0
 28 24  1  0
 28 32  1  0
 29 28  1  0
 30 31  1  0
 30 29  1  0
 31 27  1  0
 32 33  2  0
 33 34  1  0
 35 34  2  0
 36 35  1  0
 37 11  1  0
 37 42  1  0
 37 38  1  0
 38 41  1  1
 38 39  1  0
 40 38  1  0
 42 45  1  0
 43 47  1  0
 43 42  1  0
 44 43  2  0
 47 46  1  0
 49 47  1  0
 49 50  1  0
 49 48  1  0
 51 61  1  0
 52 61  1  0
 53 58  1  0
 54 55  1  0
 54 53  1  0
 56 55  1  0
 56 65  1  0
 56 57  1  0
 58 52  1  0
 58 57  1  0
 59 52  2  0
 61 60  1  0
 62 63  2  0
 63 82  1  0
 64 63  1  0
 64 67  1  0
 65 66  1  0
 65 62  1  0
 66 64  2  0
 67 68  1  0
 68 69  2  0
 70 73  1  0
 70 69  1  0
 71 70  2  0
 72 71  1  0
 72 67  2  0
 73 74  1  0
 74 75  1  0
 75 76  2  0
 77 76  1  0
 77 81  1  0
 78 77  2  0
 79 74  2  0
 79 78  1  0
 80 79  1  0
 82 83  1  0
 83 86  1  0
 83 85  1  0
 84 82  2  0
 87 62  1  0
 87 88  1  0
 89 87  1  0
M  ISO  4   9 101  10 101  52 100  61 100
M  END
>  <TORSDO>  (9) 
F 19

>  <SCORE>  (9) 
-15.302

>  <name>  (9) 
9

>  <ligand_id>  (9) 
9

>  <original_smiles>  (9) 
[H]c1c([H])c([H])c2c(c1[H])C([H])([H])C([H])([H])C([H])([H])C2([H])N([H])C(=O)C1([H])N(C(=O)C([H])(N([H])C(=O)C([H])(N([H])C([H])([H])[H])C([H])([H])[H])C(C([H])([H])[H])(C([H])([H])[H])C([H])([H])[H])C([H])([H])c2c([H])c(OC([H])([H])C([H])([H])c3c([H])n(C([H])([H])[H])c(C([H])([H])N(C(=O)N4C([H])([H])C([H])([H])C([H])([H])C([H])(n5nc(-c6c([H])c([H])c(Oc7c([H])c([H])c(F)c([H])c7F)c([H])c6[H])c(C(=O)N([H])[H])c5N([H])[H])C4([H])[H])C([H])([H])[H])[n+]3[H])c([H])c([H])c2C1([H])[H]

>  <smiles>  (9) 
[H]c1c([H])c([H])c2c(c1[H])C([H])([H])C([H])([H])C([H])([H])C2([H])N([H])C(=O)C1([H])N(C(=O)C([H])(N([H])C(=O)C([H])(N([H])C([H])([H])[H])C([H])([H])[H])C(C([H])([H])[H])(C([H])([H])[H])C([H])([H])[H])C([H])([H])c2c([H])c(OC([H])([H])C([H])([H])c3c([H])n(C([H])([H])[H])c(C([H])([H])N(C(=O)N4C([H])([H])C([H])([H])C([H])([H])C([H])(n5nc(-c6c([H])c([H])c(Oc7c([H])c([H])c(F)c([H])c7F)c([H])c6[H])c(C(=O)N([H])[H])c5N([H])[H])C4([H])[H])C([H])([H])[H])[n+]3[H])c([H])c([H])c2C1([H])[H]

$$$$
10:0:0
     RDKit          3D

 96104  0  0  1  0  0  0  0  0999 V2000
  -28.8980  -23.5210   21.4440 C   0  0  0  0  0  3  0  0  0  0  0  0
  -28.1780  -22.3100   21.4550 C   0  0  0  0  0  0  0  0  0  0  0  0
  -28.1640  -24.7090   21.2450 C   0  0  0  0  0  0  0  0  0  0  0  0
  -26.2420  -23.4690   21.0520 C   0  0  0  0  0  0  0  0  0  0  0  0
  -24.7490  -23.4430   20.8100 C   0  0  0  0  0  1  0  0  0  0  0  0
  -26.8460  -22.3040   21.2470 N   0  0  0  0  0  0  0  0  0  0  0  0
  -26.8320  -24.6540   21.0600 N   0  0  0  0  0  0  0  0  0  0  0  0
  -28.8190  -20.9530   21.7840 C   0  0  0  0  0  2  0  0  0  0  0  0
  -28.2340  -20.0800   19.5150 C   0  0  0  0  0  1  0  0  0  0  0  0
  -29.2270  -20.1080   20.6200 N   0  0  2  0  0  4  0  0  0  0  0  0
  -30.0510  -20.5590   20.2570 H   0  0  0  0  0  0  0  0  0  0  0  0
  -29.6350  -18.7280   21.0430 C   0  0  0  0  0  2  0  0  0  0  0  0
  -30.6960  -17.8350   18.8750 C   0  0  0  0  0  1  0  0  0  0  0  0
  -32.0290  -19.2700   20.4460 C   0  0  0  0  0  1  0  0  0  0  0  0
  -30.9330  -18.1840   20.3620 C   0  0  1  0  0  0  0  0  0  0  0  0
  -31.4670  -16.9310   21.1430 C   0  0  0  0  0  2  0  0  0  0  0  0
  -31.3220  -14.6510   20.1250 C   0  0  0  0  0  0  0  0  0  0  0  0
  -30.9080  -12.4660   19.0540 C   0  0  0  0  0  2  0  0  0  0  0  0
  -29.9450  -12.6310   17.8620 C   0  0  0  0  0  2  0  0  0  0  0  0
  -28.4820  -12.5450   18.3340 C   0  0  0  0  0  2  0  0  0  0  0  0
  -28.1930  -13.4610   19.5520 C   0  0  0  0  0  3  0  0  0  0  0  0
  -29.2660  -13.2800   20.6500 C   0  0  0  0  0  2  0  0  0  0  0  0
  -30.5880  -13.5100   20.0410 N   0  0  0  0  0  0  0  0  0  0  0  0
  -32.3920  -14.7980   19.5270 O   0  0  0  0  0  0  0  0  0  0  0  0
  -30.7980  -15.6470   20.8620 N   0  0  0  0  0  0  0  0  0  0  0  0
  -29.9140  -15.4650   21.3140 H   0  0  0  0  0  0  0  0  0  0  0  0
  -25.8650  -14.1740   20.3840 C   0  0  0  0  0  0  0  0  0  0  0  0
  -24.7670  -13.4490   20.7640 C   0  0  0  0  0  0  0  0  0  0  0  0
  -25.1450  -12.0760   20.6560 C   0  0  0  0  0  0  0  0  0  0  0  0
  -26.8450  -13.2450   20.0730 N   0  0  0  0  0  0  0  0  0  0  0  0
  -26.4160  -11.9750   20.2930 N   0  0  0  0  0  0  0  0  0  0  0  0
  -24.3520  -10.8510   20.8220 C   0  0  0  0  0  0  0  0  0  0  0  0
  -24.7300   -9.8460   21.7400 C   0  0  0  0  0  3  0  0  0  0  0  0
  -23.9410   -8.6850   21.8960 C   0  0  0  0  0  3  0  0  0  0  0  0
  -22.7610   -8.5210   21.1320 C   0  0  0  0  0  0  0  0  0  0  0  0
  -22.4020   -9.5130   20.2030 C   0  0  0  0  0  3  0  0  0  0  0  0
  -23.1910  -10.6650   20.0460 C   0  0  0  0  0  3  0  0  0  0  0  0
  -21.9480   -7.4150   21.1970 O   0  0  0  0  0  0  0  0  0  0  0  0
  -21.8040   -6.6950   22.3560 C   0  0  0  0  0  0  0  0  0  0  0  0
  -21.3410   -7.2910   23.5500 C   0  0  0  0  0  3  0  0  0  0  0  0
  -21.1400   -6.5010   24.6980 C   0  0  0  0  0  3  0  0  0  0  0  0
  -21.3900   -5.1160   24.6550 C   0  0  0  0  0  0  0  0  0  0  0  0
  -21.8450   -4.5200   23.4650 C   0  0  0  0  0  3  0  0  0  0  0  0
  -22.0470   -5.3080   22.3180 C   0  0  0  0  0  0  0  0  0  0  0  0
  -22.4650   -4.7250   21.1680 F   0  0  0  0  0  0  0  0  0  0  0  0
  -21.1900   -4.3550   25.7550 F   0  0  0  0  0  0  0  0  0  0  0  0
  -23.4130  -13.9950   21.1170 C   0  0  0  0  0  0  0  0  0  0  0  0
  -22.6860  -13.3090   21.9930 N   0  0  0  0  0  0  0  0  0  0  0  0
  -23.0130  -15.0610   20.6530 O   0  0  0  0  0  0  0  0  0  0  0  0
  -23.0210  -12.4440   22.3880 H   0  0  0  0  0  0  0  0  0  0  0  0
  -21.7780  -13.6560   22.2710 H   0  0  0  0  0  0  0  0  0  0  0  0
  -26.1050  -15.5390   20.2570 N   0  0  0  0  0  0  0  0  0  0  0  0
  -25.3800  -16.2310   20.4080 H   0  0  0  0  0  0  0  0  0  0  0  0
  -26.9620  -15.9320   19.8880 H   0  0  0  0  0  0  0  0  0  0  0  0
  -28.8120  -26.1040   21.3040 C   0  0  0  0  0  2  0  0  0  0  0  0
  -28.5680  -26.9510   20.1680 O   0  0  0  0  0  0  0  0  0  0  0  0
  -24.6220  -31.9740   23.3500 C   0  0  0  0  0  0  0  0  0  0  0  0
  -27.4060  -27.6860   20.1990 C   0  0  0  0  0  0  0  0  0  0  0  0
  -23.4750  -30.6050   21.6360 C   0  0  0  0  0  3  0  0  0  0  0  0
  -24.9890  -29.1440   20.1930 C   0  0  0  0  0  0  0  0  0  0  0  0
  -25.9930  -31.0190   21.5030 C   0  0  0  0  0  2  0  0  0  0  0  0
  -26.1210  -29.6670   20.8330 C   0  0  0  0  0  0  0  0  0  0  0  0
  -27.3330  -28.9420   20.8450 C   0  0  0  0  0  3  0  0  0  0  0  0
  -26.2700  -27.1890   19.5290 C   0  0  0  0  0  3  0  0  0  0  0  0
  -25.0570  -27.9010   19.5400 C   0  0  0  0  0  3  0  0  0  0  0  0
  -23.7260  -29.9750   20.2400 C   0  0  0  0  0  2  0  0  0  0  0  0
  -24.7130  -31.2120   22.2220 N   0  0  0  0  0  0  0  0  0  0  0  0
  -23.5260  -32.2090   23.8760 O   0  0  0  0  0  0  0  0  0  0  0  0
  -22.8240  -29.5420   22.5480 C   0  0  0  0  0  0  0  0  0  0  0  0
  -21.5070  -29.3370   22.3820 N   0  0  0  0  0  0  0  0  0  0  0  0
  -23.5010  -28.9060   23.3620 O   0  0  0  0  0  0  0  0  0  0  0  0
  -21.0230  -29.9040   21.7010 H   0  0  0  0  0  0  0  0  0  0  0  0
  -18.1420  -28.0840   22.7760 C   0  0  0  0  0  0  0  0  0  0  0  0
  -20.6910  -28.3620   23.1040 C   0  0  0  0  0  3  0  0  0  0  0  0
  -20.8230  -26.9550   22.4760 C   0  0  0  0  0  2  0  0  0  0  0  0
  -19.7430  -26.6580   21.4310 C   0  0  0  0  0  2  0  0  0  0  0  0
  -18.3480  -26.7630   22.0550 C   0  0  0  0  0  2  0  0  0  0  0  0
  -19.2430  -28.8430   23.2540 C   0  0  0  0  0  0  0  0  0  0  0  0
  -18.9990  -30.0820   23.8860 C   0  0  0  0  0  3  0  0  0  0  0  0
  -17.6860  -30.5610   24.0460 C   0  0  0  0  0  3  0  0  0  0  0  0
  -16.5990  -29.7990   23.5850 C   0  0  0  0  0  3  0  0  0  0  0  0
  -16.8270  -28.5620   22.9560 C   0  0  0  0  0  3  0  0  0  0  0  0
  -25.8840  -32.6050   24.0160 C   0  0  0  0  0  3  0  0  0  0  0  0
  -25.5640  -34.0020   24.3350 N   0  0  0  0  0  0  0  0  0  0  0  0
  -25.9270  -35.0540   23.5880 C   0  0  0  0  0  0  0  0  0  0  0  0
  -26.6360  -34.9500   22.5830 O   0  0  0  0  0  0  0  0  0  0  0  0
  -24.9400  -34.1560   25.1130 H   0  0  0  0  0  0  0  0  0  0  0  0
  -24.2150  -36.8450   23.1590 C   0  0  0  0  0  1  0  0  0  0  0  0
  -25.4190  -36.4420   24.0230 C   0  0  0  0  0  3  0  0  0  0  0  0
  -27.5160  -37.3250   24.9440 C   0  0  0  0  0  1  0  0  0  0  0  0
  -26.4560  -37.4950   23.9550 N   0  0  0  0  0  0  0  0  0  0  0  0
  -26.0440  -38.4150   24.0870 H   0  0  0  0  0  0  0  0  0  0  0  0
  -26.3600  -31.8310   25.3060 C   0  0  1  0  0  0  0  0  0  0  0  0
  -25.2270  -31.5720   26.3270 C   0  0  0  0  0  1  0  0  0  0  0  0
  -26.9740  -30.4630   24.9240 C   0  0  0  0  0  1  0  0  0  0  0  0
  -27.4730  -32.6320   26.0200 C   0  0  0  0  0  1  0  0  0  0  0  0
  1  2  2  0
  2  8  1  0
  3 55  1  0
  3  1  1  0
  4  7  1  0
  4  6  2  0
  5  4  1  0
  6  2  1  0
  7  3  2  0
  9 10  1  0
 10 12  1  0
 10  8  1  0
 10 11  1  6
 15 13  1  6
 15 14  1  0
 15 12  1  0
 15 16  1  0
 17 25  1  0
 18 23  1  0
 19 20  1  0
 19 18  1  0
 21 20  1  0
 21 30  1  0
 21 22  1  0
 23 17  1  0
 23 22  1  0
 24 17  2  0
 25 16  1  0
 25 26  1  0
 27 28  2  0
 28 47  1  0
 29 28  1  0
 29 32  1  0
 30 31  1  0
 30 27  1  0
 31 29  2  0
 32 33  1  0
 33 34  2  0
 35 38  1  0
 35 34  1  0
 36 35  2  0
 37 36  1  0
 37 32  2  0
 38 39  1  0
 39 40  1  0
 40 41  2  0
 42 41  1  0
 42 46  1  0
 43 42  2  0
 44 39  2  0
 44 43  1  0
 45 44  1  0
 47 48  1  0
 48 51  1  0
 48 50  1  0
 49 47  2  0
 52 27  1  0
 52 53  1  0
 54 52  1  0
 56 58  1  0
 56 55  1  0
 57 68  2  0
 58 63  1  0
 59 67  1  0
 59 69  1  0
 60 66  1  0
 60 62  1  0
 61 67  1  0
 62 63  2  0
 62 61  1  0
 64 65  1  0
 64 58  2  0
 65 60  2  0
 66 59  1  0
 67 57  1  0
 69 71  2  0
 70 69  1  0
 72 70  1  0
 73 82  2  0
 73 78  1  0
 74 70  1  0
 74 78  1  0
 75 74  1  0
 76 77  1  0
 76 75  1  0
 77 73  1  0
 78 79  2  0
 79 80  1  0
 81 80  2  0
 82 81  1  0
 83 57  1  0
 83 84  1  0
 83 93  1  0
 84 87  1  0
 85 89  1  0
 85 84  1  0
 86 85  2  0
 89 88  1  0
 91 89  1  0
 91 92  1  0
 91 90  1  0
 93 96  1  1
 93 94  1  0
 95 93  1  0
M  ISO  4  17 100  25 100  55 101  56 101
M  END
>  <TORSDO>  (10) 
F 22

>  <SCORE>  (10) 
-12.612

>  <name>  (10) 
10

>  <ligand_id>  (10) 
10

>  <original_smiles>  (10) 
[H]c1c(C([H])([H])Oc2c([H])c([H])c3c(c2[H])C([H])([H])N(C(=O)C([H])(N([H])C(=O)C([H])(N([H])C([H])([H])[H])C([H])([H])[H])C(C([H])([H])[H])(C([H])([H])[H])C([H])([H])[H])C([H])(C(=O)N([H])C2([H])c4c([H])c([H])c([H])c([H])c4C([H])([H])C([H])([H])C2([H])[H])C3([H])[H])nc(C([H])([H])[H])nc1C([H])([H])[N+]([H])(C([H])([H])[H])C([H])([H])C(C([H])([H])[H])(C([H])([H])[H])C([H])([H])N([H])C(=O)N1C([H])([H])C([H])([H])C([H])([H])C([H])(n2nc(-c3c([H])c([H])c(Oc4c([H])c([H])c(F)c([H])c4F)c([H])c3[H])c(C(=O)N([H])[H])c2N([H])[H])C1([H])[H]

>  <smiles>  (10) 
[H]c1c(C([H])([H])Oc2c([H])c([H])c3c(c2[H])C([H])([H])N(C(=O)C([H])(N([H])C(=O)C([H])(N([H])C([H])([H])[H])C([H])([H])[H])C(C([H])([H])[H])(C([H])([H])[H])C([H])([H])[H])C([H])(C(=O)N([H])C2([H])c4c([H])c([H])c([H])c([H])c4C([H])([H])C([H])([H])C2([H])[H])C3([H])[H])nc(C([H])([H])[H])nc1C([H])([H])[N+]([H])(C([H])([H])[H])C([H])([H])C(C([H])([H])[H])(C([H])([H])[H])C([H])([H])N([H])C(=O)N1C([H])([H])C([H])([H])C([H])([H])C([H])(n2nc(-c3c([H])c([H])c(Oc4c([H])c([H])c(F)c([H])c4F)c([H])c3[H])c(C(=O)N([H])[H])c2N([H])[H])C1([H])[H]

$$$$
11:0:0
     RDKit          3D

 89 97  0  0  1  0  0  0  0  0999 V2000
  -28.2400  -20.0730   20.7440 C   0  0  0  0  0  2  0  0  0  0  0  0
  -29.6600  -18.6650   20.0350 C   0  0  0  0  0  0  0  0  0  0  0  0
  -28.4630  -18.7420   20.7070 N   0  0  0  0  0  0  0  0  0  0  0  0
  -30.0880  -19.9010   19.6380 N   0  0  0  0  0  2  0  0  0  0  0  0
  -29.1560  -20.8300   20.1210 N   0  0  0  0  0  0  0  0  0  0  0  0
  -30.4290  -17.3220   19.6630 C   0  0  0  0  0  2  0  0  0  0  0  0
  -30.8850  -14.8170   19.7790 C   0  0  0  0  0  0  0  0  0  0  0  0
  -30.5280  -12.5640   18.7140 C   0  0  0  0  0  2  0  0  0  0  0  0
  -29.4500  -12.6020   17.6080 C   0  0  0  0  0  2  0  0  0  0  0  0
  -28.0400  -12.4400   18.2070 C   0  0  0  0  0  2  0  0  0  0  0  0
  -27.8160  -13.3100   19.4710 C   0  0  0  0  0  3  0  0  0  0  0  0
  -29.0010  -13.2110   20.4580 C   0  0  0  0  0  2  0  0  0  0  0  0
  -30.2110  -13.6050   19.7290 N   0  0  0  0  0  0  0  0  0  0  0  0
  -31.9520  -14.9140   19.1650 O   0  0  0  0  0  0  0  0  0  0  0  0
  -30.3420  -15.9600   20.3960 N   0  0  0  0  0  0  0  0  0  0  0  0
  -25.5680  -13.8880   20.5630 C   0  0  0  0  0  0  0  0  0  0  0  0
  -24.5340  -13.1020   21.0000 C   0  0  0  0  0  0  0  0  0  0  0  0
  -24.9370  -11.7500   20.7740 C   0  0  0  0  0  0  0  0  0  0  0  0
  -26.5380  -13.0070   20.1100 N   0  0  0  0  0  0  0  0  0  0  0  0
  -26.1740  -11.7130   20.2940 N   0  0  0  0  0  0  0  0  0  0  0  0
  -24.1950  -10.4900   20.9390 C   0  0  0  0  0  0  0  0  0  0  0  0
  -24.6170   -9.4950   21.8490 C   0  0  0  0  0  3  0  0  0  0  0  0
  -23.8740   -8.3040   22.0010 C   0  0  0  0  0  3  0  0  0  0  0  0
  -22.6960   -8.1000   21.2480 C   0  0  0  0  0  0  0  0  0  0  0  0
  -22.2900   -9.0840   20.3300 C   0  0  0  0  0  3  0  0  0  0  0  0
  -23.0340  -10.2670   20.1740 C   0  0  0  0  0  3  0  0  0  0  0  0
  -21.9220   -6.9650   21.3160 O   0  0  0  0  0  0  0  0  0  0  0  0
  -21.7410   -6.2860   22.4920 C   0  0  0  0  0  0  0  0  0  0  0  0
  -21.1940   -6.9070   23.6350 C   0  0  0  0  0  3  0  0  0  0  0  0
  -20.9630   -6.1550   24.8030 C   0  0  0  0  0  3  0  0  0  0  0  0
  -21.2680   -4.7820   24.8280 C   0  0  0  0  0  0  0  0  0  0  0  0
  -21.8050   -4.1580   23.6880 C   0  0  0  0  0  3  0  0  0  0  0  0
  -22.0400   -4.9070   22.5220 C   0  0  0  0  0  0  0  0  0  0  0  0
  -22.5400   -4.2970   21.4200 F   0  0  0  0  0  0  0  0  0  0  0  0
  -21.0320   -4.0550   25.9460 F   0  0  0  0  0  0  0  0  0  0  0  0
  -23.2070  -13.5820   21.5060 C   0  0  0  0  0  0  0  0  0  0  0  0
  -22.5950  -12.8390   22.4210 N   0  0  0  0  0  0  0  0  0  0  0  0
  -22.7250  -14.6500   21.1280 O   0  0  0  0  0  0  0  0  0  0  0  0
  -23.0030  -11.9790   22.7630 H   0  0  0  0  0  0  0  0  0  0  0  0
  -21.7120  -13.1440   22.8020 H   0  0  0  0  0  0  0  0  0  0  0  0
  -25.7510  -15.2630   20.4840 N   0  0  0  0  0  0  0  0  0  0  0  0
  -25.0000  -15.9140   20.6880 H   0  0  0  0  0  0  0  0  0  0  0  0
  -26.5420  -15.7130   20.0380 H   0  0  0  0  0  0  0  0  0  0  0  0
  -29.7960  -16.6350   22.8200 C   0  0  0  0  0  1  0  0  0  0  0  0
  -30.8260  -16.1250   21.7940 C   0  0  0  0  0  2  0  0  0  0  0  0
  -29.3910  -22.3560   20.1100 C   0  0  0  0  0  2  0  0  0  0  0  0
  -28.2310  -23.4720   19.8160 C   0  0  0  0  0  2  0  0  0  0  0  0
  -28.2570  -24.9710   20.4920 C   0  0  0  0  0  2  0  0  0  0  0  0
  -28.4020  -26.3270   19.8280 O   0  0  0  0  0  0  0  0  0  0  0  0
  -24.6690  -31.7140   23.0640 C   0  0  0  0  0  0  0  0  0  0  0  0
  -27.3080  -27.2280   19.8620 C   0  0  0  0  0  0  0  0  0  0  0  0
  -23.4780  -30.3370   21.4000 C   0  0  0  0  0  3  0  0  0  0  0  0
  -24.9420  -28.8500   19.9160 C   0  0  0  0  0  0  0  0  0  0  0  0
  -26.0170  -30.6890   21.2090 C   0  0  0  0  0  2  0  0  0  0  0  0
  -26.1160  -29.3300   20.5130 C   0  0  0  0  0  0  0  0  0  0  0  0
  -27.3100  -28.5350   20.4600 C   0  0  0  0  0  3  0  0  0  0  0  0
  -26.1050  -26.8070   19.2660 C   0  0  0  0  0  3  0  0  0  0  0  0
  -24.9400  -27.5970   19.2840 C   0  0  0  0  0  3  0  0  0  0  0  0
  -23.6950  -29.7100   20.0000 C   0  0  0  0  0  2  0  0  0  0  0  0
  -24.7400  -30.9340   21.9450 N   0  0  0  0  0  0  0  0  0  0  0  0
  -23.5840  -31.9510   23.6150 O   0  0  0  0  0  0  0  0  0  0  0  0
  -22.8400  -29.2800   22.3290 C   0  0  0  0  0  0  0  0  0  0  0  0
  -21.5170  -29.0840   22.2140 N   0  0  0  0  0  0  0  0  0  0  0  0
  -23.5370  -28.6440   23.1200 O   0  0  0  0  0  0  0  0  0  0  0  0
  -21.0020  -29.6500   21.5570 H   0  0  0  0  0  0  0  0  0  0  0  0
  -18.1700  -27.8190   22.7300 C   0  0  0  0  0  0  0  0  0  0  0  0
  -20.7300  -28.1010   22.9620 C   0  0  0  0  0  3  0  0  0  0  0  0
  -20.8370  -26.6940   22.3240 C   0  0  0  0  0  2  0  0  0  0  0  0
  -19.7190  -26.3940   21.3180 C   0  0  0  0  0  2  0  0  0  0  0  0
  -18.3520  -26.4960   22.0040 C   0  0  0  0  0  2  0  0  0  0  0  0
  -19.2880  -28.5770   23.1670 C   0  0  0  0  0  0  0  0  0  0  0  0
  -19.0670  -29.8110   23.8120 C   0  0  0  0  0  3  0  0  0  0  0  0
  -17.7610  -30.2900   24.0220 C   0  0  0  0  0  3  0  0  0  0  0  0
  -16.6590  -29.5330   23.5990 C   0  0  0  0  0  3  0  0  0  0  0  0
  -16.8640  -28.2950   22.9630 C   0  0  0  0  0  3  0  0  0  0  0  0
  -25.9410  -32.3580   23.6930 C   0  0  0  0  0  3  0  0  0  0  0  0
  -25.6020  -33.7370   24.0820 N   0  0  0  0  0  0  0  0  0  0  0  0
  -25.8920  -34.8240   23.3590 C   0  0  0  0  0  0  0  0  0  0  0  0
  -26.5450  -34.7790   22.3140 O   0  0  0  0  0  0  0  0  0  0  0  0
  -25.0300  -33.8390   24.9060 H   0  0  0  0  0  0  0  0  0  0  0  0
  -24.1160  -36.5820   23.1060 C   0  0  0  0  0  1  0  0  0  0  0  0
  -25.3770  -36.1780   23.8820 C   0  0  0  0  0  3  0  0  0  0  0  0
  -27.4960  -37.0870   24.7200 C   0  0  0  0  0  1  0  0  0  0  0  0
  -26.3830  -37.2580   23.7940 N   0  0  0  0  0  0  0  0  0  0  0  0
  -25.9560  -38.1640   23.9740 H   0  0  0  0  0  0  0  0  0  0  0  0
  -26.4860  -31.5620   24.9420 C   0  0  1  0  0  0  0  0  0  0  0  0
  -25.4040  -31.2400   25.9940 C   0  0  0  0  0  1  0  0  0  0  0  0
  -27.1350  -30.2340   24.5010 C   0  0  0  0  0  1  0  0  0  0  0  0
  -27.5950  -32.3750   25.6510 C   0  0  0  0  0  1  0  0  0  0  0  0
  2  3  2  0
  3  1  1  0
  4  2  1  0
  4  5  1  0
  5  1  1  0
  6  2  1  0
  6 15  1  0
  7 15  1  0
  8 13  1  0
  9 10  1  0
  9  8  1  0
 11 10  1  0
 11 19  1  0
 11 12  1  0
 13  7  1  0
 13 12  1  0
 14  7  2  0
 15 45  1  0
 16 17  2  0
 17 36  1  0
 18 21  1  0
 18 17  1  0
 19 20  1  0
 19 16  1  0
 20 18  2  0
 21 22  1  0
 22 23  2  0
 24 27  1  0
 24 23  1  0
 25 24  2  0
 26 25  1  0
 26 21  2  0
 27 28  1  0
 28 33  2  0
 28 29  1  0
 29 30  2  0
 30 31  1  0
 31 35  1  0
 32 31  2  0
 33 32  1  0
 34 33  1  0
 36 37  1  0
 37 39  1  0
 37 40  1  0
 38 36  2  0
 41 16  1  0
 41 42  1  0
 43 41  1  0
 45 44  1  0
 46  5  1  0
 47 46  1  0
 47 48  1  0
 49 51  1  0
 49 48  1  0
 50 61  2  0
 51 56  1  0
 52 60  1  0
 52 62  1  0
 53 59  1  0
 53 55  1  0
 54 60  1  0
 55 54  1  0
 56 55  2  0
 57 58  1  0
 57 51  2  0
 58 53  2  0
 59 52  1  0
 60 50  1  0
 62 64  2  0
 63 62  1  0
 65 63  1  0
 66 75  2  0
 66 71  1  0
 67 63  1  0
 67 71  1  0
 68 67  1  0
 69 70  1  0
 69 68  1  0
 70 66  1  0
 71 72  2  0
 72 73  1  0
 74 73  2  0
 75 74  1  0
 76 50  1  0
 76 77  1  0
 76 86  1  0
 77 80  1  0
 78 82  1  0
 78 77  1  0
 79 78  2  0
 82 81  1  0
 84 82  1  0
 84 85  1  0
 84 83  1  0
 86 89  1  1
 86 87  1  0
 88 86  1  0
M  ISO  4   7 100  15 100  48 101  49 101
M  END
>  <TORSDO>  (11) 
F 21

>  <SCORE>  (11) 
-11.108

>  <name>  (11) 
11

>  <ligand_id>  (11) 
11

>  <original_smiles>  (11) 
[H]c1c([H])c([H])c2c(c1[H])C([H])([H])C([H])([H])C([H])([H])C2([H])N([H])C(=O)C1([H])N(C(=O)C([H])(N([H])C(=O)C([H])(N([H])C([H])([H])[H])C([H])([H])[H])C(C([H])([H])[H])(C([H])([H])[H])C([H])([H])[H])C([H])([H])c2c([H])c(OC([H])([H])C([H])([H])C([H])([H])n3nc(C([H])([H])N(C(=O)N4C([H])([H])C([H])([H])C([H])([H])C([H])(n5nc(-c6c([H])c([H])c(Oc7c([H])c([H])c(F)c([H])c7F)c([H])c6[H])c(C(=O)N([H])[H])c5N([H])[H])C4([H])[H])C([H])([H])C([H])([H])[H])nc3[H])c([H])c([H])c2C1([H])[H]

>  <smiles>  (11) 
[H]c1c([H])c([H])c2c(c1[H])C([H])([H])C([H])([H])C([H])([H])C2([H])N([H])C(=O)C1([H])N(C(=O)C([H])(N([H])C(=O)C([H])(N([H])C([H])([H])[H])C([H])([H])[H])C(C([H])([H])[H])(C([H])([H])[H])C([H])([H])[H])C([H])([H])c2c([H])c(OC([H])([H])C([H])([H])C([H])([H])n3nc(C([H])([H])N(C(=O)N4C([H])([H])C([H])([H])C([H])([H])C([H])(n5nc(-c6c([H])c([H])c(Oc7c([H])c([H])c(F)c([H])c7F)c([H])c6[H])c(C(=O)N([H])[H])c5N([H])[H])C4([H])[H])C([H])([H])C([H])([H])[H])nc3[H])c([H])c([H])c2C1([H])[H]

$$$$
12:0:0
     RDKit          3D

 91 99  0  0  1  0  0  0  0  0999 V2000
  -31.1780  -22.5260   21.7170 C   0  0  0  0  0  1  0  0  0  0  0  0
  -29.8970  -22.6560   20.9820 N   0  0  1  0  0  4  0  0  0  0  0  0
  -30.1210  -22.6810   19.9970 H   0  0  0  0  0  0  0  0  0  0  0  0
  -29.0140  -21.4650   21.1830 C   0  0  0  0  0  2  0  0  0  0  0  0
  -29.5030  -20.1390   20.5180 C   0  0  0  0  0  2  0  0  0  0  0  0
  -30.1300  -19.1060   21.4950 C   0  0  0  0  0  2  0  0  0  0  0  0
  -31.0240  -16.7670   20.8700 C   0  0  0  0  0  3  0  0  0  0  0  0
  -30.3710  -15.6360   20.4440 C   0  0  0  0  0  0  0  0  0  0  0  0
  -29.0080  -15.9610   20.3940 N   0  0  0  0  0  0  0  0  0  0  0  0
  -28.8160  -17.1830   20.7830 N   0  0  0  0  0  0  0  0  0  0  0  0
  -30.0290  -17.7170   21.0450 N   0  0  0  0  0  0  0  0  0  0  0  0
  -31.0520  -14.3630   19.9460 C   0  0  0  0  0  0  0  0  0  0  0  0
  -30.7240  -12.1150   18.9690 C   0  0  0  0  0  2  0  0  0  0  0  0
  -29.7540  -12.2230   17.7720 C   0  0  0  0  0  2  0  0  0  0  0  0
  -28.2860  -12.1300   18.2370 C   0  0  0  0  0  2  0  0  0  0  0  0
  -27.9910  -13.0780   19.4310 C   0  0  0  0  0  3  0  0  0  0  0  0
  -29.0640  -12.9120   20.5330 C   0  0  0  0  0  2  0  0  0  0  0  0
  -30.3720  -13.1810   19.9260 N   0  0  0  0  0  0  0  0  0  0  0  0
  -32.1850  -14.4590   19.4610 O   0  0  0  0  0  0  0  0  0  0  0  0
  -25.6610  -13.8360   20.2160 C   0  0  0  0  0  0  0  0  0  0  0  0
  -24.5620  -13.1270   20.6240 C   0  0  0  0  0  0  0  0  0  0  0  0
  -24.9520  -11.7550   20.5990 C   0  0  0  0  0  0  0  0  0  0  0  0
  -26.6460  -12.8950   19.9610 N   0  0  0  0  0  0  0  0  0  0  0  0
  -26.2250  -11.6390   20.2510 N   0  0  0  0  0  0  0  0  0  0  0  0
  -24.1700  -10.5320   20.8270 C   0  0  0  0  0  0  0  0  0  0  0  0
  -24.5590   -9.5780   21.7940 C   0  0  0  0  0  3  0  0  0  0  0  0
  -23.7840   -8.4180   22.0060 C   0  0  0  0  0  3  0  0  0  0  0  0
  -22.6060   -8.2070   21.2510 C   0  0  0  0  0  0  0  0  0  0  0  0
  -22.2370   -9.1470   20.2730 C   0  0  0  0  0  3  0  0  0  0  0  0
  -23.0130  -10.2970   20.0580 C   0  0  0  0  0  3  0  0  0  0  0  0
  -21.8000   -7.1010   21.3740 O   0  0  0  0  0  0  0  0  0  0  0  0
  -21.6790   -6.4250   22.5610 C   0  0  0  0  0  0  0  0  0  0  0  0
  -21.2390   -7.0640   23.7420 C   0  0  0  0  0  3  0  0  0  0  0  0
  -21.0640   -6.3160   24.9240 C   0  0  0  0  0  3  0  0  0  0  0  0
  -21.3180   -4.9310   24.9250 C   0  0  0  0  0  0  0  0  0  0  0  0
  -21.7510   -4.2930   23.7480 C   0  0  0  0  0  3  0  0  0  0  0  0
  -21.9290   -5.0390   22.5700 C   0  0  0  0  0  0  0  0  0  0  0  0
  -22.3260   -4.4150   21.4340 F   0  0  0  0  0  0  0  0  0  0  0  0
  -21.1430   -4.2100   26.0550 F   0  0  0  0  0  0  0  0  0  0  0  0
  -23.2010  -13.6790   20.9390 C   0  0  0  0  0  0  0  0  0  0  0  0
  -22.4690  -13.0300   21.8370 N   0  0  0  0  0  0  0  0  0  0  0  0
  -22.7970  -14.7200   20.4210 O   0  0  0  0  0  0  0  0  0  0  0  0
  -22.8060  -12.1850   22.2750 H   0  0  0  0  0  0  0  0  0  0  0  0
  -21.5550  -13.3790   22.0890 H   0  0  0  0  0  0  0  0  0  0  0  0
  -25.9040  -15.1930   20.0240 N   0  0  0  0  0  0  0  0  0  0  0  0
  -25.2240  -15.9180   20.2280 H   0  0  0  0  0  0  0  0  0  0  0  0
  -26.8490  -15.5500   19.9130 H   0  0  0  0  0  0  0  0  0  0  0  0
  -29.1790  -23.9410   21.2790 C   0  0  0  0  0  2  0  0  0  0  0  0
  -30.0090  -25.2370   21.0660 C   0  0  0  0  0  2  0  0  0  0  0  0
  -29.1860  -26.5410   21.1870 C   0  0  0  0  0  2  0  0  0  0  0  0
  -28.3890  -26.6700   20.0150 O   0  0  0  0  0  0  0  0  0  0  0  0
  -24.5580  -31.8190   23.1920 C   0  0  0  0  0  0  0  0  0  0  0  0
  -27.2590  -27.4510   20.0790 C   0  0  0  0  0  0  0  0  0  0  0  0
  -23.3730  -30.4410   21.5140 C   0  0  0  0  0  3  0  0  0  0  0  0
  -24.8530  -28.9310   20.0850 C   0  0  0  0  0  0  0  0  0  0  0  0
  -25.8970  -30.8170   21.3480 C   0  0  0  0  0  2  0  0  0  0  0  0
  -25.9990  -29.4530   20.7000 C   0  0  0  0  0  0  0  0  0  0  0  0
  -27.2040  -28.7180   20.7060 C   0  0  0  0  0  3  0  0  0  0  0  0
  -26.1050  -26.9480   19.4480 C   0  0  0  0  0  3  0  0  0  0  0  0
  -24.8980  -27.6740   19.4590 C   0  0  0  0  0  3  0  0  0  0  0  0
  -23.6010  -29.7810   20.1270 C   0  0  0  0  0  2  0  0  0  0  0  0
  -24.6270  -31.0390   22.0770 N   0  0  0  0  0  0  0  0  0  0  0  0
  -23.4720  -32.0790   23.7260 O   0  0  0  0  0  0  0  0  0  0  0  0
  -22.7170  -29.4000   22.4500 C   0  0  0  0  0  0  0  0  0  0  0  0
  -21.3900  -29.2390   22.3290 N   0  0  0  0  0  0  0  0  0  0  0  0
  -23.3990  -28.7440   23.2430 O   0  0  0  0  0  0  0  0  0  0  0  0
  -20.9020  -29.8210   21.6620 H   0  0  0  0  0  0  0  0  0  0  0  0
  -17.9990  -28.1090   22.8480 C   0  0  0  0  0  0  0  0  0  0  0  0
  -20.5670  -28.2940   23.0800 C   0  0  0  0  0  3  0  0  0  0  0  0
  -20.6240  -26.8830   22.4490 C   0  0  0  0  0  2  0  0  0  0  0  0
  -19.4950  -26.6260   21.4440 C   0  0  0  0  0  2  0  0  0  0  0  0
  -18.1290  -26.7820   22.1200 C   0  0  0  0  0  2  0  0  0  0  0  0
  -19.1440  -28.8260   23.2850 C   0  0  0  0  0  0  0  0  0  0  0  0
  -18.9700  -30.0710   23.9260 C   0  0  0  0  0  3  0  0  0  0  0  0
  -17.6820  -30.6000   24.1340 C   0  0  0  0  0  3  0  0  0  0  0  0
  -16.5510  -29.8790   23.7140 C   0  0  0  0  0  3  0  0  0  0  0  0
  -16.7100  -28.6350   23.0770 C   0  0  0  0  0  3  0  0  0  0  0  0
  -25.8370  -32.4440   23.8330 C   0  0  0  0  0  3  0  0  0  0  0  0
  -25.5260  -33.8410   24.1620 N   0  0  0  0  0  0  0  0  0  0  0  0
  -25.8880  -34.8950   23.4190 C   0  0  0  0  0  0  0  0  0  0  0  0
  -26.5860  -34.7940   22.4070 O   0  0  0  0  0  0  0  0  0  0  0  0
  -24.9050  -33.9940   24.9450 H   0  0  0  0  0  0  0  0  0  0  0  0
  -24.1820  -36.7010   23.0220 C   0  0  0  0  0  1  0  0  0  0  0  0
  -25.3950  -36.2840   23.8710 C   0  0  0  0  0  3  0  0  0  0  0  0
  -27.5080  -37.1470   24.7750 C   0  0  0  0  0  1  0  0  0  0  0  0
  -26.4380  -37.3300   23.7980 N   0  0  0  0  0  0  0  0  0  0  0  0
  -26.0330  -38.2520   23.9390 H   0  0  0  0  0  0  0  0  0  0  0  0
  -26.3370  -31.6640   25.1110 C   0  0  1  0  0  0  0  0  0  0  0  0
  -25.2300  -31.4220   26.1620 C   0  0  0  0  0  1  0  0  0  0  0  0
  -26.9240  -30.2880   24.7150 C   0  0  0  0  0  1  0  0  0  0  0  0
  -27.4790  -32.4550   25.7940 C   0  0  0  0  0  1  0  0  0  0  0  0
  2  4  1  0
  2 48  1  0
  2  1  1  0
  2  3  1  6
  5  4  1  0
  5  6  1  0
  7 11  1  0
  8  7  2  0
  9  8  1  0
  9 10  2  0
 10 11  1  0
 11  6  1  0
 12  8  1  0
 13 18  1  0
 14 15  1  0
 14 13  1  0
 16 15  1  0
 16 23  1  0
 16 17  1  0
 18 12  1  0
 18 17  1  0
 19 12  2  0
 20 21  2  0
 21 40  1  0
 22 21  1  0
 22 25  1  0
 23 20  1  0
 23 24  1  0
 24 22  2  0
 25 26  1  0
 26 27  2  0
 28 31  1  0
 28 27  1  0
 29 28  2  0
 30 29  1  0
 30 25  2  0
 31 32  1  0
 32 37  2  0
 32 33  1  0
 33 34  2  0
 34 35  1  0
 35 39  1  0
 36 35  2  0
 37 36  1  0
 38 37  1  0
 40 41  1  0
 41 44  1  0
 41 43  1  0
 42 40  2  0
 45 20  1  0
 45 46  1  0
 47 45  1  0
 49 50  1  0
 49 48  1  0
 51 53  1  0
 51 50  1  0
 52 63  2  0
 53 58  1  0
 54 62  1  0
 54 64  1  0
 55 61  1  0
 55 57  1  0
 56 62  1  0
 57 58  2  0
 57 56  1  0
 59 60  1  0
 59 53  2  0
 60 55  2  0
 61 54  1  0
 62 52  1  0
 64 66  2  0
 65 64  1  0
 67 65  1  0
 68 77  2  0
 68 73  1  0
 69 65  1  0
 69 73  1  0
 70 69  1  0
 71 72  1  0
 71 70  1  0
 72 68  1  0
 73 74  2  0
 74 75  1  0
 76 75  2  0
 77 76  1  0
 78 52  1  0
 78 79  1  0
 78 88  1  0
 79 82  1  0
 80 84  1  0
 80 79  1  0
 81 80  2  0
 84 83  1  0
 86 84  1  0
 86 87  1  0
 86 85  1  0
 88 91  1  1
 88 89  1  0
 90 88  1  0
M  ISO  4   8 100  12 100  50 101  51 101
M  END
>  <TORSDO>  (12) 
F 23

>  <SCORE>  (12) 
-12.535

>  <name>  (12) 
12

>  <ligand_id>  (12) 
12

>  <original_smiles>  (12) 
[H]c1c([H])c([H])c2c(c1[H])C([H])([H])C([H])([H])C([H])([H])C2([H])N([H])C(=O)C1([H])N(C(=O)C([H])(N([H])C(=O)C([H])(N([H])C([H])([H])[H])C([H])([H])[H])C(C([H])([H])[H])(C([H])([H])[H])C([H])([H])[H])C([H])([H])c2c([H])c(OC([H])([H])C([H])([H])C([H])([H])[N+]([H])(C([H])([H])[H])C([H])([H])C([H])([H])C([H])([H])n3nnc(C(=O)N4C([H])([H])C([H])([H])C([H])([H])C([H])(n5nc(-c6c([H])c([H])c(Oc7c([H])c([H])c(F)c([H])c7F)c([H])c6[H])c(C(=O)N([H])[H])c5N([H])[H])C4([H])[H])c3[H])c([H])c([H])c2C1([H])[H]

>  <smiles>  (12) 
[H]c1c([H])c([H])c2c(c1[H])C([H])([H])C([H])([H])C([H])([H])C2([H])N([H])C(=O)C1([H])N(C(=O)C([H])(N([H])C(=O)C([H])(N([H])C([H])([H])[H])C([H])([H])[H])C(C([H])([H])[H])(C([H])([H])[H])C([H])([H])[H])C([H])([H])c2c([H])c(OC([H])([H])C([H])([H])C([H])([H])[N+]([H])(C([H])([H])[H])C([H])([H])C([H])([H])C([H])([H])n3nnc(C(=O)N4C([H])([H])C([H])([H])C([H])([H])C([H])(n5nc(-c6c([H])c([H])c(Oc7c([H])c([H])c(F)c([H])c7F)c([H])c6[H])c(C(=O)N([H])[H])c5N([H])[H])C4([H])[H])c3[H])c([H])c([H])c2C1([H])[H]

$$$$
13:0:0
     RDKit          3D

 94102  0  0  1  0  0  0  0  0999 V2000
  -29.5050  -20.5130   21.2930 C   0  0  0  0  0  3  0  0  0  0  0  0
  -30.2400  -20.0270   20.1830 C   0  0  0  0  0  0  0  0  0  0  0  0
  -30.2600  -22.2600   19.3550 C   0  0  0  0  0  0  0  0  0  0  0  0
  -29.5650  -22.7630   20.5050 C   0  0  0  0  0  0  0  0  0  0  0  0
  -29.1940  -21.8390   21.4510 N   0  0  0  0  0  0  0  0  0  0  0  0
  -30.5960  -20.9310   19.2190 N   0  0  0  0  0  0  0  0  0  0  0  0
  -30.7890  -24.9580   21.0320 C   0  0  0  0  0  1  0  0  0  0  0  0
  -28.7030  -24.4260   22.2670 C   0  0  0  0  0  1  0  0  0  0  0  0
  -29.3850  -24.3100   20.8790 C   0  0  2  0  0  0  0  0  0  0  0  0
  -28.4630  -25.2150   19.9390 C   0  0  0  0  0  2  0  0  0  0  0  0
  -28.4490  -26.6470   20.2770 O   0  0  0  0  0  0  0  0  0  0  0  0
  -24.5930  -31.9110   23.2560 C   0  0  0  0  0  0  0  0  0  0  0  0
  -27.2810  -27.4140   20.2040 C   0  0  0  0  0  0  0  0  0  0  0  0
  -23.4120  -30.5070   21.6000 C   0  0  0  0  0  3  0  0  0  0  0  0
  -24.8870  -28.9690   20.1870 C   0  0  0  0  0  0  0  0  0  0  0  0
  -25.9470  -30.8520   21.4400 C   0  0  0  0  0  2  0  0  0  0  0  0
  -26.0420  -29.4790   20.7910 C   0  0  0  0  0  0  0  0  0  0  0  0
  -27.2380  -28.7100   20.7920 C   0  0  0  0  0  3  0  0  0  0  0  0
  -26.1050  -26.9470   19.5710 C   0  0  0  0  0  3  0  0  0  0  0  0
  -24.9190  -27.7060   19.5700 C   0  0  0  0  0  3  0  0  0  0  0  0
  -23.6420  -29.8280   20.2230 C   0  0  0  0  0  2  0  0  0  0  0  0
  -24.6670  -31.1070   22.1540 N   0  0  0  0  0  0  0  0  0  0  0  0
  -23.5060  -32.1810   23.7830 O   0  0  0  0  0  0  0  0  0  0  0  0
  -22.7460  -29.4880   22.5560 C   0  0  0  0  0  0  0  0  0  0  0  0
  -21.4210  -29.3100   22.4220 N   0  0  0  0  0  0  0  0  0  0  0  0
  -23.4210  -28.8590   23.3740 O   0  0  0  0  0  0  0  0  0  0  0  0
  -20.9370  -29.8700   21.7340 H   0  0  0  0  0  0  0  0  0  0  0  0
  -18.0400  -28.1230   22.9070 C   0  0  0  0  0  0  0  0  0  0  0  0
  -20.5980  -28.3710   23.1850 C   0  0  0  0  0  3  0  0  0  0  0  0
  -20.6960  -26.9420   22.6000 C   0  0  0  0  0  2  0  0  0  0  0  0
  -19.5940  -26.6320   21.5820 C   0  0  0  0  0  2  0  0  0  0  0  0
  -18.2120  -26.7770   22.2230 C   0  0  0  0  0  2  0  0  0  0  0  0
  -19.1580  -28.8790   23.3450 C   0  0  0  0  0  0  0  0  0  0  0  0
  -18.9410  -30.1400   23.9420 C   0  0  0  0  0  3  0  0  0  0  0  0
  -17.6370  -30.6430   24.1090 C   0  0  0  0  0  3  0  0  0  0  0  0
  -16.5320  -29.8830   23.6870 C   0  0  0  0  0  3  0  0  0  0  0  0
  -16.7340  -28.6260   23.0910 C   0  0  0  0  0  3  0  0  0  0  0  0
  -25.8690  -32.5480   23.8900 C   0  0  0  0  0  3  0  0  0  0  0  0
  -25.5550  -33.9480   24.2090 N   0  0  0  0  0  0  0  0  0  0  0  0
  -25.8970  -34.9970   23.4490 C   0  0  0  0  0  0  0  0  0  0  0  0
  -26.5780  -34.8900   22.4260 O   0  0  0  0  0  0  0  0  0  0  0  0
  -24.9510  -34.1060   25.0020 H   0  0  0  0  0  0  0  0  0  0  0  0
  -24.1750  -36.7910   23.0670 C   0  0  0  0  0  1  0  0  0  0  0  0
  -25.4060  -36.3890   23.8950 C   0  0  0  0  0  3  0  0  0  0  0  0
  -27.5280  -37.2770   24.7540 C   0  0  0  0  0  1  0  0  0  0  0  0
  -26.4410  -37.4400   23.7920 N   0  0  0  0  0  0  0  0  0  0  0  0
  -26.0330  -38.3610   23.9280 H   0  0  0  0  0  0  0  0  0  0  0  0
  -26.3720  -31.7840   25.1760 C   0  0  1  0  0  0  0  0  0  0  0  0
  -25.2680  -31.5510   26.2330 C   0  0  0  0  0  1  0  0  0  0  0  0
  -26.9590  -30.4030   24.7990 C   0  0  0  0  0  1  0  0  0  0  0  0
  -27.5140  -32.5830   25.8470 C   0  0  0  0  0  1  0  0  0  0  0  0
  -29.9730  -22.7760   16.8910 C   0  0  0  0  0  1  0  0  0  0  0  0
  -30.6990  -23.1460   18.1920 C   0  0  0  0  0  2  0  0  0  0  0  0
  -32.2320  -18.4260   20.3270 C   0  0  0  0  0  1  0  0  0  0  0  0
  -30.7340  -18.5330   19.9930 C   0  0  0  0  0  3  0  0  0  0  0  0
  -29.9550  -17.3090   20.6850 C   0  0  0  0  0  2  0  0  0  0  0  0
  -30.7060  -14.7960   20.3290 C   0  0  0  0  0  0  0  0  0  0  0  0
  -30.4770  -12.5010   19.3920 C   0  0  0  0  0  2  0  0  0  0  0  0
  -29.5500  -12.5250   18.1580 C   0  0  0  0  0  2  0  0  0  0  0  0
  -28.0630  -12.4530   18.5660 C   0  0  0  0  0  2  0  0  0  0  0  0
  -27.6880  -13.3280   19.7970 C   0  0  0  0  0  3  0  0  0  0  0  0
  -28.7550  -13.2650   20.9080 C   0  0  0  0  0  2  0  0  0  0  0  0
  -30.0460  -13.5900   20.2860 N   0  0  0  0  0  0  0  0  0  0  0  0
  -31.9350  -14.8400   20.2500 O   0  0  0  0  0  0  0  0  0  0  0  0
  -29.6090  -16.0970   18.6020 C   0  0  0  0  0  1  0  0  0  0  0  0
  -29.9730  -15.9360   20.0180 N   0  0  0  0  0  0  0  0  0  0  0  0
  -25.2900  -13.9220   20.4860 C   0  0  0  0  0  0  0  0  0  0  0  0
  -24.2220  -13.1510   20.8400 C   0  0  0  0  0  0  0  0  0  0  0  0
  -24.6920  -11.8010   20.8340 C   0  0  0  0  0  0  0  0  0  0  0  0
  -26.3430  -13.0450   20.2830 N   0  0  0  0  0  0  0  0  0  0  0  0
  -25.9910  -11.7650   20.5590 N   0  0  0  0  0  0  0  0  0  0  0  0
  -23.9700  -10.5370   21.0230 C   0  0  0  0  0  0  0  0  0  0  0  0
  -24.3920   -9.5780   21.9710 C   0  0  0  0  0  3  0  0  0  0  0  0
  -23.6680   -8.3810   22.1510 C   0  0  0  0  0  3  0  0  0  0  0  0
  -22.5090   -8.1300   21.3770 C   0  0  0  0  0  0  0  0  0  0  0  0
  -22.1060   -9.0760   20.4200 C   0  0  0  0  0  3  0  0  0  0  0  0
  -22.8300  -10.2670   20.2390 C   0  0  0  0  0  3  0  0  0  0  0  0
  -21.7610   -6.9810   21.4590 O   0  0  0  0  0  0  0  0  0  0  0  0
  -21.6950   -6.2480   22.6170 C   0  0  0  0  0  0  0  0  0  0  0  0
  -21.2400   -6.8100   23.8310 C   0  0  0  0  0  3  0  0  0  0  0  0
  -21.1220   -6.0040   24.9790 C   0  0  0  0  0  3  0  0  0  0  0  0
  -21.4550   -4.6360   24.9190 C   0  0  0  0  0  0  0  0  0  0  0  0
  -21.9000   -4.0730   23.7090 C   0  0  0  0  0  3  0  0  0  0  0  0
  -22.0210   -4.8780   22.5620 C   0  0  0  0  0  0  0  0  0  0  0  0
  -22.4310   -4.3260   21.3950 F   0  0  0  0  0  0  0  0  0  0  0  0
  -21.3340   -3.8590   26.0200 F   0  0  0  0  0  0  0  0  0  0  0  0
  -22.8160  -13.6220   21.0770 C   0  0  0  0  0  0  0  0  0  0  0  0
  -22.0770  -12.9340   21.9360 N   0  0  0  0  0  0  0  0  0  0  0  0
  -22.3860  -14.6420   20.5360 O   0  0  0  0  0  0  0  0  0  0  0  0
  -22.4420  -12.1090   22.3900 H   0  0  0  0  0  0  0  0  0  0  0  0
  -21.1360  -13.2340   22.1440 H   0  0  0  0  0  0  0  0  0  0  0  0
  -25.4550  -15.2940   20.2940 N   0  0  0  0  0  0  0  0  0  0  0  0
  -24.6870  -15.9490   20.3910 H   0  0  0  0  0  0  0  0  0  0  0  0
  -26.3230  -15.7380   20.0230 H   0  0  0  0  0  0  0  0  0  0  0  0
  1  5  1  0
  2  1  2  0
  3  4  1  0
  4  9  1  0
  4  5  2  0
  6  3  2  0
  6  2  1  0
  9  7  1  1
  9  8  1  0
 10 11  1  0
 10  9  1  0
 12 23  2  0
 13 11  1  0
 13 18  1  0
 14 22  1  0
 14 24  1  0
 15 21  1  0
 15 17  1  0
 16 22  1  0
 17 18  2  0
 17 16  1  0
 19 13  2  0
 20 19  1  0
 20 15  2  0
 21 14  1  0
 22 12  1  0
 24 26  2  0
 25 24  1  0
 27 25  1  0
 28 37  2  0
 28 33  1  0
 29 25  1  0
 29 33  1  0
 30 29  1  0
 31 32  1  0
 31 30  1  0
 32 28  1  0
 33 34  2  0
 34 35  1  0
 36 35  2  0
 37 36  1  0
 38 12  1  0
 38 39  1  0
 38 48  1  0
 39 42  1  0
 40 44  1  0
 40 39  1  0
 41 40  2  0
 44 43  1  0
 46 44  1  0
 46 47  1  0
 46 45  1  0
 48 51  1  1
 48 49  1  0
 50 48  1  0
 52 53  1  0
 53  3  1  0
 55  2  1  0
 55 54  1  0
 55 56  1  0
 58 63  1  0
 59 60  1  0
 59 58  1  0
 61 60  1  0
 61 70  1  0
 61 62  1  0
 63 57  1  0
 63 62  1  0
 64 57  2  0
 65 66  1  0
 66 57  1  0
 66 56  1  0
 67 68  2  0
 68 87  1  0
 69 68  1  0
 69 72  1  0
 70 67  1  0
 70 71  1  0
 71 69  2  0
 72 73  1  0
 73 74  2  0
 75 78  1  0
 75 74  1  0
 76 75  2  0
 77 76  1  0
 77 72  2  0
 78 79  1  0
 79 80  1  0
 80 81  2  0
 82 81  1  0
 82 86  1  0
 83 82  2  0
 84 79  2  0
 84 83  1  0
 85 84  1  0
 87 88  1  0
 88 91  1  0
 88 90  1  0
 89 87  2  0
 92 93  1  0
 92 67  1  0
 94 92  1  0
M  ISO  4  10 101  11 101  57 100  66 100
M  END
>  <TORSDO>  (13) 
F 21

>  <SCORE>  (13) 
-13.445

>  <name>  (13) 
13

>  <ligand_id>  (13) 
13

>  <original_smiles>  (13) 
[H]c1nc(C(C([H])([H])[H])(C([H])([H])[H])C([H])([H])Oc2c([H])c([H])c3c(c2[H])C([H])([H])N(C(=O)C([H])(N([H])C(=O)C([H])(N([H])C([H])([H])[H])C([H])([H])[H])C(C([H])([H])[H])(C([H])([H])[H])C([H])([H])[H])C([H])(C(=O)N([H])C2([H])c4c([H])c([H])c([H])c([H])c4C([H])([H])C([H])([H])C2([H])[H])C3([H])[H])c(C([H])([H])C([H])([H])[H])nc1C([H])(C([H])([H])[H])C([H])([H])N(C(=O)N1C([H])([H])C([H])([H])C([H])([H])C([H])(n2nc(-c3c([H])c([H])c(Oc4c([H])c([H])c(F)c([H])c4F)c([H])c3[H])c(C(=O)N([H])[H])c2N([H])[H])C1([H])[H])C([H])([H])[H]

>  <smiles>  (13) 
[H]c1nc(C(C([H])([H])[H])(C([H])([H])[H])C([H])([H])Oc2c([H])c([H])c3c(c2[H])C([H])([H])N(C(=O)C([H])(N([H])C(=O)C([H])(N([H])C([H])([H])[H])C([H])([H])[H])C(C([H])([H])[H])(C([H])([H])[H])C([H])([H])[H])C([H])(C(=O)N([H])C2([H])c4c([H])c([H])c([H])c([H])c4C([H])([H])C([H])([H])C2([H])[H])C3([H])[H])c(C([H])([H])C([H])([H])[H])nc1C([H])(C([H])([H])[H])C([H])([H])N(C(=O)N1C([H])([H])C([H])([H])C([H])([H])C([H])(n2nc(-c3c([H])c([H])c(Oc4c([H])c([H])c(F)c([H])c4F)c([H])c3[H])c(C(=O)N([H])[H])c2N([H])[H])C1([H])[H])C([H])([H])[H]

$$$$
15:0:0
     RDKit          3D

 92100  0  0  1  0  0  0  0  0999 V2000
  -27.2250  -22.0040   21.1920 C   0  0  0  0  0  1  0  0  0  0  0  0
  -27.3220  -22.2110   18.7150 C   0  0  0  0  0  1  0  0  0  0  0  0
  -28.1840  -22.2120   19.9960 C   0  0  2  0  0  0  0  0  0  0  0  0
  -29.1930  -19.8140   20.7430 C   0  0  0  0  0  3  0  0  0  0  0  0
  -29.7990  -20.5400   18.8250 C   0  0  0  0  0  3  0  0  0  0  0  0
  -29.9450  -18.7830   20.1460 C   0  0  0  0  0  0  0  0  0  0  0  0
  -30.3050  -19.2910   18.8920 N   0  0  0  0  0  0  0  0  0  0  0  0
  -29.0650  -20.9480   19.8820 N   0  0  0  0  0  0  0  0  0  0  0  0
  -30.1150  -17.3540   22.2220 C   0  0  0  0  0  1  0  0  0  0  0  0
  -32.0820  -17.6160   20.7650 C   0  0  0  0  0  1  0  0  0  0  0  0
  -30.5460  -17.4310   20.7420 C   0  0  2  0  0  0  0  0  0  0  0  0
  -30.8760  -14.8920   19.9120 C   0  0  0  0  0  0  0  0  0  0  0  0
  -30.5700  -12.5900   18.9680 C   0  0  0  0  0  2  0  0  0  0  0  0
  -29.5730  -12.6120   17.7930 C   0  0  0  0  0  2  0  0  0  0  0  0
  -28.1260  -12.4780   18.3030 C   0  0  0  0  0  2  0  0  0  0  0  0
  -27.8200  -13.4280   19.4910 C   0  0  0  0  0  3  0  0  0  0  0  0
  -28.9330  -13.3810   20.5600 C   0  0  0  0  0  2  0  0  0  0  0  0
  -30.1970  -13.6940   19.8800 N   0  0  0  0  0  0  0  0  0  0  0  0
  -32.0550  -14.9270   19.5540 O   0  0  0  0  0  0  0  0  0  0  0  0
  -30.1600  -16.0520   20.1850 N   0  0  0  0  0  0  0  0  0  0  0  0
  -29.1690  -15.8850   20.2380 H   0  0  0  0  0  0  0  0  0  0  0  0
  -25.4990  -14.0870   20.3600 C   0  0  0  0  0  0  0  0  0  0  0  0
  -24.4310  -13.3430   20.7760 C   0  0  0  0  0  0  0  0  0  0  0  0
  -24.8480  -11.9780   20.7150 C   0  0  0  0  0  0  0  0  0  0  0  0
  -26.5000  -13.1770   20.0570 N   0  0  0  0  0  0  0  0  0  0  0  0
  -26.1200  -11.9040   20.3370 N   0  0  0  0  0  0  0  0  0  0  0  0
  -24.0960  -10.7380   20.9350 C   0  0  0  0  0  0  0  0  0  0  0  0
  -24.5190   -9.7760   21.8780 C   0  0  0  0  0  3  0  0  0  0  0  0
  -23.7670   -8.6000   22.0880 C   0  0  0  0  0  3  0  0  0  0  0  0
  -22.5770   -8.3780   21.3550 C   0  0  0  0  0  0  0  0  0  0  0  0
  -22.1710   -9.3300   20.4020 C   0  0  0  0  0  3  0  0  0  0  0  0
  -22.9230  -10.4980   20.1900 C   0  0  0  0  0  3  0  0  0  0  0  0
  -21.7960   -7.2560   21.4740 O   0  0  0  0  0  0  0  0  0  0  0  0
  -21.7060   -6.5620   22.6550 C   0  0  0  0  0  0  0  0  0  0  0  0
  -21.2750   -7.1810   23.8510 C   0  0  0  0  0  3  0  0  0  0  0  0
  -21.1320   -6.4160   25.0250 C   0  0  0  0  0  3  0  0  0  0  0  0
  -21.4060   -5.0360   25.0060 C   0  0  0  0  0  0  0  0  0  0  0  0
  -21.8290   -4.4170   23.8160 C   0  0  0  0  0  3  0  0  0  0  0  0
  -21.9750   -5.1790   22.6430 C   0  0  0  0  0  0  0  0  0  0  0  0
  -22.3630   -4.5750   21.4930 F   0  0  0  0  0  0  0  0  0  0  0  0
  -21.2600   -4.2980   26.1320 F   0  0  0  0  0  0  0  0  0  0  0  0
  -23.0640  -13.8600   21.1220 C   0  0  0  0  0  0  0  0  0  0  0  0
  -22.3700  -13.1900   22.0340 N   0  0  0  0  0  0  0  0  0  0  0  0
  -22.6260  -14.8950   20.6210 O   0  0  0  0  0  0  0  0  0  0  0  0
  -22.7370  -12.3520   22.4580 H   0  0  0  0  0  0  0  0  0  0  0  0
  -21.4550  -13.5200   22.3110 H   0  0  0  0  0  0  0  0  0  0  0  0
  -25.7030  -15.4530   20.1870 N   0  0  0  0  0  0  0  0  0  0  0  0
  -24.9780  -16.1370   20.3820 H   0  0  0  0  0  0  0  0  0  0  0  0
  -26.5560  -15.8710   19.8390 H   0  0  0  0  0  0  0  0  0  0  0  0
  -28.8360  -23.7090   20.1410 C   0  0  0  0  0  3  0  0  0  0  0  0
  -27.8870  -24.9890   19.7990 C   0  0  0  0  0  3  0  0  0  0  0  0
  -28.1610  -26.4490   20.0580 O   0  0  0  0  0  0  0  0  0  0  0  0
  -24.5150  -31.9070   23.1770 C   0  0  0  0  0  0  0  0  0  0  0  0
  -27.0640  -27.3500   20.0160 C   0  0  0  0  0  0  0  0  0  0  0  0
  -23.2740  -30.5010   21.5730 C   0  0  0  0  0  3  0  0  0  0  0  0
  -24.6940  -28.9800   20.0860 C   0  0  0  0  0  0  0  0  0  0  0  0
  -25.8080  -30.8350   21.3160 C   0  0  0  0  0  2  0  0  0  0  0  0
  -25.8790  -29.4580   20.6590 C   0  0  0  0  0  0  0  0  0  0  0  0
  -27.0660  -28.6530   20.6190 C   0  0  0  0  0  3  0  0  0  0  0  0
  -25.8550  -26.9580   19.3910 C   0  0  0  0  0  3  0  0  0  0  0  0
  -24.6880  -27.7390   19.4400 C   0  0  0  0  0  3  0  0  0  0  0  0
  -23.4500  -29.8400   20.1830 C   0  0  0  0  0  2  0  0  0  0  0  0
  -24.5530  -31.1000   22.0760 N   0  0  0  0  0  0  0  0  0  0  0  0
  -23.4450  -32.1720   23.7460 O   0  0  0  0  0  0  0  0  0  0  0  0
  -22.6530  -29.4750   22.5510 C   0  0  0  0  0  0  0  0  0  0  0  0
  -21.3300  -29.2620   22.4470 N   0  0  0  0  0  0  0  0  0  0  0  0
  -23.3600  -28.8730   23.3640 O   0  0  0  0  0  0  0  0  0  0  0  0
  -20.8180  -29.7920   21.7550 H   0  0  0  0  0  0  0  0  0  0  0  0
  -17.9990  -27.9570   22.9920 C   0  0  0  0  0  0  0  0  0  0  0  0
  -20.5460  -28.3170   23.2440 C   0  0  0  0  0  3  0  0  0  0  0  0
  -20.6970  -26.8760   22.7060 C   0  0  0  0  0  2  0  0  0  0  0  0
  -19.6080  -26.4920   21.6990 C   0  0  0  0  0  2  0  0  0  0  0  0
  -18.2220  -26.6010   22.3410 C   0  0  0  0  0  2  0  0  0  0  0  0
  -19.0900  -28.7690   23.4000 C   0  0  0  0  0  0  0  0  0  0  0  0
  -18.8280  -30.0340   23.9680 C   0  0  0  0  0  3  0  0  0  0  0  0
  -17.5070  -30.4890   24.1350 C   0  0  0  0  0  3  0  0  0  0  0  0
  -16.4300  -29.6730   23.7450 C   0  0  0  0  0  3  0  0  0  0  0  0
  -16.6750  -28.4100   23.1790 C   0  0  0  0  0  3  0  0  0  0  0  0
  -25.8090  -32.5540   23.7580 C   0  0  0  0  0  3  0  0  0  0  0  0
  -26.3740  -31.7860   25.0160 C   0  0  1  0  0  0  0  0  0  0  0  0
  -25.3180  -31.5360   26.1190 C   0  0  0  0  0  1  0  0  0  0  0  0
  -26.9590  -30.4140   24.6070 C   0  0  0  0  0  1  0  0  0  0  0  0
  -27.5370  -32.5920   25.6420 C   0  0  0  0  0  1  0  0  0  0  0  0
  -25.4930  -33.9480   24.1030 N   0  0  0  0  0  0  0  0  0  0  0  0
  -25.8010  -35.0100   23.3460 C   0  0  0  0  0  0  0  0  0  0  0  0
  -26.4530  -34.9200   22.3010 O   0  0  0  0  0  0  0  0  0  0  0  0
  -24.9100  -34.0920   24.9150 H   0  0  0  0  0  0  0  0  0  0  0  0
  -24.0590  -36.7980   23.0350 C   0  0  0  0  0  1  0  0  0  0  0  0
  -25.3140  -36.3900   23.8250 C   0  0  0  0  0  3  0  0  0  0  0  0
  -27.4530  -37.2800   24.6350 C   0  0  0  0  0  1  0  0  0  0  0  0
  -26.3370  -37.4510   23.7080 N   0  0  0  0  0  0  0  0  0  0  0  0
  -25.9280  -38.3670   23.8700 H   0  0  0  0  0  0  0  0  0  0  0  0
  3  2  1  6
  3 50  1  0
  3  1  1  0
  5  7  2  0
  5  8  1  0
  6 11  1  0
  6  4  2  0
  7  6  1  0
  8  3  1  0
  8  4  1  0
 11 10  1  1
 11  9  1  0
 12 20  1  0
 13 18  1  0
 14 15  1  0
 14 13  1  0
 16 15  1  0
 16 25  1  0
 16 17  1  0
 18 12  1  0
 18 17  1  0
 19 12  2  0
 20 21  1  0
 20 11  1  0
 22 23  2  0
 23 42  1  0
 24 23  1  0
 24 27  1  0
 25 26  1  0
 25 22  1  0
 26 24  2  0
 27 28  1  0
 28 29  2  0
 30 33  1  0
 30 29  1  0
 31 30  2  0
 32 31  1  0
 32 27  2  0
 33 34  1  0
 34 35  1  0
 35 36  2  0
 37 36  1  0
 37 41  1  0
 38 37  2  0
 39 34  2  0
 39 38  1  0
 40 39  1  0
 42 43  1  0
 43 46  1  0
 43 45  1  0
 44 42  2  0
 47 22  1  0
 47 48  1  0
 49 47  1  0
 51 52  1  0
 51 50  2  0
 53 64  2  0
 54 52  1  0
 54 59  1  0
 55 63  1  0
 55 65  1  0
 56 62  1  0
 56 58  1  0
 57 63  1  0
 58 57  1  0
 59 58  2  0
 60 61  1  0
 60 54  2  0
 61 56  2  0
 62 55  1  0
 63 53  1  0
 65 67  2  0
 66 65  1  0
 68 66  1  0
 69 78  2  0
 69 74  1  0
 70 66  1  0
 70 74  1  0
 71 70  1  0
 72 73  1  0
 72 71  1  0
 73 69  1  0
 74 75  2  0
 75 76  1  0
 77 76  2  0
 78 77  1  0
 79 53  1  0
 79 84  1  0
 79 80  1  0
 80 83  1  1
 80 81  1  0
 82 80  1  0
 84 87  1  0
 85 89  1  0
 85 84  1  0
 86 85  2  0
 89 88  1  0
 91 89  1  0
 91 92  1  0
 91 90  1  0
M  ISO  4  12 100  20 100  51 101  52 101
M  END
>  <TORSDO>  (14) 
F 20

>  <SCORE>  (14) 
-13.213

>  <name>  (14) 
15

>  <ligand_id>  (14) 
15

>  <original_smiles>  (14) 
[H]c1c([H])c([H])c2c(c1[H])C([H])([H])C([H])([H])C([H])([H])C2([H])N([H])C(=O)C1([H])N(C(=O)C([H])(N([H])C(=O)C([H])(N([H])C([H])([H])[H])C([H])([H])[H])C(C([H])([H])[H])(C([H])([H])[H])C([H])([H])[H])C([H])([H])c2c([H])c(OC([H])([H])C([H])([H])C(n3c([H])nc(C(N([H])C(=O)N4C([H])([H])C([H])([H])C([H])([H])C([H])(n5nc(-c6c([H])c([H])c(Oc7c([H])c([H])c(F)c([H])c7F)c([H])c6[H])c(C(=O)N([H])[H])c5N([H])[H])C4([H])[H])(C([H])([H])[H])C([H])([H])[H])c3[H])(C([H])([H])[H])C([H])([H])[H])c([H])c([H])c2C1([H])[H]

>  <smiles>  (14) 
[H]c1c([H])c([H])c2c(c1[H])C([H])([H])C([H])([H])C([H])([H])C2([H])N([H])C(=O)C1([H])N(C(=O)C([H])(N([H])C(=O)C([H])(N([H])C([H])([H])[H])C([H])([H])[H])C(C([H])([H])[H])(C([H])([H])[H])C([H])([H])[H])C([H])([H])c2c([H])c(OC([H])([H])C([H])([H])C(n3c([H])nc(C(N([H])C(=O)N4C([H])([H])C([H])([H])C([H])([H])C([H])(n5nc(-c6c([H])c([H])c(Oc7c([H])c([H])c(F)c([H])c7F)c([H])c6[H])c(C(=O)N([H])[H])c5N([H])[H])C4([H])[H])(C([H])([H])[H])C([H])([H])[H])c3[H])(C([H])([H])[H])C([H])([H])[H])c([H])c([H])c2C1([H])[H]

$$$$
16:0:0
     RDKit          3D

 90 98  0  0  1  0  0  0  0  0999 V2000
  -30.4780  -20.0330   19.1880 C   0  0  0  0  0  3  0  0  0  0  0  0
  -29.6220  -20.4040   20.2100 C   0  0  0  0  0  0  0  0  0  0  0  0
  -30.0780  -18.0340   20.2410 C   0  0  0  0  0  3  0  0  0  0  0  0
  -31.5360  -17.9200   18.2490 C   0  0  0  0  0  1  0  0  0  0  0  0
  -30.7180  -18.6470   19.2180 N   0  0  0  0  0  0  0  0  0  0  0  0
  -29.4440  -19.1290   20.8280 N   0  0  0  0  0  0  0  0  0  0  0  0
  -28.8510  -19.0150   21.6410 H   0  0  0  0  0  0  0  0  0  0  0  0
  -28.3950  -16.3490   20.7990 C   0  0  0  0  0  1  0  0  0  0  0  0
  -30.4800  -16.4220   22.1650 C   0  0  0  0  0  1  0  0  0  0  0  0
  -29.9320  -16.4470   20.7210 C   0  0  2  0  0  0  0  0  0  0  0  0
  -30.6120  -15.0410   20.0390 C   0  0  0  0  0  0  0  0  0  0  0  0
  -30.4690  -12.7470   18.9080 C   0  0  0  0  0  2  0  0  0  0  0  0
  -29.4330  -12.7520   17.7560 C   0  0  0  0  0  2  0  0  0  0  0  0
  -28.0010  -12.4980   18.2730 C   0  0  0  0  0  2  0  0  0  0  0  0
  -27.6900  -13.3280   19.5440 C   0  0  0  0  0  3  0  0  0  0  0  0
  -28.8400  -13.1910   20.5720 C   0  0  0  0  0  2  0  0  0  0  0  0
  -30.0450  -13.7540   19.9340 N   0  0  0  0  0  0  0  0  0  0  0  0
  -31.7550  -15.1210   19.5760 O   0  0  0  0  0  0  0  0  0  0  0  0
  -25.3360  -13.8900   20.4060 C   0  0  0  0  0  0  0  0  0  0  0  0
  -24.3030  -13.1050   20.8270 C   0  0  0  0  0  0  0  0  0  0  0  0
  -24.7730  -11.7600   20.7430 C   0  0  0  0  0  0  0  0  0  0  0  0
  -26.3780  -13.0250   20.1050 N   0  0  0  0  0  0  0  0  0  0  0  0
  -26.0460  -11.7360   20.3660 N   0  0  0  0  0  0  0  0  0  0  0  0
  -24.0640  -10.4920   20.9450 C   0  0  0  0  0  0  0  0  0  0  0  0
  -24.5170   -9.5340   21.8780 C   0  0  0  0  0  3  0  0  0  0  0  0
  -23.8050   -8.3300   22.0690 C   0  0  0  0  0  3  0  0  0  0  0  0
  -22.6280   -8.0760   21.3270 C   0  0  0  0  0  0  0  0  0  0  0  0
  -22.1950   -9.0230   20.3820 C   0  0  0  0  0  3  0  0  0  0  0  0
  -22.9060  -10.2180   20.1890 C   0  0  0  0  0  3  0  0  0  0  0  0
  -21.8890   -6.9240   21.4270 O   0  0  0  0  0  0  0  0  0  0  0  0
  -21.8150   -6.2160   22.6000 C   0  0  0  0  0  0  0  0  0  0  0  0
  -21.3080   -6.7900   23.7860 C   0  0  0  0  0  3  0  0  0  0  0  0
  -21.1870   -6.0060   24.9510 C   0  0  0  0  0  3  0  0  0  0  0  0
  -21.5620   -4.6500   24.9300 C   0  0  0  0  0  0  0  0  0  0  0  0
  -22.0610   -4.0750   23.7480 C   0  0  0  0  0  3  0  0  0  0  0  0
  -22.1850   -4.8560   22.5850 C   0  0  0  0  0  0  0  0  0  0  0  0
  -22.6480   -4.2920   21.4430 F   0  0  0  0  0  0  0  0  0  0  0  0
  -21.4380   -3.8940   26.0460 F   0  0  0  0  0  0  0  0  0  0  0  0
  -22.9210  -13.5710   21.1850 C   0  0  0  0  0  0  0  0  0  0  0  0
  -22.2450  -12.8560   22.0770 N   0  0  0  0  0  0  0  0  0  0  0  0
  -22.4520  -14.6050   20.7110 O   0  0  0  0  0  0  0  0  0  0  0  0
  -22.6380  -12.0200   22.4830 H   0  0  0  0  0  0  0  0  0  0  0  0
  -21.3200  -13.1500   22.3590 H   0  0  0  0  0  0  0  0  0  0  0  0
  -25.4540  -15.2640   20.2280 N   0  0  0  0  0  0  0  0  0  0  0  0
  -24.6750  -15.8920   20.3860 H   0  0  0  0  0  0  0  0  0  0  0  0
  -26.2670  -15.7280   19.8470 H   0  0  0  0  0  0  0  0  0  0  0  0
  -28.8490  -21.7970   20.6160 C   0  0  0  0  0  2  0  0  0  0  0  0
  -29.2560  -23.3970   20.2880 C   0  0  0  0  0  3  0  0  0  0  0  0
  -28.1840  -24.6850   20.4980 C   0  0  0  0  0  3  0  0  0  0  0  0
  -28.4290  -26.2230   20.3990 O   0  0  0  0  0  0  0  0  0  0  0  0
  -24.6650  -31.8990   23.2590 C   0  0  0  0  0  0  0  0  0  0  0  0
  -27.3420  -27.1740   20.3380 C   0  0  0  0  0  0  0  0  0  0  0  0
  -23.5020  -30.4670   21.6240 C   0  0  0  0  0  3  0  0  0  0  0  0
  -24.9880  -28.8850   20.2500 C   0  0  0  0  0  0  0  0  0  0  0  0
  -26.0560  -30.7570   21.4930 C   0  0  0  0  0  2  0  0  0  0  0  0
  -26.1540  -29.3560   20.8650 C   0  0  0  0  0  0  0  0  0  0  0  0
  -27.3310  -28.5170   20.8900 C   0  0  0  0  0  3  0  0  0  0  0  0
  -26.1460  -26.8030   19.6820 C   0  0  0  0  0  3  0  0  0  0  0  0
  -24.9950  -27.6200   19.6430 C   0  0  0  0  0  3  0  0  0  0  0  0
  -23.7500  -29.7700   20.2610 C   0  0  0  0  0  2  0  0  0  0  0  0
  -24.7600  -31.0630   22.1810 N   0  0  0  0  0  0  0  0  0  0  0  0
  -23.5690  -32.1820   23.7660 O   0  0  0  0  0  0  0  0  0  0  0  0
  -22.8180  -29.4700   22.5920 C   0  0  0  0  0  0  0  0  0  0  0  0
  -21.4920  -29.2900   22.4510 N   0  0  0  0  0  0  0  0  0  0  0  0
  -23.4820  -28.8590   23.4320 O   0  0  0  0  0  0  0  0  0  0  0  0
  -21.0120  -29.8340   21.7470 H   0  0  0  0  0  0  0  0  0  0  0  0
  -18.1090  -28.0910   22.9380 C   0  0  0  0  0  0  0  0  0  0  0  0
  -20.6650  -28.3600   23.2250 C   0  0  0  0  0  3  0  0  0  0  0  0
  -20.7750  -26.9230   22.6670 C   0  0  0  0  0  2  0  0  0  0  0  0
  -19.6800  -26.5860   21.6470 C   0  0  0  0  0  2  0  0  0  0  0  0
  -18.2940  -26.7360   22.2770 C   0  0  0  0  0  2  0  0  0  0  0  0
  -19.2230  -28.8610   23.3690 C   0  0  0  0  0  0  0  0  0  0  0  0
  -18.9950  -30.1280   23.9480 C   0  0  0  0  0  3  0  0  0  0  0  0
  -17.6880  -30.6250   24.1010 C   0  0  0  0  0  3  0  0  0  0  0  0
  -16.5890  -29.8530   23.6860 C   0  0  0  0  0  3  0  0  0  0  0  0
  -16.8000  -28.5880   23.1100 C   0  0  0  0  0  3  0  0  0  0  0  0
  -25.9290  -32.5550   23.8960 C   0  0  0  0  0  3  0  0  0  0  0  0
  -26.4220  -31.8120   25.1980 C   0  0  1  0  0  0  0  0  0  0  0  0
  -25.3090  -31.5820   26.2450 C   0  0  0  0  0  1  0  0  0  0  0  0
  -27.0280  -30.4330   24.8480 C   0  0  0  0  0  1  0  0  0  0  0  0
  -27.5500  -32.6300   25.8700 C   0  0  0  0  0  1  0  0  0  0  0  0
  -25.6000  -33.9560   24.2000 N   0  0  0  0  0  0  0  0  0  0  0  0
  -25.9370  -35.0040   23.4350 C   0  0  0  0  0  0  0  0  0  0  0  0
  -26.6230  -34.8920   22.4160 O   0  0  0  0  0  0  0  0  0  0  0  0
  -24.9910  -34.1160   24.9890 H   0  0  0  0  0  0  0  0  0  0  0  0
  -24.2100  -36.7880   23.0280 C   0  0  0  0  0  1  0  0  0  0  0  0
  -25.4360  -36.3950   23.8690 C   0  0  0  0  0  3  0  0  0  0  0  0
  -27.5450  -37.3020   24.7410 C   0  0  0  0  0  1  0  0  0  0  0  0
  -26.4660  -37.4510   23.7680 N   0  0  0  0  0  0  0  0  0  0  0  0
  -26.0520  -38.3720   23.8910 H   0  0  0  0  0  0  0  0  0  0  0  0
  1  5  1  0
  1  2  2  0
  2 47  1  0
  2  6  1  0
  3 10  1  0
  3  6  1  0
  4  5  1  0
  5  3  1  0
  6  7  1  0
 10  8  1  1
 10  9  1  0
 11 10  1  0
 12 17  1  0
 13 14  1  0
 13 12  1  0
 15 14  1  0
 15 22  1  0
 15 16  1  0
 17 11  1  0
 17 16  1  0
 18 11  2  0
 19 20  2  0
 20 39  1  0
 21 20  1  0
 21 24  1  0
 22 23  1  0
 22 19  1  0
 23 21  2  0
 24 25  1  0
 25 26  2  0
 27 30  1  0
 27 26  1  0
 28 27  2  0
 29 28  1  0
 29 24  2  0
 30 31  1  0
 31 32  1  0
 32 33  2  0
 34 33  1  0
 34 38  1  0
 35 34  2  0
 36 31  2  0
 36 35  1  0
 37 36  1  0
 39 40  1  0
 40 43  1  0
 40 42  1  0
 41 39  2  0
 44 45  1  0
 44 19  1  0
 46 44  1  0
 48 49  2  0
 48 47  1  0
 50 49  1  0
 51 62  2  0
 52 50  1  0
 52 57  1  0
 53 61  1  0
 53 63  1  0
 54 60  1  0
 54 56  1  0
 55 61  1  0
 56 57  2  0
 56 55  1  0
 58 52  2  0
 59 58  1  0
 59 54  2  0
 60 53  1  0
 61 51  1  0
 63 65  2  0
 64 63  1  0
 66 64  1  0
 67 76  2  0
 67 72  1  0
 68 64  1  0
 68 72  1  0
 69 68  1  0
 70 71  1  0
 70 69  1  0
 71 67  1  0
 72 73  2  0
 73 74  1  0
 75 74  2  0
 76 75  1  0
 77 51  1  0
 77 82  1  0
 77 78  1  0
 78 81  1  1
 78 79  1  0
 80 78  1  0
 82 85  1  0
 83 87  1  0
 83 82  1  0
 84 83  2  0
 87 86  1  0
 89 87  1  0
 89 90  1  0
 89 88  1  0
M  ISO  4  10 100  11 100  49 101  50 101
M  END
>  <TORSDO>  (15) 
F 20

>  <SCORE>  (15) 
-14.175

>  <name>  (15) 
16

>  <ligand_id>  (15) 
16

>  <original_smiles>  (15) 
[H]c1c([H])c([H])c2c(c1[H])C([H])([H])C([H])([H])C([H])([H])C2([H])N([H])C(=O)C1([H])N(C(=O)C([H])(N([H])C(=O)C([H])(N([H])C([H])([H])[H])C([H])([H])[H])C(C([H])([H])[H])(C([H])([H])[H])C([H])([H])[H])C([H])([H])c2c([H])c(OC([H])([H])C([H])([H])C([H])([H])c3c([H])n(C([H])([H])[H])c(C(C(=O)N4C([H])([H])C([H])([H])C([H])([H])C([H])(n5nc(-c6c([H])c([H])c(Oc7c([H])c([H])c(F)c([H])c7F)c([H])c6[H])c(C(=O)N([H])[H])c5N([H])[H])C4([H])[H])(C([H])([H])[H])C([H])([H])[H])[n+]3[H])c([H])c([H])c2C1([H])[H]

>  <smiles>  (15) 
[H]c1c([H])c([H])c2c(c1[H])C([H])([H])C([H])([H])C([H])([H])C2([H])N([H])C(=O)C1([H])N(C(=O)C([H])(N([H])C(=O)C([H])(N([H])C([H])([H])[H])C([H])([H])[H])C(C([H])([H])[H])(C([H])([H])[H])C([H])([H])[H])C([H])([H])c2c([H])c(OC([H])([H])C([H])([H])C([H])([H])c3c([H])n(C([H])([H])[H])c(C(C(=O)N4C([H])([H])C([H])([H])C([H])([H])C([H])(n5nc(-c6c([H])c([H])c(Oc7c([H])c([H])c(F)c([H])c7F)c([H])c6[H])c(C(=O)N([H])[H])c5N([H])[H])C4([H])[H])(C([H])([H])[H])C([H])([H])[H])[n+]3[H])c([H])c([H])c2C1([H])[H]

$$$$
17:0:0
     RDKit          3D

 97105  0  0  1  0  0  0  0  0999 V2000
  -30.4950  -21.3980   19.3690 C   0  0  0  0  0  1  0  0  0  0  0  0
  -29.1030  -20.8740   19.3360 N   0  0  2  0  0  4  0  0  0  0  0  0
  -28.9480  -20.5810   20.2880 H   0  0  0  0  0  0  0  0  0  0  0  0
  -28.6540  -19.8360   17.0330 C   0  0  0  0  0  1  0  0  0  0  0  0
  -29.0220  -19.6000   18.5190 C   0  0  0  0  0  3  0  0  0  0  0  0
  -28.1190  -18.4900   19.1420 C   0  0  0  0  0  2  0  0  0  0  0  0
  -29.2170  -15.8450   21.4040 C   0  0  0  0  0  3  0  0  0  0  0  0
  -28.3460  -16.8400   21.0660 C   0  0  0  0  0  3  0  0  0  0  0  0
  -30.1930  -15.8370   20.3650 C   0  0  0  0  0  0  0  0  0  0  0  0
  -29.8920  -16.7570   19.4380 N   0  0  0  0  0  0  0  0  0  0  0  0
  -28.7880  -17.4150   19.8930 N   0  0  0  0  0  0  0  0  0  0  0  0
  -31.9010  -14.5060   21.7340 C   0  0  0  0  0  1  0  0  0  0  0  0
  -32.6270  -16.0200   19.9440 C   0  0  0  0  0  1  0  0  0  0  0  0
  -31.4960  -15.0200   20.3260 C   0  0  2  0  0  0  0  0  0  0  0  0
  -31.4940  -13.8310   19.2980 C   0  0  0  0  0  0  0  0  0  0  0  0
  -30.8530  -11.5680   18.5270 C   0  0  0  0  0  2  0  0  0  0  0  0
  -29.8060  -11.6240   17.4020 C   0  0  0  0  0  2  0  0  0  0  0  0
  -28.3860  -11.6390   17.9960 C   0  0  0  0  0  2  0  0  0  0  0  0
  -28.2310  -12.7140   19.1060 C   0  0  0  0  0  3  0  0  0  0  0  0
  -29.3920  -12.6690   20.1220 C   0  0  0  0  0  2  0  0  0  0  0  0
  -30.6660  -12.7500   19.3900 N   0  0  0  0  0  0  0  0  0  0  0  0
  -32.3700  -13.8510   18.4220 O   0  0  0  0  0  0  0  0  0  0  0  0
  -26.0850  -13.6420   20.1820 C   0  0  0  0  0  0  0  0  0  0  0  0
  -24.9720  -13.0260   20.6850 C   0  0  0  0  0  0  0  0  0  0  0  0
  -25.2050  -11.6220   20.5540 C   0  0  0  0  0  0  0  0  0  0  0  0
  -26.9340  -12.6240   19.7750 N   0  0  0  0  0  0  0  0  0  0  0  0
  -26.4150  -11.4010   20.0560 N   0  0  0  0  0  0  0  0  0  0  0  0
  -24.3240  -10.4780   20.8250 C   0  0  0  0  0  0  0  0  0  0  0  0
  -24.6970   -9.4530   21.7210 C   0  0  0  0  0  3  0  0  0  0  0  0
  -23.8270   -8.3710   21.9770 C   0  0  0  0  0  3  0  0  0  0  0  0
  -22.5640   -8.3100   21.3420 C   0  0  0  0  0  0  0  0  0  0  0  0
  -22.2070   -9.3210   20.4320 C   0  0  0  0  0  3  0  0  0  0  0  0
  -23.0770  -10.3940   20.1740 C   0  0  0  0  0  3  0  0  0  0  0  0
  -21.6620   -7.2890   21.5120 O   0  0  0  0  0  0  0  0  0  0  0  0
  -21.6030   -6.5650   22.6760 C   0  0  0  0  0  0  0  0  0  0  0  0
  -21.3410   -7.1760   23.9230 C   0  0  0  0  0  3  0  0  0  0  0  0
  -21.2200   -6.3860   25.0820 C   0  0  0  0  0  3  0  0  0  0  0  0
  -21.3510   -4.9870   25.0000 C   0  0  0  0  0  0  0  0  0  0  0  0
  -21.6020   -4.3760   23.7590 C   0  0  0  0  0  3  0  0  0  0  0  0
  -21.7260   -5.1630   22.6010 C   0  0  0  0  0  0  0  0  0  0  0  0
  -21.9500   -4.5660   21.4050 F   0  0  0  0  0  0  0  0  0  0  0  0
  -21.2250   -4.2260   26.1130 F   0  0  0  0  0  0  0  0  0  0  0  0
  -23.7200  -13.6970   21.1720 C   0  0  0  0  0  0  0  0  0  0  0  0
  -23.0430  -13.1000   22.1460 N   0  0  0  0  0  0  0  0  0  0  0  0
  -23.3620  -14.7860   20.7250 O   0  0  0  0  0  0  0  0  0  0  0  0
  -23.3580  -12.2250   22.5430 H   0  0  0  0  0  0  0  0  0  0  0  0
  -22.1940  -13.5190   22.4960 H   0  0  0  0  0  0  0  0  0  0  0  0
  -26.4470  -14.9760   20.0130 N   0  0  0  0  0  0  0  0  0  0  0  0
  -25.8400  -15.7490   20.2600 H   0  0  0  0  0  0  0  0  0  0  0  0
  -27.3510  -15.2750   19.6680 H   0  0  0  0  0  0  0  0  0  0  0  0
  -28.0490  -21.9190   19.0530 C   0  0  0  0  0  2  0  0  0  0  0  0
  -28.3690  -23.4320   19.3670 C   0  0  0  0  0  2  0  0  0  0  0  0
  -28.7460  -23.2660   21.8690 C   0  0  0  0  0  1  0  0  0  0  0  0
  -26.4780  -23.8780   21.0390 C   0  0  0  0  0  1  0  0  0  0  0  0
  -27.9900  -24.0240   20.7610 C   0  0  2  0  0  0  0  0  0  0  0  0
  -28.4120  -25.5340   20.8630 C   0  0  0  0  0  2  0  0  0  0  0  0
  -28.0920  -26.3570   19.7380 O   0  0  0  0  0  0  0  0  0  0  0  0
  -24.5240  -31.6150   23.0460 C   0  0  0  0  0  0  0  0  0  0  0  0
  -26.9720  -27.1440   19.8480 C   0  0  0  0  0  0  0  0  0  0  0  0
  -23.2500  -30.2800   21.4000 C   0  0  0  0  0  3  0  0  0  0  0  0
  -24.6330  -28.7190   19.9310 C   0  0  0  0  0  0  0  0  0  0  0  0
  -25.7850  -30.5570   21.1730 C   0  0  0  0  0  2  0  0  0  0  0  0
  -25.8150  -29.1930   20.5140 C   0  0  0  0  0  0  0  0  0  0  0  0
  -26.9940  -28.4110   20.4730 C   0  0  0  0  0  3  0  0  0  0  0  0
  -25.7860  -26.6950   19.2430 C   0  0  0  0  0  3  0  0  0  0  0  0
  -24.6090  -27.4640   19.2990 C   0  0  0  0  0  3  0  0  0  0  0  0
  -23.4160  -29.6130   20.0100 C   0  0  0  0  0  2  0  0  0  0  0  0
  -24.5380  -30.8310   21.9300 N   0  0  0  0  0  0  0  0  0  0  0  0
  -23.4600  -31.9170   23.6050 O   0  0  0  0  0  0  0  0  0  0  0  0
  -22.5810  -29.2650   22.3560 C   0  0  0  0  0  0  0  0  0  0  0  0
  -21.2480  -29.1410   22.2580 N   0  0  0  0  0  0  0  0  0  0  0  0
  -23.2590  -28.5940   23.1390 O   0  0  0  0  0  0  0  0  0  0  0  0
  -20.7670  -29.7350   21.5990 H   0  0  0  0  0  0  0  0  0  0  0  0
  -17.8350  -28.1050   22.8390 C   0  0  0  0  0  0  0  0  0  0  0  0
  -20.4110  -28.2210   23.0290 C   0  0  0  0  0  3  0  0  0  0  0  0
  -20.4200  -26.8090   22.3990 C   0  0  0  0  0  2  0  0  0  0  0  0
  -19.2680  -26.5780   21.4150 C   0  0  0  0  0  2  0  0  0  0  0  0
  -17.9180  -26.7710   22.1130 C   0  0  0  0  0  2  0  0  0  0  0  0
  -19.0080  -28.7930   23.2540 C   0  0  0  0  0  0  0  0  0  0  0  0
  -18.8760  -30.0460   23.8920 C   0  0  0  0  0  3  0  0  0  0  0  0
  -17.6070  -30.6080   24.1230 C   0  0  0  0  0  3  0  0  0  0  0  0
  -16.4500  -29.9130   23.7300 C   0  0  0  0  0  3  0  0  0  0  0  0
  -16.5660  -28.6650   23.0910 C   0  0  0  0  0  3  0  0  0  0  0  0
  -25.8380  -32.1950   23.6570 C   0  0  0  0  0  3  0  0  0  0  0  0
  -25.5700  -33.5850   24.0490 N   0  0  0  0  0  0  0  0  0  0  0  0
  -25.9070  -34.6600   23.3240 C   0  0  0  0  0  0  0  0  0  0  0  0
  -26.5500  -34.5840   22.2720 O   0  0  0  0  0  0  0  0  0  0  0  0
  -25.0150  -33.7250   24.8810 H   0  0  0  0  0  0  0  0  0  0  0  0
  -24.2090  -36.4960   23.0820 C   0  0  0  0  0  1  0  0  0  0  0  0
  -25.4600  -36.0380   23.8470 C   0  0  0  0  0  3  0  0  0  0  0  0
  -27.6320  -36.8450   24.6580 C   0  0  0  0  0  1  0  0  0  0  0  0
  -26.5110  -37.0730   23.7490 N   0  0  0  0  0  0  0  0  0  0  0  0
  -26.1290  -37.9930   23.9460 H   0  0  0  0  0  0  0  0  0  0  0  0
  -26.3760  -31.3640   24.8830 C   0  0  1  0  0  0  0  0  0  0  0  0
  -25.3130  -31.0990   25.9760 C   0  0  0  0  0  1  0  0  0  0  0  0
  -26.9240  -29.9960   24.4110 C   0  0  0  0  0  1  0  0  0  0  0  0
  -27.5640  -32.1090   25.5350 C   0  0  0  0  0  1  0  0  0  0  0  0
  2  1  1  0
  2  3  1  1
  5  4  1  0
  5  6  1  0
  5  2  1  0
  6 11  1  0
  8  7  2  0
  9  7  1  0
 10 11  1  0
 10  9  2  0
 11  8  1  0
 14 13  1  6
 14  9  1  0
 14 12  1  0
 15 21  1  0
 15 14  1  0
 16 21  1  0
 17 18  1  0
 17 16  1  0
 19 18  1  0
 19 26  1  0
 19 20  1  0
 21 20  1  0
 22 15  2  0
 23 24  2  0
 24 43  1  0
 25 24  1  0
 25 28  1  0
 26 27  1  0
 26 23  1  0
 27 25  2  0
 28 29  1  0
 29 30  2  0
 31 34  1  0
 31 30  1  0
 32 31  2  0
 33 32  1  0
 33 28  2  0
 34 35  1  0
 35 36  1  0
 36 37  2  0
 38 37  1  0
 38 42  1  0
 39 38  2  0
 40 35  2  0
 40 39  1  0
 41 40  1  0
 43 44  1  0
 44 47  1  0
 44 46  1  0
 45 43  2  0
 48 23  1  0
 48 49  1  0
 50 48  1  0
 51  2  1  0
 51 52  1  0
 52 55  1  0
 55 56  1  0
 55 54  1  1
 55 53  1  0
 57 59  1  0
 57 56  1  0
 58 69  2  0
 59 64  1  0
 60 68  1  0
 60 70  1  0
 61 67  1  0
 61 63  1  0
 62 68  1  0
 63 62  1  0
 64 63  2  0
 65 66  1  0
 65 59  2  0
 66 61  2  0
 67 60  1  0
 68 58  1  0
 70 72  2  0
 71 70  1  0
 73 71  1  0
 74 83  2  0
 74 79  1  0
 75 71  1  0
 75 79  1  0
 76 75  1  0
 77 78  1  0
 77 76  1  0
 78 74  1  0
 79 80  2  0
 80 81  1  0
 82 81  2  0
 83 82  1  0
 84 58  1  0
 84 85  1  0
 84 94  1  0
 85 88  1  0
 86 90  1  0
 86 85  1  0
 87 86  2  0
 90 89  1  0
 92 90  1  0
 92 93  1  0
 92 91  1  0
 94 97  1  1
 94 95  1  0
 96 94  1  0
M  ISO  4  14 100  15 100  56 101  57 101
M  END
>  <TORSDO>  (16) 
F 24

>  <SCORE>  (16) 
-10.652

>  <name>  (16) 
17

>  <ligand_id>  (16) 
17

>  <original_smiles>  (16) 
[H]c1c([H])c([H])c2c(c1[H])C([H])([H])C([H])([H])C([H])([H])C2([H])N([H])C(=O)C1([H])N(C(=O)C([H])(N([H])C(=O)C([H])(N([H])C([H])([H])[H])C([H])([H])[H])C(C([H])([H])[H])(C([H])([H])[H])C([H])([H])[H])C([H])([H])c2c([H])c(OC([H])([H])C(C([H])([H])[H])(C([H])([H])[H])C([H])([H])C([H])([H])[N+]([H])(C([H])([H])[H])C([H])(C([H])([H])[H])C([H])([H])n3nc(C(C(=O)N4C([H])([H])C([H])([H])C([H])([H])C([H])(n5nc(-c6c([H])c([H])c(Oc7c([H])c([H])c(F)c([H])c7F)c([H])c6[H])c(C(=O)N([H])[H])c5N([H])[H])C4([H])[H])(C([H])([H])[H])C([H])([H])[H])c([H])c3[H])c([H])c([H])c2C1([H])[H]

>  <smiles>  (16) 
[H]c1c([H])c([H])c2c(c1[H])C([H])([H])C([H])([H])C([H])([H])C2([H])N([H])C(=O)C1([H])N(C(=O)C([H])(N([H])C(=O)C([H])(N([H])C([H])([H])[H])C([H])([H])[H])C(C([H])([H])[H])(C([H])([H])[H])C([H])([H])[H])C([H])([H])c2c([H])c(OC([H])([H])C(C([H])([H])[H])(C([H])([H])[H])C([H])([H])C([H])([H])[N+]([H])(C([H])([H])[H])C([H])(C([H])([H])[H])C([H])([H])n3nc(C(C(=O)N4C([H])([H])C([H])([H])C([H])([H])C([H])(n5nc(-c6c([H])c([H])c(Oc7c([H])c([H])c(F)c([H])c7F)c([H])c6[H])c(C(=O)N([H])[H])c5N([H])[H])C4([H])[H])(C([H])([H])[H])C([H])([H])[H])c([H])c3[H])c([H])c([H])c2C1([H])[H]

$$$$
18:0:0
     RDKit          3D

 95103  0  0  1  0  0  0  0  0999 V2000
  -30.3300  -21.2510   20.4710 C   0  0  0  0  0  3  0  0  0  0  0  0
  -28.5990  -21.6210   19.2110 C   0  0  0  0  0  3  0  0  0  0  0  0
  -29.4020  -20.5710   19.6270 C   0  0  0  0  0  0  0  0  0  0  0  0
  -30.0700  -22.5430   20.6160 N   0  0  0  0  0  0  0  0  0  0  0  0
  -28.9960  -22.8100   19.8360 N   0  0  0  0  0  0  0  0  0  0  0  0
  -28.2470  -18.5530   20.4350 C   0  0  0  0  0  1  0  0  0  0  0  0
  -28.6300  -18.7660   18.0060 C   0  0  0  0  0  1  0  0  0  0  0  0
  -29.2690  -19.0360   19.3880 C   0  0  1  0  0  0  0  0  0  0  0  0
  -31.2350  -17.7580   18.1890 C   0  0  0  0  0  1  0  0  0  0  0  0
  -30.6510  -18.2380   19.5310 C   0  0  0  0  0  3  0  0  0  0  0  0
  -30.8400  -17.1430   20.6560 C   0  0  0  0  0  2  0  0  0  0  0  0
  -31.0760  -14.7050   19.9980 C   0  0  0  0  0  0  0  0  0  0  0  0
  -30.7760  -12.4620   19.0130 C   0  0  0  0  0  2  0  0  0  0  0  0
  -29.8160  -12.5960   17.8140 C   0  0  0  0  0  2  0  0  0  0  0  0
  -28.3460  -12.4920   18.2690 C   0  0  0  0  0  2  0  0  0  0  0  0
  -28.0320  -13.4050   19.4850 C   0  0  0  0  0  3  0  0  0  0  0  0
  -29.1020  -13.2500   20.5850 C   0  0  0  0  0  2  0  0  0  0  0  0
  -30.4120  -13.5170   19.9720 N   0  0  0  0  0  0  0  0  0  0  0  0
  -32.2180  -14.8390   19.5540 O   0  0  0  0  0  0  0  0  0  0  0  0
  -30.3480  -15.7690   20.4140 N   0  0  0  0  0  0  0  0  0  0  0  0
  -29.4120  -15.5590   20.7230 H   0  0  0  0  0  0  0  0  0  0  0  0
  -25.6790  -14.0920   20.2690 C   0  0  0  0  0  0  0  0  0  0  0  0
  -24.5970  -13.3560   20.6720 C   0  0  0  0  0  0  0  0  0  0  0  0
  -25.0100  -11.9890   20.6230 C   0  0  0  0  0  0  0  0  0  0  0  0
  -26.6850  -13.1760   20.0030 N   0  0  0  0  0  0  0  0  0  0  0  0
  -26.2870  -11.9060   20.2730 N   0  0  0  0  0  0  0  0  0  0  0  0
  -24.2470  -10.7520   20.8330 C   0  0  0  0  0  0  0  0  0  0  0  0
  -24.6390   -9.7950   21.7930 C   0  0  0  0  0  3  0  0  0  0  0  0
  -23.8780   -8.6220   21.9880 C   0  0  0  0  0  3  0  0  0  0  0  0
  -22.7070   -8.4010   21.2260 C   0  0  0  0  0  0  0  0  0  0  0  0
  -22.3330   -9.3460   20.2550 C   0  0  0  0  0  3  0  0  0  0  0  0
  -23.0960  -10.5090   20.0560 C   0  0  0  0  0  3  0  0  0  0  0  0
  -21.9210   -7.2780   21.3300 O   0  0  0  0  0  0  0  0  0  0  0  0
  -21.8090   -6.5880   22.5100 C   0  0  0  0  0  0  0  0  0  0  0  0
  -21.3170   -7.1940   23.6870 C   0  0  0  0  0  3  0  0  0  0  0  0
  -21.1420   -6.4270   24.8550 C   0  0  0  0  0  3  0  0  0  0  0  0
  -21.4570   -5.0550   24.8510 C   0  0  0  0  0  0  0  0  0  0  0  0
  -21.9490   -4.4500   23.6810 C   0  0  0  0  0  3  0  0  0  0  0  0
  -22.1200   -5.2130   22.5140 C   0  0  0  0  0  0  0  0  0  0  0  0
  -22.5710   -4.6200   21.3820 F   0  0  0  0  0  0  0  0  0  0  0  0
  -21.2840   -4.3150   25.9720 F   0  0  0  0  0  0  0  0  0  0  0  0
  -23.2250  -13.8820   20.9880 C   0  0  0  0  0  0  0  0  0  0  0  0
  -22.5050  -13.2230   21.8880 N   0  0  0  0  0  0  0  0  0  0  0  0
  -22.8010  -14.9150   20.4700 O   0  0  0  0  0  0  0  0  0  0  0  0
  -22.8620  -12.3900   22.3330 H   0  0  0  0  0  0  0  0  0  0  0  0
  -21.5850  -13.5580   22.1400 H   0  0  0  0  0  0  0  0  0  0  0  0
  -25.8820  -15.4550   20.0870 N   0  0  0  0  0  0  0  0  0  0  0  0
  -25.1350  -16.1290   20.2160 H   0  0  0  0  0  0  0  0  0  0  0  0
  -26.7120  -15.8620   19.6770 H   0  0  0  0  0  0  0  0  0  0  0  0
  -27.7580  -24.2280   21.4070 C   0  0  0  0  0  1  0  0  0  0  0  0
  -28.2690  -24.1190   19.9560 C   0  0  0  0  0  3  0  0  0  0  0  0
  -30.4970  -25.4780   19.9260 C   0  0  0  0  0  1  0  0  0  0  0  0
  -29.0100  -25.6530   17.9800 C   0  0  0  0  0  1  0  0  0  0  0  0
  -29.0100  -25.4650   19.5130 C   0  0  1  0  0  0  0  0  0  0  0  0
  -28.6110  -26.6940   20.2050 O   0  0  0  0  0  0  0  0  0  0  0  0
  -24.5860  -31.7420   23.2340 C   0  0  0  0  0  0  0  0  0  0  0  0
  -27.3970  -27.3700   20.1390 C   0  0  0  0  0  0  0  0  0  0  0  0
  -23.4590  -30.3690   21.5120 C   0  0  0  0  0  3  0  0  0  0  0  0
  -24.9820  -28.8770   20.1020 C   0  0  0  0  0  0  0  0  0  0  0  0
  -25.9880  -30.7530   21.4170 C   0  0  0  0  0  2  0  0  0  0  0  0
  -26.1120  -29.3950   20.7450 C   0  0  0  0  0  0  0  0  0  0  0  0
  -27.3160  -28.6480   20.7570 C   0  0  0  0  0  3  0  0  0  0  0  0
  -26.2360  -26.8640   19.5150 C   0  0  0  0  0  3  0  0  0  0  0  0
  -25.0420  -27.6160   19.4830 C   0  0  0  0  0  3  0  0  0  0  0  0
  -23.7280  -29.7270   20.1240 C   0  0  0  0  0  2  0  0  0  0  0  0
  -24.6950  -30.9700   22.1140 N   0  0  0  0  0  0  0  0  0  0  0  0
  -23.4830  -31.9880   23.7420 O   0  0  0  0  0  0  0  0  0  0  0  0
  -22.7850  -29.3200   22.4220 C   0  0  0  0  0  0  0  0  0  0  0  0
  -21.4630  -29.1450   22.2600 N   0  0  0  0  0  0  0  0  0  0  0  0
  -23.4470  -28.6650   23.2330 O   0  0  0  0  0  0  0  0  0  0  0  0
  -20.9900  -29.7230   21.5800 H   0  0  0  0  0  0  0  0  0  0  0  0
  -18.0720  -27.9590   22.6530 C   0  0  0  0  0  0  0  0  0  0  0  0
  -20.6280  -28.1820   22.9750 C   0  0  0  0  0  3  0  0  0  0  0  0
  -20.7280  -26.7760   22.3380 C   0  0  0  0  0  2  0  0  0  0  0  0
  -19.6380  -26.5100   21.2940 C   0  0  0  0  0  2  0  0  0  0  0  0
  -18.2470  -26.6380   21.9230 C   0  0  0  0  0  2  0  0  0  0  0  0
  -19.1900  -28.6910   23.1340 C   0  0  0  0  0  0  0  0  0  0  0  0
  -18.9720  -29.9300   23.7740 C   0  0  0  0  0  3  0  0  0  0  0  0
  -17.6690  -30.4340   23.9430 C   0  0  0  0  0  3  0  0  0  0  0  0
  -16.5650  -29.6990   23.4790 C   0  0  0  0  0  3  0  0  0  0  0  0
  -16.7680  -28.4630   22.8380 C   0  0  0  0  0  3  0  0  0  0  0  0
  -25.8390  -32.3720   23.9190 C   0  0  0  0  0  3  0  0  0  0  0  0
  -25.5160  -33.7720   24.2320 N   0  0  0  0  0  0  0  0  0  0  0  0
  -25.8880  -34.8250   23.4910 C   0  0  0  0  0  0  0  0  0  0  0  0
  -26.6100  -34.7190   22.4950 O   0  0  0  0  0  0  0  0  0  0  0  0
  -24.8760  -33.9260   24.9970 H   0  0  0  0  0  0  0  0  0  0  0  0
  -24.1750  -36.6160   23.0560 C   0  0  0  0  0  1  0  0  0  0  0  0
  -25.3790  -36.2150   23.9220 C   0  0  0  0  0  3  0  0  0  0  0  0
  -27.4710  -37.1080   24.8480 C   0  0  0  0  0  1  0  0  0  0  0  0
  -26.4130  -37.2690   23.8530 N   0  0  0  0  0  0  0  0  0  0  0  0
  -26.0000  -38.1890   23.9770 H   0  0  0  0  0  0  0  0  0  0  0  0
  -26.2890  -31.5990   25.2190 C   0  0  1  0  0  0  0  0  0  0  0  0
  -25.1420  -31.3550   26.2270 C   0  0  0  0  0  1  0  0  0  0  0  0
  -26.8960  -30.2250   24.8510 C   0  0  0  0  0  1  0  0  0  0  0  0
  -27.4010  -32.3930   25.9440 C   0  0  0  0  0  1  0  0  0  0  0  0
  1  4  2  0
  2  3  2  0
  2  5  1  0
  3  1  1  0
  5 51  1  0
  5  4  1  0
  8  7  1  6
  8 10  1  0
  8  3  1  0
  8  6  1  0
 10  9  1  0
 10 11  1  0
 12 20  1  0
 13 18  1  0
 14 15  1  0
 14 13  1  0
 16 15  1  0
 16 25  1  0
 16 17  1  0
 18 12  1  0
 18 17  1  0
 19 12  2  0
 20 11  1  0
 20 21  1  0
 22 23  2  0
 23 42  1  0
 24 23  1  0
 24 27  1  0
 25 22  1  0
 25 26  1  0
 26 24  2  0
 27 28  1  0
 28 29  2  0
 30 33  1  0
 30 29  1  0
 31 30  2  0
 32 31  1  0
 32 27  2  0
 33 34  1  0
 34 39  2  0
 34 35  1  0
 35 36  2  0
 37 36  1  0
 37 41  1  0
 38 37  2  0
 39 38  1  0
 40 39  1  0
 42 43  1  0
 43 46  1  0
 43 45  1  0
 44 42  2  0
 47 48  1  0
 47 22  1  0
 49 47  1  0
 51 50  1  0
 54 53  1  6
 54 52  1  0
 54 51  1  0
 54 55  1  0
 56 67  2  0
 57 55  1  0
 57 62  1  0
 58 66  1  0
 58 68  1  0
 59 65  1  0
 59 61  1  0
 60 66  1  0
 61 62  2  0
 61 60  1  0
 63 57  2  0
 64 63  1  0
 64 59  2  0
 65 58  1  0
 66 56  1  0
 68 70  2  0
 69 68  1  0
 71 69  1  0
 72 81  2  0
 72 77  1  0
 73 69  1  0
 73 77  1  0
 74 73  1  0
 75 76  1  0
 75 74  1  0
 76 72  1  0
 77 78  2  0
 78 79  1  0
 80 79  2  0
 81 80  1  0
 82 56  1  0
 82 83  1  0
 82 92  1  0
 83 86  1  0
 84 88  1  0
 84 83  1  0
 85 84  2  0
 88 87  1  0
 90 88  1  0
 90 91  1  0
 90 89  1  0
 92 95  1  1
 92 93  1  0
 94 92  1  0
M  ISO  4  12 100  20 100  54 101  55 101
M  END
>  <TORSDO>  (17) 
F 21

>  <SCORE>  (17) 
-13.434

>  <name>  (17) 
18

>  <ligand_id>  (17) 
18

>  <original_smiles>  (17) 
[H]c1nn(C([H])(C([H])([H])[H])C(Oc2c([H])c([H])c3c(c2[H])C([H])([H])N(C(=O)C([H])(N([H])C(=O)C([H])(N([H])C([H])([H])[H])C([H])([H])[H])C(C([H])([H])[H])(C([H])([H])[H])C([H])([H])[H])C([H])(C(=O)N([H])C2([H])c4c([H])c([H])c([H])c([H])c4C([H])([H])C([H])([H])C2([H])[H])C3([H])[H])(C([H])([H])[H])C([H])([H])[H])c([H])c1C(C([H])([H])[H])(C([H])([H])[H])C([H])(C([H])([H])[H])C([H])([H])N([H])C(=O)N1C([H])([H])C([H])([H])C([H])([H])C([H])(n2nc(-c3c([H])c([H])c(Oc4c([H])c([H])c(F)c([H])c4F)c([H])c3[H])c(C(=O)N([H])[H])c2N([H])[H])C1([H])[H]

>  <smiles>  (17) 
[H]c1nn(C([H])(C([H])([H])[H])C(Oc2c([H])c([H])c3c(c2[H])C([H])([H])N(C(=O)C([H])(N([H])C(=O)C([H])(N([H])C([H])([H])[H])C([H])([H])[H])C(C([H])([H])[H])(C([H])([H])[H])C([H])([H])[H])C([H])(C(=O)N([H])C2([H])c4c([H])c([H])c([H])c([H])c4C([H])([H])C([H])([H])C2([H])[H])C3([H])[H])(C([H])([H])[H])C([H])([H])[H])c([H])c1C(C([H])([H])[H])(C([H])([H])[H])C([H])(C([H])([H])[H])C([H])([H])N([H])C(=O)N1C([H])([H])C([H])([H])C([H])([H])C([H])(n2nc(-c3c([H])c([H])c(Oc4c([H])c([H])c(F)c([H])c4F)c([H])c3[H])c(C(=O)N([H])[H])c2N([H])[H])C1([H])[H]

$$$$
19:0:0
     RDKit          3D

 91 99  0  0  1  0  0  0  0  0999 V2000
  -29.8480  -19.7310   20.5370 C   0  0  0  0  0  3  0  0  0  0  0  0
  -29.9830  -18.6900   19.5280 C   0  0  0  0  0  0  0  0  0  0  0  0
  -29.2580  -20.8600   19.9550 C   0  0  0  0  0  0  0  0  0  0  0  0
  -28.4580  -21.2070   17.5580 C   0  0  0  0  0  1  0  0  0  0  0  0
  -29.4910  -19.1840   18.3950 N   0  0  0  0  0  0  0  0  0  0  0  0
  -29.0610  -20.4560   18.6430 N   0  0  0  0  0  0  0  0  0  0  0  0
  -30.7490  -17.2980   19.4550 C   0  0  0  0  0  2  0  0  0  0  0  0
  -30.9870  -14.8100   19.7480 C   0  0  0  0  0  0  0  0  0  0  0  0
  -30.6510  -12.5900   18.6360 C   0  0  0  0  0  2  0  0  0  0  0  0
  -29.6180  -12.6870   17.4920 C   0  0  0  0  0  2  0  0  0  0  0  0
  -28.1900  -12.4810   18.0280 C   0  0  0  0  0  2  0  0  0  0  0  0
  -27.9090  -13.3250   19.2960 C   0  0  0  0  0  3  0  0  0  0  0  0
  -29.0520  -13.2070   20.3220 C   0  0  0  0  0  2  0  0  0  0  0  0
  -30.2980  -13.6120   19.6550 N   0  0  0  0  0  0  0  0  0  0  0  0
  -32.0990  -14.8830   19.2140 O   0  0  0  0  0  0  0  0  0  0  0  0
  -30.3640  -15.9970   20.1690 N   0  0  0  0  0  0  0  0  0  0  0  0
  -25.6000  -13.8720   20.2690 C   0  0  0  0  0  0  0  0  0  0  0  0
  -24.5660  -13.0760   20.6840 C   0  0  0  0  0  0  0  0  0  0  0  0
  -25.0130  -11.7290   20.5180 C   0  0  0  0  0  0  0  0  0  0  0  0
  -26.6110  -13.0080   19.8830 N   0  0  0  0  0  0  0  0  0  0  0  0
  -26.2690  -11.7100   20.0910 N   0  0  0  0  0  0  0  0  0  0  0  0
  -24.2950  -10.4590   20.6820 C   0  0  0  0  0  0  0  0  0  0  0  0
  -24.7430   -9.4700   21.5850 C   0  0  0  0  0  3  0  0  0  0  0  0
  -24.0230   -8.2650   21.7380 C   0  0  0  0  0  3  0  0  0  0  0  0
  -22.8440   -8.0410   20.9880 C   0  0  0  0  0  0  0  0  0  0  0  0
  -22.4180   -9.0180   20.0720 C   0  0  0  0  0  3  0  0  0  0  0  0
  -23.1350  -10.2150   19.9170 C   0  0  0  0  0  3  0  0  0  0  0  0
  -22.0960   -6.8890   21.0520 O   0  0  0  0  0  0  0  0  0  0  0  0
  -21.9770   -6.1720   22.2150 C   0  0  0  0  0  0  0  0  0  0  0  0
  -21.4780   -6.7520   23.4010 C   0  0  0  0  0  3  0  0  0  0  0  0
  -21.3070   -5.9610   24.5530 C   0  0  0  0  0  3  0  0  0  0  0  0
  -21.6250   -4.5900   24.5200 C   0  0  0  0  0  0  0  0  0  0  0  0
  -22.1170   -4.0090   23.3390 C   0  0  0  0  0  3  0  0  0  0  0  0
  -22.2900   -4.7980   22.1870 C   0  0  0  0  0  0  0  0  0  0  0  0
  -22.7430   -4.2270   21.0450 F   0  0  0  0  0  0  0  0  0  0  0  0
  -21.4520   -3.8270   25.6260 F   0  0  0  0  0  0  0  0  0  0  0  0
  -23.2050  -13.5360   21.1130 C   0  0  0  0  0  0  0  0  0  0  0  0
  -22.5620  -12.7980   22.0110 N   0  0  0  0  0  0  0  0  0  0  0  0
  -22.7210  -14.5860   20.6880 O   0  0  0  0  0  0  0  0  0  0  0  0
  -22.9650  -11.9470   22.3730 H   0  0  0  0  0  0  0  0  0  0  0  0
  -21.6510  -13.0890   22.3380 H   0  0  0  0  0  0  0  0  0  0  0  0
  -25.7550  -15.2500   20.1610 N   0  0  0  0  0  0  0  0  0  0  0  0
  -25.0150  -15.9020   20.3960 H   0  0  0  0  0  0  0  0  0  0  0  0
  -26.5790  -15.7030   19.7850 H   0  0  0  0  0  0  0  0  0  0  0  0
  -28.5860  -16.3470   21.9130 C   0  0  0  0  0  1  0  0  0  0  0  0
  -30.8710  -15.4240   22.6350 C   0  0  0  0  0  1  0  0  0  0  0  0
  -30.0910  -16.2820   21.6040 C   0  0  0  0  0  3  0  0  0  0  0  0
  -28.7070  -22.2270   20.5280 C   0  0  0  0  0  2  0  0  0  0  0  0
  -29.2140  -23.7130   20.1290 C   0  0  0  0  0  3  0  0  0  0  0  0
  -28.2920  -24.9520   20.6270 C   0  0  0  0  0  3  0  0  0  0  0  0
  -28.5770  -26.4090   20.3740 O   0  0  0  0  0  0  0  0  0  0  0  0
  -24.7540  -31.9190   23.2030 C   0  0  0  0  0  0  0  0  0  0  0  0
  -27.4790  -27.2980   20.3030 C   0  0  0  0  0  0  0  0  0  0  0  0
  -23.6100  -30.4870   21.5500 C   0  0  0  0  0  3  0  0  0  0  0  0
  -25.1140  -28.9230   20.1930 C   0  0  0  0  0  0  0  0  0  0  0  0
  -26.1570  -30.8090   21.4450 C   0  0  0  0  0  2  0  0  0  0  0  0
  -26.2650  -29.4200   20.8200 C   0  0  0  0  0  0  0  0  0  0  0  0
  -27.4530  -28.6210   20.8590 C   0  0  0  0  0  3  0  0  0  0  0  0
  -26.3100  -26.8750   19.6320 C   0  0  0  0  0  3  0  0  0  0  0  0
  -25.1430  -27.6600   19.5840 C   0  0  0  0  0  3  0  0  0  0  0  0
  -23.8720  -29.7930   20.1870 C   0  0  0  0  0  2  0  0  0  0  0  0
  -24.8570  -31.0910   22.1220 N   0  0  0  0  0  0  0  0  0  0  0  0
  -23.6530  -32.1990   23.6990 O   0  0  0  0  0  0  0  0  0  0  0  0
  -22.9220  -29.4830   22.5060 C   0  0  0  0  0  0  0  0  0  0  0  0
  -21.5960  -29.3160   22.3590 N   0  0  0  0  0  0  0  0  0  0  0  0
  -23.5810  -28.8570   23.3410 O   0  0  0  0  0  0  0  0  0  0  0  0
  -21.1220  -29.8740   21.6630 H   0  0  0  0  0  0  0  0  0  0  0  0
  -18.1970  -28.1600   22.8270 C   0  0  0  0  0  0  0  0  0  0  0  0
  -20.7570  -28.3900   23.1220 C   0  0  0  0  0  3  0  0  0  0  0  0
  -20.8460  -26.9550   22.5520 C   0  0  0  0  0  2  0  0  0  0  0  0
  -19.7510  -26.6440   21.5260 C   0  0  0  0  0  2  0  0  0  0  0  0
  -18.3640  -26.8070   22.1550 C   0  0  0  0  0  2  0  0  0  0  0  0
  -19.3220  -28.9090   23.2670 C   0  0  0  0  0  0  0  0  0  0  0  0
  -19.1110  -30.1750   23.8550 C   0  0  0  0  0  3  0  0  0  0  0  0
  -17.8110  -30.6920   24.0060 C   0  0  0  0  0  3  0  0  0  0  0  0
  -16.7010  -29.9400   23.5820 C   0  0  0  0  0  3  0  0  0  0  0  0
  -16.8960  -28.6770   22.9980 C   0  0  0  0  0  3  0  0  0  0  0  0
  -26.0140  -32.5710   23.8540 C   0  0  0  0  0  3  0  0  0  0  0  0
  -25.6680  -33.9580   24.1950 N   0  0  0  0  0  0  0  0  0  0  0  0
  -25.9810  -35.0270   23.4500 C   0  0  0  0  0  0  0  0  0  0  0  0
  -26.6620  -34.9500   22.4240 O   0  0  0  0  0  0  0  0  0  0  0  0
  -25.0590  -34.0890   24.9890 H   0  0  0  0  0  0  0  0  0  0  0  0
  -24.2100  -36.7830   23.1130 C   0  0  0  0  0  1  0  0  0  0  0  0
  -25.4610  -36.4000   23.9200 C   0  0  0  0  0  3  0  0  0  0  0  0
  -27.5740  -37.3300   24.7560 C   0  0  0  0  0  1  0  0  0  0  0  0
  -26.4660  -37.4780   23.8160 N   0  0  0  0  0  0  0  0  0  0  0  0
  -26.0370  -38.3870   23.9760 H   0  0  0  0  0  0  0  0  0  0  0  0
  -26.5220  -31.7970   25.1340 C   0  0  1  0  0  0  0  0  0  0  0  0
  -25.4080  -31.5000   26.1640 C   0  0  0  0  0  1  0  0  0  0  0  0
  -27.1710  -30.4490   24.7410 C   0  0  0  0  0  1  0  0  0  0  0  0
  -27.6170  -32.6250   25.8470 C   0  0  0  0  0  1  0  0  0  0  0  0
  2  1  1  0
  3 48  1  0
  3  1  2  0
  4  6  1  0
  5  6  1  0
  5  2  2  0
  6  3  1  0
  7  2  1  0
  7 16  1  0
  8 16  1  0
  9 14  1  0
 10 11  1  0
 10  9  1  0
 12 11  1  0
 12 20  1  0
 12 13  1  0
 14  8  1  0
 14 13  1  0
 15  8  2  0
 16 47  1  0
 17 18  2  0
 18 37  1  0
 19 22  1  0
 19 18  1  0
 20 21  1  0
 20 17  1  0
 21 19  2  0
 22 23  1  0
 23 24  2  0
 25 28  1  0
 25 24  1  0
 26 25  2  0
 27 26  1  0
 27 22  2  0
 28 29  1  0
 29 30  1  0
 30 31  2  0
 32 31  1  0
 32 36  1  0
 33 32  2  0
 34 29  2  0
 34 33  1  0
 35 34  1  0
 37 38  1  0
 38 41  1  0
 38 40  1  0
 39 37  2  0
 42 17  1  0
 42 43  1  0
 44 42  1  0
 47 45  1  0
 47 46  1  0
 49 48  1  0
 49 50  2  0
 51 50  1  0
 52 63  2  0
 53 51  1  0
 53 58  1  0
 54 62  1  0
 54 64  1  0
 55 57  1  0
 56 62  1  0
 57 58  2  0
 57 56  1  0
 59 53  2  0
 60 59  1  0
 60 55  2  0
 61 55  1  0
 61 54  1  0
 62 52  1  0
 64 66  2  0
 65 64  1  0
 67 65  1  0
 68 77  2  0
 68 73  1  0
 69 65  1  0
 69 73  1  0
 70 69  1  0
 71 72  1  0
 71 70  1  0
 72 68  1  0
 73 74  2  0
 74 75  1  0
 76 75  2  0
 77 76  1  0
 78 52  1  0
 78 79  1  0
 78 88  1  0
 79 82  1  0
 80 84  1  0
 80 79  1  0
 81 80  2  0
 84 83  1  0
 86 84  1  0
 86 87  1  0
 86 85  1  0
 88 91  1  1
 88 89  1  0
 90 88  1  0
M  ISO  4   8 100  16 100  50 101  51 101
M  END
>  <TORSDO>  (18) 
F 21

>  <SCORE>  (18) 
-9.980

>  <name>  (18) 
19

>  <ligand_id>  (18) 
19

>  <original_smiles>  (18) 
[H]c1c([H])c([H])c2c(c1[H])C([H])([H])C([H])([H])C([H])([H])C2([H])N([H])C(=O)C1([H])N(C(=O)C([H])(N([H])C(=O)C([H])(N([H])C([H])([H])[H])C([H])([H])[H])C(C([H])([H])[H])(C([H])([H])[H])C([H])([H])[H])C([H])([H])c2c([H])c(OC([H])([H])C([H])([H])C([H])([H])c3c([H])c(C([H])([H])N(C(=O)N4C([H])([H])C([H])([H])C([H])([H])C([H])(n5nc(-c6c([H])c([H])c(Oc7c([H])c([H])c(F)c([H])c7F)c([H])c6[H])c(C(=O)N([H])[H])c5N([H])[H])C4([H])[H])C([H])(C([H])([H])[H])C([H])([H])[H])nn3C([H])([H])[H])c([H])c([H])c2C1([H])[H]

>  <smiles>  (18) 
[H]c1c([H])c([H])c2c(c1[H])C([H])([H])C([H])([H])C([H])([H])C2([H])N([H])C(=O)C1([H])N(C(=O)C([H])(N([H])C(=O)C([H])(N([H])C([H])([H])[H])C([H])([H])[H])C(C([H])([H])[H])(C([H])([H])[H])C([H])([H])[H])C([H])([H])c2c([H])c(OC([H])([H])C([H])([H])C([H])([H])c3c([H])c(C([H])([H])N(C(=O)N4C([H])([H])C([H])([H])C([H])([H])C([H])(n5nc(-c6c([H])c([H])c(Oc7c([H])c([H])c(F)c([H])c7F)c([H])c6[H])c(C(=O)N([H])[H])c5N([H])[H])C4([H])[H])C([H])(C([H])([H])[H])C([H])([H])[H])nn3C([H])([H])[H])c([H])c([H])c2C1([H])[H]

$$$$
20:0:0
     RDKit          3D

 95103  0  0  1  0  0  0  0  0999 V2000
  -30.2130  -20.0720   19.8050 C   0  0  0  0  0  3  0  0  0  0  0  0
  -29.2190  -21.0550   19.6250 C   0  0  0  0  0  0  0  0  0  0  0  0
  -28.8170  -19.2350   18.3210 C   0  0  0  0  0  3  0  0  0  0  0  0
  -29.9530  -18.9420   18.9970 N   0  0  0  0  0  0  0  0  0  0  0  0
  -28.3840  -20.4470   18.7260 N   0  0  0  0  0  0  0  0  0  0  0  0
  -27.5220  -20.8710   18.3950 H   0  0  0  0  0  0  0  0  0  0  0  0
  -27.7060  -19.1830   16.0220 C   0  0  0  0  0  1  0  0  0  0  0  0
  -28.1080  -18.4050   17.2910 C   0  0  0  0  0  2  0  0  0  0  0  0
  -28.8210  -22.4460   20.2800 C   0  0  0  0  0  2  0  0  0  0  0  0
  -28.6670  -23.8270   19.4450 C   0  0  0  0  0  3  0  0  0  0  0  0
  -27.9860  -25.1170   20.1580 C   0  0  0  0  0  3  0  0  0  0  0  0
  -28.0710  -26.5140   19.6270 O   0  0  0  0  0  0  0  0  0  0  0  0
  -24.5660  -31.8220   23.1060 C   0  0  0  0  0  0  0  0  0  0  0  0
  -26.9610  -27.3720   19.7390 C   0  0  0  0  0  0  0  0  0  0  0  0
  -23.2630  -30.5020   21.4770 C   0  0  0  0  0  3  0  0  0  0  0  0
  -24.6090  -29.0030   19.9060 C   0  0  0  0  0  0  0  0  0  0  0  0
  -25.7850  -30.8160   21.1590 C   0  0  0  0  0  2  0  0  0  0  0  0
  -25.8140  -29.4610   20.4550 C   0  0  0  0  0  0  0  0  0  0  0  0
  -26.9950  -28.6610   20.3530 C   0  0  0  0  0  3  0  0  0  0  0  0
  -25.7370  -26.9600   19.1760 C   0  0  0  0  0  3  0  0  0  0  0  0
  -24.5750  -27.7610   19.2460 C   0  0  0  0  0  3  0  0  0  0  0  0
  -23.3820  -29.8790   20.0590 C   0  0  0  0  0  2  0  0  0  0  0  0
  -24.5590  -31.0650   21.9670 N   0  0  0  0  0  0  0  0  0  0  0  0
  -23.5190  -32.0760   23.7190 O   0  0  0  0  0  0  0  0  0  0  0  0
  -22.6440  -29.4550   22.4290 C   0  0  0  0  0  0  0  0  0  0  0  0
  -21.3280  -29.2250   22.3050 N   0  0  0  0  0  0  0  0  0  0  0  0
  -23.3540  -28.8570   23.2440 O   0  0  0  0  0  0  0  0  0  0  0  0
  -20.8170  -29.7620   21.6190 H   0  0  0  0  0  0  0  0  0  0  0  0
  -18.0170  -27.8220   22.7570 C   0  0  0  0  0  0  0  0  0  0  0  0
  -20.5510  -28.2380   23.0630 C   0  0  0  0  0  3  0  0  0  0  0  0
  -20.7490  -26.8160   22.4920 C   0  0  0  0  0  2  0  0  0  0  0  0
  -19.6850  -26.4320   21.4550 C   0  0  0  0  0  2  0  0  0  0  0  0
  -18.2930  -26.4830   22.0910 C   0  0  0  0  0  2  0  0  0  0  0  0
  -19.0820  -28.6530   23.1960 C   0  0  0  0  0  0  0  0  0  0  0  0
  -18.7800  -29.9090   23.7690 C   0  0  0  0  0  3  0  0  0  0  0  0
  -17.4470  -30.3300   23.9160 C   0  0  0  0  0  3  0  0  0  0  0  0
  -16.3960  -29.4970   23.4980 C   0  0  0  0  0  3  0  0  0  0  0  0
  -16.6790  -28.2440   22.9250 C   0  0  0  0  0  3  0  0  0  0  0  0
  -25.8890  -32.4140   23.6860 C   0  0  0  0  0  3  0  0  0  0  0  0
  -25.6130  -33.7950   24.1070 N   0  0  0  0  0  0  0  0  0  0  0  0
  -25.8670  -34.8840   23.3670 C   0  0  0  0  0  0  0  0  0  0  0  0
  -26.4290  -34.8330   22.2700 O   0  0  0  0  0  0  0  0  0  0  0  0
  -25.0960  -33.9020   24.9660 H   0  0  0  0  0  0  0  0  0  0  0  0
  -24.1080  -36.6850   23.2600 C   0  0  0  0  0  1  0  0  0  0  0  0
  -25.4200  -36.2470   23.9310 C   0  0  0  0  0  3  0  0  0  0  0  0
  -27.6130  -37.1120   24.6230 C   0  0  0  0  0  1  0  0  0  0  0  0
  -26.4410  -37.3070   23.7730 N   0  0  0  0  0  0  0  0  0  0  0  0
  -26.0480  -38.2180   23.9840 H   0  0  0  0  0  0  0  0  0  0  0  0
  -26.4740  -31.5730   24.8860 C   0  0  1  0  0  0  0  0  0  0  0  0
  -25.4520  -31.2900   26.0090 C   0  0  0  0  0  1  0  0  0  0  0  0
  -27.0190  -30.2140   24.3880 C   0  0  0  0  0  1  0  0  0  0  0  0
  -27.6750  -32.3250   25.5090 C   0  0  0  0  0  1  0  0  0  0  0  0
  -30.8610  -17.7040   18.6880 C   0  0  0  0  0  2  0  0  0  0  0  0
  -31.6050  -16.7400   19.7740 C   0  0  0  0  0  3  0  0  0  0  0  0
  -31.9840  -15.2310   19.2760 C   0  0  0  0  0  0  0  0  0  0  0  0
  -31.6370  -12.7770   18.7790 C   0  0  0  0  0  2  0  0  0  0  0  0
  -30.6320  -12.5490   17.6290 C   0  0  0  0  0  2  0  0  0  0  0  0
  -29.2000  -12.4730   18.1860 C   0  0  0  0  0  2  0  0  0  0  0  0
  -28.8940  -13.6540   19.1350 C   0  0  0  0  0  3  0  0  0  0  0  0
  -30.0100  -13.8520   20.1810 C   0  0  0  0  0  2  0  0  0  0  0  0
  -31.2900  -14.0460   19.4850 N   0  0  0  0  0  0  0  0  0  0  0  0
  -33.0200  -15.1540   18.6070 O   0  0  0  0  0  0  0  0  0  0  0  0
  -26.7430  -14.5270   20.2140 C   0  0  0  0  0  0  0  0  0  0  0  0
  -25.6180  -13.8890   20.6650 C   0  0  0  0  0  0  0  0  0  0  0  0
  -25.8450  -12.4940   20.4580 C   0  0  0  0  0  0  0  0  0  0  0  0
  -27.5880  -13.5230   19.7690 N   0  0  0  0  0  0  0  0  0  0  0  0
  -27.0650  -12.2890   19.9770 N   0  0  0  0  0  0  0  0  0  0  0  0
  -24.9510  -11.3410   20.6460 C   0  0  0  0  0  0  0  0  0  0  0  0
  -25.3370  -10.2160   21.4110 C   0  0  0  0  0  3  0  0  0  0  0  0
  -24.4530   -9.1280   21.5820 C   0  0  0  0  0  3  0  0  0  0  0  0
  -23.1690   -9.1580   20.9910 C   0  0  0  0  0  0  0  0  0  0  0  0
  -22.8000  -10.2660   20.2080 C   0  0  0  0  0  3  0  0  0  0  0  0
  -23.6820  -11.3460   20.0330 C   0  0  0  0  0  3  0  0  0  0  0  0
  -22.2520   -8.1390   21.0850 O   0  0  0  0  0  0  0  0  0  0  0  0
  -22.0300   -7.4790   22.2660 C   0  0  0  0  0  0  0  0  0  0  0  0
  -21.6120   -8.1550   23.4320 C   0  0  0  0  0  3  0  0  0  0  0  0
  -21.3390   -7.4310   24.6080 C   0  0  0  0  0  3  0  0  0  0  0  0
  -21.4680   -6.0280   24.6170 C   0  0  0  0  0  0  0  0  0  0  0  0
  -21.8760   -5.3510   23.4540 C   0  0  0  0  0  3  0  0  0  0  0  0
  -22.1510   -6.0750   22.2800 C   0  0  0  0  0  0  0  0  0  0  0  0
  -22.5290   -5.4170   21.1570 F   0  0  0  0  0  0  0  0  0  0  0  0
  -21.1920   -5.3300   25.7410 F   0  0  0  0  0  0  0  0  0  0  0  0
  -24.3600  -14.5360   21.1640 C   0  0  0  0  0  0  0  0  0  0  0  0
  -23.7100  -13.9260   22.1480 N   0  0  0  0  0  0  0  0  0  0  0  0
  -23.9740  -15.6160   20.7160 O   0  0  0  0  0  0  0  0  0  0  0  0
  -24.0470  -13.0530   22.5260 H   0  0  0  0  0  0  0  0  0  0  0  0
  -22.8670  -14.3360   22.5230 H   0  0  0  0  0  0  0  0  0  0  0  0
  -27.1210  -15.8650   20.1200 N   0  0  0  0  0  0  0  0  0  0  0  0
  -26.4750  -16.6300   20.2750 H   0  0  0  0  0  0  0  0  0  0  0  0
  -27.9780  -16.1580   19.6740 H   0  0  0  0  0  0  0  0  0  0  0  0
  -31.1260  -16.8090   21.2670 C   0  0  0  0  0  2  0  0  0  0  0  0
  -30.5130  -18.0860   23.3020 C   0  0  0  0  0  1  0  0  0  0  0  0
  -32.4320  -18.8330   22.0040 C   0  0  0  0  0  1  0  0  0  0  0  0
  -31.1130  -18.1520   21.9410 N   0  0  1  0  0  4  0  0  0  0  0  0
  -30.5120  -18.7630   21.4070 H   0  0  0  0  0  0  0  0  0  0  0  0
  2  1  2  0
  2  9  1  0
  3  8  1  0
  3  5  1  0
  3  4  1  0
  4  1  1  0
  5  2  1  0
  6  5  1  0
  7  8  1  0
 10 11  2  0
 10  9  1  0
 12 14  1  0
 12 11  1  0
 13 24  2  0
 14 19  1  0
 15 23  1  0
 15 25  1  0
 16 22  1  0
 16 18  1  0
 17 23  1  0
 18 17  1  0
 19 18  2  0
 20 21  1  0
 20 14  2  0
 21 16  2  0
 22 15  1  0
 23 13  1  0
 25 27  2  0
 26 25  1  0
 28 26  1  0
 29 38  2  0
 29 34  1  0
 30 26  1  0
 30 34  1  0
 31 30  1  0
 32 33  1  0
 32 31  1  0
 33 29  1  0
 34 35  2  0
 35 36  1  0
 37 36  2  0
 38 37  1  0
 39 13  1  0
 39 40  1  0
 39 49  1  0
 40 43  1  0
 41 45  1  0
 41 40  1  0
 42 41  2  0
 45 44  1  0
 47 45  1  0
 47 48  1  0
 47 46  1  0
 49 52  1  1
 49 50  1  0
 51 49  1  0
 53  4  1  0
 54 53  1  0
 54 91  1  0
 55 61  1  0
 55 54  1  0
 56 61  1  0
 57 58  1  0
 57 56  1  0
 59 58  1  0
 59 66  1  0
 59 60  1  0
 61 60  1  0
 62 55  2  0
 63 64  2  0
 64 83  1  0
 65 68  1  0
 65 64  1  0
 66 67  1  0
 66 63  1  0
 67 65  2  0
 68 69  1  0
 69 70  2  0
 71 74  1  0
 71 70  1  0
 72 71  2  0
 73 72  1  0
 73 68  2  0
 74 75  1  0
 75 80  2  0
 75 76  1  0
 76 77  2  0
 77 78  1  0
 78 82  1  0
 79 78  2  0
 80 79  1  0
 81 80  1  0
 83 84  1  0
 84 87  1  0
 84 86  1  0
 85 83  2  0
 88 63  1  0
 88 89  1  0
 90 88  1  0
 91 94  1  0
 94 93  1  0
 94 92  1  0
 94 95  1  6
M  ISO  4  11 101  12 101  54 100  55 100
M  END
>  <TORSDO>  (19) 
F 24

>  <SCORE>  (19) 
-10.345

>  <name>  (19) 
20

>  <ligand_id>  (19) 
20

>  <original_smiles>  (19) 
[H]c1c([H])c([H])c2c(c1[H])C([H])([H])C([H])([H])C([H])([H])C2([H])N([H])C(=O)C1([H])N(C(=O)C([H])(N([H])C(=O)C([H])(N([H])C([H])([H])[H])C([H])([H])[H])C(C([H])([H])[H])(C([H])([H])[H])C([H])([H])[H])C([H])([H])c2c([H])c(OC([H])([H])C([H])([H])C([H])([H])c3c([H])n(C([H])([H])C([H])(C(=O)N4C([H])([H])C([H])([H])C([H])([H])C([H])(n5nc(-c6c([H])c([H])c(Oc7c([H])c([H])c(F)c([H])c7F)c([H])c6[H])c(C(=O)N([H])[H])c5N([H])[H])C4([H])[H])C([H])([H])[N+]([H])(C([H])([H])[H])C([H])([H])[H])c(C([H])([H])C([H])([H])[H])[n+]3[H])c([H])c([H])c2C1([H])[H]

>  <smiles>  (19) 
[H]c1c([H])c([H])c2c(c1[H])C([H])([H])C([H])([H])C([H])([H])C2([H])N([H])C(=O)C1([H])N(C(=O)C([H])(N([H])C(=O)C([H])(N([H])C([H])([H])[H])C([H])([H])[H])C(C([H])([H])[H])(C([H])([H])[H])C([H])([H])[H])C([H])([H])c2c([H])c(OC([H])([H])C([H])([H])C([H])([H])c3c([H])n(C([H])([H])C([H])(C(=O)N4C([H])([H])C([H])([H])C([H])([H])C([H])(n5nc(-c6c([H])c([H])c(Oc7c([H])c([H])c(F)c([H])c7F)c([H])c6[H])c(C(=O)N([H])[H])c5N([H])[H])C4([H])[H])C([H])([H])[N+]([H])(C([H])([H])[H])C([H])([H])[H])c(C([H])([H])C([H])([H])[H])[n+]3[H])c([H])c([H])c2C1([H])[H]

$$$$
21:0:0
     RDKit          3D

 92100  0  0  1  0  0  0  0  0999 V2000
  -28.2280  -21.7990   19.3920 C   0  0  0  0  0  2  0  0  0  0  0  0
  -26.8490  -22.8150   21.1380 C   0  0  0  0  0  1  0  0  0  0  0  0
  -28.1190  -22.9220   20.3740 N   0  0  2  0  0  4  0  0  0  0  0  0
  -28.8570  -22.7860   21.0500 H   0  0  0  0  0  0  0  0  0  0  0  0
  -28.3120  -24.2710   19.7460 C   0  0  0  0  0  2  0  0  0  0  0  0
  -28.3700  -25.4550   20.7520 C   0  0  0  0  0  2  0  0  0  0  0  0
  -28.4480  -26.7430   20.1190 O   0  0  0  0  0  0  0  0  0  0  0  0
  -24.6140  -31.8810   23.2270 C   0  0  0  0  0  0  0  0  0  0  0  0
  -27.2770  -27.4700   20.1280 C   0  0  0  0  0  0  0  0  0  0  0  0
  -23.4150  -30.4840   21.5760 C   0  0  0  0  0  3  0  0  0  0  0  0
  -24.8750  -28.9560   20.1520 C   0  0  0  0  0  0  0  0  0  0  0  0
  -25.9380  -30.8560   21.3810 C   0  0  0  0  0  2  0  0  0  0  0  0
  -26.0310  -29.4880   20.7380 C   0  0  0  0  0  0  0  0  0  0  0  0
  -27.2380  -28.7530   20.7190 C   0  0  0  0  0  3  0  0  0  0  0  0
  -26.1030  -26.9510   19.5420 C   0  0  0  0  0  3  0  0  0  0  0  0
  -24.9040  -27.6860   19.5540 C   0  0  0  0  0  3  0  0  0  0  0  0
  -23.6270  -29.8100   20.1950 C   0  0  0  0  0  2  0  0  0  0  0  0
  -24.6750  -31.0870   22.1210 N   0  0  0  0  0  0  0  0  0  0  0  0
  -23.5310  -32.1460   23.7660 O   0  0  0  0  0  0  0  0  0  0  0  0
  -22.7640  -29.4570   22.5300 C   0  0  0  0  0  0  0  0  0  0  0  0
  -21.4400  -29.2720   22.3980 N   0  0  0  0  0  0  0  0  0  0  0  0
  -23.4480  -28.8290   23.3420 O   0  0  0  0  0  0  0  0  0  0  0  0
  -20.9490  -29.8340   21.7180 H   0  0  0  0  0  0  0  0  0  0  0  0
  -18.0690  -28.0650   22.8770 C   0  0  0  0  0  0  0  0  0  0  0  0
  -20.6240  -28.3280   23.1620 C   0  0  0  0  0  3  0  0  0  0  0  0
  -20.7330  -26.8990   22.5820 C   0  0  0  0  0  2  0  0  0  0  0  0
  -19.6370  -26.5760   21.5620 C   0  0  0  0  0  2  0  0  0  0  0  0
  -18.2520  -26.7170   22.2000 C   0  0  0  0  0  2  0  0  0  0  0  0
  -19.1840  -28.8280   23.3150 C   0  0  0  0  0  0  0  0  0  0  0  0
  -18.9600  -30.0890   23.9090 C   0  0  0  0  0  3  0  0  0  0  0  0
  -17.6540  -30.5890   24.0680 C   0  0  0  0  0  3  0  0  0  0  0  0
  -16.5540  -29.8220   23.6470 C   0  0  0  0  0  3  0  0  0  0  0  0
  -16.7620  -28.5630   23.0590 C   0  0  0  0  0  3  0  0  0  0  0  0
  -25.8970  -32.5120   23.8530 C   0  0  0  0  0  3  0  0  0  0  0  0
  -25.5870  -33.9090   24.1850 N   0  0  0  0  0  0  0  0  0  0  0  0
  -25.9170  -34.9620   23.4260 C   0  0  0  0  0  0  0  0  0  0  0  0
  -26.5880  -34.8600   22.3940 O   0  0  0  0  0  0  0  0  0  0  0  0
  -24.9930  -34.0630   24.9860 H   0  0  0  0  0  0  0  0  0  0  0  0
  -24.1850  -36.7490   23.0710 C   0  0  0  0  0  1  0  0  0  0  0  0
  -25.4260  -36.3480   23.8830 C   0  0  0  0  0  3  0  0  0  0  0  0
  -27.5580  -37.2360   24.7130 C   0  0  0  0  0  1  0  0  0  0  0  0
  -26.4540  -37.4030   23.7710 N   0  0  0  0  0  0  0  0  0  0  0  0
  -26.0470  -38.3220   23.9220 H   0  0  0  0  0  0  0  0  0  0  0  0
  -26.4140  -31.7370   25.1260 C   0  0  1  0  0  0  0  0  0  0  0  0
  -25.3200  -31.4930   26.1920 C   0  0  0  0  0  1  0  0  0  0  0  0
  -26.9990  -30.3630   24.7250 C   0  0  0  0  0  1  0  0  0  0  0  0
  -27.5630  -32.5300   25.7910 C   0  0  0  0  0  1  0  0  0  0  0  0
  -29.6760  -21.3520   19.0810 C   0  0  0  0  0  2  0  0  0  0  0  0
  -30.3590  -20.4690   20.1530 C   0  0  0  0  0  2  0  0  0  0  0  0
  -28.9380  -18.3030   19.4800 C   0  0  0  0  0  3  0  0  0  0  0  0
  -30.6420  -17.9900   20.8120 C   0  0  0  0  0  3  0  0  0  0  0  0
  -29.9940  -18.9950   20.1420 C   0  0  0  0  0  0  0  0  0  0  0  0
  -28.9190  -17.0040   19.7580 N   0  0  0  0  0  0  0  0  0  0  0  0
  -29.9740  -16.7980   20.5850 N   0  0  0  0  0  0  0  0  0  0  0  0
  -31.2210  -15.5200   22.3340 C   0  0  0  0  0  1  0  0  0  0  0  0
  -30.2050  -15.4680   21.1750 C   0  0  0  0  0  3  0  0  0  0  0  0
  -30.6640  -14.4040   20.1370 C   0  0  0  0  0  0  0  0  0  0  0  0
  -30.2470  -12.3460   18.8220 C   0  0  0  0  0  2  0  0  0  0  0  0
  -29.2230  -12.6270   17.7040 C   0  0  0  0  0  2  0  0  0  0  0  0
  -27.7780  -12.4860   18.2260 C   0  0  0  0  0  2  0  0  0  0  0  0
  -27.5490  -13.2510   19.5580 C   0  0  0  0  0  3  0  0  0  0  0  0
  -28.6670  -12.9030   20.5640 C   0  0  0  0  0  2  0  0  0  0  0  0
  -29.9540  -13.2560   19.9400 N   0  0  0  0  0  0  0  0  0  0  0  0
  -31.6940  -14.6410   19.4920 O   0  0  0  0  0  0  0  0  0  0  0  0
  -25.2010  -13.8690   20.4120 C   0  0  0  0  0  0  0  0  0  0  0  0
  -24.1470  -13.0990   20.8300 C   0  0  0  0  0  0  0  0  0  0  0  0
  -24.5930  -11.7440   20.7460 C   0  0  0  0  0  0  0  0  0  0  0  0
  -26.2220  -12.9820   20.1070 N   0  0  0  0  0  0  0  0  0  0  0  0
  -25.8610  -11.6980   20.3600 N   0  0  0  0  0  0  0  0  0  0  0  0
  -23.8690  -10.4840   20.9580 C   0  0  0  0  0  0  0  0  0  0  0  0
  -24.3310   -9.5100   21.8710 C   0  0  0  0  0  3  0  0  0  0  0  0
  -23.6080   -8.3140   22.0700 C   0  0  0  0  0  3  0  0  0  0  0  0
  -22.4090   -8.0850   21.3570 C   0  0  0  0  0  0  0  0  0  0  0  0
  -21.9640   -9.0470   20.4330 C   0  0  0  0  0  3  0  0  0  0  0  0
  -22.6870  -10.2340   20.2330 C   0  0  0  0  0  3  0  0  0  0  0  0
  -21.6530   -6.9410   21.4660 O   0  0  0  0  0  0  0  0  0  0  0  0
  -21.6240   -6.2060   22.6240 C   0  0  0  0  0  0  0  0  0  0  0  0
  -21.2340   -6.7720   23.8580 C   0  0  0  0  0  3  0  0  0  0  0  0
  -21.1520   -5.9650   25.0090 C   0  0  0  0  0  3  0  0  0  0  0  0
  -21.4480   -4.5900   24.9270 C   0  0  0  0  0  0  0  0  0  0  0  0
  -21.8320   -4.0230   23.7000 C   0  0  0  0  0  3  0  0  0  0  0  0
  -21.9160   -4.8290   22.5500 C   0  0  0  0  0  0  0  0  0  0  0  0
  -22.2660   -4.2730   21.3650 F   0  0  0  0  0  0  0  0  0  0  0  0
  -21.3620   -3.8120   26.0320 F   0  0  0  0  0  0  0  0  0  0  0  0
  -22.7740  -13.5820   21.1980 C   0  0  0  0  0  0  0  0  0  0  0  0
  -22.0970  -12.8760   22.0990 N   0  0  0  0  0  0  0  0  0  0  0  0
  -22.3120  -14.6190   20.7250 O   0  0  0  0  0  0  0  0  0  0  0  0
  -22.4840  -12.0370   22.5030 H   0  0  0  0  0  0  0  0  0  0  0  0
  -21.1770  -13.1810   22.3870 H   0  0  0  0  0  0  0  0  0  0  0  0
  -25.3710  -15.2400   20.2530 N   0  0  0  0  0  0  0  0  0  0  0  0
  -24.6280  -15.9080   20.4290 H   0  0  0  0  0  0  0  0  0  0  0  0
  -26.2300  -15.6760   19.9350 H   0  0  0  0  0  0  0  0  0  0  0  0
  1  3  1  0
  3  4  1  1
  3  2  1  0
  5  3  1  0
  5  6  1  0
  7  9  1  0
  7  6  1  0
  8 19  2  0
  9 14  1  0
 10 18  1  0
 10 20  1  0
 11 17  1  0
 11 13  1  0
 12 18  1  0
 13 12  1  0
 14 13  2  0
 15 16  1  0
 15  9  2  0
 16 11  2  0
 17 10  1  0
 18  8  1  0
 20 22  2  0
 21 20  1  0
 23 21  1  0
 24 33  2  0
 24 29  1  0
 25 21  1  0
 25 29  1  0
 26 25  1  0
 27 28  1  0
 27 26  1  0
 28 24  1  0
 29 30  2  0
 30 31  1  0
 32 31  2  0
 33 32  1  0
 34  8  1  0
 34 35  1  0
 34 44  1  0
 35 38  1  0
 36 40  1  0
 36 35  1  0
 37 36  2  0
 40 39  1  0
 42 40  1  0
 42 43  1  0
 42 41  1  0
 44 47  1  1
 44 45  1  0
 46 44  1  0
 48  1  1  0
 48 49  1  0
 50 53  2  0
 50 52  1  0
 52 49  1  0
 52 51  2  0
 53 54  1  0
 54 51  1  0
 54 56  1  0
 56 55  1  0
 57 56  1  0
 58 63  1  0
 59 60  1  0
 59 58  1  0
 61 60  1  0
 61 68  1  0
 61 62  1  0
 63 57  1  0
 63 62  1  0
 64 57  2  0
 65 66  2  0
 66 85  1  0
 67 66  1  0
 67 70  1  0
 68 69  1  0
 68 65  1  0
 69 67  2  0
 70 71  1  0
 71 72  2  0
 73 76  1  0
 73 72  1  0
 74 73  2  0
 75 74  1  0
 75 70  2  0
 76 77  1  0
 77 78  1  0
 78 79  2  0
 80 79  1  0
 80 84  1  0
 81 80  2  0
 82 77  2  0
 82 81  1  0
 83 82  1  0
 85 86  1  0
 86 89  1  0
 86 88  1  0
 87 85  2  0
 90 65  1  0
 90 91  1  0
 92 90  1  0
M  ISO  4   6 101   7 101  56 100  57 100
M  END
>  <TORSDO>  (20) 
F 23

>  <SCORE>  (20) 
-12.299

>  <name>  (20) 
21

>  <ligand_id>  (20) 
21

>  <original_smiles>  (20) 
[H]c1nn(C([H])(C(=O)N2C([H])([H])C([H])([H])C([H])([H])C([H])(n3nc(-c4c([H])c([H])c(Oc5c([H])c([H])c(F)c([H])c5F)c([H])c4[H])c(C(=O)N([H])[H])c3N([H])[H])C2([H])[H])C([H])([H])[H])c([H])c1C([H])([H])C([H])([H])C([H])([H])[N+]([H])(C([H])([H])[H])C([H])([H])C([H])([H])Oc1c([H])c([H])c2c(c1[H])C([H])([H])N(C(=O)C([H])(N([H])C(=O)C([H])(N([H])C([H])([H])[H])C([H])([H])[H])C(C([H])([H])[H])(C([H])([H])[H])C([H])([H])[H])C([H])(C(=O)N([H])C1([H])c3c([H])c([H])c([H])c([H])c3C([H])([H])C([H])([H])C1([H])[H])C2([H])[H]

>  <smiles>  (20) 
[H]c1nn(C([H])(C(=O)N2C([H])([H])C([H])([H])C([H])([H])C([H])(n3nc(-c4c([H])c([H])c(Oc5c([H])c([H])c(F)c([H])c5F)c([H])c4[H])c(C(=O)N([H])[H])c3N([H])[H])C2([H])[H])C([H])([H])[H])c([H])c1C([H])([H])C([H])([H])C([H])([H])[N+]([H])(C([H])([H])[H])C([H])([H])C([H])([H])Oc1c([H])c([H])c2c(c1[H])C([H])([H])N(C(=O)C([H])(N([H])C(=O)C([H])(N([H])C([H])([H])[H])C([H])([H])[H])C(C([H])([H])[H])(C([H])([H])[H])C([H])([H])[H])C([H])(C(=O)N([H])C1([H])c3c([H])c([H])c([H])c([H])c3C([H])([H])C([H])([H])C1([H])[H])C2([H])[H]

$$$$
22:0:0
     RDKit          3D

 91 99  0  0  1  0  0  0  0  0999 V2000
  -30.6730  -20.1420   18.9730 C   0  0  0  0  0  3  0  0  0  0  0  0
  -29.9000  -19.1950   19.7010 C   0  0  0  0  0  0  0  0  0  0  0  0
  -28.7880  -19.8810   20.2930 C   0  0  0  0  0  0  0  0  0  0  0  0
  -29.3780  -22.0840   19.5350 C   0  0  0  0  0  0  0  0  0  0  0  0
  -27.8030  -19.1120   21.1480 C   0  0  0  0  0  1  0  0  0  0  0  0
  -30.4240  -21.4970   18.9120 N   0  0  0  0  0  0  0  0  0  0  0  0
  -28.5550  -21.2530   20.2160 N   0  0  0  0  0  0  0  0  0  0  0  0
  -30.4670  -24.3170   18.8030 C   0  0  0  0  0  1  0  0  0  0  0  0
  -29.9660  -23.9440   21.2020 C   0  0  0  0  0  1  0  0  0  0  0  0
  -29.4170  -23.7300   19.7790 C   0  0  2  0  0  0  0  0  0  0  0  0
  -28.1480  -24.7920   19.5980 C   0  0  0  0  0  2  0  0  0  0  0  0
  -28.3040  -26.3190   19.8060 O   0  0  0  0  0  0  0  0  0  0  0  0
  -24.5100  -31.6660   23.1030 C   0  0  0  0  0  0  0  0  0  0  0  0
  -27.1890  -27.2210   19.8130 C   0  0  0  0  0  0  0  0  0  0  0  0
  -23.3280  -30.3140   21.4140 C   0  0  0  0  0  3  0  0  0  0  0  0
  -24.8000  -28.8580   19.8970 C   0  0  0  0  0  0  0  0  0  0  0  0
  -25.8650  -30.6780   21.2240 C   0  0  0  0  0  2  0  0  0  0  0  0
  -25.9720  -29.3240   20.5060 C   0  0  0  0  0  0  0  0  0  0  0  0
  -27.1680  -28.5230   20.4440 C   0  0  0  0  0  3  0  0  0  0  0  0
  -25.9850  -26.8390   19.1810 C   0  0  0  0  0  3  0  0  0  0  0  0
  -24.8170  -27.6290   19.2210 C   0  0  0  0  0  3  0  0  0  0  0  0
  -23.5450  -29.7100   20.0030 C   0  0  0  0  0  2  0  0  0  0  0  0
  -24.5880  -30.9040   21.9700 N   0  0  0  0  0  0  0  0  0  0  0  0
  -23.4250  -31.8920   23.6590 O   0  0  0  0  0  0  0  0  0  0  0  0
  -22.6950  -29.2420   22.3360 C   0  0  0  0  0  0  0  0  0  0  0  0
  -21.3760  -29.0220   22.2030 N   0  0  0  0  0  0  0  0  0  0  0  0
  -23.3950  -28.6100   23.1320 O   0  0  0  0  0  0  0  0  0  0  0  0
  -20.8660  -29.5860   21.5360 H   0  0  0  0  0  0  0  0  0  0  0  0
  -18.0430  -27.6800   22.6660 C   0  0  0  0  0  0  0  0  0  0  0  0
  -20.5930  -28.0240   22.9360 C   0  0  0  0  0  3  0  0  0  0  0  0
  -20.7430  -26.6220   22.3000 C   0  0  0  0  0  2  0  0  0  0  0  0
  -19.6490  -26.3030   21.2770 C   0  0  0  0  0  2  0  0  0  0  0  0
  -18.2660  -26.3680   21.9310 C   0  0  0  0  0  2  0  0  0  0  0  0
  -19.1360  -28.4640   23.1240 C   0  0  0  0  0  0  0  0  0  0  0  0
  -18.8720  -29.6900   23.7720 C   0  0  0  0  0  3  0  0  0  0  0  0
  -17.5500  -30.1340   23.9660 C   0  0  0  0  0  3  0  0  0  0  0  0
  -16.4730  -29.3470   23.5240 C   0  0  0  0  0  3  0  0  0  0  0  0
  -16.7210  -28.1220   22.8790 C   0  0  0  0  0  3  0  0  0  0  0  0
  -25.7800  -32.3070   23.7440 C   0  0  0  0  0  3  0  0  0  0  0  0
  -26.2850  -31.5350   25.0250 C   0  0  1  0  0  0  0  0  0  0  0  0
  -25.1810  -31.2850   26.0780 C   0  0  0  0  0  1  0  0  0  0  0  0
  -26.8850  -30.1640   24.6380 C   0  0  0  0  0  1  0  0  0  0  0  0
  -27.4210  -32.3370   25.7050 C   0  0  0  0  0  1  0  0  0  0  0  0
  -25.4530  -33.7020   24.0820 N   0  0  0  0  0  0  0  0  0  0  0  0
  -25.7570  -34.7630   23.3220 C   0  0  0  0  0  0  0  0  0  0  0  0
  -26.4090  -34.6710   22.2780 O   0  0  0  0  0  0  0  0  0  0  0  0
  -24.8700  -33.8460   24.8930 H   0  0  0  0  0  0  0  0  0  0  0  0
  -23.9840  -36.5250   23.0300 C   0  0  0  0  0  1  0  0  0  0  0  0
  -25.2620  -36.1440   23.7950 C   0  0  0  0  0  3  0  0  0  0  0  0
  -27.4020  -37.0820   24.5550 C   0  0  0  0  0  1  0  0  0  0  0  0
  -26.2700  -37.2160   23.6400 N   0  0  0  0  0  0  0  0  0  0  0  0
  -25.8500  -38.1300   23.7870 H   0  0  0  0  0  0  0  0  0  0  0  0
  -30.4260  -17.6650   20.0430 C   0  0  0  0  0  2  0  0  0  0  0  0
  -30.5870  -15.0260   19.5290 C   0  0  0  0  0  0  0  0  0  0  0  0
  -30.2990  -12.6870   18.6250 C   0  0  0  0  0  2  0  0  0  0  0  0
  -29.2380  -12.6400   17.5030 C   0  0  0  0  0  2  0  0  0  0  0  0
  -27.8290  -12.4430   18.0970 C   0  0  0  0  0  2  0  0  0  0  0  0
  -27.5500  -13.3780   19.3030 C   0  0  0  0  0  3  0  0  0  0  0  0
  -28.7290  -13.4230   20.2990 C   0  0  0  0  0  2  0  0  0  0  0  0
  -29.9260  -13.8000   19.5350 N   0  0  0  0  0  0  0  0  0  0  0  0
  -31.7990  -15.0110   19.2890 O   0  0  0  0  0  0  0  0  0  0  0  0
  -28.8400  -16.5030   18.5690 C   0  0  0  0  0  1  0  0  0  0  0  0
  -29.8850  -16.2740   19.5700 N   0  0  0  0  0  0  0  0  0  0  0  0
  -25.2900  -13.9920   20.3290 C   0  0  0  0  0  0  0  0  0  0  0  0
  -24.2510  -13.2300   20.7830 C   0  0  0  0  0  0  0  0  0  0  0  0
  -24.6750  -11.8710   20.6600 C   0  0  0  0  0  0  0  0  0  0  0  0
  -26.2770  -13.0970   19.9480 N   0  0  0  0  0  0  0  0  0  0  0  0
  -25.9250  -11.8140   20.2150 N   0  0  0  0  0  0  0  0  0  0  0  0
  -23.9440  -10.6200   20.8850 C   0  0  0  0  0  0  0  0  0  0  0  0
  -24.4190   -9.6370   21.7790 C   0  0  0  0  0  3  0  0  0  0  0  0
  -23.6880   -8.4500   21.9930 C   0  0  0  0  0  3  0  0  0  0  0  0
  -22.4650   -8.2390   21.3120 C   0  0  0  0  0  0  0  0  0  0  0  0
  -22.0080   -9.2100   20.4050 C   0  0  0  0  0  3  0  0  0  0  0  0
  -22.7400  -10.3890   20.1890 C   0  0  0  0  0  3  0  0  0  0  0  0
  -21.6990   -7.1060   21.4390 O   0  0  0  0  0  0  0  0  0  0  0  0
  -21.6780   -6.3770   22.6020 C   0  0  0  0  0  0  0  0  0  0  0  0
  -21.2510   -6.9390   23.8250 C   0  0  0  0  0  3  0  0  0  0  0  0
  -21.1800   -6.1360   24.9810 C   0  0  0  0  0  3  0  0  0  0  0  0
  -21.5250   -4.7730   24.9150 C   0  0  0  0  0  0  0  0  0  0  0  0
  -21.9470   -4.2120   23.6960 C   0  0  0  0  0  3  0  0  0  0  0  0
  -22.0200   -5.0110   22.5430 C   0  0  0  0  0  0  0  0  0  0  0  0
  -22.4070   -4.4610   21.3660 F   0  0  0  0  0  0  0  0  0  0  0  0
  -21.4510   -3.9990   26.0230 F   0  0  0  0  0  0  0  0  0  0  0  0
  -22.9020  -13.7290   21.2130 C   0  0  0  0  0  0  0  0  0  0  0  0
  -22.2530  -13.0230   22.1310 N   0  0  0  0  0  0  0  0  0  0  0  0
  -22.4380  -14.7790   20.7700 O   0  0  0  0  0  0  0  0  0  0  0  0
  -22.6450  -12.1740   22.5090 H   0  0  0  0  0  0  0  0  0  0  0  0
  -21.3520  -13.3370   22.4610 H   0  0  0  0  0  0  0  0  0  0  0  0
  -25.4680  -15.3650   20.1810 N   0  0  0  0  0  0  0  0  0  0  0  0
  -24.7380  -16.0320   20.4070 H   0  0  0  0  0  0  0  0  0  0  0  0
  -26.2970  -15.7980   19.7970 H   0  0  0  0  0  0  0  0  0  0  0  0
  1  2  2  0
  2 53  1  0
  2  3  1  0
  3  5  1  0
  4 10  1  0
  4  7  1  0
  6  1  1  0
  6  4  2  0
  7  3  2  0
 10  8  1  6
 10  9  1  0
 11 10  1  0
 11 12  1  0
 12 14  1  0
 13 24  2  0
 14 19  1  0
 15 23  1  0
 15 25  1  0
 16 22  1  0
 16 18  1  0
 17 23  1  0
 18 17  1  0
 19 18  2  0
 20 21  1  0
 20 14  2  0
 21 16  2  0
 22 15  1  0
 23 13  1  0
 25 27  2  0
 26 25  1  0
 28 26  1  0
 29 38  2  0
 29 34  1  0
 30 26  1  0
 30 34  1  0
 31 30  1  0
 32 33  1  0
 32 31  1  0
 33 29  1  0
 34 35  2  0
 35 36  1  0
 37 36  2  0
 38 37  1  0
 39 13  1  0
 39 44  1  0
 39 40  1  0
 40 43  1  1
 40 41  1  0
 42 40  1  0
 44 47  1  0
 45 49  1  0
 45 44  1  0
 46 45  2  0
 49 48  1  0
 51 52  1  0
 51 49  1  0
 51 50  1  0
 54 60  1  0
 54 63  1  0
 55 60  1  0
 56 57  1  0
 56 55  1  0
 58 57  1  0
 58 67  1  0
 58 59  1  0
 60 59  1  0
 61 54  2  0
 62 63  1  0
 63 53  1  0
 64 65  2  0
 65 84  1  0
 66 65  1  0
 66 69  1  0
 67 68  1  0
 67 64  1  0
 68 66  2  0
 69 70  1  0
 70 71  2  0
 72 75  1  0
 72 71  1  0
 73 72  2  0
 74 73  1  0
 74 69  2  0
 75 76  1  0
 76 77  1  0
 77 78  2  0
 79 78  1  0
 79 83  1  0
 80 79  2  0
 81 76  2  0
 81 80  1  0
 82 81  1  0
 84 85  1  0
 85 88  1  0
 85 87  1  0
 86 84  2  0
 89 64  1  0
 89 90  1  0
 91 89  1  0
M  ISO  4  11 101  12 101  54 100  63 100
M  END
>  <TORSDO>  (21) 
F 19

>  <SCORE>  (21) 
-12.054

>  <name>  (21) 
22

>  <ligand_id>  (21) 
22

>  <original_smiles>  (21) 
[H]c1nc(C(C([H])([H])[H])(C([H])([H])[H])C([H])([H])Oc2c([H])c([H])c3c(c2[H])C([H])([H])N(C(=O)C([H])(N([H])C(=O)C([H])(N([H])C([H])([H])[H])C([H])([H])[H])C(C([H])([H])[H])(C([H])([H])[H])C([H])([H])[H])C([H])(C(=O)N([H])C2([H])c4c([H])c([H])c([H])c([H])c4C([H])([H])C([H])([H])C2([H])[H])C3([H])[H])nc(C([H])([H])[H])c1C([H])([H])N(C(=O)N1C([H])([H])C([H])([H])C([H])([H])C([H])(n2nc(-c3c([H])c([H])c(Oc4c([H])c([H])c(F)c([H])c4F)c([H])c3[H])c(C(=O)N([H])[H])c2N([H])[H])C1([H])[H])C([H])([H])[H]

>  <smiles>  (21) 
[H]c1nc(C(C([H])([H])[H])(C([H])([H])[H])C([H])([H])Oc2c([H])c([H])c3c(c2[H])C([H])([H])N(C(=O)C([H])(N([H])C(=O)C([H])(N([H])C([H])([H])[H])C([H])([H])[H])C(C([H])([H])[H])(C([H])([H])[H])C([H])([H])[H])C([H])(C(=O)N([H])C2([H])c4c([H])c([H])c([H])c([H])c4C([H])([H])C([H])([H])C2([H])[H])C3([H])[H])nc(C([H])([H])[H])c1C([H])([H])N(C(=O)N1C([H])([H])C([H])([H])C([H])([H])C([H])(n2nc(-c3c([H])c([H])c(Oc4c([H])c([H])c(F)c([H])c4F)c([H])c3[H])c(C(=O)N([H])[H])c2N([H])[H])C1([H])[H])C([H])([H])[H]

$$$$
23:0:0
     RDKit          3D

 90 98  0  0  1  0  0  0  0  0999 V2000
  -27.3130  -22.9570   19.8190 C   0  0  0  0  0  3  0  0  0  0  0  0
  -28.3680  -23.6920   20.3220 C   0  0  0  0  0  0  0  0  0  0  0  0
  -28.9750  -21.4500   20.0610 C   0  0  0  0  0  3  0  0  0  0  0  0
  -30.7900  -22.9750   20.8010 C   0  0  0  0  0  1  0  0  0  0  0  0
  -29.3980  -22.7190   20.3950 N   0  0  0  0  0  0  0  0  0  0  0  0
  -27.7070  -21.6380   19.6700 N   0  0  0  0  0  0  0  0  0  0  0  0
  -27.1100  -20.8980   19.3160 H   0  0  0  0  0  0  0  0  0  0  0  0
  -28.4060  -25.1690   20.9030 C   0  0  0  0  0  2  0  0  0  0  0  0
  -28.3810  -26.4190   20.0830 O   0  0  0  0  0  0  0  0  0  0  0  0
  -24.6200  -31.8570   23.1810 C   0  0  0  0  0  0  0  0  0  0  0  0
  -27.2630  -27.2740   20.1400 C   0  0  0  0  0  0  0  0  0  0  0  0
  -23.4310  -30.4450   21.5410 C   0  0  0  0  0  3  0  0  0  0  0  0
  -24.8940  -28.8900   20.1230 C   0  0  0  0  0  0  0  0  0  0  0  0
  -25.9750  -30.7640   21.3700 C   0  0  0  0  0  2  0  0  0  0  0  0
  -26.0590  -29.3820   20.7280 C   0  0  0  0  0  0  0  0  0  0  0  0
  -27.2480  -28.5830   20.7250 C   0  0  0  0  0  3  0  0  0  0  0  0
  -26.0770  -26.8420   19.5160 C   0  0  0  0  0  3  0  0  0  0  0  0
  -24.9070  -27.6290   19.5090 C   0  0  0  0  0  3  0  0  0  0  0  0
  -23.6530  -29.7620   20.1650 C   0  0  0  0  0  2  0  0  0  0  0  0
  -24.6950  -31.0430   22.0860 N   0  0  0  0  0  0  0  0  0  0  0  0
  -23.5350  -32.1240   23.7160 O   0  0  0  0  0  0  0  0  0  0  0  0
  -22.7750  -29.4290   22.5040 C   0  0  0  0  0  0  0  0  0  0  0  0
  -21.4460  -29.2570   22.3930 N   0  0  0  0  0  0  0  0  0  0  0  0
  -23.4600  -28.7960   23.3140 O   0  0  0  0  0  0  0  0  0  0  0  0
  -20.9520  -29.8140   21.7110 H   0  0  0  0  0  0  0  0  0  0  0  0
  -18.0740  -28.0550   22.9170 C   0  0  0  0  0  0  0  0  0  0  0  0
  -20.6340  -28.3160   23.1670 C   0  0  0  0  0  3  0  0  0  0  0  0
  -20.7340  -26.8870   22.5830 C   0  0  0  0  0  2  0  0  0  0  0  0
  -19.6210  -26.5660   21.5800 C   0  0  0  0  0  2  0  0  0  0  0  0
  -18.2440  -26.7090   22.2350 C   0  0  0  0  0  2  0  0  0  0  0  0
  -19.1940  -28.8170   23.3440 C   0  0  0  0  0  0  0  0  0  0  0  0
  -18.9800  -30.0760   23.9440 C   0  0  0  0  0  3  0  0  0  0  0  0
  -17.6740  -30.5740   24.1270 C   0  0  0  0  0  3  0  0  0  0  0  0
  -16.5680  -29.8080   23.7180 C   0  0  0  0  0  3  0  0  0  0  0  0
  -16.7680  -28.5540   23.1160 C   0  0  0  0  0  3  0  0  0  0  0  0
  -25.8940  -32.5020   23.8040 C   0  0  0  0  0  3  0  0  0  0  0  0
  -26.4270  -31.7270   25.0730 C   0  0  1  0  0  0  0  0  0  0  0  0
  -25.3410  -31.4600   26.1420 C   0  0  0  0  0  1  0  0  0  0  0  0
  -27.0260  -30.3620   24.6660 C   0  0  0  0  0  1  0  0  0  0  0  0
  -27.5700  -32.5320   25.7330 C   0  0  0  0  0  1  0  0  0  0  0  0
  -25.5640  -33.8910   24.1500 N   0  0  0  0  0  0  0  0  0  0  0  0
  -25.8770  -34.9600   23.4050 C   0  0  0  0  0  0  0  0  0  0  0  0
  -26.5400  -34.8790   22.3670 O   0  0  0  0  0  0  0  0  0  0  0  0
  -24.9720  -34.0270   24.9570 H   0  0  0  0  0  0  0  0  0  0  0  0
  -24.1140  -36.7290   23.1060 C   0  0  0  0  0  1  0  0  0  0  0  0
  -25.3760  -36.3330   23.8890 C   0  0  0  0  0  3  0  0  0  0  0  0
  -27.5060  -37.2460   24.6930 C   0  0  0  0  0  1  0  0  0  0  0  0
  -26.3850  -37.4060   23.7720 N   0  0  0  0  0  0  0  0  0  0  0  0
  -25.9640  -38.3170   23.9400 H   0  0  0  0  0  0  0  0  0  0  0  0
  -29.8000  -20.0960   20.0030 C   0  0  0  0  0  2  0  0  0  0  0  0
  -29.1960  -18.6090   20.2370 C   0  0  0  0  0  3  0  0  0  0  0  0
  -30.2260  -17.3460   20.0910 C   0  0  0  0  0  3  0  0  0  0  0  0
  -30.5950  -14.7710   20.1030 C   0  0  0  0  0  0  0  0  0  0  0  0
  -30.3690  -12.5410   18.9590 C   0  0  0  0  0  2  0  0  0  0  0  0
  -29.3590  -12.6500   17.7960 C   0  0  0  0  0  2  0  0  0  0  0  0
  -27.9110  -12.4610   18.2950 C   0  0  0  0  0  2  0  0  0  0  0  0
  -27.6100  -13.2880   19.5740 C   0  0  0  0  0  3  0  0  0  0  0  0
  -28.7230  -13.0810   20.6170 C   0  0  0  0  0  2  0  0  0  0  0  0
  -29.9760  -13.5350   19.9950 N   0  0  0  0  0  0  0  0  0  0  0  0
  -31.7190  -14.9040   19.5980 O   0  0  0  0  0  0  0  0  0  0  0  0
  -29.2540  -15.9400   21.8480 C   0  0  0  0  0  1  0  0  0  0  0  0
  -29.8740  -15.9100   20.5160 N   0  0  0  0  0  0  0  0  0  0  0  0
  -25.2620  -13.8670   20.4330 C   0  0  0  0  0  0  0  0  0  0  0  0
  -24.2170  -13.0850   20.8470 C   0  0  0  0  0  0  0  0  0  0  0  0
  -24.6780  -11.7360   20.7610 C   0  0  0  0  0  0  0  0  0  0  0  0
  -26.2910  -12.9920   20.1220 N   0  0  0  0  0  0  0  0  0  0  0  0
  -25.9480  -11.7030   20.3790 N   0  0  0  0  0  0  0  0  0  0  0  0
  -23.9600  -10.4690   20.9690 C   0  0  0  0  0  0  0  0  0  0  0  0
  -24.4240   -9.5020   21.8850 C   0  0  0  0  0  3  0  0  0  0  0  0
  -23.7100   -8.2980   22.0780 C   0  0  0  0  0  3  0  0  0  0  0  0
  -22.5150   -8.0610   21.3570 C   0  0  0  0  0  0  0  0  0  0  0  0
  -22.0710   -9.0200   20.4290 C   0  0  0  0  0  3  0  0  0  0  0  0
  -22.7850  -10.2120   20.2350 C   0  0  0  0  0  3  0  0  0  0  0  0
  -21.7700   -6.9120   21.4620 O   0  0  0  0  0  0  0  0  0  0  0  0
  -21.7290   -6.1850   22.6240 C   0  0  0  0  0  0  0  0  0  0  0  0
  -21.3210   -6.7550   23.8500 C   0  0  0  0  0  3  0  0  0  0  0  0
  -21.2270   -5.9520   25.0030 C   0  0  0  0  0  3  0  0  0  0  0  0
  -21.5330   -4.5800   24.9330 C   0  0  0  0  0  0  0  0  0  0  0  0
  -21.9360   -4.0090   23.7130 C   0  0  0  0  0  3  0  0  0  0  0  0
  -22.0300   -4.8090   22.5610 C   0  0  0  0  0  0  0  0  0  0  0  0
  -22.3980   -4.2490   21.3830 F   0  0  0  0  0  0  0  0  0  0  0  0
  -21.4360   -3.8060   26.0390 F   0  0  0  0  0  0  0  0  0  0  0  0
  -22.8370  -13.5580   21.2080 C   0  0  0  0  0  0  0  0  0  0  0  0
  -22.1640  -12.8500   22.1080 N   0  0  0  0  0  0  0  0  0  0  0  0
  -22.3670  -14.5840   20.7230 O   0  0  0  0  0  0  0  0  0  0  0  0
  -22.5610  -12.0220   22.5280 H   0  0  0  0  0  0  0  0  0  0  0  0
  -21.2360  -13.1410   22.3820 H   0  0  0  0  0  0  0  0  0  0  0  0
  -25.4120  -15.2410   20.2740 N   0  0  0  0  0  0  0  0  0  0  0  0
  -24.6390  -15.8780   20.4360 H   0  0  0  0  0  0  0  0  0  0  0  0
  -26.2340  -15.6960   19.9000 H   0  0  0  0  0  0  0  0  0  0  0  0
  1  2  2  0
  2  5  1  0
  2  8  1  0
  3 50  1  0
  3  5  1  0
  5  4  1  0
  6  1  1  0
  6  3  1  0
  7  6  1  0
  9 11  1  0
  9  8  1  0
 10 21  2  0
 11 16  1  0
 12 20  1  0
 12 22  1  0
 13 19  1  0
 13 15  1  0
 14 20  1  0
 15 14  1  0
 16 15  2  0
 17 11  2  0
 18 17  1  0
 18 13  2  0
 19 12  1  0
 20 10  1  0
 22 24  2  0
 23 22  1  0
 25 23  1  0
 26 35  2  0
 26 31  1  0
 27 23  1  0
 27 31  1  0
 28 27  1  0
 29 30  1  0
 29 28  1  0
 30 26  1  0
 31 32  2  0
 32 33  1  0
 34 33  2  0
 35 34  1  0
 36 10  1  0
 36 41  1  0
 36 37  1  0
 37 40  1  1
 37 38  1  0
 39 37  1  0
 41 44  1  0
 42 46  1  0
 42 41  1  0
 43 42  2  0
 46 45  1  0
 48 46  1  0
 48 49  1  0
 48 47  1  0
 50 51  1  0
 52 51  2  0
 52 62  1  0
 53 62  1  0
 54 59  1  0
 55 56  1  0
 55 54  1  0
 57 56  1  0
 57 66  1  0
 57 58  1  0
 59 53  1  0
 59 58  1  0
 60 53  2  0
 62 61  1  0
 63 64  2  0
 64 83  1  0
 65 64  1  0
 65 68  1  0
 66 67  1  0
 66 63  1  0
 67 65  2  0
 68 69  1  0
 69 70  2  0
 71 74  1  0
 71 70  1  0
 72 71  2  0
 73 72  1  0
 73 68  2  0
 74 75  1  0
 75 76  1  0
 76 77  2  0
 78 77  1  0
 78 82  1  0
 79 78  2  0
 80 75  2  0
 80 79  1  0
 81 80  1  0
 83 84  1  0
 84 87  1  0
 84 86  1  0
 85 83  2  0
 88 63  1  0
 88 89  1  0
 90 88  1  0
M  ISO  4   8 101   9 101  53 100  62 100
M  END
>  <TORSDO>  (22) 
F 20

>  <SCORE>  (22) 
-13.104

>  <name>  (22) 
23

>  <ligand_id>  (22) 
23

>  <original_smiles>  (22) 
[H]c1c([H])c([H])c2c(c1[H])C([H])([H])C([H])([H])C([H])([H])C2([H])N([H])C(=O)C1([H])N(C(=O)C([H])(N([H])C(=O)C([H])(N([H])C([H])([H])[H])C([H])([H])[H])C(C([H])([H])[H])(C([H])([H])[H])C([H])([H])[H])C([H])([H])c2c([H])c(OC([H])([H])c3c([H])[n+]([H])c(C([H])([H])C([H])([H])C([H])([H])N(C(=O)N4C([H])([H])C([H])([H])C([H])([H])C([H])(n5nc(-c6c([H])c([H])c(Oc7c([H])c([H])c(F)c([H])c7F)c([H])c6[H])c(C(=O)N([H])[H])c5N([H])[H])C4([H])[H])C([H])([H])[H])n3C([H])([H])[H])c([H])c([H])c2C1([H])[H]

>  <smiles>  (22) 
[H]c1c([H])c([H])c2c(c1[H])C([H])([H])C([H])([H])C([H])([H])C2([H])N([H])C(=O)C1([H])N(C(=O)C([H])(N([H])C(=O)C([H])(N([H])C([H])([H])[H])C([H])([H])[H])C(C([H])([H])[H])(C([H])([H])[H])C([H])([H])[H])C([H])([H])c2c([H])c(OC([H])([H])c3c([H])[n+]([H])c(C([H])([H])C([H])([H])C([H])([H])N(C(=O)N4C([H])([H])C([H])([H])C([H])([H])C([H])(n5nc(-c6c([H])c([H])c(Oc7c([H])c([H])c(F)c([H])c7F)c([H])c6[H])c(C(=O)N([H])[H])c5N([H])[H])C4([H])[H])C([H])([H])[H])n3C([H])([H])[H])c([H])c([H])c2C1([H])[H]

$$$$
24:0:0
     RDKit          3D

 98106  0  0  1  0  0  0  0  0999 V2000
  -26.6520  -20.7810   20.0210 C   0  0  0  0  0  2  0  0  0  0  0  0
  -29.0820  -18.6720   18.3250 C   0  0  0  0  0  3  0  0  0  0  0  0
  -29.0200  -17.5170   19.1300 C   0  0  0  0  0  0  0  0  0  0  0  0
  -27.3540  -19.5260   19.5320 C   0  0  0  0  0  0  0  0  0  0  0  0
  -28.2230  -19.6920   18.5280 N   0  0  0  0  0  0  0  0  0  0  0  0
  -28.0390  -17.3810   20.0530 N   0  0  0  0  0  0  0  0  0  0  0  0
  -27.2250  -18.4220   20.2870 N   0  0  0  0  0  0  0  0  0  0  0  0
  -30.0280  -16.3930   18.9520 C   0  0  0  0  0  2  0  0  0  0  0  0
  -31.1190  -14.5110   19.7850 C   0  0  0  0  0  0  0  0  0  0  0  0
  -30.6400  -12.3340   18.7550 C   0  0  0  0  0  2  0  0  0  0  0  0
  -29.6120  -12.5100   17.6200 C   0  0  0  0  0  2  0  0  0  0  0  0
  -28.1810  -12.3830   18.1750 C   0  0  0  0  0  2  0  0  0  0  0  0
  -27.9410  -13.2900   19.4130 C   0  0  0  0  0  3  0  0  0  0  0  0
  -29.0870  -13.1630   20.4470 C   0  0  0  0  0  2  0  0  0  0  0  0
  -30.3650  -13.3780   19.7540 N   0  0  0  0  0  0  0  0  0  0  0  0
  -32.2410  -14.5760   19.2800 O   0  0  0  0  0  0  0  0  0  0  0  0
  -30.5060  -15.6620   20.1540 N   0  0  0  0  0  0  0  0  0  0  0  0
  -25.6430  -13.9390   20.3790 C   0  0  0  0  0  0  0  0  0  0  0  0
  -24.5890  -13.1870   20.8190 C   0  0  0  0  0  0  0  0  0  0  0  0
  -24.9960  -11.8240   20.6860 C   0  0  0  0  0  0  0  0  0  0  0  0
  -26.6330  -13.0380   20.0140 N   0  0  0  0  0  0  0  0  0  0  0  0
  -26.2490  -11.7580   20.2520 N   0  0  0  0  0  0  0  0  0  0  0  0
  -24.2440  -10.5820   20.8830 C   0  0  0  0  0  0  0  0  0  0  0  0
  -24.6640   -9.6060   21.8140 C   0  0  0  0  0  3  0  0  0  0  0  0
  -23.9130   -8.4260   22.0030 C   0  0  0  0  0  3  0  0  0  0  0  0
  -22.7290   -8.2140   21.2580 C   0  0  0  0  0  0  0  0  0  0  0  0
  -22.3290   -9.1760   20.3140 C   0  0  0  0  0  3  0  0  0  0  0  0
  -23.0790  -10.3480   20.1250 C   0  0  0  0  0  3  0  0  0  0  0  0
  -21.9470   -7.0860   21.3570 O   0  0  0  0  0  0  0  0  0  0  0  0
  -21.8050   -6.4100   22.5410 C   0  0  0  0  0  0  0  0  0  0  0  0
  -21.3050   -7.0380   23.7010 C   0  0  0  0  0  3  0  0  0  0  0  0
  -21.1110   -6.2920   24.8810 C   0  0  0  0  0  3  0  0  0  0  0  0
  -21.4030   -4.9150   24.8990 C   0  0  0  0  0  0  0  0  0  0  0  0
  -21.8900   -4.2830   23.7420 C   0  0  0  0  0  3  0  0  0  0  0  0
  -22.0890   -5.0290   22.5660 C   0  0  0  0  0  0  0  0  0  0  0  0
  -22.5430   -4.4110   21.4490 F   0  0  0  0  0  0  0  0  0  0  0  0
  -21.2090   -4.1960   26.0290 F   0  0  0  0  0  0  0  0  0  0  0  0
  -23.2420  -13.6950   21.2510 C   0  0  0  0  0  0  0  0  0  0  0  0
  -22.5960  -13.0110   22.1910 N   0  0  0  0  0  0  0  0  0  0  0  0
  -22.7730  -14.7360   20.7920 O   0  0  0  0  0  0  0  0  0  0  0  0
  -22.9900  -12.1730   22.5920 H   0  0  0  0  0  0  0  0  0  0  0  0
  -21.6960  -13.3310   22.5160 H   0  0  0  0  0  0  0  0  0  0  0  0
  -25.8290  -15.3090   20.2440 N   0  0  0  0  0  0  0  0  0  0  0  0
  -25.1140  -15.9750   20.5080 H   0  0  0  0  0  0  0  0  0  0  0  0
  -26.6970  -15.7730   19.9890 H   0  0  0  0  0  0  0  0  0  0  0  0
  -32.0170  -17.6690   20.7080 C   0  0  0  0  0  1  0  0  0  0  0  0
  -31.1780  -16.4690   21.2230 C   0  0  0  0  0  3  0  0  0  0  0  0
  -30.8570  -17.6990   23.4740 C   0  0  0  0  0  1  0  0  0  0  0  0
  -30.1970  -16.8980   22.3400 C   0  0  0  0  0  2  0  0  0  0  0  0
  -27.6900  -21.7100   20.6850 C   0  0  0  0  0  2  0  0  0  0  0  0
  -27.2220  -23.1370   20.9940 C   0  0  0  0  0  2  0  0  0  0  0  0
  -29.0540  -23.9650   22.4420 C   0  0  0  0  0  1  0  0  0  0  0  0
  -28.4030  -24.0330   21.1100 N   0  0  2  0  0  4  0  0  0  0  0  0
  -29.0890  -23.6730   20.4640 H   0  0  0  0  0  0  0  0  0  0  0  0
  -28.1610  -25.4370   20.6870 C   0  0  0  0  0  2  0  0  0  0  0  0
  -29.4930  -25.0850   18.5100 C   0  0  0  0  0  1  0  0  0  0  0  0
  -28.2220  -25.6520   19.1520 C   0  0  0  0  0  3  0  0  0  0  0  0
  -28.2410  -27.0600   18.9050 O   0  0  0  0  0  0  0  0  0  0  0  0
  -24.6600  -31.5980   23.0390 C   0  0  0  0  0  0  0  0  0  0  0  0
  -27.0590  -27.7410   19.0980 C   0  0  0  0  0  0  0  0  0  0  0  0
  -23.3350  -30.4610   21.2920 C   0  0  0  0  0  3  0  0  0  0  0  0
  -24.6710  -29.1820   19.5470 C   0  0  0  0  0  0  0  0  0  0  0  0
  -25.8380  -30.8750   20.9660 C   0  0  0  0  0  2  0  0  0  0  0  0
  -25.8720  -29.6240   20.1130 C   0  0  0  0  0  0  0  0  0  0  0  0
  -27.0700  -28.9160   19.8800 C   0  0  0  0  0  3  0  0  0  0  0  0
  -25.8400  -27.3080   18.5310 C   0  0  0  0  0  3  0  0  0  0  0  0
  -24.6490  -28.0210   18.7560 C   0  0  0  0  0  3  0  0  0  0  0  0
  -23.4390  -30.0100   19.8140 C   0  0  0  0  0  2  0  0  0  0  0  0
  -24.6360  -30.9790   21.8250 N   0  0  0  0  0  0  0  0  0  0  0  0
  -23.6230  -31.7760   23.6900 O   0  0  0  0  0  0  0  0  0  0  0  0
  -22.7600  -29.2890   22.1190 C   0  0  0  0  0  0  0  0  0  0  0  0
  -21.4340  -29.1010   22.0440 N   0  0  0  0  0  0  0  0  0  0  0  0
  -23.5020  -28.5620   22.7870 O   0  0  0  0  0  0  0  0  0  0  0  0
  -20.8930  -29.7430   21.4790 H   0  0  0  0  0  0  0  0  0  0  0  0
  -18.1180  -27.7640   22.5290 C   0  0  0  0  0  0  0  0  0  0  0  0
  -20.6800  -28.0470   22.7180 C   0  0  0  0  0  3  0  0  0  0  0  0
  -20.7810  -26.7130   21.9430 C   0  0  0  0  0  2  0  0  0  0  0  0
  -19.6380  -26.5080   20.9440 C   0  0  0  0  0  2  0  0  0  0  0  0
  -18.2880  -26.5270   21.6670 C   0  0  0  0  0  2  0  0  0  0  0  0
  -19.2400  -28.4890   23.0110 C   0  0  0  0  0  0  0  0  0  0  0  0
  -19.0250  -29.6530   23.7780 C   0  0  0  0  0  3  0  0  0  0  0  0
  -17.7210  -30.0920   24.0740 C   0  0  0  0  0  3  0  0  0  0  0  0
  -16.6140  -29.3630   23.6070 C   0  0  0  0  0  3  0  0  0  0  0  0
  -16.8140  -28.2020   22.8390 C   0  0  0  0  0  3  0  0  0  0  0  0
  -25.9890  -32.1410   23.6530 C   0  0  0  0  0  3  0  0  0  0  0  0
  -26.6020  -31.1860   24.7500 C   0  0  1  0  0  0  0  0  0  0  0  0
  -25.5970  -30.7780   25.8520 C   0  0  0  0  0  1  0  0  0  0  0  0
  -27.1440  -29.8900   24.1050 C   0  0  0  0  0  1  0  0  0  0  0  0
  -27.8040  -31.8770   25.4340 C   0  0  0  0  0  1  0  0  0  0  0  0
  -25.7000  -33.4670   24.2140 N   0  0  0  0  0  0  0  0  0  0  0  0
  -25.9980  -34.6270   23.6160 C   0  0  0  0  0  0  0  0  0  0  0  0
  -26.6210  -34.6920   22.5510 O   0  0  0  0  0  0  0  0  0  0  0  0
  -25.1410  -33.4910   25.0560 H   0  0  0  0  0  0  0  0  0  0  0  0
  -24.2700  -36.4510   23.6230 C   0  0  0  0  0  1  0  0  0  0  0  0
  -25.5380  -35.9200   24.3110 C   0  0  0  0  0  3  0  0  0  0  0  0
  -27.7020  -36.6580   25.2050 C   0  0  0  0  0  1  0  0  0  0  0  0
  -26.5720  -36.9760   24.3380 N   0  0  0  0  0  0  0  0  0  0  0  0
  -26.1750  -37.8570   24.6520 H   0  0  0  0  0  0  0  0  0  0  0  0
  1 50  1  0
  2  5  1  0
  2  3  2  0
  3  6  1  0
  4  1  1  0
  4  7  1  0
  5  4  2  0
  6  7  2  0
  8  3  1  0
  8 17  1  0
  9 17  1  0
 10 15  1  0
 11 12  1  0
 11 10  1  0
 13 12  1  0
 13 21  1  0
 13 14  1  0
 15  9  1  0
 15 14  1  0
 16  9  2  0
 17 47  1  0
 18 19  2  0
 19 38  1  0
 20 19  1  0
 20 23  1  0
 21 22  1  0
 21 18  1  0
 22 20  2  0
 23 24  1  0
 24 25  2  0
 26 29  1  0
 26 25  1  0
 27 26  2  0
 28 27  1  0
 28 23  2  0
 29 30  1  0
 30 35  2  0
 30 31  1  0
 31 32  2  0
 32 33  1  0
 33 37  1  0
 34 33  2  0
 35 34  1  0
 36 35  1  0
 38 39  1  0
 39 42  1  0
 39 41  1  0
 40 38  2  0
 43 18  1  0
 43 44  1  0
 45 43  1  0
 47 46  1  0
 47 49  1  0
 49 48  1  0
 50 51  1  0
 51 53  1  0
 53 52  1  0
 53 54  1  6
 55 53  1  0
 57 56  1  0
 57 55  1  0
 58 60  1  0
 58 57  1  0
 59 70  2  0
 60 65  1  0
 61 69  1  0
 61 71  1  0
 62 68  1  0
 62 64  1  0
 63 69  1  0
 64 63  1  0
 65 64  2  0
 66 67  1  0
 66 60  2  0
 67 62  2  0
 68 61  1  0
 69 59  1  0
 71 73  2  0
 72 71  1  0
 74 72  1  0
 75 84  2  0
 75 80  1  0
 76 72  1  0
 76 80  1  0
 77 76  1  0
 78 79  1  0
 78 77  1  0
 79 75  1  0
 80 81  2  0
 81 82  1  0
 83 82  2  0
 84 83  1  0
 85 59  1  0
 85 90  1  0
 85 86  1  0
 86 89  1  1
 86 87  1  0
 88 86  1  0
 90 93  1  0
 91 90  1  0
 91 95  1  0
 92 91  2  0
 95 94  1  0
 95 97  1  0
 97 98  1  0
 97 96  1  0
M  ISO  4   9 100  17 100  57 101  58 101
M  END
>  <TORSDO>  (23) 
F 25

>  <SCORE>  (23) 
-9.657

>  <name>  (23) 
24

>  <ligand_id>  (23) 
24

>  <original_smiles>  (23) 
[H]c1nc(C([H])([H])C([H])([H])C([H])([H])[N+]([H])(C([H])([H])[H])C([H])([H])C([H])(Oc2c([H])c([H])c3c(c2[H])C([H])([H])N(C(=O)C([H])(N([H])C(=O)C([H])(N([H])C([H])([H])[H])C([H])([H])[H])C(C([H])([H])[H])(C([H])([H])[H])C([H])([H])[H])C([H])(C(=O)N([H])C2([H])c4c([H])c([H])c([H])c([H])c4C([H])([H])C([H])([H])C2([H])[H])C3([H])[H])C([H])([H])[H])nnc1C([H])([H])N(C(=O)N1C([H])([H])C([H])([H])C([H])([H])C([H])(n2nc(-c3c([H])c([H])c(Oc4c([H])c([H])c(F)c([H])c4F)c([H])c3[H])c(C(=O)N([H])[H])c2N([H])[H])C1([H])[H])C([H])(C([H])([H])[H])C([H])([H])C([H])([H])[H]

>  <smiles>  (23) 
[H]c1nc(C([H])([H])C([H])([H])C([H])([H])[N+]([H])(C([H])([H])[H])C([H])([H])C([H])(Oc2c([H])c([H])c3c(c2[H])C([H])([H])N(C(=O)C([H])(N([H])C(=O)C([H])(N([H])C([H])([H])[H])C([H])([H])[H])C(C([H])([H])[H])(C([H])([H])[H])C([H])([H])[H])C([H])(C(=O)N([H])C2([H])c4c([H])c([H])c([H])c([H])c4C([H])([H])C([H])([H])C2([H])[H])C3([H])[H])C([H])([H])[H])nnc1C([H])([H])N(C(=O)N1C([H])([H])C([H])([H])C([H])([H])C([H])(n2nc(-c3c([H])c([H])c(Oc4c([H])c([H])c(F)c([H])c4F)c([H])c3[H])c(C(=O)N([H])[H])c2N([H])[H])C1([H])[H])C([H])(C([H])([H])[H])C([H])([H])C([H])([H])[H]

$$$$
25:0:0
     RDKit          3D

 88 96  0  0  1  0  0  0  0  0999 V2000
  -30.1390  -21.3820   19.3190 C   0  0  0  0  0  3  0  0  0  0  0  0
  -28.7440  -19.6690   20.8390 C   0  0  0  0  0  3  0  0  0  0  0  0
  -29.1650  -21.9650   20.1920 C   0  0  0  0  0  0  0  0  0  0  0  0
  -29.7500  -19.0940   19.9800 C   0  0  0  0  0  0  0  0  0  0  0  0
  -28.4720  -21.0400   20.9490 N   0  0  0  0  0  0  0  0  0  0  0  0
  -30.4140  -20.0250   19.2140 N   0  0  0  0  0  0  0  0  0  0  0  0
  -29.1280  -23.5770   20.5040 C   0  0  0  0  0  3  0  0  0  0  0  0
  -28.0520  -24.7310   19.9980 C   0  0  0  0  0  3  0  0  0  0  0  0
  -28.2550  -26.2420   20.2300 O   0  0  0  0  0  0  0  0  0  0  0  0
  -24.5620  -31.8410   23.1580 C   0  0  0  0  0  0  0  0  0  0  0  0
  -27.1770  -27.1800   20.1420 C   0  0  0  0  0  0  0  0  0  0  0  0
  -23.3710  -30.4380   21.5150 C   0  0  0  0  0  3  0  0  0  0  0  0
  -24.8320  -28.8770   20.0940 C   0  0  0  0  0  0  0  0  0  0  0  0
  -25.9210  -30.7300   21.3550 C   0  0  0  0  0  2  0  0  0  0  0  0
  -26.0040  -29.3430   20.7030 C   0  0  0  0  0  0  0  0  0  0  0  0
  -27.1790  -28.5110   20.7080 C   0  0  0  0  0  3  0  0  0  0  0  0
  -25.9820  -26.8010   19.4950 C   0  0  0  0  0  3  0  0  0  0  0  0
  -24.8310  -27.6180   19.4740 C   0  0  0  0  0  3  0  0  0  0  0  0
  -23.5990  -29.7640   20.1360 C   0  0  0  0  0  2  0  0  0  0  0  0
  -24.6370  -31.0240   22.0650 N   0  0  0  0  0  0  0  0  0  0  0  0
  -23.4730  -32.1200   23.6840 O   0  0  0  0  0  0  0  0  0  0  0  0
  -22.6980  -29.4260   22.4760 C   0  0  0  0  0  0  0  0  0  0  0  0
  -21.3690  -29.2580   22.3520 N   0  0  0  0  0  0  0  0  0  0  0  0
  -23.3720  -28.7950   23.2950 O   0  0  0  0  0  0  0  0  0  0  0  0
  -20.8830  -29.8200   21.6680 H   0  0  0  0  0  0  0  0  0  0  0  0
  -17.9830  -28.0810   22.8740 C   0  0  0  0  0  0  0  0  0  0  0  0
  -20.5460  -28.3210   23.1230 C   0  0  0  0  0  3  0  0  0  0  0  0
  -20.6320  -26.8920   22.5370 C   0  0  0  0  0  2  0  0  0  0  0  0
  -19.5190  -26.5860   21.5300 C   0  0  0  0  0  2  0  0  0  0  0  0
  -18.1440  -26.7360   22.1850 C   0  0  0  0  0  2  0  0  0  0  0  0
  -19.1110  -28.8320   23.2990 C   0  0  0  0  0  0  0  0  0  0  0  0
  -18.9050  -30.0910   23.9050 C   0  0  0  0  0  3  0  0  0  0  0  0
  -17.6060  -30.5990   24.0880 C   0  0  0  0  0  3  0  0  0  0  0  0
  -16.4920  -29.8450   23.6760 C   0  0  0  0  0  3  0  0  0  0  0  0
  -16.6830  -28.5880   23.0750 C   0  0  0  0  0  3  0  0  0  0  0  0
  -25.8370  -32.4780   23.7890 C   0  0  0  0  0  3  0  0  0  0  0  0
  -26.3530  -31.7030   25.0640 C   0  0  1  0  0  0  0  0  0  0  0  0
  -25.2570  -31.4530   26.1270 C   0  0  0  0  0  1  0  0  0  0  0  0
  -26.9470  -30.3320   24.6690 C   0  0  0  0  0  1  0  0  0  0  0  0
  -27.4940  -32.5040   25.7350 C   0  0  0  0  0  1  0  0  0  0  0  0
  -25.5150  -33.8720   24.1310 N   0  0  0  0  0  0  0  0  0  0  0  0
  -25.8330  -34.9370   23.3820 C   0  0  0  0  0  0  0  0  0  0  0  0
  -26.4960  -34.8490   22.3460 O   0  0  0  0  0  0  0  0  0  0  0  0
  -24.9260  -34.0130   24.9390 H   0  0  0  0  0  0  0  0  0  0  0  0
  -24.0890  -36.7220   23.0640 C   0  0  0  0  0  1  0  0  0  0  0  0
  -25.3400  -36.3180   23.8600 C   0  0  0  0  0  3  0  0  0  0  0  0
  -27.4720  -37.2150   24.6820 C   0  0  0  0  0  1  0  0  0  0  0  0
  -26.3630  -37.3810   23.7470 N   0  0  0  0  0  0  0  0  0  0  0  0
  -25.9500  -38.2970   23.9040 H   0  0  0  0  0  0  0  0  0  0  0  0
  -30.1930  -17.5200   19.7470 C   0  0  0  0  0  2  0  0  0  0  0  0
  -30.6850  -14.9040   20.0350 C   0  0  0  0  0  0  0  0  0  0  0  0
  -30.4320  -12.6250   18.9580 C   0  0  0  0  0  2  0  0  0  0  0  0
  -29.4260  -12.7010   17.7850 C   0  0  0  0  0  2  0  0  0  0  0  0
  -27.9840  -12.5060   18.2900 C   0  0  0  0  0  2  0  0  0  0  0  0
  -27.6830  -13.3480   19.5590 C   0  0  0  0  0  3  0  0  0  0  0  0
  -28.8050  -13.2080   20.6060 C   0  0  0  0  0  2  0  0  0  0  0  0
  -30.0490  -13.6620   19.9630 N   0  0  0  0  0  0  0  0  0  0  0  0
  -31.8130  -14.9810   19.5310 O   0  0  0  0  0  0  0  0  0  0  0  0
  -29.3780  -16.1620   21.7370 C   0  0  0  0  0  1  0  0  0  0  0  0
  -30.0000  -16.1010   20.4020 N   0  0  0  0  0  0  0  0  0  0  0  0
  -25.3550  -13.9240   20.4530 C   0  0  0  0  0  0  0  0  0  0  0  0
  -24.3080  -13.1470   20.8640 C   0  0  0  0  0  0  0  0  0  0  0  0
  -24.7560  -11.7930   20.7610 C   0  0  0  0  0  0  0  0  0  0  0  0
  -26.3720  -13.0460   20.1210 N   0  0  0  0  0  0  0  0  0  0  0  0
  -26.0250  -11.7560   20.3690 N   0  0  0  0  0  0  0  0  0  0  0  0
  -24.0290  -10.5320   20.9560 C   0  0  0  0  0  0  0  0  0  0  0  0
  -24.4670   -9.5620   21.8840 C   0  0  0  0  0  3  0  0  0  0  0  0
  -23.7390   -8.3670   22.0680 C   0  0  0  0  0  3  0  0  0  0  0  0
  -22.5580   -8.1330   21.3230 C   0  0  0  0  0  0  0  0  0  0  0  0
  -22.1390   -9.0920   20.3850 C   0  0  0  0  0  3  0  0  0  0  0  0
  -22.8680  -10.2790   20.1980 C   0  0  0  0  0  3  0  0  0  0  0  0
  -21.8020   -6.9890   21.4160 O   0  0  0  0  0  0  0  0  0  0  0  0
  -21.7070   -6.2820   22.5890 C   0  0  0  0  0  0  0  0  0  0  0  0
  -21.2230   -6.8710   23.7770 C   0  0  0  0  0  3  0  0  0  0  0  0
  -21.0730   -6.0900   24.9410 C   0  0  0  0  0  3  0  0  0  0  0  0
  -21.3990   -4.7210   24.9170 C   0  0  0  0  0  0  0  0  0  0  0  0
  -21.8800   -4.1310   23.7340 C   0  0  0  0  0  3  0  0  0  0  0  0
  -22.0290   -4.9100   22.5720 C   0  0  0  0  0  0  0  0  0  0  0  0
  -22.4690   -4.3310   21.4290 F   0  0  0  0  0  0  0  0  0  0  0  0
  -21.2500   -3.9670   26.0320 F   0  0  0  0  0  0  0  0  0  0  0  0
  -22.9360  -13.6270   21.2360 C   0  0  0  0  0  0  0  0  0  0  0  0
  -22.2570  -12.9130   22.1260 N   0  0  0  0  0  0  0  0  0  0  0  0
  -22.4780  -14.6710   20.7740 O   0  0  0  0  0  0  0  0  0  0  0  0
  -22.6410  -12.0670   22.5180 H   0  0  0  0  0  0  0  0  0  0  0  0
  -21.3400  -13.2160   22.4200 H   0  0  0  0  0  0  0  0  0  0  0  0
  -25.5200  -15.3000   20.3160 N   0  0  0  0  0  0  0  0  0  0  0  0
  -24.7720  -15.9520   20.5260 H   0  0  0  0  0  0  0  0  0  0  0  0
  -26.3490  -15.7490   19.9510 H   0  0  0  0  0  0  0  0  0  0  0  0
  1  3  1  0
  2  5  1  0
  3  7  1  0
  3  5  2  0
  4  2  2  0
  6  1  2  0
  6  4  1  0
  8  9  1  0
  8  7  2  0
 10 21  2  0
 11  9  1  0
 11 16  1  0
 12 20  1  0
 12 22  1  0
 13 19  1  0
 13 15  1  0
 14 20  1  0
 15 16  2  0
 15 14  1  0
 17 11  2  0
 18 17  1  0
 18 13  2  0
 19 12  1  0
 20 10  1  0
 22 24  2  0
 23 22  1  0
 25 23  1  0
 26 35  2  0
 26 31  1  0
 27 23  1  0
 27 31  1  0
 28 27  1  0
 29 30  1  0
 29 28  1  0
 30 26  1  0
 31 32  2  0
 32 33  1  0
 34 33  2  0
 35 34  1  0
 36 10  1  0
 36 41  1  0
 36 37  1  0
 37 40  1  1
 37 38  1  0
 39 37  1  0
 41 44  1  0
 42 46  1  0
 42 41  1  0
 43 42  2  0
 46 45  1  0
 48 46  1  0
 48 49  1  0
 48 47  1  0
 50  4  1  0
 50 60  1  0
 51 60  1  0
 52 57  1  0
 53 54  1  0
 53 52  1  0
 55 54  1  0
 55 64  1  0
 55 56  1  0
 57 51  1  0
 57 56  1  0
 58 51  2  0
 60 59  1  0
 61 62  2  0
 62 81  1  0
 63 62  1  0
 63 66  1  0
 64 65  1  0
 64 61  1  0
 65 63  2  0
 66 67  1  0
 67 68  2  0
 69 72  1  0
 69 68  1  0
 70 69  2  0
 71 70  1  0
 71 66  2  0
 72 73  1  0
 73 74  1  0
 74 75  2  0
 76 75  1  0
 76 80  1  0
 77 76  2  0
 78 73  2  0
 78 77  1  0
 79 78  1  0
 81 82  1  0
 82 85  1  0
 82 84  1  0
 83 81  2  0
 86 61  1  0
 86 87  1  0
 88 86  1  0
M  ISO  4   8 101   9 101  51 100  60 100
M  END
>  <TORSDO>  (24) 
F 19

>  <SCORE>  (24) 
-13.565

>  <name>  (24) 
25

>  <ligand_id>  (24) 
25

>  <original_smiles>  (24) 
[H]c1nc(C([H])([H])C([H])([H])Oc2c([H])c([H])c3c(c2[H])C([H])([H])N(C(=O)C([H])(N([H])C(=O)C([H])(N([H])C([H])([H])[H])C([H])([H])[H])C(C([H])([H])[H])(C([H])([H])[H])C([H])([H])[H])C([H])(C(=O)N([H])C2([H])c4c([H])c([H])c([H])c([H])c4C([H])([H])C([H])([H])C2([H])[H])C3([H])[H])c([H])nc1C([H])([H])N(C(=O)N1C([H])([H])C([H])([H])C([H])([H])C([H])(n2nc(-c3c([H])c([H])c(Oc4c([H])c([H])c(F)c([H])c4F)c([H])c3[H])c(C(=O)N([H])[H])c2N([H])[H])C1([H])[H])C([H])([H])[H]

>  <smiles>  (24) 
[H]c1nc(C([H])([H])C([H])([H])Oc2c([H])c([H])c3c(c2[H])C([H])([H])N(C(=O)C([H])(N([H])C(=O)C([H])(N([H])C([H])([H])[H])C([H])([H])[H])C(C([H])([H])[H])(C([H])([H])[H])C([H])([H])[H])C([H])(C(=O)N([H])C2([H])c4c([H])c([H])c([H])c([H])c4C([H])([H])C([H])([H])C2([H])[H])C3([H])[H])c([H])nc1C([H])([H])N(C(=O)N1C([H])([H])C([H])([H])C([H])([H])C([H])(n2nc(-c3c([H])c([H])c(Oc4c([H])c([H])c(F)c([H])c4F)c([H])c3[H])c(C(=O)N([H])[H])c2N([H])[H])C1([H])[H])C([H])([H])[H]

$$$$
26:0:0
     RDKit          3D

 91 99  0  0  1  0  0  0  0  0999 V2000
  -29.7010  -21.8940   17.9170 C   0  0  0  0  0  3  0  0  0  0  0  0
  -29.2730  -23.1140   18.4840 C   0  0  0  0  0  0  0  0  0  0  0  0
  -28.9190  -23.1530   19.8490 C   0  0  0  0  0  0  0  0  0  0  0  0
  -29.4910  -20.6940   19.8780 C   0  0  0  0  0  0  0  0  0  0  0  0
  -29.1630  -24.3480   17.6060 C   0  0  0  0  0  1  0  0  0  0  0  0
  -29.7940  -20.7270   18.5890 N   0  0  0  0  0  0  0  0  0  0  0  0
  -29.0340  -21.8790   20.4980 N   0  0  0  0  0  0  0  0  0  0  0  0
  -28.0130  -18.8000   20.7890 C   0  0  0  0  0  1  0  0  0  0  0  0
  -30.2170  -19.2510   21.9020 C   0  0  0  0  0  1  0  0  0  0  0  0
  -29.4980  -19.1500   20.5420 C   0  0  2  0  0  0  0  0  0  0  0  0
  -30.2370  -17.7860   19.7910 C   0  0  0  0  0  2  0  0  0  0  0  0
  -30.7810  -15.0330   19.9100 C   0  0  0  0  0  0  0  0  0  0  0  0
  -30.5910  -12.6810   18.9430 C   0  0  0  0  0  2  0  0  0  0  0  0
  -29.5840  -12.6710   17.7660 C   0  0  0  0  0  2  0  0  0  0  0  0
  -28.1410  -12.4810   18.2690 C   0  0  0  0  0  2  0  0  0  0  0  0
  -27.8330  -13.3570   19.5120 C   0  0  0  0  0  3  0  0  0  0  0  0
  -28.9610  -13.3270   20.5660 C   0  0  0  0  0  2  0  0  0  0  0  0
  -30.1830  -13.7660   19.8880 N   0  0  0  0  0  0  0  0  0  0  0  0
  -31.9560  -15.0860   19.5310 O   0  0  0  0  0  0  0  0  0  0  0  0
  -30.0230  -16.2300   20.1420 N   0  0  0  0  0  0  0  0  0  0  0  0
  -29.0870  -16.0270   20.4550 H   0  0  0  0  0  0  0  0  0  0  0  0
  -25.5250  -13.9380   20.4400 C   0  0  0  0  0  0  0  0  0  0  0  0
  -24.4770  -13.1660   20.8560 C   0  0  0  0  0  0  0  0  0  0  0  0
  -24.9140  -11.8100   20.7440 C   0  0  0  0  0  0  0  0  0  0  0  0
  -26.5320  -13.0540   20.0930 N   0  0  0  0  0  0  0  0  0  0  0  0
  -26.1810  -11.7650   20.3390 N   0  0  0  0  0  0  0  0  0  0  0  0
  -24.1790  -10.5530   20.9380 C   0  0  0  0  0  0  0  0  0  0  0  0
  -24.6070   -9.5830   21.8730 C   0  0  0  0  0  3  0  0  0  0  0  0
  -23.8690   -8.3930   22.0550 C   0  0  0  0  0  3  0  0  0  0  0  0
  -22.6920   -8.1620   21.3030 C   0  0  0  0  0  0  0  0  0  0  0  0
  -22.2830   -9.1210   20.3590 C   0  0  0  0  0  3  0  0  0  0  0  0
  -23.0190  -10.3040   20.1730 C   0  0  0  0  0  3  0  0  0  0  0  0
  -21.9280   -7.0240   21.3930 O   0  0  0  0  0  0  0  0  0  0  0  0
  -21.8110   -6.3250   22.5670 C   0  0  0  0  0  0  0  0  0  0  0  0
  -21.2910   -6.9190   23.7360 C   0  0  0  0  0  3  0  0  0  0  0  0
  -21.1270   -6.1460   24.9040 C   0  0  0  0  0  3  0  0  0  0  0  0
  -21.4720   -4.7810   24.8990 C   0  0  0  0  0  0  0  0  0  0  0  0
  -21.9840   -4.1860   23.7330 C   0  0  0  0  0  3  0  0  0  0  0  0
  -22.1520   -4.9570   22.5690 C   0  0  0  0  0  0  0  0  0  0  0  0
  -22.6280   -4.3750   21.4420 F   0  0  0  0  0  0  0  0  0  0  0  0
  -21.3060   -4.0390   26.0200 F   0  0  0  0  0  0  0  0  0  0  0  0
  -23.1100  -13.6550   21.2360 C   0  0  0  0  0  0  0  0  0  0  0  0
  -22.4370  -12.9380   22.1290 N   0  0  0  0  0  0  0  0  0  0  0  0
  -22.6550  -14.7030   20.7800 O   0  0  0  0  0  0  0  0  0  0  0  0
  -22.8240  -12.0890   22.5090 H   0  0  0  0  0  0  0  0  0  0  0  0
  -21.5170  -13.2360   22.4240 H   0  0  0  0  0  0  0  0  0  0  0  0
  -25.6990  -15.3110   20.2980 N   0  0  0  0  0  0  0  0  0  0  0  0
  -24.9550  -15.9720   20.4850 H   0  0  0  0  0  0  0  0  0  0  0  0
  -26.5030  -15.7380   19.8550 H   0  0  0  0  0  0  0  0  0  0  0  0
  -28.2390  -24.5440   20.5120 C   0  0  0  0  0  2  0  0  0  0  0  0
  -28.5130  -26.0720   20.1820 O   0  0  0  0  0  0  0  0  0  0  0  0
  -24.7000  -31.7670   23.1040 C   0  0  0  0  0  0  0  0  0  0  0  0
  -27.4500  -27.0660   20.1510 C   0  0  0  0  0  0  0  0  0  0  0  0
  -23.5770  -30.3460   21.4370 C   0  0  0  0  0  3  0  0  0  0  0  0
  -25.0970  -28.8010   20.0450 C   0  0  0  0  0  0  0  0  0  0  0  0
  -26.1330  -30.6470   21.3490 C   0  0  0  0  0  2  0  0  0  0  0  0
  -26.2500  -29.2540   20.6970 C   0  0  0  0  0  0  0  0  0  0  0  0
  -27.4290  -28.4100   20.7270 C   0  0  0  0  0  3  0  0  0  0  0  0
  -26.2690  -26.7260   19.4610 C   0  0  0  0  0  3  0  0  0  0  0  0
  -25.1240  -27.5510   19.4080 C   0  0  0  0  0  3  0  0  0  0  0  0
  -23.8510  -29.6770   20.0620 C   0  0  0  0  0  2  0  0  0  0  0  0
  -24.8220  -30.9430   22.0190 N   0  0  0  0  0  0  0  0  0  0  0  0
  -23.5930  -32.0340   23.5980 O   0  0  0  0  0  0  0  0  0  0  0  0
  -22.8890  -29.3260   22.3790 C   0  0  0  0  0  0  0  0  0  0  0  0
  -21.5620  -29.1570   22.2410 N   0  0  0  0  0  0  0  0  0  0  0  0
  -23.5540  -28.6910   23.2010 O   0  0  0  0  0  0  0  0  0  0  0  0
  -21.0830  -29.7210   21.5530 H   0  0  0  0  0  0  0  0  0  0  0  0
  -18.1720  -27.9740   22.7300 C   0  0  0  0  0  0  0  0  0  0  0  0
  -20.7350  -28.2080   22.9920 C   0  0  0  0  0  3  0  0  0  0  0  0
  -20.8220  -26.7900   22.3810 C   0  0  0  0  0  2  0  0  0  0  0  0
  -19.7120  -26.5020   21.3660 C   0  0  0  0  0  2  0  0  0  0  0  0
  -18.3340  -26.6410   22.0180 C   0  0  0  0  0  2  0  0  0  0  0  0
  -19.2990  -28.7170   23.1720 C   0  0  0  0  0  0  0  0  0  0  0  0
  -19.0910  -29.9650   23.7970 C   0  0  0  0  0  3  0  0  0  0  0  0
  -17.7900  -30.4680   23.9890 C   0  0  0  0  0  3  0  0  0  0  0  0
  -16.6780  -29.7220   23.5620 C   0  0  0  0  0  3  0  0  0  0  0  0
  -16.8690  -28.4770   22.9350 C   0  0  0  0  0  3  0  0  0  0  0  0
  -25.9460  -32.4320   23.7660 C   0  0  0  0  0  3  0  0  0  0  0  0
  -26.4460  -31.6600   25.0480 C   0  0  1  0  0  0  0  0  0  0  0  0
  -25.3300  -31.3830   26.0810 C   0  0  0  0  0  1  0  0  0  0  0  0
  -27.0810  -30.3020   24.6690 C   0  0  0  0  0  1  0  0  0  0  0  0
  -27.5540  -32.4790   25.7490 C   0  0  0  0  0  1  0  0  0  0  0  0
  -25.5880  -33.8180   24.1100 N   0  0  0  0  0  0  0  0  0  0  0  0
  -25.9010  -34.8940   23.3780 C   0  0  0  0  0  0  0  0  0  0  0  0
  -26.5900  -34.8270   22.3570 O   0  0  0  0  0  0  0  0  0  0  0  0
  -24.9780  -33.9410   24.9050 H   0  0  0  0  0  0  0  0  0  0  0  0
  -24.1310  -36.6510   23.0280 C   0  0  0  0  0  1  0  0  0  0  0  0
  -25.3700  -36.2630   23.8510 C   0  0  0  0  0  3  0  0  0  0  0  0
  -27.4610  -37.1970   24.7380 C   0  0  0  0  0  1  0  0  0  0  0  0
  -26.3760  -37.3450   23.7730 N   0  0  0  0  0  0  0  0  0  0  0  0
  -25.9430  -38.2530   23.9190 H   0  0  0  0  0  0  0  0  0  0  0  0
  1  2  2  0
  1  6  1  0
  2  3  1  0
  3  7  2  0
  3 50  1  0
  4  7  1  0
  4 10  1  0
  5  2  1  0
  6  4  2  0
 10  8  1  1
 10  9  1  0
 11 20  1  0
 11 10  1  0
 12 20  1  0
 13 18  1  0
 14 15  1  0
 14 13  1  0
 16 15  1  0
 16 25  1  0
 16 17  1  0
 18 12  1  0
 18 17  1  0
 19 12  2  0
 20 21  1  0
 22 23  2  0
 23 42  1  0
 24 23  1  0
 24 27  1  0
 25 26  1  0
 25 22  1  0
 26 24  2  0
 27 28  1  0
 28 29  2  0
 30 33  1  0
 30 29  1  0
 31 30  2  0
 32 31  1  0
 32 27  2  0
 33 34  1  0
 34 39  2  0
 34 35  1  0
 35 36  2  0
 37 36  1  0
 37 41  1  0
 38 37  2  0
 39 38  1  0
 40 39  1  0
 42 43  1  0
 43 46  1  0
 43 45  1  0
 44 42  2  0
 47 22  1  0
 47 48  1  0
 49 47  1  0
 51 50  1  0
 52 63  2  0
 53 51  1  0
 53 58  1  0
 54 62  1  0
 54 64  1  0
 55 61  1  0
 55 57  1  0
 56 62  1  0
 57 58  2  0
 57 56  1  0
 59 53  2  0
 60 59  1  0
 60 55  2  0
 61 54  1  0
 62 52  1  0
 64 66  2  0
 65 64  1  0
 67 65  1  0
 68 77  2  0
 68 73  1  0
 69 65  1  0
 69 73  1  0
 70 69  1  0
 71 72  1  0
 71 70  1  0
 72 68  1  0
 73 74  2  0
 74 75  1  0
 76 75  2  0
 77 76  1  0
 78 52  1  0
 78 83  1  0
 78 79  1  0
 79 82  1  1
 79 80  1  0
 81 79  1  0
 83 86  1  0
 84 88  1  0
 84 83  1  0
 85 84  2  0
 88 87  1  0
 90 88  1  0
 90 91  1  0
 90 89  1  0
M  ISO  4  12 100  20 100  50 101  51 101
M  END
>  <TORSDO>  (25) 
F 19

>  <SCORE>  (25) 
-13.866

>  <name>  (25) 
26

>  <ligand_id>  (25) 
26

>  <original_smiles>  (25) 
[H]c1nc(C(C([H])([H])[H])(C([H])([H])[H])C([H])([H])N([H])C(=O)N2C([H])([H])C([H])([H])C([H])([H])C([H])(n3nc(-c4c([H])c([H])c(Oc5c([H])c([H])c(F)c([H])c5F)c([H])c4[H])c(C(=O)N([H])[H])c3N([H])[H])C2([H])[H])nc(C([H])([H])Oc2c([H])c([H])c3c(c2[H])C([H])([H])N(C(=O)C([H])(N([H])C(=O)C([H])(N([H])C([H])([H])[H])C([H])([H])[H])C(C([H])([H])[H])(C([H])([H])[H])C([H])([H])[H])C([H])(C(=O)N([H])C2([H])c4c([H])c([H])c([H])c([H])c4C([H])([H])C([H])([H])C2([H])[H])C3([H])[H])c1C([H])([H])[H]

>  <smiles>  (25) 
[H]c1nc(C(C([H])([H])[H])(C([H])([H])[H])C([H])([H])N([H])C(=O)N2C([H])([H])C([H])([H])C([H])([H])C([H])(n3nc(-c4c([H])c([H])c(Oc5c([H])c([H])c(F)c([H])c5F)c([H])c4[H])c(C(=O)N([H])[H])c3N([H])[H])C2([H])[H])nc(C([H])([H])Oc2c([H])c([H])c3c(c2[H])C([H])([H])N(C(=O)C([H])(N([H])C(=O)C([H])(N([H])C([H])([H])[H])C([H])([H])[H])C(C([H])([H])[H])(C([H])([H])[H])C([H])([H])[H])C([H])(C(=O)N([H])C2([H])c4c([H])c([H])c([H])c([H])c4C([H])([H])C([H])([H])C2([H])[H])C3([H])[H])c1C([H])([H])[H]

$$$$
27:0:0
     RDKit          3D

 97105  0  0  1  0  0  0  0  0999 V2000
  -32.4930  -20.3840   19.4960 C   0  0  0  0  0  2  0  0  0  0  0  0
  -31.0300  -20.7490   19.8480 C   0  0  0  0  0  2  0  0  0  0  0  0
  -31.3140  -21.8770   22.0440 C   0  0  0  0  0  1  0  0  0  0  0  0
  -30.9050  -22.0200   20.6220 N   0  0  2  0  0  4  0  0  0  0  0  0
  -31.5500  -22.6650   20.1920 H   0  0  0  0  0  0  0  0  0  0  0  0
  -29.5560  -22.6390   20.4800 C   0  0  0  0  0  2  0  0  0  0  0  0
  -29.5580  -24.1740   20.6650 C   0  0  0  0  0  2  0  0  0  0  0  0
  -28.2390  -24.8320   20.2380 C   0  0  0  0  0  2  0  0  0  0  0  0
  -28.3480  -26.2430   20.4340 O   0  0  0  0  0  0  0  0  0  0  0  0
  -24.6570  -31.6190   23.2420 C   0  0  0  0  0  0  0  0  0  0  0  0
  -27.1890  -26.9840   20.3690 C   0  0  0  0  0  0  0  0  0  0  0  0
  -23.4360  -30.2140   21.6140 C   0  0  0  0  0  3  0  0  0  0  0  0
  -24.8570  -28.5790   20.2780 C   0  0  0  0  0  0  0  0  0  0  0  0
  -25.9790  -30.4700   21.4680 C   0  0  0  0  0  2  0  0  0  0  0  0
  -26.0230  -29.0780   20.8740 C   0  0  0  0  0  0  0  0  0  0  0  0
  -27.1940  -28.2890   20.9100 C   0  0  0  0  0  3  0  0  0  0  0  0
  -25.9990  -26.4960   19.7730 C   0  0  0  0  0  3  0  0  0  0  0  0
  -24.8420  -27.2910   19.7190 C   0  0  0  0  0  3  0  0  0  0  0  0
  -23.6520  -29.4860   20.2630 C   0  0  0  0  0  2  0  0  0  0  0  0
  -24.7090  -30.7820   22.1680 N   0  0  0  0  0  0  0  0  0  0  0  0
  -23.5740  -31.9510   23.7470 O   0  0  0  0  0  0  0  0  0  0  0  0
  -22.7190  -29.2490   22.5860 C   0  0  0  0  0  0  0  0  0  0  0  0
  -21.3990  -29.0860   22.4020 N   0  0  0  0  0  0  0  0  0  0  0  0
  -23.3480  -28.6440   23.4590 O   0  0  0  0  0  0  0  0  0  0  0  0
  -20.9540  -29.6200   21.6680 H   0  0  0  0  0  0  0  0  0  0  0  0
  -17.9760  -27.9940   22.7870 C   0  0  0  0  0  0  0  0  0  0  0  0
  -20.5230  -28.2050   23.1740 C   0  0  0  0  0  3  0  0  0  0  0  0
  -20.6190  -26.7470   22.6660 C   0  0  0  0  0  2  0  0  0  0  0  0
  -19.5590  -26.4040   21.6150 C   0  0  0  0  0  2  0  0  0  0  0  0
  -18.1510  -26.6100   22.1840 C   0  0  0  0  0  2  0  0  0  0  0  0
  -19.0910  -28.7480   23.2380 C   0  0  0  0  0  0  0  0  0  0  0  0
  -18.8770  -30.0440   23.7580 C   0  0  0  0  0  3  0  0  0  0  0  0
  -17.5790  -30.5820   23.8350 C   0  0  0  0  0  3  0  0  0  0  0  0
  -16.4770  -29.8250   23.4030 C   0  0  0  0  0  3  0  0  0  0  0  0
  -16.6770  -28.5330   22.8860 C   0  0  0  0  0  3  0  0  0  0  0  0
  -25.9470  -32.2180   23.8760 C   0  0  0  0  0  3  0  0  0  0  0  0
  -26.4560  -31.4120   25.1320 C   0  0  1  0  0  0  0  0  0  0  0  0
  -25.3530  -31.1420   26.1810 C   0  0  0  0  0  1  0  0  0  0  0  0
  -27.0440  -30.0470   24.7020 C   0  0  0  0  0  1  0  0  0  0  0  0
  -27.5990  -32.1880   25.8280 C   0  0  0  0  0  1  0  0  0  0  0  0
  -25.6580  -33.6130   24.2310 N   0  0  0  0  0  0  0  0  0  0  0  0
  -26.0030  -34.6750   23.4900 C   0  0  0  0  0  0  0  0  0  0  0  0
  -26.6690  -34.5810   22.4550 O   0  0  0  0  0  0  0  0  0  0  0  0
  -25.0700  -33.7600   25.0390 H   0  0  0  0  0  0  0  0  0  0  0  0
  -24.2990  -36.4960   23.1720 C   0  0  0  0  0  1  0  0  0  0  0  0
  -25.5360  -36.0600   23.9730 C   0  0  0  0  0  3  0  0  0  0  0  0
  -27.6860  -36.9010   24.8110 C   0  0  0  0  0  1  0  0  0  0  0  0
  -26.5830  -37.1000   23.8760 N   0  0  0  0  0  0  0  0  0  0  0  0
  -26.1880  -38.0230   24.0440 H   0  0  0  0  0  0  0  0  0  0  0  0
  -32.6260  -19.4560   18.2760 C   0  0  0  0  0  2  0  0  0  0  0  0
  -32.5620  -17.1030   19.3790 C   0  0  0  0  0  3  0  0  0  0  0  0
  -33.4540  -15.9970   19.2550 C   0  0  0  0  0  0  0  0  0  0  0  0
  -33.1300  -18.0830   18.6100 C   0  0  0  0  0  0  0  0  0  0  0  0
  -35.3180  -18.1560   17.2510 C   0  0  0  0  0  1  0  0  0  0  0  0
  -34.5270  -16.3050   18.5490 N   0  0  0  0  0  0  0  0  0  0  0  0
  -34.3220  -17.5650   18.1260 N   0  0  0  0  0  0  0  0  0  0  0  0
  -33.2980  -14.5670   19.7100 C   0  0  0  0  0  2  0  0  0  0  0  0
  -31.2960  -13.6340   18.6260 C   0  0  0  0  0  0  0  0  0  0  0  0
  -30.2710  -11.6540   17.5790 C   0  0  0  0  0  2  0  0  0  0  0  0
  -29.0890  -11.9770   16.6490 C   0  0  0  0  0  2  0  0  0  0  0  0
  -27.7790  -11.9530   17.4470 C   0  0  0  0  0  2  0  0  0  0  0  0
  -27.8610  -12.8540   18.6990 C   0  0  0  0  0  3  0  0  0  0  0  0
  -29.1370  -12.5910   19.5180 C   0  0  0  0  0  2  0  0  0  0  0  0
  -30.3510  -12.6450   18.6760 N   0  0  0  0  0  0  0  0  0  0  0  0
  -31.8150  -13.8950   17.5370 O   0  0  0  0  0  0  0  0  0  0  0  0
  -31.9060  -14.0470   19.7910 N   0  0  0  0  0  0  0  0  0  0  0  0
  -25.9150  -13.6990   20.1620 C   0  0  0  0  0  0  0  0  0  0  0  0
  -24.8890  -13.0450   20.7850 C   0  0  0  0  0  0  0  0  0  0  0  0
  -25.0840  -11.6550   20.5160 C   0  0  0  0  0  0  0  0  0  0  0  0
  -26.6760  -12.7170   19.5460 N   0  0  0  0  0  0  0  0  0  0  0  0
  -26.1980  -11.4750   19.8190 N   0  0  0  0  0  0  0  0  0  0  0  0
  -24.2440  -10.4920   20.8300 C   0  0  0  0  0  0  0  0  0  0  0  0
  -24.7100   -9.4460   21.6560 C   0  0  0  0  0  3  0  0  0  0  0  0
  -23.8770   -8.3460   21.9550 C   0  0  0  0  0  3  0  0  0  0  0  0
  -22.5640   -8.2860   21.4290 C   0  0  0  0  0  0  0  0  0  0  0  0
  -22.1140   -9.3210   20.5900 C   0  0  0  0  0  3  0  0  0  0  0  0
  -22.9450  -10.4110   20.2900 C   0  0  0  0  0  3  0  0  0  0  0  0
  -21.6930   -7.2440   21.6440 O   0  0  0  0  0  0  0  0  0  0  0  0
  -21.6720   -6.5560   22.8290 C   0  0  0  0  0  0  0  0  0  0  0  0
  -21.4810   -7.2080   24.0670 C   0  0  0  0  0  3  0  0  0  0  0  0
  -21.3950   -6.4540   25.2540 C   0  0  0  0  0  3  0  0  0  0  0  0
  -21.4900   -5.0500   25.2070 C   0  0  0  0  0  0  0  0  0  0  0  0
  -21.6760   -4.3980   23.9740 C   0  0  0  0  0  3  0  0  0  0  0  0
  -21.7630   -5.1490   22.7890 C   0  0  0  0  0  0  0  0  0  0  0  0
  -21.9200   -4.5140   21.6020 F   0  0  0  0  0  0  0  0  0  0  0  0
  -21.4010   -4.3250   26.3460 F   0  0  0  0  0  0  0  0  0  0  0  0
  -23.7320  -13.6740   21.5080 C   0  0  0  0  0  0  0  0  0  0  0  0
  -23.2180  -13.0110   22.5370 N   0  0  0  0  0  0  0  0  0  0  0  0
  -23.3100  -14.7860   21.1900 O   0  0  0  0  0  0  0  0  0  0  0  0
  -23.5790  -12.1090   22.8100 H   0  0  0  0  0  0  0  0  0  0  0  0
  -22.4530  -13.4130   23.0610 H   0  0  0  0  0  0  0  0  0  0  0  0
  -26.2550  -15.0450   20.0510 N   0  0  0  0  0  0  0  0  0  0  0  0
  -25.6790  -15.7790   20.4480 H   0  0  0  0  0  0  0  0  0  0  0  0
  -27.0420  -15.4010   19.5230 H   0  0  0  0  0  0  0  0  0  0  0  0
  -31.3020  -13.9760   21.1500 C   0  0  0  0  0  2  0  0  0  0  0  0
  -32.2150  -14.0760   22.3880 C   0  0  0  0  0  2  0  0  0  0  0  0
  -31.5200  -13.7300   23.4710 F   0  0  0  0  0  0  0  0  0  0  0  0
  1  2  1  0
  2  4  1  0
  4  3  1  0
  4  5  1  6
  6  4  1  0
  6  7  1  0
  8  9  1  0
  8  7  1  0
 10 21  2  0
 11  9  1  0
 11 16  1  0
 12 20  1  0
 12 22  1  0
 13 15  1  0
 14 20  1  0
 15 16  2  0
 15 14  1  0
 17 11  2  0
 18 17  1  0
 18 13  2  0
 19 13  1  0
 19 12  1  0
 20 10  1  0
 22 24  2  0
 23 22  1  0
 25 23  1  0
 26 35  2  0
 26 31  1  0
 27 23  1  0
 27 31  1  0
 28 27  1  0
 29 30  1  0
 29 28  1  0
 30 26  1  0
 31 32  2  0
 32 33  1  0
 34 33  2  0
 35 34  1  0
 36 10  1  0
 36 41  1  0
 36 37  1  0
 37 40  1  1
 37 38  1  0
 39 37  1  0
 41 44  1  0
 42 46  1  0
 42 41  1  0
 43 42  2  0
 46 45  1  0
 48 46  1  0
 48 49  1  0
 48 47  1  0
 50 53  1  0
 50  1  1  0
 52 51  1  0
 52 57  1  0
 53 51  2  0
 54 56  1  0
 55 52  2  0
 56 55  1  0
 56 53  1  0
 57 66  1  0
 58 64  1  0
 58 66  1  0
 59 64  1  0
 60 61  1  0
 60 59  1  0
 62 61  1  0
 62 63  1  0
 62 70  1  0
 64 63  1  0
 65 58  2  0
 66 95  1  0
 67 68  2  0
 68 87  1  0
 69 68  1  0
 69 72  1  0
 70 71  1  0
 70 67  1  0
 71 69  2  0
 72 73  1  0
 73 74  2  0
 75 78  1  0
 75 74  1  0
 76 75  2  0
 77 76  1  0
 77 72  2  0
 78 79  1  0
 79 80  1  0
 80 81  2  0
 82 81  1  0
 82 86  1  0
 83 82  2  0
 84 79  2  0
 84 83  1  0
 85 84  1  0
 87 88  1  0
 88 90  1  0
 88 91  1  0
 89 87  2  0
 92 67  1  0
 92 93  1  0
 94 92  1  0
 95 96  1  0
 96 97  1  0
M  ISO  4   8 101   9 101  58 100  66 100
M  END
>  <TORSDO>  (26) 
F 26

>  <SCORE>  (26) 
-4.956

>  <name>  (26) 
27

>  <ligand_id>  (26) 
27

>  <original_smiles>  (26) 
[H]c1c([H])c([H])c2c(c1[H])C([H])([H])C([H])([H])C([H])([H])C2([H])N([H])C(=O)C1([H])N(C(=O)C([H])(N([H])C(=O)C([H])(N([H])C([H])([H])[H])C([H])([H])[H])C(C([H])([H])[H])(C([H])([H])[H])C([H])([H])[H])C([H])([H])c2c([H])c(OC([H])([H])C([H])([H])C([H])([H])[N+]([H])(C([H])([H])[H])C([H])([H])C([H])([H])C([H])([H])c3c([H])c(C([H])([H])N(C(=O)N4C([H])([H])C([H])([H])C([H])([H])C([H])(n5nc(-c6c([H])c([H])c(Oc7c([H])c([H])c(F)c([H])c7F)c([H])c6[H])c(C(=O)N([H])[H])c5N([H])[H])C4([H])[H])C([H])([H])C([H])([H])F)nn3C([H])([H])[H])c([H])c([H])c2C1([H])[H]

>  <smiles>  (26) 
[H]c1c([H])c([H])c2c(c1[H])C([H])([H])C([H])([H])C([H])([H])C2([H])N([H])C(=O)C1([H])N(C(=O)C([H])(N([H])C(=O)C([H])(N([H])C([H])([H])[H])C([H])([H])[H])C(C([H])([H])[H])(C([H])([H])[H])C([H])([H])[H])C([H])([H])c2c([H])c(OC([H])([H])C([H])([H])C([H])([H])[N+]([H])(C([H])([H])[H])C([H])([H])C([H])([H])C([H])([H])c3c([H])c(C([H])([H])N(C(=O)N4C([H])([H])C([H])([H])C([H])([H])C([H])(n5nc(-c6c([H])c([H])c(Oc7c([H])c([H])c(F)c([H])c7F)c([H])c6[H])c(C(=O)N([H])[H])c5N([H])[H])C4([H])[H])C([H])([H])C([H])([H])F)nn3C([H])([H])[H])c([H])c([H])c2C1([H])[H]

$$$$
28:0:0
     RDKit          3D

 89 97  0  0  1  0  0  0  0  0999 V2000
  -28.4910  -20.2550   20.9220 C   0  0  0  0  0  3  0  0  0  0  0  0
  -30.2500  -20.0220   19.7020 C   0  0  0  0  0  0  0  0  0  0  0  0
  -28.7340  -18.9730   20.9710 N   0  0  0  0  0  0  0  0  0  0  0  0
  -29.4130  -20.9760   20.1740 N   0  0  0  0  0  0  0  0  0  0  0  0
  -29.8590  -18.8180   20.2160 N   0  0  0  0  0  0  0  0  0  0  0  0
  -31.1460  -20.1950   18.8690 O   0  0  0  0  0  0  0  0  0  0  0  0
  -29.1210  -22.3430   19.5570 C   0  0  0  0  0  2  0  0  0  0  0  0
  -28.9210  -23.7200   20.4150 C   0  0  0  0  0  2  0  0  0  0  0  0
  -27.9330  -24.9760   20.0730 C   0  0  0  0  0  2  0  0  0  0  0  0
  -28.2620  -26.4340   20.2050 O   0  0  0  0  0  0  0  0  0  0  0  0
  -24.5940  -31.9070   23.2300 C   0  0  0  0  0  0  0  0  0  0  0  0
  -27.1740  -27.3380   20.1350 C   0  0  0  0  0  0  0  0  0  0  0  0
  -23.3750  -30.5180   21.5920 C   0  0  0  0  0  3  0  0  0  0  0  0
  -24.8170  -28.9810   20.1430 C   0  0  0  0  0  0  0  0  0  0  0  0
  -25.9180  -30.8300   21.3970 C   0  0  0  0  0  2  0  0  0  0  0  0
  -25.9920  -29.4530   20.7410 C   0  0  0  0  0  0  0  0  0  0  0  0
  -27.1740  -28.6440   20.7290 C   0  0  0  0  0  3  0  0  0  0  0  0
  -25.9790  -26.9490   19.4840 C   0  0  0  0  0  3  0  0  0  0  0  0
  -24.8160  -27.7380   19.4980 C   0  0  0  0  0  3  0  0  0  0  0  0
  -23.5820  -29.8540   20.2040 C   0  0  0  0  0  2  0  0  0  0  0  0
  -24.6470  -31.1020   22.1280 N   0  0  0  0  0  0  0  0  0  0  0  0
  -23.5160  -32.1810   23.7780 O   0  0  0  0  0  0  0  0  0  0  0  0
  -22.7180  -29.4950   22.5530 C   0  0  0  0  0  0  0  0  0  0  0  0
  -21.3950  -29.2990   22.4230 N   0  0  0  0  0  0  0  0  0  0  0  0
  -23.4030  -28.8840   23.3780 O   0  0  0  0  0  0  0  0  0  0  0  0
  -20.9020  -29.8450   21.7290 H   0  0  0  0  0  0  0  0  0  0  0  0
  -18.0360  -28.0410   22.9020 C   0  0  0  0  0  0  0  0  0  0  0  0
  -20.5850  -28.3580   23.2000 C   0  0  0  0  0  3  0  0  0  0  0  0
  -20.7250  -26.9190   22.6510 C   0  0  0  0  0  2  0  0  0  0  0  0
  -19.6420  -26.5570   21.6290 C   0  0  0  0  0  2  0  0  0  0  0  0
  -18.2490  -26.6850   22.2510 C   0  0  0  0  0  2  0  0  0  0  0  0
  -19.1330  -28.8320   23.3360 C   0  0  0  0  0  0  0  0  0  0  0  0
  -18.8800  -30.0990   23.9050 C   0  0  0  0  0  3  0  0  0  0  0  0
  -17.5630  -30.5750   24.0460 C   0  0  0  0  0  3  0  0  0  0  0  0
  -16.4800  -29.7820   23.6300 C   0  0  0  0  0  3  0  0  0  0  0  0
  -16.7180  -28.5170   23.0630 C   0  0  0  0  0  3  0  0  0  0  0  0
  -25.8830  -32.5370   23.8390 C   0  0  0  0  0  3  0  0  0  0  0  0
  -25.5780  -33.9340   24.1800 N   0  0  0  0  0  0  0  0  0  0  0  0
  -25.8980  -34.9910   23.4210 C   0  0  0  0  0  0  0  0  0  0  0  0
  -26.5540  -34.8920   22.3810 O   0  0  0  0  0  0  0  0  0  0  0  0
  -25.0060  -34.0850   24.9990 H   0  0  0  0  0  0  0  0  0  0  0  0
  -24.1740  -36.7910   23.0820 C   0  0  0  0  0  1  0  0  0  0  0  0
  -25.4150  -36.3770   23.8890 C   0  0  0  0  0  3  0  0  0  0  0  0
  -27.5540  -37.2550   24.7180 C   0  0  0  0  0  1  0  0  0  0  0  0
  -26.4480  -37.4290   23.7790 N   0  0  0  0  0  0  0  0  0  0  0  0
  -26.0430  -38.3470   23.9360 H   0  0  0  0  0  0  0  0  0  0  0  0
  -26.4160  -31.7620   25.1070 C   0  0  1  0  0  0  0  0  0  0  0  0
  -25.3390  -31.5190   26.1900 C   0  0  0  0  0  1  0  0  0  0  0  0
  -26.9980  -30.3850   24.7070 C   0  0  0  0  0  1  0  0  0  0  0  0
  -27.5720  -32.5560   25.7630 C   0  0  0  0  0  1  0  0  0  0  0  0
  -30.3960  -17.4400   19.8300 C   0  0  0  0  0  2  0  0  0  0  0  0
  -30.5660  -16.2930   22.1440 C   0  0  0  0  0  1  0  0  0  0  0  0
  -30.1000  -16.1050   20.6850 C   0  0  0  0  0  3  0  0  0  0  0  0
  -30.7590  -14.7610   20.1110 C   0  0  0  0  0  0  0  0  0  0  0  0
  -30.4590  -12.5460   18.9980 C   0  0  0  0  0  2  0  0  0  0  0  0
  -29.4730  -12.7050   17.8200 C   0  0  0  0  0  2  0  0  0  0  0  0
  -28.0150  -12.5500   18.2940 C   0  0  0  0  0  2  0  0  0  0  0  0
  -27.7110  -13.3790   19.5680 C   0  0  0  0  0  3  0  0  0  0  0  0
  -28.8140  -13.2230   20.6400 C   0  0  0  0  0  2  0  0  0  0  0  0
  -30.0980  -13.5580   20.0160 N   0  0  0  0  0  0  0  0  0  0  0  0
  -31.8980  -14.8560   19.6480 O   0  0  0  0  0  0  0  0  0  0  0  0
  -25.3390  -13.9600   20.3590 C   0  0  0  0  0  0  0  0  0  0  0  0
  -24.2860  -13.1840   20.7520 C   0  0  0  0  0  0  0  0  0  0  0  0
  -24.7510  -11.8330   20.7070 C   0  0  0  0  0  0  0  0  0  0  0  0
  -26.3800  -13.0870   20.0950 N   0  0  0  0  0  0  0  0  0  0  0  0
  -26.0330  -11.8000   20.3630 N   0  0  0  0  0  0  0  0  0  0  0  0
  -24.0340  -10.5680   20.9120 C   0  0  0  0  0  0  0  0  0  0  0  0
  -24.4680   -9.6160   21.8610 C   0  0  0  0  0  3  0  0  0  0  0  0
  -23.7480   -8.4160   22.0530 C   0  0  0  0  0  3  0  0  0  0  0  0
  -22.5810   -8.1600   21.2960 C   0  0  0  0  0  0  0  0  0  0  0  0
  -22.1650   -9.1000   20.3360 C   0  0  0  0  0  3  0  0  0  0  0  0
  -22.8860  -10.2900   20.1420 C   0  0  0  0  0  3  0  0  0  0  0  0
  -21.8320   -7.0130   21.3990 O   0  0  0  0  0  0  0  0  0  0  0  0
  -21.7470   -6.3100   22.5750 C   0  0  0  0  0  0  0  0  0  0  0  0
  -21.2700   -6.9050   23.7640 C   0  0  0  0  0  3  0  0  0  0  0  0
  -21.1320   -6.1290   24.9330 C   0  0  0  0  0  3  0  0  0  0  0  0
  -21.4610   -4.7610   24.9120 C   0  0  0  0  0  0  0  0  0  0  0  0
  -21.9310   -4.1660   23.7280 C   0  0  0  0  0  3  0  0  0  0  0  0
  -22.0700   -4.9390   22.5620 C   0  0  0  0  0  0  0  0  0  0  0  0
  -22.5030   -4.3560   21.4180 F   0  0  0  0  0  0  0  0  0  0  0  0
  -21.3220   -4.0130   26.0320 F   0  0  0  0  0  0  0  0  0  0  0  0
  -22.8950  -13.6560   21.0650 C   0  0  0  0  0  0  0  0  0  0  0  0
  -22.1960  -12.9570   21.9530 N   0  0  0  0  0  0  0  0  0  0  0  0
  -22.4370  -14.6800   20.5570 O   0  0  0  0  0  0  0  0  0  0  0  0
  -22.5790  -12.1260   22.3790 H   0  0  0  0  0  0  0  0  0  0  0  0
  -21.2680  -13.2600   22.2120 H   0  0  0  0  0  0  0  0  0  0  0  0
  -25.4980  -15.3320   20.1810 N   0  0  0  0  0  0  0  0  0  0  0  0
  -24.7390  -15.9900   20.3170 H   0  0  0  0  0  0  0  0  0  0  0  0
  -26.3440  -15.7700   19.8380 H   0  0  0  0  0  0  0  0  0  0  0  0
  1  3  2  0
  2  4  1  0
  2  5  1  0
  4  1  1  0
  5  3  1  0
  6  2  2  0
  7  4  1  0
  7  8  1  0
  9 10  1  0
  9  8  1  0
 11 22  2  0
 12 10  1  0
 12 17  1  0
 13 21  1  0
 13 23  1  0
 14 20  1  0
 14 16  1  0
 15 21  1  0
 16 15  1  0
 17 16  2  0
 18 19  1  0
 18 12  2  0
 19 14  2  0
 20 13  1  0
 21 11  1  0
 23 25  2  0
 24 23  1  0
 26 24  1  0
 27 36  2  0
 27 32  1  0
 28 24  1  0
 28 32  1  0
 29 28  1  0
 30 31  1  0
 30 29  1  0
 31 27  1  0
 32 33  2  0
 33 34  1  0
 35 34  2  0
 36 35  1  0
 37 11  1  0
 37 38  1  0
 37 47  1  0
 38 41  1  0
 39 43  1  0
 39 38  1  0
 40 39  2  0
 43 42  1  0
 45 43  1  0
 45 46  1  0
 45 44  1  0
 47 50  1  1
 47 48  1  0
 49 47  1  0
 51  5  1  0
 51 53  1  0
 53 52  1  0
 54 53  1  0
 55 60  1  0
 56 57  1  0
 56 55  1  0
 58 57  1  0
 58 65  1  0
 58 59  1  0
 60 54  1  0
 60 59  1  0
 61 54  2  0
 62 63  2  0
 63 82  1  0
 64 63  1  0
 64 67  1  0
 65 62  1  0
 65 66  1  0
 66 64  2  0
 67 68  1  0
 68 69  2  0
 70 73  1  0
 70 69  1  0
 71 70  2  0
 72 71  1  0
 72 67  2  0
 73 74  1  0
 74 75  1  0
 75 76  2  0
 77 76  1  0
 77 81  1  0
 78 77  2  0
 79 74  2  0
 79 78  1  0
 80 79  1  0
 82 83  1  0
 83 86  1  0
 83 85  1  0
 84 82  2  0
 87 88  1  0
 87 62  1  0
 89 87  1  0
M  ISO  4   9 101  10 101  53 100  54 100
M  END
>  <TORSDO>  (27) 
F 21

>  <SCORE>  (27) 
-13.137

>  <name>  (27) 
28

>  <ligand_id>  (27) 
28

>  <original_smiles>  (27) 
[H]c1c([H])c([H])c2c(c1[H])C([H])([H])C([H])([H])C([H])([H])C2([H])N([H])C(=O)C1([H])N(C(=O)C([H])(N([H])C(=O)C([H])(N([H])C([H])([H])[H])C([H])([H])[H])C(C([H])([H])[H])(C([H])([H])[H])C([H])([H])[H])C([H])([H])c2c([H])c(OC([H])([H])C([H])([H])C([H])([H])n3c([H])nn(C([H])([H])C([H])(C(=O)N4C([H])([H])C([H])([H])C([H])([H])C([H])(n5nc(-c6c([H])c([H])c(Oc7c([H])c([H])c(F)c([H])c7F)c([H])c6[H])c(C(=O)N([H])[H])c5N([H])[H])C4([H])[H])C([H])([H])[H])c3=O)c([H])c([H])c2C1([H])[H]

>  <smiles>  (27) 
[H]c1c([H])c([H])c2c(c1[H])C([H])([H])C([H])([H])C([H])([H])C2([H])N([H])C(=O)C1([H])N(C(=O)C([H])(N([H])C(=O)C([H])(N([H])C([H])([H])[H])C([H])([H])[H])C(C([H])([H])[H])(C([H])([H])[H])C([H])([H])[H])C([H])([H])c2c([H])c(OC([H])([H])C([H])([H])C([H])([H])n3c([H])nn(C([H])([H])C([H])(C(=O)N4C([H])([H])C([H])([H])C([H])([H])C([H])(n5nc(-c6c([H])c([H])c(Oc7c([H])c([H])c(F)c([H])c7F)c([H])c6[H])c(C(=O)N([H])[H])c5N([H])[H])C4([H])[H])C([H])([H])[H])c3=O)c([H])c([H])c2C1([H])[H]

$$$$
29:0:0
     RDKit          3D

 93101  0  0  1  0  0  0  0  0999 V2000
  -29.9610  -20.2250   22.2320 C   0  0  0  0  0  3  0  0  0  0  0  0
  -29.5490  -20.1530   20.9000 C   0  0  0  0  0  0  0  0  0  0  0  0
  -30.0310  -21.4920   22.8430 C   0  0  0  0  0  0  0  0  0  0  0  0
  -29.3100  -22.5370   20.9080 C   0  0  0  0  0  0  0  0  0  0  0  0
  -29.2270  -21.3380   20.2560 N   0  0  0  0  0  0  0  0  0  0  0  0
  -29.7180  -22.6240   22.1660 N   0  0  0  0  0  0  0  0  0  0  0  0
  -30.4810  -21.6550   24.3000 C   0  0  1  0  0  0  0  0  0  0  0  0
  -30.6430  -20.4730   24.9020 F   0  0  0  0  0  0  0  0  0  0  0  0
  -31.6430  -22.3110   24.3470 F   0  0  0  0  0  0  0  0  0  0  0  0
  -29.5700  -22.3510   24.9840 F   0  0  0  0  0  0  0  0  0  0  0  0
  -29.4150  -18.7520   20.1720 C   0  0  0  0  0  3  0  0  0  0  0  0
  -30.0360  -17.3680   20.7820 C   0  0  0  0  0  3  0  0  0  0  0  0
  -30.5520  -14.8570   20.1670 C   0  0  0  0  0  0  0  0  0  0  0  0
  -30.3430  -12.5770   19.1630 C   0  0  0  0  0  2  0  0  0  0  0  0
  -29.3720  -12.5950   17.9610 C   0  0  0  0  0  2  0  0  0  0  0  0
  -27.9050  -12.4660   18.4220 C   0  0  0  0  0  2  0  0  0  0  0  0
  -27.5510  -13.3380   19.6590 C   0  0  0  0  0  3  0  0  0  0  0  0
  -28.6460  -13.2760   20.7440 C   0  0  0  0  0  2  0  0  0  0  0  0
  -29.9170  -13.6360   20.1020 N   0  0  0  0  0  0  0  0  0  0  0  0
  -31.7750  -14.9220   20.0070 O   0  0  0  0  0  0  0  0  0  0  0  0
  -29.1480  -16.2600   18.7790 C   0  0  0  0  0  1  0  0  0  0  0  0
  -29.7770  -16.0200   20.0870 N   0  0  0  0  0  0  0  0  0  0  0  0
  -25.1780  -13.9110   20.4380 C   0  0  0  0  0  0  0  0  0  0  0  0
  -24.1260  -13.1250   20.8220 C   0  0  0  0  0  0  0  0  0  0  0  0
  -24.6060  -11.7800   20.7890 C   0  0  0  0  0  0  0  0  0  0  0  0
  -26.2260  -13.0400   20.1860 N   0  0  0  0  0  0  0  0  0  0  0  0
  -25.8920  -11.7560   20.4630 N   0  0  0  0  0  0  0  0  0  0  0  0
  -23.9000  -10.5100   20.9880 C   0  0  0  0  0  0  0  0  0  0  0  0
  -24.3530   -9.5540   21.9250 C   0  0  0  0  0  3  0  0  0  0  0  0
  -23.6460   -8.3480   22.1120 C   0  0  0  0  0  3  0  0  0  0  0  0
  -22.4730   -8.0880   21.3640 C   0  0  0  0  0  0  0  0  0  0  0  0
  -22.0420   -9.0320   20.4160 C   0  0  0  0  0  3  0  0  0  0  0  0
  -22.7490  -10.2300   20.2250 C   0  0  0  0  0  3  0  0  0  0  0  0
  -21.7360   -6.9330   21.4630 O   0  0  0  0  0  0  0  0  0  0  0  0
  -21.6980   -6.2010   22.6220 C   0  0  0  0  0  0  0  0  0  0  0  0
  -21.2540   -6.7590   23.8410 C   0  0  0  0  0  3  0  0  0  0  0  0
  -21.1640   -5.9520   24.9920 C   0  0  0  0  0  3  0  0  0  0  0  0
  -21.5090   -4.5880   24.9260 C   0  0  0  0  0  0  0  0  0  0  0  0
  -21.9450   -4.0300   23.7130 C   0  0  0  0  0  3  0  0  0  0  0  0
  -22.0370   -4.8340   22.5630 C   0  0  0  0  0  0  0  0  0  0  0  0
  -22.4390   -4.2860   21.3900 F   0  0  0  0  0  0  0  0  0  0  0  0
  -21.4150   -3.8110   26.0310 F   0  0  0  0  0  0  0  0  0  0  0  0
  -22.7270  -13.5860   21.1100 C   0  0  0  0  0  0  0  0  0  0  0  0
  -22.0180  -12.8800   21.9830 N   0  0  0  0  0  0  0  0  0  0  0  0
  -22.2710  -14.6070   20.5960 O   0  0  0  0  0  0  0  0  0  0  0  0
  -22.4000  -12.0550   22.4200 H   0  0  0  0  0  0  0  0  0  0  0  0
  -21.0800  -13.1710   22.2190 H   0  0  0  0  0  0  0  0  0  0  0  0
  -25.3250  -15.2840   20.2580 N   0  0  0  0  0  0  0  0  0  0  0  0
  -24.5580  -15.9340   20.3910 H   0  0  0  0  0  0  0  0  0  0  0  0
  -26.1780  -15.7340   19.9550 H   0  0  0  0  0  0  0  0  0  0  0  0
  -29.1820  -23.9340   20.1610 C   0  0  0  0  0  3  0  0  0  0  0  0
  -28.3040  -25.1310   20.7870 C   0  0  0  0  0  3  0  0  0  0  0  0
  -28.4640  -26.5420   20.3020 O   0  0  0  0  0  0  0  0  0  0  0  0
  -24.6240  -31.9360   23.2490 C   0  0  0  0  0  0  0  0  0  0  0  0
  -27.3370  -27.3820   20.2700 C   0  0  0  0  0  0  0  0  0  0  0  0
  -23.4620  -30.5170   21.5960 C   0  0  0  0  0  3  0  0  0  0  0  0
  -24.9540  -28.9720   20.2030 C   0  0  0  0  0  0  0  0  0  0  0  0
  -26.0000  -30.8640   21.4500 C   0  0  0  0  0  2  0  0  0  0  0  0
  -26.1080  -29.4800   20.8140 C   0  0  0  0  0  0  0  0  0  0  0  0
  -27.3050  -28.6980   20.8310 C   0  0  0  0  0  3  0  0  0  0  0  0
  -26.1620  -26.9290   19.6320 C   0  0  0  0  0  3  0  0  0  0  0  0
  -24.9840  -27.7030   19.6010 C   0  0  0  0  0  3  0  0  0  0  0  0
  -23.7070  -29.8340   20.2240 C   0  0  0  0  0  2  0  0  0  0  0  0
  -24.7140  -31.1240   22.1550 N   0  0  0  0  0  0  0  0  0  0  0  0
  -23.5290  -32.2040   23.7660 O   0  0  0  0  0  0  0  0  0  0  0  0
  -22.7960  -29.4990   22.5510 C   0  0  0  0  0  0  0  0  0  0  0  0
  -21.4740  -29.3030   22.4010 N   0  0  0  0  0  0  0  0  0  0  0  0
  -23.4670  -28.8870   23.3870 O   0  0  0  0  0  0  0  0  0  0  0  0
  -20.9910  -29.8490   21.7010 H   0  0  0  0  0  0  0  0  0  0  0  0
  -18.1030  -28.0700   22.8510 C   0  0  0  0  0  0  0  0  0  0  0  0
  -20.6530  -28.3590   23.1620 C   0  0  0  0  0  3  0  0  0  0  0  0
  -20.7810  -26.9270   22.5940 C   0  0  0  0  0  2  0  0  0  0  0  0
  -19.6990  -26.5880   21.5630 C   0  0  0  0  0  2  0  0  0  0  0  0
  -18.3050  -26.7200   22.1840 C   0  0  0  0  0  2  0  0  0  0  0  0
  -19.2060  -28.8470   23.2970 C   0  0  0  0  0  0  0  0  0  0  0  0
  -18.9620  -30.1090   23.8800 C   0  0  0  0  0  3  0  0  0  0  0  0
  -17.6490  -30.5950   24.0230 C   0  0  0  0  0  3  0  0  0  0  0  0
  -16.5610  -29.8150   23.5940 C   0  0  0  0  0  3  0  0  0  0  0  0
  -16.7890  -28.5550   23.0140 C   0  0  0  0  0  3  0  0  0  0  0  0
  -25.8900  -32.5870   23.8900 C   0  0  0  0  0  3  0  0  0  0  0  0
  -25.5630  -33.9870   24.1960 N   0  0  0  0  0  0  0  0  0  0  0  0
  -25.9080  -35.0340   23.4340 C   0  0  0  0  0  0  0  0  0  0  0  0
  -26.6010  -34.9220   22.4200 O   0  0  0  0  0  0  0  0  0  0  0  0
  -24.9490  -34.1470   24.9820 H   0  0  0  0  0  0  0  0  0  0  0  0
  -24.1820  -36.8160   23.0180 C   0  0  0  0  0  1  0  0  0  0  0  0
  -25.4040  -36.4250   23.8650 C   0  0  0  0  0  3  0  0  0  0  0  0
  -27.5110  -37.3280   24.7430 C   0  0  0  0  0  1  0  0  0  0  0  0
  -26.4340  -37.4800   23.7680 N   0  0  0  0  0  0  0  0  0  0  0  0
  -26.0210  -38.4010   23.8930 H   0  0  0  0  0  0  0  0  0  0  0  0
  -26.3830  -31.8350   25.1870 C   0  0  1  0  0  0  0  0  0  0  0  0
  -25.2690  -31.6040   26.2340 C   0  0  0  0  0  1  0  0  0  0  0  0
  -26.9850  -30.4580   24.8260 C   0  0  0  0  0  1  0  0  0  0  0  0
  -27.5140  -32.6480   25.8630 C   0  0  0  0  0  1  0  0  0  0  0  0
  1  3  1  0
  2  1  2  0
  3  7  1  0
  4  6  1  0
  5  2  1  0
  5  4  2  0
  6  3  2  0
  7  9  1  6
  7  8  1  0
  7 10  1  0
 11 12  2  0
 11  2  1  0
 14 19  1  0
 15 16  1  0
 15 14  1  0
 17 16  1  0
 17 26  1  0
 17 18  1  0
 19 13  1  0
 19 18  1  0
 20 13  2  0
 21 22  1  0
 22 13  1  0
 22 12  1  0
 23 24  2  0
 24 43  1  0
 25 24  1  0
 25 28  1  0
 26 23  1  0
 26 27  1  0
 27 25  2  0
 28 29  1  0
 29 30  2  0
 31 34  1  0
 31 30  1  0
 32 31  2  0
 33 32  1  0
 33 28  2  0
 34 35  1  0
 35 36  1  0
 36 37  2  0
 38 37  1  0
 38 42  1  0
 39 38  2  0
 40 35  2  0
 40 39  1  0
 41 40  1  0
 43 44  1  0
 44 47  1  0
 44 46  1  0
 45 43  2  0
 48 49  1  0
 48 23  1  0
 50 48  1  0
 51 52  2  0
 51  4  1  0
 53 52  1  0
 54 65  2  0
 55 53  1  0
 55 60  1  0
 56 64  1  0
 56 66  1  0
 57 63  1  0
 57 59  1  0
 58 64  1  0
 59 60  2  0
 59 58  1  0
 61 55  2  0
 62 61  1  0
 62 57  2  0
 63 56  1  0
 64 54  1  0
 66 68  2  0
 67 66  1  0
 69 67  1  0
 70 79  2  0
 70 75  1  0
 71 67  1  0
 71 75  1  0
 72 71  1  0
 73 74  1  0
 73 72  1  0
 74 70  1  0
 75 76  2  0
 76 77  1  0
 78 77  2  0
 79 78  1  0
 80 54  1  0
 80 81  1  0
 80 90  1  0
 81 84  1  0
 82 86  1  0
 82 81  1  0
 83 82  2  0
 86 85  1  0
 88 86  1  0
 88 89  1  0
 88 87  1  0
 90 93  1  1
 90 91  1  0
 92 90  1  0
M  ISO  4  13 100  22 100  52 101  53 101
M  END
>  <TORSDO>  (28) 
F 21

>  <SCORE>  (28) 
-13.590

>  <name>  (28) 
29

>  <ligand_id>  (28) 
29

>  <original_smiles>  (28) 
[H]c1c(C(F)(F)F)nc(C([H])([H])C([H])([H])Oc2c([H])c([H])c3c(c2[H])C([H])([H])N(C(=O)C([H])(N([H])C(=O)C([H])(N([H])C([H])([H])[H])C([H])([H])[H])C(C([H])([H])[H])(C([H])([H])[H])C([H])([H])[H])C([H])(C(=O)N([H])C2([H])c4c([H])c([H])c([H])c([H])c4C([H])([H])C([H])([H])C2([H])[H])C3([H])[H])nc1C([H])([H])C([H])([H])N(C(=O)N1C([H])([H])C([H])([H])C([H])([H])C([H])(n2nc(-c3c([H])c([H])c(Oc4c([H])c([H])c(F)c([H])c4F)c([H])c3[H])c(C(=O)N([H])[H])c2N([H])[H])C1([H])[H])C([H])([H])[H]

>  <smiles>  (28) 
[H]c1c(C(F)(F)F)nc(C([H])([H])C([H])([H])Oc2c([H])c([H])c3c(c2[H])C([H])([H])N(C(=O)C([H])(N([H])C(=O)C([H])(N([H])C([H])([H])[H])C([H])([H])[H])C(C([H])([H])[H])(C([H])([H])[H])C([H])([H])[H])C([H])(C(=O)N([H])C2([H])c4c([H])c([H])c([H])c([H])c4C([H])([H])C([H])([H])C2([H])[H])C3([H])[H])nc1C([H])([H])C([H])([H])N(C(=O)N1C([H])([H])C([H])([H])C([H])([H])C([H])(n2nc(-c3c([H])c([H])c(Oc4c([H])c([H])c(F)c([H])c4F)c([H])c3[H])c(C(=O)N([H])[H])c2N([H])[H])C1([H])[H])C([H])([H])[H]

$$$$
30:0:0
     RDKit          3D

 92100  0  0  1  0  0  0  0  0999 V2000
  -29.3740  -22.6140   21.4750 C   0  0  0  0  0  0  0  0  0  0  0  0
  -28.4840  -20.9070   19.5690 C   0  0  0  0  0  0  0  0  0  0  0  0
  -29.3730  -20.3420   20.5660 C   0  0  0  0  0  0  0  0  0  0  0  0
  -28.5050  -23.1990   20.4910 C   0  0  0  0  0  0  0  0  0  0  0  0
  -29.8820  -23.4490   22.6320 C   0  0  0  0  0  1  0  0  0  0  0  0
  -29.7810  -21.2780   21.4930 N   0  0  0  0  0  0  0  0  0  0  0  0
  -28.0770  -22.2540   19.5680 N   0  0  0  0  0  0  0  0  0  0  0  0
  -26.9720  -18.9550   18.6520 C   0  0  0  0  0  1  0  0  0  0  0  0
  -27.9380  -20.1250   18.3690 C   0  0  0  0  0  2  0  0  0  0  0  0
  -30.0790  -18.8480   20.7190 C   0  0  0  0  0  3  0  0  0  0  0  0
  -29.5440  -17.3390   20.2660 C   0  0  0  0  0  3  0  0  0  0  0  0
  -30.6380  -14.8640   20.0880 C   0  0  0  0  0  0  0  0  0  0  0  0
  -30.3110  -12.6330   18.9400 C   0  0  0  0  0  2  0  0  0  0  0  0
  -29.2990  -12.7600   17.7760 C   0  0  0  0  0  2  0  0  0  0  0  0
  -27.8560  -12.5690   18.2740 C   0  0  0  0  0  2  0  0  0  0  0  0
  -27.5760  -13.3990   19.5500 C   0  0  0  0  0  3  0  0  0  0  0  0
  -28.6920  -13.2380   20.6020 C   0  0  0  0  0  2  0  0  0  0  0  0
  -29.9660  -13.6480   19.9790 N   0  0  0  0  0  0  0  0  0  0  0  0
  -31.7050  -14.9880   19.4730 O   0  0  0  0  0  0  0  0  0  0  0  0
  -30.1000  -15.9640   20.7930 N   0  0  0  0  0  0  0  0  0  0  0  0
  -25.2340  -14.0080   20.3850 C   0  0  0  0  0  0  0  0  0  0  0  0
  -24.1740  -13.2450   20.7900 C   0  0  0  0  0  0  0  0  0  0  0  0
  -24.6110  -11.8860   20.7160 C   0  0  0  0  0  0  0  0  0  0  0  0
  -26.2530  -13.1140   20.0950 N   0  0  0  0  0  0  0  0  0  0  0  0
  -25.8880  -11.8300   20.3520 N   0  0  0  0  0  0  0  0  0  0  0  0
  -23.8720  -10.6330   20.9190 C   0  0  0  0  0  0  0  0  0  0  0  0
  -24.3200   -9.6550   21.8340 C   0  0  0  0  0  3  0  0  0  0  0  0
  -23.5820   -8.4670   22.0310 C   0  0  0  0  0  3  0  0  0  0  0  0
  -22.3800   -8.2540   21.3160 C   0  0  0  0  0  0  0  0  0  0  0  0
  -21.9480   -9.2210   20.3890 C   0  0  0  0  0  3  0  0  0  0  0  0
  -22.6880  -10.3990   20.1900 C   0  0  0  0  0  3  0  0  0  0  0  0
  -21.6130   -7.1210   21.4200 O   0  0  0  0  0  0  0  0  0  0  0  0
  -21.5750   -6.3790   22.5750 C   0  0  0  0  0  0  0  0  0  0  0  0
  -21.2040   -6.9480   23.8120 C   0  0  0  0  0  3  0  0  0  0  0  0
  -21.1140   -6.1400   24.9620 C   0  0  0  0  0  3  0  0  0  0  0  0
  -21.3790   -4.7600   24.8780 C   0  0  0  0  0  0  0  0  0  0  0  0
  -21.7380   -4.1890   23.6440 C   0  0  0  0  0  3  0  0  0  0  0  0
  -21.8330   -4.9960   22.4970 C   0  0  0  0  0  0  0  0  0  0  0  0
  -22.1610   -4.4370   21.3070 F   0  0  0  0  0  0  0  0  0  0  0  0
  -21.2790   -3.9790   25.9780 F   0  0  0  0  0  0  0  0  0  0  0  0
  -22.8030  -13.7460   21.1370 C   0  0  0  0  0  0  0  0  0  0  0  0
  -22.1130  -13.0530   22.0370 N   0  0  0  0  0  0  0  0  0  0  0  0
  -22.3550  -14.7860   20.6550 O   0  0  0  0  0  0  0  0  0  0  0  0
  -22.4910  -12.2110   22.4420 H   0  0  0  0  0  0  0  0  0  0  0  0
  -21.2010  -13.3710   22.3230 H   0  0  0  0  0  0  0  0  0  0  0  0
  -25.4220  -15.3770   20.2150 N   0  0  0  0  0  0  0  0  0  0  0  0
  -24.6750  -16.0530   20.3320 H   0  0  0  0  0  0  0  0  0  0  0  0
  -26.2800  -15.7910   19.8710 H   0  0  0  0  0  0  0  0  0  0  0  0
  -31.4010  -16.2270   22.9780 C   0  0  0  0  0  1  0  0  0  0  0  0
  -30.0770  -15.8450   22.2700 C   0  0  0  0  0  2  0  0  0  0  0  0
  -27.7120  -24.6630   20.6120 C   0  0  0  0  0  2  0  0  0  0  0  0
  -28.1620  -26.1420   20.3280 O   0  0  0  0  0  0  0  0  0  0  0  0
  -24.5540  -31.9110   23.2210 C   0  0  0  0  0  0  0  0  0  0  0  0
  -27.1470  -27.1750   20.2430 C   0  0  0  0  0  0  0  0  0  0  0  0
  -23.3620  -30.4890   21.6000 C   0  0  0  0  0  3  0  0  0  0  0  0
  -24.8260  -28.9280   20.1780 C   0  0  0  0  0  0  0  0  0  0  0  0
  -25.9160  -30.7780   21.4250 C   0  0  0  0  0  2  0  0  0  0  0  0
  -26.0010  -29.3810   20.7870 C   0  0  0  0  0  0  0  0  0  0  0  0
  -27.1710  -28.5230   20.8000 C   0  0  0  0  0  3  0  0  0  0  0  0
  -25.9550  -26.8510   19.5630 C   0  0  0  0  0  3  0  0  0  0  0  0
  -24.8170  -27.6810   19.5430 C   0  0  0  0  0  3  0  0  0  0  0  0
  -23.5890  -29.8140   20.2230 C   0  0  0  0  0  2  0  0  0  0  0  0
  -24.6320  -31.0830   22.1370 N   0  0  0  0  0  0  0  0  0  0  0  0
  -23.4680  -32.1890   23.7510 O   0  0  0  0  0  0  0  0  0  0  0  0
  -22.7020  -29.4770   22.5710 C   0  0  0  0  0  0  0  0  0  0  0  0
  -21.3760  -29.2880   22.4540 N   0  0  0  0  0  0  0  0  0  0  0  0
  -23.3860  -28.8680   23.3990 O   0  0  0  0  0  0  0  0  0  0  0  0
  -20.8800  -29.8320   21.7600 H   0  0  0  0  0  0  0  0  0  0  0  0
  -18.0140  -28.0330   22.9700 C   0  0  0  0  0  0  0  0  0  0  0  0
  -20.5690  -28.3470   23.2350 C   0  0  0  0  0  3  0  0  0  0  0  0
  -20.6950  -26.9070   22.6810 C   0  0  0  0  0  2  0  0  0  0  0  0
  -19.6010  -26.5510   21.6710 C   0  0  0  0  0  2  0  0  0  0  0  0
  -18.2160  -26.6780   22.3110 C   0  0  0  0  0  2  0  0  0  0  0  0
  -19.1180  -28.8230   23.3890 C   0  0  0  0  0  0  0  0  0  0  0  0
  -18.8730  -30.0870   23.9690 C   0  0  0  0  0  3  0  0  0  0  0  0
  -17.5590  -30.5640   24.1290 C   0  0  0  0  0  3  0  0  0  0  0  0
  -16.4700  -29.7730   23.7250 C   0  0  0  0  0  3  0  0  0  0  0  0
  -16.6990  -28.5100   23.1520 C   0  0  0  0  0  3  0  0  0  0  0  0
  -25.8290  -32.5660   23.8360 C   0  0  0  0  0  3  0  0  0  0  0  0
  -25.5020  -33.9650   24.1560 N   0  0  0  0  0  0  0  0  0  0  0  0
  -25.8230  -35.0190   23.3950 C   0  0  0  0  0  0  0  0  0  0  0  0
  -26.4920  -34.9180   22.3640 O   0  0  0  0  0  0  0  0  0  0  0  0
  -24.9100  -34.1160   24.9600 H   0  0  0  0  0  0  0  0  0  0  0  0
  -24.0790  -36.7970   23.0330 C   0  0  0  0  0  1  0  0  0  0  0  0
  -25.3220  -36.4050   23.8480 C   0  0  0  0  0  3  0  0  0  0  0  0
  -27.4520  -37.3060   24.6770 C   0  0  0  0  0  1  0  0  0  0  0  0
  -26.3440  -37.4690   23.7370 N   0  0  0  0  0  0  0  0  0  0  0  0
  -25.9290  -38.3830   23.8920 H   0  0  0  0  0  0  0  0  0  0  0  0
  -26.3540  -31.8150   25.1200 C   0  0  1  0  0  0  0  0  0  0  0  0
  -25.2640  -31.5770   26.1930 C   0  0  0  0  0  1  0  0  0  0  0  0
  -26.9480  -30.4360   24.7490 C   0  0  0  0  0  1  0  0  0  0  0  0
  -27.5000  -32.6250   25.7690 C   0  0  0  0  0  1  0  0  0  0  0  0
  1  6  1  0
  1  5  1  0
  2  3  1  0
  3 10  1  0
  3  6  2  0
  4 51  1  0
  4  1  2  0
  7  2  2  0
  7  4  1  0
  9  8  1  0
  9  2  1  0
 11 10  2  0
 11 20  1  0
 12 20  1  0
 13 18  1  0
 14 15  1  0
 14 13  1  0
 16 15  1  0
 16 24  1  0
 16 17  1  0
 18 12  1  0
 18 17  1  0
 19 12  2  0
 20 50  1  0
 21 22  2  0
 22 41  1  0
 23 22  1  0
 23 26  1  0
 24 25  1  0
 24 21  1  0
 25 23  2  0
 26 27  1  0
 27 28  2  0
 29 32  1  0
 29 28  1  0
 30 29  2  0
 31 30  1  0
 31 26  2  0
 32 33  1  0
 33 34  1  0
 34 35  2  0
 36 35  1  0
 36 40  1  0
 37 36  2  0
 38 33  2  0
 38 37  1  0
 39 38  1  0
 41 42  1  0
 42 45  1  0
 42 44  1  0
 43 41  2  0
 46 47  1  0
 46 21  1  0
 48 46  1  0
 50 49  1  0
 52 51  1  0
 53 64  2  0
 54 52  1  0
 54 59  1  0
 55 63  1  0
 55 65  1  0
 56 62  1  0
 56 58  1  0
 57 63  1  0
 58 59  2  0
 58 57  1  0
 60 54  2  0
 61 60  1  0
 61 56  2  0
 62 55  1  0
 63 53  1  0
 65 67  2  0
 66 65  1  0
 68 66  1  0
 69 78  2  0
 69 74  1  0
 70 66  1  0
 70 74  1  0
 71 70  1  0
 72 73  1  0
 72 71  1  0
 73 69  1  0
 74 75  2  0
 75 76  1  0
 77 76  2  0
 78 77  1  0
 79 53  1  0
 79 80  1  0
 79 89  1  0
 80 83  1  0
 81 85  1  0
 81 80  1  0
 82 81  2  0
 85 84  1  0
 87 85  1  0
 87 88  1  0
 87 86  1  0
 89 92  1  1
 89 90  1  0
 91 89  1  0
M  ISO  4  12 100  20 100  51 101  52 101
M  END
>  <TORSDO>  (29) 
F 21

>  <SCORE>  (29) 
-11.839

>  <name>  (29) 
30

>  <ligand_id>  (29) 
30

>  <original_smiles>  (29) 
[H]c1c([H])c([H])c2c(c1[H])C([H])([H])C([H])([H])C([H])([H])C2([H])N([H])C(=O)C1([H])N(C(=O)C([H])(N([H])C(=O)C([H])(N([H])C([H])([H])[H])C([H])([H])[H])C(C([H])([H])[H])(C([H])([H])[H])C([H])([H])[H])C([H])([H])c2c([H])c(OC([H])([H])c3nc(C([H])([H])C([H])([H])[H])c(C([H])([H])C([H])([H])N(C(=O)N4C([H])([H])C([H])([H])C([H])([H])C([H])(n5nc(-c6c([H])c([H])c(Oc7c([H])c([H])c(F)c([H])c7F)c([H])c6[H])c(C(=O)N([H])[H])c5N([H])[H])C4([H])[H])C([H])([H])C([H])([H])[H])nc3C([H])([H])[H])c([H])c([H])c2C1([H])[H]

>  <smiles>  (29) 
[H]c1c([H])c([H])c2c(c1[H])C([H])([H])C([H])([H])C([H])([H])C2([H])N([H])C(=O)C1([H])N(C(=O)C([H])(N([H])C(=O)C([H])(N([H])C([H])([H])[H])C([H])([H])[H])C(C([H])([H])[H])(C([H])([H])[H])C([H])([H])[H])C([H])([H])c2c([H])c(OC([H])([H])c3nc(C([H])([H])C([H])([H])[H])c(C([H])([H])C([H])([H])N(C(=O)N4C([H])([H])C([H])([H])C([H])([H])C([H])(n5nc(-c6c([H])c([H])c(Oc7c([H])c([H])c(F)c([H])c7F)c([H])c6[H])c(C(=O)N([H])[H])c5N([H])[H])C4([H])[H])C([H])([H])C([H])([H])[H])nc3C([H])([H])[H])c([H])c([H])c2C1([H])[H]

$$$$
31:0:0
     RDKit          3D

 92100  0  0  1  0  0  0  0  0999 V2000
  -29.4100  -21.5710   20.1760 C   0  0  0  0  0  0  0  0  0  0  0  0
  -30.2060  -20.2420   21.5900 C   0  0  0  0  0  0  0  0  0  0  0  0
  -29.6320  -21.4500   21.5170 N   0  0  0  0  0  0  0  0  0  0  0  0
  -29.7890  -20.4950   19.4600 N   0  0  0  0  0  2  0  0  0  0  0  0
  -30.3060  -19.6300   20.3950 N   0  0  0  0  0  0  0  0  0  0  0  0
  -28.6530  -22.7520   19.5650 C   0  0  0  0  0  2  0  0  0  0  0  0
  -28.7880  -24.1640   20.2510 C   0  0  0  0  0  2  0  0  0  0  0  0
  -28.3570  -25.3750   19.3450 C   0  0  0  0  0  2  0  0  0  0  0  0
  -28.2660  -26.6860   19.9810 O   0  0  0  0  0  0  0  0  0  0  0  0
  -24.6330  -31.9290   23.2390 C   0  0  0  0  0  0  0  0  0  0  0  0
  -27.0930  -27.4420   19.9990 C   0  0  0  0  0  0  0  0  0  0  0  0
  -23.3510  -30.5750   21.6180 C   0  0  0  0  0  3  0  0  0  0  0  0
  -24.7290  -29.0320   20.1180 C   0  0  0  0  0  0  0  0  0  0  0  0
  -25.8810  -30.8780   21.3460 C   0  0  0  0  0  2  0  0  0  0  0  0
  -25.9180  -29.5140   20.6760 C   0  0  0  0  0  0  0  0  0  0  0  0
  -27.0980  -28.7270   20.6100 C   0  0  0  0  0  3  0  0  0  0  0  0
  -25.8700  -26.9860   19.4500 C   0  0  0  0  0  3  0  0  0  0  0  0
  -24.7030  -27.7710   19.5030 C   0  0  0  0  0  3  0  0  0  0  0  0
  -23.5050  -29.9160   20.2210 C   0  0  0  0  0  2  0  0  0  0  0  0
  -24.6430  -31.1430   22.1250 N   0  0  0  0  0  0  0  0  0  0  0  0
  -23.5740  -32.2110   23.8180 O   0  0  0  0  0  0  0  0  0  0  0  0
  -22.7130  -29.5490   22.5840 C   0  0  0  0  0  0  0  0  0  0  0  0
  -21.3970  -29.3220   22.4350 N   0  0  0  0  0  0  0  0  0  0  0  0
  -23.3990  -28.9600   23.4220 O   0  0  0  0  0  0  0  0  0  0  0  0
  -20.9010  -29.8520   21.7320 H   0  0  0  0  0  0  0  0  0  0  0  0
  -18.0810  -27.9320   22.8120 C   0  0  0  0  0  0  0  0  0  0  0  0
  -20.5970  -28.3680   23.2070 C   0  0  0  0  0  3  0  0  0  0  0  0
  -20.8220  -26.9220   22.7090 C   0  0  0  0  0  2  0  0  0  0  0  0
  -19.8030  -26.4810   21.6540 C   0  0  0  0  0  2  0  0  0  0  0  0
  -18.3800  -26.5660   22.2160 C   0  0  0  0  0  2  0  0  0  0  0  0
  -19.1230  -28.7840   23.2620 C   0  0  0  0  0  0  0  0  0  0  0  0
  -18.7930  -30.0570   23.7770 C   0  0  0  0  0  3  0  0  0  0  0  0
  -17.4520  -30.4790   23.8460 C   0  0  0  0  0  3  0  0  0  0  0  0
  -16.4230  -29.6250   23.4130 C   0  0  0  0  0  3  0  0  0  0  0  0
  -16.7380  -28.3530   22.9020 C   0  0  0  0  0  3  0  0  0  0  0  0
  -25.9480  -32.5320   23.8250 C   0  0  0  0  0  3  0  0  0  0  0  0
  -25.6680  -33.9240   24.2030 N   0  0  0  0  0  0  0  0  0  0  0  0
  -25.9860  -34.9930   23.4600 C   0  0  0  0  0  0  0  0  0  0  0  0
  -26.6160  -34.9100   22.4030 O   0  0  0  0  0  0  0  0  0  0  0  0
  -25.1090  -34.0630   25.0320 H   0  0  0  0  0  0  0  0  0  0  0  0
  -24.2680  -36.8130   23.2150 C   0  0  0  0  0  1  0  0  0  0  0  0
  -25.5320  -36.3750   23.9700 C   0  0  0  0  0  3  0  0  0  0  0  0
  -27.7060  -37.2130   24.7440 C   0  0  0  0  0  1  0  0  0  0  0  0
  -26.5730  -37.4180   23.8470 N   0  0  0  0  0  0  0  0  0  0  0  0
  -26.1840  -38.3390   24.0370 H   0  0  0  0  0  0  0  0  0  0  0  0
  -26.5070  -31.7230   25.0600 C   0  0  1  0  0  0  0  0  0  0  0  0
  -25.4520  -31.4600   26.1600 C   0  0  0  0  0  1  0  0  0  0  0  0
  -27.0670  -30.3550   24.6070 C   0  0  0  0  0  1  0  0  0  0  0  0
  -27.6860  -32.4930   25.7010 C   0  0  0  0  0  1  0  0  0  0  0  0
  -30.8060  -19.6590   22.8410 C   0  0  0  0  0  3  0  0  0  0  0  0
  -31.9100  -21.5660   24.1880 C   0  0  0  0  0  1  0  0  0  0  0  0
  -30.7490  -20.5630   24.0910 C   0  0  0  0  0  2  0  0  0  0  0  0
  -30.9800  -18.3540   20.0170 C   0  0  0  0  0  2  0  0  0  0  0  0
  -30.0770  -17.0640   19.9460 C   0  0  0  0  0  2  0  0  0  0  0  0
  -31.2110  -14.7800   19.9740 C   0  0  0  0  0  0  0  0  0  0  0  0
  -30.9020  -12.5270   18.9630 C   0  0  0  0  0  2  0  0  0  0  0  0
  -29.9240  -12.6180   17.7720 C   0  0  0  0  0  2  0  0  0  0  0  0
  -28.4630  -12.4990   18.2470 C   0  0  0  0  0  2  0  0  0  0  0  0
  -28.1540  -13.4300   19.4480 C   0  0  0  0  0  3  0  0  0  0  0  0
  -29.2350  -13.2910   20.5410 C   0  0  0  0  0  2  0  0  0  0  0  0
  -30.5450  -13.5830   19.9320 N   0  0  0  0  0  0  0  0  0  0  0  0
  -32.2610  -14.9600   19.3470 O   0  0  0  0  0  0  0  0  0  0  0  0
  -30.6110  -15.8710   22.0750 C   0  0  0  0  0  1  0  0  0  0  0  0
  -30.5860  -15.8180   20.6090 N   0  0  0  0  0  0  0  0  0  0  0  0
  -25.8140  -14.1150   20.2680 C   0  0  0  0  0  0  0  0  0  0  0  0
  -24.7360  -13.3780   20.6770 C   0  0  0  0  0  0  0  0  0  0  0  0
  -25.1450  -12.0100   20.6120 C   0  0  0  0  0  0  0  0  0  0  0  0
  -26.8140  -13.1980   19.9810 N   0  0  0  0  0  0  0  0  0  0  0  0
  -26.4170  -11.9260   20.2450 N   0  0  0  0  0  0  0  0  0  0  0  0
  -24.3810  -10.7730   20.8220 C   0  0  0  0  0  0  0  0  0  0  0  0
  -24.7680   -9.8220   21.7910 C   0  0  0  0  0  3  0  0  0  0  0  0
  -24.0070   -8.6490   21.9860 C   0  0  0  0  0  3  0  0  0  0  0  0
  -22.8450   -8.4200   21.2120 C   0  0  0  0  0  0  0  0  0  0  0  0
  -22.4770   -9.3590   20.2340 C   0  0  0  0  0  3  0  0  0  0  0  0
  -23.2390  -10.5230   20.0360 C   0  0  0  0  0  3  0  0  0  0  0  0
  -22.0590   -7.2980   21.3150 O   0  0  0  0  0  0  0  0  0  0  0  0
  -21.8830   -6.6490   22.5100 C   0  0  0  0  0  0  0  0  0  0  0  0
  -21.3630   -7.3070   23.6470 C   0  0  0  0  0  3  0  0  0  0  0  0
  -21.1340   -6.5850   24.8350 C   0  0  0  0  0  3  0  0  0  0  0  0
  -21.4140   -5.2070   24.8870 C   0  0  0  0  0  0  0  0  0  0  0  0
  -21.9270   -4.5480   23.7560 C   0  0  0  0  0  3  0  0  0  0  0  0
  -22.1580   -5.2670   22.5690 C   0  0  0  0  0  0  0  0  0  0  0  0
  -22.6320   -4.6240   21.4750 F   0  0  0  0  0  0  0  0  0  0  0  0
  -21.1870   -4.5110   26.0260 F   0  0  0  0  0  0  0  0  0  0  0  0
  -23.3700  -13.9030   21.0160 C   0  0  0  0  0  0  0  0  0  0  0  0
  -22.6650  -13.2360   21.9230 N   0  0  0  0  0  0  0  0  0  0  0  0
  -22.9410  -14.9380   20.5110 O   0  0  0  0  0  0  0  0  0  0  0  0
  -23.0260  -12.3970   22.3530 H   0  0  0  0  0  0  0  0  0  0  0  0
  -21.7510  -13.5700   22.1930 H   0  0  0  0  0  0  0  0  0  0  0  0
  -26.0230  -15.4790   20.0980 N   0  0  0  0  0  0  0  0  0  0  0  0
  -25.2870  -16.1620   20.2430 H   0  0  0  0  0  0  0  0  0  0  0  0
  -26.8780  -15.8890   19.7430 H   0  0  0  0  0  0  0  0  0  0  0  0
  1  3  2  0
  2 50  2  0
  3  2  1  0
  4  1  1  0
  4  5  1  0
  5  2  1  0
  6  1  1  0
  6  7  1  0
  8  9  1  0
  8  7  1  0
  9 11  1  0
 10 21  2  0
 11 16  1  0
 12 20  1  0
 12 22  1  0
 13 19  1  0
 13 15  1  0
 14 20  1  0
 15 14  1  0
 16 15  2  0
 17 18  1  0
 17 11  2  0
 18 13  2  0
 19 12  1  0
 20 10  1  0
 22 24  2  0
 23 22  1  0
 25 23  1  0
 26 35  2  0
 26 31  1  0
 27 23  1  0
 27 31  1  0
 28 27  1  0
 29 30  1  0
 29 28  1  0
 30 26  1  0
 31 32  2  0
 32 33  1  0
 34 33  2  0
 35 34  1  0
 36 10  1  0
 36 37  1  0
 36 46  1  0
 37 40  1  0
 38 42  1  0
 38 37  1  0
 39 38  2  0
 42 41  1  0
 44 42  1  0
 44 45  1  0
 44 43  1  0
 46 49  1  1
 46 47  1  0
 48 46  1  0
 50 52  1  0
 52 51  1  0
 53  5  1  0
 54 53  1  0
 54 64  1  0
 55 64  1  0
 56 61  1  0
 57 58  1  0
 57 56  1  0
 59 58  1  0
 59 68  1  0
 59 60  1  0
 61 55  1  0
 61 60  1  0
 62 55  2  0
 64 63  1  0
 65 66  2  0
 66 85  1  0
 67 66  1  0
 67 70  1  0
 68 69  1  0
 68 65  1  0
 69 67  2  0
 70 71  1  0
 71 72  2  0
 73 76  1  0
 73 72  1  0
 74 73  2  0
 75 74  1  0
 75 70  2  0
 76 77  1  0
 77 82  2  0
 77 78  1  0
 78 79  2  0
 79 80  1  0
 80 84  1  0
 81 80  2  0
 82 81  1  0
 83 82  1  0
 85 86  1  0
 86 89  1  0
 86 88  1  0
 87 85  2  0
 90 91  1  0
 90 65  1  0
 92 90  1  0
M  ISO  4   8 101   9 101  55 100  64 100
M  END
>  <TORSDO>  (30) 
F 23

>  <SCORE>  (30) 
-12.228

>  <name>  (30) 
31

>  <ligand_id>  (30) 
31

>  <original_smiles>  (30) 
[H]c1c([H])c([H])c2c(c1[H])C([H])([H])C([H])([H])C([H])([H])C2([H])N([H])C(=O)C1([H])N(C(=O)C([H])(N([H])C(=O)C([H])(N([H])C([H])([H])[H])C([H])([H])[H])C(C([H])([H])[H])(C([H])([H])[H])C([H])([H])[H])C([H])([H])c2c([H])c(OC([H])([H])C([H])([H])C([H])([H])c3nc(C([H])([H])C([H])([H])C([H])([H])[H])n(C([H])([H])C([H])([H])N(C(=O)N4C([H])([H])C([H])([H])C([H])([H])C([H])(n5nc(-c6c([H])c([H])c(Oc7c([H])c([H])c(F)c([H])c7F)c([H])c6[H])c(C(=O)N([H])[H])c5N([H])[H])C4([H])[H])C([H])([H])[H])n3)c([H])c([H])c2C1([H])[H]

>  <smiles>  (30) 
[H]c1c([H])c([H])c2c(c1[H])C([H])([H])C([H])([H])C([H])([H])C2([H])N([H])C(=O)C1([H])N(C(=O)C([H])(N([H])C(=O)C([H])(N([H])C([H])([H])[H])C([H])([H])[H])C(C([H])([H])[H])(C([H])([H])[H])C([H])([H])[H])C([H])([H])c2c([H])c(OC([H])([H])C([H])([H])C([H])([H])c3nc(C([H])([H])C([H])([H])C([H])([H])[H])n(C([H])([H])C([H])([H])N(C(=O)N4C([H])([H])C([H])([H])C([H])([H])C([H])(n5nc(-c6c([H])c([H])c(Oc7c([H])c([H])c(F)c([H])c7F)c([H])c6[H])c(C(=O)N([H])[H])c5N([H])[H])C4([H])[H])C([H])([H])[H])n3)c([H])c([H])c2C1([H])[H]

$$$$
32:0:0
     RDKit          3D

 91 99  0  0  1  0  0  0  0  0999 V2000
  -29.7950  -20.6480   21.6520 C   0  0  0  0  0  3  0  0  0  0  0  0
  -29.2630  -19.7370   20.6970 C   0  0  0  0  0  0  0  0  0  0  0  0
  -29.2200  -22.5220   20.3500 C   0  0  0  0  0  0  0  0  0  0  0  0
  -28.6600  -21.6080   19.4010 C   0  0  0  0  0  0  0  0  0  0  0  0
  -29.7840  -22.0070   21.4800 N   0  0  0  0  0  0  0  0  0  0  0  0
  -28.6970  -20.2450   19.5670 N   0  0  0  0  0  0  0  0  0  0  0  0
  -26.4020  -21.9920   18.3410 C   0  0  0  0  0  1  0  0  0  0  0  0
  -27.9230  -22.0750   18.1570 C   0  0  0  0  0  2  0  0  0  0  0  0
  -29.0920  -18.2060   21.0000 C   0  0  0  0  0  3  0  0  0  0  0  0
  -30.2120  -17.1380   20.6170 C   0  0  0  0  0  3  0  0  0  0  0  0
  -30.6680  -14.6210   20.5690 C   0  0  0  0  0  0  0  0  0  0  0  0
  -30.4310  -12.4010   19.4540 C   0  0  0  0  0  2  0  0  0  0  0  0
  -29.5070  -12.5260   18.2240 C   0  0  0  0  0  2  0  0  0  0  0  0
  -28.0310  -12.3530   18.6320 C   0  0  0  0  0  2  0  0  0  0  0  0
  -27.6520  -13.2180   19.8630 C   0  0  0  0  0  3  0  0  0  0  0  0
  -28.6890  -13.0510   20.9900 C   0  0  0  0  0  2  0  0  0  0  0  0
  -30.0090  -13.4170   20.4460 N   0  0  0  0  0  0  0  0  0  0  0  0
  -31.7780  -14.7780   20.0470 O   0  0  0  0  0  0  0  0  0  0  0  0
  -29.7030  -15.6790   22.5350 C   0  0  0  0  0  1  0  0  0  0  0  0
  -29.9950  -15.7100   21.0950 N   0  0  0  0  0  0  0  0  0  0  0  0
  -25.2550  -13.8180   20.5690 C   0  0  0  0  0  0  0  0  0  0  0  0
  -24.1820  -13.0440   20.9190 C   0  0  0  0  0  0  0  0  0  0  0  0
  -24.6390  -11.6920   20.8750 C   0  0  0  0  0  0  0  0  0  0  0  0
  -26.2970  -12.9360   20.3310 N   0  0  0  0  0  0  0  0  0  0  0  0
  -25.9310  -11.6520   20.5750 N   0  0  0  0  0  0  0  0  0  0  0  0
  -23.9060  -10.4300   21.0420 C   0  0  0  0  0  0  0  0  0  0  0  0
  -24.3630   -9.4220   21.9190 C   0  0  0  0  0  3  0  0  0  0  0  0
  -23.6310   -8.2250   22.0760 C   0  0  0  0  0  3  0  0  0  0  0  0
  -22.4290   -8.0280   21.3550 C   0  0  0  0  0  0  0  0  0  0  0  0
  -21.9920   -9.0250   20.4640 C   0  0  0  0  0  3  0  0  0  0  0  0
  -22.7240  -10.2130   20.3060 C   0  0  0  0  0  3  0  0  0  0  0  0
  -21.6640   -6.8890   21.4250 O   0  0  0  0  0  0  0  0  0  0  0  0
  -21.6850   -6.0750   22.5290 C   0  0  0  0  0  0  0  0  0  0  0  0
  -21.4010   -6.5650   23.8230 C   0  0  0  0  0  3  0  0  0  0  0  0
  -21.3670   -5.6790   24.9190 C   0  0  0  0  0  3  0  0  0  0  0  0
  -21.6060   -4.3050   24.7240 C   0  0  0  0  0  0  0  0  0  0  0  0
  -21.8820   -3.8160   23.4350 C   0  0  0  0  0  3  0  0  0  0  0  0
  -21.9190   -4.6980   22.3410 C   0  0  0  0  0  0  0  0  0  0  0  0
  -22.1650   -4.2170   21.0990 F   0  0  0  0  0  0  0  0  0  0  0  0
  -21.5640   -3.4540   25.7740 F   0  0  0  0  0  0  0  0  0  0  0  0
  -22.7830  -13.5230   21.1840 C   0  0  0  0  0  0  0  0  0  0  0  0
  -22.0440  -12.8260   22.0400 N   0  0  0  0  0  0  0  0  0  0  0  0
  -22.3540  -14.5540   20.6660 O   0  0  0  0  0  0  0  0  0  0  0  0
  -22.3990  -11.9960   22.4900 H   0  0  0  0  0  0  0  0  0  0  0  0
  -21.1040  -13.1320   22.2490 H   0  0  0  0  0  0  0  0  0  0  0  0
  -25.4270  -15.1900   20.4120 N   0  0  0  0  0  0  0  0  0  0  0  0
  -24.6650  -15.8490   20.5300 H   0  0  0  0  0  0  0  0  0  0  0  0
  -26.2900  -15.6290   20.1160 H   0  0  0  0  0  0  0  0  0  0  0  0
  -29.3560  -24.0760   20.1250 C   0  0  0  0  0  3  0  0  0  0  0  0
  -28.1180  -25.0320   20.3510 C   0  0  0  0  0  3  0  0  0  0  0  0
  -28.3380  -26.4850   20.1460 O   0  0  0  0  0  0  0  0  0  0  0  0
  -24.6260  -31.8600   23.2050 C   0  0  0  0  0  0  0  0  0  0  0  0
  -27.2160  -27.3250   20.1160 C   0  0  0  0  0  0  0  0  0  0  0  0
  -23.4170  -30.4860   21.5480 C   0  0  0  0  0  3  0  0  0  0  0  0
  -24.8610  -28.9430   20.1130 C   0  0  0  0  0  0  0  0  0  0  0  0
  -25.9590  -30.7930   21.3750 C   0  0  0  0  0  2  0  0  0  0  0  0
  -26.0310  -29.4210   20.7170 C   0  0  0  0  0  0  0  0  0  0  0  0
  -27.2130  -28.6240   20.7070 C   0  0  0  0  0  3  0  0  0  0  0  0
  -26.0270  -26.9040   19.4790 C   0  0  0  0  0  3  0  0  0  0  0  0
  -24.8610  -27.6890   19.4850 C   0  0  0  0  0  3  0  0  0  0  0  0
  -23.6300  -29.8220   20.1630 C   0  0  0  0  0  2  0  0  0  0  0  0
  -24.6860  -31.0640   22.0990 N   0  0  0  0  0  0  0  0  0  0  0  0
  -23.5430  -32.1390   23.7410 O   0  0  0  0  0  0  0  0  0  0  0  0
  -22.7470  -29.4630   22.4960 C   0  0  0  0  0  0  0  0  0  0  0  0
  -21.4190  -29.3030   22.3700 N   0  0  0  0  0  0  0  0  0  0  0  0
  -23.4210  -28.8170   23.3020 O   0  0  0  0  0  0  0  0  0  0  0  0
  -20.9350  -29.8760   21.6930 H   0  0  0  0  0  0  0  0  0  0  0  0
  -18.0290  -28.1360   22.8500 C   0  0  0  0  0  0  0  0  0  0  0  0
  -20.5890  -28.3660   23.1290 C   0  0  0  0  0  3  0  0  0  0  0  0
  -20.6780  -26.9390   22.5410 C   0  0  0  0  0  2  0  0  0  0  0  0
  -19.5760  -26.6370   21.5210 C   0  0  0  0  0  2  0  0  0  0  0  0
  -18.1930  -26.7910   22.1620 C   0  0  0  0  0  2  0  0  0  0  0  0
  -19.1540  -28.8830   23.2890 C   0  0  0  0  0  0  0  0  0  0  0  0
  -18.9460  -30.1440   23.8900 C   0  0  0  0  0  3  0  0  0  0  0  0
  -17.6460  -30.6570   24.0550 C   0  0  0  0  0  3  0  0  0  0  0  0
  -16.5350  -29.9060   23.6330 C   0  0  0  0  0  3  0  0  0  0  0  0
  -16.7280  -28.6470   23.0360 C   0  0  0  0  0  3  0  0  0  0  0  0
  -25.9110  -32.4780   23.8370 C   0  0  0  0  0  3  0  0  0  0  0  0
  -25.5940  -33.8580   24.2300 N   0  0  0  0  0  0  0  0  0  0  0  0
  -25.9040  -34.9450   23.5110 C   0  0  0  0  0  0  0  0  0  0  0  0
  -26.5600  -34.8910   22.4670 O   0  0  0  0  0  0  0  0  0  0  0  0
  -25.0120  -33.9730   25.0470 H   0  0  0  0  0  0  0  0  0  0  0  0
  -24.1490  -36.7290   23.2640 C   0  0  0  0  0  1  0  0  0  0  0  0
  -25.4110  -36.3080   24.0330 C   0  0  0  0  0  3  0  0  0  0  0  0
  -27.5580  -37.1800   24.8460 C   0  0  0  0  0  1  0  0  0  0  0  0
  -26.4290  -37.3770   23.9410 N   0  0  0  0  0  0  0  0  0  0  0  0
  -26.0160  -38.2850   24.1410 H   0  0  0  0  0  0  0  0  0  0  0  0
  -26.4500  -31.6590   25.0730 C   0  0  1  0  0  0  0  0  0  0  0  0
  -25.3760  -31.3720   26.1480 C   0  0  0  0  0  1  0  0  0  0  0  0
  -27.0350  -30.3020   24.6170 C   0  0  0  0  0  1  0  0  0  0  0  0
  -27.6060  -32.4330   25.7500 C   0  0  0  0  0  1  0  0  0  0  0  0
  2  9  1  0
  2  1  2  0
  3  5  2  0
  4  6  2  0
  4  3  1  0
  5  1  1  0
  6  2  1  0
  8  7  1  0
  8  4  1  0
 10  9  2  0
 10 20  1  0
 11 20  1  0
 12 17  1  0
 13 14  1  0
 13 12  1  0
 15 14  1  0
 15 24  1  0
 15 16  1  0
 17 11  1  0
 17 16  1  0
 18 11  2  0
 20 19  1  0
 21 22  2  0
 22 41  1  0
 23 22  1  0
 23 26  1  0
 24 21  1  0
 24 25  1  0
 25 23  2  0
 26 27  1  0
 27 28  2  0
 29 32  1  0
 29 28  1  0
 30 29  2  0
 31 30  1  0
 31 26  2  0
 32 33  1  0
 33 34  1  0
 34 35  2  0
 36 35  1  0
 36 40  1  0
 37 36  2  0
 38 33  2  0
 38 37  1  0
 39 38  1  0
 41 42  1  0
 42 45  1  0
 42 44  1  0
 43 41  2  0
 46 47  1  0
 46 21  1  0
 48 46  1  0
 49  3  1  0
 49 50  2  0
 51 50  1  0
 52 63  2  0
 53 51  1  0
 53 58  1  0
 54 62  1  0
 54 64  1  0
 55 61  1  0
 55 57  1  0
 56 62  1  0
 57 56  1  0
 58 57  2  0
 59 60  1  0
 59 53  2  0
 60 55  2  0
 61 54  1  0
 62 52  1  0
 64 66  2  0
 65 64  1  0
 67 65  1  0
 68 77  2  0
 68 73  1  0
 69 65  1  0
 69 73  1  0
 70 69  1  0
 71 72  1  0
 71 70  1  0
 72 68  1  0
 73 74  2  0
 74 75  1  0
 76 75  2  0
 77 76  1  0
 78 52  1  0
 78 79  1  0
 78 88  1  0
 79 82  1  0
 80 84  1  0
 80 79  1  0
 81 80  2  0
 84 83  1  0
 86 84  1  0
 86 87  1  0
 86 85  1  0
 88 91  1  1
 88 89  1  0
 90 88  1  0
M  ISO  4  11 100  20 100  50 101  51 101
M  END
>  <TORSDO>  (31) 
F 21

>  <SCORE>  (31) 
-11.677

>  <name>  (31) 
32

>  <ligand_id>  (31) 
32

>  <original_smiles>  (31) 
[H]c1nc(C([H])([H])C([H])([H])Oc2c([H])c([H])c3c(c2[H])C([H])([H])N(C(=O)C([H])(N([H])C(=O)C([H])(N([H])C([H])([H])[H])C([H])([H])[H])C(C([H])([H])[H])(C([H])([H])[H])C([H])([H])[H])C([H])(C(=O)N([H])C2([H])c4c([H])c([H])c([H])c([H])c4C([H])([H])C([H])([H])C2([H])[H])C3([H])[H])c(C([H])([H])C([H])([H])[H])nc1C([H])([H])C([H])([H])N(C(=O)N1C([H])([H])C([H])([H])C([H])([H])C([H])(n2nc(-c3c([H])c([H])c(Oc4c([H])c([H])c(F)c([H])c4F)c([H])c3[H])c(C(=O)N([H])[H])c2N([H])[H])C1([H])[H])C([H])([H])[H]

>  <smiles>  (31) 
[H]c1nc(C([H])([H])C([H])([H])Oc2c([H])c([H])c3c(c2[H])C([H])([H])N(C(=O)C([H])(N([H])C(=O)C([H])(N([H])C([H])([H])[H])C([H])([H])[H])C(C([H])([H])[H])(C([H])([H])[H])C([H])([H])[H])C([H])(C(=O)N([H])C2([H])c4c([H])c([H])c([H])c([H])c4C([H])([H])C([H])([H])C2([H])[H])C3([H])[H])c(C([H])([H])C([H])([H])[H])nc1C([H])([H])C([H])([H])N(C(=O)N1C([H])([H])C([H])([H])C([H])([H])C([H])(n2nc(-c3c([H])c([H])c(Oc4c([H])c([H])c(F)c([H])c4F)c([H])c3[H])c(C(=O)N([H])[H])c2N([H])[H])C1([H])[H])C([H])([H])[H]

$$$$
33:0:0
     RDKit          3D

 91 99  0  0  1  0  0  0  0  0999 V2000
  -29.0770  -19.2760   20.8100 C   0  0  0  0  0  3  0  0  0  0  0  0
  -29.6010  -20.5110   20.4000 C   0  0  0  0  0  0  0  0  0  0  0  0
  -30.8770  -20.1060   19.9510 N   0  0  0  0  0  0  0  0  0  0  0  0
  -31.0760  -18.7830   20.0390 N   0  0  0  0  0  0  0  0  0  0  0  0
  -29.9620  -18.1550   20.5350 N   0  0  0  0  0  0  0  0  0  0  0  0
  -28.3130  -16.5090   21.1580 C   0  0  0  0  0  1  0  0  0  0  0  0
  -29.5970  -16.6070   20.2970 C   0  0  2  0  0  0  0  0  0  0  0  0
  -30.5220  -15.1720   20.4990 C   0  0  0  0  0  0  0  0  0  0  0  0
  -30.5750  -12.7740   19.6160 C   0  0  0  0  0  2  0  0  0  0  0  0
  -29.6570  -12.6170   18.3740 C   0  0  0  0  0  2  0  0  0  0  0  0
  -28.1720  -12.4000   18.7560 C   0  0  0  0  0  2  0  0  0  0  0  0
  -27.7140  -13.2910   19.9380 C   0  0  0  0  0  3  0  0  0  0  0  0
  -28.7730  -13.2850   21.0680 C   0  0  0  0  0  2  0  0  0  0  0  0
  -30.0180  -13.8470   20.4960 N   0  0  0  0  0  0  0  0  0  0  0  0
  -31.7550  -15.2350   20.3890 O   0  0  0  0  0  0  0  0  0  0  0  0
  -25.2930  -13.8800   20.5540 C   0  0  0  0  0  0  0  0  0  0  0  0
  -24.2260  -13.1040   20.9020 C   0  0  0  0  0  0  0  0  0  0  0  0
  -24.7080  -11.7600   20.9060 C   0  0  0  0  0  0  0  0  0  0  0  0
  -26.3600  -13.0060   20.3880 N   0  0  0  0  0  0  0  0  0  0  0  0
  -26.0090  -11.7270   20.6560 N   0  0  0  0  0  0  0  0  0  0  0  0
  -23.9890  -10.4950   21.0750 C   0  0  0  0  0  0  0  0  0  0  0  0
  -24.3950   -9.5440   22.0360 C   0  0  0  0  0  3  0  0  0  0  0  0
  -23.6770   -8.3410   22.1930 C   0  0  0  0  0  3  0  0  0  0  0  0
  -22.5420   -8.0820   21.3880 C   0  0  0  0  0  0  0  0  0  0  0  0
  -22.1580   -9.0230   20.4160 C   0  0  0  0  0  3  0  0  0  0  0  0
  -22.8770  -10.2180   20.2570 C   0  0  0  0  0  3  0  0  0  0  0  0
  -21.7980   -6.9300   21.4570 O   0  0  0  0  0  0  0  0  0  0  0  0
  -21.6950   -6.2100   22.6190 C   0  0  0  0  0  0  0  0  0  0  0  0
  -21.1680   -6.7740   23.8010 C   0  0  0  0  0  3  0  0  0  0  0  0
  -21.0150   -5.9780   24.9540 C   0  0  0  0  0  3  0  0  0  0  0  0
  -21.3820   -4.6190   24.9240 C   0  0  0  0  0  0  0  0  0  0  0  0
  -21.9020   -4.0550   23.7470 C   0  0  0  0  0  3  0  0  0  0  0  0
  -22.0560   -4.8480   22.5970 C   0  0  0  0  0  0  0  0  0  0  0  0
  -22.5390   -4.2950   21.4580 F   0  0  0  0  0  0  0  0  0  0  0  0
  -21.2280   -3.8510   26.0290 F   0  0  0  0  0  0  0  0  0  0  0  0
  -22.8140  -13.5720   21.1100 C   0  0  0  0  0  0  0  0  0  0  0  0
  -22.0610  -12.8820   21.9590 N   0  0  0  0  0  0  0  0  0  0  0  0
  -22.3880  -14.5870   20.5590 O   0  0  0  0  0  0  0  0  0  0  0  0
  -22.4190  -12.0630   22.4270 H   0  0  0  0  0  0  0  0  0  0  0  0
  -21.1130  -13.1790   22.1420 H   0  0  0  0  0  0  0  0  0  0  0  0
  -25.4140  -15.2470   20.3340 N   0  0  0  0  0  0  0  0  0  0  0  0
  -24.6060  -15.8580   20.3720 H   0  0  0  0  0  0  0  0  0  0  0  0
  -26.2260  -15.6910   19.9300 H   0  0  0  0  0  0  0  0  0  0  0  0
  -29.2800  -16.6510   18.7520 C   0  0  1  0  0  0  0  0  0  0  0  0
  -28.7130  -15.5620   18.2620 F   0  0  0  0  0  0  0  0  0  0  0  0
  -28.4570  -17.6550   18.4390 F   0  0  0  0  0  0  0  0  0  0  0  0
  -30.4020  -16.8110   18.0480 F   0  0  0  0  0  0  0  0  0  0  0  0
  -28.8360  -21.9340   20.0730 C   0  0  0  0  0  2  0  0  0  0  0  0
  -29.1800  -23.5210   20.4880 C   0  0  0  0  0  3  0  0  0  0  0  0
  -28.1480  -24.7960   20.0950 C   0  0  0  0  0  3  0  0  0  0  0  0
  -28.3350  -26.3180   20.3280 O   0  0  0  0  0  0  0  0  0  0  0  0
  -24.5840  -31.9300   23.2480 C   0  0  0  0  0  0  0  0  0  0  0  0
  -27.2440  -27.2570   20.2430 C   0  0  0  0  0  0  0  0  0  0  0  0
  -23.4060  -30.5250   21.5980 C   0  0  0  0  0  3  0  0  0  0  0  0
  -24.8820  -28.9580   20.1900 C   0  0  0  0  0  0  0  0  0  0  0  0
  -25.9580  -30.8160   21.4530 C   0  0  0  0  0  2  0  0  0  0  0  0
  -26.0500  -29.4250   20.8050 C   0  0  0  0  0  0  0  0  0  0  0  0
  -27.2290  -28.5900   20.8140 C   0  0  0  0  0  3  0  0  0  0  0  0
  -26.0450  -26.8830   19.5910 C   0  0  0  0  0  3  0  0  0  0  0  0
  -24.8920  -27.6990   19.5680 C   0  0  0  0  0  3  0  0  0  0  0  0
  -23.6440  -29.8420   20.2240 C   0  0  0  0  0  2  0  0  0  0  0  0
  -24.6680  -31.1110   22.1550 N   0  0  0  0  0  0  0  0  0  0  0  0
  -23.4920  -32.2090   23.7670 O   0  0  0  0  0  0  0  0  0  0  0  0
  -22.7250  -29.5160   22.5560 C   0  0  0  0  0  0  0  0  0  0  0  0
  -21.3980  -29.3480   22.4270 N   0  0  0  0  0  0  0  0  0  0  0  0
  -23.3950  -28.8870   23.3800 O   0  0  0  0  0  0  0  0  0  0  0  0
  -20.9140  -29.9080   21.7370 H   0  0  0  0  0  0  0  0  0  0  0  0
  -18.0100  -28.1670   22.9300 C   0  0  0  0  0  0  0  0  0  0  0  0
  -20.5710  -28.4110   23.1930 C   0  0  0  0  0  3  0  0  0  0  0  0
  -20.6630  -26.9820   22.6080 C   0  0  0  0  0  2  0  0  0  0  0  0
  -19.5570  -26.6740   21.5940 C   0  0  0  0  0  2  0  0  0  0  0  0
  -18.1770  -26.8210   22.2420 C   0  0  0  0  0  2  0  0  0  0  0  0
  -19.1350  -28.9190   23.3620 C   0  0  0  0  0  0  0  0  0  0  0  0
  -18.9230  -30.1780   23.9670 C   0  0  0  0  0  3  0  0  0  0  0  0
  -17.6210  -30.6830   24.1420 C   0  0  0  0  0  3  0  0  0  0  0  0
  -16.5110  -29.9270   23.7250 C   0  0  0  0  0  3  0  0  0  0  0  0
  -16.7080  -28.6700   23.1250 C   0  0  0  0  0  3  0  0  0  0  0  0
  -25.8530  -32.5730   23.8850 C   0  0  0  0  0  3  0  0  0  0  0  0
  -25.5370  -33.9760   24.1960 N   0  0  0  0  0  0  0  0  0  0  0  0
  -25.8910  -35.0250   23.4400 C   0  0  0  0  0  0  0  0  0  0  0  0
  -26.5840  -34.9120   22.4250 O   0  0  0  0  0  0  0  0  0  0  0  0
  -24.9240  -34.1380   24.9810 H   0  0  0  0  0  0  0  0  0  0  0  0
  -24.1890  -36.8320   23.0280 C   0  0  0  0  0  1  0  0  0  0  0  0
  -25.4010  -36.4200   23.8790 C   0  0  0  0  0  3  0  0  0  0  0  0
  -27.5110  -37.2980   24.7790 C   0  0  0  0  0  1  0  0  0  0  0  0
  -26.4450  -37.4650   23.7940 N   0  0  0  0  0  0  0  0  0  0  0  0
  -26.0400  -38.3890   23.9190 H   0  0  0  0  0  0  0  0  0  0  0  0
  -26.3440  -31.8210   25.1840 C   0  0  1  0  0  0  0  0  0  0  0  0
  -25.2310  -31.6030   26.2360 C   0  0  0  0  0  1  0  0  0  0  0  0
  -26.9300  -30.4350   24.8280 C   0  0  0  0  0  1  0  0  0  0  0  0
  -27.4850  -32.6210   25.8540 C   0  0  0  0  0  1  0  0  0  0  0  0
  2  1  2  0
  3  4  2  0
  3  2  1  0
  4  5  1  0
  5  1  1  0
  7  8  1  0
  7  5  1  0
  7  6  1  1
  9 14  1  0
 10 11  1  0
 10  9  1  0
 12 11  1  0
 12 19  1  0
 12 13  1  0
 14  8  1  0
 14 13  1  0
 15  8  2  0
 16 17  2  0
 17 18  1  0
 17 36  1  0
 18 21  1  0
 19 16  1  0
 19 20  1  0
 20 18  2  0
 21 22  1  0
 22 23  2  0
 24 27  1  0
 24 23  1  0
 25 24  2  0
 26 25  1  0
 26 21  2  0
 27 28  1  0
 28 29  1  0
 29 30  2  0
 31 30  1  0
 31 35  1  0
 32 31  2  0
 33 28  2  0
 33 32  1  0
 34 33  1  0
 36 37  1  0
 37 40  1  0
 37 39  1  0
 38 36  2  0
 41 42  1  0
 41 16  1  0
 43 41  1  0
 44  7  1  0
 44 45  1  6
 46 44  1  0
 47 44  1  0
 48  2  1  0
 48 49  1  0
 50 51  1  0
 50 49  2  0
 52 63  2  0
 53 51  1  0
 53 58  1  0
 54 62  1  0
 54 64  1  0
 55 61  1  0
 55 57  1  0
 56 62  1  0
 57 58  2  0
 57 56  1  0
 59 53  2  0
 60 59  1  0
 60 55  2  0
 61 54  1  0
 62 52  1  0
 64 66  2  0
 65 64  1  0
 67 65  1  0
 68 77  2  0
 68 73  1  0
 69 65  1  0
 69 73  1  0
 70 69  1  0
 71 72  1  0
 71 70  1  0
 72 68  1  0
 73 74  2  0
 74 75  1  0
 76 75  2  0
 77 76  1  0
 78 52  1  0
 78 79  1  0
 78 88  1  0
 79 82  1  0
 80 84  1  0
 80 79  1  0
 81 80  2  0
 84 83  1  0
 86 84  1  0
 86 87  1  0
 86 85  1  0
 88 91  1  1
 88 89  1  0
 90 88  1  0
M  ISO  4   7 100   8 100  50 101  51 101
M  END
>  <TORSDO>  (32) 
F 21

>  <SCORE>  (32) 
-12.851

>  <name>  (32) 
33

>  <ligand_id>  (32) 
33

>  <original_smiles>  (32) 
[H]c1c([H])c([H])c2c(c1[H])C([H])([H])C([H])([H])C([H])([H])C2([H])N([H])C(=O)C1([H])N(C(=O)C([H])(N([H])C(=O)C([H])(N([H])C([H])([H])[H])C([H])([H])[H])C(C([H])([H])[H])(C([H])([H])[H])C([H])([H])[H])C([H])([H])c2c([H])c(OC([H])([H])C([H])([H])C([H])([H])c3nnn(C(C(=O)N4C([H])([H])C([H])([H])C([H])([H])C([H])(n5nc(-c6c([H])c([H])c(Oc7c([H])c([H])c(F)c([H])c7F)c([H])c6[H])c(C(=O)N([H])[H])c5N([H])[H])C4([H])[H])(C([H])([H])[H])C(F)(F)F)c3[H])c([H])c([H])c2C1([H])[H]

>  <smiles>  (32) 
[H]c1c([H])c([H])c2c(c1[H])C([H])([H])C([H])([H])C([H])([H])C2([H])N([H])C(=O)C1([H])N(C(=O)C([H])(N([H])C(=O)C([H])(N([H])C([H])([H])[H])C([H])([H])[H])C(C([H])([H])[H])(C([H])([H])[H])C([H])([H])[H])C([H])([H])c2c([H])c(OC([H])([H])C([H])([H])C([H])([H])c3nnn(C(C(=O)N4C([H])([H])C([H])([H])C([H])([H])C([H])(n5nc(-c6c([H])c([H])c(Oc7c([H])c([H])c(F)c([H])c7F)c([H])c6[H])c(C(=O)N([H])[H])c5N([H])[H])C4([H])[H])(C([H])([H])[H])C(F)(F)F)c3[H])c([H])c([H])c2C1([H])[H]

$$$$
34:0:0
     RDKit          3D

 90 98  0  0  1  0  0  0  0  0999 V2000
  -28.9160  -22.6470   21.3250 C   0  0  0  0  0  3  0  0  0  0  0  0
  -29.0500  -22.3550   19.0420 C   0  0  0  0  0  3  0  0  0  0  0  0
  -28.7690  -23.3080   20.0760 C   0  0  0  0  0  0  0  0  0  0  0  0
  -29.4930  -20.4730   20.4410 C   0  0  0  0  0  0  0  0  0  0  0  0
  -29.2510  -21.3110   21.4800 N   0  0  0  0  0  0  0  0  0  0  0  0
  -29.3650  -21.0090   19.2130 N   0  0  0  0  0  0  0  0  0  0  0  0
  -28.0420  -18.4080   20.9350 C   0  0  0  0  0  1  0  0  0  0  0  0
  -30.2660  -18.6290   22.0760 C   0  0  0  0  0  1  0  0  0  0  0  0
  -29.5110  -18.8340   20.7410 C   0  0  2  0  0  0  0  0  0  0  0  0
  -30.2120  -17.6490   19.7970 C   0  0  0  0  0  2  0  0  0  0  0  0
  -30.7590  -14.9590   19.7990 C   0  0  0  0  0  0  0  0  0  0  0  0
  -30.4930  -12.6770   18.7710 C   0  0  0  0  0  2  0  0  0  0  0  0
  -29.4410  -12.7260   17.6390 C   0  0  0  0  0  2  0  0  0  0  0  0
  -28.0240  -12.5160   18.2050 C   0  0  0  0  0  2  0  0  0  0  0  0
  -27.7530  -13.3810   19.4640 C   0  0  0  0  0  3  0  0  0  0  0  0
  -28.9150  -13.3130   20.4800 C   0  0  0  0  0  2  0  0  0  0  0  0
  -30.1380  -13.7190   19.7730 N   0  0  0  0  0  0  0  0  0  0  0  0
  -31.9070  -15.0490   19.3560 O   0  0  0  0  0  0  0  0  0  0  0  0
  -30.0180  -16.1160   20.1090 N   0  0  0  0  0  0  0  0  0  0  0  0
  -29.1060  -15.8950   20.4740 H   0  0  0  0  0  0  0  0  0  0  0  0
  -25.4480  -13.9340   20.4390 C   0  0  0  0  0  0  0  0  0  0  0  0
  -24.4210  -13.1470   20.8820 C   0  0  0  0  0  0  0  0  0  0  0  0
  -24.8780  -11.7980   20.7610 C   0  0  0  0  0  0  0  0  0  0  0  0
  -26.4640  -13.0670   20.0750 N   0  0  0  0  0  0  0  0  0  0  0  0
  -26.1350  -11.7740   20.3320 N   0  0  0  0  0  0  0  0  0  0  0  0
  -24.1680  -10.5290   20.9750 C   0  0  0  0  0  0  0  0  0  0  0  0
  -24.6430   -9.5620   21.8890 C   0  0  0  0  0  3  0  0  0  0  0  0
  -23.9360   -8.3580   22.0900 C   0  0  0  0  0  3  0  0  0  0  0  0
  -22.7370   -8.1110   21.3780 C   0  0  0  0  0  0  0  0  0  0  0  0
  -22.2810   -9.0660   20.4530 C   0  0  0  0  0  3  0  0  0  0  0  0
  -22.9900  -10.2630   20.2500 C   0  0  0  0  0  3  0  0  0  0  0  0
  -21.9970   -6.9600   21.4910 O   0  0  0  0  0  0  0  0  0  0  0  0
  -21.9470   -6.2480   22.6630 C   0  0  0  0  0  0  0  0  0  0  0  0
  -21.5010   -6.8300   23.8690 C   0  0  0  0  0  3  0  0  0  0  0  0
  -21.3990   -6.0430   25.0350 C   0  0  0  0  0  3  0  0  0  0  0  0
  -21.7320   -4.6760   24.9940 C   0  0  0  0  0  0  0  0  0  0  0  0
  -22.1700   -4.0930   23.7920 C   0  0  0  0  0  3  0  0  0  0  0  0
  -22.2740   -4.8770   22.6280 C   0  0  0  0  0  0  0  0  0  0  0  0
  -22.6750   -4.3060   21.4680 F   0  0  0  0  0  0  0  0  0  0  0  0
  -21.6270   -3.9190   26.1110 F   0  0  0  0  0  0  0  0  0  0  0  0
  -23.0560  -13.6130   21.2960 C   0  0  0  0  0  0  0  0  0  0  0  0
  -22.4140  -12.8960   22.2120 N   0  0  0  0  0  0  0  0  0  0  0  0
  -22.5690  -14.6460   20.8410 O   0  0  0  0  0  0  0  0  0  0  0  0
  -22.8220  -12.0600   22.6020 H   0  0  0  0  0  0  0  0  0  0  0  0
  -21.5020  -13.1900   22.5280 H   0  0  0  0  0  0  0  0  0  0  0  0
  -25.5940  -15.3110   20.2870 N   0  0  0  0  0  0  0  0  0  0  0  0
  -24.8290  -15.9520   20.4640 H   0  0  0  0  0  0  0  0  0  0  0  0
  -26.3880  -15.7550   19.8460 H   0  0  0  0  0  0  0  0  0  0  0  0
  -27.9860  -24.7310   19.8010 C   0  0  0  0  0  2  0  0  0  0  0  0
  -28.3210  -26.1960   20.1720 O   0  0  0  0  0  0  0  0  0  0  0  0
  -24.6750  -31.8600   23.1570 C   0  0  0  0  0  0  0  0  0  0  0  0
  -27.2730  -27.1910   20.0870 C   0  0  0  0  0  0  0  0  0  0  0  0
  -23.4730  -30.4630   21.5220 C   0  0  0  0  0  3  0  0  0  0  0  0
  -24.9260  -28.9130   20.0750 C   0  0  0  0  0  0  0  0  0  0  0  0
  -26.0230  -30.7510   21.3380 C   0  0  0  0  0  2  0  0  0  0  0  0
  -26.1040  -29.3640   20.6830 C   0  0  0  0  0  0  0  0  0  0  0  0
  -27.2770  -28.5180   20.6790 C   0  0  0  0  0  3  0  0  0  0  0  0
  -26.0690  -26.8570   19.4190 C   0  0  0  0  0  3  0  0  0  0  0  0
  -24.9220  -27.6720   19.4240 C   0  0  0  0  0  3  0  0  0  0  0  0
  -23.6880  -29.7930   20.1380 C   0  0  0  0  0  2  0  0  0  0  0  0
  -24.7430  -31.0450   22.0600 N   0  0  0  0  0  0  0  0  0  0  0  0
  -23.5930  -32.1320   23.6950 O   0  0  0  0  0  0  0  0  0  0  0  0
  -22.8130  -29.4440   22.4850 C   0  0  0  0  0  0  0  0  0  0  0  0
  -21.4850  -29.2640   22.3720 N   0  0  0  0  0  0  0  0  0  0  0  0
  -23.4980  -28.8190   23.3000 O   0  0  0  0  0  0  0  0  0  0  0  0
  -20.9890  -29.8200   21.6890 H   0  0  0  0  0  0  0  0  0  0  0  0
  -18.1110  -28.0630   22.9270 C   0  0  0  0  0  0  0  0  0  0  0  0
  -20.6760  -28.3200   23.1490 C   0  0  0  0  0  3  0  0  0  0  0  0
  -20.7630  -26.8940   22.5580 C   0  0  0  0  0  2  0  0  0  0  0  0
  -19.6410  -26.5840   21.5610 C   0  0  0  0  0  2  0  0  0  0  0  0
  -18.2740  -26.7210   22.2330 C   0  0  0  0  0  2  0  0  0  0  0  0
  -19.2390  -28.8210   23.3430 C   0  0  0  0  0  0  0  0  0  0  0  0
  -19.0310  -30.0770   23.9520 C   0  0  0  0  0  3  0  0  0  0  0  0
  -17.7280  -30.5730   24.1540 C   0  0  0  0  0  3  0  0  0  0  0  0
  -16.6170  -29.8140   23.7510 C   0  0  0  0  0  3  0  0  0  0  0  0
  -16.8090  -28.5600   23.1430 C   0  0  0  0  0  3  0  0  0  0  0  0
  -25.9540  -32.5030   23.7740 C   0  0  0  0  0  3  0  0  0  0  0  0
  -26.4790  -31.7380   25.0510 C   0  0  1  0  0  0  0  0  0  0  0  0
  -25.3920  -31.4950   26.1230 C   0  0  0  0  0  1  0  0  0  0  0  0
  -27.0710  -30.3630   24.6630 C   0  0  0  0  0  1  0  0  0  0  0  0
  -27.6250  -32.5430   25.7090 C   0  0  0  0  0  1  0  0  0  0  0  0
  -25.6340  -33.9000   24.1090 N   0  0  0  0  0  0  0  0  0  0  0  0
  -25.9380  -34.9580   23.3480 C   0  0  0  0  0  0  0  0  0  0  0  0
  -26.5850  -34.8640   22.3010 O   0  0  0  0  0  0  0  0  0  0  0  0
  -25.0580  -34.0450   24.9260 H   0  0  0  0  0  0  0  0  0  0  0  0
  -24.1800  -36.7340   23.0440 C   0  0  0  0  0  1  0  0  0  0  0  0
  -25.4470  -36.3420   23.8190 C   0  0  0  0  0  3  0  0  0  0  0  0
  -27.5910  -37.2550   24.5970 C   0  0  0  0  0  1  0  0  0  0  0  0
  -26.4640  -37.4080   23.6810 N   0  0  0  0  0  0  0  0  0  0  0  0
  -26.0490  -38.3240   23.8340 H   0  0  0  0  0  0  0  0  0  0  0  0
  1  5  1  0
  2  6  2  0
  2  3  1  0
  3  1  2  0
  4  9  1  0
  4  5  2  0
  6  4  1  0
  9  7  1  1
  9  8  1  0
 10 19  1  0
 10  9  1  0
 11 19  1  0
 12 17  1  0
 13 14  1  0
 13 12  1  0
 15 14  1  0
 15 24  1  0
 15 16  1  0
 17 11  1  0
 17 16  1  0
 18 11  2  0
 19 20  1  0
 21 22  2  0
 22 41  1  0
 23 22  1  0
 23 26  1  0
 24 25  1  0
 24 21  1  0
 25 23  2  0
 26 27  1  0
 27 28  2  0
 29 32  1  0
 29 28  1  0
 30 29  2  0
 31 30  1  0
 31 26  2  0
 32 33  1  0
 33 34  1  0
 34 35  2  0
 36 35  1  0
 36 40  1  0
 37 36  2  0
 38 33  2  0
 38 37  1  0
 39 38  1  0
 41 42  1  0
 42 45  1  0
 42 44  1  0
 43 41  2  0
 46 21  1  0
 46 47  1  0
 48 46  1  0
 49  3  1  0
 49 50  1  0
 51 62  2  0
 52 50  1  0
 52 57  1  0
 53 61  1  0
 53 63  1  0
 54 60  1  0
 54 56  1  0
 55 61  1  0
 56 55  1  0
 57 56  2  0
 58 59  1  0
 58 52  2  0
 59 54  2  0
 60 53  1  0
 61 51  1  0
 63 65  2  0
 64 63  1  0
 66 64  1  0
 67 76  2  0
 67 72  1  0
 68 64  1  0
 68 72  1  0
 69 68  1  0
 70 71  1  0
 70 69  1  0
 71 67  1  0
 72 73  2  0
 73 74  1  0
 75 74  2  0
 76 75  1  0
 77 51  1  0
 77 82  1  0
 77 78  1  0
 78 81  1  1
 78 79  1  0
 80 78  1  0
 82 85  1  0
 83 87  1  0
 83 82  1  0
 84 83  2  0
 87 86  1  0
 89 87  1  0
 89 90  1  0
 89 88  1  0
M  ISO  4  11 100  19 100  49 101  50 101
M  END
>  <TORSDO>  (33) 
F 19

>  <SCORE>  (33) 
-12.808

>  <name>  (33) 
34

>  <ligand_id>  (33) 
34

>  <original_smiles>  (33) 
[H]c1nc(C(C([H])([H])[H])(C([H])([H])[H])C([H])([H])N([H])C(=O)N2C([H])([H])C([H])([H])C([H])([H])C([H])(n3nc(-c4c([H])c([H])c(Oc5c([H])c([H])c(F)c([H])c5F)c([H])c4[H])c(C(=O)N([H])[H])c3N([H])[H])C2([H])[H])nc([H])c1C([H])([H])Oc1c([H])c([H])c2c(c1[H])C([H])([H])N(C(=O)C([H])(N([H])C(=O)C([H])(N([H])C([H])([H])[H])C([H])([H])[H])C(C([H])([H])[H])(C([H])([H])[H])C([H])([H])[H])C([H])(C(=O)N([H])C1([H])c3c([H])c([H])c([H])c([H])c3C([H])([H])C([H])([H])C1([H])[H])C2([H])[H]

>  <smiles>  (33) 
[H]c1nc(C(C([H])([H])[H])(C([H])([H])[H])C([H])([H])N([H])C(=O)N2C([H])([H])C([H])([H])C([H])([H])C([H])(n3nc(-c4c([H])c([H])c(Oc5c([H])c([H])c(F)c([H])c5F)c([H])c4[H])c(C(=O)N([H])[H])c3N([H])[H])C2([H])[H])nc([H])c1C([H])([H])Oc1c([H])c([H])c2c(c1[H])C([H])([H])N(C(=O)C([H])(N([H])C(=O)C([H])(N([H])C([H])([H])[H])C([H])([H])[H])C(C([H])([H])[H])(C([H])([H])[H])C([H])([H])[H])C([H])(C(=O)N([H])C1([H])c3c([H])c([H])c([H])c([H])c3C([H])([H])C([H])([H])C1([H])[H])C2([H])[H]

$$$$
35:0:0
     RDKit          3D

 84 91  0  0  1  0  0  0  0  0999 V2000
  -28.5580  -22.3030   19.9620 C   0  0  0  0  0  2  0  0  0  0  0  0
  -29.3300  -20.6960   20.5610 C   0  0  0  0  0  2  0  0  0  0  0  0
  -29.1900  -18.8100   20.6670 C   0  0  0  0  0  2  0  0  0  0  0  0
  -28.3250  -16.8730   19.0840 C   0  0  0  0  0  1  0  0  0  0  0  0
  -30.6100  -17.7490   18.7680 C   0  0  0  0  0  1  0  0  0  0  0  0
  -29.6310  -17.1950   19.8230 C   0  0  1  0  0  0  0  0  0  0  0  0
  -30.3290  -15.5130   20.1690 C   0  0  0  0  0  0  0  0  0  0  0  0
  -30.3570  -13.0020   19.3490 C   0  0  0  0  0  2  0  0  0  0  0  0
  -29.4450  -12.6990   18.1290 C   0  0  0  0  0  2  0  0  0  0  0  0
  -28.0020  -12.3970   18.5660 C   0  0  0  0  0  2  0  0  0  0  0  0
  -27.5300  -13.3540   19.6880 C   0  0  0  0  0  3  0  0  0  0  0  0
  -28.5820  -13.6100   20.7870 C   0  0  0  0  0  2  0  0  0  0  0  0
  -29.7780  -14.1740   20.1290 N   0  0  0  0  0  0  0  0  0  0  0  0
  -31.5680  -15.4060   20.1000 O   0  0  0  0  0  0  0  0  0  0  0  0
  -25.1730  -13.8870   20.4830 C   0  0  0  0  0  0  0  0  0  0  0  0
  -24.1230  -13.1050   20.8620 C   0  0  0  0  0  0  0  0  0  0  0  0
  -24.6000  -11.7580   20.8300 C   0  0  0  0  0  0  0  0  0  0  0  0
  -26.2190  -13.0190   20.2250 N   0  0  0  0  0  0  0  0  0  0  0  0
  -25.8890  -11.7310   20.5020 N   0  0  0  0  0  0  0  0  0  0  0  0
  -23.8780  -10.4960   21.0270 C   0  0  0  0  0  0  0  0  0  0  0  0
  -24.3280   -9.5260   21.9480 C   0  0  0  0  0  3  0  0  0  0  0  0
  -23.6050   -8.3300   22.1380 C   0  0  0  0  0  3  0  0  0  0  0  0
  -22.4150   -8.0960   21.4060 C   0  0  0  0  0  0  0  0  0  0  0  0
  -21.9850   -9.0560   20.4730 C   0  0  0  0  0  3  0  0  0  0  0  0
  -22.7090  -10.2430   20.2810 C   0  0  0  0  0  3  0  0  0  0  0  0
  -21.6590   -6.9540   21.5060 O   0  0  0  0  0  0  0  0  0  0  0  0
  -21.6420   -6.2000   22.6530 C   0  0  0  0  0  0  0  0  0  0  0  0
  -21.2620   -6.7480   23.8980 C   0  0  0  0  0  3  0  0  0  0  0  0
  -21.1920   -5.9220   25.0390 C   0  0  0  0  0  3  0  0  0  0  0  0
  -21.4880   -4.5500   24.9330 C   0  0  0  0  0  0  0  0  0  0  0  0
  -21.8580   -4.0020   23.6930 C   0  0  0  0  0  3  0  0  0  0  0  0
  -21.9310   -4.8250   22.5560 C   0  0  0  0  0  0  0  0  0  0  0  0
  -22.2670   -4.2880   21.3590 F   0  0  0  0  0  0  0  0  0  0  0  0
  -21.4120   -3.7530   26.0260 F   0  0  0  0  0  0  0  0  0  0  0  0
  -22.7260  -13.5780   21.1390 C   0  0  0  0  0  0  0  0  0  0  0  0
  -22.0080  -12.8880   22.0160 N   0  0  0  0  0  0  0  0  0  0  0  0
  -22.2820  -14.5990   20.6130 O   0  0  0  0  0  0  0  0  0  0  0  0
  -22.3810  -12.0650   22.4620 H   0  0  0  0  0  0  0  0  0  0  0  0
  -21.0690  -13.1860   22.2420 H   0  0  0  0  0  0  0  0  0  0  0  0
  -25.3150  -15.2590   20.3050 N   0  0  0  0  0  0  0  0  0  0  0  0
  -24.5400  -15.8990   20.4420 H   0  0  0  0  0  0  0  0  0  0  0  0
  -26.1490  -15.7100   19.9550 H   0  0  0  0  0  0  0  0  0  0  0  0
  -28.0900  -24.0210   20.5800 C   0  0  0  0  0  2  0  0  0  0  0  0
  -28.2160  -25.6900   20.2310 O   0  0  0  0  0  0  0  0  0  0  0  0
  -24.6630  -31.8420   23.1730 C   0  0  0  0  0  0  0  0  0  0  0  0
  -27.2070  -26.8310   20.2400 C   0  0  0  0  0  0  0  0  0  0  0  0
  -23.4780  -30.4300   21.5450 C   0  0  0  0  0  3  0  0  0  0  0  0
  -24.9270  -28.7870   20.1540 C   0  0  0  0  0  0  0  0  0  0  0  0
  -26.0520  -30.6030   21.4200 C   0  0  0  0  0  2  0  0  0  0  0  0
  -26.1190  -29.1750   20.7790 C   0  0  0  0  0  0  0  0  0  0  0  0
  -27.2520  -28.2230   20.7880 C   0  0  0  0  0  3  0  0  0  0  0  0
  -25.9820  -26.6200   19.5660 C   0  0  0  0  0  3  0  0  0  0  0  0
  -24.8910  -27.5340   19.5230 C   0  0  0  0  0  3  0  0  0  0  0  0
  -23.7160  -29.7250   20.1800 C   0  0  0  0  0  2  0  0  0  0  0  0
  -24.7540  -30.9910   22.0980 N   0  0  0  0  0  0  0  0  0  0  0  0
  -23.5690  -32.1420   23.6800 O   0  0  0  0  0  0  0  0  0  0  0  0
  -22.7700  -29.4530   22.5220 C   0  0  0  0  0  0  0  0  0  0  0  0
  -21.4360  -29.3060   22.4070 N   0  0  0  0  0  0  0  0  0  0  0  0
  -23.4300  -28.8260   23.3540 O   0  0  0  0  0  0  0  0  0  0  0  0
  -20.9550  -29.8620   21.7140 H   0  0  0  0  0  0  0  0  0  0  0  0
  -18.0440  -28.1230   22.9450 C   0  0  0  0  0  0  0  0  0  0  0  0
  -20.6080  -28.3770   23.1870 C   0  0  0  0  0  3  0  0  0  0  0  0
  -20.6960  -26.9410   22.6180 C   0  0  0  0  0  2  0  0  0  0  0  0
  -19.5840  -26.6220   21.6130 C   0  0  0  0  0  2  0  0  0  0  0  0
  -18.2090  -26.7740   22.2680 C   0  0  0  0  0  2  0  0  0  0  0  0
  -19.1700  -28.8830   23.3630 C   0  0  0  0  0  0  0  0  0  0  0  0
  -18.9610  -30.1430   23.9620 C   0  0  0  0  0  3  0  0  0  0  0  0
  -17.6580  -30.6460   24.1470 C   0  0  0  0  0  3  0  0  0  0  0  0
  -16.5480  -29.8860   23.7430 C   0  0  0  0  0  3  0  0  0  0  0  0
  -16.7410  -28.6260   23.1480 C   0  0  0  0  0  3  0  0  0  0  0  0
  -25.9280  -32.4950   23.8080 C   0  0  0  0  0  3  0  0  0  0  0  0
  -26.4330  -31.7380   25.0990 C   0  0  1  0  0  0  0  0  0  0  0  0
  -25.3330  -31.5150   26.1620 C   0  0  0  0  0  1  0  0  0  0  0  0
  -27.0220  -30.3550   24.7420 C   0  0  0  0  0  1  0  0  0  0  0  0
  -27.5780  -32.5430   25.7610 C   0  0  0  0  0  1  0  0  0  0  0  0
  -25.5990  -33.8940   24.1450 N   0  0  0  0  0  0  0  0  0  0  0  0
  -25.9280  -34.9610   23.4040 C   0  0  0  0  0  0  0  0  0  0  0  0
  -26.6000  -34.8740   22.3730 O   0  0  0  0  0  0  0  0  0  0  0  0
  -25.0030  -34.0380   24.9460 H   0  0  0  0  0  0  0  0  0  0  0  0
  -24.1950  -36.7630   23.0840 C   0  0  0  0  0  1  0  0  0  0  0  0
  -25.4410  -36.3460   23.8820 C   0  0  0  0  0  3  0  0  0  0  0  0
  -27.5760  -37.2360   24.7120 C   0  0  0  0  0  1  0  0  0  0  0  0
  -26.4690  -37.4060   23.7760 N   0  0  0  0  0  0  0  0  0  0  0  0
  -26.0570  -38.3220   23.9310 H   0  0  0  0  0  0  0  0  0  0  0  0
  1  2  1  0
  1 43  1  0
  2  3  1  0
  6  4  1  6
  5  6  1  0
  6  7  1  0
  6  3  1  0
  8 13  1  0
  9 10  1  0
  9  8  1  0
 11 10  1  0
 11 18  1  0
 11 12  1  0
 13  7  1  0
 13 12  1  0
 14  7  2  0
 15 16  2  0
 16 35  1  0
 17 16  1  0
 17 20  1  0
 18 15  1  0
 18 19  1  0
 19 17  2  0
 20 21  1  0
 21 22  2  0
 23 26  1  0
 23 22  1  0
 24 23  2  0
 25 24  1  0
 25 20  2  0
 26 27  1  0
 27 28  1  0
 28 29  2  0
 30 29  1  0
 30 34  1  0
 31 30  2  0
 32 27  2  0
 32 31  1  0
 33 32  1  0
 35 36  1  0
 36 39  1  0
 36 38  1  0
 37 35  2  0
 40 41  1  0
 40 15  1  0
 42 40  1  0
 44 46  1  0
 44 43  1  0
 45 56  2  0
 46 51  1  0
 47 55  1  0
 47 57  1  0
 48 54  1  0
 48 50  1  0
 49 55  1  0
 50 51  2  0
 50 49  1  0
 52 46  2  0
 53 52  1  0
 53 48  2  0
 54 47  1  0
 55 45  1  0
 57 59  2  0
 58 57  1  0
 60 58  1  0
 61 70  2  0
 61 66  1  0
 62 58  1  0
 62 66  1  0
 63 62  1  0
 64 65  1  0
 64 63  1  0
 65 61  1  0
 66 67  2  0
 67 68  1  0
 69 68  2  0
 70 69  1  0
 71 45  1  0
 71 76  1  0
 71 72  1  0
 72 75  1  1
 72 73  1  0
 74 72  1  0
 76 79  1  0
 77 81  1  0
 77 76  1  0
 78 77  2  0
 81 80  1  0
 83 81  1  0
 83 84  1  0
 83 82  1  0
M  ISO  4   6 100   7 100  43 101  44 101
M  END
>  <TORSDO>  (34) 
F 20

>  <SCORE>  (34) 
-16.505

>  <name>  (34) 
35

>  <ligand_id>  (34) 
35

>  <original_smiles>  (34) 
[H]c1c([H])c([H])c2c(c1[H])C([H])([H])C([H])([H])C([H])([H])C2([H])N([H])C(=O)C1([H])N(C(=O)C([H])(N([H])C(=O)C([H])(N([H])C([H])([H])[H])C([H])([H])[H])C(C([H])([H])[H])(C([H])([H])[H])C([H])([H])[H])C([H])([H])c2c([H])c(OC([H])([H])C([H])([H])C([H])([H])C([H])([H])C(C(=O)N3C([H])([H])C([H])([H])C([H])([H])C([H])(n4nc(-c5c([H])c([H])c(Oc6c([H])c([H])c(F)c([H])c6F)c([H])c5[H])c(C(=O)N([H])[H])c4N([H])[H])C3([H])[H])(C([H])([H])[H])C([H])([H])[H])c([H])c([H])c2C1([H])[H]

>  <smiles>  (34) 
[H]c1c([H])c([H])c2c(c1[H])C([H])([H])C([H])([H])C([H])([H])C2([H])N([H])C(=O)C1([H])N(C(=O)C([H])(N([H])C(=O)C([H])(N([H])C([H])([H])[H])C([H])([H])[H])C(C([H])([H])[H])(C([H])([H])[H])C([H])([H])[H])C([H])([H])c2c([H])c(OC([H])([H])C([H])([H])C([H])([H])C([H])([H])C(C(=O)N3C([H])([H])C([H])([H])C([H])([H])C([H])(n4nc(-c5c([H])c([H])c(Oc6c([H])c([H])c(F)c([H])c6F)c([H])c5[H])c(C(=O)N([H])[H])c4N([H])[H])C3([H])[H])(C([H])([H])[H])C([H])([H])[H])c([H])c([H])c2C1([H])[H]

$$$$
36:0:0
     RDKit          3D

 84 92  0  0  1  0  0  0  0  0999 V2000
  -28.2710  -20.4840   20.1890 C   0  0  0  0  0  3  0  0  0  0  0  0
  -28.6710  -21.9440   20.2750 C   0  0  0  0  0  0  0  0  0  0  0  0
  -30.0390  -21.5280   20.4820 N   0  0  0  0  0  0  0  0  0  0  0  0
  -30.3370  -20.1660   20.5300 N   0  0  0  0  0  0  0  0  0  0  0  0
  -29.2700  -19.2860   20.3140 N   0  0  0  0  0  0  0  0  0  0  0  0
  -27.8570  -23.6880   20.1560 C   0  0  0  0  0  2  0  0  0  0  0  0
  -28.1260  -25.4510   20.3230 O   0  0  0  0  0  0  0  0  0  0  0  0
  -24.6400  -31.8530   23.2040 C   0  0  0  0  0  0  0  0  0  0  0  0
  -27.1770  -26.7060   20.2560 C   0  0  0  0  0  0  0  0  0  0  0  0
  -23.4650  -30.4530   21.5610 C   0  0  0  0  0  3  0  0  0  0  0  0
  -24.9210  -28.7870   20.1690 C   0  0  0  0  0  0  0  0  0  0  0  0
  -26.0480  -30.5700   21.4700 C   0  0  0  0  0  2  0  0  0  0  0  0
  -26.1140  -29.1290   20.8180 C   0  0  0  0  0  0  0  0  0  0  0  0
  -27.2230  -28.1190   20.8260 C   0  0  0  0  0  3  0  0  0  0  0  0
  -25.9500  -26.5930   19.5490 C   0  0  0  0  0  3  0  0  0  0  0  0
  -24.8820  -27.5450   19.5100 C   0  0  0  0  0  3  0  0  0  0  0  0
  -23.7180  -29.7480   20.1970 C   0  0  0  0  0  2  0  0  0  0  0  0
  -24.7410  -30.9930   22.1310 N   0  0  0  0  0  0  0  0  0  0  0  0
  -23.5410  -32.1600   23.7000 O   0  0  0  0  0  0  0  0  0  0  0  0
  -22.7300  -29.4860   22.5290 C   0  0  0  0  0  0  0  0  0  0  0  0
  -21.3950  -29.3500   22.4020 N   0  0  0  0  0  0  0  0  0  0  0  0
  -23.3740  -28.8550   23.3700 O   0  0  0  0  0  0  0  0  0  0  0  0
  -20.9240  -29.9090   21.7030 H   0  0  0  0  0  0  0  0  0  0  0  0
  -17.9900  -28.1830   22.9180 C   0  0  0  0  0  0  0  0  0  0  0  0
  -20.5550  -28.4220   23.1710 C   0  0  0  0  0  3  0  0  0  0  0  0
  -20.6360  -26.9900   22.5900 C   0  0  0  0  0  2  0  0  0  0  0  0
  -19.5270  -26.6870   21.5770 C   0  0  0  0  0  2  0  0  0  0  0  0
  -18.1500  -26.8400   22.2270 C   0  0  0  0  0  2  0  0  0  0  0  0
  -19.1190  -28.9330   23.3470 C   0  0  0  0  0  0  0  0  0  0  0  0
  -18.9120  -30.1880   23.9600 C   0  0  0  0  0  3  0  0  0  0  0  0
  -17.6110  -30.6940   24.1450 C   0  0  0  0  0  3  0  0  0  0  0  0
  -16.4980  -29.9440   23.7280 C   0  0  0  0  0  3  0  0  0  0  0  0
  -16.6880  -28.6890   23.1210 C   0  0  0  0  0  3  0  0  0  0  0  0
  -25.8950  -32.5050   23.8580 C   0  0  0  0  0  3  0  0  0  0  0  0
  -25.5720  -33.9080   24.1840 N   0  0  0  0  0  0  0  0  0  0  0  0
  -25.9060  -34.9720   23.4400 C   0  0  0  0  0  0  0  0  0  0  0  0
  -26.5720  -34.8750   22.4070 O   0  0  0  0  0  0  0  0  0  0  0  0
  -24.9770  -34.0560   24.9850 H   0  0  0  0  0  0  0  0  0  0  0  0
  -24.1750  -36.7790   23.1250 C   0  0  0  0  0  1  0  0  0  0  0  0
  -25.4290  -36.3630   23.9130 C   0  0  0  0  0  3  0  0  0  0  0  0
  -27.5740  -37.2530   24.7150 C   0  0  0  0  0  1  0  0  0  0  0  0
  -26.4600  -37.4180   23.7850 N   0  0  0  0  0  0  0  0  0  0  0  0
  -26.0550  -38.3370   23.9340 H   0  0  0  0  0  0  0  0  0  0  0  0
  -26.3720  -31.7520   25.1630 C   0  0  1  0  0  0  0  0  0  0  0  0
  -25.2510  -31.5430   26.2080 C   0  0  0  0  0  1  0  0  0  0  0  0
  -26.9530  -30.3620   24.8230 C   0  0  0  0  0  1  0  0  0  0  0  0
  -27.5130  -32.5490   25.8400 C   0  0  0  0  0  1  0  0  0  0  0  0
  -29.2460  -17.4530   20.4560 C   0  0  0  0  0  2  0  0  0  0  0  0
  -30.1730  -15.7950   20.2350 C   0  0  0  0  0  0  0  0  0  0  0  0
  -30.3550  -13.2220   19.4160 C   0  0  0  0  0  2  0  0  0  0  0  0
  -29.4670  -12.8120   18.2000 C   0  0  0  0  0  2  0  0  0  0  0  0
  -28.0450  -12.4350   18.6450 C   0  0  0  0  0  2  0  0  0  0  0  0
  -27.5240  -13.4210   19.7130 C   0  0  0  0  0  3  0  0  0  0  0  0
  -28.5500  -13.7340   20.8280 C   0  0  0  0  0  2  0  0  0  0  0  0
  -29.7250  -14.3870   20.1990 N   0  0  0  0  0  0  0  0  0  0  0  0
  -31.4000  -15.7570   20.0020 O   0  0  0  0  0  0  0  0  0  0  0  0
  -25.1590  -13.9230   20.4850 C   0  0  0  0  0  0  0  0  0  0  0  0
  -24.1070  -13.1320   20.8520 C   0  0  0  0  0  0  0  0  0  0  0  0
  -24.5910  -11.7870   20.8170 C   0  0  0  0  0  0  0  0  0  0  0  0
  -26.2120  -13.0630   20.2340 N   0  0  0  0  0  0  0  0  0  0  0  0
  -25.8850  -11.7710   20.5020 N   0  0  0  0  0  0  0  0  0  0  0  0
  -23.8740  -10.5180   21.0040 C   0  0  0  0  0  0  0  0  0  0  0  0
  -24.2970   -9.5600   21.9520 C   0  0  0  0  0  3  0  0  0  0  0  0
  -23.5760   -8.3590   22.1290 C   0  0  0  0  0  3  0  0  0  0  0  0
  -22.4150   -8.1070   21.3600 C   0  0  0  0  0  0  0  0  0  0  0  0
  -22.0100   -9.0540   20.4020 C   0  0  0  0  0  3  0  0  0  0  0  0
  -22.7330  -10.2460   20.2220 C   0  0  0  0  0  3  0  0  0  0  0  0
  -21.6660   -6.9580   21.4450 O   0  0  0  0  0  0  0  0  0  0  0  0
  -21.5870   -6.2350   22.6080 C   0  0  0  0  0  0  0  0  0  0  0  0
  -21.0950   -6.8000   23.8050 C   0  0  0  0  0  3  0  0  0  0  0  0
  -20.9650   -6.0020   24.9590 C   0  0  0  0  0  3  0  0  0  0  0  0
  -21.3170   -4.6410   24.9170 C   0  0  0  0  0  0  0  0  0  0  0  0
  -21.8020   -4.0740   23.7250 C   0  0  0  0  0  3  0  0  0  0  0  0
  -21.9330   -4.8690   22.5730 C   0  0  0  0  0  0  0  0  0  0  0  0
  -22.3810   -4.3140   21.4220 F   0  0  0  0  0  0  0  0  0  0  0  0
  -21.1860   -3.8720   26.0240 F   0  0  0  0  0  0  0  0  0  0  0  0
  -22.7050  -13.5950   21.1170 C   0  0  0  0  0  0  0  0  0  0  0  0
  -21.9850  -12.8990   21.9880 N   0  0  0  0  0  0  0  0  0  0  0  0
  -22.2590  -14.6120   20.5870 O   0  0  0  0  0  0  0  0  0  0  0  0
  -22.3590  -12.0780   22.4380 H   0  0  0  0  0  0  0  0  0  0  0  0
  -21.0430  -13.1930   22.2090 H   0  0  0  0  0  0  0  0  0  0  0  0
  -25.3050  -15.2960   20.3120 N   0  0  0  0  0  0  0  0  0  0  0  0
  -24.5290  -15.9390   20.4280 H   0  0  0  0  0  0  0  0  0  0  0  0
  -26.1470  -15.7470   19.9770 H   0  0  0  0  0  0  0  0  0  0  0  0
  1  2  2  0
  1  5  1  0
  2  3  1  0
  3  4  2  0
  5 48  1  0
  5  4  1  0
  6  2  1  0
  6  7  1  0
  8 19  2  0
  9  7  1  0
  9 14  1  0
 10 18  1  0
 10 20  1  0
 11 17  1  0
 11 13  1  0
 12 18  1  0
 13 14  2  0
 13 12  1  0
 15  9  2  0
 16 15  1  0
 16 11  2  0
 17 10  1  0
 18  8  1  0
 20 22  2  0
 21 20  1  0
 23 21  1  0
 24 33  2  0
 24 29  1  0
 25 21  1  0
 25 29  1  0
 26 25  1  0
 27 28  1  0
 27 26  1  0
 28 24  1  0
 29 30  2  0
 30 31  1  0
 32 31  2  0
 33 32  1  0
 34  8  1  0
 34 35  1  0
 34 44  1  0
 35 38  1  0
 36 40  1  0
 36 35  1  0
 37 36  2  0
 40 39  1  0
 42 40  1  0
 42 43  1  0
 42 41  1  0
 44 47  1  1
 44 45  1  0
 46 44  1  0
 49 48  1  0
 50 55  1  0
 51 52  1  0
 51 50  1  0
 53 52  1  0
 53 60  1  0
 53 54  1  0
 55 49  1  0
 55 54  1  0
 56 49  2  0
 57 58  2  0
 58 77  1  0
 59 58  1  0
 59 62  1  0
 60 57  1  0
 60 61  1  0
 61 59  2  0
 62 63  1  0
 63 64  2  0
 65 68  1  0
 65 64  1  0
 66 65  2  0
 67 66  1  0
 67 62  2  0
 68 69  1  0
 69 70  1  0
 70 71  2  0
 72 71  1  0
 72 76  1  0
 73 72  2  0
 74 69  2  0
 74 73  1  0
 75 74  1  0
 77 78  1  0
 78 81  1  0
 78 80  1  0
 79 77  2  0
 82 83  1  0
 82 57  1  0
 84 82  1  0
M  ISO  4   6 101   7 101  48 100  49 100
M  END
>  <TORSDO>  (35) 
F 18

>  <SCORE>  (35) 
-16.473

>  <name>  (35) 
36

>  <ligand_id>  (35) 
36

>  <original_smiles>  (35) 
[H]c1c([H])c([H])c2c(c1[H])C([H])([H])C([H])([H])C([H])([H])C2([H])N([H])C(=O)C1([H])N(C(=O)C([H])(N([H])C(=O)C([H])(N([H])C([H])([H])[H])C([H])([H])[H])C(C([H])([H])[H])(C([H])([H])[H])C([H])([H])[H])C([H])([H])c2c([H])c(OC([H])([H])c3nnn(C([H])([H])C(=O)N4C([H])([H])C([H])([H])C([H])([H])C([H])(n5nc(-c6c([H])c([H])c(Oc7c([H])c([H])c(F)c([H])c7F)c([H])c6[H])c(C(=O)N([H])[H])c5N([H])[H])C4([H])[H])c3[H])c([H])c([H])c2C1([H])[H]

>  <smiles>  (35) 
[H]c1c([H])c([H])c2c(c1[H])C([H])([H])C([H])([H])C([H])([H])C2([H])N([H])C(=O)C1([H])N(C(=O)C([H])(N([H])C(=O)C([H])(N([H])C([H])([H])[H])C([H])([H])[H])C(C([H])([H])[H])(C([H])([H])[H])C([H])([H])[H])C([H])([H])c2c([H])c(OC([H])([H])c3nnn(C([H])([H])C(=O)N4C([H])([H])C([H])([H])C([H])([H])C([H])(n5nc(-c6c([H])c([H])c(Oc7c([H])c([H])c(F)c([H])c7F)c([H])c6[H])c(C(=O)N([H])[H])c5N([H])[H])C4([H])[H])c3[H])c([H])c([H])c2C1([H])[H]

$$$$
37:0:0
     RDKit          3D

 93101  0  0  1  0  0  0  0  0999 V2000
  -30.6930  -22.9560   19.6200 C   0  0  0  0  0  1  0  0  0  0  0  0
  -29.5920  -22.6100   21.8140 C   0  0  0  0  0  1  0  0  0  0  0  0
  -29.3720  -22.4950   20.2820 C   0  0  2  0  0  0  0  0  0  0  0  0
  -30.2350  -19.9790   20.2850 C   0  0  0  0  0  3  0  0  0  0  0  0
  -29.8520  -18.6870   19.9090 C   0  0  0  0  0  0  0  0  0  0  0  0
  -28.2380  -20.2150   19.4120 C   0  0  0  0  0  3  0  0  0  0  0  0
  -26.8950  -20.6120   18.8830 C   0  0  0  0  0  1  0  0  0  0  0  0
  -29.2480  -20.9410   19.9750 N   0  0  0  0  0  0  0  0  0  0  0  0
  -28.6170  -18.9140   19.3600 N   0  0  0  0  0  0  0  0  0  0  0  0
  -28.0480  -18.1920   18.9260 H   0  0  0  0  0  0  0  0  0  0  0  0
  -30.6280  -17.3070   19.9490 C   0  0  0  0  0  2  0  0  0  0  0  0
  -30.7030  -14.7490   20.0160 C   0  0  0  0  0  0  0  0  0  0  0  0
  -30.4110  -12.5110   18.9140 C   0  0  0  0  0  2  0  0  0  0  0  0
  -29.4040  -12.5930   17.7440 C   0  0  0  0  0  2  0  0  0  0  0  0
  -27.9510  -12.4410   18.2380 C   0  0  0  0  0  2  0  0  0  0  0  0
  -27.6600  -13.2880   19.5060 C   0  0  0  0  0  3  0  0  0  0  0  0
  -28.7750  -13.1140   20.5560 C   0  0  0  0  0  2  0  0  0  0  0  0
  -30.0300  -13.5400   19.9170 N   0  0  0  0  0  0  0  0  0  0  0  0
  -31.8470  -14.8100   19.5510 O   0  0  0  0  0  0  0  0  0  0  0  0
  -29.2510  -16.0550   21.5800 C   0  0  0  0  0  1  0  0  0  0  0  0
  -30.0430  -15.9470   20.3450 N   0  0  0  0  0  0  0  0  0  0  0  0
  -25.3180  -13.8940   20.3540 C   0  0  0  0  0  0  0  0  0  0  0  0
  -24.2660  -13.1280   20.7730 C   0  0  0  0  0  0  0  0  0  0  0  0
  -24.7130  -11.7730   20.7010 C   0  0  0  0  0  0  0  0  0  0  0  0
  -26.3410  -13.0060   20.0550 N   0  0  0  0  0  0  0  0  0  0  0  0
  -25.9850  -11.7250   20.3250 N   0  0  0  0  0  0  0  0  0  0  0  0
  -23.9850  -10.5160   20.9120 C   0  0  0  0  0  0  0  0  0  0  0  0
  -24.4150   -9.5630   21.8610 C   0  0  0  0  0  3  0  0  0  0  0  0
  -23.6870   -8.3690   22.0590 C   0  0  0  0  0  3  0  0  0  0  0  0
  -22.5130   -8.1220   21.3090 C   0  0  0  0  0  0  0  0  0  0  0  0
  -22.1030   -9.0620   20.3470 C   0  0  0  0  0  3  0  0  0  0  0  0
  -22.8310  -10.2470   20.1480 C   0  0  0  0  0  3  0  0  0  0  0  0
  -21.7550   -6.9800   21.4150 O   0  0  0  0  0  0  0  0  0  0  0  0
  -21.6500   -6.2940   22.5970 C   0  0  0  0  0  0  0  0  0  0  0  0
  -21.1560   -6.9030   23.7710 C   0  0  0  0  0  3  0  0  0  0  0  0
  -21.0010   -6.1420   24.9460 C   0  0  0  0  0  3  0  0  0  0  0  0
  -21.3290   -4.7740   24.9490 C   0  0  0  0  0  0  0  0  0  0  0  0
  -21.8130   -4.1630   23.7790 C   0  0  0  0  0  3  0  0  0  0  0  0
  -21.9730   -4.9220   22.6050 C   0  0  0  0  0  0  0  0  0  0  0  0
  -22.4210   -4.3240   21.4760 F   0  0  0  0  0  0  0  0  0  0  0  0
  -21.1720   -4.0400   26.0760 F   0  0  0  0  0  0  0  0  0  0  0  0
  -22.8910  -13.6150   21.1210 C   0  0  0  0  0  0  0  0  0  0  0  0
  -22.2030  -12.9180   22.0180 N   0  0  0  0  0  0  0  0  0  0  0  0
  -22.4370  -14.6500   20.6330 O   0  0  0  0  0  0  0  0  0  0  0  0
  -22.5890  -12.0810   22.4330 H   0  0  0  0  0  0  0  0  0  0  0  0
  -21.2780  -13.2190   22.2920 H   0  0  0  0  0  0  0  0  0  0  0  0
  -25.4890  -15.2640   20.1770 N   0  0  0  0  0  0  0  0  0  0  0  0
  -24.7320  -15.9240   20.3010 H   0  0  0  0  0  0  0  0  0  0  0  0
  -26.3150  -15.6770   19.7690 H   0  0  0  0  0  0  0  0  0  0  0  0
  -27.0570  -23.6700   20.8800 C   0  0  0  0  0  1  0  0  0  0  0  0
  -28.2100  -23.5970   19.8610 C   0  0  0  0  0  3  0  0  0  0  0  0
  -28.5060  -25.1230   19.3440 C   0  0  0  0  0  2  0  0  0  0  0  0
  -28.3470  -26.3910   20.1260 O   0  0  0  0  0  0  0  0  0  0  0  0
  -24.4930  -31.7360   23.1320 C   0  0  0  0  0  0  0  0  0  0  0  0
  -27.2130  -27.2310   20.0400 C   0  0  0  0  0  0  0  0  0  0  0  0
  -23.3430  -30.3450   21.4490 C   0  0  0  0  0  3  0  0  0  0  0  0
  -24.8330  -28.8470   20.0160 C   0  0  0  0  0  0  0  0  0  0  0  0
  -25.8860  -30.6910   21.3300 C   0  0  0  0  0  2  0  0  0  0  0  0
  -25.9870  -29.3270   20.6440 C   0  0  0  0  0  0  0  0  0  0  0  0
  -27.1760  -28.5300   20.6500 C   0  0  0  0  0  3  0  0  0  0  0  0
  -26.0220  -26.8000   19.4100 C   0  0  0  0  0  3  0  0  0  0  0  0
  -24.8530  -27.5880   19.3930 C   0  0  0  0  0  3  0  0  0  0  0  0
  -23.5880  -29.7090   20.0580 C   0  0  0  0  0  2  0  0  0  0  0  0
  -24.5900  -30.9410   22.0270 N   0  0  0  0  0  0  0  0  0  0  0  0
  -23.3940  -31.9960   23.6390 O   0  0  0  0  0  0  0  0  0  0  0  0
  -22.6720  -29.3000   22.3750 C   0  0  0  0  0  0  0  0  0  0  0  0
  -21.3480  -29.1240   22.2270 N   0  0  0  0  0  0  0  0  0  0  0  0
  -23.3400  -28.6530   23.1860 O   0  0  0  0  0  0  0  0  0  0  0  0
  -20.8640  -29.6950   21.5480 H   0  0  0  0  0  0  0  0  0  0  0  0
  -17.9710  -27.9140   22.6860 C   0  0  0  0  0  0  0  0  0  0  0  0
  -20.5300  -28.1650   22.9640 C   0  0  0  0  0  3  0  0  0  0  0  0
  -20.6300  -26.7490   22.3470 C   0  0  0  0  0  2  0  0  0  0  0  0
  -19.5320  -26.4610   21.3210 C   0  0  0  0  0  2  0  0  0  0  0  0
  -18.1460  -26.5880   21.9630 C   0  0  0  0  0  2  0  0  0  0  0  0
  -19.0920  -28.6620   23.1370 C   0  0  0  0  0  0  0  0  0  0  0  0
  -18.8730  -29.9060   23.7690 C   0  0  0  0  0  3  0  0  0  0  0  0
  -17.5690  -30.4030   23.9510 C   0  0  0  0  0  3  0  0  0  0  0  0
  -16.4630  -29.6550   23.5150 C   0  0  0  0  0  3  0  0  0  0  0  0
  -16.6650  -28.4110   22.8860 C   0  0  0  0  0  3  0  0  0  0  0  0
  -25.7560  -32.3760   23.7930 C   0  0  0  0  0  3  0  0  0  0  0  0
  -26.2520  -31.5960   25.0710 C   0  0  1  0  0  0  0  0  0  0  0  0
  -25.1350  -31.3290   26.1080 C   0  0  0  0  0  1  0  0  0  0  0  0
  -26.8710  -30.2330   24.6860 C   0  0  0  0  0  1  0  0  0  0  0  0
  -27.3760  -32.4000   25.7660 C   0  0  0  0  0  1  0  0  0  0  0  0
  -25.4180  -33.7650   24.1380 N   0  0  0  0  0  0  0  0  0  0  0  0
  -25.7360  -34.8320   23.3940 C   0  0  0  0  0  0  0  0  0  0  0  0
  -26.4120  -34.7490   22.3640 O   0  0  0  0  0  0  0  0  0  0  0  0
  -24.8210  -33.9120   24.9380 H   0  0  0  0  0  0  0  0  0  0  0  0
  -23.9740  -36.5940   23.0600 C   0  0  0  0  0  1  0  0  0  0  0  0
  -25.2220  -36.2060   23.8680 C   0  0  0  0  0  3  0  0  0  0  0  0
  -27.3380  -37.1190   24.7110 C   0  0  0  0  0  1  0  0  0  0  0  0
  -26.2360  -37.2780   23.7660 N   0  0  0  0  0  0  0  0  0  0  0  0
  -25.8150  -38.1880   23.9280 H   0  0  0  0  0  0  0  0  0  0  0  0
  3  1  1  6
  3  2  1  0
  5 11  1  0
  5  4  2  0
  6  7  1  0
  6  8  1  0
  8  3  1  0
  8  4  1  0
  9  6  1  0
  9  5  1  0
 10  9  1  0
 11 21  1  0
 12 21  1  0
 13 18  1  0
 14 15  1  0
 14 13  1  0
 16 15  1  0
 16 25  1  0
 16 17  1  0
 18 12  1  0
 18 17  1  0
 19 12  2  0
 21 20  1  0
 22 23  2  0
 23 42  1  0
 24 23  1  0
 24 27  1  0
 25 26  1  0
 25 22  1  0
 26 24  2  0
 27 28  1  0
 28 29  2  0
 30 33  1  0
 30 29  1  0
 31 30  2  0
 32 31  1  0
 32 27  2  0
 33 34  1  0
 34 39  2  0
 34 35  1  0
 35 36  2  0
 36 37  1  0
 37 41  1  0
 38 37  2  0
 39 38  1  0
 40 39  1  0
 42 43  1  0
 43 46  1  0
 43 45  1  0
 44 42  2  0
 47 48  1  0
 47 22  1  0
 49 47  1  0
 51  3  1  0
 51 50  1  0
 52 51  1  0
 52 53  1  0
 54 65  2  0
 55 53  1  0
 55 60  1  0
 56 64  1  0
 56 66  1  0
 57 63  1  0
 57 59  1  0
 58 64  1  0
 59 60  2  0
 59 58  1  0
 61 55  2  0
 62 61  1  0
 62 57  2  0
 63 56  1  0
 64 54  1  0
 66 68  2  0
 67 66  1  0
 69 67  1  0
 70 79  2  0
 70 75  1  0
 71 67  1  0
 71 75  1  0
 72 71  1  0
 73 74  1  0
 73 72  1  0
 74 70  1  0
 75 76  2  0
 76 77  1  0
 78 77  2  0
 79 78  1  0
 80 54  1  0
 80 85  1  0
 80 81  1  0
 81 84  1  1
 81 82  1  0
 83 81  1  0
 85 88  1  0
 86 90  1  0
 86 85  1  0
 87 86  2  0
 90 89  1  0
 92 90  1  0
 92 93  1  0
 92 91  1  0
M  ISO  4  12 100  21 100  52 101  53 101
M  END
>  <TORSDO>  (36) 
F 20

>  <SCORE>  (36) 
-13.397

>  <name>  (36) 
37

>  <ligand_id>  (36) 
37

>  <original_smiles>  (36) 
[H]c1c([H])c([H])c2c(c1[H])C([H])([H])C([H])([H])C([H])([H])C2([H])N([H])C(=O)C1([H])N(C(=O)C([H])(N([H])C(=O)C([H])(N([H])C([H])([H])[H])C([H])([H])[H])C(C([H])([H])[H])(C([H])([H])[H])C([H])([H])[H])C([H])([H])c2c([H])c(OC([H])([H])C([H])(C([H])([H])[H])C(n3c([H])c(C([H])([H])N(C(=O)N4C([H])([H])C([H])([H])C([H])([H])C([H])(n5nc(-c6c([H])c([H])c(Oc7c([H])c([H])c(F)c([H])c7F)c([H])c6[H])c(C(=O)N([H])[H])c5N([H])[H])C4([H])[H])C([H])([H])[H])[n+]([H])c3C([H])([H])[H])(C([H])([H])[H])C([H])([H])[H])c([H])c([H])c2C1([H])[H]

>  <smiles>  (36) 
[H]c1c([H])c([H])c2c(c1[H])C([H])([H])C([H])([H])C([H])([H])C2([H])N([H])C(=O)C1([H])N(C(=O)C([H])(N([H])C(=O)C([H])(N([H])C([H])([H])[H])C([H])([H])[H])C(C([H])([H])[H])(C([H])([H])[H])C([H])([H])[H])C([H])([H])c2c([H])c(OC([H])([H])C([H])(C([H])([H])[H])C(n3c([H])c(C([H])([H])N(C(=O)N4C([H])([H])C([H])([H])C([H])([H])C([H])(n5nc(-c6c([H])c([H])c(Oc7c([H])c([H])c(F)c([H])c7F)c([H])c6[H])c(C(=O)N([H])[H])c5N([H])[H])C4([H])[H])C([H])([H])[H])[n+]([H])c3C([H])([H])[H])(C([H])([H])[H])C([H])([H])[H])c([H])c([H])c2C1([H])[H]

$$$$
38:0:0
     RDKit          3D

 88 96  0  0  1  0  0  0  0  0999 V2000
  -29.3630  -20.2080   20.0120 C   0  0  0  0  0  0  0  0  0  0  0  0
  -28.8730  -18.9320   20.3910 C   0  0  0  0  0  0  0  0  0  0  0  0
  -27.4960  -18.6210   20.8850 C   0  0  0  0  0  1  0  0  0  0  0  0
  -30.6740  -19.8680   19.6100 N   0  0  0  0  0  0  0  0  0  0  0  0
  -30.9670  -18.5720   19.7840 N   0  0  0  0  0  0  0  0  0  0  0  0
  -29.8720  -17.8880   20.2310 N   0  0  0  0  0  0  0  0  0  0  0  0
  -30.2130  -16.3110   22.1520 C   0  0  0  0  0  1  0  0  0  0  0  0
  -29.8610  -16.3430   20.6530 C   0  0  0  0  0  3  0  0  0  0  0  0
  -30.6080  -15.0070   19.9750 C   0  0  0  0  0  0  0  0  0  0  0  0
  -30.4350  -12.6960   18.8960 C   0  0  0  0  0  2  0  0  0  0  0  0
  -29.4360  -12.7290   17.7130 C   0  0  0  0  0  2  0  0  0  0  0  0
  -27.9880  -12.5250   18.2030 C   0  0  0  0  0  2  0  0  0  0  0  0
  -27.6620  -13.3950   19.4430 C   0  0  0  0  0  3  0  0  0  0  0  0
  -28.7690  -13.3040   20.5140 C   0  0  0  0  0  2  0  0  0  0  0  0
  -30.0230  -13.7380   19.8820 N   0  0  0  0  0  0  0  0  0  0  0  0
  -31.7540  -15.1080   19.5180 O   0  0  0  0  0  0  0  0  0  0  0  0
  -25.3180  -13.9930   20.2800 C   0  0  0  0  0  0  0  0  0  0  0  0
  -24.2600  -13.2270   20.6840 C   0  0  0  0  0  0  0  0  0  0  0  0
  -24.7060  -11.8700   20.6190 C   0  0  0  0  0  0  0  0  0  0  0  0
  -26.3400  -13.1060   19.9880 N   0  0  0  0  0  0  0  0  0  0  0  0
  -25.9840  -11.8230   20.2570 N   0  0  0  0  0  0  0  0  0  0  0  0
  -23.9730  -10.6140   20.8240 C   0  0  0  0  0  0  0  0  0  0  0  0
  -24.3790   -9.6700   21.7930 C   0  0  0  0  0  3  0  0  0  0  0  0
  -23.6450   -8.4790   21.9850 C   0  0  0  0  0  3  0  0  0  0  0  0
  -22.4900   -8.2240   21.2070 C   0  0  0  0  0  0  0  0  0  0  0  0
  -22.1030   -9.1570   20.2280 C   0  0  0  0  0  3  0  0  0  0  0  0
  -22.8380  -10.3390   20.0350 C   0  0  0  0  0  3  0  0  0  0  0  0
  -21.7300   -7.0840   21.3050 O   0  0  0  0  0  0  0  0  0  0  0  0
  -21.5760   -6.4220   22.4970 C   0  0  0  0  0  0  0  0  0  0  0  0
  -21.0400   -7.0570   23.6380 C   0  0  0  0  0  3  0  0  0  0  0  0
  -20.8350   -6.3210   24.8230 C   0  0  0  0  0  3  0  0  0  0  0  0
  -21.1560   -4.9510   24.8660 C   0  0  0  0  0  0  0  0  0  0  0  0
  -21.6860   -4.3160   23.7290 C   0  0  0  0  0  3  0  0  0  0  0  0
  -21.8920   -5.0500   22.5460 C   0  0  0  0  0  0  0  0  0  0  0  0
  -22.3830   -4.4270   21.4470 F   0  0  0  0  0  0  0  0  0  0  0  0
  -20.9530   -4.2420   26.0000 F   0  0  0  0  0  0  0  0  0  0  0  0
  -22.8800  -13.7160   21.0140 C   0  0  0  0  0  0  0  0  0  0  0  0
  -22.1830  -13.0270   21.9110 N   0  0  0  0  0  0  0  0  0  0  0  0
  -22.4280  -14.7440   20.5110 O   0  0  0  0  0  0  0  0  0  0  0  0
  -22.5620  -12.1950   22.3400 H   0  0  0  0  0  0  0  0  0  0  0  0
  -21.2580  -13.3360   22.1750 H   0  0  0  0  0  0  0  0  0  0  0  0
  -25.4880  -15.3640   20.1110 N   0  0  0  0  0  0  0  0  0  0  0  0
  -24.7250  -16.0190   20.2500 H   0  0  0  0  0  0  0  0  0  0  0  0
  -26.3120  -15.7970   19.7160 H   0  0  0  0  0  0  0  0  0  0  0  0
  -28.6050  -21.6630   19.7390 C   0  0  0  0  0  2  0  0  0  0  0  0
  -28.9900  -23.2580   20.1650 C   0  0  0  0  0  3  0  0  0  0  0  0
  -28.0120  -24.6030   19.7990 C   0  0  0  0  0  3  0  0  0  0  0  0
  -28.2340  -26.1360   20.0440 O   0  0  0  0  0  0  0  0  0  0  0  0
  -24.4470  -31.7260   23.0460 C   0  0  0  0  0  0  0  0  0  0  0  0
  -27.1540  -27.0990   19.9770 C   0  0  0  0  0  0  0  0  0  0  0  0
  -23.2860  -30.3110   21.3980 C   0  0  0  0  0  3  0  0  0  0  0  0
  -24.7770  -28.7880   19.9580 C   0  0  0  0  0  0  0  0  0  0  0  0
  -25.8320  -30.6450   21.2340 C   0  0  0  0  0  2  0  0  0  0  0  0
  -25.9440  -29.2600   20.5700 C   0  0  0  0  0  0  0  0  0  0  0  0
  -27.1320  -28.4320   20.5630 C   0  0  0  0  0  3  0  0  0  0  0  0
  -25.9550  -26.7340   19.3250 C   0  0  0  0  0  3  0  0  0  0  0  0
  -24.7960  -27.5400   19.3200 C   0  0  0  0  0  3  0  0  0  0  0  0
  -23.5250  -29.6510   20.0130 C   0  0  0  0  0  2  0  0  0  0  0  0
  -24.5410  -30.9170   21.9470 N   0  0  0  0  0  0  0  0  0  0  0  0
  -23.3540  -31.9780   23.5760 O   0  0  0  0  0  0  0  0  0  0  0  0
  -22.6340  -29.2800   22.3520 C   0  0  0  0  0  0  0  0  0  0  0  0
  -21.3120  -29.0700   22.2210 N   0  0  0  0  0  0  0  0  0  0  0  0
  -23.3220  -28.6690   23.1740 O   0  0  0  0  0  0  0  0  0  0  0  0
  -20.8120  -29.6170   21.5340 H   0  0  0  0  0  0  0  0  0  0  0  0
  -17.9650  -27.7730   22.7150 C   0  0  0  0  0  0  0  0  0  0  0  0
  -20.5160  -28.1060   22.9850 C   0  0  0  0  0  3  0  0  0  0  0  0
  -20.6580  -26.6810   22.4030 C   0  0  0  0  0  2  0  0  0  0  0  0
  -19.5660  -26.3340   21.3850 C   0  0  0  0  0  2  0  0  0  0  0  0
  -18.1800  -26.4340   22.0290 C   0  0  0  0  0  2  0  0  0  0  0  0
  -19.0610  -28.5640   23.1500 C   0  0  0  0  0  0  0  0  0  0  0  0
  -18.8050  -29.8140   23.7540 C   0  0  0  0  0  3  0  0  0  0  0  0
  -17.4860  -30.2740   23.9260 C   0  0  0  0  0  3  0  0  0  0  0  0
  -16.4040  -29.4810   23.5060 C   0  0  0  0  0  3  0  0  0  0  0  0
  -16.6450  -28.2320   22.9050 C   0  0  0  0  0  3  0  0  0  0  0  0
  -25.7070  -32.3920   23.6780 C   0  0  0  0  0  3  0  0  0  0  0  0
  -26.2490  -31.6180   24.9430 C   0  0  1  0  0  0  0  0  0  0  0  0
  -25.1630  -31.3290   26.0070 C   0  0  0  0  0  1  0  0  0  0  0  0
  -26.8750  -30.2650   24.5350 C   0  0  0  0  0  1  0  0  0  0  0  0
  -27.3750  -32.4380   25.6160 C   0  0  0  0  0  1  0  0  0  0  0  0
  -25.3500  -33.7740   24.0390 N   0  0  0  0  0  0  0  0  0  0  0  0
  -25.6440  -34.8560   23.3060 C   0  0  0  0  0  0  0  0  0  0  0  0
  -26.3100  -34.7990   22.2680 O   0  0  0  0  0  0  0  0  0  0  0  0
  -24.7540  -33.8900   24.8460 H   0  0  0  0  0  0  0  0  0  0  0  0
  -23.8560  -36.6040   23.0090 C   0  0  0  0  0  1  0  0  0  0  0  0
  -25.1180  -36.2200   23.8000 C   0  0  0  0  0  3  0  0  0  0  0  0
  -27.2290  -37.1560   24.6360 C   0  0  0  0  0  1  0  0  0  0  0  0
  -26.1160  -37.3070   23.7020 N   0  0  0  0  0  0  0  0  0  0  0  0
  -25.6820  -38.2110   23.8690 H   0  0  0  0  0  0  0  0  0  0  0  0
  1  2  2  0
  2  3  1  0
  4  5  2  0
  4  1  1  0
  5  6  1  0
  6  2  1  0
  6  8  1  0
  8  7  1  0
  9  8  1  0
 10 15  1  0
 11 12  1  0
 11 10  1  0
 13 12  1  0
 13 20  1  0
 13 14  1  0
 15  9  1  0
 15 14  1  0
 16  9  2  0
 17 18  2  0
 18 37  1  0
 19 18  1  0
 19 22  1  0
 20 21  1  0
 20 17  1  0
 21 19  2  0
 22 23  1  0
 23 24  2  0
 25 28  1  0
 25 24  1  0
 26 25  2  0
 27 26  1  0
 27 22  2  0
 28 29  1  0
 29 34  2  0
 29 30  1  0
 30 31  2  0
 31 32  1  0
 32 36  1  0
 33 32  2  0
 34 33  1  0
 35 34  1  0
 37 38  1  0
 38 41  1  0
 38 40  1  0
 39 37  2  0
 42 43  1  0
 42 17  1  0
 44 42  1  0
 45  1  1  0
 45 46  1  0
 47 48  1  0
 47 46  2  0
 49 60  2  0
 50 48  1  0
 50 55  1  0
 51 59  1  0
 51 61  1  0
 52 58  1  0
 52 54  1  0
 53 59  1  0
 54 53  1  0
 55 54  2  0
 56 50  2  0
 57 56  1  0
 57 52  2  0
 58 51  1  0
 59 49  1  0
 61 63  2  0
 62 61  1  0
 64 62  1  0
 65 74  2  0
 65 70  1  0
 66 62  1  0
 66 70  1  0
 67 66  1  0
 68 69  1  0
 68 67  1  0
 69 65  1  0
 70 71  2  0
 71 72  1  0
 73 72  2  0
 74 73  1  0
 75 49  1  0
 75 80  1  0
 75 76  1  0
 76 79  1  1
 76 77  1  0
 78 76  1  0
 80 83  1  0
 81 85  1  0
 81 80  1  0
 82 81  2  0
 85 84  1  0
 87 85  1  0
 87 88  1  0
 87 86  1  0
M  ISO  4   8 100   9 100  47 101  48 101
M  END
>  <TORSDO>  (37) 
F 20

>  <SCORE>  (37) 
-13.542

>  <name>  (37) 
38

>  <ligand_id>  (37) 
38

>  <original_smiles>  (37) 
[H]c1c([H])c([H])c2c(c1[H])C([H])([H])C([H])([H])C([H])([H])C2([H])N([H])C(=O)C1([H])N(C(=O)C([H])(N([H])C(=O)C([H])(N([H])C([H])([H])[H])C([H])([H])[H])C(C([H])([H])[H])(C([H])([H])[H])C([H])([H])[H])C([H])([H])c2c([H])c(OC([H])([H])C([H])([H])C([H])([H])c3nnn(C([H])(C(=O)N4C([H])([H])C([H])([H])C([H])([H])C([H])(n5nc(-c6c([H])c([H])c(Oc7c([H])c([H])c(F)c([H])c7F)c([H])c6[H])c(C(=O)N([H])[H])c5N([H])[H])C4([H])[H])C([H])([H])[H])c3C([H])([H])[H])c([H])c([H])c2C1([H])[H]

>  <smiles>  (37) 
[H]c1c([H])c([H])c2c(c1[H])C([H])([H])C([H])([H])C([H])([H])C2([H])N([H])C(=O)C1([H])N(C(=O)C([H])(N([H])C(=O)C([H])(N([H])C([H])([H])[H])C([H])([H])[H])C(C([H])([H])[H])(C([H])([H])[H])C([H])([H])[H])C([H])([H])c2c([H])c(OC([H])([H])C([H])([H])C([H])([H])c3nnn(C([H])(C(=O)N4C([H])([H])C([H])([H])C([H])([H])C([H])(n5nc(-c6c([H])c([H])c(Oc7c([H])c([H])c(F)c([H])c7F)c([H])c6[H])c(C(=O)N([H])[H])c5N([H])[H])C4([H])[H])C([H])([H])[H])c3C([H])([H])[H])c([H])c([H])c2C1([H])[H]

$$$$
39:0:0
     RDKit          3D

 91 99  0  0  1  0  0  0  0  0999 V2000
  -30.6550  -21.2810   21.0620 C   0  0  0  0  0  2  0  0  0  0  0  0
  -29.8380  -19.4050   20.6320 C   0  0  0  0  0  0  0  0  0  0  0  0
  -31.0190  -19.9920   21.0080 N   0  0  0  0  0  0  0  0  0  0  0  0
  -28.8560  -20.2860   20.3860 N   0  0  0  0  0  2  0  0  0  0  0  0
  -29.3930  -21.5000   20.6840 N   0  0  0  0  0  0  0  0  0  0  0  0
  -29.9910  -17.7920   18.7320 C   0  0  0  0  0  1  0  0  0  0  0  0
  -28.1990  -17.5100   20.4840 C   0  0  0  0  0  1  0  0  0  0  0  0
  -29.6680  -17.9270   20.2330 C   0  0  2  0  0  0  0  0  0  0  0  0
  -30.5720  -16.9280   21.0480 C   0  0  0  0  0  2  0  0  0  0  0  0
  -30.8210  -14.5190   20.2160 C   0  0  0  0  0  0  0  0  0  0  0  0
  -30.4520  -12.3870   19.0110 C   0  0  0  0  0  2  0  0  0  0  0  0
  -29.4580  -12.6150   17.8520 C   0  0  0  0  0  2  0  0  0  0  0  0
  -28.0040  -12.4680   18.3410 C   0  0  0  0  0  2  0  0  0  0  0  0
  -27.7240  -13.2830   19.6310 C   0  0  0  0  0  3  0  0  0  0  0  0
  -28.8240  -13.0390   20.6900 C   0  0  0  0  0  2  0  0  0  0  0  0
  -30.1290  -13.3520   20.0770 N   0  0  0  0  0  0  0  0  0  0  0  0
  -31.9020  -14.7230   19.6590 O   0  0  0  0  0  0  0  0  0  0  0  0
  -30.1930  -15.4930   20.9050 N   0  0  0  0  0  0  0  0  0  0  0  0
  -29.3180  -15.2230   21.3260 H   0  0  0  0  0  0  0  0  0  0  0  0
  -25.3560  -13.8880   20.4440 C   0  0  0  0  0  0  0  0  0  0  0  0
  -24.3010  -13.1160   20.8480 C   0  0  0  0  0  0  0  0  0  0  0  0
  -24.7530  -11.7630   20.7790 C   0  0  0  0  0  0  0  0  0  0  0  0
  -26.3880  -13.0060   20.1590 N   0  0  0  0  0  0  0  0  0  0  0  0
  -26.0290  -11.7220   20.4170 N   0  0  0  0  0  0  0  0  0  0  0  0
  -24.0250  -10.5030   20.9790 C   0  0  0  0  0  0  0  0  0  0  0  0
  -24.4680   -9.5370   21.9100 C   0  0  0  0  0  3  0  0  0  0  0  0
  -23.7410   -8.3420   22.0990 C   0  0  0  0  0  3  0  0  0  0  0  0
  -22.5590   -8.1060   21.3580 C   0  0  0  0  0  0  0  0  0  0  0  0
  -22.1360   -9.0600   20.4160 C   0  0  0  0  0  3  0  0  0  0  0  0
  -22.8630  -10.2460   20.2250 C   0  0  0  0  0  3  0  0  0  0  0  0
  -21.8030   -6.9620   21.4560 O   0  0  0  0  0  0  0  0  0  0  0  0
  -21.7440   -6.2360   22.6180 C   0  0  0  0  0  0  0  0  0  0  0  0
  -21.2880   -6.8010   23.8280 C   0  0  0  0  0  3  0  0  0  0  0  0
  -21.1780   -5.9990   24.9820 C   0  0  0  0  0  3  0  0  0  0  0  0
  -21.5140   -4.6340   24.9270 C   0  0  0  0  0  0  0  0  0  0  0  0
  -21.9620   -4.0680   23.7210 C   0  0  0  0  0  3  0  0  0  0  0  0
  -22.0740   -4.8660   22.5690 C   0  0  0  0  0  0  0  0  0  0  0  0
  -22.4860   -4.3110   21.4030 F   0  0  0  0  0  0  0  0  0  0  0  0
  -21.4010   -3.8610   26.0330 F   0  0  0  0  0  0  0  0  0  0  0  0
  -22.9190  -13.5980   21.1870 C   0  0  0  0  0  0  0  0  0  0  0  0
  -22.2220  -12.8900   22.0700 N   0  0  0  0  0  0  0  0  0  0  0  0
  -22.4670  -14.6360   20.7050 O   0  0  0  0  0  0  0  0  0  0  0  0
  -22.6000  -12.0480   22.4810 H   0  0  0  0  0  0  0  0  0  0  0  0
  -21.2980  -13.1960   22.3400 H   0  0  0  0  0  0  0  0  0  0  0  0
  -25.5100  -15.2590   20.2730 N   0  0  0  0  0  0  0  0  0  0  0  0
  -24.7420  -15.9060   20.4170 H   0  0  0  0  0  0  0  0  0  0  0  0
  -26.3330  -15.7020   19.8840 H   0  0  0  0  0  0  0  0  0  0  0  0
  -28.5310  -22.6910   20.6060 C   0  0  0  0  0  2  0  0  0  0  0  0
  -29.1780  -24.1140   20.5580 C   0  0  0  0  0  2  0  0  0  0  0  0
  -28.1040  -25.1510   20.1140 C   0  0  0  0  0  2  0  0  0  0  0  0
  -28.3620  -26.5780   20.2100 O   0  0  0  0  0  0  0  0  0  0  0  0
  -24.5890  -31.8780   23.1900 C   0  0  0  0  0  0  0  0  0  0  0  0
  -27.2240  -27.3820   20.1410 C   0  0  0  0  0  0  0  0  0  0  0  0
  -23.3880  -30.4740   21.5510 C   0  0  0  0  0  3  0  0  0  0  0  0
  -24.8420  -28.9370   20.1310 C   0  0  0  0  0  0  0  0  0  0  0  0
  -25.9210  -30.8180   21.3640 C   0  0  0  0  0  2  0  0  0  0  0  0
  -26.0060  -29.4440   20.7230 C   0  0  0  0  0  0  0  0  0  0  0  0
  -27.2010  -28.6780   20.7220 C   0  0  0  0  0  3  0  0  0  0  0  0
  -26.0360  -26.9170   19.5230 C   0  0  0  0  0  3  0  0  0  0  0  0
  -24.8550  -27.6750   19.5240 C   0  0  0  0  0  3  0  0  0  0  0  0
  -23.6000  -29.7980   20.1730 C   0  0  0  0  0  2  0  0  0  0  0  0
  -24.6510  -31.0710   22.0930 N   0  0  0  0  0  0  0  0  0  0  0  0
  -23.5060  -32.1540   23.7240 O   0  0  0  0  0  0  0  0  0  0  0  0
  -22.7310  -29.4540   22.5110 C   0  0  0  0  0  0  0  0  0  0  0  0
  -21.4030  -29.2840   22.3930 N   0  0  0  0  0  0  0  0  0  0  0  0
  -23.4140  -28.8190   23.3210 O   0  0  0  0  0  0  0  0  0  0  0  0
  -20.9130  -29.8480   21.7110 H   0  0  0  0  0  0  0  0  0  0  0  0
  -18.0170  -28.1380   22.9310 C   0  0  0  0  0  0  0  0  0  0  0  0
  -20.5830  -28.3540   23.1670 C   0  0  0  0  0  3  0  0  0  0  0  0
  -20.6550  -26.9260   22.5780 C   0  0  0  0  0  2  0  0  0  0  0  0
  -19.5340  -26.6280   21.5780 C   0  0  0  0  0  2  0  0  0  0  0  0
  -18.1630  -26.7900   22.2420 C   0  0  0  0  0  2  0  0  0  0  0  0
  -19.1540  -28.8780   23.3510 C   0  0  0  0  0  0  0  0  0  0  0  0
  -18.9640  -30.1390   23.9550 C   0  0  0  0  0  3  0  0  0  0  0  0
  -17.6700  -30.6610   24.1430 C   0  0  0  0  0  3  0  0  0  0  0  0
  -16.5480  -29.9160   23.7380 C   0  0  0  0  0  3  0  0  0  0  0  0
  -16.7230  -28.6570   23.1380 C   0  0  0  0  0  3  0  0  0  0  0  0
  -25.8730  -32.5120   23.8090 C   0  0  0  0  0  3  0  0  0  0  0  0
  -25.5600  -33.9080   24.1440 N   0  0  0  0  0  0  0  0  0  0  0  0
  -25.9020  -34.9630   23.3950 C   0  0  0  0  0  0  0  0  0  0  0  0
  -26.5860  -34.8650   22.3720 O   0  0  0  0  0  0  0  0  0  0  0  0
  -24.9560  -34.0580   24.9380 H   0  0  0  0  0  0  0  0  0  0  0  0
  -24.1990  -36.7720   23.0020 C   0  0  0  0  0  1  0  0  0  0  0  0
  -25.4080  -36.3490   23.8530 C   0  0  0  0  0  3  0  0  0  0  0  0
  -27.5150  -37.2100   24.7720 C   0  0  0  0  0  1  0  0  0  0  0  0
  -26.4510  -37.3960   23.7890 N   0  0  0  0  0  0  0  0  0  0  0  0
  -26.0460  -38.3170   23.9320 H   0  0  0  0  0  0  0  0  0  0  0  0
  -26.3950  -31.7370   25.0820 C   0  0  1  0  0  0  0  0  0  0  0  0
  -25.3050  -31.4870   26.1480 C   0  0  0  0  0  1  0  0  0  0  0  0
  -26.9880  -30.3660   24.6810 C   0  0  0  0  0  1  0  0  0  0  0  0
  -27.5410  -32.5350   25.7470 C   0  0  0  0  0  1  0  0  0  0  0  0
  2  3  2  0
  3  1  1  0
  4  2  1  0
  4  5  1  0
  5  1  1  0
  8  6  1  6
  8  7  1  0
  8  2  1  0
  8  9  1  0
 10 18  1  0
 11 16  1  0
 12 13  1  0
 12 11  1  0
 14 13  1  0
 14 23  1  0
 14 15  1  0
 16 10  1  0
 16 15  1  0
 17 10  2  0
 18  9  1  0
 18 19  1  0
 20 21  2  0
 21 40  1  0
 22 21  1  0
 22 25  1  0
 23 24  1  0
 23 20  1  0
 24 22  2  0
 25 26  1  0
 26 27  2  0
 28 31  1  0
 28 27  1  0
 29 28  2  0
 30 29  1  0
 30 25  2  0
 31 32  1  0
 32 33  1  0
 33 34  2  0
 35 34  1  0
 35 39  1  0
 36 35  2  0
 37 32  2  0
 37 36  1  0
 38 37  1  0
 40 41  1  0
 41 44  1  0
 41 43  1  0
 42 40  2  0
 45 46  1  0
 45 20  1  0
 47 45  1  0
 48  5  1  0
 49 48  1  0
 50 51  1  0
 50 49  1  0
 52 63  2  0
 53 51  1  0
 53 58  1  0
 54 62  1  0
 54 64  1  0
 55 61  1  0
 55 57  1  0
 56 62  1  0
 57 56  1  0
 58 57  2  0
 59 60  1  0
 59 53  2  0
 60 55  2  0
 61 54  1  0
 62 52  1  0
 64 66  2  0
 65 64  1  0
 67 65  1  0
 68 77  2  0
 68 73  1  0
 69 65  1  0
 69 73  1  0
 70 69  1  0
 71 72  1  0
 71 70  1  0
 72 68  1  0
 73 74  2  0
 74 75  1  0
 76 75  2  0
 77 76  1  0
 78 52  1  0
 78 79  1  0
 78 88  1  0
 79 82  1  0
 80 84  1  0
 80 79  1  0
 81 80  2  0
 84 83  1  0
 86 84  1  0
 86 87  1  0
 86 85  1  0
 88 91  1  1
 88 89  1  0
 90 88  1  0
M  ISO  4  10 100  18 100  50 101  51 101
M  END
>  <TORSDO>  (38) 
F 21

>  <SCORE>  (38) 
-13.687

>  <name>  (38) 
39

>  <ligand_id>  (38) 
39

>  <original_smiles>  (38) 
[H]c1c([H])c([H])c2c(c1[H])C([H])([H])C([H])([H])C([H])([H])C2([H])N([H])C(=O)C1([H])N(C(=O)C([H])(N([H])C(=O)C([H])(N([H])C([H])([H])[H])C([H])([H])[H])C(C([H])([H])[H])(C([H])([H])[H])C([H])([H])[H])C([H])([H])c2c([H])c(OC([H])([H])C([H])([H])C([H])([H])n3nc(C(C([H])([H])[H])(C([H])([H])[H])C([H])([H])N([H])C(=O)N4C([H])([H])C([H])([H])C([H])([H])C([H])(n5nc(-c6c([H])c([H])c(Oc7c([H])c([H])c(F)c([H])c7F)c([H])c6[H])c(C(=O)N([H])[H])c5N([H])[H])C4([H])[H])nc3[H])c([H])c([H])c2C1([H])[H]

>  <smiles>  (38) 
[H]c1c([H])c([H])c2c(c1[H])C([H])([H])C([H])([H])C([H])([H])C2([H])N([H])C(=O)C1([H])N(C(=O)C([H])(N([H])C(=O)C([H])(N([H])C([H])([H])[H])C([H])([H])[H])C(C([H])([H])[H])(C([H])([H])[H])C([H])([H])[H])C([H])([H])c2c([H])c(OC([H])([H])C([H])([H])C([H])([H])n3nc(C(C([H])([H])[H])(C([H])([H])[H])C([H])([H])N([H])C(=O)N4C([H])([H])C([H])([H])C([H])([H])C([H])(n5nc(-c6c([H])c([H])c(Oc7c([H])c([H])c(F)c([H])c7F)c([H])c6[H])c(C(=O)N([H])[H])c5N([H])[H])C4([H])[H])nc3[H])c([H])c([H])c2C1([H])[H]

$$$$
40:0:0
     RDKit          3D

 87 95  0  0  1  0  0  0  0  0999 V2000
  -29.6940  -21.2070   19.4120 C   0  0  0  0  0  2  0  0  0  0  0  0
  -29.4700  -19.8660   21.5610 C   0  0  0  0  0  3  0  0  0  0  0  0
  -29.7350  -18.6480   22.2230 C   0  0  0  0  0  3  0  0  0  0  0  0
  -29.8600  -19.7280   20.2570 C   0  0  0  0  0  0  0  0  0  0  0  0
  -30.2260  -17.7260   21.4260 N   0  0  0  0  0  0  0  0  0  0  0  0
  -30.3630  -18.2380   20.1790 N   0  0  0  0  0  0  0  0  0  0  0  0
  -31.7150  -17.5440   18.1320 C   0  0  0  0  0  1  0  0  0  0  0  0
  -30.7740  -16.9700   19.2080 C   0  0  0  0  0  3  0  0  0  0  0  0
  -31.3750  -15.3420   19.5340 C   0  0  0  0  0  0  0  0  0  0  0  0
  -31.1040  -12.9130   18.7030 C   0  0  0  0  0  2  0  0  0  0  0  0
  -30.0750  -12.7850   17.5530 C   0  0  0  0  0  2  0  0  0  0  0  0
  -28.6590  -12.5910   18.1220 C   0  0  0  0  0  2  0  0  0  0  0  0
  -28.3600  -13.5770   19.2800 C   0  0  0  0  0  3  0  0  0  0  0  0
  -29.5080  -13.6830   20.3000 C   0  0  0  0  0  2  0  0  0  0  0  0
  -30.7100  -14.0880   19.5590 N   0  0  0  0  0  0  0  0  0  0  0  0
  -32.5970  -15.1800   19.3740 O   0  0  0  0  0  0  0  0  0  0  0  0
  -26.1450  -14.2570   20.3370 C   0  0  0  0  0  0  0  0  0  0  0  0
  -25.0610  -13.5390   20.7600 C   0  0  0  0  0  0  0  0  0  0  0  0
  -25.4030  -12.1640   20.5850 C   0  0  0  0  0  0  0  0  0  0  0  0
  -27.0740  -13.3230   19.9150 N   0  0  0  0  0  0  0  0  0  0  0  0
  -26.6490  -12.0520   20.1350 N   0  0  0  0  0  0  0  0  0  0  0  0
  -24.5910  -10.9520   20.7620 C   0  0  0  0  0  0  0  0  0  0  0  0
  -24.9250   -9.9730   21.7250 C   0  0  0  0  0  3  0  0  0  0  0  0
  -24.1160   -8.8290   21.8920 C   0  0  0  0  0  3  0  0  0  0  0  0
  -22.9600   -8.6550   21.0950 C   0  0  0  0  0  0  0  0  0  0  0  0
  -22.6440   -9.6200   20.1230 C   0  0  0  0  0  3  0  0  0  0  0  0
  -23.4540  -10.7560   19.9540 C   0  0  0  0  0  3  0  0  0  0  0  0
  -22.1280   -7.5630   21.1690 O   0  0  0  0  0  0  0  0  0  0  0  0
  -21.8500   -6.9490   22.3640 C   0  0  0  0  0  0  0  0  0  0  0  0
  -21.2460   -7.6410   23.4360 C   0  0  0  0  0  3  0  0  0  0  0  0
  -20.9170   -6.9550   24.6210 C   0  0  0  0  0  3  0  0  0  0  0  0
  -21.1790   -5.5750   24.7320 C   0  0  0  0  0  0  0  0  0  0  0  0
  -21.7750   -4.8830   23.6630 C   0  0  0  0  0  3  0  0  0  0  0  0
  -22.1070   -5.5670   22.4800 C   0  0  0  0  0  0  0  0  0  0  0  0
  -22.6610   -4.8920   21.4460 F   0  0  0  0  0  0  0  0  0  0  0  0
  -20.8550   -4.9130   25.8660 F   0  0  0  0  0  0  0  0  0  0  0  0
  -23.7430  -14.1050   21.2020 C   0  0  0  0  0  0  0  0  0  0  0  0
  -23.0710  -13.4330   22.1300 N   0  0  0  0  0  0  0  0  0  0  0  0
  -23.3250  -15.1740   20.7600 O   0  0  0  0  0  0  0  0  0  0  0  0
  -23.4260  -12.5680   22.5100 H   0  0  0  0  0  0  0  0  0  0  0  0
  -22.1880  -13.7880   22.4670 H   0  0  0  0  0  0  0  0  0  0  0  0
  -26.4080  -15.6190   20.2420 N   0  0  0  0  0  0  0  0  0  0  0  0
  -25.7410  -16.3220   20.5390 H   0  0  0  0  0  0  0  0  0  0  0  0
  -27.2590  -16.0200   19.8640 H   0  0  0  0  0  0  0  0  0  0  0  0
  -28.5800  -22.6180   19.5740 C   0  0  0  0  0  2  0  0  0  0  0  0
  -28.5340  -24.2730   20.2550 C   0  0  0  0  0  2  0  0  0  0  0  0
  -28.4930  -25.8380   19.7550 O   0  0  0  0  0  0  0  0  0  0  0  0
  -24.8060  -31.6460   22.8920 C   0  0  0  0  0  0  0  0  0  0  0  0
  -27.4260  -26.8650   19.8250 C   0  0  0  0  0  0  0  0  0  0  0  0
  -23.6240  -30.2490   21.2430 C   0  0  0  0  0  3  0  0  0  0  0  0
  -25.0920  -28.6840   19.8020 C   0  0  0  0  0  0  0  0  0  0  0  0
  -26.1810  -30.5130   21.0850 C   0  0  0  0  0  2  0  0  0  0  0  0
  -26.2730  -29.1080   20.4250 C   0  0  0  0  0  0  0  0  0  0  0  0
  -27.4350  -28.2190   20.4110 C   0  0  0  0  0  3  0  0  0  0  0  0
  -26.2180  -26.5840   19.1540 C   0  0  0  0  0  3  0  0  0  0  0  0
  -25.0890  -27.4430   19.1430 C   0  0  0  0  0  3  0  0  0  0  0  0
  -23.8600  -29.5850   19.8590 C   0  0  0  0  0  2  0  0  0  0  0  0
  -24.8900  -30.8290   21.7950 N   0  0  0  0  0  0  0  0  0  0  0  0
  -23.7160  -31.9120   23.4260 O   0  0  0  0  0  0  0  0  0  0  0  0
  -22.9550  -29.2290   22.2030 C   0  0  0  0  0  0  0  0  0  0  0  0
  -21.6180  -29.0830   22.1210 N   0  0  0  0  0  0  0  0  0  0  0  0
  -23.6430  -28.5710   22.9880 O   0  0  0  0  0  0  0  0  0  0  0  0
  -21.1160  -29.6660   21.4660 H   0  0  0  0  0  0  0  0  0  0  0  0
  -18.2360  -27.9340   22.7530 C   0  0  0  0  0  0  0  0  0  0  0  0
  -20.8120  -28.1320   22.8950 C   0  0  0  0  0  3  0  0  0  0  0  0
  -20.8490  -26.7220   22.2600 C   0  0  0  0  0  2  0  0  0  0  0  0
  -19.6900  -26.4620   21.2920 C   0  0  0  0  0  2  0  0  0  0  0  0
  -18.3460  -26.6130   22.0100 C   0  0  0  0  0  2  0  0  0  0  0  0
  -19.3920  -28.6550   23.1550 C   0  0  0  0  0  0  0  0  0  0  0  0
  -19.2330  -29.8910   23.8150 C   0  0  0  0  0  3  0  0  0  0  0  0
  -17.9490  -30.4100   24.0740 C   0  0  0  0  0  3  0  0  0  0  0  0
  -16.8090  -29.6870   23.6850 C   0  0  0  0  0  3  0  0  0  0  0  0
  -16.9530  -28.4500   23.0300 C   0  0  0  0  0  3  0  0  0  0  0  0
  -26.0720  -32.3040   23.5240 C   0  0  0  0  0  3  0  0  0  0  0  0
  -26.6660  -31.4710   24.7270 C   0  0  1  0  0  0  0  0  0  0  0  0
  -25.6200  -31.1010   25.8050 C   0  0  0  0  0  1  0  0  0  0  0  0
  -27.3050  -30.1560   24.2270 C   0  0  0  0  0  1  0  0  0  0  0  0
  -27.7970  -32.2740   25.4130 C   0  0  0  0  0  1  0  0  0  0  0  0
  -25.7060  -33.6590   23.9730 N   0  0  0  0  0  0  0  0  0  0  0  0
  -25.9840  -34.7880   23.3090 C   0  0  0  0  0  0  0  0  0  0  0  0
  -26.6390  -34.8020   22.2640 O   0  0  0  0  0  0  0  0  0  0  0  0
  -25.1250  -33.7170   24.7960 H   0  0  0  0  0  0  0  0  0  0  0  0
  -24.1920  -36.5470   23.1350 C   0  0  0  0  0  1  0  0  0  0  0  0
  -25.4550  -36.1130   23.8960 C   0  0  0  0  0  3  0  0  0  0  0  0
  -27.5580  -37.0060   24.7980 C   0  0  0  0  0  1  0  0  0  0  0  0
  -26.4470  -37.2090   23.8700 N   0  0  0  0  0  0  0  0  0  0  0  0
  -26.0070  -38.0990   24.0920 H   0  0  0  0  0  0  0  0  0  0  0  0
  1 45  1  0
  1  4  1  0
  2  3  1  0
  4  2  2  0
  5  3  2  0
  6  4  1  0
  6  5  1  0
  8  7  1  0
  8  9  1  0
  8  6  1  0
  9 15  1  0
 10 15  1  0
 11 12  1  0
 11 10  1  0
 13 12  1  0
 13 20  1  0
 13 14  1  0
 15 14  1  0
 16  9  2  0
 17 18  2  0
 18 37  1  0
 19 18  1  0
 19 22  1  0
 20 21  1  0
 20 17  1  0
 21 19  2  0
 22 23  1  0
 23 24  2  0
 25 28  1  0
 25 24  1  0
 26 25  2  0
 27 26  1  0
 27 22  2  0
 28 29  1  0
 29 34  2  0
 29 30  1  0
 30 31  2  0
 31 32  1  0
 32 36  1  0
 33 32  2  0
 34 33  1  0
 35 34  1  0
 37 38  1  0
 38 41  1  0
 38 40  1  0
 39 37  2  0
 42 17  1  0
 42 43  1  0
 44 42  1  0
 45 46  1  0
 47 49  1  0
 47 46  1  0
 48 59  2  0
 49 54  1  0
 50 58  1  0
 50 60  1  0
 51 57  1  0
 51 53  1  0
 52 58  1  0
 53 52  1  0
 54 53  2  0
 55 49  2  0
 56 55  1  0
 56 51  2  0
 57 50  1  0
 58 48  1  0
 60 62  2  0
 61 60  1  0
 63 61  1  0
 64 73  2  0
 64 69  1  0
 65 61  1  0
 65 69  1  0
 66 65  1  0
 67 68  1  0
 67 66  1  0
 68 64  1  0
 69 70  2  0
 70 71  1  0
 72 71  2  0
 73 72  1  0
 74 48  1  0
 74 79  1  0
 74 75  1  0
 75 78  1  1
 75 76  1  0
 77 75  1  0
 79 82  1  0
 80 84  1  0
 80 79  1  0
 81 80  2  0
 84 83  1  0
 86 84  1  0
 86 87  1  0
 86 85  1  0
M  ISO  4   8 100   9 100  46 101  47 101
M  END
>  <TORSDO>  (39) 
F 20

>  <SCORE>  (39) 
-12.032

>  <name>  (39) 
40

>  <ligand_id>  (39) 
40

>  <original_smiles>  (39) 
[H]c1nn(C([H])(C(=O)N2C([H])([H])C([H])([H])C([H])([H])C([H])(n3nc(-c4c([H])c([H])c(Oc5c([H])c([H])c(F)c([H])c5F)c([H])c4[H])c(C(=O)N([H])[H])c3N([H])[H])C2([H])[H])C([H])([H])[H])c(C([H])([H])C([H])([H])C([H])([H])Oc2c([H])c([H])c3c(c2[H])C([H])([H])N(C(=O)C([H])(N([H])C(=O)C([H])(N([H])C([H])([H])[H])C([H])([H])[H])C(C([H])([H])[H])(C([H])([H])[H])C([H])([H])[H])C([H])(C(=O)N([H])C2([H])c4c([H])c([H])c([H])c([H])c4C([H])([H])C([H])([H])C2([H])[H])C3([H])[H])c1[H]

>  <smiles>  (39) 
[H]c1nn(C([H])(C(=O)N2C([H])([H])C([H])([H])C([H])([H])C([H])(n3nc(-c4c([H])c([H])c(Oc5c([H])c([H])c(F)c([H])c5F)c([H])c4[H])c(C(=O)N([H])[H])c3N([H])[H])C2([H])[H])C([H])([H])[H])c(C([H])([H])C([H])([H])C([H])([H])Oc2c([H])c([H])c3c(c2[H])C([H])([H])N(C(=O)C([H])(N([H])C(=O)C([H])(N([H])C([H])([H])[H])C([H])([H])[H])C(C([H])([H])[H])(C([H])([H])[H])C([H])([H])[H])C([H])(C(=O)N([H])C2([H])c4c([H])c([H])c([H])c([H])c4C([H])([H])C([H])([H])C2([H])[H])C3([H])[H])c1[H]

$$$$
41:0:0
     RDKit          3D

 87 95  0  0  1  0  0  0  0  0999 V2000
  -28.6250  -21.3640   20.8680 C   0  0  0  0  0  3  0  0  0  0  0  0
  -29.8890  -20.9770   19.2530 C   0  0  0  0  0  3  0  0  0  0  0  0
  -28.6950  -22.6960   20.2330 C   0  0  0  0  0  0  0  0  0  0  0  0
  -29.5440  -22.3070   19.1670 N   0  0  0  0  0  0  0  0  0  0  0  0
  -29.3960  -20.2110   20.2670 N   0  0  0  0  0  0  0  0  0  0  0  0
  -27.8300  -24.2350   20.3430 C   0  0  0  0  0  2  0  0  0  0  0  0
  -28.1970  -25.8470   20.2910 O   0  0  0  0  0  0  0  0  0  0  0  0
  -24.6460  -31.8820   23.2150 C   0  0  0  0  0  0  0  0  0  0  0  0
  -27.1960  -26.9630   20.2450 C   0  0  0  0  0  0  0  0  0  0  0  0
  -23.4520  -30.4740   21.5900 C   0  0  0  0  0  3  0  0  0  0  0  0
  -24.8990  -28.8560   20.1840 C   0  0  0  0  0  0  0  0  0  0  0  0
  -26.0200  -30.6780   21.4430 C   0  0  0  0  0  2  0  0  0  0  0  0
  -26.0890  -29.2600   20.8020 C   0  0  0  0  0  0  0  0  0  0  0  0
  -27.2320  -28.3370   20.8050 C   0  0  0  0  0  3  0  0  0  0  0  0
  -25.9730  -26.7190   19.5770 C   0  0  0  0  0  3  0  0  0  0  0  0
  -24.8670  -27.6060   19.5500 C   0  0  0  0  0  3  0  0  0  0  0  0
  -23.6830  -29.7810   20.2190 C   0  0  0  0  0  2  0  0  0  0  0  0
  -24.7280  -31.0390   22.1370 N   0  0  0  0  0  0  0  0  0  0  0  0
  -23.5570  -32.1790   23.7330 O   0  0  0  0  0  0  0  0  0  0  0  0
  -22.7540  -29.4890   22.5640 C   0  0  0  0  0  0  0  0  0  0  0  0
  -21.4230  -29.3290   22.4420 N   0  0  0  0  0  0  0  0  0  0  0  0
  -23.4180  -28.8670   23.3970 O   0  0  0  0  0  0  0  0  0  0  0  0
  -20.9390  -29.8790   21.7470 H   0  0  0  0  0  0  0  0  0  0  0  0
  -18.0360  -28.1360   22.9690 C   0  0  0  0  0  0  0  0  0  0  0  0
  -20.5970  -28.4000   23.2240 C   0  0  0  0  0  3  0  0  0  0  0  0
  -20.6950  -26.9620   22.6630 C   0  0  0  0  0  2  0  0  0  0  0  0
  -19.5890  -26.6340   21.6530 C   0  0  0  0  0  2  0  0  0  0  0  0
  -18.2090  -26.7830   22.2990 C   0  0  0  0  0  2  0  0  0  0  0  0
  -19.1560  -28.9010   23.3900 C   0  0  0  0  0  0  0  0  0  0  0  0
  -18.9370  -30.1640   23.9800 C   0  0  0  0  0  3  0  0  0  0  0  0
  -17.6320  -30.6640   24.1500 C   0  0  0  0  0  3  0  0  0  0  0  0
  -16.5260  -29.8960   23.7440 C   0  0  0  0  0  3  0  0  0  0  0  0
  -16.7290  -28.6330   23.1610 C   0  0  0  0  0  3  0  0  0  0  0  0
  -25.9170  -32.5300   23.8430 C   0  0  0  0  0  3  0  0  0  0  0  0
  -26.4260  -31.7700   25.1310 C   0  0  1  0  0  0  0  0  0  0  0  0
  -25.3280  -31.5430   26.1970 C   0  0  0  0  0  1  0  0  0  0  0  0
  -27.0070  -30.3870   24.7620 C   0  0  0  0  0  1  0  0  0  0  0  0
  -27.5760  -32.5660   25.7890 C   0  0  0  0  0  1  0  0  0  0  0  0
  -25.5990  -33.9290   24.1750 N   0  0  0  0  0  0  0  0  0  0  0  0
  -25.9250  -34.9910   23.4260 C   0  0  0  0  0  0  0  0  0  0  0  0
  -26.5890  -34.8940   22.3910 O   0  0  0  0  0  0  0  0  0  0  0  0
  -25.0100  -34.0770   24.9820 H   0  0  0  0  0  0  0  0  0  0  0  0
  -24.1920  -36.7880   23.0970 C   0  0  0  0  0  1  0  0  0  0  0  0
  -25.4400  -36.3780   23.8950 C   0  0  0  0  0  3  0  0  0  0  0  0
  -27.5800  -37.2650   24.7130 C   0  0  0  0  0  1  0  0  0  0  0  0
  -26.4710  -37.4340   23.7790 N   0  0  0  0  0  0  0  0  0  0  0  0
  -26.0650  -38.3530   23.9320 H   0  0  0  0  0  0  0  0  0  0  0  0
  -29.7960  -18.6220   20.7120 C   0  0  0  0  0  2  0  0  0  0  0  0
  -28.1630  -16.8360   19.7840 C   0  0  0  0  0  1  0  0  0  0  0  0
  -30.1930  -17.3590   18.4960 C   0  0  0  0  0  1  0  0  0  0  0  0
  -29.6780  -17.0120   19.9100 C   0  0  1  0  0  0  0  0  0  0  0  0
  -30.4110  -15.3920   20.1900 C   0  0  0  0  0  0  0  0  0  0  0  0
  -30.3940  -12.9120   19.3780 C   0  0  0  0  0  2  0  0  0  0  0  0
  -29.4750  -12.6580   18.1560 C   0  0  0  0  0  2  0  0  0  0  0  0
  -28.0370  -12.3490   18.6090 C   0  0  0  0  0  2  0  0  0  0  0  0
  -27.5650  -13.3350   19.7020 C   0  0  0  0  0  3  0  0  0  0  0  0
  -28.6130  -13.5600   20.8130 C   0  0  0  0  0  2  0  0  0  0  0  0
  -29.8430  -14.0740   20.1760 N   0  0  0  0  0  0  0  0  0  0  0  0
  -31.6470  -15.3200   20.0940 O   0  0  0  0  0  0  0  0  0  0  0  0
  -25.2010  -13.9070   20.4680 C   0  0  0  0  0  0  0  0  0  0  0  0
  -24.1400  -13.1350   20.8410 C   0  0  0  0  0  0  0  0  0  0  0  0
  -24.6070  -11.7850   20.8150 C   0  0  0  0  0  0  0  0  0  0  0  0
  -26.2430  -13.0280   20.2250 N   0  0  0  0  0  0  0  0  0  0  0  0
  -25.8970  -11.7450   20.5030 N   0  0  0  0  0  0  0  0  0  0  0  0
  -23.8780  -10.5270   21.0090 C   0  0  0  0  0  0  0  0  0  0  0  0
  -24.3170   -9.5550   21.9350 C   0  0  0  0  0  3  0  0  0  0  0  0
  -23.5870   -8.3610   22.1170 C   0  0  0  0  0  3  0  0  0  0  0  0
  -22.4050   -8.1310   21.3730 C   0  0  0  0  0  0  0  0  0  0  0  0
  -21.9870   -9.0910   20.4350 C   0  0  0  0  0  3  0  0  0  0  0  0
  -22.7170  -10.2770   20.2510 C   0  0  0  0  0  3  0  0  0  0  0  0
  -21.6460   -6.9910   21.4650 O   0  0  0  0  0  0  0  0  0  0  0  0
  -21.6140   -6.2400   22.6120 C   0  0  0  0  0  0  0  0  0  0  0  0
  -21.2190   -6.7900   23.8520 C   0  0  0  0  0  3  0  0  0  0  0  0
  -21.1340   -5.9650   24.9910 C   0  0  0  0  0  3  0  0  0  0  0  0
  -21.4330   -4.5930   24.8920 C   0  0  0  0  0  0  0  0  0  0  0  0
  -21.8210   -4.0440   23.6580 C   0  0  0  0  0  3  0  0  0  0  0  0
  -21.9080   -4.8650   22.5200 C   0  0  0  0  0  0  0  0  0  0  0  0
  -22.2620   -4.3270   21.3280 F   0  0  0  0  0  0  0  0  0  0  0  0
  -21.3420   -3.7980   25.9840 F   0  0  0  0  0  0  0  0  0  0  0  0
  -22.7440  -13.6170   21.1060 C   0  0  0  0  0  0  0  0  0  0  0  0
  -22.0130  -12.9280   21.9740 N   0  0  0  0  0  0  0  0  0  0  0  0
  -22.3100  -14.6400   20.5780 O   0  0  0  0  0  0  0  0  0  0  0  0
  -22.3770  -12.1000   22.4220 H   0  0  0  0  0  0  0  0  0  0  0  0
  -21.0750  -13.2320   22.1950 H   0  0  0  0  0  0  0  0  0  0  0  0
  -25.3520  -15.2760   20.2840 N   0  0  0  0  0  0  0  0  0  0  0  0
  -24.5810  -15.9230   20.4120 H   0  0  0  0  0  0  0  0  0  0  0  0
  -26.1970  -15.7240   19.9600 H   0  0  0  0  0  0  0  0  0  0  0  0
  2  5  1  0
  3  6  1  0
  3  1  2  0
  4  2  2  0
  4  3  1  0
  5 48  1  0
  5  1  1  0
  7  6  1  0
  8 19  2  0
  9  7  1  0
  9 14  1  0
 10 18  1  0
 10 20  1  0
 11 17  1  0
 11 13  1  0
 12 18  1  0
 13 14  2  0
 13 12  1  0
 15  9  2  0
 16 15  1  0
 16 11  2  0
 17 10  1  0
 18  8  1  0
 20 22  2  0
 21 20  1  0
 23 21  1  0
 24 33  2  0
 24 29  1  0
 25 21  1  0
 25 29  1  0
 26 25  1  0
 27 28  1  0
 27 26  1  0
 28 24  1  0
 29 30  2  0
 30 31  1  0
 32 31  2  0
 33 32  1  0
 34  8  1  0
 34 39  1  0
 34 35  1  0
 35 38  1  1
 35 36  1  0
 37 35  1  0
 39 42  1  0
 40 44  1  0
 40 39  1  0
 41 40  2  0
 44 43  1  0
 46 44  1  0
 46 47  1  0
 46 45  1  0
 51 49  1  6
 50 51  1  0
 51 52  1  0
 51 48  1  0
 53 58  1  0
 54 55  1  0
 54 53  1  0
 56 55  1  0
 56 63  1  0
 56 57  1  0
 58 52  1  0
 58 57  1  0
 59 52  2  0
 60 61  2  0
 61 80  1  0
 62 61  1  0
 62 65  1  0
 63 60  1  0
 63 64  1  0
 64 62  2  0
 65 66  1  0
 66 67  2  0
 68 71  1  0
 68 67  1  0
 69 68  2  0
 70 69  1  0
 70 65  2  0
 71 72  1  0
 72 73  1  0
 73 74  2  0
 75 74  1  0
 75 79  1  0
 76 75  2  0
 77 72  2  0
 77 76  1  0
 78 77  1  0
 80 81  1  0
 81 84  1  0
 81 83  1  0
 82 80  2  0
 85 86  1  0
 85 60  1  0
 87 85  1  0
M  ISO  4   6 101   7 101  51 100  52 100
M  END
>  <TORSDO>  (40) 
F 19

>  <SCORE>  (40) 
-16.729

>  <name>  (40) 
41

>  <ligand_id>  (40) 
41

>  <original_smiles>  (40) 
[H]c1c([H])c([H])c2c(c1[H])C([H])([H])C([H])([H])C([H])([H])C2([H])N([H])C(=O)C1([H])N(C(=O)C([H])(N([H])C(=O)C([H])(N([H])C([H])([H])[H])C([H])([H])[H])C(C([H])([H])[H])(C([H])([H])[H])C([H])([H])[H])C([H])([H])c2c([H])c(OC([H])([H])c3nc([H])n(C([H])([H])C(C(=O)N4C([H])([H])C([H])([H])C([H])([H])C([H])(n5nc(-c6c([H])c([H])c(Oc7c([H])c([H])c(F)c([H])c7F)c([H])c6[H])c(C(=O)N([H])[H])c5N([H])[H])C4([H])[H])(C([H])([H])[H])C([H])([H])[H])c3[H])c([H])c([H])c2C1([H])[H]

>  <smiles>  (40) 
[H]c1c([H])c([H])c2c(c1[H])C([H])([H])C([H])([H])C([H])([H])C2([H])N([H])C(=O)C1([H])N(C(=O)C([H])(N([H])C(=O)C([H])(N([H])C([H])([H])[H])C([H])([H])[H])C(C([H])([H])[H])(C([H])([H])[H])C([H])([H])[H])C([H])([H])c2c([H])c(OC([H])([H])c3nc([H])n(C([H])([H])C(C(=O)N4C([H])([H])C([H])([H])C([H])([H])C([H])(n5nc(-c6c([H])c([H])c(Oc7c([H])c([H])c(F)c([H])c7F)c([H])c6[H])c(C(=O)N([H])[H])c5N([H])[H])C4([H])[H])(C([H])([H])[H])C([H])([H])[H])c3[H])c([H])c([H])c2C1([H])[H]

$$$$
42:0:0
     RDKit          3D

 91 99  0  0  1  0  0  0  0  0999 V2000
  -31.2430  -20.1320   20.0810 C   0  0  0  0  0  3  0  0  0  0  0  0
  -30.9970  -21.4710   20.2610 C   0  0  0  0  0  3  0  0  0  0  0  0
  -30.0030  -19.4700   20.3470 C   0  0  0  0  0  0  0  0  0  0  0  0
  -29.0830  -20.3810   20.6900 N   0  0  0  0  0  0  0  0  0  0  0  0
  -29.6620  -21.6090   20.5980 N   0  0  0  0  0  0  0  0  0  0  0  0
  -29.9460  -17.5740   18.7200 C   0  0  0  0  0  1  0  0  0  0  0  0
  -28.1100  -17.7760   20.3830 C   0  0  0  0  0  1  0  0  0  0  0  0
  -29.6290  -17.9700   20.1730 C   0  0  2  0  0  0  0  0  0  0  0  0
  -30.3860  -17.0000   21.1510 C   0  0  0  0  0  2  0  0  0  0  0  0
  -30.6630  -14.5390   20.5170 C   0  0  0  0  0  0  0  0  0  0  0  0
  -30.3450  -12.3710   19.3570 C   0  0  0  0  0  2  0  0  0  0  0  0
  -29.4160  -12.6140   18.1480 C   0  0  0  0  0  2  0  0  0  0  0  0
  -27.9350  -12.4880   18.5570 C   0  0  0  0  0  2  0  0  0  0  0  0
  -27.5970  -13.2900   19.8420 C   0  0  0  0  0  3  0  0  0  0  0  0
  -28.6540  -13.0600   20.9490 C   0  0  0  0  0  2  0  0  0  0  0  0
  -29.9810  -13.3610   20.3850 N   0  0  0  0  0  0  0  0  0  0  0  0
  -31.7910  -14.7050   20.0440 O   0  0  0  0  0  0  0  0  0  0  0  0
  -29.9790  -15.5670   21.0640 N   0  0  0  0  0  0  0  0  0  0  0  0
  -29.0570  -15.3460   21.4070 H   0  0  0  0  0  0  0  0  0  0  0  0
  -25.1900  -13.8860   20.5330 C   0  0  0  0  0  0  0  0  0  0  0  0
  -24.1190  -13.1150   20.8920 C   0  0  0  0  0  0  0  0  0  0  0  0
  -24.5800  -11.7630   20.8640 C   0  0  0  0  0  0  0  0  0  0  0  0
  -26.2390  -13.0080   20.3110 N   0  0  0  0  0  0  0  0  0  0  0  0
  -25.8740  -11.7220   20.5630 N   0  0  0  0  0  0  0  0  0  0  0  0
  -23.8510  -10.5030   21.0550 C   0  0  0  0  0  0  0  0  0  0  0  0
  -24.2810   -9.5330   21.9880 C   0  0  0  0  0  3  0  0  0  0  0  0
  -23.5460   -8.3410   22.1700 C   0  0  0  0  0  3  0  0  0  0  0  0
  -22.3690   -8.1090   21.4180 C   0  0  0  0  0  0  0  0  0  0  0  0
  -21.9590   -9.0670   20.4750 C   0  0  0  0  0  3  0  0  0  0  0  0
  -22.6910  -10.2510   20.2930 C   0  0  0  0  0  3  0  0  0  0  0  0
  -21.6120   -6.9660   21.5040 O   0  0  0  0  0  0  0  0  0  0  0  0
  -21.5680   -6.2140   22.6500 C   0  0  0  0  0  0  0  0  0  0  0  0
  -21.1650   -6.7660   23.8860 C   0  0  0  0  0  3  0  0  0  0  0  0
  -21.0690   -5.9430   25.0270 C   0  0  0  0  0  3  0  0  0  0  0  0
  -21.3650   -4.5700   24.9300 C   0  0  0  0  0  0  0  0  0  0  0  0
  -21.7580   -4.0190   23.6990 C   0  0  0  0  0  3  0  0  0  0  0  0
  -21.8570   -4.8390   22.5610 C   0  0  0  0  0  0  0  0  0  0  0  0
  -22.2190   -4.2990   21.3720 F   0  0  0  0  0  0  0  0  0  0  0  0
  -21.2640   -3.7760   26.0230 F   0  0  0  0  0  0  0  0  0  0  0  0
  -22.7190  -13.5930   21.1550 C   0  0  0  0  0  0  0  0  0  0  0  0
  -21.9890  -12.9000   22.0200 N   0  0  0  0  0  0  0  0  0  0  0  0
  -22.2840  -14.6180   20.6320 O   0  0  0  0  0  0  0  0  0  0  0  0
  -22.3520  -12.0660   22.4580 H   0  0  0  0  0  0  0  0  0  0  0  0
  -21.0550  -13.2080   22.2470 H   0  0  0  0  0  0  0  0  0  0  0  0
  -25.3500  -15.2570   20.3590 N   0  0  0  0  0  0  0  0  0  0  0  0
  -24.5760  -15.9030   20.4750 H   0  0  0  0  0  0  0  0  0  0  0  0
  -26.1960  -15.7100   20.0450 H   0  0  0  0  0  0  0  0  0  0  0  0
  -28.8660  -22.8000   20.9600 C   0  0  0  0  0  2  0  0  0  0  0  0
  -29.1810  -24.1690   20.2670 C   0  0  0  0  0  2  0  0  0  0  0  0
  -28.2400  -25.3040   20.7930 C   0  0  0  0  0  2  0  0  0  0  0  0
  -28.4220  -26.6330   20.2300 O   0  0  0  0  0  0  0  0  0  0  0  0
  -24.6080  -31.9070   23.2480 C   0  0  0  0  0  0  0  0  0  0  0  0
  -27.2800  -27.4210   20.2080 C   0  0  0  0  0  0  0  0  0  0  0  0
  -23.4210  -30.4950   21.6020 C   0  0  0  0  0  3  0  0  0  0  0  0
  -24.8890  -28.9550   20.1860 C   0  0  0  0  0  0  0  0  0  0  0  0
  -25.9490  -30.8420   21.4320 C   0  0  0  0  0  2  0  0  0  0  0  0
  -26.0410  -29.4650   20.8000 C   0  0  0  0  0  0  0  0  0  0  0  0
  -27.2380  -28.7050   20.8120 C   0  0  0  0  0  3  0  0  0  0  0  0
  -26.1220  -26.9560   19.5480 C   0  0  0  0  0  3  0  0  0  0  0  0
  -24.9300  -27.7020   19.5490 C   0  0  0  0  0  3  0  0  0  0  0  0
  -23.6440  -29.8150   20.2240 C   0  0  0  0  0  2  0  0  0  0  0  0
  -24.6770  -31.0980   22.1520 N   0  0  0  0  0  0  0  0  0  0  0  0
  -23.5210  -32.1810   23.7770 O   0  0  0  0  0  0  0  0  0  0  0  0
  -22.7590  -29.4790   22.5620 C   0  0  0  0  0  0  0  0  0  0  0  0
  -21.4340  -29.3000   22.4300 N   0  0  0  0  0  0  0  0  0  0  0  0
  -23.4350  -28.8540   23.3820 O   0  0  0  0  0  0  0  0  0  0  0  0
  -20.9470  -29.8600   21.7430 H   0  0  0  0  0  0  0  0  0  0  0  0
  -18.0560  -28.1120   22.9210 C   0  0  0  0  0  0  0  0  0  0  0  0
  -20.6120  -28.3650   23.2000 C   0  0  0  0  0  3  0  0  0  0  0  0
  -20.7150  -26.9330   22.6240 C   0  0  0  0  0  2  0  0  0  0  0  0
  -19.6140  -26.6110   21.6080 C   0  0  0  0  0  2  0  0  0  0  0  0
  -18.2310  -26.7600   22.2480 C   0  0  0  0  0  2  0  0  0  0  0  0
  -19.1730  -28.8720   23.3540 C   0  0  0  0  0  0  0  0  0  0  0  0
  -18.9570  -30.1360   23.9440 C   0  0  0  0  0  3  0  0  0  0  0  0
  -17.6530  -30.6400   24.1060 C   0  0  0  0  0  3  0  0  0  0  0  0
  -16.5480  -29.8780   23.6870 C   0  0  0  0  0  3  0  0  0  0  0  0
  -16.7500  -28.6160   23.1000 C   0  0  0  0  0  3  0  0  0  0  0  0
  -25.8860  -32.5440   23.8760 C   0  0  0  0  0  3  0  0  0  0  0  0
  -25.5740  -33.9440   24.2000 N   0  0  0  0  0  0  0  0  0  0  0  0
  -25.9070  -34.9930   23.4370 C   0  0  0  0  0  0  0  0  0  0  0  0
  -26.5820  -34.8860   22.4090 O   0  0  0  0  0  0  0  0  0  0  0  0
  -24.9830  -34.1020   25.0040 H   0  0  0  0  0  0  0  0  0  0  0  0
  -24.1780  -36.7800   23.0600 C   0  0  0  0  0  1  0  0  0  0  0  0
  -25.4120  -36.3820   23.8840 C   0  0  0  0  0  3  0  0  0  0  0  0
  -27.5400  -37.2730   24.7290 C   0  0  0  0  0  1  0  0  0  0  0  0
  -26.4440  -37.4360   23.7760 N   0  0  0  0  0  0  0  0  0  0  0  0
  -26.0350  -38.3570   23.9190 H   0  0  0  0  0  0  0  0  0  0  0  0
  -26.4000  -31.7760   25.1570 C   0  0  1  0  0  0  0  0  0  0  0  0
  -25.3030  -31.5390   26.2210 C   0  0  0  0  0  1  0  0  0  0  0  0
  -26.9860  -30.3990   24.7680 C   0  0  0  0  0  1  0  0  0  0  0  0
  -27.5460  -32.5750   25.8230 C   0  0  0  0  0  1  0  0  0  0  0  0
  1  2  2  0
  1  3  1  0
  2  5  1  0
  3  4  2  0
  5  4  1  0
  5 48  1  0
  8  6  1  6
  8  3  1  0
  8  7  1  0
  8  9  1  0
 10 18  1  0
 11 16  1  0
 12 13  1  0
 12 11  1  0
 14 13  1  0
 14 23  1  0
 14 15  1  0
 16 10  1  0
 16 15  1  0
 17 10  2  0
 18  9  1  0
 18 19  1  0
 20 21  2  0
 21 40  1  0
 22 21  1  0
 22 25  1  0
 23 20  1  0
 23 24  1  0
 24 22  2  0
 25 26  1  0
 26 27  2  0
 28 31  1  0
 28 27  1  0
 29 28  2  0
 30 29  1  0
 30 25  2  0
 31 32  1  0
 32 33  1  0
 33 34  2  0
 35 34  1  0
 35 39  1  0
 36 35  2  0
 37 32  2  0
 37 36  1  0
 38 37  1  0
 40 41  1  0
 41 44  1  0
 41 43  1  0
 42 40  2  0
 45 46  1  0
 45 20  1  0
 47 45  1  0
 49 50  1  0
 49 48  1  0
 51 50  1  0
 52 63  2  0
 53 51  1  0
 53 58  1  0
 54 62  1  0
 54 64  1  0
 55 61  1  0
 55 57  1  0
 56 62  1  0
 57 58  2  0
 57 56  1  0
 59 60  1  0
 59 53  2  0
 60 55  2  0
 61 54  1  0
 62 52  1  0
 64 66  2  0
 65 64  1  0
 67 65  1  0
 68 77  2  0
 68 73  1  0
 69 65  1  0
 69 73  1  0
 70 69  1  0
 71 72  1  0
 71 70  1  0
 72 68  1  0
 73 74  2  0
 74 75  1  0
 76 75  2  0
 77 76  1  0
 78 52  1  0
 78 79  1  0
 78 88  1  0
 79 82  1  0
 80 84  1  0
 80 79  1  0
 81 80  2  0
 84 83  1  0
 86 84  1  0
 86 87  1  0
 86 85  1  0
 88 91  1  1
 88 89  1  0
 90 88  1  0
M  ISO  4  10 100  18 100  50 101  51 101
M  END
>  <TORSDO>  (41) 
F 21

>  <SCORE>  (41) 
-13.798

>  <name>  (41) 
42

>  <ligand_id>  (41) 
42

>  <original_smiles>  (41) 
[H]c1c([H])c([H])c2c(c1[H])C([H])([H])C([H])([H])C([H])([H])C2([H])N([H])C(=O)C1([H])N(C(=O)C([H])(N([H])C(=O)C([H])(N([H])C([H])([H])[H])C([H])([H])[H])C(C([H])([H])[H])(C([H])([H])[H])C([H])([H])[H])C([H])([H])c2c([H])c(OC([H])([H])C([H])([H])C([H])([H])n3nc(C(C([H])([H])[H])(C([H])([H])[H])C([H])([H])N([H])C(=O)N4C([H])([H])C([H])([H])C([H])([H])C([H])(n5nc(-c6c([H])c([H])c(Oc7c([H])c([H])c(F)c([H])c7F)c([H])c6[H])c(C(=O)N([H])[H])c5N([H])[H])C4([H])[H])c([H])c3[H])c([H])c([H])c2C1([H])[H]

>  <smiles>  (41) 
[H]c1c([H])c([H])c2c(c1[H])C([H])([H])C([H])([H])C([H])([H])C2([H])N([H])C(=O)C1([H])N(C(=O)C([H])(N([H])C(=O)C([H])(N([H])C([H])([H])[H])C([H])([H])[H])C(C([H])([H])[H])(C([H])([H])[H])C([H])([H])[H])C([H])([H])c2c([H])c(OC([H])([H])C([H])([H])C([H])([H])n3nc(C(C([H])([H])[H])(C([H])([H])[H])C([H])([H])N([H])C(=O)N4C([H])([H])C([H])([H])C([H])([H])C([H])(n5nc(-c6c([H])c([H])c(Oc7c([H])c([H])c(F)c([H])c7F)c([H])c6[H])c(C(=O)N([H])[H])c5N([H])[H])C4([H])[H])c([H])c3[H])c([H])c([H])c2C1([H])[H]

$$$$
43:0:0
     RDKit          3D

 91 99  0  0  1  0  0  0  0  0999 V2000
  -27.6590  -21.5740   19.4660 C   0  0  0  0  0  3  0  0  0  0  0  0
  -28.5700  -22.4990   19.9750 C   0  0  0  0  0  0  0  0  0  0  0  0
  -29.3130  -20.0360   20.0520 C   0  0  0  0  0  3  0  0  0  0  0  0
  -28.1230  -20.2340   19.4370 N   0  0  0  0  0  0  0  0  0  0  0  0
  -29.5880  -21.4460   20.3190 N   0  0  0  0  0  0  0  0  0  0  0  0
  -30.4940  -21.7150   20.6850 H   0  0  0  0  0  0  0  0  0  0  0  0
  -26.8140  -18.1740   19.8260 C   0  0  0  0  0  1  0  0  0  0  0  0
  -28.1020  -18.5020   17.5830 C   0  0  0  0  0  1  0  0  0  0  0  0
  -27.3700  -19.1480   18.7880 C   0  0  0  0  0  3  0  0  0  0  0  0
  -31.5040  -18.7350   19.4030 C   0  0  0  0  0  1  0  0  0  0  0  0
  -30.2350  -18.5070   20.2420 C   0  0  0  0  0  0  0  0  0  0  0  0
  -30.5340  -15.4880   20.1770 C   0  0  0  0  0  0  0  0  0  0  0  0
  -30.4890  -13.0160   19.3100 C   0  0  0  0  0  2  0  0  0  0  0  0
  -29.5440  -12.7040   18.1180 C   0  0  0  0  0  2  0  0  0  0  0  0
  -28.1120  -12.3970   18.5980 C   0  0  0  0  0  2  0  0  0  0  0  0
  -27.6430  -13.3880   19.6910 C   0  0  0  0  0  3  0  0  0  0  0  0
  -28.7210  -13.6580   20.7760 C   0  0  0  0  0  2  0  0  0  0  0  0
  -29.9250  -14.1850   20.1000 N   0  0  0  0  0  0  0  0  0  0  0  0
  -31.7610  -15.4040   20.0380 O   0  0  0  0  0  0  0  0  0  0  0  0
  -29.8490  -16.8350   20.2160 N   0  0  0  0  0  4  0  0  0  0  0  0
  -28.8540  -16.7060   20.3100 H   0  0  0  0  0  0  0  0  0  0  0  0
  -25.2910  -13.8870   20.5490 C   0  0  0  0  0  0  0  0  0  0  0  0
  -24.2440  -13.0930   20.9270 C   0  0  0  0  0  0  0  0  0  0  0  0
  -24.7280  -11.7510   20.8610 C   0  0  0  0  0  0  0  0  0  0  0  0
  -26.3380  -13.0340   20.2560 N   0  0  0  0  0  0  0  0  0  0  0  0
  -26.0150  -11.7380   20.5180 N   0  0  0  0  0  0  0  0  0  0  0  0
  -24.0120  -10.4800   21.0410 C   0  0  0  0  0  0  0  0  0  0  0  0
  -24.4520   -9.5140   21.9700 C   0  0  0  0  0  3  0  0  0  0  0  0
  -23.7360   -8.3100   22.1430 C   0  0  0  0  0  3  0  0  0  0  0  0
  -22.5650   -8.0660   21.3860 C   0  0  0  0  0  0  0  0  0  0  0  0
  -22.1440   -9.0230   20.4440 C   0  0  0  0  0  3  0  0  0  0  0  0
  -22.8620  -10.2190   20.2680 C   0  0  0  0  0  3  0  0  0  0  0  0
  -21.8170   -6.9170   21.4740 O   0  0  0  0  0  0  0  0  0  0  0  0
  -21.7500   -6.1830   22.6300 C   0  0  0  0  0  0  0  0  0  0  0  0
  -21.2500   -6.7300   23.8320 C   0  0  0  0  0  3  0  0  0  0  0  0
  -21.1340   -5.9200   24.9790 C   0  0  0  0  0  3  0  0  0  0  0  0
  -21.5090   -4.5640   24.9250 C   0  0  0  0  0  0  0  0  0  0  0  0
  -22.0060   -4.0170   23.7300 C   0  0  0  0  0  3  0  0  0  0  0  0
  -22.1230   -4.8240   22.5840 C   0  0  0  0  0  0  0  0  0  0  0  0
  -22.5810   -4.2870   21.4290 F   0  0  0  0  0  0  0  0  0  0  0  0
  -21.3910   -3.7830   26.0260 F   0  0  0  0  0  0  0  0  0  0  0  0
  -22.8460  -13.5510   21.2240 C   0  0  0  0  0  0  0  0  0  0  0  0
  -22.1370  -12.8390   22.0990 N   0  0  0  0  0  0  0  0  0  0  0  0
  -22.3910  -14.5750   20.7200 O   0  0  0  0  0  0  0  0  0  0  0  0
  -22.5070  -12.0040   22.5250 H   0  0  0  0  0  0  0  0  0  0  0  0
  -21.2000  -13.1320   22.3440 H   0  0  0  0  0  0  0  0  0  0  0  0
  -25.4310  -15.2550   20.3960 N   0  0  0  0  0  0  0  0  0  0  0  0
  -24.6580  -15.8980   20.5260 H   0  0  0  0  0  0  0  0  0  0  0  0
  -26.2520  -15.7070   20.0200 H   0  0  0  0  0  0  0  0  0  0  0  0
  -28.3970  -24.2760   19.6990 C   0  0  0  0  0  2  0  0  0  0  0  0
  -28.2050  -25.7550   20.4860 O   0  0  0  0  0  0  0  0  0  0  0  0
  -24.5910  -31.8650   23.2640 C   0  0  0  0  0  0  0  0  0  0  0  0
  -27.2200  -26.9010   20.3280 C   0  0  0  0  0  0  0  0  0  0  0  0
  -23.4300  -30.4530   21.6160 C   0  0  0  0  0  3  0  0  0  0  0  0
  -24.9090  -28.8210   20.2350 C   0  0  0  0  0  0  0  0  0  0  0  0
  -26.0030  -30.6450   21.5210 C   0  0  0  0  0  2  0  0  0  0  0  0
  -26.0860  -29.2200   20.8780 C   0  0  0  0  0  0  0  0  0  0  0  0
  -27.2220  -28.2790   20.9070 C   0  0  0  0  0  3  0  0  0  0  0  0
  -26.0050  -26.6740   19.6350 C   0  0  0  0  0  3  0  0  0  0  0  0
  -24.8980  -27.5690   19.5970 C   0  0  0  0  0  3  0  0  0  0  0  0
  -23.6970  -29.7580   20.2490 C   0  0  0  0  0  2  0  0  0  0  0  0
  -24.6960  -31.0180   22.1880 N   0  0  0  0  0  0  0  0  0  0  0  0
  -23.4910  -32.1580   23.7630 O   0  0  0  0  0  0  0  0  0  0  0  0
  -22.7090  -29.4710   22.5810 C   0  0  0  0  0  0  0  0  0  0  0  0
  -21.3780  -29.3190   22.4440 N   0  0  0  0  0  0  0  0  0  0  0  0
  -23.3600  -28.8450   23.4240 O   0  0  0  0  0  0  0  0  0  0  0  0
  -20.9060  -29.8740   21.7460 H   0  0  0  0  0  0  0  0  0  0  0  0
  -17.9780  -28.1400   22.9390 C   0  0  0  0  0  0  0  0  0  0  0  0
  -20.5410  -28.3900   23.2120 C   0  0  0  0  0  3  0  0  0  0  0  0
  -20.6350  -26.9560   22.6390 C   0  0  0  0  0  2  0  0  0  0  0  0
  -19.5350  -26.6400   21.6210 C   0  0  0  0  0  2  0  0  0  0  0  0
  -18.1510  -26.7910   22.2590 C   0  0  0  0  0  2  0  0  0  0  0  0
  -19.1000  -28.8960   23.3740 C   0  0  0  0  0  0  0  0  0  0  0  0
  -18.8840  -30.1530   23.9780 C   0  0  0  0  0  3  0  0  0  0  0  0
  -17.5800  -30.6570   24.1460 C   0  0  0  0  0  3  0  0  0  0  0  0
  -16.4740  -29.9000   23.7210 C   0  0  0  0  0  3  0  0  0  0  0  0
  -16.6730  -28.6430   23.1250 C   0  0  0  0  0  3  0  0  0  0  0  0
  -25.8450  -32.5220   23.9160 C   0  0  0  0  0  3  0  0  0  0  0  0
  -26.3050  -31.7900   25.2380 C   0  0  1  0  0  0  0  0  0  0  0  0
  -25.1670  -31.5970   26.2700 C   0  0  0  0  0  1  0  0  0  0  0  0
  -26.8970  -30.3990   24.9190 C   0  0  0  0  0  1  0  0  0  0  0  0
  -27.4320  -32.6010   25.9250 C   0  0  0  0  0  1  0  0  0  0  0  0
  -25.5260  -33.9310   24.2100 N   0  0  0  0  0  0  0  0  0  0  0  0
  -25.8780  -34.9740   23.4470 C   0  0  0  0  0  0  0  0  0  0  0  0
  -26.5670  -34.8520   22.4320 O   0  0  0  0  0  0  0  0  0  0  0  0
  -24.9290  -34.0990   25.0050 H   0  0  0  0  0  0  0  0  0  0  0  0
  -24.1740  -36.7850   23.0300 C   0  0  0  0  0  1  0  0  0  0  0  0
  -25.3910  -36.3750   23.8790 C   0  0  0  0  0  3  0  0  0  0  0  0
  -27.5050  -37.2650   24.7570 C   0  0  0  0  0  1  0  0  0  0  0  0
  -26.4330  -37.4190   23.7770 N   0  0  0  0  0  0  0  0  0  0  0  0
  -26.0290  -38.3450   23.8910 H   0  0  0  0  0  0  0  0  0  0  0  0
  1  2  2  0
  2  5  1  0
  3 11  1  0
  3  5  1  0
  4  1  1  0
  4  3  1  0
  5  6  1  0
  8  9  1  0
  9  4  1  0
  9  7  1  0
 10 11  1  0
 12 20  1  0
 13 18  1  0
 14 15  1  0
 14 13  1  0
 16 15  1  0
 16 25  1  0
 16 17  1  0
 18 12  1  0
 18 17  1  0
 19 12  2  0
 20 11  2  0
 20 21  1  0
 22 23  2  0
 23 42  1  0
 24 23  1  0
 24 27  1  0
 25 26  1  0
 25 22  1  0
 26 24  2  0
 27 28  1  0
 28 29  2  0
 30 33  1  0
 30 29  1  0
 31 30  2  0
 32 31  1  0
 32 27  2  0
 33 34  1  0
 34 35  1  0
 35 36  2  0
 37 36  1  0
 37 41  1  0
 38 37  2  0
 39 34  2  0
 39 38  1  0
 40 39  1  0
 42 43  1  0
 43 46  1  0
 43 45  1  0
 44 42  2  0
 47 48  1  0
 47 22  1  0
 49 47  1  0
 50  2  1  0
 50 51  1  0
 52 63  2  0
 53 51  1  0
 53 58  1  0
 54 62  1  0
 54 64  1  0
 55 61  1  0
 55 57  1  0
 56 62  1  0
 57 58  2  0
 57 56  1  0
 59 53  2  0
 60 59  1  0
 60 55  2  0
 61 54  1  0
 62 52  1  0
 64 66  2  0
 65 64  1  0
 67 65  1  0
 68 77  2  0
 68 73  1  0
 69 65  1  0
 69 73  1  0
 70 69  1  0
 71 72  1  0
 71 70  1  0
 72 68  1  0
 73 74  2  0
 74 75  1  0
 76 75  2  0
 77 76  1  0
 78 52  1  0
 78 83  1  0
 78 79  1  0
 79 82  1  1
 79 80  1  0
 81 79  1  0
 83 86  1  0
 84 88  1  0
 84 83  1  0
 85 84  2  0
 88 87  1  0
 90 88  1  0
 90 91  1  0
 90 89  1  0
M  ISO  4  12 100  20 100  50 101  51 101
M  END
>  <TORSDO>  (42) 
F 19

>  <SCORE>  (42) 
-16.402

>  <name>  (42) 
43

>  <ligand_id>  (42) 
43

>  <original_smiles>  (42) 
[H]c1c([H])c([H])c2c(c1[H])C([H])([H])C([H])([H])C([H])([H])C2([H])N([H])C(=O)C1([H])N(C(=O)C([H])(N([H])C(=O)C([H])(N([H])C([H])([H])[H])C([H])([H])[H])C(C([H])([H])[H])(C([H])([H])[H])C([H])([H])[H])C([H])([H])c2c([H])c(OC([H])([H])c3c([H])n(C([H])(C([H])([H])[H])C([H])([H])[H])c(C([H])(N([H])C(=O)N4C([H])([H])C([H])([H])C([H])([H])C([H])(n5nc(-c6c([H])c([H])c(Oc7c([H])c([H])c(F)c([H])c7F)c([H])c6[H])c(C(=O)N([H])[H])c5N([H])[H])C4([H])[H])C([H])([H])[H])[n+]3[H])c([H])c([H])c2C1([H])[H]

>  <smiles>  (42) 
[H]c1c([H])c([H])c2c(c1[H])C([H])([H])C([H])([H])C([H])([H])C2([H])N([H])C(=O)C1([H])N(C(=O)C([H])(N([H])C(=O)C([H])(N([H])C([H])([H])[H])C([H])([H])[H])C(C([H])([H])[H])(C([H])([H])[H])C([H])([H])[H])C([H])([H])c2c([H])c(OC([H])([H])c3c([H])n(C([H])(C([H])([H])[H])C([H])([H])[H])c(C([H])(N([H])C(=O)N4C([H])([H])C([H])([H])C([H])([H])C([H])(n5nc(-c6c([H])c([H])c(Oc7c([H])c([H])c(F)c([H])c7F)c([H])c6[H])c(C(=O)N([H])[H])c5N([H])[H])C4([H])[H])C([H])([H])[H])[n+]3[H])c([H])c([H])c2C1([H])[H]

$$$$
44:0:0
     RDKit          3D

 88 96  0  0  1  0  0  0  0  0999 V2000
  -29.6170  -22.1500   21.2590 C   0  0  0  0  0  3  0  0  0  0  0  0
  -28.6600  -21.3450   19.5950 C   0  0  0  0  0  3  0  0  0  0  0  0
  -28.7260  -22.6570   20.2370 C   0  0  0  0  0  0  0  0  0  0  0  0
  -29.9890  -20.8190   21.2060 N   0  0  0  0  0  0  0  0  0  0  0  0
  -29.3880  -20.1590   20.1610 N   0  0  0  0  0  0  0  0  0  0  0  0
  -29.0060  -18.3510   18.3570 C   0  0  0  0  0  1  0  0  0  0  0  0
  -29.7850  -18.5820   19.6630 C   0  0  0  0  0  3  0  0  0  0  0  0
  -28.4420  -16.7820   21.0370 C   0  0  0  0  0  1  0  0  0  0  0  0
  -30.7490  -17.2820   21.7140 C   0  0  0  0  0  1  0  0  0  0  0  0
  -29.8630  -16.9710   20.4920 C   0  0  2  0  0  0  0  0  0  0  0  0
  -30.4670  -15.3640   19.9680 C   0  0  0  0  0  0  0  0  0  0  0  0
  -30.3840  -12.9200   19.0360 C   0  0  0  0  0  2  0  0  0  0  0  0
  -29.3960  -12.7350   17.8520 C   0  0  0  0  0  2  0  0  0  0  0  0
  -27.9680  -12.4610   18.3540 C   0  0  0  0  0  2  0  0  0  0  0  0
  -27.5860  -13.3970   19.5250 C   0  0  0  0  0  3  0  0  0  0  0  0
  -28.6970  -13.4880   20.5940 C   0  0  0  0  0  2  0  0  0  0  0  0
  -29.8990  -14.0420   19.9360 N   0  0  0  0  0  0  0  0  0  0  0  0
  -31.6350  -15.3240   19.5540 O   0  0  0  0  0  0  0  0  0  0  0  0
  -25.2520  -13.9560   20.3980 C   0  0  0  0  0  0  0  0  0  0  0  0
  -24.2090  -13.1820   20.8170 C   0  0  0  0  0  0  0  0  0  0  0  0
  -24.6680  -11.8300   20.7460 C   0  0  0  0  0  0  0  0  0  0  0  0
  -26.2820  -13.0810   20.0950 N   0  0  0  0  0  0  0  0  0  0  0  0
  -25.9440  -11.7940   20.3720 N   0  0  0  0  0  0  0  0  0  0  0  0
  -23.9420  -10.5710   20.9550 C   0  0  0  0  0  0  0  0  0  0  0  0
  -24.3990   -9.5950   21.8680 C   0  0  0  0  0  3  0  0  0  0  0  0
  -23.6690   -8.4040   22.0660 C   0  0  0  0  0  3  0  0  0  0  0  0
  -22.4670   -8.1810   21.3530 C   0  0  0  0  0  0  0  0  0  0  0  0
  -22.0290   -9.1450   20.4290 C   0  0  0  0  0  3  0  0  0  0  0  0
  -22.7600  -10.3280   20.2280 C   0  0  0  0  0  3  0  0  0  0  0  0
  -21.7040   -7.0430   21.4630 O   0  0  0  0  0  0  0  0  0  0  0  0
  -21.6760   -6.3040   22.6190 C   0  0  0  0  0  0  0  0  0  0  0  0
  -21.2970   -6.8690   23.8550 C   0  0  0  0  0  3  0  0  0  0  0  0
  -21.2170   -6.0570   25.0050 C   0  0  0  0  0  3  0  0  0  0  0  0
  -21.5050   -4.6830   24.9180 C   0  0  0  0  0  0  0  0  0  0  0  0
  -21.8770   -4.1170   23.6860 C   0  0  0  0  0  3  0  0  0  0  0  0
  -21.9600   -4.9260   22.5390 C   0  0  0  0  0  0  0  0  0  0  0  0
  -22.2990   -4.3720   21.3500 F   0  0  0  0  0  0  0  0  0  0  0  0
  -21.4200   -3.9000   26.0200 F   0  0  0  0  0  0  0  0  0  0  0  0
  -22.8300  -13.6650   21.1600 C   0  0  0  0  0  0  0  0  0  0  0  0
  -22.1410  -12.9680   22.0570 N   0  0  0  0  0  0  0  0  0  0  0  0
  -22.3760  -14.6970   20.6690 O   0  0  0  0  0  0  0  0  0  0  0  0
  -22.5240  -12.1330   22.4740 H   0  0  0  0  0  0  0  0  0  0  0  0
  -21.2190  -13.2760   22.3320 H   0  0  0  0  0  0  0  0  0  0  0  0
  -25.3930  -15.3260   20.2170 N   0  0  0  0  0  0  0  0  0  0  0  0
  -24.6240  -15.9680   20.3700 H   0  0  0  0  0  0  0  0  0  0  0  0
  -26.2080  -15.7680   19.8140 H   0  0  0  0  0  0  0  0  0  0  0  0
  -27.9150  -24.2250   19.9810 C   0  0  0  0  0  2  0  0  0  0  0  0
  -28.2050  -25.8180   20.3210 O   0  0  0  0  0  0  0  0  0  0  0  0
  -24.6350  -31.8400   23.2180 C   0  0  0  0  0  0  0  0  0  0  0  0
  -27.2080  -26.9370   20.2300 C   0  0  0  0  0  0  0  0  0  0  0  0
  -23.4480  -30.4340   21.5810 C   0  0  0  0  0  3  0  0  0  0  0  0
  -24.9060  -28.8240   20.1700 C   0  0  0  0  0  0  0  0  0  0  0  0
  -26.0160  -30.6430   21.4450 C   0  0  0  0  0  2  0  0  0  0  0  0
  -26.0910  -29.2290   20.7950 C   0  0  0  0  0  0  0  0  0  0  0  0
  -27.2350  -28.3060   20.8030 C   0  0  0  0  0  3  0  0  0  0  0  0
  -25.9910  -26.6920   19.5510 C   0  0  0  0  0  3  0  0  0  0  0  0
  -24.8820  -27.5780   19.5270 C   0  0  0  0  0  3  0  0  0  0  0  0
  -23.6850  -29.7430   20.2090 C   0  0  0  0  0  2  0  0  0  0  0  0
  -24.7210  -31.0000   22.1340 N   0  0  0  0  0  0  0  0  0  0  0  0
  -23.5450  -32.1280   23.7350 O   0  0  0  0  0  0  0  0  0  0  0  0
  -22.7510  -29.4440   22.5500 C   0  0  0  0  0  0  0  0  0  0  0  0
  -21.4210  -29.2820   22.4280 N   0  0  0  0  0  0  0  0  0  0  0  0
  -23.4160  -28.8190   23.3810 O   0  0  0  0  0  0  0  0  0  0  0  0
  -20.9370  -29.8340   21.7320 H   0  0  0  0  0  0  0  0  0  0  0  0
  -18.0380  -28.0760   22.9460 C   0  0  0  0  0  0  0  0  0  0  0  0
  -20.5980  -28.3480   23.2070 C   0  0  0  0  0  3  0  0  0  0  0  0
  -20.7030  -26.9130   22.6380 C   0  0  0  0  0  2  0  0  0  0  0  0
  -19.5990  -26.5860   21.6250 C   0  0  0  0  0  2  0  0  0  0  0  0
  -18.2190  -26.7280   22.2690 C   0  0  0  0  0  2  0  0  0  0  0  0
  -19.1550  -28.8440   23.3720 C   0  0  0  0  0  0  0  0  0  0  0  0
  -18.9300  -30.1040   23.9670 C   0  0  0  0  0  3  0  0  0  0  0  0
  -17.6240  -30.5970   24.1400 C   0  0  0  0  0  3  0  0  0  0  0  0
  -16.5220  -29.8270   23.7280 C   0  0  0  0  0  3  0  0  0  0  0  0
  -16.7310  -28.5690   23.1370 C   0  0  0  0  0  3  0  0  0  0  0  0
  -25.9030  -32.4880   23.8500 C   0  0  0  0  0  3  0  0  0  0  0  0
  -26.4060  -31.7300   25.1410 C   0  0  1  0  0  0  0  0  0  0  0  0
  -25.3030  -31.5090   26.2020 C   0  0  0  0  0  1  0  0  0  0  0  0
  -26.9910  -30.3460   24.7800 C   0  0  0  0  0  1  0  0  0  0  0  0
  -27.5520  -32.5300   25.8050 C   0  0  0  0  0  1  0  0  0  0  0  0
  -25.5820  -33.8880   24.1810 N   0  0  0  0  0  0  0  0  0  0  0  0
  -25.9060  -34.9470   23.4300 C   0  0  0  0  0  0  0  0  0  0  0  0
  -26.5690  -34.8500   22.3930 O   0  0  0  0  0  0  0  0  0  0  0  0
  -24.9970  -34.0360   24.9900 H   0  0  0  0  0  0  0  0  0  0  0  0
  -24.1650  -36.7380   23.1080 C   0  0  0  0  0  1  0  0  0  0  0  0
  -25.4220  -36.3350   23.8970 C   0  0  0  0  0  3  0  0  0  0  0  0
  -27.5660  -37.2340   24.6930 C   0  0  0  0  0  1  0  0  0  0  0  0
  -26.4460  -37.3950   23.7690 N   0  0  0  0  0  0  0  0  0  0  0  0
  -26.0360  -38.3120   23.9250 H   0  0  0  0  0  0  0  0  0  0  0  0
  2  5  1  0
  2  3  2  0
  3  1  1  0
  4  1  2  0
  5  4  1  0
  7  6  1  0
  7  5  1  0
  7 10  1  0
 10  8  1  1
 10  9  1  0
 11 10  1  0
 12 17  1  0
 13 14  1  0
 13 12  1  0
 15 14  1  0
 15 22  1  0
 15 16  1  0
 17 11  1  0
 17 16  1  0
 18 11  2  0
 19 20  2  0
 20 39  1  0
 21 20  1  0
 21 24  1  0
 22 23  1  0
 22 19  1  0
 23 21  2  0
 24 25  1  0
 25 26  2  0
 27 30  1  0
 27 26  1  0
 28 27  2  0
 29 28  1  0
 29 24  2  0
 30 31  1  0
 31 32  1  0
 32 33  2  0
 34 33  1  0
 34 38  1  0
 35 34  2  0
 36 31  2  0
 36 35  1  0
 37 36  1  0
 39 40  1  0
 40 43  1  0
 40 42  1  0
 41 39  2  0
 44 45  1  0
 44 19  1  0
 46 44  1  0
 47  3  1  0
 47 48  1  0
 49 60  2  0
 50 48  1  0
 50 55  1  0
 51 59  1  0
 51 61  1  0
 52 58  1  0
 52 54  1  0
 53 59  1  0
 54 55  2  0
 54 53  1  0
 56 50  2  0
 57 56  1  0
 57 52  2  0
 58 51  1  0
 59 49  1  0
 61 63  2  0
 62 61  1  0
 64 62  1  0
 65 74  2  0
 65 70  1  0
 66 62  1  0
 66 70  1  0
 67 66  1  0
 68 69  1  0
 68 67  1  0
 69 65  1  0
 70 71  2  0
 71 72  1  0
 73 72  2  0
 74 73  1  0
 75 49  1  0
 75 80  1  0
 75 76  1  0
 76 79  1  1
 76 77  1  0
 78 76  1  0
 80 83  1  0
 81 85  1  0
 81 80  1  0
 82 81  2  0
 85 84  1  0
 87 85  1  0
 87 88  1  0
 87 86  1  0
M  ISO  4  10 100  11 100  47 101  48 101
M  END
>  <TORSDO>  (43) 
F 19

>  <SCORE>  (43) 
-16.640

>  <name>  (43) 
44

>  <ligand_id>  (43) 
44

>  <original_smiles>  (43) 
[H]c1nn(C([H])(C([H])([H])[H])C(C(=O)N2C([H])([H])C([H])([H])C([H])([H])C([H])(n3nc(-c4c([H])c([H])c(Oc5c([H])c([H])c(F)c([H])c5F)c([H])c4[H])c(C(=O)N([H])[H])c3N([H])[H])C2([H])[H])(C([H])([H])[H])C([H])([H])[H])c([H])c1C([H])([H])Oc1c([H])c([H])c2c(c1[H])C([H])([H])N(C(=O)C([H])(N([H])C(=O)C([H])(N([H])C([H])([H])[H])C([H])([H])[H])C(C([H])([H])[H])(C([H])([H])[H])C([H])([H])[H])C([H])(C(=O)N([H])C1([H])c3c([H])c([H])c([H])c([H])c3C([H])([H])C([H])([H])C1([H])[H])C2([H])[H]

>  <smiles>  (43) 
[H]c1nn(C([H])(C([H])([H])[H])C(C(=O)N2C([H])([H])C([H])([H])C([H])([H])C([H])(n3nc(-c4c([H])c([H])c(Oc5c([H])c([H])c(F)c([H])c5F)c([H])c4[H])c(C(=O)N([H])[H])c3N([H])[H])C2([H])[H])(C([H])([H])[H])C([H])([H])[H])c([H])c1C([H])([H])Oc1c([H])c([H])c2c(c1[H])C([H])([H])N(C(=O)C([H])(N([H])C(=O)C([H])(N([H])C([H])([H])[H])C([H])([H])[H])C(C([H])([H])[H])(C([H])([H])[H])C([H])([H])[H])C([H])(C(=O)N([H])C1([H])c3c([H])c([H])c([H])c([H])c3C([H])([H])C([H])([H])C1([H])[H])C2([H])[H]

$$$$
45:0:0
     RDKit          3D

 92100  0  0  1  0  0  0  0  0999 V2000
  -26.6650  -21.9260   22.0730 C   0  0  0  0  0  1  0  0  0  0  0  0
  -27.9940  -22.5090   21.7340 N   0  0  1  0  0  4  0  0  0  0  0  0
  -28.5480  -22.4480   22.5760 H   0  0  0  0  0  0  0  0  0  0  0  0
  -28.6950  -21.7440   20.6590 C   0  0  0  0  0  2  0  0  0  0  0  0
  -29.1190  -20.2800   21.0140 C   0  0  0  0  0  2  0  0  0  0  0  0
  -29.3730  -19.4750   19.7220 C   0  0  0  0  0  2  0  0  0  0  0  0
  -30.0290  -17.1450   20.8500 C   0  0  0  0  0  3  0  0  0  0  0  0
  -30.4300  -15.9210   20.2140 C   0  0  0  0  0  0  0  0  0  0  0  0
  -29.7850  -18.0240   19.8180 C   0  0  0  0  0  0  0  0  0  0  0  0
  -29.9750  -17.8030   17.2760 C   0  0  0  0  0  1  0  0  0  0  0  0
  -30.4130  -16.0570   18.8910 N   0  0  0  0  0  0  0  0  0  0  0  0
  -30.0250  -17.3240   18.6510 N   0  0  0  0  0  0  0  0  0  0  0  0
  -31.1060  -14.7610   20.9360 C   0  0  0  0  0  0  0  0  0  0  0  0
  -30.9290  -12.4880   20.0940 C   0  0  0  0  0  2  0  0  0  0  0  0
  -30.1370  -12.5610   18.7700 C   0  0  0  0  0  2  0  0  0  0  0  0
  -28.6160  -12.5100   19.0190 C   0  0  0  0  0  2  0  0  0  0  0  0
  -28.1420  -13.4580   20.1520 C   0  0  0  0  0  3  0  0  0  0  0  0
  -29.0620  -13.3840   21.3870 C   0  0  0  0  0  2  0  0  0  0  0  0
  -30.4490  -13.5750   20.9560 N   0  0  0  0  0  0  0  0  0  0  0  0
  -32.3340  -14.8430   21.0010 O   0  0  0  0  0  0  0  0  0  0  0  0
  -25.6950  -14.1210   20.5830 C   0  0  0  0  0  0  0  0  0  0  0  0
  -24.5770  -13.3790   20.8560 C   0  0  0  0  0  0  0  0  0  0  0  0
  -25.0160  -12.0220   20.9410 C   0  0  0  0  0  0  0  0  0  0  0  0
  -26.7430  -13.2180   20.5070 N   0  0  0  0  0  0  0  0  0  0  0  0
  -26.3330  -11.9550   20.7910 N   0  0  0  0  0  0  0  0  0  0  0  0
  -24.2530  -10.7780   21.0960 C   0  0  0  0  0  0  0  0  0  0  0  0
  -24.5800   -9.8330   22.0960 C   0  0  0  0  0  3  0  0  0  0  0  0
  -23.8280   -8.6480   22.2360 C   0  0  0  0  0  3  0  0  0  0  0  0
  -22.7320   -8.4000   21.3750 C   0  0  0  0  0  0  0  0  0  0  0  0
  -22.4240   -9.3300   20.3670 C   0  0  0  0  0  3  0  0  0  0  0  0
  -23.1760  -10.5080   20.2260 C   0  0  0  0  0  3  0  0  0  0  0  0
  -21.9480   -7.2710   21.4260 O   0  0  0  0  0  0  0  0  0  0  0  0
  -21.7880   -6.5610   22.5870 C   0  0  0  0  0  0  0  0  0  0  0  0
  -21.2760   -7.1560   23.7620 C   0  0  0  0  0  3  0  0  0  0  0  0
  -21.0630   -6.3710   24.9120 C   0  0  0  0  0  3  0  0  0  0  0  0
  -21.3410   -4.9910   24.8850 C   0  0  0  0  0  0  0  0  0  0  0  0
  -21.8410   -4.3950   23.7140 C   0  0  0  0  0  3  0  0  0  0  0  0
  -22.0610   -5.1780   22.5670 C   0  0  0  0  0  0  0  0  0  0  0  0
  -22.5220   -4.5970   21.4350 F   0  0  0  0  0  0  0  0  0  0  0  0
  -21.1290   -4.2350   25.9890 F   0  0  0  0  0  0  0  0  0  0  0  0
  -23.1610  -13.8820   20.9350 C   0  0  0  0  0  0  0  0  0  0  0  0
  -22.3230  -13.2480   21.7470 N   0  0  0  0  0  0  0  0  0  0  0  0
  -22.8040  -14.8780   20.3080 O   0  0  0  0  0  0  0  0  0  0  0  0
  -22.6180  -12.4510   22.2880 H   0  0  0  0  0  0  0  0  0  0  0  0
  -21.3690  -13.5730   21.8330 H   0  0  0  0  0  0  0  0  0  0  0  0
  -25.9070  -15.4790   20.3620 N   0  0  0  0  0  0  0  0  0  0  0  0
  -25.1480  -16.1520   20.3520 H   0  0  0  0  0  0  0  0  0  0  0  0
  -26.8040  -15.8850   20.1220 H   0  0  0  0  0  0  0  0  0  0  0  0
  -27.8500  -23.9630   21.4100 C   0  0  0  0  0  2  0  0  0  0  0  0
  -29.1430  -24.7890   21.5990 C   0  0  0  0  0  2  0  0  0  0  0  0
  -28.9140  -26.3250   21.6170 C   0  0  0  0  0  2  0  0  0  0  0  0
  -28.5590  -26.8320   20.3250 O   0  0  0  0  0  0  0  0  0  0  0  0
  -24.6840  -31.9880   23.3470 C   0  0  0  0  0  0  0  0  0  0  0  0
  -27.4150  -27.5960   20.3060 C   0  0  0  0  0  0  0  0  0  0  0  0
  -23.5160  -30.5830   21.6750 C   0  0  0  0  0  3  0  0  0  0  0  0
  -25.0090  -29.0720   20.2610 C   0  0  0  0  0  0  0  0  0  0  0  0
  -26.0370  -30.9720   21.5190 C   0  0  0  0  0  2  0  0  0  0  0  0
  -26.1490  -29.6010   20.8890 C   0  0  0  0  0  0  0  0  0  0  0  0
  -27.3500  -28.8640   20.9230 C   0  0  0  0  0  3  0  0  0  0  0  0
  -26.2780  -27.0860   19.6510 C   0  0  0  0  0  3  0  0  0  0  0  0
  -25.0730  -27.8160   19.6320 C   0  0  0  0  0  3  0  0  0  0  0  0
  -23.7540  -29.9140   20.2920 C   0  0  0  0  0  2  0  0  0  0  0  0
  -24.7630  -31.1960   22.2400 N   0  0  0  0  0  0  0  0  0  0  0  0
  -23.5900  -32.2420   23.8740 O   0  0  0  0  0  0  0  0  0  0  0  0
  -22.8620  -29.5490   22.6200 C   0  0  0  0  0  0  0  0  0  0  0  0
  -21.5400  -29.3600   22.4690 N   0  0  0  0  0  0  0  0  0  0  0  0
  -23.5430  -28.9260   23.4390 O   0  0  0  0  0  0  0  0  0  0  0  0
  -21.0490  -29.9290   21.7930 H   0  0  0  0  0  0  0  0  0  0  0  0
  -18.1670  -28.1450   22.9140 C   0  0  0  0  0  0  0  0  0  0  0  0
  -20.7180  -28.4110   23.2220 C   0  0  0  0  0  3  0  0  0  0  0  0
  -20.8340  -26.9860   22.6320 C   0  0  0  0  0  2  0  0  0  0  0  0
  -19.7430  -26.6690   21.6040 C   0  0  0  0  0  2  0  0  0  0  0  0
  -18.3530  -26.8050   22.2290 C   0  0  0  0  0  2  0  0  0  0  0  0
  -19.2750  -28.9070   23.3690 C   0  0  0  0  0  0  0  0  0  0  0  0
  -19.0440  -30.1660   23.9640 C   0  0  0  0  0  3  0  0  0  0  0  0
  -17.7340  -30.6610   24.1160 C   0  0  0  0  0  3  0  0  0  0  0  0
  -16.6400  -29.8970   23.6760 C   0  0  0  0  0  3  0  0  0  0  0  0
  -16.8570  -28.6430   23.0810 C   0  0  0  0  0  3  0  0  0  0  0  0
  -25.9550  -32.6240   23.9940 C   0  0  0  0  0  3  0  0  0  0  0  0
  -25.6390  -34.0210   24.3200 N   0  0  0  0  0  0  0  0  0  0  0  0
  -25.9760  -35.0710   23.5610 C   0  0  0  0  0  0  0  0  0  0  0  0
  -26.6660  -34.9660   22.5410 O   0  0  0  0  0  0  0  0  0  0  0  0
  -25.0460  -34.1760   25.1220 H   0  0  0  0  0  0  0  0  0  0  0  0
  -24.2440  -36.8460   23.1680 C   0  0  0  0  0  1  0  0  0  0  0  0
  -25.4730  -36.4570   24.0030 C   0  0  0  0  0  3  0  0  0  0  0  0
  -27.5910  -37.3550   24.8630 C   0  0  0  0  0  1  0  0  0  0  0  0
  -26.5000  -37.5210   23.9050 N   0  0  0  0  0  0  0  0  0  0  0  0
  -26.0850  -38.4370   24.0520 H   0  0  0  0  0  0  0  0  0  0  0  0
  -26.4520  -31.8520   25.2790 C   0  0  1  0  0  0  0  0  0  0  0  0
  -25.3360  -31.5980   26.3190 C   0  0  0  0  0  1  0  0  0  0  0  0
  -27.0570  -30.4850   24.8870 C   0  0  0  0  0  1  0  0  0  0  0  0
  -27.5820  -32.6520   25.9670 C   0  0  0  0  0  1  0  0  0  0  0  0
  2  1  1  0
  2  3  1  1
  4  5  1  0
  4  2  1  0
  6  9  1  0
  6  5  1  0
  8  7  1  0
  8 13  1  0
  9  7  2  0
 10 12  1  0
 11  8  2  0
 12 11  1  0
 12  9  1  0
 13 19  1  0
 13 20  2  0
 14 19  1  0
 15 16  1  0
 15 14  1  0
 17 16  1  0
 17 24  1  0
 17 18  1  0
 19 18  1  0
 21 22  2  0
 22 41  1  0
 22 23  1  0
 23 26  1  0
 24 21  1  0
 24 25  1  0
 25 23  2  0
 26 27  1  0
 27 28  2  0
 29 32  1  0
 29 28  1  0
 30 29  2  0
 31 30  1  0
 31 26  2  0
 32 33  1  0
 33 34  1  0
 34 35  2  0
 36 35  1  0
 36 40  1  0
 37 36  2  0
 38 33  2  0
 38 37  1  0
 39 38  1  0
 41 42  1  0
 42 45  1  0
 42 44  1  0
 43 41  2  0
 46 21  1  0
 47 46  1  0
 48 46  1  0
 49 50  1  0
 49  2  1  0
 50 51  1  0
 52 51  1  0
 53 64  2  0
 54 52  1  0
 54 59  1  0
 55 63  1  0
 55 65  1  0
 56 62  1  0
 56 58  1  0
 57 63  1  0
 58 59  2  0
 58 57  1  0
 60 54  2  0
 61 60  1  0
 61 56  2  0
 62 55  1  0
 63 53  1  0
 65 67  2  0
 66 65  1  0
 68 66  1  0
 69 78  2  0
 69 74  1  0
 70 66  1  0
 70 74  1  0
 71 70  1  0
 72 73  1  0
 72 71  1  0
 73 69  1  0
 74 75  2  0
 75 76  1  0
 77 76  2  0
 78 77  1  0
 79 53  1  0
 79 80  1  0
 79 89  1  0
 80 83  1  0
 81 85  1  0
 81 80  1  0
 82 81  2  0
 85 84  1  0
 87 85  1  0
 87 88  1  0
 87 86  1  0
 89 92  1  1
 89 90  1  0
 91 89  1  0
M  ISO  4   8 100  13 100  51 101  52 101
M  END
>  <TORSDO>  (44) 
F 23

>  <SCORE>  (44) 
-10.428

>  <name>  (44) 
45

>  <ligand_id>  (44) 
45

>  <original_smiles>  (44) 
[H]c1c([H])c([H])c2c(c1[H])C([H])([H])C([H])([H])C([H])([H])C2([H])N([H])C(=O)C1([H])N(C(=O)C([H])(N([H])C(=O)C([H])(N([H])C([H])([H])[H])C([H])([H])[H])C(C([H])([H])[H])(C([H])([H])[H])C([H])([H])[H])C([H])([H])c2c([H])c(OC([H])([H])C([H])([H])C([H])([H])[N+]([H])(C([H])([H])[H])C([H])([H])C([H])([H])C([H])([H])c3c([H])c(C(=O)N4C([H])([H])C([H])([H])C([H])([H])C([H])(n5nc(-c6c([H])c([H])c(Oc7c([H])c([H])c(F)c([H])c7F)c([H])c6[H])c(C(=O)N([H])[H])c5N([H])[H])C4([H])[H])nn3C([H])([H])[H])c([H])c([H])c2C1([H])[H]

>  <smiles>  (44) 
[H]c1c([H])c([H])c2c(c1[H])C([H])([H])C([H])([H])C([H])([H])C2([H])N([H])C(=O)C1([H])N(C(=O)C([H])(N([H])C(=O)C([H])(N([H])C([H])([H])[H])C([H])([H])[H])C(C([H])([H])[H])(C([H])([H])[H])C([H])([H])[H])C([H])([H])c2c([H])c(OC([H])([H])C([H])([H])C([H])([H])[N+]([H])(C([H])([H])[H])C([H])([H])C([H])([H])C([H])([H])c3c([H])c(C(=O)N4C([H])([H])C([H])([H])C([H])([H])C([H])(n5nc(-c6c([H])c([H])c(Oc7c([H])c([H])c(F)c([H])c7F)c([H])c6[H])c(C(=O)N([H])[H])c5N([H])[H])C4([H])[H])nn3C([H])([H])[H])c([H])c([H])c2C1([H])[H]

$$$$
46:0:0
     RDKit          3D

 88 96  0  0  1  0  0  0  0  0999 V2000
  -31.9940  -19.4750   20.7570 C   0  0  0  0  0  0  0  0  0  0  0  0
  -30.0070  -19.8810   20.1330 C   0  0  0  0  0  0  0  0  0  0  0  0
  -33.3750  -19.6920   21.2650 C   0  0  0  0  0  1  0  0  0  0  0  0
  -31.1370  -20.4900   20.4990 N   0  0  0  0  0  0  0  0  0  0  0  0
  -31.5370  -18.2540   20.5550 N   0  0  0  0  0  2  0  0  0  0  0  0
  -30.2490  -18.3880   20.1370 N   0  0  0  0  0  0  0  0  0  0  0  0
  -28.6600  -16.6930   21.1500 C   0  0  0  0  0  1  0  0  0  0  0  0
  -29.6510  -16.8510   19.9830 C   0  0  0  0  0  3  0  0  0  0  0  0
  -30.5250  -15.3180   19.8180 C   0  0  0  0  0  0  0  0  0  0  0  0
  -30.5380  -12.8480   19.0130 C   0  0  0  0  0  2  0  0  0  0  0  0
  -29.5570  -12.6260   17.8310 C   0  0  0  0  0  2  0  0  0  0  0  0
  -28.1270  -12.3560   18.3370 C   0  0  0  0  0  2  0  0  0  0  0  0
  -27.7270  -13.3170   19.4860 C   0  0  0  0  0  3  0  0  0  0  0  0
  -28.8330  -13.4490   20.5500 C   0  0  0  0  0  2  0  0  0  0  0  0
  -30.0270  -13.9820   19.8680 N   0  0  0  0  0  0  0  0  0  0  0  0
  -31.7190  -15.3310   19.4770 O   0  0  0  0  0  0  0  0  0  0  0  0
  -25.4100  -13.8560   20.4130 C   0  0  0  0  0  0  0  0  0  0  0  0
  -24.3730  -13.0680   20.8240 C   0  0  0  0  0  0  0  0  0  0  0  0
  -24.8260  -11.7180   20.7040 C   0  0  0  0  0  0  0  0  0  0  0  0
  -26.4300  -12.9870   20.0640 N   0  0  0  0  0  0  0  0  0  0  0  0
  -26.0940  -11.6920   20.3030 N   0  0  0  0  0  0  0  0  0  0  0  0
  -24.1040  -10.4520   20.8890 C   0  0  0  0  0  0  0  0  0  0  0  0
  -24.5300   -9.4870   21.8260 C   0  0  0  0  0  3  0  0  0  0  0  0
  -23.8030   -8.2890   22.0030 C   0  0  0  0  0  3  0  0  0  0  0  0
  -22.6380   -8.0470   21.2380 C   0  0  0  0  0  0  0  0  0  0  0  0
  -22.2290   -9.0020   20.2890 C   0  0  0  0  0  3  0  0  0  0  0  0
  -22.9560  -10.1910   20.1130 C   0  0  0  0  0  3  0  0  0  0  0  0
  -21.8870   -6.8990   21.3190 O   0  0  0  0  0  0  0  0  0  0  0  0
  -21.7370   -6.2180   22.5000 C   0  0  0  0  0  0  0  0  0  0  0  0
  -21.1750   -6.8250   23.6440 C   0  0  0  0  0  3  0  0  0  0  0  0
  -20.9740   -6.0690   24.8160 C   0  0  0  0  0  3  0  0  0  0  0  0
  -21.3290   -4.7070   24.8450 C   0  0  0  0  0  0  0  0  0  0  0  0
  -21.8870   -4.0990   23.7060 C   0  0  0  0  0  3  0  0  0  0  0  0
  -22.0880   -4.8520   22.5360 C   0  0  0  0  0  0  0  0  0  0  0  0
  -22.6050   -4.2570   21.4340 F   0  0  0  0  0  0  0  0  0  0  0  0
  -21.1320   -3.9790   25.9680 F   0  0  0  0  0  0  0  0  0  0  0  0
  -23.0010  -13.5400   21.2090 C   0  0  0  0  0  0  0  0  0  0  0  0
  -22.3340  -12.8190   22.1030 N   0  0  0  0  0  0  0  0  0  0  0  0
  -22.5330  -14.5830   20.7550 O   0  0  0  0  0  0  0  0  0  0  0  0
  -22.7280  -11.9730   22.4890 H   0  0  0  0  0  0  0  0  0  0  0  0
  -21.4210  -13.1200   22.4100 H   0  0  0  0  0  0  0  0  0  0  0  0
  -25.5590  -15.2320   20.2760 N   0  0  0  0  0  0  0  0  0  0  0  0
  -24.7890  -15.8710   20.4480 H   0  0  0  0  0  0  0  0  0  0  0  0
  -26.3630  -15.6890   19.8640 H   0  0  0  0  0  0  0  0  0  0  0  0
  -28.8620  -21.1250   19.8650 C   0  0  0  0  0  3  0  0  0  0  0  0
  -29.1010  -22.8950   20.0930 C   0  0  0  0  0  3  0  0  0  0  0  0
  -28.0800  -24.3570   19.9110 C   0  0  0  0  0  3  0  0  0  0  0  0
  -28.3190  -25.9650   20.1190 O   0  0  0  0  0  0  0  0  0  0  0  0
  -24.7070  -31.7940   23.2270 C   0  0  0  0  0  0  0  0  0  0  0  0
  -27.2940  -27.0410   20.0780 C   0  0  0  0  0  0  0  0  0  0  0  0
  -23.5280  -30.4530   21.5350 C   0  0  0  0  0  3  0  0  0  0  0  0
  -24.9880  -28.8990   20.0750 C   0  0  0  0  0  0  0  0  0  0  0  0
  -26.0930  -30.6730   21.4180 C   0  0  0  0  0  2  0  0  0  0  0  0
  -26.1700  -29.2900   20.7180 C   0  0  0  0  0  0  0  0  0  0  0  0
  -27.3180  -28.3830   20.6950 C   0  0  0  0  0  3  0  0  0  0  0  0
  -26.0840  -26.7950   19.3890 C   0  0  0  0  0  3  0  0  0  0  0  0
  -24.9680  -27.6720   19.3920 C   0  0  0  0  0  3  0  0  0  0  0  0
  -23.7700  -29.8190   20.1390 C   0  0  0  0  0  2  0  0  0  0  0  0
  -24.7970  -30.9970   22.1150 N   0  0  0  0  0  0  0  0  0  0  0  0
  -23.6130  -32.0680   23.7480 O   0  0  0  0  0  0  0  0  0  0  0  0
  -22.8250  -29.4260   22.4600 C   0  0  0  0  0  0  0  0  0  0  0  0
  -21.4940  -29.2760   22.3250 N   0  0  0  0  0  0  0  0  0  0  0  0
  -23.4850  -28.7670   23.2680 O   0  0  0  0  0  0  0  0  0  0  0  0
  -21.0160  -29.8600   21.6530 H   0  0  0  0  0  0  0  0  0  0  0  0
  -18.0980  -28.1080   22.8220 C   0  0  0  0  0  0  0  0  0  0  0  0
  -20.6640  -28.3170   23.0610 C   0  0  0  0  0  3  0  0  0  0  0  0
  -20.7360  -26.9130   22.4180 C   0  0  0  0  0  2  0  0  0  0  0  0
  -19.6130  -26.6570   21.4070 C   0  0  0  0  0  2  0  0  0  0  0  0
  -18.2430  -26.7930   22.0760 C   0  0  0  0  0  2  0  0  0  0  0  0
  -19.2350  -28.8300   23.2730 C   0  0  0  0  0  0  0  0  0  0  0  0
  -19.0450  -30.0620   23.9360 C   0  0  0  0  0  3  0  0  0  0  0  0
  -17.7520  -30.5700   24.1580 C   0  0  0  0  0  3  0  0  0  0  0  0
  -16.6280  -29.8450   23.7230 C   0  0  0  0  0  3  0  0  0  0  0  0
  -16.8020  -28.6170   23.0580 C   0  0  0  0  0  3  0  0  0  0  0  0
  -25.9740  -32.4180   23.8880 C   0  0  0  0  0  3  0  0  0  0  0  0
  -26.4380  -31.6440   25.1840 C   0  0  1  0  0  0  0  0  0  0  0  0
  -25.3060  -31.4240   26.2150 C   0  0  0  0  0  1  0  0  0  0  0  0
  -27.0170  -30.2560   24.8250 C   0  0  0  0  0  1  0  0  0  0  0  0
  -27.5730  -32.4300   25.8830 C   0  0  0  0  0  1  0  0  0  0  0  0
  -25.6660  -33.8190   24.2200 N   0  0  0  0  0  0  0  0  0  0  0  0
  -25.9900  -34.8770   23.4630 C   0  0  0  0  0  0  0  0  0  0  0  0
  -26.6420  -34.7740   22.4210 O   0  0  0  0  0  0  0  0  0  0  0  0
  -25.0800  -33.9710   25.0270 H   0  0  0  0  0  0  0  0  0  0  0  0
  -24.2420  -36.6710   23.1910 C   0  0  0  0  0  1  0  0  0  0  0  0
  -25.5220  -36.2670   23.9400 C   0  0  0  0  0  3  0  0  0  0  0  0
  -27.6830  -37.1750   24.6730 C   0  0  0  0  0  1  0  0  0  0  0  0
  -26.5440  -37.3230   23.7730 N   0  0  0  0  0  0  0  0  0  0  0  0
  -26.1380  -38.2420   23.9270 H   0  0  0  0  0  0  0  0  0  0  0  0
  1  3  1  0
  2  6  1  0
  2  4  1  0
  4  1  2  0
  5  1  1  0
  6  5  1  0
  8  6  1  0
  8  7  1  0
  9 15  1  0
  9  8  1  0
 10 15  1  0
 11 12  1  0
 11 10  1  0
 13 12  1  0
 13 20  1  0
 13 14  1  0
 15 14  1  0
 16  9  2  0
 17 18  2  0
 18 37  1  0
 19 18  1  0
 19 22  1  0
 20 21  1  0
 20 17  1  0
 21 19  2  0
 22 23  1  0
 23 24  2  0
 25 28  1  0
 25 24  1  0
 26 25  2  0
 27 26  1  0
 27 22  2  0
 28 29  1  0
 29 34  2  0
 29 30  1  0
 30 31  2  0
 31 32  1  0
 32 36  1  0
 33 32  2  0
 34 33  1  0
 35 34  1  0
 37 38  1  0
 38 41  1  0
 38 40  1  0
 39 37  2  0
 42 17  1  0
 42 43  1  0
 44 42  1  0
 45 46  1  0
 45  2  2  0
 47 46  2  0
 47 48  1  0
 49 60  2  0
 50 48  1  0
 50 55  1  0
 51 59  1  0
 51 61  1  0
 52 58  1  0
 52 54  1  0
 53 59  1  0
 54 53  1  0
 55 54  2  0
 56 57  1  0
 56 50  2  0
 57 52  2  0
 58 51  1  0
 59 49  1  0
 61 63  2  0
 62 61  1  0
 64 62  1  0
 65 74  2  0
 65 70  1  0
 66 62  1  0
 66 70  1  0
 67 66  1  0
 68 69  1  0
 68 67  1  0
 69 65  1  0
 70 71  2  0
 71 72  1  0
 73 72  2  0
 74 73  1  0
 75 49  1  0
 75 80  1  0
 75 76  1  0
 76 79  1  1
 76 77  1  0
 78 76  1  0
 80 83  1  0
 81 85  1  0
 81 80  1  0
 82 81  2  0
 85 84  1  0
 87 88  1  0
 87 85  1  0
 87 86  1  0
M  ISO  4   8 100   9 100  47 101  48 101
M  END
>  <TORSDO>  (45) 
F 20

>  <SCORE>  (45) 
-15.269

>  <name>  (45) 
46

>  <ligand_id>  (45) 
46

>  <original_smiles>  (45) 
[H]c1c([H])c([H])c2c(c1[H])C([H])([H])C([H])([H])C([H])([H])C2([H])N([H])C(=O)C1([H])N(C(=O)C([H])(N([H])C(=O)C([H])(N([H])C([H])([H])[H])C([H])([H])[H])C(C([H])([H])[H])(C([H])([H])[H])C([H])([H])[H])C([H])([H])c2c([H])c(OC([H])([H])C([H])([H])C([H])([H])c3nc(C([H])([H])[H])nn3C([H])(C(=O)N3C([H])([H])C([H])([H])C([H])([H])C([H])(n4nc(-c5c([H])c([H])c(Oc6c([H])c([H])c(F)c([H])c6F)c([H])c5[H])c(C(=O)N([H])[H])c4N([H])[H])C3([H])[H])C([H])([H])[H])c([H])c([H])c2C1([H])[H]

>  <smiles>  (45) 
[H]c1c([H])c([H])c2c(c1[H])C([H])([H])C([H])([H])C([H])([H])C2([H])N([H])C(=O)C1([H])N(C(=O)C([H])(N([H])C(=O)C([H])(N([H])C([H])([H])[H])C([H])([H])[H])C(C([H])([H])[H])(C([H])([H])[H])C([H])([H])[H])C([H])([H])c2c([H])c(OC([H])([H])C([H])([H])C([H])([H])c3nc(C([H])([H])[H])nn3C([H])(C(=O)N3C([H])([H])C([H])([H])C([H])([H])C([H])(n4nc(-c5c([H])c([H])c(Oc6c([H])c([H])c(F)c([H])c6F)c([H])c5[H])c(C(=O)N([H])[H])c4N([H])[H])C3([H])[H])C([H])([H])[H])c([H])c([H])c2C1([H])[H]

$$$$
47:0:0
     RDKit          3D

 90 90  0  0  1  0  0  0  0  0999 V2000
  -30.9210  -19.4480   20.8260 C   0  0  0  0  0  1  0  0  0  0  0  0
  -29.2810  -17.3260   18.0240 C   0  0  0  0  0 15  0  0  0  0  0  0
  -29.1590  -20.0710   20.2090 C   0  0  0  0  0  1  0  0  0  0  0  0
  -31.3610  -17.1160   18.3790 C   0  0  0  0  0  1  0  0  0  0  0  0
  -28.3670  -18.7140   19.1040 N   0  0  0  0  0 15  0  0  0  0  0  0
  -32.0960  -18.1700   19.9460 N   0  0  0  0  0 15  0  0  0  0  0  0
  -33.6070  -17.3240   17.2810 C   0  0  0  0  0  1  0  0  0  0  0  0
  -32.0920  -17.6770   17.2510 C   0  0  1  0  0  0  0  0  0  0  0  0
  -31.4970  -17.2620   16.1290 F   0  0  0  0  0  0  0  0  0  0  0  0
  -31.6220  -19.0970   17.6430 C   0  0  0  0  0  2  0  0  0  0  0  0
  -30.0690  -17.0740   20.3120 C   0  0  0  0  0  2  0  0  0  0  0  0
  -30.4020  -14.2070   19.3550 C   0  0  0  0  0  2  0  0  0  0  0  0
  -29.6480  -13.2890   18.2880 C   0  0  0  0  0  2  0  0  0  0  0  0
  -28.3410  -12.6870   18.8170 C   0  0  0  0  0  2  0  0  0  0  0  0
  -27.6740  -13.7210   19.7280 C   0  0  0  0  0  3  0  0  0  0  0  0
  -28.6670  -14.5000   20.7140 C   0  0  0  0  0  2  0  0  0  0  0  0
  -29.6400  -15.5040   19.9720 N   0  0  0  0  0  0  0  0  0  0  0  0
  -30.9470  -16.3170   20.9100 O   0  0  0  0  0  1  0  0  0  0  0  0
  -30.5860  -18.9880   18.7900 N   0  0  0  0  0  2  0  0  0  0  0  0
  -29.7000  -19.4460   18.6090 H   0  0  0  0  0  0  0  0  0  0  0  0
  -25.2880  -14.1070   20.4730 C   0  0  0  0  0  0  0  0  0  0  0  0
  -24.2330  -13.3050   20.8060 C   0  0  0  0  0  0  0  0  0  0  0  0
  -24.7300  -11.9620   20.7950 C   0  0  0  0  0  0  0  0  0  0  0  0
  -26.3710  -13.2790   20.2730 N   0  0  0  0  0  0  0  0  0  0  0  0
  -26.0410  -11.9700   20.5110 N   0  0  0  0  0  0  0  0  0  0  0  0
  -23.9990  -10.6870   20.9780 C   0  0  0  0  0  0  0  0  0  0  0  0
  -24.3790   -9.7350   21.9510 C   0  0  0  0  0  3  0  0  0  0  0  0
  -23.6340   -8.5480   22.1320 C   0  0  0  0  0  3  0  0  0  0  0  0
  -22.4960   -8.2890   21.3340 C   0  0  0  0  0  0  0  0  0  0  0  0
  -22.1240   -9.2300   20.3560 C   0  0  0  0  0  3  0  0  0  0  0  0
  -22.8720  -10.4080   20.1740 C   0  0  0  0  0  3  0  0  0  0  0  0
  -21.7430   -7.1420   21.4120 O   0  0  0  0  0  0  0  0  0  0  0  0
  -21.6290   -6.4230   22.5760 C   0  0  0  0  0  0  0  0  0  0  0  0
  -21.1120   -6.9980   23.7580 C   0  0  0  0  0  3  0  0  0  0  0  0
  -20.9490   -6.2090   24.9120 C   0  0  0  0  0  3  0  0  0  0  0  0
  -21.2980   -4.8460   24.8900 C   0  0  0  0  0  0  0  0  0  0  0  0
  -21.8140   -4.2700   23.7170 C   0  0  0  0  0  3  0  0  0  0  0  0
  -21.9700   -5.0540   22.5600 C   0  0  0  0  0  0  0  0  0  0  0  0
  -22.4440   -4.4860   21.4240 F   0  0  0  0  0  0  0  0  0  0  0  0
  -21.1360   -4.0860   25.9990 F   0  0  0  0  0  0  0  0  0  0  0  0
  -22.8200  -13.7640   21.0210 C   0  0  0  0  0  0  0  0  0  0  0  0
  -22.0590  -13.0710   21.8630 N   0  0  0  0  0  0  0  0  0  0  0  0
  -22.3900  -14.7740   20.4670 O   0  0  0  0  0  0  0  0  0  0  0  0
  -22.4120  -12.2540   22.3420 H   0  0  0  0  0  0  0  0  0  0  0  0
  -21.1150  -13.3860   22.0530 H   0  0  0  0  0  0  0  0  0  0  0  0
  -25.4260  -15.4760   20.2760 N   0  0  0  0  0  0  0  0  0  0  0  0
  -24.6650  -16.1390   20.3560 H   0  0  0  0  0  0  0  0  0  0  0  0
  -26.2870  -15.8990   19.9510 H   0  0  0  0  0  0  0  0  0  0  0  0
  -28.2700  -22.2280   20.2910 C   0  0  0  0  0 15  0  0  0  0  0  0
  -28.1990  -24.4350   20.3320 O   0  0  0  0  0  1  0  0  0  0  0  0
  -24.6240  -31.7720   23.0940 C   0  0  0  0  0  0  0  0  0  0  0  0
  -27.2620  -25.9830   20.3190 C   0  0  0  0  0  0  0  0  0  0  0  0
  -23.5090  -30.3080   21.4750 C   0  0  0  0  0  3  0  0  0  0  0  0
  -25.0110  -28.4830   20.1810 C   0  0  0  0  0  0  0  0  0  0  0  0
  -26.1160  -30.2410   21.4960 C   0  0  0  0  0  2  0  0  0  0  0  0
  -26.2060  -28.7120   20.8700 C   0  0  0  0  0  0  0  0  0  0  0  0
  -27.2670  -27.5280   20.8770 C   0  0  0  0  0  3  0  0  0  0  0  0
  -26.0040  -26.1610   19.5800 C   0  0  0  0  0  3  0  0  0  0  0  0
  -25.0010  -27.2360   19.5050 C   0  0  0  0  0  3  0  0  0  0  0  0
  -23.8220  -29.5090   20.1590 C   0  0  0  0  0  2  0  0  0  0  0  0
  -24.7840  -30.8280   22.0740 N   0  0  0  0  0  0  0  0  0  0  0  0
  -23.5040  -32.1030   23.5280 O   0  0  0  0  0  0  0  0  0  0  0  0
  -22.7040  -29.4240   22.4740 C   0  0  0  0  0  0  0  0  0  0  0  0
  -21.3660  -29.3040   22.3340 N   0  0  0  0  0  0  0  0  0  0  0  0
  -23.3120  -28.8300   23.3670 O   0  0  0  0  0  0  0  0  0  0  0  0
  -20.9190  -29.8400   21.6010 H   0  0  0  0  0  0  0  0  0  0  0  0
  -17.9440  -28.1200   22.8570 C   0  0  0  0  0  0  0  0  0  0  0  0
  -20.5090  -28.3860   23.1110 C   0  0  0  0  0  3  0  0  0  0  0  0
  -20.5990  -26.9470   22.5500 C   0  0  0  0  0  2  0  0  0  0  0  0
  -19.4990  -26.6260   21.5340 C   0  0  0  0  0  2  0  0  0  0  0  0
  -18.1180  -26.7730   22.1780 C   0  0  0  0  0  2  0  0  0  0  0  0
  -19.0640  -28.8860   23.2800 C   0  0  0  0  0  0  0  0  0  0  0  0
  -18.8420  -30.1400   23.8870 C   0  0  0  0  0  3  0  0  0  0  0  0
  -17.5350  -30.6290   24.0710 C   0  0  0  0  0  3  0  0  0  0  0  0
  -16.4310  -29.8620   23.6630 C   0  0  0  0  0  3  0  0  0  0  0  0
  -16.6360  -28.6090   23.0590 C   0  0  0  0  0  3  0  0  0  0  0  0
  -25.8240  -32.4970   23.7870 C   0  0  0  0  0  3  0  0  0  0  0  0
  -26.2610  -31.8010   25.1350 C   0  0  1  0  0  0  0  0  0  0  0  0
  -25.1090  -31.6070   26.1500 C   0  0  0  0  0  1  0  0  0  0  0  0
  -26.8750  -30.4110   24.8750 C   0  0  0  0  0  1  0  0  0  0  0  0
  -27.3660  -32.6390   25.8220 C   0  0  0  0  0  1  0  0  0  0  0  0
  -25.4530  -33.9070   24.0800 N   0  0  0  0  0  0  0  0  0  0  0  0
  -25.8210  -34.9850   23.3700 C   0  0  0  0  0  0  0  0  0  0  0  0
  -26.5490  -34.9000   22.3790 O   0  0  0  0  0  0  0  0  0  0  0  0
  -24.8030  -34.0420   24.8380 H   0  0  0  0  0  0  0  0  0  0  0  0
  -24.1210  -36.8110   22.9630 C   0  0  0  0  0  1  0  0  0  0  0  0
  -25.3190  -36.3780   23.8250 C   0  0  0  0  0  3  0  0  0  0  0  0
  -27.4040  -37.2670   24.7780 C   0  0  0  0  0  1  0  0  0  0  0  0
  -26.3550  -37.4360   23.7760 N   0  0  0  0  0  0  0  0  0  0  0  0
  -25.9420  -38.3550   23.9040 H   0  0  0  0  0  0  0  0  0  0  0  0
  3  1  1  0
  8  7  1  6
  8 10  1  0
  8  4  1  0
  9  8  1  0
 10 19  1  0
 11 18  1  0
 12 17  1  0
 13 14  1  0
 13 12  1  0
 15 14  1  0
 15 24  1  0
 15 16  1  0
 17 11  1  0
 17 16  1  0
 20 19  1  0
 21 22  2  0
 22 41  1  0
 23 22  1  0
 23 26  1  0
 24 21  1  0
 24 25  1  0
 25 23  2  0
 26 27  1  0
 27 28  2  0
 29 32  1  0
 29 28  1  0
 30 29  2  0
 31 30  1  0
 31 26  2  0
 32 33  1  0
 33 34  1  0
 34 35  2  0
 36 35  1  0
 36 40  1  0
 37 36  2  0
 38 33  2  0
 38 37  1  0
 39 38  1  0
 41 42  1  0
 42 45  1  0
 42 44  1  0
 43 41  2  0
 46 47  1  0
 46 21  1  0
 48 46  1  0
 51 62  2  0
 52 50  1  0
 52 57  1  0
 53 61  1  0
 53 63  1  0
 54 56  1  0
 55 61  1  0
 56 57  2  0
 56 55  1  0
 58 52  2  0
 59 58  1  0
 59 54  2  0
 60 54  1  0
 60 53  1  0
 61 51  1  0
 63 65  2  0
 64 63  1  0
 66 64  1  0
 67 76  2  0
 67 72  1  0
 68 64  1  0
 68 72  1  0
 69 68  1  0
 70 71  1  0
 70 69  1  0
 71 67  1  0
 72 73  2  0
 73 74  1  0
 75 74  2  0
 76 75  1  0
 77 51  1  0
 77 82  1  0
 77 78  1  0
 78 81  1  1
 78 79  1  0
 80 78  1  0
 82 85  1  0
 83 87  1  0
 83 82  1  0
 84 83  2  0
 87 86  1  0
 89 87  1  0
 89 90  1  0
 89 88  1  0
M  ISO  4  11 100  19 100  49 101  50 101
M  END
>  <TORSDO>  (46) 
F 19

>  <SCORE>  (46) 
-15.274

>  <name>  (46) 
47

>  <ligand_id>  (46) 
47

>  <original_smiles>  (46) 
[H]c1nc(C(F)(C([H])([H])[H])C([H])([H])N([H])C(=O)N2C([H])([H])C([H])([H])C([H])([H])C([H])(n3nc(-c4c([H])c([H])c(Oc5c([H])c([H])c(F)c([H])c5F)c([H])c4[H])c(C(=O)N([H])[H])c3N([H])[H])C2([H])[H])c([H])nc1C([H])([H])Oc1c([H])c([H])c2c(c1[H])C([H])([H])N(C(=O)C([H])(N([H])C(=O)C([H])(N([H])C([H])([H])[H])C([H])([H])[H])C(C([H])([H])[H])(C([H])([H])[H])C([H])([H])[H])C([H])(C(=O)N([H])C1([H])c3c([H])c([H])c([H])c([H])c3C([H])([H])C([H])([H])C1([H])[H])C2([H])[H]

>  <smiles>  (46) 
[H]c1nc(C(F)(C([H])([H])[H])C([H])([H])N([H])C(=O)N2C([H])([H])C([H])([H])C([H])([H])C([H])(n3nc(-c4c([H])c([H])c(Oc5c([H])c([H])c(F)c([H])c5F)c([H])c4[H])c(C(=O)N([H])[H])c3N([H])[H])C2([H])[H])c([H])nc1C([H])([H])Oc1c([H])c([H])c2c(c1[H])C([H])([H])N(C(=O)C([H])(N([H])C(=O)C([H])(N([H])C([H])([H])[H])C([H])([H])[H])C(C([H])([H])[H])(C([H])([H])[H])C([H])([H])[H])C([H])(C(=O)N([H])C1([H])c3c([H])c([H])c([H])c([H])c3C([H])([H])C([H])([H])C1([H])[H])C2([H])[H]

$$$$
48:0:0
     RDKit          3D

 88 96  0  0  1  0  0  0  0  0999 V2000
  -27.9310  -21.6240   19.6210 C   0  0  0  0  0  2  0  0  0  0  0  0
  -29.1520  -20.0680   20.3830 C   0  0  0  0  0  0  0  0  0  0  0  0
  -28.0180  -20.2820   19.6370 N   0  0  0  0  0  0  0  0  0  0  0  0
  -29.7250  -21.2430   20.7760 N   0  0  0  0  0  2  0  0  0  0  0  0
  -28.8980  -22.2690   20.2850 N   0  0  0  0  0  0  0  0  0  0  0  0
  -29.5200  -18.6230   20.9310 C   0  0  0  0  0  3  0  0  0  0  0  0
  -30.1590  -17.3890   20.0560 C   0  0  0  0  0  3  0  0  0  0  0  0
  -30.7160  -14.7970   20.0180 C   0  0  0  0  0  0  0  0  0  0  0  0
  -30.3710  -12.5620   18.9120 C   0  0  0  0  0  2  0  0  0  0  0  0
  -29.3580  -12.7010   17.7530 C   0  0  0  0  0  2  0  0  0  0  0  0
  -27.9160  -12.5250   18.2690 C   0  0  0  0  0  2  0  0  0  0  0  0
  -27.6410  -13.3590   19.5510 C   0  0  0  0  0  3  0  0  0  0  0  0
  -28.7740  -13.2140   20.5900 C   0  0  0  0  0  2  0  0  0  0  0  0
  -30.0360  -13.5880   19.9350 N   0  0  0  0  0  0  0  0  0  0  0  0
  -31.7960  -14.9060   19.4280 O   0  0  0  0  0  0  0  0  0  0  0  0
  -30.0130  -15.9070   22.0510 C   0  0  0  0  0  1  0  0  0  0  0  0
  -30.1180  -15.9310   20.5900 N   0  0  0  0  0  0  0  0  0  0  0  0
  -25.3120  -13.9480   20.4620 C   0  0  0  0  0  0  0  0  0  0  0  0
  -24.2600  -13.1730   20.8780 C   0  0  0  0  0  0  0  0  0  0  0  0
  -24.7030  -11.8210   20.7720 C   0  0  0  0  0  0  0  0  0  0  0  0
  -26.3260  -13.0650   20.1230 N   0  0  0  0  0  0  0  0  0  0  0  0
  -25.9710  -11.7780   20.3740 N   0  0  0  0  0  0  0  0  0  0  0  0
  -23.9720  -10.5630   20.9720 C   0  0  0  0  0  0  0  0  0  0  0  0
  -24.4380   -9.5690   21.8600 C   0  0  0  0  0  3  0  0  0  0  0  0
  -23.7070   -8.3760   22.0490 C   0  0  0  0  0  3  0  0  0  0  0  0
  -22.4930   -8.1690   21.3560 C   0  0  0  0  0  0  0  0  0  0  0  0
  -22.0420   -9.1510   20.4560 C   0  0  0  0  0  3  0  0  0  0  0  0
  -22.7740  -10.3360   20.2640 C   0  0  0  0  0  3  0  0  0  0  0  0
  -21.7250   -7.0350   21.4640 O   0  0  0  0  0  0  0  0  0  0  0  0
  -21.7100   -6.2790   22.6070 C   0  0  0  0  0  0  0  0  0  0  0  0
  -21.3580   -6.8270   23.8610 C   0  0  0  0  0  3  0  0  0  0  0  0
  -21.2940   -5.9980   24.9990 C   0  0  0  0  0  3  0  0  0  0  0  0
  -21.5650   -4.6220   24.8830 C   0  0  0  0  0  0  0  0  0  0  0  0
  -21.9070   -4.0710   23.6350 C   0  0  0  0  0  3  0  0  0  0  0  0
  -21.9780   -4.8990   22.5010 C   0  0  0  0  0  0  0  0  0  0  0  0
  -22.2880   -4.3590   21.2960 F   0  0  0  0  0  0  0  0  0  0  0  0
  -21.4940   -3.8240   25.9740 F   0  0  0  0  0  0  0  0  0  0  0  0
  -22.8930  -13.6610   21.2590 C   0  0  0  0  0  0  0  0  0  0  0  0
  -22.2180  -12.9590   22.1640 N   0  0  0  0  0  0  0  0  0  0  0  0
  -22.4340  -14.7030   20.7940 O   0  0  0  0  0  0  0  0  0  0  0  0
  -22.6010  -12.1200   22.5740 H   0  0  0  0  0  0  0  0  0  0  0  0
  -21.3020  -13.2690   22.4570 H   0  0  0  0  0  0  0  0  0  0  0  0
  -25.4870  -15.3200   20.3200 N   0  0  0  0  0  0  0  0  0  0  0  0
  -24.7470  -15.9840   20.5220 H   0  0  0  0  0  0  0  0  0  0  0  0
  -26.3350  -15.7650   19.9880 H   0  0  0  0  0  0  0  0  0  0  0  0
  -29.1510  -23.7700   20.4860 C   0  0  0  0  0  3  0  0  0  0  0  0
  -28.0670  -24.8860   20.0260 C   0  0  0  0  0  3  0  0  0  0  0  0
  -28.3090  -26.3680   20.1940 O   0  0  0  0  0  0  0  0  0  0  0  0
  -24.6620  -31.8750   23.1920 C   0  0  0  0  0  0  0  0  0  0  0  0
  -27.2170  -27.2670   20.1210 C   0  0  0  0  0  0  0  0  0  0  0  0
  -23.4400  -30.4850   21.5570 C   0  0  0  0  0  3  0  0  0  0  0  0
  -24.8710  -28.9320   20.1110 C   0  0  0  0  0  0  0  0  0  0  0  0
  -25.9850  -30.7780   21.3630 C   0  0  0  0  0  2  0  0  0  0  0  0
  -26.0490  -29.4010   20.7080 C   0  0  0  0  0  0  0  0  0  0  0  0
  -27.2240  -28.5810   20.6970 C   0  0  0  0  0  3  0  0  0  0  0  0
  -26.0170  -26.8700   19.4890 C   0  0  0  0  0  3  0  0  0  0  0  0
  -24.8610  -27.6770   19.4860 C   0  0  0  0  0  3  0  0  0  0  0  0
  -23.6430  -29.8230   20.1700 C   0  0  0  0  0  2  0  0  0  0  0  0
  -24.7140  -31.0670   22.0940 N   0  0  0  0  0  0  0  0  0  0  0  0
  -23.5850  -32.1530   23.7380 O   0  0  0  0  0  0  0  0  0  0  0  0
  -22.7830  -29.4630   22.5220 C   0  0  0  0  0  0  0  0  0  0  0  0
  -21.4540  -29.2940   22.4160 N   0  0  0  0  0  0  0  0  0  0  0  0
  -23.4700  -28.8350   23.3330 O   0  0  0  0  0  0  0  0  0  0  0  0
  -20.9580  -29.8660   21.7470 H   0  0  0  0  0  0  0  0  0  0  0  0
  -18.0790  -28.0890   22.9360 C   0  0  0  0  0  0  0  0  0  0  0  0
  -20.6390  -28.3570   23.1930 C   0  0  0  0  0  3  0  0  0  0  0  0
  -20.7400  -26.9220   22.6230 C   0  0  0  0  0  2  0  0  0  0  0  0
  -19.6340  -26.5930   21.6160 C   0  0  0  0  0  2  0  0  0  0  0  0
  -18.2560  -26.7360   22.2670 C   0  0  0  0  0  2  0  0  0  0  0  0
  -19.2000  -28.8560   23.3570 C   0  0  0  0  0  0  0  0  0  0  0  0
  -18.9810  -30.1200   23.9450 C   0  0  0  0  0  3  0  0  0  0  0  0
  -17.6770  -30.6180   24.1190 C   0  0  0  0  0  3  0  0  0  0  0  0
  -16.5710  -29.8490   23.7160 C   0  0  0  0  0  3  0  0  0  0  0  0
  -16.7730  -28.5870   23.1290 C   0  0  0  0  0  3  0  0  0  0  0  0
  -25.9500  -32.5080   23.8000 C   0  0  0  0  0  3  0  0  0  0  0  0
  -26.4860  -31.7330   25.0660 C   0  0  1  0  0  0  0  0  0  0  0  0
  -25.4130  -31.4950   26.1550 C   0  0  0  0  0  1  0  0  0  0  0  0
  -27.0630  -30.3580   24.6640 C   0  0  0  0  0  1  0  0  0  0  0  0
  -27.6420  -32.5300   25.7160 C   0  0  0  0  0  1  0  0  0  0  0  0
  -25.6400  -33.9030   24.1470 N   0  0  0  0  0  0  0  0  0  0  0  0
  -25.9480  -34.9660   23.3910 C   0  0  0  0  0  0  0  0  0  0  0  0
  -26.5980  -34.8770   22.3450 O   0  0  0  0  0  0  0  0  0  0  0  0
  -25.0710  -34.0470   24.9690 H   0  0  0  0  0  0  0  0  0  0  0  0
  -24.2020  -36.7560   23.0980 C   0  0  0  0  0  1  0  0  0  0  0  0
  -25.4640  -36.3480   23.8750 C   0  0  0  0  0  3  0  0  0  0  0  0
  -27.6140  -37.2370   24.6580 C   0  0  0  0  0  1  0  0  0  0  0  0
  -26.4860  -37.4120   23.7490 N   0  0  0  0  0  0  0  0  0  0  0  0
  -26.0760  -38.3250   23.9250 H   0  0  0  0  0  0  0  0  0  0  0  0
  1  3  1  0
  1  5  1  0
  2  4  1  0
  2  6  1  0
  3  2  2  0
  5 46  1  0
  5  4  1  0
  7 17  1  0
  7  6  2  0
  8 17  1  0
  9 14  1  0
 10 11  1  0
 10  9  1  0
 12 11  1  0
 12 21  1  0
 12 13  1  0
 14  8  1  0
 14 13  1  0
 15  8  2  0
 17 16  1  0
 18 19  2  0
 19 38  1  0
 20 19  1  0
 20 23  1  0
 21 22  1  0
 21 18  1  0
 22 20  2  0
 23 24  1  0
 24 25  2  0
 26 29  1  0
 26 25  1  0
 27 26  2  0
 28 27  1  0
 28 23  2  0
 29 30  1  0
 30 31  1  0
 31 32  2  0
 33 32  1  0
 33 37  1  0
 34 33  2  0
 35 30  2  0
 35 34  1  0
 36 35  1  0
 38 39  1  0
 39 42  1  0
 39 41  1  0
 40 38  2  0
 43 18  1  0
 43 44  1  0
 45 43  1  0
 47 48  1  0
 47 46  2  0
 49 60  2  0
 50 48  1  0
 50 55  1  0
 51 59  1  0
 51 61  1  0
 52 58  1  0
 52 54  1  0
 53 59  1  0
 54 53  1  0
 55 54  2  0
 56 50  2  0
 57 56  1  0
 57 52  2  0
 58 51  1  0
 59 49  1  0
 61 63  2  0
 62 61  1  0
 64 62  1  0
 65 74  2  0
 65 70  1  0
 66 62  1  0
 66 70  1  0
 67 66  1  0
 68 69  1  0
 68 67  1  0
 69 65  1  0
 70 71  2  0
 71 72  1  0
 73 72  2  0
 74 73  1  0
 75 49  1  0
 75 80  1  0
 75 76  1  0
 76 79  1  1
 76 77  1  0
 78 76  1  0
 80 83  1  0
 81 85  1  0
 81 80  1  0
 82 81  2  0
 85 84  1  0
 87 85  1  0
 87 88  1  0
 87 86  1  0
M  ISO  4   8 100  17 100  47 101  48 101
M  END
>  <TORSDO>  (47) 
F 20

>  <SCORE>  (47) 
-13.194

>  <name>  (47) 
48

>  <ligand_id>  (47) 
48

>  <original_smiles>  (47) 
[H]c1c([H])c([H])c2c(c1[H])C([H])([H])C([H])([H])C([H])([H])C2([H])N([H])C(=O)C1([H])N(C(=O)C([H])(N([H])C(=O)C([H])(N([H])C([H])([H])[H])C([H])([H])[H])C(C([H])([H])[H])(C([H])([H])[H])C([H])([H])[H])C([H])([H])c2c([H])c(OC([H])([H])C([H])([H])n3nc(C([H])([H])C([H])([H])N(C(=O)N4C([H])([H])C([H])([H])C([H])([H])C([H])(n5nc(-c6c([H])c([H])c(Oc7c([H])c([H])c(F)c([H])c7F)c([H])c6[H])c(C(=O)N([H])[H])c5N([H])[H])C4([H])[H])C([H])([H])[H])nc3[H])c([H])c([H])c2C1([H])[H]

>  <smiles>  (47) 
[H]c1c([H])c([H])c2c(c1[H])C([H])([H])C([H])([H])C([H])([H])C2([H])N([H])C(=O)C1([H])N(C(=O)C([H])(N([H])C(=O)C([H])(N([H])C([H])([H])[H])C([H])([H])[H])C(C([H])([H])[H])(C([H])([H])[H])C([H])([H])[H])C([H])([H])c2c([H])c(OC([H])([H])C([H])([H])n3nc(C([H])([H])C([H])([H])N(C(=O)N4C([H])([H])C([H])([H])C([H])([H])C([H])(n5nc(-c6c([H])c([H])c(Oc7c([H])c([H])c(F)c([H])c7F)c([H])c6[H])c(C(=O)N([H])[H])c5N([H])[H])C4([H])[H])C([H])([H])[H])nc3[H])c([H])c([H])c2C1([H])[H]

$$$$
49:0:0
     RDKit          3D

 95103  0  0  1  0  0  0  0  0999 V2000
  -29.1130  -23.5130   21.7030 C   0  0  0  0  0  3  0  0  0  0  0  0
  -29.3540  -24.7670   21.0740 C   0  0  0  0  0  0  0  0  0  0  0  0
  -29.9640  -22.6330   21.0880 C   0  0  0  0  0  0  0  0  0  0  0  0
  -31.7010  -22.9590   19.2150 C   0  0  0  0  0  1  0  0  0  0  0  0
  -30.2960  -24.6670   20.1440 N   0  0  0  0  0  0  0  0  0  0  0  0
  -30.6680  -23.3690   20.1470 N   0  0  0  0  0  0  0  0  0  0  0  0
  -28.6830  -26.0930   21.3410 C   0  0  0  0  0  2  0  0  0  0  0  0
  -28.3930  -26.7820   20.1250 O   0  0  0  0  0  0  0  0  0  0  0  0
  -24.5860  -31.9140   23.2620 C   0  0  0  0  0  0  0  0  0  0  0  0
  -27.2390  -27.5140   20.1660 C   0  0  0  0  0  0  0  0  0  0  0  0
  -23.3760  -30.5090   21.6210 C   0  0  0  0  0  3  0  0  0  0  0  0
  -24.8320  -28.9750   20.1960 C   0  0  0  0  0  0  0  0  0  0  0  0
  -25.8960  -30.8830   21.4130 C   0  0  0  0  0  2  0  0  0  0  0  0
  -25.9860  -29.5120   20.7830 C   0  0  0  0  0  0  0  0  0  0  0  0
  -27.1940  -28.7840   20.7770 C   0  0  0  0  0  3  0  0  0  0  0  0
  -26.0780  -26.9820   19.5720 C   0  0  0  0  0  3  0  0  0  0  0  0
  -24.8700  -27.7040   19.5940 C   0  0  0  0  0  3  0  0  0  0  0  0
  -23.5830  -29.8270   20.2430 C   0  0  0  0  0  2  0  0  0  0  0  0
  -24.6380  -31.1180   22.1580 N   0  0  0  0  0  0  0  0  0  0  0  0
  -23.5050  -32.1830   23.8050 O   0  0  0  0  0  0  0  0  0  0  0  0
  -22.7350  -29.4860   22.5840 C   0  0  0  0  0  0  0  0  0  0  0  0
  -21.4110  -29.2950   22.4540 N   0  0  0  0  0  0  0  0  0  0  0  0
  -23.4210  -28.8640   23.3990 O   0  0  0  0  0  0  0  0  0  0  0  0
  -20.9170  -29.8500   21.7670 H   0  0  0  0  0  0  0  0  0  0  0  0
  -18.0470  -28.0770   22.9390 C   0  0  0  0  0  0  0  0  0  0  0  0
  -20.6000  -28.3540   23.2240 C   0  0  0  0  0  3  0  0  0  0  0  0
  -20.7170  -26.9230   22.6540 C   0  0  0  0  0  2  0  0  0  0  0  0
  -19.6230  -26.5870   21.6350 C   0  0  0  0  0  2  0  0  0  0  0  0
  -18.2370  -26.7250   22.2700 C   0  0  0  0  0  2  0  0  0  0  0  0
  -19.1570  -28.8490   23.3710 C   0  0  0  0  0  0  0  0  0  0  0  0
  -18.9270  -30.1140   23.9530 C   0  0  0  0  0  3  0  0  0  0  0  0
  -17.6190  -30.6090   24.1090 C   0  0  0  0  0  3  0  0  0  0  0  0
  -16.5210  -29.8350   23.6910 C   0  0  0  0  0  3  0  0  0  0  0  0
  -16.7370  -28.5710   23.1130 C   0  0  0  0  0  3  0  0  0  0  0  0
  -25.8730  -32.5460   23.8770 C   0  0  0  0  0  3  0  0  0  0  0  0
  -25.5680  -33.9460   24.2000 N   0  0  0  0  0  0  0  0  0  0  0  0
  -25.9080  -34.9930   23.4360 C   0  0  0  0  0  0  0  0  0  0  0  0
  -26.5850  -34.8830   22.4110 O   0  0  0  0  0  0  0  0  0  0  0  0
  -24.9670  -34.1060   24.9960 H   0  0  0  0  0  0  0  0  0  0  0  0
  -24.1850  -36.7860   23.0570 C   0  0  0  0  0  1  0  0  0  0  0  0
  -25.4180  -36.3830   23.8820 C   0  0  0  0  0  3  0  0  0  0  0  0
  -27.5510  -37.2630   24.7220 C   0  0  0  0  0  1  0  0  0  0  0  0
  -26.4540  -37.4360   23.7740 N   0  0  0  0  0  0  0  0  0  0  0  0
  -26.0470  -38.3540   23.9250 H   0  0  0  0  0  0  0  0  0  0  0  0
  -26.3950  -31.7780   25.1540 C   0  0  1  0  0  0  0  0  0  0  0  0
  -25.3060  -31.5420   26.2260 C   0  0  0  0  0  1  0  0  0  0  0  0
  -26.9780  -30.4000   24.7610 C   0  0  0  0  0  1  0  0  0  0  0  0
  -27.5450  -32.5740   25.8110 C   0  0  0  0  0  1  0  0  0  0  0  0
  -30.1470  -21.1520   21.3280 C   0  0  0  0  0  2  0  0  0  0  0  0
  -28.0460  -20.6270   20.1140 C   0  0  0  0  0  1  0  0  0  0  0  0
  -29.4720  -20.2680   20.3350 N   0  0  2  0  0  4  0  0  0  0  0  0
  -29.9370  -20.4230   19.4530 H   0  0  0  0  0  0  0  0  0  0  0  0
  -29.6450  -18.8130   20.6270 C   0  0  0  0  0  2  0  0  0  0  0  0
  -29.5830  -18.4550   18.0790 C   0  0  0  0  0  1  0  0  0  0  0  0
  -31.7160  -18.0790   19.3390 C   0  0  0  0  0  1  0  0  0  0  0  0
  -30.1810  -17.9650   19.4240 C   0  0  1  0  0  0  0  0  0  0  0  0
  -29.7360  -16.4700   19.5550 C   0  0  0  0  0  2  0  0  0  0  0  0
  -31.1500  -14.5200   20.0910 C   0  0  0  0  0  0  0  0  0  0  0  0
  -30.7530  -12.3650   18.9520 C   0  0  0  0  0  2  0  0  0  0  0  0
  -29.7840  -12.6020   17.7750 C   0  0  0  0  0  2  0  0  0  0  0  0
  -28.3140  -12.5260   18.2400 C   0  0  0  0  0  2  0  0  0  0  0  0
  -28.0420  -13.3620   19.5190 C   0  0  0  0  0  3  0  0  0  0  0  0
  -29.1210  -13.0950   20.5910 C   0  0  0  0  0  2  0  0  0  0  0  0
  -30.4390  -13.3610   19.9870 N   0  0  0  0  0  0  0  0  0  0  0  0
  -32.2680  -14.6700   19.5890 O   0  0  0  0  0  0  0  0  0  0  0  0
  -30.3590  -15.9410   21.9320 C   0  0  0  0  0  1  0  0  0  0  0  0
  -30.4370  -15.5930   20.5140 N   0  0  0  0  0  0  0  0  0  0  0  0
  -25.6940  -14.0790   20.2920 C   0  0  0  0  0  0  0  0  0  0  0  0
  -24.6050  -13.3530   20.6910 C   0  0  0  0  0  0  0  0  0  0  0  0
  -25.0080  -11.9840   20.6480 C   0  0  0  0  0  0  0  0  0  0  0  0
  -26.6940  -13.1510   20.0350 N   0  0  0  0  0  0  0  0  0  0  0  0
  -26.2850  -11.8880   20.3020 N   0  0  0  0  0  0  0  0  0  0  0  0
  -24.2360  -10.7540   20.8560 C   0  0  0  0  0  0  0  0  0  0  0  0
  -24.6480   -9.7740   21.7870 C   0  0  0  0  0  3  0  0  0  0  0  0
  -23.8780   -8.6080   21.9850 C   0  0  0  0  0  3  0  0  0  0  0  0
  -22.6850   -8.4130   21.2490 C   0  0  0  0  0  0  0  0  0  0  0  0
  -22.2930   -9.3790   20.3050 C   0  0  0  0  0  3  0  0  0  0  0  0
  -23.0640  -10.5370   20.1050 C   0  0  0  0  0  3  0  0  0  0  0  0
  -21.8880   -7.2980   21.3560 O   0  0  0  0  0  0  0  0  0  0  0  0
  -21.8100   -6.5770   22.5210 C   0  0  0  0  0  0  0  0  0  0  0  0
  -21.4210   -7.1730   23.7410 C   0  0  0  0  0  3  0  0  0  0  0  0
  -21.2870   -6.3830   24.8990 C   0  0  0  0  0  3  0  0  0  0  0  0
  -21.5310   -4.9960   24.8370 C   0  0  0  0  0  0  0  0  0  0  0  0
  -21.9100   -4.4000   23.6220 C   0  0  0  0  0  3  0  0  0  0  0  0
  -22.0460   -5.1880   22.4660 C   0  0  0  0  0  0  0  0  0  0  0  0
  -22.3910   -4.6060   21.2930 F   0  0  0  0  0  0  0  0  0  0  0  0
  -21.3950   -4.2330   25.9470 F   0  0  0  0  0  0  0  0  0  0  0  0
  -23.2360  -13.8860   21.0030 C   0  0  0  0  0  0  0  0  0  0  0  0
  -22.5120  -13.2260   21.8970 N   0  0  0  0  0  0  0  0  0  0  0  0
  -22.8230  -14.9250   20.4900 O   0  0  0  0  0  0  0  0  0  0  0  0
  -22.8610  -12.3850   22.3340 H   0  0  0  0  0  0  0  0  0  0  0  0
  -21.5920  -13.5610   22.1470 H   0  0  0  0  0  0  0  0  0  0  0  0
  -25.9080  -15.4420   20.1070 N   0  0  0  0  0  0  0  0  0  0  0  0
  -25.1690  -16.1260   20.2310 H   0  0  0  0  0  0  0  0  0  0  0  0
  -26.7590  -15.8390   19.7330 H   0  0  0  0  0  0  0  0  0  0  0  0
  2  7  1  0
  2  1  1  0
  3 49  1  0
  3  1  2  0
  4  6  1  0
  5  6  1  0
  5  2  2  0
  6  3  1  0
  8 10  1  0
  8  7  1  0
  9 20  2  0
 10 15  1  0
 11 19  1  0
 11 21  1  0
 12 18  1  0
 12 14  1  0
 13 19  1  0
 14 13  1  0
 15 14  2  0
 16 17  1  0
 16 10  2  0
 17 12  2  0
 18 11  1  0
 19  9  1  0
 21 23  2  0
 22 21  1  0
 24 22  1  0
 25 34  2  0
 25 30  1  0
 26 22  1  0
 26 30  1  0
 27 26  1  0
 28 29  1  0
 28 27  1  0
 29 25  1  0
 30 31  2  0
 31 32  1  0
 33 32  2  0
 34 33  1  0
 35  9  1  0
 35 36  1  0
 35 45  1  0
 36 39  1  0
 37 41  1  0
 37 36  1  0
 38 37  2  0
 41 40  1  0
 43 41  1  0
 43 44  1  0
 43 42  1  0
 45 48  1  1
 45 46  1  0
 47 45  1  0
 50 51  1  0
 51 53  1  0
 51 49  1  0
 51 52  1  6
 56 54  1  6
 55 56  1  0
 56 57  1  0
 56 53  1  0
 57 67  1  0
 58 67  1  0
 59 64  1  0
 60 61  1  0
 60 59  1  0
 62 61  1  0
 62 71  1  0
 62 63  1  0
 64 58  1  0
 64 63  1  0
 65 58  2  0
 67 66  1  0
 68 69  2  0
 69 88  1  0
 70 69  1  0
 70 73  1  0
 71 68  1  0
 71 72  1  0
 72 70  2  0
 73 74  1  0
 74 75  2  0
 76 79  1  0
 76 75  1  0
 77 76  2  0
 78 77  1  0
 78 73  2  0
 79 80  1  0
 80 81  1  0
 81 82  2  0
 83 82  1  0
 83 87  1  0
 84 83  2  0
 85 80  2  0
 85 84  1  0
 86 85  1  0
 88 89  1  0
 89 92  1  0
 89 91  1  0
 90 88  2  0
 93 94  1  0
 93 68  1  0
 95 93  1  0
M  ISO  4   7 101   8 101  58 100  67 100
M  END
>  <TORSDO>  (48) 
F 22

>  <SCORE>  (48) 
-13.099

>  <name>  (48) 
49

>  <ligand_id>  (48) 
49

>  <original_smiles>  (48) 
[H]c1c([H])c([H])c2c(c1[H])C([H])([H])C([H])([H])C([H])([H])C2([H])N([H])C(=O)C1([H])N(C(=O)C([H])(N([H])C(=O)C([H])(N([H])C([H])([H])[H])C([H])([H])[H])C(C([H])([H])[H])(C([H])([H])[H])C([H])([H])[H])C([H])([H])c2c([H])c(OC([H])([H])c3nn(C([H])([H])[H])c(C([H])([H])[N+]([H])(C([H])([H])[H])C([H])([H])C(C([H])([H])[H])(C([H])([H])[H])C([H])([H])N(C(=O)N4C([H])([H])C([H])([H])C([H])([H])C([H])(n5nc(-c6c([H])c([H])c(Oc7c([H])c([H])c(F)c([H])c7F)c([H])c6[H])c(C(=O)N([H])[H])c5N([H])[H])C4([H])[H])C([H])([H])[H])c3[H])c([H])c([H])c2C1([H])[H]

>  <smiles>  (48) 
[H]c1c([H])c([H])c2c(c1[H])C([H])([H])C([H])([H])C([H])([H])C2([H])N([H])C(=O)C1([H])N(C(=O)C([H])(N([H])C(=O)C([H])(N([H])C([H])([H])[H])C([H])([H])[H])C(C([H])([H])[H])(C([H])([H])[H])C([H])([H])[H])C([H])([H])c2c([H])c(OC([H])([H])c3nn(C([H])([H])[H])c(C([H])([H])[N+]([H])(C([H])([H])[H])C([H])([H])C(C([H])([H])[H])(C([H])([H])[H])C([H])([H])N(C(=O)N4C([H])([H])C([H])([H])C([H])([H])C([H])(n5nc(-c6c([H])c([H])c(Oc7c([H])c([H])c(F)c([H])c7F)c([H])c6[H])c(C(=O)N([H])[H])c5N([H])[H])C4([H])[H])C([H])([H])[H])c3[H])c([H])c([H])c2C1([H])[H]

$$$$
50:0:0
     RDKit          3D

 93101  0  0  1  0  0  0  0  0999 V2000
  -29.0320  -20.7220   21.5450 C   0  0  0  0  0  3  0  0  0  0  0  0
  -29.9690  -21.6310   22.0820 C   0  0  0  0  0  0  0  0  0  0  0  0
  -30.7750  -19.3810   20.9190 C   0  0  0  0  0  0  0  0  0  0  0  0
  -29.4460  -19.5700   20.9670 N   0  0  0  0  0  0  0  0  0  0  0  0
  -31.2950  -21.3540   22.0210 N   0  0  0  0  0  0  0  0  0  0  0  0
  -31.7010  -20.2180   21.4250 N   0  0  0  0  0  0  0  0  0  0  0  0
  -29.5250  -22.9030   22.7970 C   0  0  0  0  0  2  0  0  0  0  0  0
  -29.9120  -24.2190   22.0840 C   0  0  0  0  0  2  0  0  0  0  0  0
  -28.7260  -25.1950   21.8910 C   0  0  0  0  0  2  0  0  0  0  0  0
  -29.1340  -26.5550   21.2850 C   0  0  0  0  0  2  0  0  0  0  0  0
  -28.4000  -26.8010   20.0880 O   0  0  0  0  0  0  0  0  0  0  0  0
  -24.5260  -31.9390   23.2250 C   0  0  0  0  0  0  0  0  0  0  0  0
  -27.2360  -27.5270   20.1810 C   0  0  0  0  0  0  0  0  0  0  0  0
  -23.3360  -30.5100   21.5910 C   0  0  0  0  0  3  0  0  0  0  0  0
  -24.8120  -28.9740   20.1860 C   0  0  0  0  0  0  0  0  0  0  0  0
  -25.8540  -30.9020   21.3900 C   0  0  0  0  0  2  0  0  0  0  0  0
  -25.9570  -29.5240   20.7740 C   0  0  0  0  0  0  0  0  0  0  0  0
  -27.1710  -28.8060   20.7780 C   0  0  0  0  0  3  0  0  0  0  0  0
  -26.0790  -26.9910   19.5800 C   0  0  0  0  0  3  0  0  0  0  0  0
  -24.8630  -27.7020   19.5910 C   0  0  0  0  0  3  0  0  0  0  0  0
  -23.5560  -29.8160   20.2180 C   0  0  0  0  0  2  0  0  0  0  0  0
  -24.5900  -31.1340   22.1280 N   0  0  0  0  0  0  0  0  0  0  0  0
  -23.4410  -32.2030   23.7640 O   0  0  0  0  0  0  0  0  0  0  0  0
  -22.6980  -29.4890   22.5600 C   0  0  0  0  0  0  0  0  0  0  0  0
  -21.3750  -29.2930   22.4350 N   0  0  0  0  0  0  0  0  0  0  0  0
  -23.3890  -28.8780   23.3810 O   0  0  0  0  0  0  0  0  0  0  0  0
  -20.8820  -29.8400   21.7430 H   0  0  0  0  0  0  0  0  0  0  0  0
  -18.0120  -28.0800   22.9450 C   0  0  0  0  0  0  0  0  0  0  0  0
  -20.5680  -28.3510   23.2090 C   0  0  0  0  0  3  0  0  0  0  0  0
  -20.6780  -26.9200   22.6330 C   0  0  0  0  0  2  0  0  0  0  0  0
  -19.5740  -26.5890   21.6250 C   0  0  0  0  0  2  0  0  0  0  0  0
  -18.1930  -26.7290   22.2730 C   0  0  0  0  0  2  0  0  0  0  0  0
  -19.1280  -28.8480   23.3710 C   0  0  0  0  0  0  0  0  0  0  0  0
  -18.9050  -30.1120   23.9580 C   0  0  0  0  0  3  0  0  0  0  0  0
  -17.5980  -30.6090   24.1250 C   0  0  0  0  0  3  0  0  0  0  0  0
  -16.4960  -29.8350   23.7170 C   0  0  0  0  0  3  0  0  0  0  0  0
  -16.7040  -28.5730   23.1340 C   0  0  0  0  0  3  0  0  0  0  0  0
  -25.8060  -32.5860   23.8410 C   0  0  0  0  0  3  0  0  0  0  0  0
  -25.4860  -33.9830   24.1630 N   0  0  0  0  0  0  0  0  0  0  0  0
  -25.8280  -35.0330   23.4020 C   0  0  0  0  0  0  0  0  0  0  0  0
  -26.5170  -34.9270   22.3830 O   0  0  0  0  0  0  0  0  0  0  0  0
  -24.8800  -34.1390   24.9550 H   0  0  0  0  0  0  0  0  0  0  0  0
  -24.1120  -36.8230   22.9870 C   0  0  0  0  0  1  0  0  0  0  0  0
  -25.3250  -36.4220   23.8420 C   0  0  0  0  0  3  0  0  0  0  0  0
  -27.4320  -37.3070   24.7400 C   0  0  0  0  0  1  0  0  0  0  0  0
  -26.3610  -37.4740   23.7600 N   0  0  0  0  0  0  0  0  0  0  0  0
  -25.9510  -38.3950   23.8920 H   0  0  0  0  0  0  0  0  0  0  0  0
  -26.3340  -31.8260   25.1200 C   0  0  1  0  0  0  0  0  0  0  0  0
  -25.2460  -31.5780   26.1910 C   0  0  0  0  0  1  0  0  0  0  0  0
  -26.9320  -30.4560   24.7270 C   0  0  0  0  0  1  0  0  0  0  0  0
  -27.4770  -32.6350   25.7760 C   0  0  0  0  0  1  0  0  0  0  0  0
  -31.2630  -18.1000   20.2300 C   0  0  0  0  0  2  0  0  0  0  0  0
  -29.6060  -17.0320   18.7130 C   0  0  0  0  0  1  0  0  0  0  0  0
  -30.1260  -17.1480   20.1010 N   0  0  1  0  0  4  0  0  0  0  0  0
  -29.4260  -17.7300   20.5570 H   0  0  0  0  0  0  0  0  0  0  0  0
  -30.7130  -16.0090   22.3180 C   0  0  0  0  0  1  0  0  0  0  0  0
  -30.1600  -15.8620   20.8830 C   0  0  0  0  0  3  0  0  0  0  0  0
  -30.8310  -14.6690   20.1350 C   0  0  0  0  0  0  0  0  0  0  0  0
  -30.5290  -12.5170   18.9550 C   0  0  0  0  0  2  0  0  0  0  0  0
  -29.5520  -12.7370   17.7770 C   0  0  0  0  0  2  0  0  0  0  0  0
  -28.0850  -12.6010   18.2360 C   0  0  0  0  0  2  0  0  0  0  0  0
  -27.7810  -13.4140   19.5210 C   0  0  0  0  0  3  0  0  0  0  0  0
  -28.8640  -13.1500   20.5920 C   0  0  0  0  0  2  0  0  0  0  0  0
  -30.1720  -13.4810   20.0050 N   0  0  0  0  0  0  0  0  0  0  0  0
  -31.9260  -14.8710   19.5990 O   0  0  0  0  0  0  0  0  0  0  0  0
  -25.4020  -14.0330   20.2840 C   0  0  0  0  0  0  0  0  0  0  0  0
  -24.3400  -13.2650   20.6810 C   0  0  0  0  0  0  0  0  0  0  0  0
  -24.7950  -11.9120   20.6370 C   0  0  0  0  0  0  0  0  0  0  0  0
  -26.4370  -13.1470   20.0270 N   0  0  0  0  0  0  0  0  0  0  0  0
  -26.0760  -11.8670   20.2950 N   0  0  0  0  0  0  0  0  0  0  0  0
  -24.0680  -10.6540   20.8460 C   0  0  0  0  0  0  0  0  0  0  0  0
  -24.4990   -9.7030   21.7980 C   0  0  0  0  0  3  0  0  0  0  0  0
  -23.7740   -8.5070   21.9940 C   0  0  0  0  0  3  0  0  0  0  0  0
  -22.6050   -8.2550   21.2370 C   0  0  0  0  0  0  0  0  0  0  0  0
  -22.1920   -9.1950   20.2750 C   0  0  0  0  0  3  0  0  0  0  0  0
  -22.9190  -10.3820   20.0770 C   0  0  0  0  0  3  0  0  0  0  0  0
  -21.8520   -7.1110   21.3410 O   0  0  0  0  0  0  0  0  0  0  0  0
  -21.7730   -6.4070   22.5160 C   0  0  0  0  0  0  0  0  0  0  0  0
  -21.3190   -7.0020   23.7130 C   0  0  0  0  0  3  0  0  0  0  0  0
  -21.1880   -6.2240   24.8790 C   0  0  0  0  0  3  0  0  0  0  0  0
  -21.5000   -4.8510   24.8500 C   0  0  0  0  0  0  0  0  0  0  0  0
  -21.9470   -4.2560   23.6570 C   0  0  0  0  0  3  0  0  0  0  0  0
  -22.0820   -5.0320   22.4920 C   0  0  0  0  0  0  0  0  0  0  0  0
  -22.4940   -4.4500   21.3400 F   0  0  0  0  0  0  0  0  0  0  0  0
  -21.3640   -4.1000   25.9680 F   0  0  0  0  0  0  0  0  0  0  0  0
  -22.9530  -13.7500   20.9900 C   0  0  0  0  0  0  0  0  0  0  0  0
  -22.2470  -13.0640   21.8790 N   0  0  0  0  0  0  0  0  0  0  0  0
  -22.5060  -14.7750   20.4760 O   0  0  0  0  0  0  0  0  0  0  0  0
  -22.6230  -12.2360   22.3170 H   0  0  0  0  0  0  0  0  0  0  0  0
  -21.3170  -13.3720   22.1280 H   0  0  0  0  0  0  0  0  0  0  0  0
  -25.5640  -15.4030   20.1040 N   0  0  0  0  0  0  0  0  0  0  0  0
  -24.7840  -16.0410   20.2160 H   0  0  0  0  0  0  0  0  0  0  0  0
  -26.3790  -15.8390   19.6970 H   0  0  0  0  0  0  0  0  0  0  0  0
  1  2  2  0
  2  7  1  0
  3  4  2  0
  3  6  1  0
  4  1  1  0
  5  2  1  0
  6  5  2  0
  8  7  1  0
  9  8  1  0
 10  9  1  0
 11 13  1  0
 11 10  1  0
 12 23  2  0
 13 18  1  0
 14 22  1  0
 14 24  1  0
 15 21  1  0
 15 17  1  0
 16 22  1  0
 17 18  2  0
 17 16  1  0
 19 20  1  0
 19 13  2  0
 20 15  2  0
 21 14  1  0
 22 12  1  0
 24 26  2  0
 25 24  1  0
 27 25  1  0
 28 37  2  0
 28 33  1  0
 29 25  1  0
 29 33  1  0
 30 29  1  0
 31 32  1  0
 31 30  1  0
 32 28  1  0
 33 34  2  0
 34 35  1  0
 36 35  2  0
 37 36  1  0
 38 12  1  0
 38 39  1  0
 38 48  1  0
 39 42  1  0
 40 44  1  0
 40 39  1  0
 41 40  2  0
 44 43  1  0
 46 44  1  0
 46 47  1  0
 46 45  1  0
 48 51  1  1
 48 49  1  0
 50 48  1  0
 52  3  1  0
 53 54  1  0
 54 52  1  0
 54 55  1  1
 54 57  1  0
 57 56  1  0
 58 57  1  0
 59 64  1  0
 60 61  1  0
 60 59  1  0
 62 61  1  0
 62 69  1  0
 62 63  1  0
 64 58  1  0
 64 63  1  0
 65 58  2  0
 66 67  2  0
 67 86  1  0
 68 67  1  0
 68 71  1  0
 69 66  1  0
 69 70  1  0
 70 68  2  0
 71 72  1  0
 72 73  2  0
 74 77  1  0
 74 73  1  0
 75 74  2  0
 76 75  1  0
 76 71  2  0
 77 78  1  0
 78 79  1  0
 79 80  2  0
 81 80  1  0
 81 85  1  0
 82 81  2  0
 83 78  2  0
 83 82  1  0
 84 83  1  0
 86 87  1  0
 87 90  1  0
 87 89  1  0
 88 86  2  0
 91 92  1  0
 91 66  1  0
 93 91  1  0
M  ISO  4  10 101  11 101  57 100  58 100
M  END
>  <TORSDO>  (49) 
F 23

>  <SCORE>  (49) 
-12.532

>  <name>  (49) 
50

>  <ligand_id>  (49) 
50

>  <original_smiles>  (49) 
[H]c1nc(C([H])([H])[N+]([H])(C([H])([H])[H])C([H])(C(=O)N2C([H])([H])C([H])([H])C([H])([H])C([H])(n3nc(-c4c([H])c([H])c(Oc5c([H])c([H])c(F)c([H])c5F)c([H])c4[H])c(C(=O)N([H])[H])c3N([H])[H])C2([H])[H])C([H])([H])[H])nnc1C([H])([H])C([H])([H])C([H])([H])C([H])([H])Oc1c([H])c([H])c2c(c1[H])C([H])([H])N(C(=O)C([H])(N([H])C(=O)C([H])(N([H])C([H])([H])[H])C([H])([H])[H])C(C([H])([H])[H])(C([H])([H])[H])C([H])([H])[H])C([H])(C(=O)N([H])C1([H])c3c([H])c([H])c([H])c([H])c3C([H])([H])C([H])([H])C1([H])[H])C2([H])[H]

>  <smiles>  (49) 
[H]c1nc(C([H])([H])[N+]([H])(C([H])([H])[H])C([H])(C(=O)N2C([H])([H])C([H])([H])C([H])([H])C([H])(n3nc(-c4c([H])c([H])c(Oc5c([H])c([H])c(F)c([H])c5F)c([H])c4[H])c(C(=O)N([H])[H])c3N([H])[H])C2([H])[H])C([H])([H])[H])nnc1C([H])([H])C([H])([H])C([H])([H])C([H])([H])Oc1c([H])c([H])c2c(c1[H])C([H])([H])N(C(=O)C([H])(N([H])C(=O)C([H])(N([H])C([H])([H])[H])C([H])([H])[H])C(C([H])([H])[H])(C([H])([H])[H])C([H])([H])[H])C([H])(C(=O)N([H])C1([H])c3c([H])c([H])c([H])c([H])c3C([H])([H])C([H])([H])C1([H])[H])C2([H])[H]

$$$$
51:0:0
     RDKit          3D

 93101  0  0  1  0  0  0  0  0999 V2000
  -30.5290  -22.2820   21.4350 C   0  0  0  0  0  3  0  0  0  0  0  0
  -29.0430  -21.9310   19.5920 C   0  0  0  0  0  3  0  0  0  0  0  0
  -29.6760  -22.8500   20.4570 C   0  0  0  0  0  0  0  0  0  0  0  0
  -30.7800  -20.8820   21.4740 C   0  0  0  0  0  0  0  0  0  0  0  0
  -30.1670  -20.0500   20.5000 C   0  0  0  0  0  0  0  0  0  0  0  0
  -29.2790  -20.5880   19.6150 N   0  0  0  0  0  0  0  0  0  0  0  0
  -31.7740  -20.3290   22.4930 C   0  0  1  0  0  0  0  0  0  0  0  0
  -32.0500  -21.2260   23.4390 F   0  0  0  0  0  0  0  0  0  0  0  0
  -31.2750  -19.2500   23.0930 F   0  0  0  0  0  0  0  0  0  0  0  0
  -32.9130  -20.0000   21.8850 F   0  0  0  0  0  0  0  0  0  0  0  0
  -29.5980  -24.4050   20.3030 C   0  0  0  0  0  2  0  0  0  0  0  0
  -28.2340  -25.1380   20.0490 C   0  0  0  0  0  2  0  0  0  0  0  0
  -28.3380  -26.5920   20.2180 O   0  0  0  0  0  0  0  0  0  0  0  0
  -24.5320  -31.8940   23.2450 C   0  0  0  0  0  0  0  0  0  0  0  0
  -27.1780  -27.3690   20.1970 C   0  0  0  0  0  0  0  0  0  0  0  0
  -23.3370  -30.4870   21.6050 C   0  0  0  0  0  3  0  0  0  0  0  0
  -24.7950  -28.9390   20.1900 C   0  0  0  0  0  0  0  0  0  0  0  0
  -25.8750  -30.8190   21.4320 C   0  0  0  0  0  2  0  0  0  0  0  0
  -25.9580  -29.4440   20.7840 C   0  0  0  0  0  0  0  0  0  0  0  0
  -27.1510  -28.6690   20.7760 C   0  0  0  0  0  3  0  0  0  0  0  0
  -25.9850  -26.8940   19.6060 C   0  0  0  0  0  3  0  0  0  0  0  0
  -24.8070  -27.6660   19.5980 C   0  0  0  0  0  3  0  0  0  0  0  0
  -23.5550  -29.8090   20.2280 C   0  0  0  0  0  2  0  0  0  0  0  0
  -24.6010  -31.0840   22.1490 N   0  0  0  0  0  0  0  0  0  0  0  0
  -23.4450  -32.1700   23.7750 O   0  0  0  0  0  0  0  0  0  0  0  0
  -22.6800  -29.4680   22.5660 C   0  0  0  0  0  0  0  0  0  0  0  0
  -21.3550  -29.2900   22.4350 N   0  0  0  0  0  0  0  0  0  0  0  0
  -23.3580  -28.8440   23.3850 O   0  0  0  0  0  0  0  0  0  0  0  0
  -20.8690  -29.8440   21.7440 H   0  0  0  0  0  0  0  0  0  0  0  0
  -17.9710  -28.1220   22.9460 C   0  0  0  0  0  0  0  0  0  0  0  0
  -20.5330  -28.3550   23.2040 C   0  0  0  0  0  3  0  0  0  0  0  0
  -20.6190  -26.9260   22.6180 C   0  0  0  0  0  2  0  0  0  0  0  0
  -19.5060  -26.6200   21.6110 C   0  0  0  0  0  2  0  0  0  0  0  0
  -18.1300  -26.7750   22.2640 C   0  0  0  0  0  2  0  0  0  0  0  0
  -19.0990  -28.8700   23.3740 C   0  0  0  0  0  0  0  0  0  0  0  0
  -18.8940  -30.1330   23.9720 C   0  0  0  0  0  3  0  0  0  0  0  0
  -17.5950  -30.6430   24.1530 C   0  0  0  0  0  3  0  0  0  0  0  0
  -16.4810  -29.8890   23.7410 C   0  0  0  0  0  3  0  0  0  0  0  0
  -16.6710  -28.6320   23.1400 C   0  0  0  0  0  3  0  0  0  0  0  0
  -25.8100  -32.5300   23.8720 C   0  0  0  0  0  3  0  0  0  0  0  0
  -25.5040  -33.9370   24.1650 N   0  0  0  0  0  0  0  0  0  0  0  0
  -25.8640  -34.9730   23.3940 C   0  0  0  0  0  0  0  0  0  0  0  0
  -26.5570  -34.8440   22.3830 O   0  0  0  0  0  0  0  0  0  0  0  0
  -24.8860  -34.1110   24.9430 H   0  0  0  0  0  0  0  0  0  0  0  0
  -24.1750  -36.7850   22.9480 C   0  0  0  0  0  1  0  0  0  0  0  0
  -25.3760  -36.3730   23.8140 C   0  0  0  0  0  3  0  0  0  0  0  0
  -27.4810  -37.2480   24.7260 C   0  0  0  0  0  1  0  0  0  0  0  0
  -26.4250  -37.4120   23.7330 N   0  0  0  0  0  0  0  0  0  0  0  0
  -26.0210  -38.3390   23.8480 H   0  0  0  0  0  0  0  0  0  0  0  0
  -26.2990  -31.7860   25.1740 C   0  0  1  0  0  0  0  0  0  0  0  0
  -25.1870  -31.5840   26.2300 C   0  0  0  0  0  1  0  0  0  0  0  0
  -26.8790  -30.3940   24.8280 C   0  0  0  0  0  1  0  0  0  0  0  0
  -27.4400  -32.5920   25.8390 C   0  0  0  0  0  1  0  0  0  0  0  0
  -30.7000  -18.6240   20.1320 C   0  0  0  0  0  2  0  0  0  0  0  0
  -30.3400  -17.2680   20.9340 C   0  0  0  0  0  2  0  0  0  0  0  0
  -30.7090  -14.7170   20.5170 C   0  0  0  0  0  0  0  0  0  0  0  0
  -30.4750  -12.4450   19.5630 C   0  0  0  0  0  2  0  0  0  0  0  0
  -29.5700  -12.4530   18.3120 C   0  0  0  0  0  2  0  0  0  0  0  0
  -28.0790  -12.3650   18.7080 C   0  0  0  0  0  2  0  0  0  0  0  0
  -27.6730  -13.2730   19.9050 C   0  0  0  0  0  3  0  0  0  0  0  0
  -28.7160  -13.2300   21.0420 C   0  0  0  0  0  2  0  0  0  0  0  0
  -30.0250  -13.5320   20.4500 N   0  0  0  0  0  0  0  0  0  0  0  0
  -31.9390  -14.7370   20.4310 O   0  0  0  0  0  0  0  0  0  0  0  0
  -29.5240  -16.0780   18.9190 C   0  0  0  0  0  1  0  0  0  0  0  0
  -30.0060  -15.9030   20.3090 N   0  0  0  0  0  0  0  0  0  0  0  0
  -25.2700  -13.8660   20.5750 C   0  0  0  0  0  0  0  0  0  0  0  0
  -24.1960  -13.0870   20.9140 C   0  0  0  0  0  0  0  0  0  0  0  0
  -24.6690  -11.7390   20.9050 C   0  0  0  0  0  0  0  0  0  0  0  0
  -26.3230  -12.9860   20.3750 N   0  0  0  0  0  0  0  0  0  0  0  0
  -25.9680  -11.7050   20.6410 N   0  0  0  0  0  0  0  0  0  0  0  0
  -23.9470  -10.4730   21.0760 C   0  0  0  0  0  0  0  0  0  0  0  0
  -24.3510   -9.5170   22.0330 C   0  0  0  0  0  3  0  0  0  0  0  0
  -23.6310   -8.3150   22.1930 C   0  0  0  0  0  3  0  0  0  0  0  0
  -22.4920   -8.0580   21.3930 C   0  0  0  0  0  0  0  0  0  0  0  0
  -22.1070   -9.0020   20.4240 C   0  0  0  0  0  3  0  0  0  0  0  0
  -22.8290  -10.1960   20.2630 C   0  0  0  0  0  3  0  0  0  0  0  0
  -21.7460   -6.9070   21.4610 O   0  0  0  0  0  0  0  0  0  0  0  0
  -21.6470   -6.1820   22.6210 C   0  0  0  0  0  0  0  0  0  0  0  0
  -21.1170   -6.7390   23.8050 C   0  0  0  0  0  3  0  0  0  0  0  0
  -20.9680   -5.9390   24.9560 C   0  0  0  0  0  3  0  0  0  0  0  0
  -21.3390   -4.5810   24.9230 C   0  0  0  0  0  0  0  0  0  0  0  0
  -21.8600   -4.0230   23.7430 C   0  0  0  0  0  3  0  0  0  0  0  0
  -22.0120   -4.8210   22.5950 C   0  0  0  0  0  0  0  0  0  0  0  0
  -22.4960   -4.2740   21.4540 F   0  0  0  0  0  0  0  0  0  0  0  0
  -21.1880   -3.8100   26.0240 F   0  0  0  0  0  0  0  0  0  0  0  0
  -22.7890  -13.5570   21.1380 C   0  0  0  0  0  0  0  0  0  0  0  0
  -22.0360  -12.8540   21.9780 N   0  0  0  0  0  0  0  0  0  0  0  0
  -22.3630  -14.5800   20.6060 O   0  0  0  0  0  0  0  0  0  0  0  0
  -22.3950  -12.0280   22.4330 H   0  0  0  0  0  0  0  0  0  0  0  0
  -21.0890  -13.1470   22.1720 H   0  0  0  0  0  0  0  0  0  0  0  0
  -25.4360  -15.2370   20.3970 N   0  0  0  0  0  0  0  0  0  0  0  0
  -24.6690  -15.8940   20.4880 H   0  0  0  0  0  0  0  0  0  0  0  0
  -26.3080  -15.6800   20.1320 H   0  0  0  0  0  0  0  0  0  0  0  0
  1  4  1  0
  2  6  2  0
  2  3  1  0
  3  1  2  0
  4  7  1  0
  5  4  2  0
  6  5  1  0
  7  9  1  1
  7  8  1  0
 10  7  1  0
 11  3  1  0
 12 13  1  0
 12 11  1  0
 14 25  2  0
 15 13  1  0
 15 20  1  0
 16 24  1  0
 16 26  1  0
 17 23  1  0
 17 19  1  0
 18 24  1  0
 19 18  1  0
 20 19  2  0
 21 15  2  0
 22 21  1  0
 22 17  2  0
 23 16  1  0
 24 14  1  0
 26 28  2  0
 27 26  1  0
 29 27  1  0
 30 39  2  0
 30 35  1  0
 31 27  1  0
 31 35  1  0
 32 31  1  0
 33 34  1  0
 33 32  1  0
 34 30  1  0
 35 36  2  0
 36 37  1  0
 38 37  2  0
 39 38  1  0
 40 14  1  0
 40 41  1  0
 40 50  1  0
 41 44  1  0
 42 46  1  0
 42 41  1  0
 43 42  2  0
 46 45  1  0
 48 46  1  0
 48 49  1  0
 48 47  1  0
 50 53  1  1
 50 51  1  0
 52 50  1  0
 54  5  1  0
 54 55  1  0
 57 62  1  0
 58 59  1  0
 58 57  1  0
 60 59  1  0
 60 69  1  0
 60 61  1  0
 62 56  1  0
 62 61  1  0
 63 56  2  0
 64 65  1  0
 65 56  1  0
 65 55  1  0
 66 67  2  0
 67 86  1  0
 68 67  1  0
 68 71  1  0
 69 66  1  0
 69 70  1  0
 70 68  2  0
 71 72  1  0
 72 73  2  0
 74 77  1  0
 74 73  1  0
 75 74  2  0
 76 75  1  0
 76 71  2  0
 77 78  1  0
 78 79  1  0
 79 80  2  0
 81 80  1  0
 81 85  1  0
 82 81  2  0
 83 78  2  0
 83 82  1  0
 84 83  1  0
 86 87  1  0
 87 90  1  0
 87 89  1  0
 88 86  2  0
 91 92  1  0
 91 66  1  0
 93 91  1  0
M  ISO  4  12 101  13 101  56 100  65 100
M  END
>  <TORSDO>  (50) 
F 21

>  <SCORE>  (50) 
-13.827

>  <name>  (50) 
51

>  <ligand_id>  (50) 
51

>  <original_smiles>  (50) 
[H]c1nc(C([H])([H])C([H])([H])N(C(=O)N2C([H])([H])C([H])([H])C([H])([H])C([H])(n3nc(-c4c([H])c([H])c(Oc5c([H])c([H])c(F)c([H])c5F)c([H])c4[H])c(C(=O)N([H])[H])c3N([H])[H])C2([H])[H])C([H])([H])[H])c(C(F)(F)F)c([H])c1C([H])([H])C([H])([H])Oc1c([H])c([H])c2c(c1[H])C([H])([H])N(C(=O)C([H])(N([H])C(=O)C([H])(N([H])C([H])([H])[H])C([H])([H])[H])C(C([H])([H])[H])(C([H])([H])[H])C([H])([H])[H])C([H])(C(=O)N([H])C1([H])c3c([H])c([H])c([H])c([H])c3C([H])([H])C([H])([H])C1([H])[H])C2([H])[H]

>  <smiles>  (50) 
[H]c1nc(C([H])([H])C([H])([H])N(C(=O)N2C([H])([H])C([H])([H])C([H])([H])C([H])(n3nc(-c4c([H])c([H])c(Oc5c([H])c([H])c(F)c([H])c5F)c([H])c4[H])c(C(=O)N([H])[H])c3N([H])[H])C2([H])[H])C([H])([H])[H])c(C(F)(F)F)c([H])c1C([H])([H])C([H])([H])Oc1c([H])c([H])c2c(c1[H])C([H])([H])N(C(=O)C([H])(N([H])C(=O)C([H])(N([H])C([H])([H])[H])C([H])([H])[H])C(C([H])([H])[H])(C([H])([H])[H])C([H])([H])[H])C([H])(C(=O)N([H])C1([H])c3c([H])c([H])c([H])c([H])c3C([H])([H])C([H])([H])C1([H])[H])C2([H])[H]

$$$$
52:0:0
     RDKit          3D

 88 96  0  0  1  0  0  0  0  0999 V2000
  -28.8780  -21.8660   20.4230 C   0  0  0  0  0  3  0  0  0  0  0  0
  -28.9680  -23.4410   19.8520 C   0  0  0  0  0  3  0  0  0  0  0  0
  -28.2180  -24.7720   20.5200 C   0  0  0  0  0  2  0  0  0  0  0  0
  -28.4710  -26.2590   20.1840 O   0  0  0  0  0  0  0  0  0  0  0  0
  -24.8470  -31.8660   23.2630 C   0  0  0  0  0  0  0  0  0  0  0  0
  -27.4050  -27.2140   20.1770 C   0  0  0  0  0  0  0  0  0  0  0  0
  -23.6370  -30.4910   21.6120 C   0  0  0  0  0  3  0  0  0  0  0  0
  -25.0760  -28.9330   20.1670 C   0  0  0  0  0  0  0  0  0  0  0  0
  -26.1880  -30.7650   21.4370 C   0  0  0  0  0  2  0  0  0  0  0  0
  -26.2570  -29.3820   20.7730 C   0  0  0  0  0  0  0  0  0  0  0  0
  -27.4260  -28.5400   20.7580 C   0  0  0  0  0  3  0  0  0  0  0  0
  -26.2020  -26.8570   19.5310 C   0  0  0  0  0  3  0  0  0  0  0  0
  -25.0590  -27.6820   19.5300 C   0  0  0  0  0  3  0  0  0  0  0  0
  -23.8500  -29.8280   20.2250 C   0  0  0  0  0  2  0  0  0  0  0  0
  -24.9100  -31.0610   22.1590 N   0  0  0  0  0  0  0  0  0  0  0  0
  -23.7640  -32.1440   23.7990 O   0  0  0  0  0  0  0  0  0  0  0  0
  -22.9630  -29.4720   22.5650 C   0  0  0  0  0  0  0  0  0  0  0  0
  -21.6370  -29.2930   22.4290 N   0  0  0  0  0  0  0  0  0  0  0  0
  -23.6360  -28.8450   23.3880 O   0  0  0  0  0  0  0  0  0  0  0  0
  -21.1510  -29.8500   21.7410 H   0  0  0  0  0  0  0  0  0  0  0  0
  -18.2630  -28.0630   22.8950 C   0  0  0  0  0  0  0  0  0  0  0  0
  -20.8160  -28.3490   23.1920 C   0  0  0  0  0  3  0  0  0  0  0  0
  -20.9380  -26.9170   22.6190 C   0  0  0  0  0  2  0  0  0  0  0  0
  -19.8510  -26.5830   21.5920 C   0  0  0  0  0  2  0  0  0  0  0  0
  -18.4600  -26.7160   22.2210 C   0  0  0  0  0  2  0  0  0  0  0  0
  -19.3700  -28.8360   23.3380 C   0  0  0  0  0  0  0  0  0  0  0  0
  -19.1310  -30.0950   23.9290 C   0  0  0  0  0  3  0  0  0  0  0  0
  -17.8190  -30.5820   24.0820 C   0  0  0  0  0  3  0  0  0  0  0  0
  -16.7270  -29.8060   23.6560 C   0  0  0  0  0  3  0  0  0  0  0  0
  -16.9500  -28.5490   23.0690 C   0  0  0  0  0  3  0  0  0  0  0  0
  -26.1300  -32.4900   23.8920 C   0  0  0  0  0  3  0  0  0  0  0  0
  -26.6430  -31.7050   25.1620 C   0  0  1  0  0  0  0  0  0  0  0  0
  -25.5480  -31.4580   26.2260 C   0  0  0  0  0  1  0  0  0  0  0  0
  -27.2260  -30.3310   24.7590 C   0  0  0  0  0  1  0  0  0  0  0  0
  -27.7920  -32.4920   25.8330 C   0  0  0  0  0  1  0  0  0  0  0  0
  -25.8220  -33.8860   24.2410 N   0  0  0  0  0  0  0  0  0  0  0  0
  -26.1550  -34.9490   23.4990 C   0  0  0  0  0  0  0  0  0  0  0  0
  -26.8200  -34.8600   22.4640 O   0  0  0  0  0  0  0  0  0  0  0  0
  -25.2290  -34.0300   25.0450 H   0  0  0  0  0  0  0  0  0  0  0  0
  -24.4310  -36.7560   23.1820 C   0  0  0  0  0  1  0  0  0  0  0  0
  -25.6750  -36.3340   23.9800 C   0  0  0  0  0  3  0  0  0  0  0  0
  -27.8160  -37.2020   24.8130 C   0  0  0  0  0  1  0  0  0  0  0  0
  -26.7110  -37.3850   23.8770 N   0  0  0  0  0  0  0  0  0  0  0  0
  -26.3070  -38.3050   24.0370 H   0  0  0  0  0  0  0  0  0  0  0  0
  -29.3620  -20.6970   19.5770 O   0  0  0  0  0  0  0  0  0  0  0  0
  -29.8080  -17.1220   18.8260 C   0  0  0  0  0  2  0  0  0  0  0  0
  -30.2270  -16.4060   19.9940 C   0  0  0  0  0  0  0  0  0  0  0  0
  -29.9960  -18.5820   21.0690 C   0  0  0  0  0  3  0  0  0  0  0  0
  -29.6060  -19.2870   19.8680 C   0  0  0  0  0  0  0  0  0  0  0  0
  -30.1500  -19.3280   22.3760 C   0  0  0  0  0  1  0  0  0  0  0  0
  -29.5140  -18.4770   18.7660 N   0  0  0  0  0  0  0  0  0  0  0  0
  -30.3050  -17.2110   21.1210 N   0  0  0  0  0  0  0  0  0  0  0  0
  -30.8800  -14.9490   19.8500 C   0  0  0  0  0  0  0  0  0  0  0  0
  -30.5830  -12.6820   18.8020 C   0  0  0  0  0  2  0  0  0  0  0  0
  -29.5640  -12.7630   17.6440 C   0  0  0  0  0  2  0  0  0  0  0  0
  -28.1360  -12.5450   18.1760 C   0  0  0  0  0  2  0  0  0  0  0  0
  -27.8390  -13.3920   19.4420 C   0  0  0  0  0  3  0  0  0  0  0  0
  -28.9790  -13.3360   20.4760 C   0  0  0  0  0  2  0  0  0  0  0  0
  -30.2160  -13.7300   19.7960 N   0  0  0  0  0  0  0  0  0  0  0  0
  -32.0680  -14.9410   19.5070 O   0  0  0  0  0  0  0  0  0  0  0  0
  -25.5170  -13.9110   20.3790 C   0  0  0  0  0  0  0  0  0  0  0  0
  -24.4940  -13.1090   20.8020 C   0  0  0  0  0  0  0  0  0  0  0  0
  -24.9710  -11.7670   20.6960 C   0  0  0  0  0  0  0  0  0  0  0  0
  -26.5490  -13.0560   20.0330 N   0  0  0  0  0  0  0  0  0  0  0  0
  -26.2360  -11.7600   20.2920 N   0  0  0  0  0  0  0  0  0  0  0  0
  -24.2760  -10.4890   20.9000 C   0  0  0  0  0  0  0  0  0  0  0  0
  -24.7020   -9.5600   21.8750 C   0  0  0  0  0  3  0  0  0  0  0  0
  -24.0040   -8.3490   22.0650 C   0  0  0  0  0  3  0  0  0  0  0  0
  -22.8630   -8.0570   21.2800 C   0  0  0  0  0  0  0  0  0  0  0  0
  -22.4550   -8.9740   20.2950 C   0  0  0  0  0  3  0  0  0  0  0  0
  -23.1550  -10.1770   20.1030 C   0  0  0  0  0  3  0  0  0  0  0  0
  -22.1370   -6.8940   21.3760 O   0  0  0  0  0  0  0  0  0  0  0  0
  -21.9560   -6.2560   22.5770 C   0  0  0  0  0  0  0  0  0  0  0  0
  -21.3400   -6.8950   23.6750 C   0  0  0  0  0  3  0  0  0  0  0  0
  -21.1110   -6.1810   24.8680 C   0  0  0  0  0  3  0  0  0  0  0  0
  -21.4870   -4.8270   24.9630 C   0  0  0  0  0  0  0  0  0  0  0  0
  -22.0970   -4.1880   23.8680 C   0  0  0  0  0  3  0  0  0  0  0  0
  -22.3270   -4.9000   22.6780 C   0  0  0  0  0  0  0  0  0  0  0  0
  -22.8940   -4.2730   21.6190 F   0  0  0  0  0  0  0  0  0  0  0  0
  -21.2620   -4.1380   26.1050 F   0  0  0  0  0  0  0  0  0  0  0  0
  -23.1140  -13.5580   21.1860 C   0  0  0  0  0  0  0  0  0  0  0  0
  -22.4650  -12.8380   22.0930 N   0  0  0  0  0  0  0  0  0  0  0  0
  -22.6220  -14.5840   20.7170 O   0  0  0  0  0  0  0  0  0  0  0  0
  -22.8790  -12.0080   22.4930 H   0  0  0  0  0  0  0  0  0  0  0  0
  -21.5440  -13.1190   22.3940 H   0  0  0  0  0  0  0  0  0  0  0  0
  -25.6520  -15.2890   20.2360 N   0  0  0  0  0  0  0  0  0  0  0  0
  -24.8930  -15.9310   20.4380 H   0  0  0  0  0  0  0  0  0  0  0  0
  -26.4830  -15.7550   19.8930 H   0  0  0  0  0  0  0  0  0  0  0  0
  2  1  2  0
  2  3  1  0
  4  3  1  0
  5 16  2  0
  6  4  1  0
  6 11  1  0
  7 15  1  0
  7 17  1  0
  8 14  1  0
  8 10  1  0
  9 15  1  0
 10  9  1  0
 11 10  2  0
 12  6  2  0
 13 12  1  0
 13  8  2  0
 14  7  1  0
 15  5  1  0
 17 19  2  0
 18 17  1  0
 20 18  1  0
 21 30  2  0
 21 26  1  0
 22 18  1  0
 22 26  1  0
 23 22  1  0
 24 25  1  0
 24 23  1  0
 25 21  1  0
 26 27  2  0
 27 28  1  0
 29 28  2  0
 30 29  1  0
 31  5  1  0
 31 36  1  0
 31 32  1  0
 32 35  1  1
 32 33  1  0
 34 32  1  0
 36 39  1  0
 37 41  1  0
 37 36  1  0
 38 37  2  0
 41 40  1  0
 43 41  1  0
 43 44  1  0
 43 42  1  0
 45 49  1  0
 45  1  1  0
 46 47  1  0
 47 52  2  0
 48 52  1  0
 48 50  1  0
 49 48  1  0
 51 46  1  0
 51 49  2  0
 53 47  1  0
 54 59  1  0
 55 56  1  0
 55 54  1  0
 57 56  1  0
 57 64  1  0
 57 58  1  0
 59 53  1  0
 59 58  1  0
 60 53  2  0
 61 62  2  0
 62 81  1  0
 63 62  1  0
 63 66  1  0
 64 65  1  0
 64 61  1  0
 65 63  2  0
 66 67  1  0
 67 68  2  0
 69 72  1  0
 69 68  1  0
 70 69  2  0
 71 70  1  0
 71 66  2  0
 72 73  1  0
 73 78  2  0
 73 74  1  0
 74 75  2  0
 75 76  1  0
 76 80  1  0
 77 76  2  0
 78 77  1  0
 79 78  1  0
 81 82  1  0
 82 85  1  0
 82 84  1  0
 83 81  2  0
 86 61  1  0
 86 87  1  0
 88 86  1  0
M  ISO  4   3 101   4 101  47 100  53 100
M  END
>  <TORSDO>  (51) 
F 20

>  <SCORE>  (51) 
-12.385

>  <name>  (51) 
52

>  <ligand_id>  (51) 
52

>  <original_smiles>  (51) 
[H]c1nc(OC([H])([H])C([H])([H])C([H])([H])Oc2c([H])c([H])c3c(c2[H])C([H])([H])N(C(=O)C([H])(N([H])C(=O)C([H])(N([H])C([H])([H])[H])C([H])([H])[H])C(C([H])([H])[H])(C([H])([H])[H])C([H])([H])[H])C([H])(C(=O)N([H])C2([H])c4c([H])c([H])c([H])c([H])c4C([H])([H])C([H])([H])C2([H])[H])C3([H])[H])c(C([H])([H])[H])nc1C(=O)N1C([H])([H])C([H])([H])C([H])([H])C([H])(n2nc(-c3c([H])c([H])c(Oc4c([H])c([H])c(F)c([H])c4F)c([H])c3[H])c(C(=O)N([H])[H])c2N([H])[H])C1([H])[H]

>  <smiles>  (51) 
[H]c1nc(OC([H])([H])C([H])([H])C([H])([H])Oc2c([H])c([H])c3c(c2[H])C([H])([H])N(C(=O)C([H])(N([H])C(=O)C([H])(N([H])C([H])([H])[H])C([H])([H])[H])C(C([H])([H])[H])(C([H])([H])[H])C([H])([H])[H])C([H])(C(=O)N([H])C2([H])c4c([H])c([H])c([H])c([H])c4C([H])([H])C([H])([H])C2([H])[H])C3([H])[H])c(C([H])([H])[H])nc1C(=O)N1C([H])([H])C([H])([H])C([H])([H])C([H])(n2nc(-c3c([H])c([H])c(Oc4c([H])c([H])c(F)c([H])c4F)c([H])c3[H])c(C(=O)N([H])[H])c2N([H])[H])C1([H])[H]

$$$$
53:0:0
     RDKit          3D

 93101  0  0  1  0  0  0  0  0999 V2000
  -29.8790  -21.3130   18.8420 C   0  0  0  0  0  3  0  0  0  0  0  0
  -30.4000  -20.0480   18.6840 C   0  0  0  0  0  0  0  0  0  0  0  0
  -30.2170  -19.4360   19.9750 C   0  0  0  0  0  0  0  0  0  0  0  0
  -29.6140  -20.2940   20.8140 N   0  0  0  0  0  0  0  0  0  0  0  0
  -29.4370  -21.4690   20.1370 N   0  0  0  0  0  0  0  0  0  0  0  0
  -30.6880  -20.3570   16.1910 C   0  0  0  0  0  1  0  0  0  0  0  0
  -30.6360  -18.0550   17.1160 C   0  0  0  0  0  1  0  0  0  0  0  0
  -32.5950  -19.5510   17.5960 C   0  0  0  0  0  1  0  0  0  0  0  0
  -31.0670  -19.5020   17.4200 C   0  0  2  0  0  0  0  0  0  0  0  0
  -30.6970  -18.0570   20.4850 C   0  0  0  0  0  3  0  0  0  0  0  0
  -29.7260  -16.8370   20.2910 C   0  0  0  0  0  3  0  0  0  0  0  0
  -30.7920  -14.5370   20.0770 C   0  0  0  0  0  0  0  0  0  0  0  0
  -30.4260  -12.4030   18.8570 C   0  0  0  0  0  2  0  0  0  0  0  0
  -29.4140  -12.6170   17.7110 C   0  0  0  0  0  2  0  0  0  0  0  0
  -27.9680  -12.4650   18.2200 C   0  0  0  0  0  2  0  0  0  0  0  0
  -27.7040  -13.2750   19.5150 C   0  0  0  0  0  3  0  0  0  0  0  0
  -28.8150  -13.0200   20.5570 C   0  0  0  0  0  2  0  0  0  0  0  0
  -30.1080  -13.3580   19.9350 N   0  0  0  0  0  0  0  0  0  0  0  0
  -31.8310  -14.7680   19.4510 O   0  0  0  0  0  0  0  0  0  0  0  0
  -30.3050  -15.4650   22.2770 C   0  0  0  0  0  1  0  0  0  0  0  0
  -30.1890  -15.5140   20.8170 N   0  0  0  0  0  0  0  0  0  0  0  0
  -25.3520  -13.8840   20.3610 C   0  0  0  0  0  0  0  0  0  0  0  0
  -24.2990  -13.1120   20.7740 C   0  0  0  0  0  0  0  0  0  0  0  0
  -24.7490  -11.7580   20.6970 C   0  0  0  0  0  0  0  0  0  0  0  0
  -26.3760  -13.0000   20.0610 N   0  0  0  0  0  0  0  0  0  0  0  0
  -26.0200  -11.7160   20.3200 N   0  0  0  0  0  0  0  0  0  0  0  0
  -24.0240  -10.4980   20.9070 C   0  0  0  0  0  0  0  0  0  0  0  0
  -24.4680   -9.5380   21.8430 C   0  0  0  0  0  3  0  0  0  0  0  0
  -23.7450   -8.3420   22.0400 C   0  0  0  0  0  3  0  0  0  0  0  0
  -22.5630   -8.0980   21.3010 C   0  0  0  0  0  0  0  0  0  0  0  0
  -22.1370   -9.0470   20.3550 C   0  0  0  0  0  3  0  0  0  0  0  0
  -22.8600  -10.2340   20.1570 C   0  0  0  0  0  3  0  0  0  0  0  0
  -21.8100   -6.9530   21.4070 O   0  0  0  0  0  0  0  0  0  0  0  0
  -21.7350   -6.2470   22.5800 C   0  0  0  0  0  0  0  0  0  0  0  0
  -21.2780   -6.8390   23.7790 C   0  0  0  0  0  3  0  0  0  0  0  0
  -21.1510   -6.0590   24.9450 C   0  0  0  0  0  3  0  0  0  0  0  0
  -21.4710   -4.6880   24.9150 C   0  0  0  0  0  0  0  0  0  0  0  0
  -21.9200   -4.0950   23.7210 C   0  0  0  0  0  3  0  0  0  0  0  0
  -22.0490   -4.8730   22.5570 C   0  0  0  0  0  0  0  0  0  0  0  0
  -22.4630   -4.2940   21.4050 F   0  0  0  0  0  0  0  0  0  0  0  0
  -21.3410   -3.9360   26.0320 F   0  0  0  0  0  0  0  0  0  0  0  0
  -22.9210  -13.5950   21.1290 C   0  0  0  0  0  0  0  0  0  0  0  0
  -22.2390  -12.8920   22.0260 N   0  0  0  0  0  0  0  0  0  0  0  0
  -22.4620  -14.6280   20.6450 O   0  0  0  0  0  0  0  0  0  0  0  0
  -22.6260  -12.0560   22.4390 H   0  0  0  0  0  0  0  0  0  0  0  0
  -21.3170  -13.1960   22.3070 H   0  0  0  0  0  0  0  0  0  0  0  0
  -25.5170  -15.2560   20.1970 N   0  0  0  0  0  0  0  0  0  0  0  0
  -24.7660  -15.9170   20.3650 H   0  0  0  0  0  0  0  0  0  0  0  0
  -26.3620  -15.6940   19.8520 H   0  0  0  0  0  0  0  0  0  0  0  0
  -28.7970  -22.6420   20.7860 C   0  0  0  0  0  2  0  0  0  0  0  0
  -28.9820  -24.0540   20.1070 C   0  0  0  0  0  2  0  0  0  0  0  0
  -28.2500  -25.2330   20.8460 C   0  0  0  0  0  2  0  0  0  0  0  0
  -28.4360  -26.5880   20.3270 O   0  0  0  0  0  0  0  0  0  0  0  0
  -24.6130  -31.9060   23.2720 C   0  0  0  0  0  0  0  0  0  0  0  0
  -27.2990  -27.3880   20.2920 C   0  0  0  0  0  0  0  0  0  0  0  0
  -23.4340  -30.4800   21.6340 C   0  0  0  0  0  3  0  0  0  0  0  0
  -24.9120  -28.9310   20.2400 C   0  0  0  0  0  0  0  0  0  0  0  0
  -25.9670  -30.8340   21.4660 C   0  0  0  0  0  2  0  0  0  0  0  0
  -26.0660  -29.4530   20.8390 C   0  0  0  0  0  0  0  0  0  0  0  0
  -27.2670  -28.6930   20.8550 C   0  0  0  0  0  3  0  0  0  0  0  0
  -26.1290  -26.8990   19.6740 C   0  0  0  0  0  3  0  0  0  0  0  0
  -24.9420  -27.6570   19.6490 C   0  0  0  0  0  3  0  0  0  0  0  0
  -23.6650  -29.7890   20.2640 C   0  0  0  0  0  2  0  0  0  0  0  0
  -24.6890  -31.0900   22.1820 N   0  0  0  0  0  0  0  0  0  0  0  0
  -23.5240  -32.1800   23.7950 O   0  0  0  0  0  0  0  0  0  0  0  0
  -22.7720  -29.4690   22.5980 C   0  0  0  0  0  0  0  0  0  0  0  0
  -21.4470  -29.2940   22.4680 N   0  0  0  0  0  0  0  0  0  0  0  0
  -23.4500  -28.8440   23.4170 O   0  0  0  0  0  0  0  0  0  0  0  0
  -20.9610  -29.8500   21.7770 H   0  0  0  0  0  0  0  0  0  0  0  0
  -18.0630  -28.1190   22.9670 C   0  0  0  0  0  0  0  0  0  0  0  0
  -20.6220  -28.3640   23.2400 C   0  0  0  0  0  3  0  0  0  0  0  0
  -20.7170  -26.9300   22.6690 C   0  0  0  0  0  2  0  0  0  0  0  0
  -19.6140  -26.6100   21.6540 C   0  0  0  0  0  2  0  0  0  0  0  0
  -18.2320  -26.7660   22.2960 C   0  0  0  0  0  2  0  0  0  0  0  0
  -19.1860  -28.8760   23.3960 C   0  0  0  0  0  0  0  0  0  0  0  0
  -18.9750  -30.1430   23.9820 C   0  0  0  0  0  3  0  0  0  0  0  0
  -17.6730  -30.6530   24.1440 C   0  0  0  0  0  3  0  0  0  0  0  0
  -16.5640  -29.8920   23.7320 C   0  0  0  0  0  3  0  0  0  0  0  0
  -16.7600  -28.6280   23.1490 C   0  0  0  0  0  3  0  0  0  0  0  0
  -25.8880  -32.5510   23.9020 C   0  0  0  0  0  3  0  0  0  0  0  0
  -25.5680  -33.9520   24.2080 N   0  0  0  0  0  0  0  0  0  0  0  0
  -25.9050  -34.9950   23.4390 C   0  0  0  0  0  0  0  0  0  0  0  0
  -26.5880  -34.8810   22.4170 O   0  0  0  0  0  0  0  0  0  0  0  0
  -24.9640  -34.1140   25.0010 H   0  0  0  0  0  0  0  0  0  0  0  0
  -24.1710  -36.7740   23.0470 C   0  0  0  0  0  1  0  0  0  0  0  0
  -25.4080  -36.3880   23.8730 C   0  0  0  0  0  3  0  0  0  0  0  0
  -27.5300  -37.2960   24.7100 C   0  0  0  0  0  1  0  0  0  0  0  0
  -26.4360  -37.4440   23.7540 N   0  0  0  0  0  0  0  0  0  0  0  0
  -26.0240  -38.3640   23.8850 H   0  0  0  0  0  0  0  0  0  0  0  0
  -26.3920  -31.7980   25.1930 C   0  0  1  0  0  0  0  0  0  0  0  0
  -25.2870  -31.5670   26.2500 C   0  0  0  0  0  1  0  0  0  0  0  0
  -26.9860  -30.4190   24.8240 C   0  0  0  0  0  1  0  0  0  0  0  0
  -27.5300  -32.6060   25.8600 C   0  0  0  0  0  1  0  0  0  0  0  0
  1  5  1  0
  2  1  2  0
  2  3  1  0
  3 10  1  0
  3  4  2  0
  5 50  1  0
  5  4  1  0
  9  6  1  6
  7  9  1  0
  9  8  1  0
  9  2  1  0
 11 10  2  0
 11 21  1  0
 12 21  1  0
 13 18  1  0
 14 15  1  0
 14 13  1  0
 16 15  1  0
 16 25  1  0
 16 17  1  0
 18 12  1  0
 18 17  1  0
 19 12  2  0
 21 20  1  0
 22 23  2  0
 23 42  1  0
 24 23  1  0
 24 27  1  0
 25 26  1  0
 25 22  1  0
 26 24  2  0
 27 28  1  0
 28 29  2  0
 30 33  1  0
 30 29  1  0
 31 30  2  0
 32 31  1  0
 32 27  2  0
 33 34  1  0
 34 35  1  0
 35 36  2  0
 37 36  1  0
 37 41  1  0
 38 37  2  0
 39 34  2  0
 39 38  1  0
 40 39  1  0
 42 43  1  0
 43 46  1  0
 43 45  1  0
 44 42  2  0
 47 22  1  0
 47 48  1  0
 49 47  1  0
 51 50  1  0
 51 52  1  0
 53 52  1  0
 54 65  2  0
 55 53  1  0
 55 60  1  0
 56 64  1  0
 56 66  1  0
 57 63  1  0
 57 59  1  0
 58 64  1  0
 59 60  2  0
 59 58  1  0
 61 55  2  0
 62 61  1  0
 62 57  2  0
 63 56  1  0
 64 54  1  0
 66 68  2  0
 67 66  1  0
 69 67  1  0
 70 79  2  0
 70 75  1  0
 71 67  1  0
 71 75  1  0
 72 71  1  0
 73 74  1  0
 73 72  1  0
 74 70  1  0
 75 76  2  0
 76 77  1  0
 78 77  2  0
 79 78  1  0
 80 54  1  0
 80 81  1  0
 80 90  1  0
 81 84  1  0
 82 86  1  0
 82 81  1  0
 83 82  2  0
 86 85  1  0
 88 86  1  0
 88 89  1  0
 88 87  1  0
 90 93  1  1
 90 91  1  0
 92 90  1  0
M  ISO  4  12 100  21 100  52 101  53 101
M  END
>  <TORSDO>  (52) 
F 22

>  <SCORE>  (52) 
-12.409

>  <name>  (52) 
53

>  <ligand_id>  (52) 
53

>  <original_smiles>  (52) 
[H]c1c([H])c([H])c2c(c1[H])C([H])([H])C([H])([H])C([H])([H])C2([H])N([H])C(=O)C1([H])N(C(=O)C([H])(N([H])C(=O)C([H])(N([H])C([H])([H])[H])C([H])([H])[H])C(C([H])([H])[H])(C([H])([H])[H])C([H])([H])[H])C([H])([H])c2c([H])c(OC([H])([H])C([H])([H])C([H])([H])n3nc(C([H])([H])C([H])([H])N(C(=O)N4C([H])([H])C([H])([H])C([H])([H])C([H])(n5nc(-c6c([H])c([H])c(Oc7c([H])c([H])c(F)c([H])c7F)c([H])c6[H])c(C(=O)N([H])[H])c5N([H])[H])C4([H])[H])C([H])([H])[H])c(C(C([H])([H])[H])(C([H])([H])[H])C([H])([H])[H])c3[H])c([H])c([H])c2C1([H])[H]

>  <smiles>  (52) 
[H]c1c([H])c([H])c2c(c1[H])C([H])([H])C([H])([H])C([H])([H])C2([H])N([H])C(=O)C1([H])N(C(=O)C([H])(N([H])C(=O)C([H])(N([H])C([H])([H])[H])C([H])([H])[H])C(C([H])([H])[H])(C([H])([H])[H])C([H])([H])[H])C([H])([H])c2c([H])c(OC([H])([H])C([H])([H])C([H])([H])n3nc(C([H])([H])C([H])([H])N(C(=O)N4C([H])([H])C([H])([H])C([H])([H])C([H])(n5nc(-c6c([H])c([H])c(Oc7c([H])c([H])c(F)c([H])c7F)c([H])c6[H])c(C(=O)N([H])[H])c5N([H])[H])C4([H])[H])C([H])([H])[H])c(C(C([H])([H])[H])(C([H])([H])[H])C([H])([H])[H])c3[H])c([H])c([H])c2C1([H])[H]

$$$$
54:0:0
     RDKit          3D

 90 98  0  0  1  0  0  0  0  0999 V2000
  -28.7120  -23.1430   20.0290 C   0  0  0  0  0  0  0  0  0  0  0  0
  -29.2610  -20.9010   19.8390 C   0  0  0  0  0  3  0  0  0  0  0  0
  -31.4520  -21.1170   21.0860 C   0  0  0  0  0  1  0  0  0  0  0  0
  -28.2890  -21.8620   19.5500 N   0  0  0  0  0  0  0  0  0  0  0  0
  -29.9100  -22.9740   20.6110 N   0  0  0  0  0  2  0  0  0  0  0  0
  -30.2200  -21.6030   20.5010 N   0  0  0  0  0  0  0  0  0  0  0  0
  -28.7860  -19.0620   18.0880 C   0  0  0  0  0  1  0  0  0  0  0  0
  -27.9530  -18.7690   20.4160 C   0  0  0  0  0  1  0  0  0  0  0  0
  -29.1570  -19.2270   19.5750 C   0  0  2  0  0  0  0  0  0  0  0  0
  -30.3240  -17.9770   19.8100 C   0  0  0  0  0  2  0  0  0  0  0  0
  -30.7640  -15.1760   19.7770 C   0  0  0  0  0  0  0  0  0  0  0  0
  -30.6230  -12.7630   18.9510 C   0  0  0  0  0  2  0  0  0  0  0  0
  -29.6300  -12.6070   17.7760 C   0  0  0  0  0  2  0  0  0  0  0  0
  -28.1940  -12.4000   18.2950 C   0  0  0  0  0  2  0  0  0  0  0  0
  -27.8320  -13.3820   19.4390 C   0  0  0  0  0  3  0  0  0  0  0  0
  -28.9450  -13.4870   20.5030 C   0  0  0  0  0  2  0  0  0  0  0  0
  -30.1660  -13.9050   19.8010 N   0  0  0  0  0  0  0  0  0  0  0  0
  -31.9570  -15.2060   19.4590 O   0  0  0  0  0  0  0  0  0  0  0  0
  -30.0040  -16.3940   19.9050 N   0  0  0  0  0  0  0  0  0  0  0  0
  -29.0340  -16.2070   20.1080 H   0  0  0  0  0  0  0  0  0  0  0  0
  -25.5170  -13.9780   20.3470 C   0  0  0  0  0  0  0  0  0  0  0  0
  -24.4650  -13.2130   20.7660 C   0  0  0  0  0  0  0  0  0  0  0  0
  -24.8990  -11.8550   20.6730 C   0  0  0  0  0  0  0  0  0  0  0  0
  -26.5260  -13.0880   20.0200 N   0  0  0  0  0  0  0  0  0  0  0  0
  -26.1680  -11.8040   20.2820 N   0  0  0  0  0  0  0  0  0  0  0  0
  -24.1590  -10.6020   20.8750 C   0  0  0  0  0  0  0  0  0  0  0  0
  -24.5730   -9.6410   21.8230 C   0  0  0  0  0  3  0  0  0  0  0  0
  -23.8290   -8.4560   22.0160 C   0  0  0  0  0  3  0  0  0  0  0  0
  -22.6560   -8.2230   21.2580 C   0  0  0  0  0  0  0  0  0  0  0  0
  -22.2610   -9.1730   20.2990 C   0  0  0  0  0  3  0  0  0  0  0  0
  -23.0050  -10.3490   20.1060 C   0  0  0  0  0  3  0  0  0  0  0  0
  -21.8870   -7.0890   21.3560 O   0  0  0  0  0  0  0  0  0  0  0  0
  -21.7530   -6.4100   22.5410 C   0  0  0  0  0  0  0  0  0  0  0  0
  -21.2270   -7.0260   23.6980 C   0  0  0  0  0  3  0  0  0  0  0  0
  -21.0440   -6.2740   24.8750 C   0  0  0  0  0  3  0  0  0  0  0  0
  -21.3780   -4.9070   24.8960 C   0  0  0  0  0  0  0  0  0  0  0  0
  -21.8980   -4.2910   23.7450 C   0  0  0  0  0  3  0  0  0  0  0  0
  -22.0830   -5.0400   22.5700 C   0  0  0  0  0  0  0  0  0  0  0  0
  -22.5630   -4.4370   21.4570 F   0  0  0  0  0  0  0  0  0  0  0  0
  -21.1950   -4.1810   26.0250 F   0  0  0  0  0  0  0  0  0  0  0  0
  -23.0970  -13.7110   21.1320 C   0  0  0  0  0  0  0  0  0  0  0  0
  -22.4090  -13.0110   22.0280 N   0  0  0  0  0  0  0  0  0  0  0  0
  -22.6510  -14.7540   20.6610 O   0  0  0  0  0  0  0  0  0  0  0  0
  -22.7790  -12.1620   22.4300 H   0  0  0  0  0  0  0  0  0  0  0  0
  -21.4940  -13.3310   22.3150 H   0  0  0  0  0  0  0  0  0  0  0  0
  -25.6940  -15.3500   20.1870 N   0  0  0  0  0  0  0  0  0  0  0  0
  -24.9440  -16.0100   20.3570 H   0  0  0  0  0  0  0  0  0  0  0  0
  -26.5100  -15.7820   19.7740 H   0  0  0  0  0  0  0  0  0  0  0  0
  -27.8470  -24.5690   19.8430 C   0  0  0  0  0  2  0  0  0  0  0  0
  -28.1920  -26.0380   20.3410 O   0  0  0  0  0  0  0  0  0  0  0  0
  -24.5980  -31.8630   23.2910 C   0  0  0  0  0  0  0  0  0  0  0  0
  -27.1850  -27.1000   20.2520 C   0  0  0  0  0  0  0  0  0  0  0  0
  -23.4120  -30.4800   21.6330 C   0  0  0  0  0  3  0  0  0  0  0  0
  -24.8730  -28.9080   20.2090 C   0  0  0  0  0  0  0  0  0  0  0  0
  -25.9750  -30.7170   21.5040 C   0  0  0  0  0  2  0  0  0  0  0  0
  -26.0500  -29.3240   20.8410 C   0  0  0  0  0  0  0  0  0  0  0  0
  -27.2040  -28.4360   20.8500 C   0  0  0  0  0  3  0  0  0  0  0  0
  -25.9810  -26.8190   19.5620 C   0  0  0  0  0  3  0  0  0  0  0  0
  -24.8560  -27.6720   19.5520 C   0  0  0  0  0  3  0  0  0  0  0  0
  -23.6500  -29.8150   20.2530 C   0  0  0  0  0  2  0  0  0  0  0  0
  -24.6820  -31.0430   22.1970 N   0  0  0  0  0  0  0  0  0  0  0  0
  -23.5070  -32.1490   23.8080 O   0  0  0  0  0  0  0  0  0  0  0  0
  -22.7190  -29.4690   22.5830 C   0  0  0  0  0  0  0  0  0  0  0  0
  -21.3920  -29.2970   22.4400 N   0  0  0  0  0  0  0  0  0  0  0  0
  -23.3790  -28.8450   23.4180 O   0  0  0  0  0  0  0  0  0  0  0  0
  -20.9160  -29.8530   21.7440 H   0  0  0  0  0  0  0  0  0  0  0  0
  -18.0070  -28.0790   22.9010 C   0  0  0  0  0  0  0  0  0  0  0  0
  -20.5620  -28.3550   23.1990 C   0  0  0  0  0  3  0  0  0  0  0  0
  -20.6760  -26.9230   22.6260 C   0  0  0  0  0  2  0  0  0  0  0  0
  -19.5900  -26.5950   21.5970 C   0  0  0  0  0  2  0  0  0  0  0  0
  -18.1990  -26.7320   22.2220 C   0  0  0  0  0  2  0  0  0  0  0  0
  -19.1160  -28.8470   23.3450 C   0  0  0  0  0  0  0  0  0  0  0  0
  -18.8830  -30.1050   23.9400 C   0  0  0  0  0  3  0  0  0  0  0  0
  -17.5730  -30.5970   24.0950 C   0  0  0  0  0  3  0  0  0  0  0  0
  -16.4790  -29.8280   23.6640 C   0  0  0  0  0  3  0  0  0  0  0  0
  -16.6960  -28.5700   23.0730 C   0  0  0  0  0  3  0  0  0  0  0  0
  -25.8700  -32.4950   23.9340 C   0  0  0  0  0  3  0  0  0  0  0  0
  -26.3380  -31.7480   25.2430 C   0  0  1  0  0  0  0  0  0  0  0  0
  -25.2110  -31.5460   26.2830 C   0  0  0  0  0  1  0  0  0  0  0  0
  -26.9180  -30.3550   24.9030 C   0  0  0  0  0  1  0  0  0  0  0  0
  -27.4790  -32.5450   25.9200 C   0  0  0  0  0  1  0  0  0  0  0  0
  -25.5690  -33.9040   24.2320 N   0  0  0  0  0  0  0  0  0  0  0  0
  -25.9050  -34.9420   23.4540 C   0  0  0  0  0  0  0  0  0  0  0  0
  -26.5690  -34.8120   22.4220 O   0  0  0  0  0  0  0  0  0  0  0  0
  -24.9840  -34.0810   25.0350 H   0  0  0  0  0  0  0  0  0  0  0  0
  -24.1820  -36.7420   23.0880 C   0  0  0  0  0  1  0  0  0  0  0  0
  -25.4330  -36.3450   23.8870 C   0  0  0  0  0  3  0  0  0  0  0  0
  -27.5810  -37.2420   24.6730 C   0  0  0  0  0  1  0  0  0  0  0  0
  -26.4700  -37.3890   23.7360 N   0  0  0  0  0  0  0  0  0  0  0  0
  -26.0710  -38.3160   23.8620 H   0  0  0  0  0  0  0  0  0  0  0  0
  1  5  1  0
  2  9  1  0
  2  6  1  0
  4  2  1  0
  4  1  2  0
  6  5  1  0
  6  3  1  0
  9  7  1  6
  9 10  1  0
  9  8  1  0
 10 19  1  0
 11 17  1  0
 11 19  1  0
 12 17  1  0
 13 14  1  0
 13 12  1  0
 15 14  1  0
 15 24  1  0
 15 16  1  0
 17 16  1  0
 18 11  2  0
 19 20  1  0
 21 22  2  0
 22 41  1  0
 23 22  1  0
 23 26  1  0
 24 25  1  0
 24 21  1  0
 25 23  2  0
 26 27  1  0
 27 28  2  0
 29 32  1  0
 29 28  1  0
 30 29  2  0
 31 30  1  0
 31 26  2  0
 32 33  1  0
 33 38  2  0
 33 34  1  0
 34 35  2  0
 35 36  1  0
 36 40  1  0
 37 36  2  0
 38 37  1  0
 39 38  1  0
 41 42  1  0
 42 45  1  0
 42 44  1  0
 43 41  2  0
 46 21  1  0
 46 47  1  0
 48 46  1  0
 49  1  1  0
 49 50  1  0
 51 62  2  0
 52 50  1  0
 52 57  1  0
 53 61  1  0
 53 63  1  0
 54 60  1  0
 54 56  1  0
 55 61  1  0
 56 57  2  0
 56 55  1  0
 58 52  2  0
 59 58  1  0
 59 54  2  0
 60 53  1  0
 61 51  1  0
 63 65  2  0
 64 63  1  0
 66 64  1  0
 67 76  2  0
 67 72  1  0
 68 64  1  0
 68 72  1  0
 69 68  1  0
 70 71  1  0
 70 69  1  0
 71 67  1  0
 72 73  2  0
 73 74  1  0
 75 74  2  0
 76 75  1  0
 77 51  1  0
 77 82  1  0
 77 78  1  0
 78 81  1  1
 78 79  1  0
 80 78  1  0
 82 85  1  0
 83 87  1  0
 83 82  1  0
 84 83  2  0
 87 86  1  0
 89 90  1  0
 89 87  1  0
 89 88  1  0
M  ISO  4  11 100  19 100  49 101  50 101
M  END
>  <TORSDO>  (53) 
F 19

>  <SCORE>  (53) 
-15.074

>  <name>  (53) 
54

>  <ligand_id>  (53) 
54

>  <original_smiles>  (53) 
[H]c1c([H])c([H])c2c(c1[H])C([H])([H])C([H])([H])C([H])([H])C2([H])N([H])C(=O)C1([H])N(C(=O)C([H])(N([H])C(=O)C([H])(N([H])C([H])([H])[H])C([H])([H])[H])C(C([H])([H])[H])(C([H])([H])[H])C([H])([H])[H])C([H])([H])c2c([H])c(OC([H])([H])c3nc(C(C([H])([H])[H])(C([H])([H])[H])C([H])([H])N([H])C(=O)N4C([H])([H])C([H])([H])C([H])([H])C([H])(n5nc(-c6c([H])c([H])c(Oc7c([H])c([H])c(F)c([H])c7F)c([H])c6[H])c(C(=O)N([H])[H])c5N([H])[H])C4([H])[H])n(C([H])([H])[H])n3)c([H])c([H])c2C1([H])[H]

>  <smiles>  (53) 
[H]c1c([H])c([H])c2c(c1[H])C([H])([H])C([H])([H])C([H])([H])C2([H])N([H])C(=O)C1([H])N(C(=O)C([H])(N([H])C(=O)C([H])(N([H])C([H])([H])[H])C([H])([H])[H])C(C([H])([H])[H])(C([H])([H])[H])C([H])([H])[H])C([H])([H])c2c([H])c(OC([H])([H])c3nc(C(C([H])([H])[H])(C([H])([H])[H])C([H])([H])N([H])C(=O)N4C([H])([H])C([H])([H])C([H])([H])C([H])(n5nc(-c6c([H])c([H])c(Oc7c([H])c([H])c(F)c([H])c7F)c([H])c6[H])c(C(=O)N([H])[H])c5N([H])[H])C4([H])[H])n(C([H])([H])[H])n3)c([H])c([H])c2C1([H])[H]

$$$$
55:0:0
     RDKit          3D

 93101  0  0  1  0  0  0  0  0999 V2000
  -27.8600  -18.4930   18.3650 C   0  0  0  0  0  0  0  0  0  0  0  0
  -29.3830  -18.1450   19.7920 C   0  0  0  0  0  3  0  0  0  0  0  0
  -26.8890  -18.1920   17.2670 C   0  0  0  0  0  1  0  0  0  0  0  0
  -28.6470  -17.5160   18.8730 N   0  0  0  0  0  0  0  0  0  0  0  0
  -27.9940  -19.7050   18.8970 N   0  0  0  0  0  2  0  0  0  0  0  0
  -28.9760  -19.6020   19.8380 N   0  0  0  0  0  0  0  0  0  0  0  0
  -31.7840  -17.8140   19.9290 C   0  0  0  0  0  1  0  0  0  0  0  0
  -30.5180  -17.0600   20.4480 C   0  0  2  0  0  0  0  0  0  0  0  0
  -30.8680  -15.3510   20.0320 C   0  0  0  0  0  0  0  0  0  0  0  0
  -30.6420  -12.8900   19.2170 C   0  0  0  0  0  2  0  0  0  0  0  0
  -29.7370  -12.7520   17.9710 C   0  0  0  0  0  2  0  0  0  0  0  0
  -28.2750  -12.5610   18.3940 C   0  0  0  0  0  2  0  0  0  0  0  0
  -27.8760  -13.5210   19.5440 C   0  0  0  0  0  3  0  0  0  0  0  0
  -28.9290  -13.6620   20.6640 C   0  0  0  0  0  2  0  0  0  0  0  0
  -30.1920  -14.0890   20.0370 N   0  0  0  0  0  0  0  0  0  0  0  0
  -32.0370  -15.1550   19.6640 O   0  0  0  0  0  0  0  0  0  0  0  0
  -25.5350  -14.1250   20.3220 C   0  0  0  0  0  0  0  0  0  0  0  0
  -24.4600  -13.3670   20.6990 C   0  0  0  0  0  0  0  0  0  0  0  0
  -24.8980  -12.0080   20.6760 C   0  0  0  0  0  0  0  0  0  0  0  0
  -26.5530  -13.2290   20.0730 N   0  0  0  0  0  0  0  0  0  0  0  0
  -26.1860  -11.9510   20.3570 N   0  0  0  0  0  0  0  0  0  0  0  0
  -24.1520  -10.7610   20.8840 C   0  0  0  0  0  0  0  0  0  0  0  0
  -24.5430   -9.8130   21.8540 C   0  0  0  0  0  3  0  0  0  0  0  0
  -23.7850   -8.6360   22.0500 C   0  0  0  0  0  3  0  0  0  0  0  0
  -22.6260   -8.4010   21.2690 C   0  0  0  0  0  0  0  0  0  0  0  0
  -22.2540   -9.3400   20.2930 C   0  0  0  0  0  3  0  0  0  0  0  0
  -23.0130  -10.5070   20.0960 C   0  0  0  0  0  3  0  0  0  0  0  0
  -21.8440   -7.2730   21.3670 O   0  0  0  0  0  0  0  0  0  0  0  0
  -21.7150   -6.5920   22.5490 C   0  0  0  0  0  0  0  0  0  0  0  0
  -21.2220   -7.2120   23.7200 C   0  0  0  0  0  3  0  0  0  0  0  0
  -21.0360   -6.4550   24.8930 C   0  0  0  0  0  3  0  0  0  0  0  0
  -21.3360   -5.0760   24.8980 C   0  0  0  0  0  0  0  0  0  0  0  0
  -21.8220   -4.4580   23.7320 C   0  0  0  0  0  3  0  0  0  0  0  0
  -22.0090   -5.2130   22.5630 C   0  0  0  0  0  0  0  0  0  0  0  0
  -22.4550   -4.6100   21.4330 F   0  0  0  0  0  0  0  0  0  0  0  0
  -21.1570   -4.3430   26.0210 F   0  0  0  0  0  0  0  0  0  0  0  0
  -23.0750  -13.8750   20.9720 C   0  0  0  0  0  0  0  0  0  0  0  0
  -22.3380  -13.2150   21.8610 N   0  0  0  0  0  0  0  0  0  0  0  0
  -22.6540  -14.8910   20.4260 O   0  0  0  0  0  0  0  0  0  0  0  0
  -22.6880  -12.3920   22.3270 H   0  0  0  0  0  0  0  0  0  0  0  0
  -21.4060  -13.5430   22.0700 H   0  0  0  0  0  0  0  0  0  0  0  0
  -25.7200  -15.4950   20.1370 N   0  0  0  0  0  0  0  0  0  0  0  0
  -24.9650  -16.1530   20.3000 H   0  0  0  0  0  0  0  0  0  0  0  0
  -26.5650  -15.9360   19.7920 H   0  0  0  0  0  0  0  0  0  0  0  0
  -30.4650  -17.0600   22.0090 C   0  0  0  0  0  2  0  0  0  0  0  0
  -30.9470  -18.2960   22.6730 N   0  0  0  0  0  4  0  0  0  0  0  0
  -31.9180  -18.4480   22.4720 H   0  0  0  0  0  0  0  0  0  0  0  0
  -30.8640  -18.2040   23.6710 H   0  0  0  0  0  0  0  0  0  0  0  0
  -30.4270  -19.1070   22.3990 H   0  0  0  0  0  0  0  0  0  0  0  0
  -29.1230  -21.0940   20.5700 C   0  0  0  0  0  3  0  0  0  0  0  0
  -28.6400  -22.7390   19.9880 C   0  0  0  0  0  3  0  0  0  0  0  0
  -28.3650  -24.3380   20.7890 C   0  0  0  0  0  2  0  0  0  0  0  0
  -28.4590  -25.9420   20.4120 O   0  0  0  0  0  0  0  0  0  0  0  0
  -24.6000  -31.7930   23.1990 C   0  0  0  0  0  0  0  0  0  0  0  0
  -27.4100  -26.9840   20.3760 C   0  0  0  0  0  0  0  0  0  0  0  0
  -23.5350  -30.3640   21.5040 C   0  0  0  0  0  3  0  0  0  0  0  0
  -25.0870  -28.7940   20.1710 C   0  0  0  0  0  0  0  0  0  0  0  0
  -26.0930  -30.6480   21.4920 C   0  0  0  0  0  2  0  0  0  0  0  0
  -26.2310  -29.2380   20.8540 C   0  0  0  0  0  0  0  0  0  0  0  0
  -27.3950  -28.3600   20.9210 C   0  0  0  0  0  3  0  0  0  0  0  0
  -26.2440  -26.6780   19.6460 C   0  0  0  0  0  3  0  0  0  0  0  0
  -25.1210  -27.5330   19.5460 C   0  0  0  0  0  3  0  0  0  0  0  0
  -23.8560  -29.6920   20.1410 C   0  0  0  0  0  2  0  0  0  0  0  0
  -24.7640  -30.9600   22.1210 N   0  0  0  0  0  0  0  0  0  0  0  0
  -23.4750  -32.0540   23.6540 O   0  0  0  0  0  0  0  0  0  0  0  0
  -22.8070  -29.3560   22.4330 C   0  0  0  0  0  0  0  0  0  0  0  0
  -21.4800  -29.2010   22.2650 N   0  0  0  0  0  0  0  0  0  0  0  0
  -23.4430  -28.7230   23.2760 O   0  0  0  0  0  0  0  0  0  0  0  0
  -21.0200  -29.7740   21.5730 H   0  0  0  0  0  0  0  0  0  0  0  0
  -18.0780  -28.0080   22.6880 C   0  0  0  0  0  0  0  0  0  0  0  0
  -20.6380  -28.2520   22.9950 C   0  0  0  0  0  3  0  0  0  0  0  0
  -20.7390  -26.8340   22.3900 C   0  0  0  0  0  2  0  0  0  0  0  0
  -19.6520  -26.5390   21.3520 C   0  0  0  0  0  2  0  0  0  0  0  0
  -18.2590  -26.6750   21.9750 C   0  0  0  0  0  2  0  0  0  0  0  0
  -19.1950  -28.7510   23.1530 C   0  0  0  0  0  0  0  0  0  0  0  0
  -18.9710  -29.9970   23.7850 C   0  0  0  0  0  3  0  0  0  0  0  0
  -17.6660  -30.4950   23.9530 C   0  0  0  0  0  3  0  0  0  0  0  0
  -16.5660  -29.7500   23.4980 C   0  0  0  0  0  3  0  0  0  0  0  0
  -16.7730  -28.5070   22.8710 C   0  0  0  0  0  3  0  0  0  0  0  0
  -25.8140  -32.4710   23.9050 C   0  0  0  0  0  3  0  0  0  0  0  0
  -25.4500  -33.8740   24.1860 N   0  0  0  0  0  0  0  0  0  0  0  0
  -25.8150  -34.9290   23.4450 C   0  0  0  0  0  0  0  0  0  0  0  0
  -26.5450  -34.8290   22.4550 O   0  0  0  0  0  0  0  0  0  0  0  0
  -24.8140  -34.0280   24.9540 H   0  0  0  0  0  0  0  0  0  0  0  0
  -24.0730  -36.6960   22.9880 C   0  0  0  0  0  1  0  0  0  0  0  0
  -25.2820  -36.3180   23.8610 C   0  0  0  0  0  3  0  0  0  0  0  0
  -27.3560  -37.2570   24.7860 C   0  0  0  0  0  1  0  0  0  0  0  0
  -26.3010  -37.3890   23.7870 N   0  0  0  0  0  0  0  0  0  0  0  0
  -25.8720  -38.3050   23.8950 H   0  0  0  0  0  0  0  0  0  0  0  0
  -26.2480  -31.7410   25.2380 C   0  0  1  0  0  0  0  0  0  0  0  0
  -25.0800  -31.5140   26.2270 C   0  0  0  0  0  1  0  0  0  0  0  0
  -26.8740  -30.3600   24.9310 C   0  0  0  0  0  1  0  0  0  0  0  0
  -27.3380  -32.5710   25.9550 C   0  0  0  0  0  1  0  0  0  0  0  0
  1  4  2  0
  1  5  1  0
  2  6  1  0
  2  8  1  0
  3  1  1  0
  4  2  1  0
  5  6  1  0
  6 50  1  0
  8  7  1  1
  8 45  1  0
  9 15  1  0
  9  8  1  0
 10 15  1  0
 11 12  1  0
 11 10  1  0
 13 12  1  0
 13 20  1  0
 13 14  1  0
 15 14  1  0
 16  9  2  0
 17 18  2  0
 18 37  1  0
 19 18  1  0
 19 22  1  0
 20 17  1  0
 20 21  1  0
 21 19  2  0
 22 23  1  0
 23 24  2  0
 25 28  1  0
 25 24  1  0
 26 25  2  0
 27 26  1  0
 27 22  2  0
 28 29  1  0
 29 34  2  0
 29 30  1  0
 30 31  2  0
 31 32  1  0
 32 36  1  0
 33 32  2  0
 34 33  1  0
 35 34  1  0
 37 38  1  0
 38 41  1  0
 38 40  1  0
 39 37  2  0
 42 43  1  0
 42 17  1  0
 44 42  1  0
 45 46  1  0
 46 48  1  0
 47 46  1  0
 49 46  1  0
 51 50  2  0
 51 52  1  0
 53 52  1  0
 54 65  2  0
 55 53  1  0
 55 60  1  0
 56 64  1  0
 56 66  1  0
 57 59  1  0
 58 64  1  0
 59 60  2  0
 59 58  1  0
 61 55  2  0
 62 61  1  0
 62 57  2  0
 63 57  1  0
 63 56  1  0
 64 54  1  0
 66 68  2  0
 67 66  1  0
 69 67  1  0
 70 79  2  0
 70 75  1  0
 71 67  1  0
 71 75  1  0
 72 71  1  0
 73 74  1  0
 73 72  1  0
 74 70  1  0
 75 76  2  0
 76 77  1  0
 78 77  2  0
 79 78  1  0
 80 54  1  0
 80 81  1  0
 80 90  1  0
 81 84  1  0
 82 86  1  0
 82 81  1  0
 83 82  2  0
 86 85  1  0
 88 86  1  0
 88 89  1  0
 88 87  1  0
 90 93  1  1
 90 91  1  0
 92 90  1  0
M  ISO  4   8 100   9 100  52 101  53 101
M  END
>  <TORSDO>  (54) 
F 22

>  <SCORE>  (54) 
-14.088

>  <name>  (54) 
55

>  <ligand_id>  (54) 
55

>  <original_smiles>  (54) 
[H]c1c([H])c([H])c2c(c1[H])C([H])([H])C([H])([H])C([H])([H])C2([H])N([H])C(=O)C1([H])N(C(=O)C([H])(N([H])C(=O)C([H])(N([H])C([H])([H])[H])C([H])([H])[H])C(C([H])([H])[H])(C([H])([H])[H])C([H])([H])[H])C([H])([H])c2c([H])c(OC([H])([H])C([H])([H])C([H])([H])n3nc(C([H])([H])[H])nc3C(C(=O)N3C([H])([H])C([H])([H])C([H])([H])C([H])(n4nc(-c5c([H])c([H])c(Oc6c([H])c([H])c(F)c([H])c6F)c([H])c5[H])c(C(=O)N([H])[H])c4N([H])[H])C3([H])[H])(C([H])([H])[H])C([H])([H])[N+]([H])([H])[H])c([H])c([H])c2C1([H])[H]

>  <smiles>  (54) 
[H]c1c([H])c([H])c2c(c1[H])C([H])([H])C([H])([H])C([H])([H])C2([H])N([H])C(=O)C1([H])N(C(=O)C([H])(N([H])C(=O)C([H])(N([H])C([H])([H])[H])C([H])([H])[H])C(C([H])([H])[H])(C([H])([H])[H])C([H])([H])[H])C([H])([H])c2c([H])c(OC([H])([H])C([H])([H])C([H])([H])n3nc(C([H])([H])[H])nc3C(C(=O)N3C([H])([H])C([H])([H])C([H])([H])C([H])(n4nc(-c5c([H])c([H])c(Oc6c([H])c([H])c(F)c([H])c6F)c([H])c5[H])c(C(=O)N([H])[H])c4N([H])[H])C3([H])[H])(C([H])([H])[H])C([H])([H])[N+]([H])([H])[H])c([H])c([H])c2C1([H])[H]

$$$$
56:0:0
     RDKit          3D

 89 97  0  0  1  0  0  0  0  0999 V2000
  -29.0070  -19.7620   21.0940 C   0  0  0  0  0  3  0  0  0  0  0  0
  -29.8190  -18.6740   20.5790 C   0  0  0  0  0  0  0  0  0  0  0  0
  -29.2090  -20.8980   20.3160 C   0  0  0  0  0  0  0  0  0  0  0  0
  -30.6890  -21.1800   18.2460 C   0  0  0  0  0  1  0  0  0  0  0  0
  -30.5440  -19.1640   19.5790 N   0  0  0  0  0  0  0  0  0  0  0  0
  -30.1490  -20.4630   19.3860 N   0  0  0  0  0  0  0  0  0  0  0  0
  -30.0000  -17.1860   21.1070 C   0  0  0  0  0  2  0  0  0  0  0  0
  -30.6040  -14.7800   20.3190 C   0  0  0  0  0  0  0  0  0  0  0  0
  -30.3890  -12.4870   19.3610 C   0  0  0  0  0  2  0  0  0  0  0  0
  -29.4460  -12.4950   18.1380 C   0  0  0  0  0  2  0  0  0  0  0  0
  -27.9700  -12.3700   18.5750 C   0  0  0  0  0  2  0  0  0  0  0  0
  -27.5970  -13.2860   19.7730 C   0  0  0  0  0  3  0  0  0  0  0  0
  -28.6640  -13.2420   20.8870 C   0  0  0  0  0  2  0  0  0  0  0  0
  -29.9560  -13.5670   20.2700 N   0  0  0  0  0  0  0  0  0  0  0  0
  -31.8250  -14.8380   20.1470 O   0  0  0  0  0  0  0  0  0  0  0  0
  -29.2530  -16.2520   18.9310 C   0  0  0  0  0  1  0  0  0  0  0  0
  -29.8380  -15.9400   20.2410 N   0  0  0  0  0  0  0  0  0  0  0  0
  -25.2170  -13.9040   20.5070 C   0  0  0  0  0  0  0  0  0  0  0  0
  -24.1470  -13.1380   20.8760 C   0  0  0  0  0  0  0  0  0  0  0  0
  -24.6030  -11.7840   20.8550 C   0  0  0  0  0  0  0  0  0  0  0  0
  -26.2560  -13.0160   20.2760 N   0  0  0  0  0  0  0  0  0  0  0  0
  -25.8940  -11.7370   20.5530 N   0  0  0  0  0  0  0  0  0  0  0  0
  -23.8730  -10.5250   21.0490 C   0  0  0  0  0  0  0  0  0  0  0  0
  -24.3150   -9.5530   21.9710 C   0  0  0  0  0  3  0  0  0  0  0  0
  -23.5850   -8.3580   22.1570 C   0  0  0  0  0  3  0  0  0  0  0  0
  -22.4020   -8.1280   21.4160 C   0  0  0  0  0  0  0  0  0  0  0  0
  -21.9770   -9.0900   20.4840 C   0  0  0  0  0  3  0  0  0  0  0  0
  -22.7070  -10.2770   20.2980 C   0  0  0  0  0  3  0  0  0  0  0  0
  -21.6450   -6.9860   21.5100 O   0  0  0  0  0  0  0  0  0  0  0  0
  -21.6200   -6.2300   22.6530 C   0  0  0  0  0  0  0  0  0  0  0  0
  -21.2400   -6.7750   23.8990 C   0  0  0  0  0  3  0  0  0  0  0  0
  -21.1630   -5.9470   25.0360 C   0  0  0  0  0  3  0  0  0  0  0  0
  -21.4520   -4.5730   24.9280 C   0  0  0  0  0  0  0  0  0  0  0  0
  -21.8240   -4.0270   23.6870 C   0  0  0  0  0  3  0  0  0  0  0  0
  -21.9020   -4.8520   22.5520 C   0  0  0  0  0  0  0  0  0  0  0  0
  -22.2410   -4.3170   21.3540 F   0  0  0  0  0  0  0  0  0  0  0  0
  -21.3670   -3.7750   26.0180 F   0  0  0  0  0  0  0  0  0  0  0  0
  -22.7510  -13.6210   21.1390 C   0  0  0  0  0  0  0  0  0  0  0  0
  -22.0210  -12.9350   22.0110 N   0  0  0  0  0  0  0  0  0  0  0  0
  -22.3170  -14.6430   20.6070 O   0  0  0  0  0  0  0  0  0  0  0  0
  -22.3860  -12.1070   22.4590 H   0  0  0  0  0  0  0  0  0  0  0  0
  -21.0840  -13.2410   22.2350 H   0  0  0  0  0  0  0  0  0  0  0  0
  -25.3950  -15.2740   20.3220 N   0  0  0  0  0  0  0  0  0  0  0  0
  -24.6450  -15.9470   20.4400 H   0  0  0  0  0  0  0  0  0  0  0  0
  -26.2650  -15.6960   20.0260 H   0  0  0  0  0  0  0  0  0  0  0  0
  -28.4330  -22.2690   20.2620 C   0  0  0  0  0  2  0  0  0  0  0  0
  -29.0570  -23.7530   20.3760 C   0  0  0  0  0  2  0  0  0  0  0  0
  -28.0030  -24.9500   20.1370 C   0  0  0  0  0  2  0  0  0  0  0  0
  -28.2920  -26.4180   20.2510 O   0  0  0  0  0  0  0  0  0  0  0  0
  -24.6240  -31.9240   23.2370 C   0  0  0  0  0  0  0  0  0  0  0  0
  -27.1940  -27.3100   20.1930 C   0  0  0  0  0  0  0  0  0  0  0  0
  -23.4050  -30.5250   21.6100 C   0  0  0  0  0  3  0  0  0  0  0  0
  -24.8410  -28.9650   20.1820 C   0  0  0  0  0  0  0  0  0  0  0  0
  -25.9510  -30.8210   21.4180 C   0  0  0  0  0  2  0  0  0  0  0  0
  -26.0200  -29.4400   20.7720 C   0  0  0  0  0  0  0  0  0  0  0  0
  -27.1980  -28.6270   20.7650 C   0  0  0  0  0  3  0  0  0  0  0  0
  -25.9850  -26.9040   19.5760 C   0  0  0  0  0  3  0  0  0  0  0  0
  -24.8300  -27.7040   19.5710 C   0  0  0  0  0  3  0  0  0  0  0  0
  -23.6110  -29.8480   20.2310 C   0  0  0  0  0  2  0  0  0  0  0  0
  -24.6800  -31.1080   22.1440 N   0  0  0  0  0  0  0  0  0  0  0  0
  -23.5440  -32.2100   23.7760 O   0  0  0  0  0  0  0  0  0  0  0  0
  -22.7420  -29.5170   22.5780 C   0  0  0  0  0  0  0  0  0  0  0  0
  -21.4140  -29.3440   22.4600 N   0  0  0  0  0  0  0  0  0  0  0  0
  -23.4220  -28.8900   23.3950 O   0  0  0  0  0  0  0  0  0  0  0  0
  -20.9230  -29.9030   21.7760 H   0  0  0  0  0  0  0  0  0  0  0  0
  -18.0360  -28.1540   22.9790 C   0  0  0  0  0  0  0  0  0  0  0  0
  -20.5960  -28.4140   23.2410 C   0  0  0  0  0  3  0  0  0  0  0  0
  -20.6940  -26.9770   22.6770 C   0  0  0  0  0  2  0  0  0  0  0  0
  -19.5910  -26.6470   21.6680 C   0  0  0  0  0  2  0  0  0  0  0  0
  -18.2100  -26.7980   22.3140 C   0  0  0  0  0  2  0  0  0  0  0  0
  -19.1560  -28.9190   23.3990 C   0  0  0  0  0  0  0  0  0  0  0  0
  -18.9400  -30.1870   23.9810 C   0  0  0  0  0  3  0  0  0  0  0  0
  -17.6360  -30.6910   24.1450 C   0  0  0  0  0  3  0  0  0  0  0  0
  -16.5300  -29.9240   23.7400 C   0  0  0  0  0  3  0  0  0  0  0  0
  -16.7310  -28.6570   23.1630 C   0  0  0  0  0  3  0  0  0  0  0  0
  -25.9130  -32.5550   23.8490 C   0  0  0  0  0  3  0  0  0  0  0  0
  -26.4400  -31.7810   25.1180 C   0  0  1  0  0  0  0  0  0  0  0  0
  -25.3580  -31.5460   26.1990 C   0  0  0  0  0  1  0  0  0  0  0  0
  -27.0160  -30.4000   24.7230 C   0  0  0  0  0  1  0  0  0  0  0  0
  -27.5980  -32.5710   25.7710 C   0  0  0  0  0  1  0  0  0  0  0  0
  -25.6070  -33.9520   24.1870 N   0  0  0  0  0  0  0  0  0  0  0  0
  -25.9260  -35.0090   23.4290 C   0  0  0  0  0  0  0  0  0  0  0  0
  -26.5800  -34.9100   22.3860 O   0  0  0  0  0  0  0  0  0  0  0  0
  -25.0240  -34.1020   24.9980 H   0  0  0  0  0  0  0  0  0  0  0  0
  -24.1870  -36.8010   23.1130 C   0  0  0  0  0  1  0  0  0  0  0  0
  -25.4450  -36.3950   23.9000 C   0  0  0  0  0  3  0  0  0  0  0  0
  -27.5950  -37.2800   24.6890 C   0  0  0  0  0  1  0  0  0  0  0  0
  -26.4720  -37.4510   23.7700 N   0  0  0  0  0  0  0  0  0  0  0  0
  -26.0670  -38.3690   23.9340 H   0  0  0  0  0  0  0  0  0  0  0  0
  2  1  1  0
  2  7  1  0
  3  1  2  0
  4  6  1  0
  5  2  2  0
  6  5  1  0
  6  3  1  0
  9 14  1  0
 10 11  1  0
 10  9  1  0
 12 11  1  0
 12 21  1  0
 12 13  1  0
 14  8  1  0
 14 13  1  0
 15  8  2  0
 16 17  1  0
 17  8  1  0
 17  7  1  0
 18 19  2  0
 19 38  1  0
 20 19  1  0
 20 23  1  0
 21 18  1  0
 21 22  1  0
 22 20  2  0
 23 24  1  0
 24 25  2  0
 26 29  1  0
 26 25  1  0
 27 26  2  0
 28 27  1  0
 28 23  2  0
 29 30  1  0
 30 31  1  0
 31 32  2  0
 33 32  1  0
 33 37  1  0
 34 33  2  0
 35 30  2  0
 35 34  1  0
 36 35  1  0
 38 39  1  0
 39 42  1  0
 39 41  1  0
 40 38  2  0
 43 44  1  0
 43 18  1  0
 45 43  1  0
 46  3  1  0
 46 47  1  0
 48 49  1  0
 48 47  1  0
 50 61  2  0
 51 49  1  0
 51 56  1  0
 52 60  1  0
 52 62  1  0
 53 59  1  0
 53 55  1  0
 54 60  1  0
 55 54  1  0
 56 55  2  0
 57 51  2  0
 58 57  1  0
 58 53  2  0
 59 52  1  0
 60 50  1  0
 62 64  2  0
 63 62  1  0
 65 63  1  0
 66 75  2  0
 66 71  1  0
 67 63  1  0
 67 71  1  0
 68 67  1  0
 69 70  1  0
 69 68  1  0
 70 66  1  0
 71 72  2  0
 72 73  1  0
 74 73  2  0
 75 74  1  0
 76 50  1  0
 76 81  1  0
 76 77  1  0
 77 80  1  1
 77 78  1  0
 79 77  1  0
 81 84  1  0
 82 86  1  0
 82 81  1  0
 83 82  2  0
 86 85  1  0
 88 86  1  0
 88 89  1  0
 88 87  1  0
M  ISO  4   8 100  17 100  48 101  49 101
M  END
>  <TORSDO>  (55) 
F 20

>  <SCORE>  (55) 
-13.518

>  <name>  (55) 
56

>  <ligand_id>  (55) 
56

>  <original_smiles>  (55) 
[H]c1c([H])c([H])c2c(c1[H])C([H])([H])C([H])([H])C([H])([H])C2([H])N([H])C(=O)C1([H])N(C(=O)C([H])(N([H])C(=O)C([H])(N([H])C([H])([H])[H])C([H])([H])[H])C(C([H])([H])[H])(C([H])([H])[H])C([H])([H])[H])C([H])([H])c2c([H])c(OC([H])([H])C([H])([H])C([H])([H])c3c([H])c(C([H])([H])N(C(=O)N4C([H])([H])C([H])([H])C([H])([H])C([H])(n5nc(-c6c([H])c([H])c(Oc7c([H])c([H])c(F)c([H])c7F)c([H])c6[H])c(C(=O)N([H])[H])c5N([H])[H])C4([H])[H])C([H])([H])[H])nn3C([H])([H])[H])c([H])c([H])c2C1([H])[H]

>  <smiles>  (55) 
[H]c1c([H])c([H])c2c(c1[H])C([H])([H])C([H])([H])C([H])([H])C2([H])N([H])C(=O)C1([H])N(C(=O)C([H])(N([H])C(=O)C([H])(N([H])C([H])([H])[H])C([H])([H])[H])C(C([H])([H])[H])(C([H])([H])[H])C([H])([H])[H])C([H])([H])c2c([H])c(OC([H])([H])C([H])([H])C([H])([H])c3c([H])c(C([H])([H])N(C(=O)N4C([H])([H])C([H])([H])C([H])([H])C([H])(n5nc(-c6c([H])c([H])c(Oc7c([H])c([H])c(F)c([H])c7F)c([H])c6[H])c(C(=O)N([H])[H])c5N([H])[H])C4([H])[H])C([H])([H])[H])nn3C([H])([H])[H])c([H])c([H])c2C1([H])[H]

$$$$
57:0:0
     RDKit          3D

 92100  0  0  1  0  0  0  0  0999 V2000
  -29.4530  -24.0780   18.4310 C   0  0  0  0  0  1  0  0  0  0  0  0
  -29.3830  -23.9420   19.9670 C   0  0  1  0  0  0  0  0  0  0  0  0
  -29.6690  -21.2860   19.5950 C   0  0  0  0  0  3  0  0  0  0  0  0
  -28.7560  -21.8760   21.4410 C   0  0  0  0  0  3  0  0  0  0  0  0
  -29.4230  -20.1000   20.3120 C   0  0  0  0  0  0  0  0  0  0  0  0
  -28.8400  -20.5300   21.5120 N   0  0  0  0  0  0  0  0  0  0  0  0
  -29.2110  -22.4440   20.3040 N   0  0  0  0  0  0  0  0  0  0  0  0
  -29.5770  -18.5670   19.9080 C   0  0  0  0  0  2  0  0  0  0  0  0
  -31.6970  -17.7480   20.9930 C   0  0  0  0  0  1  0  0  0  0  0  0
  -30.2370  -17.5510   20.8480 N   0  0  2  0  0  4  0  0  0  0  0  0
  -29.8800  -17.8870   21.7290 H   0  0  0  0  0  0  0  0  0  0  0  0
  -29.7560  -16.0730   20.8660 C   0  0  0  0  0  2  0  0  0  0  0  0
  -30.5840  -14.7910   20.3490 C   0  0  0  0  0  0  0  0  0  0  0  0
  -30.4040  -12.5200   19.2920 C   0  0  0  0  0  2  0  0  0  0  0  0
  -29.4580  -12.6200   18.0710 C   0  0  0  0  0  2  0  0  0  0  0  0
  -27.9890  -12.4330   18.5000 C   0  0  0  0  0  2  0  0  0  0  0  0
  -27.6190  -13.3100   19.7270 C   0  0  0  0  0  3  0  0  0  0  0  0
  -28.6790  -13.1920   20.8430 C   0  0  0  0  0  2  0  0  0  0  0  0
  -29.9860  -13.5490   20.2700 N   0  0  0  0  0  0  0  0  0  0  0  0
  -31.7360  -14.9270   19.9280 O   0  0  0  0  0  0  0  0  0  0  0  0
  -25.2340  -13.9180   20.4540 C   0  0  0  0  0  0  0  0  0  0  0  0
  -24.1670  -13.1490   20.8340 C   0  0  0  0  0  0  0  0  0  0  0  0
  -24.6260  -11.7960   20.8100 C   0  0  0  0  0  0  0  0  0  0  0  0
  -26.2730  -13.0330   20.2180 N   0  0  0  0  0  0  0  0  0  0  0  0
  -25.9150  -11.7520   20.4970 N   0  0  0  0  0  0  0  0  0  0  0  0
  -23.8970  -10.5370   21.0100 C   0  0  0  0  0  0  0  0  0  0  0  0
  -24.3340   -9.5730   21.9440 C   0  0  0  0  0  3  0  0  0  0  0  0
  -23.6060   -8.3780   22.1320 C   0  0  0  0  0  3  0  0  0  0  0  0
  -22.4260   -8.1400   21.3860 C   0  0  0  0  0  0  0  0  0  0  0  0
  -22.0080   -9.0940   20.4420 C   0  0  0  0  0  3  0  0  0  0  0  0
  -22.7360  -10.2810   20.2520 C   0  0  0  0  0  3  0  0  0  0  0  0
  -21.6700   -6.9970   21.4810 O   0  0  0  0  0  0  0  0  0  0  0  0
  -21.6330   -6.2540   22.6340 C   0  0  0  0  0  0  0  0  0  0  0  0
  -21.2250   -6.8090   23.8670 C   0  0  0  0  0  3  0  0  0  0  0  0
  -21.1370   -5.9920   25.0120 C   0  0  0  0  0  3  0  0  0  0  0  0
  -21.4460   -4.6220   24.9250 C   0  0  0  0  0  0  0  0  0  0  0  0
  -21.8430   -4.0650   23.6970 C   0  0  0  0  0  3  0  0  0  0  0  0
  -21.9340   -4.8800   22.5540 C   0  0  0  0  0  0  0  0  0  0  0  0
  -22.2990   -4.3360   21.3680 F   0  0  0  0  0  0  0  0  0  0  0  0
  -21.3520   -3.8340   26.0220 F   0  0  0  0  0  0  0  0  0  0  0  0
  -22.7710  -13.6310   21.1080 C   0  0  0  0  0  0  0  0  0  0  0  0
  -22.0440  -12.9410   21.9790 N   0  0  0  0  0  0  0  0  0  0  0  0
  -22.3320  -14.6530   20.5820 O   0  0  0  0  0  0  0  0  0  0  0  0
  -22.4120  -12.1140   22.4260 H   0  0  0  0  0  0  0  0  0  0  0  0
  -21.1060  -13.2430   22.2000 H   0  0  0  0  0  0  0  0  0  0  0  0
  -25.4010  -15.2870   20.2650 N   0  0  0  0  0  0  0  0  0  0  0  0
  -24.6390  -15.9470   20.3710 H   0  0  0  0  0  0  0  0  0  0  0  0
  -26.2400  -15.7110   19.8870 H   0  0  0  0  0  0  0  0  0  0  0  0
  -31.3530  -25.7020   20.2250 C   0  0  0  0  0  1  0  0  0  0  0  0
  -30.7460  -24.3400   20.6080 C   0  0  0  0  0  2  0  0  0  0  0  0
  -28.2290  -24.9830   20.4410 C   0  0  0  0  0  2  0  0  0  0  0  0
  -28.3710  -26.4570   20.1550 O   0  0  0  0  0  0  0  0  0  0  0  0
  -24.6350  -31.8870   23.2030 C   0  0  0  0  0  0  0  0  0  0  0  0
  -27.2450  -27.3100   20.1410 C   0  0  0  0  0  0  0  0  0  0  0  0
  -23.4300  -30.4900   21.5600 C   0  0  0  0  0  3  0  0  0  0  0  0
  -24.8810  -28.9420   20.1280 C   0  0  0  0  0  0  0  0  0  0  0  0
  -25.9700  -30.8060   21.3770 C   0  0  0  0  0  2  0  0  0  0  0  0
  -26.0510  -29.4260   20.7260 C   0  0  0  0  0  0  0  0  0  0  0  0
  -27.2370  -28.6250   20.7150 C   0  0  0  0  0  3  0  0  0  0  0  0
  -26.0520  -26.8890   19.5110 C   0  0  0  0  0  3  0  0  0  0  0  0
  -24.8880  -27.6830   19.5060 C   0  0  0  0  0  3  0  0  0  0  0  0
  -23.6450  -29.8180   20.1780 C   0  0  0  0  0  2  0  0  0  0  0  0
  -24.6970  -31.0800   22.1030 N   0  0  0  0  0  0  0  0  0  0  0  0
  -23.5520  -32.1630   23.7400 O   0  0  0  0  0  0  0  0  0  0  0  0
  -22.7670  -29.4730   22.5190 C   0  0  0  0  0  0  0  0  0  0  0  0
  -21.4420  -29.2930   22.3920 N   0  0  0  0  0  0  0  0  0  0  0  0
  -23.4470  -28.8490   23.3390 O   0  0  0  0  0  0  0  0  0  0  0  0
  -20.9530  -29.8490   21.7050 H   0  0  0  0  0  0  0  0  0  0  0  0
  -18.0700  -28.0730   22.8810 C   0  0  0  0  0  0  0  0  0  0  0  0
  -20.6250  -28.3510   23.1600 C   0  0  0  0  0  3  0  0  0  0  0  0
  -20.7390  -26.9190   22.5890 C   0  0  0  0  0  2  0  0  0  0  0  0
  -19.6440  -26.5880   21.5700 C   0  0  0  0  0  2  0  0  0  0  0  0
  -18.2580  -26.7240   22.2080 C   0  0  0  0  0  2  0  0  0  0  0  0
  -19.1810  -28.8440   23.3140 C   0  0  0  0  0  0  0  0  0  0  0  0
  -18.9510  -30.1060   23.9040 C   0  0  0  0  0  3  0  0  0  0  0  0
  -17.6430  -30.5990   24.0630 C   0  0  0  0  0  3  0  0  0  0  0  0
  -16.5450  -29.8250   23.6450 C   0  0  0  0  0  3  0  0  0  0  0  0
  -16.7590  -28.5650   23.0610 C   0  0  0  0  0  3  0  0  0  0  0  0
  -25.9190  -32.5190   23.8250 C   0  0  0  0  0  3  0  0  0  0  0  0
  -25.6070  -33.9140   24.1680 N   0  0  0  0  0  0  0  0  0  0  0  0
  -25.9300  -34.9750   23.4170 C   0  0  0  0  0  0  0  0  0  0  0  0
  -26.5930  -34.8820   22.3800 O   0  0  0  0  0  0  0  0  0  0  0  0
  -25.0190  -34.0600   24.9760 H   0  0  0  0  0  0  0  0  0  0  0  0
  -24.1960  -36.7680   23.0870 C   0  0  0  0  0  1  0  0  0  0  0  0
  -25.4410  -36.3590   23.8900 C   0  0  0  0  0  3  0  0  0  0  0  0
  -27.5770  -37.2410   24.7200 C   0  0  0  0  0  1  0  0  0  0  0  0
  -26.4710  -37.4150   23.7820 N   0  0  0  0  0  0  0  0  0  0  0  0
  -26.0640  -38.3330   23.9390 H   0  0  0  0  0  0  0  0  0  0  0  0
  -26.4430  -31.7400   25.0940 C   0  0  1  0  0  0  0  0  0  0  0  0
  -25.3540  -31.4940   26.1640 C   0  0  0  0  0  1  0  0  0  0  0  0
  -27.0260  -30.3650   24.6930 C   0  0  0  0  0  1  0  0  0  0  0  0
  -27.5940  -32.5330   25.7570 C   0  0  0  0  0  1  0  0  0  0  0  0
  2  1  1  6
  2  7  1  0
  2 51  1  0
  2 50  1  0
  3  7  1  0
  3  5  2  0
  4  6  2  0
  5  6  1  0
  7  4  1  0
  8  5  1  0
  8 10  1  0
 10 12  1  0
 10  9  1  0
 10 11  1  1
 13 12  1  0
 14 19  1  0
 15 16  1  0
 15 14  1  0
 17 16  1  0
 17 24  1  0
 17 18  1  0
 19 13  1  0
 19 18  1  0
 20 13  2  0
 21 22  2  0
 22 41  1  0
 23 22  1  0
 23 26  1  0
 24 21  1  0
 24 25  1  0
 25 23  2  0
 26 27  1  0
 27 28  2  0
 29 32  1  0
 29 28  1  0
 30 29  2  0
 31 30  1  0
 31 26  2  0
 32 33  1  0
 33 34  1  0
 34 35  2  0
 36 35  1  0
 36 40  1  0
 37 36  2  0
 38 33  2  0
 38 37  1  0
 39 38  1  0
 41 42  1  0
 42 45  1  0
 42 44  1  0
 43 41  2  0
 46 47  1  0
 46 21  1  0
 48 46  1  0
 49 50  1  0
 52 51  1  0
 53 64  2  0
 54 52  1  0
 54 59  1  0
 55 63  1  0
 55 65  1  0
 56 62  1  0
 56 58  1  0
 57 63  1  0
 58 57  1  0
 59 58  2  0
 60 54  2  0
 61 60  1  0
 61 56  2  0
 62 55  1  0
 63 53  1  0
 65 67  2  0
 66 65  1  0
 68 66  1  0
 69 78  2  0
 69 74  1  0
 70 66  1  0
 70 74  1  0
 71 70  1  0
 72 73  1  0
 72 71  1  0
 73 69  1  0
 74 75  2  0
 75 76  1  0
 77 76  2  0
 78 77  1  0
 79 53  1  0
 79 80  1  0
 79 89  1  0
 80 83  1  0
 81 85  1  0
 81 80  1  0
 82 81  2  0
 85 84  1  0
 87 85  1  0
 87 88  1  0
 87 86  1  0
 89 92  1  1
 89 90  1  0
 91 89  1  0
M  ISO  4  12 100  13 100  51 101  52 101
M  END
>  <TORSDO>  (56) 
F 22

>  <SCORE>  (56) 
-13.180

>  <name>  (56) 
57

>  <ligand_id>  (56) 
57

>  <original_smiles>  (56) 
[H]c1c([H])c([H])c2c(c1[H])C([H])([H])C([H])([H])C([H])([H])C2([H])N([H])C(=O)C1([H])N(C(=O)C([H])(N([H])C(=O)C([H])(N([H])C([H])([H])[H])C([H])([H])[H])C(C([H])([H])[H])(C([H])([H])[H])C([H])([H])[H])C([H])([H])c2c([H])c(OC([H])([H])C(n3c([H])nc(C([H])([H])[N+]([H])(C([H])([H])[H])C([H])([H])C(=O)N4C([H])([H])C([H])([H])C([H])([H])C([H])(n5nc(-c6c([H])c([H])c(Oc7c([H])c([H])c(F)c([H])c7F)c([H])c6[H])c(C(=O)N([H])[H])c5N([H])[H])C4([H])[H])c3[H])(C([H])([H])[H])C([H])([H])C([H])([H])[H])c([H])c([H])c2C1([H])[H]

>  <smiles>  (56) 
[H]c1c([H])c([H])c2c(c1[H])C([H])([H])C([H])([H])C([H])([H])C2([H])N([H])C(=O)C1([H])N(C(=O)C([H])(N([H])C(=O)C([H])(N([H])C([H])([H])[H])C([H])([H])[H])C(C([H])([H])[H])(C([H])([H])[H])C([H])([H])[H])C([H])([H])c2c([H])c(OC([H])([H])C(n3c([H])nc(C([H])([H])[N+]([H])(C([H])([H])[H])C([H])([H])C(=O)N4C([H])([H])C([H])([H])C([H])([H])C([H])(n5nc(-c6c([H])c([H])c(Oc7c([H])c([H])c(F)c([H])c7F)c([H])c6[H])c(C(=O)N([H])[H])c5N([H])[H])C4([H])[H])c3[H])(C([H])([H])[H])C([H])([H])C([H])([H])[H])c([H])c([H])c2C1([H])[H]

$$$$
58:0:0
     RDKit          3D

 90 98  0  0  1  0  0  0  0  0999 V2000
  -28.5420  -20.7160   21.6660 C   0  0  0  0  0  3  0  0  0  0  0  0
  -29.2960  -19.8880   20.7880 C   0  0  0  0  0  0  0  0  0  0  0  0
  -30.0750  -21.8520   19.7680 C   0  0  0  0  0  0  0  0  0  0  0  0
  -29.3020  -22.6830   20.6390 C   0  0  0  0  0  0  0  0  0  0  0  0
  -31.0130  -22.4360   18.7310 C   0  0  0  0  0  1  0  0  0  0  0  0
  -28.5420  -22.0830   21.5960 N   0  0  0  0  0  0  0  0  0  0  0  0
  -30.0570  -20.4820   19.8280 N   0  0  0  0  0  0  0  0  0  0  0  0
  -29.0440  -18.3450   20.6950 C   0  0  0  0  0  3  0  0  0  0  0  0
  -30.2330  -17.2780   20.7390 C   0  0  0  0  0  3  0  0  0  0  0  0
  -30.6750  -14.7650   20.3630 C   0  0  0  0  0  0  0  0  0  0  0  0
  -30.4840  -12.4690   19.4300 C   0  0  0  0  0  2  0  0  0  0  0  0
  -29.5590  -12.4490   18.1920 C   0  0  0  0  0  2  0  0  0  0  0  0
  -28.0740  -12.3530   18.5990 C   0  0  0  0  0  2  0  0  0  0  0  0
  -27.6800  -13.2810   19.7810 C   0  0  0  0  0  3  0  0  0  0  0  0
  -28.7260  -13.2470   20.9160 C   0  0  0  0  0  2  0  0  0  0  0  0
  -30.0310  -13.5550   20.3200 N   0  0  0  0  0  0  0  0  0  0  0  0
  -31.8990  -14.8370   20.2330 O   0  0  0  0  0  0  0  0  0  0  0  0
  -29.4190  -16.1040   18.8120 C   0  0  0  0  0  1  0  0  0  0  0  0
  -29.8990  -15.9030   20.1930 N   0  0  0  0  0  0  0  0  0  0  0  0
  -25.2850  -13.9010   20.4660 C   0  0  0  0  0  0  0  0  0  0  0  0
  -24.2100  -13.1370   20.8240 C   0  0  0  0  0  0  0  0  0  0  0  0
  -24.6700  -11.7830   20.8240 C   0  0  0  0  0  0  0  0  0  0  0  0
  -26.3300  -13.0140   20.2620 N   0  0  0  0  0  0  0  0  0  0  0  0
  -25.9660  -11.7370   20.5420 N   0  0  0  0  0  0  0  0  0  0  0  0
  -23.9420  -10.5260   21.0150 C   0  0  0  0  0  0  0  0  0  0  0  0
  -24.3640   -9.5660   21.9610 C   0  0  0  0  0  3  0  0  0  0  0  0
  -23.6370   -8.3700   22.1400 C   0  0  0  0  0  3  0  0  0  0  0  0
  -22.4740   -8.1250   21.3710 C   0  0  0  0  0  0  0  0  0  0  0  0
  -22.0730   -9.0720   20.4120 C   0  0  0  0  0  3  0  0  0  0  0  0
  -22.8000  -10.2600   20.2320 C   0  0  0  0  0  3  0  0  0  0  0  0
  -21.7190   -6.9810   21.4580 O   0  0  0  0  0  0  0  0  0  0  0  0
  -21.6570   -6.2470   22.6150 C   0  0  0  0  0  0  0  0  0  0  0  0
  -21.2150   -6.8090   23.8320 C   0  0  0  0  0  3  0  0  0  0  0  0
  -21.1020   -6.0010   24.9810 C   0  0  0  0  0  3  0  0  0  0  0  0
  -21.4210   -4.6310   24.9130 C   0  0  0  0  0  0  0  0  0  0  0  0
  -21.8570   -4.0690   23.7010 C   0  0  0  0  0  3  0  0  0  0  0  0
  -21.9720   -4.8740   22.5550 C   0  0  0  0  0  0  0  0  0  0  0  0
  -22.3730   -4.3230   21.3840 F   0  0  0  0  0  0  0  0  0  0  0  0
  -21.3040   -3.8530   26.0140 F   0  0  0  0  0  0  0  0  0  0  0  0
  -22.8070  -13.6180   21.0590 C   0  0  0  0  0  0  0  0  0  0  0  0
  -22.0630  -12.9380   21.9220 N   0  0  0  0  0  0  0  0  0  0  0  0
  -22.3790  -14.6320   20.5100 O   0  0  0  0  0  0  0  0  0  0  0  0
  -22.4210  -12.1150   22.3860 H   0  0  0  0  0  0  0  0  0  0  0  0
  -21.1210  -13.2400   22.1200 H   0  0  0  0  0  0  0  0  0  0  0  0
  -25.4570  -15.2700   20.2730 N   0  0  0  0  0  0  0  0  0  0  0  0
  -24.6940  -15.9310   20.3660 H   0  0  0  0  0  0  0  0  0  0  0  0
  -26.3260  -15.7040   19.9870 H   0  0  0  0  0  0  0  0  0  0  0  0
  -29.4010  -24.2530   20.6680 C   0  0  0  0  0  3  0  0  0  0  0  0
  -28.2160  -25.1350   20.1080 C   0  0  0  0  0  3  0  0  0  0  0  0
  -28.3880  -26.5990   20.2060 O   0  0  0  0  0  0  0  0  0  0  0  0
  -24.6480  -31.9210   23.2620 C   0  0  0  0  0  0  0  0  0  0  0  0
  -27.2500  -27.4130   20.1570 C   0  0  0  0  0  0  0  0  0  0  0  0
  -23.4310  -30.5310   21.6210 C   0  0  0  0  0  3  0  0  0  0  0  0
  -24.8720  -28.9960   20.1710 C   0  0  0  0  0  0  0  0  0  0  0  0
  -25.9640  -30.8670   21.4120 C   0  0  0  0  0  2  0  0  0  0  0  0
  -26.0420  -29.4940   20.7580 C   0  0  0  0  0  0  0  0  0  0  0  0
  -27.2330  -28.7150   20.7400 C   0  0  0  0  0  3  0  0  0  0  0  0
  -26.0570  -26.9610   19.5460 C   0  0  0  0  0  3  0  0  0  0  0  0
  -24.8810  -27.7350   19.5560 C   0  0  0  0  0  3  0  0  0  0  0  0
  -23.6320  -29.8640   20.2340 C   0  0  0  0  0  2  0  0  0  0  0  0
  -24.7010  -31.1220   22.1560 N   0  0  0  0  0  0  0  0  0  0  0  0
  -23.5720  -32.1910   23.8110 O   0  0  0  0  0  0  0  0  0  0  0  0
  -22.7820  -29.5060   22.5810 C   0  0  0  0  0  0  0  0  0  0  0  0
  -21.4560  -29.3220   22.4610 N   0  0  0  0  0  0  0  0  0  0  0  0
  -23.4690  -28.8800   23.3930 O   0  0  0  0  0  0  0  0  0  0  0  0
  -20.9610  -29.8790   21.7780 H   0  0  0  0  0  0  0  0  0  0  0  0
  -18.0900  -28.1030   22.9640 C   0  0  0  0  0  0  0  0  0  0  0  0
  -20.6460  -28.3790   23.2320 C   0  0  0  0  0  3  0  0  0  0  0  0
  -20.7580  -26.9480   22.6540 C   0  0  0  0  0  2  0  0  0  0  0  0
  -19.6560  -26.6200   21.6410 C   0  0  0  0  0  2  0  0  0  0  0  0
  -18.2740  -26.7560   22.2860 C   0  0  0  0  0  2  0  0  0  0  0  0
  -19.2040  -28.8720   23.3940 C   0  0  0  0  0  0  0  0  0  0  0  0
  -18.9760  -30.1330   23.9870 C   0  0  0  0  0  3  0  0  0  0  0  0
  -17.6680  -30.6250   24.1560 C   0  0  0  0  0  3  0  0  0  0  0  0
  -16.5690  -29.8530   23.7430 C   0  0  0  0  0  3  0  0  0  0  0  0
  -16.7800  -28.5940   23.1510 C   0  0  0  0  0  3  0  0  0  0  0  0
  -25.9380  -32.5500   23.8760 C   0  0  0  0  0  3  0  0  0  0  0  0
  -26.4600  -31.7770   25.1490 C   0  0  1  0  0  0  0  0  0  0  0  0
  -25.3740  -31.5420   26.2260 C   0  0  0  0  0  1  0  0  0  0  0  0
  -27.0350  -30.3980   24.7530 C   0  0  0  0  0  1  0  0  0  0  0  0
  -27.6190  -32.5670   25.8030 C   0  0  0  0  0  1  0  0  0  0  0  0
  -25.6340  -33.9490   24.2090 N   0  0  0  0  0  0  0  0  0  0  0  0
  -25.9560  -35.0000   23.4450 C   0  0  0  0  0  0  0  0  0  0  0  0
  -26.6110  -34.8950   22.4050 O   0  0  0  0  0  0  0  0  0  0  0  0
  -25.0490  -34.1030   25.0180 H   0  0  0  0  0  0  0  0  0  0  0  0
  -24.2200  -36.7910   23.1200 C   0  0  0  0  0  1  0  0  0  0  0  0
  -25.4760  -36.3890   23.9080 C   0  0  0  0  0  3  0  0  0  0  0  0
  -27.6260  -37.2780   24.6960 C   0  0  0  0  0  1  0  0  0  0  0  0
  -26.5060  -37.4430   23.7730 N   0  0  0  0  0  0  0  0  0  0  0  0
  -26.1030  -38.3630   23.9270 H   0  0  0  0  0  0  0  0  0  0  0  0
  2  1  2  0
  3  7  2  0
  3  4  1  0
  4 48  1  0
  4  6  2  0
  5  3  1  0
  6  1  1  0
  7  2  1  0
  8  9  2  0
  8  2  1  0
 11 16  1  0
 12 13  1  0
 12 11  1  0
 14 13  1  0
 14 23  1  0
 14 15  1  0
 16 10  1  0
 16 15  1  0
 17 10  2  0
 18 19  1  0
 19 10  1  0
 19  9  1  0
 20 21  2  0
 21 22  1  0
 21 40  1  0
 22 25  1  0
 23 20  1  0
 23 24  1  0
 24 22  2  0
 25 26  1  0
 26 27  2  0
 28 31  1  0
 28 27  1  0
 29 28  2  0
 30 29  1  0
 30 25  2  0
 31 32  1  0
 32 33  1  0
 33 34  2  0
 35 34  1  0
 35 39  1  0
 36 35  2  0
 37 32  2  0
 37 36  1  0
 38 37  1  0
 40 41  1  0
 41 44  1  0
 41 43  1  0
 42 40  2  0
 45 46  1  0
 45 20  1  0
 47 45  1  0
 49 50  1  0
 49 48  2  0
 51 62  2  0
 52 50  1  0
 52 57  1  0
 53 61  1  0
 53 63  1  0
 54 60  1  0
 54 56  1  0
 55 61  1  0
 56 55  1  0
 57 56  2  0
 58 59  1  0
 58 52  2  0
 59 54  2  0
 60 53  1  0
 61 51  1  0
 63 65  2  0
 64 63  1  0
 66 64  1  0
 67 76  2  0
 67 72  1  0
 68 64  1  0
 68 72  1  0
 69 68  1  0
 70 71  1  0
 70 69  1  0
 71 67  1  0
 72 73  2  0
 73 74  1  0
 75 74  2  0
 76 75  1  0
 77 51  1  0
 77 82  1  0
 77 78  1  0
 78 81  1  1
 78 79  1  0
 80 78  1  0
 82 85  1  0
 83 87  1  0
 83 82  1  0
 84 83  2  0
 87 86  1  0
 89 87  1  0
 89 90  1  0
 89 88  1  0
M  ISO  4  10 100  19 100  49 101  50 101
M  END
>  <TORSDO>  (57) 
F 20

>  <SCORE>  (57) 
-13.096

>  <name>  (57) 
58

>  <ligand_id>  (57) 
58

>  <original_smiles>  (57) 
[H]c1nc(C([H])([H])C([H])([H])Oc2c([H])c([H])c3c(c2[H])C([H])([H])N(C(=O)C([H])(N([H])C(=O)C([H])(N([H])C([H])([H])[H])C([H])([H])[H])C(C([H])([H])[H])(C([H])([H])[H])C([H])([H])[H])C([H])(C(=O)N([H])C2([H])c4c([H])c([H])c([H])c([H])c4C([H])([H])C([H])([H])C2([H])[H])C3([H])[H])c(C([H])([H])[H])nc1C([H])([H])C([H])([H])N(C(=O)N1C([H])([H])C([H])([H])C([H])([H])C([H])(n2nc(-c3c([H])c([H])c(Oc4c([H])c([H])c(F)c([H])c4F)c([H])c3[H])c(C(=O)N([H])[H])c2N([H])[H])C1([H])[H])C([H])([H])[H]

>  <smiles>  (57) 
[H]c1nc(C([H])([H])C([H])([H])Oc2c([H])c([H])c3c(c2[H])C([H])([H])N(C(=O)C([H])(N([H])C(=O)C([H])(N([H])C([H])([H])[H])C([H])([H])[H])C(C([H])([H])[H])(C([H])([H])[H])C([H])([H])[H])C([H])(C(=O)N([H])C2([H])c4c([H])c([H])c([H])c([H])c4C([H])([H])C([H])([H])C2([H])[H])C3([H])[H])c(C([H])([H])[H])nc1C([H])([H])C([H])([H])N(C(=O)N1C([H])([H])C([H])([H])C([H])([H])C([H])(n2nc(-c3c([H])c([H])c(Oc4c([H])c([H])c(F)c([H])c4F)c([H])c3[H])c(C(=O)N([H])[H])c2N([H])[H])C1([H])[H])C([H])([H])[H]

$$$$
59:0:0
     RDKit          3D

 87 95  0  0  1  0  0  0  0  0999 V2000
  -28.5320  -21.6050   20.0930 C   0  0  0  0  0  2  0  0  0  0  0  0
  -30.7540  -18.6430   19.4100 C   0  0  0  0  0  2  0  0  0  0  0  0
  -29.4140  -20.2010   20.0860 C   0  0  0  0  0  0  0  0  0  0  0  0
  -30.5070  -19.9770   19.2750 N   0  0  0  0  0  0  0  0  0  0  0  0
  -29.0310  -18.9910   20.6480 N   0  0  0  0  0  2  0  0  0  0  0  0
  -29.9170  -17.9500   20.2000 N   0  0  0  0  0  0  0  0  0  0  0  0
  -30.1580  -16.4310   22.1850 C   0  0  0  0  0  1  0  0  0  0  0  0
  -29.8540  -16.4200   20.6750 C   0  0  0  0  0  3  0  0  0  0  0  0
  -30.6150  -15.0590   20.0390 C   0  0  0  0  0  0  0  0  0  0  0  0
  -30.4310  -12.7520   18.9470 C   0  0  0  0  0  2  0  0  0  0  0  0
  -29.4120  -12.7850   17.7810 C   0  0  0  0  0  2  0  0  0  0  0  0
  -27.9750  -12.5660   18.2960 C   0  0  0  0  0  2  0  0  0  0  0  0
  -27.6660  -13.4260   19.5470 C   0  0  0  0  0  3  0  0  0  0  0  0
  -28.7920  -13.3390   20.5970 C   0  0  0  0  0  2  0  0  0  0  0  0
  -30.0330  -13.7870   19.9480 N   0  0  0  0  0  0  0  0  0  0  0  0
  -31.7600  -15.1570   19.5800 O   0  0  0  0  0  0  0  0  0  0  0  0
  -25.3400  -14.0060   20.4450 C   0  0  0  0  0  0  0  0  0  0  0  0
  -24.2920  -13.2310   20.8590 C   0  0  0  0  0  0  0  0  0  0  0  0
  -24.7390  -11.8770   20.7650 C   0  0  0  0  0  0  0  0  0  0  0  0
  -26.3570  -13.1260   20.1180 N   0  0  0  0  0  0  0  0  0  0  0  0
  -26.0090  -11.8380   20.3750 N   0  0  0  0  0  0  0  0  0  0  0  0
  -24.0120  -10.6180   20.9680 C   0  0  0  0  0  0  0  0  0  0  0  0
  -24.4700   -9.6370   21.8740 C   0  0  0  0  0  3  0  0  0  0  0  0
  -23.7420   -8.4430   22.0660 C   0  0  0  0  0  3  0  0  0  0  0  0
  -22.5410   -8.2210   21.3500 C   0  0  0  0  0  0  0  0  0  0  0  0
  -22.1020   -9.1910   20.4320 C   0  0  0  0  0  3  0  0  0  0  0  0
  -22.8300  -10.3760   20.2380 C   0  0  0  0  0  3  0  0  0  0  0  0
  -21.7810   -7.0800   21.4510 O   0  0  0  0  0  0  0  0  0  0  0  0
  -21.7390   -6.3450   22.6090 C   0  0  0  0  0  0  0  0  0  0  0  0
  -21.3410   -6.9140   23.8380 C   0  0  0  0  0  3  0  0  0  0  0  0
  -21.2440   -6.1060   24.9890 C   0  0  0  0  0  3  0  0  0  0  0  0
  -21.5340   -4.7310   24.9110 C   0  0  0  0  0  0  0  0  0  0  0  0
  -21.9260   -4.1620   23.6860 C   0  0  0  0  0  3  0  0  0  0  0  0
  -22.0240   -4.9670   22.5380 C   0  0  0  0  0  0  0  0  0  0  0  0
  -22.3810   -4.4090   21.3560 F   0  0  0  0  0  0  0  0  0  0  0  0
  -21.4340   -3.9530   26.0140 F   0  0  0  0  0  0  0  0  0  0  0  0
  -22.9190  -13.7140   21.2250 C   0  0  0  0  0  0  0  0  0  0  0  0
  -22.2420  -13.0110   22.1260 N   0  0  0  0  0  0  0  0  0  0  0  0
  -22.4570  -14.7500   20.7480 O   0  0  0  0  0  0  0  0  0  0  0  0
  -22.6300  -12.1730   22.5330 H   0  0  0  0  0  0  0  0  0  0  0  0
  -21.3230  -13.3160   22.4150 H   0  0  0  0  0  0  0  0  0  0  0  0
  -25.5060  -15.3800   20.2950 N   0  0  0  0  0  0  0  0  0  0  0  0
  -24.7530  -16.0360   20.4750 H   0  0  0  0  0  0  0  0  0  0  0  0
  -26.3350  -15.8240   19.9220 H   0  0  0  0  0  0  0  0  0  0  0  0
  -28.9930  -23.2330   20.3060 C   0  0  0  0  0  3  0  0  0  0  0  0
  -27.9660  -24.5850   20.0920 C   0  0  0  0  0  3  0  0  0  0  0  0
  -28.2320  -26.1290   20.2510 O   0  0  0  0  0  0  0  0  0  0  0  0
  -24.5890  -31.8630   23.2000 C   0  0  0  0  0  0  0  0  0  0  0  0
  -27.1750  -27.1230   20.1840 C   0  0  0  0  0  0  0  0  0  0  0  0
  -23.3890  -30.4530   21.5740 C   0  0  0  0  0  3  0  0  0  0  0  0
  -24.8390  -28.8750   20.1510 C   0  0  0  0  0  0  0  0  0  0  0  0
  -25.9430  -30.7230   21.3980 C   0  0  0  0  0  2  0  0  0  0  0  0
  -26.0210  -29.3260   20.7520 C   0  0  0  0  0  0  0  0  0  0  0  0
  -27.1880  -28.4670   20.7480 C   0  0  0  0  0  3  0  0  0  0  0  0
  -25.9630  -26.7810   19.5440 C   0  0  0  0  0  3  0  0  0  0  0  0
  -24.8240  -27.6170   19.5300 C   0  0  0  0  0  3  0  0  0  0  0  0
  -23.6080  -29.7690   20.1990 C   0  0  0  0  0  2  0  0  0  0  0  0
  -24.6610  -31.0370   22.1120 N   0  0  0  0  0  0  0  0  0  0  0  0
  -23.5040  -32.1460   23.7310 O   0  0  0  0  0  0  0  0  0  0  0  0
  -22.7180  -29.4500   22.5450 C   0  0  0  0  0  0  0  0  0  0  0  0
  -21.3890  -29.2790   22.4310 N   0  0  0  0  0  0  0  0  0  0  0  0
  -23.3950  -28.8280   23.3670 O   0  0  0  0  0  0  0  0  0  0  0  0
  -20.8960  -29.8320   21.7430 H   0  0  0  0  0  0  0  0  0  0  0  0
  -18.0130  -28.0720   22.9630 C   0  0  0  0  0  0  0  0  0  0  0  0
  -20.5730  -28.3440   23.2120 C   0  0  0  0  0  3  0  0  0  0  0  0
  -20.6750  -26.9080   22.6450 C   0  0  0  0  0  2  0  0  0  0  0  0
  -19.5670  -26.5770   21.6390 C   0  0  0  0  0  2  0  0  0  0  0  0
  -18.1900  -26.7210   22.2910 C   0  0  0  0  0  2  0  0  0  0  0  0
  -19.1320  -28.8400   23.3810 C   0  0  0  0  0  0  0  0  0  0  0  0
  -18.9110  -30.1040   23.9720 C   0  0  0  0  0  3  0  0  0  0  0  0
  -17.6060  -30.5980   24.1480 C   0  0  0  0  0  3  0  0  0  0  0  0
  -16.5010  -29.8270   23.7440 C   0  0  0  0  0  3  0  0  0  0  0  0
  -16.7060  -28.5670   23.1580 C   0  0  0  0  0  3  0  0  0  0  0  0
  -25.8650  -32.5110   23.8190 C   0  0  0  0  0  3  0  0  0  0  0  0
  -26.3930  -31.7430   25.0930 C   0  0  1  0  0  0  0  0  0  0  0  0
  -25.3070  -31.4990   26.1680 C   0  0  0  0  0  1  0  0  0  0  0  0
  -26.9830  -30.3680   24.7040 C   0  0  0  0  0  1  0  0  0  0  0  0
  -27.5430  -32.5440   25.7480 C   0  0  0  0  0  1  0  0  0  0  0  0
  -25.5430  -33.9050   24.1590 N   0  0  0  0  0  0  0  0  0  0  0  0
  -25.8560  -34.9690   23.4060 C   0  0  0  0  0  0  0  0  0  0  0  0
  -26.5120  -34.8790   22.3660 O   0  0  0  0  0  0  0  0  0  0  0  0
  -24.9570  -34.0480   24.9680 H   0  0  0  0  0  0  0  0  0  0  0  0
  -24.1040  -36.7510   23.0980 C   0  0  0  0  0  1  0  0  0  0  0  0
  -25.3650  -36.3510   23.8820 C   0  0  0  0  0  3  0  0  0  0  0  0
  -27.5070  -37.2530   24.6770 C   0  0  0  0  0  1  0  0  0  0  0  0
  -26.3850  -37.4150   23.7560 N   0  0  0  0  0  0  0  0  0  0  0  0
  -25.9720  -38.3300   23.9180 H   0  0  0  0  0  0  0  0  0  0  0  0
  1 45  1  0
  2  6  1  0
  3  1  1  0
  3  5  1  0
  4  2  1  0
  4  3  2  0
  6  5  1  0
  6  8  1  0
  8  7  1  0
  9  8  1  0
 10 15  1  0
 11 12  1  0
 11 10  1  0
 13 12  1  0
 13 20  1  0
 13 14  1  0
 15  9  1  0
 15 14  1  0
 16  9  2  0
 17 18  2  0
 18 37  1  0
 19 18  1  0
 19 22  1  0
 20 21  1  0
 20 17  1  0
 21 19  2  0
 22 23  1  0
 23 24  2  0
 25 28  1  0
 25 24  1  0
 26 25  2  0
 27 26  1  0
 27 22  2  0
 28 29  1  0
 29 30  1  0
 30 31  2  0
 32 31  1  0
 32 36  1  0
 33 32  2  0
 34 29  2  0
 34 33  1  0
 35 34  1  0
 37 38  1  0
 38 41  1  0
 38 40  1  0
 39 37  2  0
 42 17  1  0
 42 43  1  0
 44 42  1  0
 46 47  1  0
 46 45  2  0
 48 59  2  0
 49 47  1  0
 49 54  1  0
 50 58  1  0
 50 60  1  0
 51 57  1  0
 51 53  1  0
 52 58  1  0
 53 52  1  0
 54 53  2  0
 55 49  2  0
 56 55  1  0
 56 51  2  0
 57 50  1  0
 58 48  1  0
 60 62  2  0
 61 60  1  0
 63 61  1  0
 64 73  2  0
 64 69  1  0
 65 61  1  0
 65 69  1  0
 66 65  1  0
 67 68  1  0
 67 66  1  0
 68 64  1  0
 69 70  2  0
 70 71  1  0
 72 71  2  0
 73 72  1  0
 74 48  1  0
 74 79  1  0
 74 75  1  0
 75 78  1  1
 75 76  1  0
 77 75  1  0
 79 82  1  0
 80 84  1  0
 80 79  1  0
 81 80  2  0
 84 83  1  0
 86 84  1  0
 86 87  1  0
 86 85  1  0
M  ISO  4   8 100   9 100  46 101  47 101
M  END
>  <TORSDO>  (58) 
F 20

>  <SCORE>  (58) 
-14.674

>  <name>  (58) 
59

>  <ligand_id>  (58) 
59

>  <original_smiles>  (58) 
[H]c1c([H])c([H])c2c(c1[H])C([H])([H])C([H])([H])C([H])([H])C2([H])N([H])C(=O)C1([H])N(C(=O)C([H])(N([H])C(=O)C([H])(N([H])C([H])([H])[H])C([H])([H])[H])C(C([H])([H])[H])(C([H])([H])[H])C([H])([H])[H])C([H])([H])c2c([H])c(OC([H])([H])C([H])([H])C([H])([H])c3nc([H])n(C([H])(C(=O)N4C([H])([H])C([H])([H])C([H])([H])C([H])(n5nc(-c6c([H])c([H])c(Oc7c([H])c([H])c(F)c([H])c7F)c([H])c6[H])c(C(=O)N([H])[H])c5N([H])[H])C4([H])[H])C([H])([H])[H])n3)c([H])c([H])c2C1([H])[H]

>  <smiles>  (58) 
[H]c1c([H])c([H])c2c(c1[H])C([H])([H])C([H])([H])C([H])([H])C2([H])N([H])C(=O)C1([H])N(C(=O)C([H])(N([H])C(=O)C([H])(N([H])C([H])([H])[H])C([H])([H])[H])C(C([H])([H])[H])(C([H])([H])[H])C([H])([H])[H])C([H])([H])c2c([H])c(OC([H])([H])C([H])([H])C([H])([H])c3nc([H])n(C([H])(C(=O)N4C([H])([H])C([H])([H])C([H])([H])C([H])(n5nc(-c6c([H])c([H])c(Oc7c([H])c([H])c(F)c([H])c7F)c([H])c6[H])c(C(=O)N([H])[H])c5N([H])[H])C4([H])[H])C([H])([H])[H])n3)c([H])c([H])c2C1([H])[H]

$$$$
60:0:0
     RDKit          3D

 91 99  0  0  1  0  0  0  0  0999 V2000
  -29.0690  -22.3320   20.3750 C   0  0  0  0  0  0  0  0  0  0  0  0
  -29.4700  -20.1850   20.0040 C   0  0  0  0  0  3  0  0  0  0  0  0
  -31.5600  -20.1090   21.4820 C   0  0  0  0  0  1  0  0  0  0  0  0
  -28.5700  -21.1900   19.7330 N   0  0  0  0  0  0  0  0  0  0  0  0
  -30.2290  -22.0650   20.9780 N   0  0  0  0  0  2  0  0  0  0  0  0
  -30.4440  -20.7200   20.7820 N   0  0  0  0  0  0  0  0  0  0  0  0
  -28.7740  -18.4730   18.2200 C   0  0  0  0  0  1  0  0  0  0  0  0
  -28.0710  -18.1520   20.5720 C   0  0  0  0  0  1  0  0  0  0  0  0
  -29.2480  -18.6160   19.6870 C   0  0  2  0  0  0  0  0  0  0  0  0
  -30.4550  -17.5120   19.8580 C   0  0  0  0  0  2  0  0  0  0  0  0
  -30.9230  -14.8850   19.9010 C   0  0  0  0  0  0  0  0  0  0  0  0
  -30.7630  -12.5170   19.0870 C   0  0  0  0  0  2  0  0  0  0  0  0
  -29.7890  -12.4170   17.8910 C   0  0  0  0  0  2  0  0  0  0  0  0
  -28.3340  -12.2790   18.3820 C   0  0  0  0  0  2  0  0  0  0  0  0
  -27.9720  -13.2970   19.4930 C   0  0  0  0  0  3  0  0  0  0  0  0
  -29.0480  -13.3300   20.5980 C   0  0  0  0  0  2  0  0  0  0  0  0
  -30.3220  -13.6460   19.9430 N   0  0  0  0  0  0  0  0  0  0  0  0
  -32.1060  -14.9770   19.5600 O   0  0  0  0  0  0  0  0  0  0  0  0
  -30.1220  -16.0180   20.0390 N   0  0  0  0  0  0  0  0  0  0  0  0
  -29.1520  -15.8270   20.2350 H   0  0  0  0  0  0  0  0  0  0  0  0
  -25.6480  -13.9740   20.3310 C   0  0  0  0  0  0  0  0  0  0  0  0
  -24.5670  -13.2350   20.7330 C   0  0  0  0  0  0  0  0  0  0  0  0
  -24.9720  -11.8690   20.6620 C   0  0  0  0  0  0  0  0  0  0  0  0
  -26.6410  -13.0550   20.0350 N   0  0  0  0  0  0  0  0  0  0  0  0
  -26.2460  -11.7830   20.3000 N   0  0  0  0  0  0  0  0  0  0  0  0
  -24.2010  -10.6340   20.8610 C   0  0  0  0  0  0  0  0  0  0  0  0
  -24.5810   -9.6750   21.8270 C   0  0  0  0  0  3  0  0  0  0  0  0
  -23.8130   -8.5060   22.0130 C   0  0  0  0  0  3  0  0  0  0  0  0
  -22.6530   -8.2870   21.2330 C   0  0  0  0  0  0  0  0  0  0  0  0
  -22.2920   -9.2330   20.2590 C   0  0  0  0  0  3  0  0  0  0  0  0
  -23.0580  -10.3950   20.0720 C   0  0  0  0  0  3  0  0  0  0  0  0
  -21.8560   -7.1710   21.3290 O   0  0  0  0  0  0  0  0  0  0  0  0
  -21.6990   -6.5000   22.5150 C   0  0  0  0  0  0  0  0  0  0  0  0
  -21.1530   -7.1260   23.6570 C   0  0  0  0  0  3  0  0  0  0  0  0
  -20.9460   -6.3820   24.8350 C   0  0  0  0  0  3  0  0  0  0  0  0
  -21.2710   -5.0110   24.8710 C   0  0  0  0  0  0  0  0  0  0  0  0
  -21.8070   -4.3860   23.7330 C   0  0  0  0  0  3  0  0  0  0  0  0
  -22.0190   -5.1280   22.5570 C   0  0  0  0  0  0  0  0  0  0  0  0
  -22.5180   -4.5160   21.4560 F   0  0  0  0  0  0  0  0  0  0  0  0
  -21.0640   -4.2940   26.0000 F   0  0  0  0  0  0  0  0  0  0  0  0
  -23.2020  -13.7660   21.0640 C   0  0  0  0  0  0  0  0  0  0  0  0
  -22.4810  -13.0870   21.9510 N   0  0  0  0  0  0  0  0  0  0  0  0
  -22.7830  -14.8100   20.5680 O   0  0  0  0  0  0  0  0  0  0  0  0
  -22.8380  -12.2460   22.3780 H   0  0  0  0  0  0  0  0  0  0  0  0
  -21.5620  -13.4160   22.2100 H   0  0  0  0  0  0  0  0  0  0  0  0
  -25.8540  -15.3380   20.1630 N   0  0  0  0  0  0  0  0  0  0  0  0
  -25.0960  -16.0010   20.2910 H   0  0  0  0  0  0  0  0  0  0  0  0
  -26.6650  -15.7430   19.7160 H   0  0  0  0  0  0  0  0  0  0  0  0
  -28.3160  -23.7020   20.6750 C   0  0  0  0  0  2  0  0  0  0  0  0
  -28.6070  -25.0970   19.9030 C   0  0  0  0  0  2  0  0  0  0  0  0
  -28.3870  -26.4570   20.5180 O   0  0  0  0  0  0  0  0  0  0  0  0
  -24.5320  -31.8770   23.3260 C   0  0  0  0  0  0  0  0  0  0  0  0
  -27.2440  -27.2780   20.3830 C   0  0  0  0  0  0  0  0  0  0  0  0
  -23.3810  -30.4680   21.6590 C   0  0  0  0  0  3  0  0  0  0  0  0
  -24.8790  -28.9070   20.2770 C   0  0  0  0  0  0  0  0  0  0  0  0
  -25.9250  -30.7850   21.5450 C   0  0  0  0  0  2  0  0  0  0  0  0
  -26.0250  -29.4020   20.9070 C   0  0  0  0  0  0  0  0  0  0  0  0
  -27.2070  -28.5980   20.9450 C   0  0  0  0  0  3  0  0  0  0  0  0
  -26.0770  -26.8400   19.7250 C   0  0  0  0  0  3  0  0  0  0  0  0
  -24.9120  -27.6400   19.6710 C   0  0  0  0  0  3  0  0  0  0  0  0
  -23.6360  -29.7830   20.2890 C   0  0  0  0  0  2  0  0  0  0  0  0
  -24.6310  -31.0600   22.2360 N   0  0  0  0  0  0  0  0  0  0  0  0
  -23.4300  -32.1580   23.8230 O   0  0  0  0  0  0  0  0  0  0  0  0
  -22.6890  -29.4540   22.6030 C   0  0  0  0  0  0  0  0  0  0  0  0
  -21.3600  -29.2960   22.4590 N   0  0  0  0  0  0  0  0  0  0  0  0
  -23.3470  -28.8090   23.4210 O   0  0  0  0  0  0  0  0  0  0  0  0
  -20.8830  -29.8820   21.7870 H   0  0  0  0  0  0  0  0  0  0  0  0
  -17.9580  -28.1590   22.9240 C   0  0  0  0  0  0  0  0  0  0  0  0
  -20.5210  -28.3600   23.2100 C   0  0  0  0  0  3  0  0  0  0  0  0
  -20.5920  -26.9360   22.6110 C   0  0  0  0  0  2  0  0  0  0  0  0
  -19.4890  -26.6560   21.5840 C   0  0  0  0  0  2  0  0  0  0  0  0
  -18.1080  -26.8180   22.2250 C   0  0  0  0  0  2  0  0  0  0  0  0
  -19.0900  -28.8910   23.3710 C   0  0  0  0  0  0  0  0  0  0  0  0
  -18.8950  -30.1500   23.9800 C   0  0  0  0  0  3  0  0  0  0  0  0
  -17.5990  -30.6780   24.1470 C   0  0  0  0  0  3  0  0  0  0  0  0
  -16.4810  -29.9410   23.7220 C   0  0  0  0  0  3  0  0  0  0  0  0
  -16.6620  -28.6840   23.1180 C   0  0  0  0  0  3  0  0  0  0  0  0
  -25.7920  -32.5190   23.9860 C   0  0  0  0  0  3  0  0  0  0  0  0
  -26.2500  -31.7760   25.3030 C   0  0  1  0  0  0  0  0  0  0  0  0
  -25.1090  -31.5500   26.3260 C   0  0  0  0  0  1  0  0  0  0  0  0
  -26.8570  -30.3930   24.9690 C   0  0  0  0  0  1  0  0  0  0  0  0
  -27.3670  -32.5890   25.9990 C   0  0  0  0  0  1  0  0  0  0  0  0
  -25.4830  -33.9300   24.2660 N   0  0  0  0  0  0  0  0  0  0  0  0
  -25.8380  -34.9580   23.4820 C   0  0  0  0  0  0  0  0  0  0  0  0
  -26.5300  -34.8160   22.4690 O   0  0  0  0  0  0  0  0  0  0  0  0
  -24.8740  -34.1120   25.0510 H   0  0  0  0  0  0  0  0  0  0  0  0
  -24.1290  -36.7520   23.0480 C   0  0  0  0  0  1  0  0  0  0  0  0
  -25.3560  -36.3650   23.8850 C   0  0  0  0  0  3  0  0  0  0  0  0
  -27.4870  -37.2710   24.7110 C   0  0  0  0  0  1  0  0  0  0  0  0
  -26.3970  -37.4070   23.7480 N   0  0  0  0  0  0  0  0  0  0  0  0
  -25.9940  -38.3330   23.8590 H   0  0  0  0  0  0  0  0  0  0  0  0
  1 49  1  0
  1  5  1  0
  2  9  1  0
  2  6  1  0
  4  2  1  0
  4  1  2  0
  6  5  1  0
  6  3  1  0
  9  7  1  6
  9 10  1  0
  9  8  1  0
 10 19  1  0
 11 17  1  0
 11 19  1  0
 12 17  1  0
 13 14  1  0
 13 12  1  0
 15 14  1  0
 15 24  1  0
 15 16  1  0
 17 16  1  0
 18 11  2  0
 19 20  1  0
 21 22  2  0
 22 41  1  0
 23 22  1  0
 23 26  1  0
 24 25  1  0
 24 21  1  0
 25 23  2  0
 26 27  1  0
 27 28  2  0
 29 32  1  0
 29 28  1  0
 30 29  2  0
 31 30  1  0
 31 26  2  0
 32 33  1  0
 33 38  2  0
 33 34  1  0
 34 35  2  0
 35 36  1  0
 36 40  1  0
 37 36  2  0
 38 37  1  0
 39 38  1  0
 41 42  1  0
 42 45  1  0
 42 44  1  0
 43 41  2  0
 46 47  1  0
 46 21  1  0
 48 46  1  0
 50 51  1  0
 50 49  1  0
 52 63  2  0
 53 51  1  0
 53 58  1  0
 54 62  1  0
 54 64  1  0
 55 61  1  0
 55 57  1  0
 56 62  1  0
 57 58  2  0
 57 56  1  0
 59 53  2  0
 60 59  1  0
 60 55  2  0
 61 54  1  0
 62 52  1  0
 64 66  2  0
 65 64  1  0
 67 65  1  0
 68 77  2  0
 68 73  1  0
 69 65  1  0
 69 73  1  0
 70 69  1  0
 71 72  1  0
 71 70  1  0
 72 68  1  0
 73 74  2  0
 74 75  1  0
 76 75  2  0
 77 76  1  0
 78 52  1  0
 78 83  1  0
 78 79  1  0
 79 82  1  1
 79 80  1  0
 81 79  1  0
 83 86  1  0
 84 88  1  0
 84 83  1  0
 85 84  2  0
 88 87  1  0
 90 91  1  0
 90 88  1  0
 90 89  1  0
M  ISO  4  11 100  19 100  50 101  51 101
M  END
>  <TORSDO>  (59) 
F 20

>  <SCORE>  (59) 
-13.678

>  <name>  (59) 
60

>  <ligand_id>  (59) 
60

>  <original_smiles>  (59) 
[H]c1c([H])c([H])c2c(c1[H])C([H])([H])C([H])([H])C([H])([H])C2([H])N([H])C(=O)C1([H])N(C(=O)C([H])(N([H])C(=O)C([H])(N([H])C([H])([H])[H])C([H])([H])[H])C(C([H])([H])[H])(C([H])([H])[H])C([H])([H])[H])C([H])([H])c2c([H])c(OC([H])([H])C([H])([H])c3nc(C(C([H])([H])[H])(C([H])([H])[H])C([H])([H])N([H])C(=O)N4C([H])([H])C([H])([H])C([H])([H])C([H])(n5nc(-c6c([H])c([H])c(Oc7c([H])c([H])c(F)c([H])c7F)c([H])c6[H])c(C(=O)N([H])[H])c5N([H])[H])C4([H])[H])n(C([H])([H])[H])n3)c([H])c([H])c2C1([H])[H]

>  <smiles>  (59) 
[H]c1c([H])c([H])c2c(c1[H])C([H])([H])C([H])([H])C([H])([H])C2([H])N([H])C(=O)C1([H])N(C(=O)C([H])(N([H])C(=O)C([H])(N([H])C([H])([H])[H])C([H])([H])[H])C(C([H])([H])[H])(C([H])([H])[H])C([H])([H])[H])C([H])([H])c2c([H])c(OC([H])([H])C([H])([H])c3nc(C(C([H])([H])[H])(C([H])([H])[H])C([H])([H])N([H])C(=O)N4C([H])([H])C([H])([H])C([H])([H])C([H])(n5nc(-c6c([H])c([H])c(Oc7c([H])c([H])c(F)c([H])c7F)c([H])c6[H])c(C(=O)N([H])[H])c5N([H])[H])C4([H])[H])n(C([H])([H])[H])n3)c([H])c([H])c2C1([H])[H]

$$$$
61:0:0
     RDKit          3D

 89 97  0  0  1  0  0  0  0  0999 V2000
  -29.7590  -20.7070   21.9030 C   0  0  0  0  0  3  0  0  0  0  0  0
  -29.3880  -20.2130   20.6200 C   0  0  0  0  0  0  0  0  0  0  0  0
  -29.6420  -22.0830   21.8520 C   0  0  0  0  0  0  0  0  0  0  0  0
  -29.9760  -23.0790   22.9150 C   0  0  0  0  0  1  0  0  0  0  0  0
  -29.0420  -21.2920   19.8580 N   0  0  0  0  0  0  0  0  0  0  0  0
  -29.1720  -22.4640   20.5990 N   0  0  0  0  0  0  0  0  0  0  0  0
  -29.2770  -18.7270   20.0810 C   0  0  0  0  0  3  0  0  0  0  0  0
  -30.0470  -17.4300   20.7270 C   0  0  0  0  0  3  0  0  0  0  0  0
  -30.5690  -14.8560   20.3100 C   0  0  0  0  0  0  0  0  0  0  0  0
  -30.4040  -12.5380   19.3780 C   0  0  0  0  0  2  0  0  0  0  0  0
  -29.4610  -12.4950   18.1550 C   0  0  0  0  0  2  0  0  0  0  0  0
  -27.9820  -12.3750   18.5880 C   0  0  0  0  0  2  0  0  0  0  0  0
  -27.5950  -13.2810   19.7910 C   0  0  0  0  0  3  0  0  0  0  0  0
  -28.6680  -13.2670   20.8980 C   0  0  0  0  0  2  0  0  0  0  0  0
  -29.9450  -13.6250   20.2700 N   0  0  0  0  0  0  0  0  0  0  0  0
  -31.7970  -14.9190   20.1970 O   0  0  0  0  0  0  0  0  0  0  0  0
  -29.1820  -16.1570   18.8190 C   0  0  0  0  0  1  0  0  0  0  0  0
  -29.7920  -16.0160   20.1500 N   0  0  0  0  0  0  0  0  0  0  0  0
  -25.2130  -13.8630   20.5330 C   0  0  0  0  0  0  0  0  0  0  0  0
  -24.1520  -13.0830   20.9000 C   0  0  0  0  0  0  0  0  0  0  0  0
  -24.6260  -11.7360   20.8740 C   0  0  0  0  0  0  0  0  0  0  0  0
  -26.2620  -12.9870   20.2980 N   0  0  0  0  0  0  0  0  0  0  0  0
  -25.9170  -11.7050   20.5710 N   0  0  0  0  0  0  0  0  0  0  0  0
  -23.9120  -10.4680   21.0610 C   0  0  0  0  0  0  0  0  0  0  0  0
  -24.3570   -9.5020   21.9900 C   0  0  0  0  0  3  0  0  0  0  0  0
  -23.6420   -8.2980   22.1670 C   0  0  0  0  0  3  0  0  0  0  0  0
  -22.4680   -8.0540   21.4150 C   0  0  0  0  0  0  0  0  0  0  0  0
  -22.0430   -9.0090   20.4760 C   0  0  0  0  0  3  0  0  0  0  0  0
  -22.7580  -10.2040   20.2970 C   0  0  0  0  0  3  0  0  0  0  0  0
  -21.7230   -6.9020   21.5030 O   0  0  0  0  0  0  0  0  0  0  0  0
  -21.6900   -6.1530   22.6520 C   0  0  0  0  0  0  0  0  0  0  0  0
  -21.2700   -6.6960   23.8850 C   0  0  0  0  0  3  0  0  0  0  0  0
  -21.1850   -5.8730   25.0260 C   0  0  0  0  0  3  0  0  0  0  0  0
  -21.5110   -4.5060   24.9330 C   0  0  0  0  0  0  0  0  0  0  0  0
  -21.9240   -3.9620   23.7040 C   0  0  0  0  0  3  0  0  0  0  0  0
  -22.0110   -4.7830   22.5660 C   0  0  0  0  0  0  0  0  0  0  0  0
  -22.3900   -4.2490   21.3800 F   0  0  0  0  0  0  0  0  0  0  0  0
  -21.4220   -3.7130   26.0260 F   0  0  0  0  0  0  0  0  0  0  0  0
  -22.7510  -13.5500   21.1650 C   0  0  0  0  0  0  0  0  0  0  0  0
  -22.0250  -12.8480   22.0270 N   0  0  0  0  0  0  0  0  0  0  0  0
  -22.3080  -14.5730   20.6430 O   0  0  0  0  0  0  0  0  0  0  0  0
  -22.3960  -12.0210   22.4710 H   0  0  0  0  0  0  0  0  0  0  0  0
  -21.0830  -13.1420   22.2480 H   0  0  0  0  0  0  0  0  0  0  0  0
  -25.3700  -15.2350   20.3550 N   0  0  0  0  0  0  0  0  0  0  0  0
  -24.6040  -15.8900   20.4740 H   0  0  0  0  0  0  0  0  0  0  0  0
  -26.2300  -15.6810   20.0660 H   0  0  0  0  0  0  0  0  0  0  0  0
  -29.0440  -23.8610   19.9770 C   0  0  0  0  0  3  0  0  0  0  0  0
  -28.1760  -25.0410   20.6640 C   0  0  0  0  0  3  0  0  0  0  0  0
  -28.3430  -26.4720   20.2320 O   0  0  0  0  0  0  0  0  0  0  0  0
  -24.6050  -31.9270   23.2340 C   0  0  0  0  0  0  0  0  0  0  0  0
  -27.2250  -27.3320   20.2150 C   0  0  0  0  0  0  0  0  0  0  0  0
  -23.4050  -30.5160   21.6000 C   0  0  0  0  0  3  0  0  0  0  0  0
  -24.8600  -28.9550   20.1840 C   0  0  0  0  0  0  0  0  0  0  0  0
  -25.9450  -30.8350   21.4160 C   0  0  0  0  0  2  0  0  0  0  0  0
  -26.0290  -29.4490   20.7780 C   0  0  0  0  0  0  0  0  0  0  0  0
  -27.2170  -28.6520   20.7760 C   0  0  0  0  0  3  0  0  0  0  0  0
  -26.0360  -26.9000   19.5920 C   0  0  0  0  0  3  0  0  0  0  0  0
  -24.8670  -27.6880   19.5790 C   0  0  0  0  0  3  0  0  0  0  0  0
  -23.6220  -29.8310   20.2250 C   0  0  0  0  0  2  0  0  0  0  0  0
  -24.6710  -31.1110   22.1400 N   0  0  0  0  0  0  0  0  0  0  0  0
  -23.5200  -32.2040   23.7670 O   0  0  0  0  0  0  0  0  0  0  0  0
  -22.7420  -29.5060   22.5670 C   0  0  0  0  0  0  0  0  0  0  0  0
  -21.4160  -29.3220   22.4380 N   0  0  0  0  0  0  0  0  0  0  0  0
  -23.4210  -28.8890   23.3930 O   0  0  0  0  0  0  0  0  0  0  0  0
  -20.9280  -29.8710   21.7450 H   0  0  0  0  0  0  0  0  0  0  0  0
  -18.0440  -28.1070   22.9320 C   0  0  0  0  0  0  0  0  0  0  0  0
  -20.6000  -28.3850   23.2120 C   0  0  0  0  0  3  0  0  0  0  0  0
  -20.7140  -26.9500   22.6500 C   0  0  0  0  0  2  0  0  0  0  0  0
  -19.6200  -26.6110   21.6330 C   0  0  0  0  0  2  0  0  0  0  0  0
  -18.2340  -26.7530   22.2690 C   0  0  0  0  0  2  0  0  0  0  0  0
  -19.1560  -28.8810   23.3610 C   0  0  0  0  0  0  0  0  0  0  0  0
  -18.9250  -30.1470   23.9420 C   0  0  0  0  0  3  0  0  0  0  0  0
  -17.6160  -30.6400   24.0970 C   0  0  0  0  0  3  0  0  0  0  0  0
  -16.5190  -29.8650   23.6840 C   0  0  0  0  0  3  0  0  0  0  0  0
  -16.7340  -28.5990   23.1090 C   0  0  0  0  0  3  0  0  0  0  0  0
  -25.8860  -32.5650   23.8540 C   0  0  0  0  0  3  0  0  0  0  0  0
  -26.3990  -31.8050   25.1390 C   0  0  1  0  0  0  0  0  0  0  0  0
  -25.3040  -31.5790   26.2060 C   0  0  0  0  0  1  0  0  0  0  0  0
  -26.9810  -30.4240   24.7610 C   0  0  0  0  0  1  0  0  0  0  0  0
  -27.5490  -32.6040   25.7950 C   0  0  0  0  0  1  0  0  0  0  0  0
  -25.5740  -33.9660   24.1740 N   0  0  0  0  0  0  0  0  0  0  0  0
  -25.9100  -35.0150   23.4100 C   0  0  0  0  0  0  0  0  0  0  0  0
  -26.5850  -34.9050   22.3830 O   0  0  0  0  0  0  0  0  0  0  0  0
  -24.9760  -34.1260   24.9700 H   0  0  0  0  0  0  0  0  0  0  0  0
  -24.1890  -36.8110   23.0350 C   0  0  0  0  0  1  0  0  0  0  0  0
  -25.4240  -36.4070   23.8580 C   0  0  0  0  0  3  0  0  0  0  0  0
  -27.5540  -37.2910   24.7010 C   0  0  0  0  0  1  0  0  0  0  0  0
  -26.4590  -37.4570   23.7480 N   0  0  0  0  0  0  0  0  0  0  0  0
  -26.0540  -38.3790   23.8870 H   0  0  0  0  0  0  0  0  0  0  0  0
  2  1  1  0
  3  1  2  0
  3  4  1  0
  5  6  1  0
  5  2  2  0
  6  3  1  0
  7  2  1  0
  7  8  2  0
 10 15  1  0
 11 12  1  0
 11 10  1  0
 13 12  1  0
 13 22  1  0
 13 14  1  0
 15  9  1  0
 15 14  1  0
 16  9  2  0
 17 18  1  0
 18  9  1  0
 18  8  1  0
 19 20  2  0
 20 39  1  0
 21 20  1  0
 21 24  1  0
 22 19  1  0
 22 23  1  0
 23 21  2  0
 24 25  1  0
 25 26  2  0
 27 30  1  0
 27 26  1  0
 28 27  2  0
 29 28  1  0
 29 24  2  0
 30 31  1  0
 31 32  1  0
 32 33  2  0
 34 33  1  0
 34 38  1  0
 35 34  2  0
 36 31  2  0
 36 35  1  0
 37 36  1  0
 39 40  1  0
 40 43  1  0
 40 42  1  0
 41 39  2  0
 44 45  1  0
 44 19  1  0
 46 44  1  0
 47  6  1  0
 47 48  2  0
 49 48  1  0
 50 61  2  0
 51 49  1  0
 51 56  1  0
 52 60  1  0
 52 62  1  0
 53 59  1  0
 53 55  1  0
 54 60  1  0
 55 54  1  0
 56 55  2  0
 57 51  2  0
 58 57  1  0
 58 53  2  0
 59 52  1  0
 60 50  1  0
 62 64  2  0
 63 62  1  0
 65 63  1  0
 66 75  2  0
 66 71  1  0
 67 63  1  0
 67 71  1  0
 68 67  1  0
 69 70  1  0
 69 68  1  0
 70 66  1  0
 71 72  2  0
 72 73  1  0
 74 73  2  0
 75 74  1  0
 76 50  1  0
 76 81  1  0
 76 77  1  0
 77 80  1  1
 77 78  1  0
 79 77  1  0
 81 84  1  0
 82 86  1  0
 82 81  1  0
 83 82  2  0
 86 85  1  0
 88 86  1  0
 88 89  1  0
 88 87  1  0
M  ISO  4   9 100  18 100  48 101  49 101
M  END
>  <TORSDO>  (60) 
F 20

>  <SCORE>  (60) 
-13.702

>  <name>  (60) 
61

>  <ligand_id>  (60) 
61

>  <original_smiles>  (60) 
[H]c1c([H])c([H])c2c(c1[H])C([H])([H])C([H])([H])C([H])([H])C2([H])N([H])C(=O)C1([H])N(C(=O)C([H])(N([H])C(=O)C([H])(N([H])C([H])([H])[H])C([H])([H])[H])C(C([H])([H])[H])(C([H])([H])[H])C([H])([H])[H])C([H])([H])c2c([H])c(OC([H])([H])C([H])([H])n3nc(C([H])([H])C([H])([H])N(C(=O)N4C([H])([H])C([H])([H])C([H])([H])C([H])(n5nc(-c6c([H])c([H])c(Oc7c([H])c([H])c(F)c([H])c7F)c([H])c6[H])c(C(=O)N([H])[H])c5N([H])[H])C4([H])[H])C([H])([H])[H])c([H])c3C([H])([H])[H])c([H])c([H])c2C1([H])[H]

>  <smiles>  (60) 
[H]c1c([H])c([H])c2c(c1[H])C([H])([H])C([H])([H])C([H])([H])C2([H])N([H])C(=O)C1([H])N(C(=O)C([H])(N([H])C(=O)C([H])(N([H])C([H])([H])[H])C([H])([H])[H])C(C([H])([H])[H])(C([H])([H])[H])C([H])([H])[H])C([H])([H])c2c([H])c(OC([H])([H])C([H])([H])n3nc(C([H])([H])C([H])([H])N(C(=O)N4C([H])([H])C([H])([H])C([H])([H])C([H])(n5nc(-c6c([H])c([H])c(Oc7c([H])c([H])c(F)c([H])c7F)c([H])c6[H])c(C(=O)N([H])[H])c5N([H])[H])C4([H])[H])C([H])([H])[H])c([H])c3C([H])([H])[H])c([H])c([H])c2C1([H])[H]

$$$$
62:0:0
     RDKit          3D

 88 96  0  0  1  0  0  0  0  0999 V2000
  -29.3770  -22.1730   18.8280 C   0  0  0  0  0  3  0  0  0  0  0  0
  -28.8620  -22.9940   19.9080 C   0  0  0  0  0  0  0  0  0  0  0  0
  -28.8350  -22.0480   21.0200 C   0  0  0  0  0  0  0  0  0  0  0  0
  -29.7120  -19.9810   19.9480 C   0  0  0  0  0  0  0  0  0  0  0  0
  -28.2400  -22.5020   22.3360 C   0  0  0  0  0  1  0  0  0  0  0  0
  -29.7770  -20.8090   18.8580 N   0  0  0  0  0  0  0  0  0  0  0  0
  -29.2570  -20.6860   21.0320 N   0  0  0  0  0  0  0  0  0  0  0  0
  -28.0500  -24.5360   19.7600 C   0  0  0  0  0  2  0  0  0  0  0  0
  -28.3840  -26.1110   20.0280 O   0  0  0  0  0  0  0  0  0  0  0  0
  -24.7340  -31.8850   23.2180 C   0  0  0  0  0  0  0  0  0  0  0  0
  -27.3640  -27.1970   20.0000 C   0  0  0  0  0  0  0  0  0  0  0  0
  -23.5590  -30.5440   21.5230 C   0  0  0  0  0  3  0  0  0  0  0  0
  -25.0300  -29.0290   20.0340 C   0  0  0  0  0  0  0  0  0  0  0  0
  -26.1220  -30.8020   21.3880 C   0  0  0  0  0  2  0  0  0  0  0  0
  -26.2130  -29.4270   20.6690 C   0  0  0  0  0  0  0  0  0  0  0  0
  -27.3740  -28.5350   20.6280 C   0  0  0  0  0  3  0  0  0  0  0  0
  -26.1460  -26.9480   19.3240 C   0  0  0  0  0  3  0  0  0  0  0  0
  -25.0200  -27.8090   19.3410 C   0  0  0  0  0  3  0  0  0  0  0  0
  -23.7960  -29.9260   20.1190 C   0  0  0  0  0  2  0  0  0  0  0  0
  -24.8260  -31.1020   22.0960 N   0  0  0  0  0  0  0  0  0  0  0  0
  -23.6430  -32.1390   23.7490 O   0  0  0  0  0  0  0  0  0  0  0  0
  -22.8810  -29.4970   22.4440 C   0  0  0  0  0  0  0  0  0  0  0  0
  -21.5540  -29.3170   22.3090 N   0  0  0  0  0  0  0  0  0  0  0  0
  -23.5550  -28.8490   23.2490 O   0  0  0  0  0  0  0  0  0  0  0  0
  -21.0630  -29.8910   21.6380 H   0  0  0  0  0  0  0  0  0  0  0  0
  -18.1840  -28.0600   22.7760 C   0  0  0  0  0  0  0  0  0  0  0  0
  -20.7430  -28.3370   23.0400 C   0  0  0  0  0  3  0  0  0  0  0  0
  -20.8540  -26.9340   22.4000 C   0  0  0  0  0  2  0  0  0  0  0  0
  -19.7500  -26.6480   21.3770 C   0  0  0  0  0  2  0  0  0  0  0  0
  -18.3690  -26.7470   22.0330 C   0  0  0  0  0  2  0  0  0  0  0  0
  -19.2970  -28.8140   23.2350 C   0  0  0  0  0  0  0  0  0  0  0  0
  -19.0670  -30.0430   23.8910 C   0  0  0  0  0  3  0  0  0  0  0  0
  -17.7570  -30.5170   24.0940 C   0  0  0  0  0  3  0  0  0  0  0  0
  -16.6590  -29.7600   23.6510 C   0  0  0  0  0  3  0  0  0  0  0  0
  -16.8730  -28.5330   22.9980 C   0  0  0  0  0  3  0  0  0  0  0  0
  -26.0000  -32.5150   23.8750 C   0  0  0  0  0  3  0  0  0  0  0  0
  -25.6830  -33.9130   24.2130 N   0  0  0  0  0  0  0  0  0  0  0  0
  -25.9930  -34.9770   23.4580 C   0  0  0  0  0  0  0  0  0  0  0  0
  -26.6380  -34.8840   22.4110 O   0  0  0  0  0  0  0  0  0  0  0  0
  -25.1070  -34.0600   25.0290 H   0  0  0  0  0  0  0  0  0  0  0  0
  -24.2280  -36.7530   23.1910 C   0  0  0  0  0  1  0  0  0  0  0  0
  -25.5120  -36.3600   23.9390 C   0  0  0  0  0  3  0  0  0  0  0  0
  -27.6640  -37.2860   24.6770 C   0  0  0  0  0  1  0  0  0  0  0  0
  -26.5240  -37.4270   23.7760 N   0  0  0  0  0  0  0  0  0  0  0  0
  -26.1090  -38.3420   23.9300 H   0  0  0  0  0  0  0  0  0  0  0  0
  -26.4770  -31.7410   25.1660 C   0  0  1  0  0  0  0  0  0  0  0  0
  -25.3530  -31.5120   26.2060 C   0  0  0  0  0  1  0  0  0  0  0  0
  -27.0620  -30.3580   24.8010 C   0  0  0  0  0  1  0  0  0  0  0  0
  -27.6120  -32.5310   25.8590 C   0  0  0  0  0  1  0  0  0  0  0  0
  -30.4700  -18.4060   19.9760 C   0  0  0  0  0  2  0  0  0  0  0  0
  -30.7080  -15.5230   20.0140 C   0  0  0  0  0  0  0  0  0  0  0  0
  -30.6280  -13.0950   19.0900 C   0  0  0  0  0  2  0  0  0  0  0  0
  -29.6470  -12.8860   17.9080 C   0  0  0  0  0  2  0  0  0  0  0  0
  -28.2230  -12.5950   18.4130 C   0  0  0  0  0  2  0  0  0  0  0  0
  -27.8200  -13.5370   19.5720 C   0  0  0  0  0  3  0  0  0  0  0  0
  -28.9300  -13.6530   20.6420 C   0  0  0  0  0  2  0  0  0  0  0  0
  -30.1170  -14.2200   19.9620 N   0  0  0  0  0  0  0  0  0  0  0  0
  -31.9060  -15.5030   19.6940 O   0  0  0  0  0  0  0  0  0  0  0  0
  -28.7280  -16.8500   20.8730 C   0  0  0  0  0  1  0  0  0  0  0  0
  -30.0060  -16.8320   20.1800 N   0  0  0  0  0  0  0  0  0  0  0  0
  -25.4790  -14.0750   20.4490 C   0  0  0  0  0  0  0  0  0  0  0  0
  -24.4410  -13.2890   20.8580 C   0  0  0  0  0  0  0  0  0  0  0  0
  -24.9070  -11.9420   20.7640 C   0  0  0  0  0  0  0  0  0  0  0  0
  -26.5150  -13.2120   20.1360 N   0  0  0  0  0  0  0  0  0  0  0  0
  -26.1820  -11.9190   20.3890 N   0  0  0  0  0  0  0  0  0  0  0  0
  -24.1890  -10.6760   20.9480 C   0  0  0  0  0  0  0  0  0  0  0  0
  -24.6090   -9.7200   21.8970 C   0  0  0  0  0  3  0  0  0  0  0  0
  -23.8870   -8.5190   22.0690 C   0  0  0  0  0  3  0  0  0  0  0  0
  -22.7320   -8.2680   21.2910 C   0  0  0  0  0  0  0  0  0  0  0  0
  -22.3310   -9.2150   20.3320 C   0  0  0  0  0  3  0  0  0  0  0  0
  -23.0530  -10.4070   20.1580 C   0  0  0  0  0  3  0  0  0  0  0  0
  -21.9830   -7.1180   21.3730 O   0  0  0  0  0  0  0  0  0  0  0  0
  -21.8360   -6.4390   22.5560 C   0  0  0  0  0  0  0  0  0  0  0  0
  -21.2440   -7.0360   23.6900 C   0  0  0  0  0  3  0  0  0  0  0  0
  -21.0470   -6.2790   24.8630 C   0  0  0  0  0  3  0  0  0  0  0  0
  -21.4350   -4.9270   24.9010 C   0  0  0  0  0  0  0  0  0  0  0  0
  -22.0200   -4.3280   23.7710 C   0  0  0  0  0  3  0  0  0  0  0  0
  -22.2170   -5.0830   22.6010 C   0  0  0  0  0  0  0  0  0  0  0  0
  -22.7620   -4.4970   21.5080 F   0  0  0  0  0  0  0  0  0  0  0  0
  -21.2410   -4.1970   26.0250 F   0  0  0  0  0  0  0  0  0  0  0  0
  -23.0590  -13.7600   21.2070 C   0  0  0  0  0  0  0  0  0  0  0  0
  -22.3740  -13.0470   22.0940 N   0  0  0  0  0  0  0  0  0  0  0  0
  -22.5970  -14.7950   20.7290 O   0  0  0  0  0  0  0  0  0  0  0  0
  -22.7640  -12.2150   22.5100 H   0  0  0  0  0  0  0  0  0  0  0  0
  -21.4450  -13.3390   22.3640 H   0  0  0  0  0  0  0  0  0  0  0  0
  -25.6030  -15.4490   20.2860 N   0  0  0  0  0  0  0  0  0  0  0  0
  -24.8090  -16.0640   20.4270 H   0  0  0  0  0  0  0  0  0  0  0  0
  -26.3880  -15.9100   19.8450 H   0  0  0  0  0  0  0  0  0  0  0  0
  1  6  1  0
  1  2  2  0
  2  3  1  0
  3  7  2  0
  3  5  1  0
  4 50  1  0
  4  7  1  0
  6  4  2  0
  8  2  1  0
  8  9  1  0
 10 21  2  0
 11  9  1  0
 11 16  1  0
 12 20  1  0
 12 22  1  0
 13 19  1  0
 13 15  1  0
 14 20  1  0
 15 14  1  0
 16 15  2  0
 17 18  1  0
 17 11  2  0
 18 13  2  0
 19 12  1  0
 20 10  1  0
 22 24  2  0
 23 22  1  0
 25 23  1  0
 26 35  2  0
 26 31  1  0
 27 23  1  0
 27 31  1  0
 28 27  1  0
 29 30  1  0
 29 28  1  0
 30 26  1  0
 31 32  2  0
 32 33  1  0
 34 33  2  0
 35 34  1  0
 36 10  1  0
 36 37  1  0
 36 46  1  0
 37 40  1  0
 38 42  1  0
 38 37  1  0
 39 38  2  0
 42 41  1  0
 44 45  1  0
 44 42  1  0
 44 43  1  0
 46 49  1  1
 46 47  1  0
 48 46  1  0
 50 60  1  0
 51 60  1  0
 52 57  1  0
 53 54  1  0
 53 52  1  0
 55 54  1  0
 55 64  1  0
 55 56  1  0
 57 51  1  0
 57 56  1  0
 58 51  2  0
 60 59  1  0
 61 62  2  0
 62 81  1  0
 63 62  1  0
 63 66  1  0
 64 65  1  0
 64 61  1  0
 65 63  2  0
 66 67  1  0
 67 68  2  0
 69 72  1  0
 69 68  1  0
 70 69  2  0
 71 70  1  0
 71 66  2  0
 72 73  1  0
 73 78  2  0
 73 74  1  0
 74 75  2  0
 75 76  1  0
 76 80  1  0
 77 76  2  0
 78 77  1  0
 79 78  1  0
 81 82  1  0
 82 85  1  0
 82 84  1  0
 83 81  2  0
 86 87  1  0
 86 61  1  0
 88 86  1  0
M  ISO  4   8 101   9 101  51 100  60 100
M  END
>  <TORSDO>  (61) 
F 18

>  <SCORE>  (61) 
-15.405

>  <name>  (61) 
62

>  <ligand_id>  (61) 
62

>  <original_smiles>  (61) 
[H]c1nc(C([H])([H])N(C(=O)N2C([H])([H])C([H])([H])C([H])([H])C([H])(n3nc(-c4c([H])c([H])c(Oc5c([H])c([H])c(F)c([H])c5F)c([H])c4[H])c(C(=O)N([H])[H])c3N([H])[H])C2([H])[H])C([H])([H])[H])nc(C([H])([H])[H])c1C([H])([H])Oc1c([H])c([H])c2c(c1[H])C([H])([H])N(C(=O)C([H])(N([H])C(=O)C([H])(N([H])C([H])([H])[H])C([H])([H])[H])C(C([H])([H])[H])(C([H])([H])[H])C([H])([H])[H])C([H])(C(=O)N([H])C1([H])c3c([H])c([H])c([H])c([H])c3C([H])([H])C([H])([H])C1([H])[H])C2([H])[H]

>  <smiles>  (61) 
[H]c1nc(C([H])([H])N(C(=O)N2C([H])([H])C([H])([H])C([H])([H])C([H])(n3nc(-c4c([H])c([H])c(Oc5c([H])c([H])c(F)c([H])c5F)c([H])c4[H])c(C(=O)N([H])[H])c3N([H])[H])C2([H])[H])C([H])([H])[H])nc(C([H])([H])[H])c1C([H])([H])Oc1c([H])c([H])c2c(c1[H])C([H])([H])N(C(=O)C([H])(N([H])C(=O)C([H])(N([H])C([H])([H])[H])C([H])([H])[H])C(C([H])([H])[H])(C([H])([H])[H])C([H])([H])[H])C([H])(C(=O)N([H])C1([H])c3c([H])c([H])c([H])c([H])c3C([H])([H])C([H])([H])C1([H])[H])C2([H])[H]

$$$$
63:0:0
     RDKit          3D

 97105  0  0  1  0  0  0  0  0999 V2000
  -25.8380  -20.3840   17.4220 C   0  0  0  0  0  2  0  0  0  0  0  0
  -27.1760  -19.6290   17.2670 C   0  0  0  0  0  2  0  0  0  0  0  0
  -28.7950  -18.3680   18.7510 C   0  0  0  0  0  3  0  0  0  0  0  0
  -28.0110  -19.5040   18.5340 C   0  0  0  0  0  0  0  0  0  0  0  0
  -29.6030  -18.3610   19.8920 C   0  0  0  0  0  0  0  0  0  0  0  0
  -28.8040  -20.4130   20.4830 C   0  0  0  0  0  0  0  0  0  0  0  0
  -28.7700  -21.5490   21.4810 C   0  0  0  0  0  1  0  0  0  0  0  0
  -28.0490  -20.5480   19.3910 N   0  0  0  0  0  0  0  0  0  0  0  0
  -29.5830  -19.3770   20.7710 N   0  0  0  0  0  0  0  0  0  0  0  0
  -30.5280  -17.1970   20.1740 C   0  0  0  0  0  2  0  0  0  0  0  0
  -29.8400  -16.0800   20.9850 C   0  0  0  0  0  2  0  0  0  0  0  0
  -30.9580  -14.1370   20.0410 C   0  0  0  0  0  0  0  0  0  0  0  0
  -30.4210  -12.0800   18.7900 C   0  0  0  0  0  2  0  0  0  0  0  0
  -29.4310  -12.3400   17.6400 C   0  0  0  0  0  2  0  0  0  0  0  0
  -27.9780  -12.2620   18.1440 C   0  0  0  0  0  2  0  0  0  0  0  0
  -27.7450  -13.1230   19.4130 C   0  0  0  0  0  3  0  0  0  0  0  0
  -28.8330  -12.8420   20.4730 C   0  0  0  0  0  2  0  0  0  0  0  0
  -30.1570  -13.0550   19.8570 N   0  0  0  0  0  0  0  0  0  0  0  0
  -31.9510  -14.3730   19.3440 O   0  0  0  0  0  0  0  0  0  0  0  0
  -31.6530  -14.9570   22.2190 C   0  0  0  0  0  1  0  0  0  0  0  0
  -30.6800  -14.8830   21.1280 N   0  0  0  0  0  0  0  0  0  0  0  0
  -25.4110  -13.8550   20.2230 C   0  0  0  0  0  0  0  0  0  0  0  0
  -24.3260  -13.1360   20.6480 C   0  0  0  0  0  0  0  0  0  0  0  0
  -24.7190  -11.7640   20.6050 C   0  0  0  0  0  0  0  0  0  0  0  0
  -26.4020  -12.9220   19.9530 N   0  0  0  0  0  0  0  0  0  0  0  0
  -25.9890  -11.6600   20.2380 N   0  0  0  0  0  0  0  0  0  0  0  0
  -23.9430  -10.5400   20.8390 C   0  0  0  0  0  0  0  0  0  0  0  0
  -24.3620   -9.5660   21.7730 C   0  0  0  0  0  3  0  0  0  0  0  0
  -23.5900   -8.4060   21.9920 C   0  0  0  0  0  3  0  0  0  0  0  0
  -22.3840   -8.2090   21.2770 C   0  0  0  0  0  0  0  0  0  0  0  0
  -21.9830   -9.1700   20.3320 C   0  0  0  0  0  3  0  0  0  0  0  0
  -22.7560  -10.3220   20.1110 C   0  0  0  0  0  3  0  0  0  0  0  0
  -21.5830   -7.1000   21.4060 O   0  0  0  0  0  0  0  0  0  0  0  0
  -21.5220   -6.3890   22.5780 C   0  0  0  0  0  0  0  0  0  0  0  0
  -21.1590   -6.9950   23.8000 C   0  0  0  0  0  3  0  0  0  0  0  0
  -21.0400   -6.2130   24.9670 C   0  0  0  0  0  3  0  0  0  0  0  0
  -21.2740   -4.8270   24.9120 C   0  0  0  0  0  0  0  0  0  0  0  0
  -21.6310   -4.2200   23.6950 C   0  0  0  0  0  3  0  0  0  0  0  0
  -21.7510   -4.9980   22.5300 C   0  0  0  0  0  0  0  0  0  0  0  0
  -22.0730   -4.4060   21.3550 F   0  0  0  0  0  0  0  0  0  0  0  0
  -21.1530   -4.0730   26.0300 F   0  0  0  0  0  0  0  0  0  0  0  0
  -22.9670  -13.6820   20.9830 C   0  0  0  0  0  0  0  0  0  0  0  0
  -22.2530  -13.0310   21.8940 N   0  0  0  0  0  0  0  0  0  0  0  0
  -22.5510  -14.7200   20.4700 O   0  0  0  0  0  0  0  0  0  0  0  0
  -22.6030  -12.1910   22.3290 H   0  0  0  0  0  0  0  0  0  0  0  0
  -21.3430  -13.3790   22.1610 H   0  0  0  0  0  0  0  0  0  0  0  0
  -25.6350  -15.2140   20.0250 N   0  0  0  0  0  0  0  0  0  0  0  0
  -24.9050  -15.9050   20.1620 H   0  0  0  0  0  0  0  0  0  0  0  0
  -26.4870  -15.6080   19.6490 H   0  0  0  0  0  0  0  0  0  0  0  0
  -25.9740  -21.9140   17.2690 C   0  0  0  0  0  2  0  0  0  0  0  0
  -25.2990  -22.8990   19.4140 C   0  0  0  0  0  1  0  0  0  0  0  0
  -26.4370  -22.5830   18.5140 N   0  0  2  0  0  4  0  0  0  0  0  0
  -26.9990  -21.8720   18.9950 H   0  0  0  0  0  0  0  0  0  0  0  0
  -27.3290  -23.7410   18.2240 C   0  0  0  0  0  2  0  0  0  0  0  0
  -27.9810  -24.4030   19.4610 C   0  0  0  0  0  2  0  0  0  0  0  0
  -28.6110  -25.7740   19.1220 C   0  0  0  0  0  2  0  0  0  0  0  0
  -28.4040  -26.7540   20.1430 O   0  0  0  0  0  0  0  0  0  0  0  0
  -24.5540  -31.8540   23.2750 C   0  0  0  0  0  0  0  0  0  0  0  0
  -27.2100  -27.4480   20.1520 C   0  0  0  0  0  0  0  0  0  0  0  0
  -23.3550  -30.4750   21.6100 C   0  0  0  0  0  3  0  0  0  0  0  0
  -24.8120  -28.9520   20.1850 C   0  0  0  0  0  0  0  0  0  0  0  0
  -25.8840  -30.8250   21.4410 C   0  0  0  0  0  2  0  0  0  0  0  0
  -25.9670  -29.4600   20.7940 C   0  0  0  0  0  0  0  0  0  0  0  0
  -27.1630  -28.7080   20.7910 C   0  0  0  0  0  3  0  0  0  0  0  0
  -26.0290  -26.9570   19.5430 C   0  0  0  0  0  3  0  0  0  0  0  0
  -24.8350  -27.6930   19.5680 C   0  0  0  0  0  3  0  0  0  0  0  0
  -23.5740  -29.8140   20.2240 C   0  0  0  0  0  2  0  0  0  0  0  0
  -24.6150  -31.0660   22.1670 N   0  0  0  0  0  0  0  0  0  0  0  0
  -23.4680  -32.1270   23.8080 O   0  0  0  0  0  0  0  0  0  0  0  0
  -22.6930  -29.4440   22.5500 C   0  0  0  0  0  0  0  0  0  0  0  0
  -21.3680  -29.2760   22.4160 N   0  0  0  0  0  0  0  0  0  0  0  0
  -23.3680  -28.8000   23.3570 O   0  0  0  0  0  0  0  0  0  0  0  0
  -20.8860  -29.8460   21.7350 H   0  0  0  0  0  0  0  0  0  0  0  0
  -17.9780  -28.1200   22.8890 C   0  0  0  0  0  0  0  0  0  0  0  0
  -20.5390  -28.3370   23.1700 C   0  0  0  0  0  3  0  0  0  0  0  0
  -20.6230  -26.9150   22.5700 C   0  0  0  0  0  2  0  0  0  0  0  0
  -19.5190  -26.6230   21.5500 C   0  0  0  0  0  2  0  0  0  0  0  0
  -18.1370  -26.7780   22.1930 C   0  0  0  0  0  2  0  0  0  0  0  0
  -19.1070  -28.8590   23.3330 C   0  0  0  0  0  0  0  0  0  0  0  0
  -18.9050  -30.1160   23.9420 C   0  0  0  0  0  3  0  0  0  0  0  0
  -17.6090  -30.6350   24.1110 C   0  0  0  0  0  3  0  0  0  0  0  0
  -16.4940  -29.8930   23.6850 C   0  0  0  0  0  3  0  0  0  0  0  0
  -16.6800  -28.6360   23.0790 C   0  0  0  0  0  3  0  0  0  0  0  0
  -25.8370  -32.4720   23.9110 C   0  0  0  0  0  3  0  0  0  0  0  0
  -26.3460  -31.6830   25.1790 C   0  0  1  0  0  0  0  0  0  0  0  0
  -25.2470  -31.4360   26.2380 C   0  0  0  0  0  1  0  0  0  0  0  0
  -26.9240  -30.3070   24.7700 C   0  0  0  0  0  1  0  0  0  0  0  0
  -27.4970  -32.4630   25.8550 C   0  0  0  0  0  1  0  0  0  0  0  0
  -25.5320  -33.8670   24.2530 N   0  0  0  0  0  0  0  0  0  0  0  0
  -25.8710  -34.9250   23.5050 C   0  0  0  0  0  0  0  0  0  0  0  0
  -26.5470  -34.8290   22.4760 O   0  0  0  0  0  0  0  0  0  0  0  0
  -24.9330  -34.0160   25.0510 H   0  0  0  0  0  0  0  0  0  0  0  0
  -24.1470  -36.7200   23.1560 C   0  0  0  0  0  1  0  0  0  0  0  0
  -25.3840  -36.3090   23.9710 C   0  0  0  0  0  3  0  0  0  0  0  0
  -27.5170  -37.1810   24.8150 C   0  0  0  0  0  1  0  0  0  0  0  0
  -26.4180  -37.3610   23.8710 N   0  0  0  0  0  0  0  0  0  0  0  0
  -26.0130  -38.2800   24.0270 H   0  0  0  0  0  0  0  0  0  0  0  0
  2  1  1  0
  2  4  1  0
  3  5  1  0
  4  3  2  0
  4  8  1  0
  5 10  1  0
  5  9  2  0
  6  9  1  0
  6  7  1  0
  8  6  2  0
 10 11  1  0
 11 21  1  0
 12 21  1  0
 13 18  1  0
 14 15  1  0
 14 13  1  0
 16 15  1  0
 16 25  1  0
 16 17  1  0
 18 12  1  0
 18 17  1  0
 19 12  2  0
 21 20  1  0
 22 23  2  0
 23 42  1  0
 24 23  1  0
 24 27  1  0
 25 22  1  0
 25 26  1  0
 26 24  2  0
 27 28  1  0
 28 29  2  0
 30 33  1  0
 30 29  1  0
 31 30  2  0
 32 31  1  0
 32 27  2  0
 33 34  1  0
 34 35  1  0
 35 36  2  0
 37 36  1  0
 37 41  1  0
 38 37  2  0
 39 34  2  0
 39 38  1  0
 40 39  1  0
 42 43  1  0
 43 46  1  0
 43 45  1  0
 44 42  2  0
 47 48  1  0
 47 22  1  0
 49 47  1  0
 50  1  1  0
 50 52  1  0
 52 53  1  1
 52 51  1  0
 54 52  1  0
 54 55  1  0
 56 55  1  0
 56 57  1  0
 57 59  1  0
 58 69  2  0
 59 64  1  0
 60 68  1  0
 60 70  1  0
 61 67  1  0
 61 63  1  0
 62 68  1  0
 63 62  1  0
 64 63  2  0
 65 66  1  0
 65 59  2  0
 66 61  2  0
 67 60  1  0
 68 58  1  0
 70 72  2  0
 71 70  1  0
 73 71  1  0
 74 83  2  0
 74 79  1  0
 75 71  1  0
 75 79  1  0
 76 75  1  0
 77 78  1  0
 77 76  1  0
 78 74  1  0
 79 80  2  0
 80 81  1  0
 82 81  2  0
 83 82  1  0
 84 58  1  0
 84 89  1  0
 84 85  1  0
 85 88  1  1
 85 86  1  0
 87 85  1  0
 89 92  1  0
 90 94  1  0
 90 89  1  0
 91 90  2  0
 94 93  1  0
 96 94  1  0
 96 97  1  0
 96 95  1  0
M  ISO  4  12 100  21 100  56 101  57 101
M  END
>  <TORSDO>  (62) 
F 25

>  <SCORE>  (62) 
-11.423

>  <name>  (62) 
63

>  <ligand_id>  (62) 
63

>  <original_smiles>  (62) 
[H]c1c(C([H])([H])C([H])([H])N(C(=O)N2C([H])([H])C([H])([H])C([H])([H])C([H])(n3nc(-c4c([H])c([H])c(Oc5c([H])c([H])c(F)c([H])c5F)c([H])c4[H])c(C(=O)N([H])[H])c3N([H])[H])C2([H])[H])C([H])([H])[H])nc(C([H])([H])[H])nc1C([H])([H])C([H])([H])C([H])([H])[N+]([H])(C([H])([H])[H])C([H])([H])C([H])([H])C([H])([H])Oc1c([H])c([H])c2c(c1[H])C([H])([H])N(C(=O)C([H])(N([H])C(=O)C([H])(N([H])C([H])([H])[H])C([H])([H])[H])C(C([H])([H])[H])(C([H])([H])[H])C([H])([H])[H])C([H])(C(=O)N([H])C1([H])c3c([H])c([H])c([H])c([H])c3C([H])([H])C([H])([H])C1([H])[H])C2([H])[H]

>  <smiles>  (62) 
[H]c1c(C([H])([H])C([H])([H])N(C(=O)N2C([H])([H])C([H])([H])C([H])([H])C([H])(n3nc(-c4c([H])c([H])c(Oc5c([H])c([H])c(F)c([H])c5F)c([H])c4[H])c(C(=O)N([H])[H])c3N([H])[H])C2([H])[H])C([H])([H])[H])nc(C([H])([H])[H])nc1C([H])([H])C([H])([H])C([H])([H])[N+]([H])(C([H])([H])[H])C([H])([H])C([H])([H])C([H])([H])Oc1c([H])c([H])c2c(c1[H])C([H])([H])N(C(=O)C([H])(N([H])C(=O)C([H])(N([H])C([H])([H])[H])C([H])([H])[H])C(C([H])([H])[H])(C([H])([H])[H])C([H])([H])[H])C([H])(C(=O)N([H])C1([H])c3c([H])c([H])c([H])c([H])c3C([H])([H])C([H])([H])C1([H])[H])C2([H])[H]

$$$$
64:0:0
     RDKit          3D

 93101  0  0  1  0  0  0  0  0999 V2000
  -29.9430  -21.3110   20.5290 C   0  0  0  0  0  3  0  0  0  0  0  0
  -28.4710  -21.6050   19.0070 C   0  0  0  0  0  3  0  0  0  0  0  0
  -29.5200  -20.0230   20.1250 C   0  0  0  0  0  0  0  0  0  0  0  0
  -28.5600  -20.2710   19.1390 N   0  0  0  0  0  0  0  0  0  0  0  0
  -29.3040  -22.3440   19.7650 N   0  0  0  0  0  0  0  0  0  0  0  0
  -28.4640  -18.0980   21.3670 C   0  0  0  0  0  1  0  0  0  0  0  0
  -30.8510  -18.6510   21.7920 C   0  0  0  0  0  1  0  0  0  0  0  0
  -29.7790  -18.5480   20.6940 C   0  0  2  0  0  0  0  0  0  0  0  0
  -30.2650  -17.3490   19.7050 C   0  0  0  0  0  2  0  0  0  0  0  0
  -30.9060  -14.7640   19.8030 C   0  0  0  0  0  0  0  0  0  0  0  0
  -30.6070  -12.5190   18.7500 C   0  0  0  0  0  2  0  0  0  0  0  0
  -29.5760  -12.6420   17.6060 C   0  0  0  0  0  2  0  0  0  0  0  0
  -28.1440  -12.4690   18.1480 C   0  0  0  0  0  2  0  0  0  0  0  0
  -27.8800  -13.3280   19.4130 C   0  0  0  0  0  3  0  0  0  0  0  0
  -29.0190  -13.1850   20.4460 C   0  0  0  0  0  2  0  0  0  0  0  0
  -30.2760  -13.5410   19.7720 N   0  0  0  0  0  0  0  0  0  0  0  0
  -32.0420  -14.8840   19.3320 O   0  0  0  0  0  0  0  0  0  0  0  0
  -30.1530  -15.8770   20.1430 N   0  0  0  0  0  0  0  0  0  0  0  0
  -29.2590  -15.6420   20.5470 H   0  0  0  0  0  0  0  0  0  0  0  0
  -25.5740  -13.9340   20.3620 C   0  0  0  0  0  0  0  0  0  0  0  0
  -24.5230  -13.1640   20.7840 C   0  0  0  0  0  0  0  0  0  0  0  0
  -24.9500  -11.8080   20.6510 C   0  0  0  0  0  0  0  0  0  0  0  0
  -26.5730  -13.0460   19.9980 N   0  0  0  0  0  0  0  0  0  0  0  0
  -26.2100  -11.7590   20.2340 N   0  0  0  0  0  0  0  0  0  0  0  0
  -24.2110  -10.5520   20.8420 C   0  0  0  0  0  0  0  0  0  0  0  0
  -24.6120   -9.5990   21.8040 C   0  0  0  0  0  3  0  0  0  0  0  0
  -23.8760   -8.4080   21.9820 C   0  0  0  0  0  3  0  0  0  0  0  0
  -22.7250   -8.1610   21.1970 C   0  0  0  0  0  0  0  0  0  0  0  0
  -22.3430   -9.1040   20.2250 C   0  0  0  0  0  3  0  0  0  0  0  0
  -23.0810  -10.2850   20.0460 C   0  0  0  0  0  3  0  0  0  0  0  0
  -21.9620   -7.0210   21.2820 O   0  0  0  0  0  0  0  0  0  0  0  0
  -21.7590   -6.3800   22.4770 C   0  0  0  0  0  0  0  0  0  0  0  0
  -21.1520   -7.0250   23.5770 C   0  0  0  0  0  3  0  0  0  0  0  0
  -20.8990   -6.3070   24.7630 C   0  0  0  0  0  3  0  0  0  0  0  0
  -21.2430   -4.9450   24.8490 C   0  0  0  0  0  0  0  0  0  0  0  0
  -21.8430   -4.2990   23.7540 C   0  0  0  0  0  3  0  0  0  0  0  0
  -22.0980   -5.0150   22.5710 C   0  0  0  0  0  0  0  0  0  0  0  0
  -22.6550   -4.3820   21.5110 F   0  0  0  0  0  0  0  0  0  0  0  0
  -20.9930   -4.2540   25.9860 F   0  0  0  0  0  0  0  0  0  0  0  0
  -23.1650  -13.6560   21.1920 C   0  0  0  0  0  0  0  0  0  0  0  0
  -22.4950  -12.9330   22.0830 N   0  0  0  0  0  0  0  0  0  0  0  0
  -22.7110  -14.7140   20.7580 O   0  0  0  0  0  0  0  0  0  0  0  0
  -22.8770  -12.0750   22.4530 H   0  0  0  0  0  0  0  0  0  0  0  0
  -21.5870  -13.2420   22.3990 H   0  0  0  0  0  0  0  0  0  0  0  0
  -25.7560  -15.3080   20.2340 N   0  0  0  0  0  0  0  0  0  0  0  0
  -25.0120  -15.9690   20.4270 H   0  0  0  0  0  0  0  0  0  0  0  0
  -26.5750  -15.7430   19.8300 H   0  0  0  0  0  0  0  0  0  0  0  0
  -29.6570  -24.1990   18.1660 C   0  0  0  0  0  1  0  0  0  0  0  0
  -29.5180  -23.8760   19.6720 C   0  0  2  0  0  0  0  0  0  0  0  0
  -32.1550  -23.7820   19.7290 C   0  0  0  0  0  1  0  0  0  0  0  0
  -30.8450  -24.2770   20.3800 C   0  0  0  0  0  2  0  0  0  0  0  0
  -28.3520  -24.8750   20.2120 C   0  0  0  0  0  2  0  0  0  0  0  0
  -28.4910  -26.3720   20.0470 O   0  0  0  0  0  0  0  0  0  0  0  0
  -24.6040  -31.6940   23.1420 C   0  0  0  0  0  0  0  0  0  0  0  0
  -27.3530  -27.2150   20.0350 C   0  0  0  0  0  0  0  0  0  0  0  0
  -23.4560  -30.3190   21.4450 C   0  0  0  0  0  3  0  0  0  0  0  0
  -24.9600  -28.8180   20.0140 C   0  0  0  0  0  0  0  0  0  0  0  0
  -25.9940  -30.6730   21.3190 C   0  0  0  0  0  2  0  0  0  0  0  0
  -26.1110  -29.3030   20.6480 C   0  0  0  0  0  0  0  0  0  0  0  0
  -27.3080  -28.5160   20.6440 C   0  0  0  0  0  3  0  0  0  0  0  0
  -26.1760  -26.7980   19.3730 C   0  0  0  0  0  3  0  0  0  0  0  0
  -24.9990  -27.5720   19.3650 C   0  0  0  0  0  3  0  0  0  0  0  0
  -23.7100  -29.6780   20.0540 C   0  0  0  0  0  2  0  0  0  0  0  0
  -24.7030  -30.9150   22.0250 N   0  0  0  0  0  0  0  0  0  0  0  0
  -23.5070  -31.9390   23.6650 O   0  0  0  0  0  0  0  0  0  0  0  0
  -22.7910  -29.2700   22.3660 C   0  0  0  0  0  0  0  0  0  0  0  0
  -21.4630  -29.1100   22.2420 N   0  0  0  0  0  0  0  0  0  0  0  0
  -23.4710  -28.6060   23.1550 O   0  0  0  0  0  0  0  0  0  0  0  0
  -20.9730  -29.6950   21.5800 H   0  0  0  0  0  0  0  0  0  0  0  0
  -18.0740  -27.9560   22.7660 C   0  0  0  0  0  0  0  0  0  0  0  0
  -20.6440  -28.1470   22.9810 C   0  0  0  0  0  3  0  0  0  0  0  0
  -20.7010  -26.7510   22.3200 C   0  0  0  0  0  2  0  0  0  0  0  0
  -19.5670  -26.5100   21.3190 C   0  0  0  0  0  2  0  0  0  0  0  0
  -18.2060  -26.6450   22.0080 C   0  0  0  0  0  2  0  0  0  0  0  0
  -19.2210  -28.6680   23.2090 C   0  0  0  0  0  0  0  0  0  0  0  0
  -19.0460  -29.8960   23.8830 C   0  0  0  0  0  3  0  0  0  0  0  0
  -17.7590  -30.4110   24.1210 C   0  0  0  0  0  3  0  0  0  0  0  0
  -16.6270  -29.6960   23.6940 C   0  0  0  0  0  3  0  0  0  0  0  0
  -16.7850  -28.4710   23.0200 C   0  0  0  0  0  3  0  0  0  0  0  0
  -25.8640  -32.3360   23.8040 C   0  0  0  0  0  3  0  0  0  0  0  0
  -25.5140  -33.7090   24.1940 N   0  0  0  0  0  0  0  0  0  0  0  0
  -25.8220  -34.8030   23.4840 C   0  0  0  0  0  0  0  0  0  0  0  0
  -26.4990  -34.7620   22.4540 O   0  0  0  0  0  0  0  0  0  0  0  0
  -24.9130  -33.8130   24.9980 H   0  0  0  0  0  0  0  0  0  0  0  0
  -24.0570  -36.5740   23.1900 C   0  0  0  0  0  1  0  0  0  0  0  0
  -25.2960  -36.1570   23.9980 C   0  0  0  0  0  3  0  0  0  0  0  0
  -27.3920  -37.0560   24.9090 C   0  0  0  0  0  1  0  0  0  0  0  0
  -26.3040  -37.2370   23.9510 N   0  0  0  0  0  0  0  0  0  0  0  0
  -25.8710  -38.1380   24.1330 H   0  0  0  0  0  0  0  0  0  0  0  0
  -26.3890  -31.5230   25.0510 C   0  0  1  0  0  0  0  0  0  0  0  0
  -25.2890  -31.2060   26.0910 C   0  0  0  0  0  1  0  0  0  0  0  0
  -27.0200  -30.1830   24.6070 C   0  0  0  0  0  1  0  0  0  0  0  0
  -27.5090  -32.3200   25.7620 C   0  0  0  0  0  1  0  0  0  0  0  0
  2  4  2  0
  2  5  1  0
  3  1  2  0
  3  8  1  0
  4  3  1  0
  5  1  1  0
  8  6  1  1
  8  7  1  0
  9 18  1  0
  9  8  1  0
 10 18  1  0
 11 16  1  0
 12 13  1  0
 12 11  1  0
 14 13  1  0
 14 23  1  0
 14 15  1  0
 16 10  1  0
 16 15  1  0
 17 10  2  0
 18 19  1  0
 20 21  2  0
 21 40  1  0
 22 21  1  0
 22 25  1  0
 23 24  1  0
 23 20  1  0
 24 22  2  0
 25 26  1  0
 26 27  2  0
 28 31  1  0
 28 27  1  0
 29 28  2  0
 30 29  1  0
 30 25  2  0
 31 32  1  0
 32 37  2  0
 32 33  1  0
 33 34  2  0
 34 35  1  0
 35 39  1  0
 36 35  2  0
 37 36  1  0
 38 37  1  0
 40 41  1  0
 41 44  1  0
 41 43  1  0
 42 40  2  0
 45 20  1  0
 45 46  1  0
 47 45  1  0
 49 48  1  6
 49  5  1  0
 49 52  1  0
 49 51  1  0
 50 51  1  0
 53 52  1  0
 54 65  2  0
 55 53  1  0
 55 60  1  0
 56 64  1  0
 56 66  1  0
 57 63  1  0
 57 59  1  0
 58 64  1  0
 59 58  1  0
 60 59  2  0
 61 55  2  0
 62 61  1  0
 62 57  2  0
 63 56  1  0
 64 54  1  0
 66 68  2  0
 67 66  1  0
 69 67  1  0
 70 79  2  0
 70 75  1  0
 71 67  1  0
 71 75  1  0
 72 71  1  0
 73 74  1  0
 73 72  1  0
 74 70  1  0
 75 76  2  0
 76 77  1  0
 78 77  2  0
 79 78  1  0
 80 54  1  0
 80 81  1  0
 80 90  1  0
 81 84  1  0
 82 86  1  0
 82 81  1  0
 83 82  2  0
 86 85  1  0
 88 86  1  0
 88 89  1  0
 88 87  1  0
 90 93  1  1
 90 91  1  0
 92 90  1  0
M  ISO  4  10 100  18 100  52 101  53 101
M  END
>  <TORSDO>  (63) 
F 21

>  <SCORE>  (63) 
-11.929

>  <name>  (63) 
64

>  <ligand_id>  (63) 
64

>  <original_smiles>  (63) 
[H]c1c([H])c([H])c2c(c1[H])C([H])([H])C([H])([H])C([H])([H])C2([H])N([H])C(=O)C1([H])N(C(=O)C([H])(N([H])C(=O)C([H])(N([H])C([H])([H])[H])C([H])([H])[H])C(C([H])([H])[H])(C([H])([H])[H])C([H])([H])[H])C([H])([H])c2c([H])c(OC([H])([H])C(n3c([H])nc(C(C([H])([H])[H])(C([H])([H])[H])C([H])([H])N([H])C(=O)N4C([H])([H])C([H])([H])C([H])([H])C([H])(n5nc(-c6c([H])c([H])c(Oc7c([H])c([H])c(F)c([H])c7F)c([H])c6[H])c(C(=O)N([H])[H])c5N([H])[H])C4([H])[H])c3[H])(C([H])([H])[H])C([H])([H])C([H])([H])[H])c([H])c([H])c2C1([H])[H]

>  <smiles>  (63) 
[H]c1c([H])c([H])c2c(c1[H])C([H])([H])C([H])([H])C([H])([H])C2([H])N([H])C(=O)C1([H])N(C(=O)C([H])(N([H])C(=O)C([H])(N([H])C([H])([H])[H])C([H])([H])[H])C(C([H])([H])[H])(C([H])([H])[H])C([H])([H])[H])C([H])([H])c2c([H])c(OC([H])([H])C(n3c([H])nc(C(C([H])([H])[H])(C([H])([H])[H])C([H])([H])N([H])C(=O)N4C([H])([H])C([H])([H])C([H])([H])C([H])(n5nc(-c6c([H])c([H])c(Oc7c([H])c([H])c(F)c([H])c7F)c([H])c6[H])c(C(=O)N([H])[H])c5N([H])[H])C4([H])[H])c3[H])(C([H])([H])[H])C([H])([H])C([H])([H])[H])c([H])c([H])c2C1([H])[H]

$$$$
65:0:0
     RDKit          3D

 88 96  0  0  1  0  0  0  0  0999 V2000
  -28.6860  -22.3540   19.6360 C   0  0  0  0  0  3  0  0  0  0  0  0
  -29.3050  -21.8400   21.6220 C   0  0  0  0  0  3  0  0  0  0  0  0
  -28.6060  -23.5360   20.3870 C   0  0  0  0  0  0  0  0  0  0  0  0
  -29.0240  -23.1630   21.6760 N   0  0  0  0  0  0  0  0  0  0  0  0
  -29.1130  -21.2540   20.4230 N   0  0  0  0  0  0  0  0  0  0  0  0
  -27.8470  -24.8650   19.9820 C   0  0  0  0  0  2  0  0  0  0  0  0
  -28.1900  -26.2840   20.3560 O   0  0  0  0  0  0  0  0  0  0  0  0
  -24.5920  -31.8810   23.2410 C   0  0  0  0  0  0  0  0  0  0  0  0
  -27.1430  -27.2400   20.2270 C   0  0  0  0  0  0  0  0  0  0  0  0
  -23.3790  -30.4880   21.6080 C   0  0  0  0  0  3  0  0  0  0  0  0
  -24.8120  -28.9330   20.1730 C   0  0  0  0  0  0  0  0  0  0  0  0
  -25.9210  -30.7770   21.4170 C   0  0  0  0  0  2  0  0  0  0  0  0
  -25.9870  -29.3870   20.7860 C   0  0  0  0  0  0  0  0  0  0  0  0
  -27.1510  -28.5520   20.8180 C   0  0  0  0  0  3  0  0  0  0  0  0
  -25.9570  -26.8920   19.5280 C   0  0  0  0  0  3  0  0  0  0  0  0
  -24.8050  -27.6930   19.5260 C   0  0  0  0  0  3  0  0  0  0  0  0
  -23.5820  -29.8180   20.2240 C   0  0  0  0  0  2  0  0  0  0  0  0
  -24.6520  -31.0670   22.1450 N   0  0  0  0  0  0  0  0  0  0  0  0
  -23.5100  -32.1630   23.7760 O   0  0  0  0  0  0  0  0  0  0  0  0
  -22.7150  -29.4730   22.5710 C   0  0  0  0  0  0  0  0  0  0  0  0
  -21.3880  -29.2950   22.4460 N   0  0  0  0  0  0  0  0  0  0  0  0
  -23.3910  -28.8460   23.3910 O   0  0  0  0  0  0  0  0  0  0  0  0
  -20.9010  -29.8580   21.7610 H   0  0  0  0  0  0  0  0  0  0  0  0
  -18.0110  -28.0910   22.9550 C   0  0  0  0  0  0  0  0  0  0  0  0
  -20.5680  -28.3660   23.2250 C   0  0  0  0  0  3  0  0  0  0  0  0
  -20.6770  -26.9280   22.6710 C   0  0  0  0  0  2  0  0  0  0  0  0
  -19.5770  -26.5830   21.6610 C   0  0  0  0  0  2  0  0  0  0  0  0
  -18.1920  -26.7360   22.2940 C   0  0  0  0  0  2  0  0  0  0  0  0
  -19.1260  -28.8630   23.3770 C   0  0  0  0  0  0  0  0  0  0  0  0
  -18.9000  -30.1320   23.9530 C   0  0  0  0  0  3  0  0  0  0  0  0
  -17.5920  -30.6290   24.1080 C   0  0  0  0  0  3  0  0  0  0  0  0
  -16.4920  -29.8580   23.6930 C   0  0  0  0  0  3  0  0  0  0  0  0
  -16.7030  -28.5900   23.1220 C   0  0  0  0  0  3  0  0  0  0  0  0
  -25.8780  -32.5110   23.8570 C   0  0  0  0  0  3  0  0  0  0  0  0
  -26.3960  -31.7360   25.1290 C   0  0  1  0  0  0  0  0  0  0  0  0
  -25.3080  -31.5100   26.2050 C   0  0  0  0  0  1  0  0  0  0  0  0
  -26.9690  -30.3590   24.7240 C   0  0  0  0  0  1  0  0  0  0  0  0
  -27.5550  -32.5250   25.7830 C   0  0  0  0  0  1  0  0  0  0  0  0
  -25.5750  -33.9100   24.1950 N   0  0  0  0  0  0  0  0  0  0  0  0
  -25.8940  -34.9640   23.4300 C   0  0  0  0  0  0  0  0  0  0  0  0
  -26.5450  -34.8610   22.3890 O   0  0  0  0  0  0  0  0  0  0  0  0
  -25.0140  -34.0660   25.0200 H   0  0  0  0  0  0  0  0  0  0  0  0
  -24.1570  -36.7490   23.0980 C   0  0  0  0  0  1  0  0  0  0  0  0
  -25.4090  -36.3510   23.8970 C   0  0  0  0  0  3  0  0  0  0  0  0
  -27.5550  -37.2310   24.6950 C   0  0  0  0  0  1  0  0  0  0  0  0
  -26.4360  -37.4060   23.7730 N   0  0  0  0  0  0  0  0  0  0  0  0
  -26.0310  -38.3240   23.9330 H   0  0  0  0  0  0  0  0  0  0  0  0
  -29.2650  -19.8170   19.9380 C   0  0  0  0  0  2  0  0  0  0  0  0
  -29.6900  -18.5660   20.8520 C   0  0  0  0  0  2  0  0  0  0  0  0
  -30.0340  -17.2070   20.0250 C   0  0  0  0  0  2  0  0  0  0  0  0
  -30.7570  -14.7110   20.0870 C   0  0  0  0  0  0  0  0  0  0  0  0
  -30.4200  -12.5100   18.9280 C   0  0  0  0  0  2  0  0  0  0  0  0
  -29.4080  -12.6600   17.7690 C   0  0  0  0  0  2  0  0  0  0  0  0
  -27.9640  -12.4900   18.2760 C   0  0  0  0  0  2  0  0  0  0  0  0
  -27.6910  -13.3250   19.5530 C   0  0  0  0  0  3  0  0  0  0  0  0
  -28.8050  -13.1280   20.5980 C   0  0  0  0  0  2  0  0  0  0  0  0
  -30.0810  -13.5110   19.9730 N   0  0  0  0  0  0  0  0  0  0  0  0
  -31.8400  -14.8520   19.5020 O   0  0  0  0  0  0  0  0  0  0  0  0
  -30.0570  -15.8680   22.1260 C   0  0  0  0  0  1  0  0  0  0  0  0
  -30.1260  -15.8170   20.6660 N   0  0  0  0  0  0  0  0  0  0  0  0
  -25.3600  -13.9420   20.4350 C   0  0  0  0  0  0  0  0  0  0  0  0
  -24.3050  -13.1770   20.8520 C   0  0  0  0  0  0  0  0  0  0  0  0
  -24.7420  -11.8190   20.7600 C   0  0  0  0  0  0  0  0  0  0  0  0
  -26.3700  -13.0510   20.1120 N   0  0  0  0  0  0  0  0  0  0  0  0
  -26.0090  -11.7680   20.3680 N   0  0  0  0  0  0  0  0  0  0  0  0
  -24.0050  -10.5640   20.9650 C   0  0  0  0  0  0  0  0  0  0  0  0
  -24.4650   -9.5810   21.8660 C   0  0  0  0  0  3  0  0  0  0  0  0
  -23.7310   -8.3900   22.0600 C   0  0  0  0  0  3  0  0  0  0  0  0
  -22.5240   -8.1770   21.3520 C   0  0  0  0  0  0  0  0  0  0  0  0
  -22.0850   -9.1490   20.4370 C   0  0  0  0  0  3  0  0  0  0  0  0
  -22.8180  -10.3320   20.2420 C   0  0  0  0  0  3  0  0  0  0  0  0
  -21.7600   -7.0410   21.4560 O   0  0  0  0  0  0  0  0  0  0  0  0
  -21.7250   -6.3000   22.6100 C   0  0  0  0  0  0  0  0  0  0  0  0
  -21.3490   -6.8670   23.8490 C   0  0  0  0  0  3  0  0  0  0  0  0
  -21.2620   -6.0540   24.9960 C   0  0  0  0  0  3  0  0  0  0  0  0
  -21.5370   -4.6760   24.9070 C   0  0  0  0  0  0  0  0  0  0  0  0
  -21.9080   -4.1100   23.6750 C   0  0  0  0  0  3  0  0  0  0  0  0
  -21.9980   -4.9200   22.5290 C   0  0  0  0  0  0  0  0  0  0  0  0
  -22.3330   -4.3660   21.3380 F   0  0  0  0  0  0  0  0  0  0  0  0
  -21.4440   -3.8930   26.0060 F   0  0  0  0  0  0  0  0  0  0  0  0
  -22.9360  -13.6700   21.2230 C   0  0  0  0  0  0  0  0  0  0  0  0
  -22.2560  -12.9660   22.1230 N   0  0  0  0  0  0  0  0  0  0  0  0
  -22.4820  -14.7110   20.7520 O   0  0  0  0  0  0  0  0  0  0  0  0
  -22.6390  -12.1190   22.5180 H   0  0  0  0  0  0  0  0  0  0  0  0
  -21.3410  -13.2720   22.4170 H   0  0  0  0  0  0  0  0  0  0  0  0
  -25.5390  -15.3140   20.2800 N   0  0  0  0  0  0  0  0  0  0  0  0
  -24.7940  -15.9790   20.4590 H   0  0  0  0  0  0  0  0  0  0  0  0
  -26.3780  -15.7450   19.9160 H   0  0  0  0  0  0  0  0  0  0  0  0
  1  3  2  0
  1  5  1  0
  2  4  2  0
  3  4  1  0
  5  2  1  0
  6  7  1  0
  6  3  1  0
  8 19  2  0
  9  7  1  0
  9 14  1  0
 10 18  1  0
 10 20  1  0
 11 17  1  0
 11 13  1  0
 12 18  1  0
 13 14  2  0
 13 12  1  0
 15  9  2  0
 16 15  1  0
 16 11  2  0
 17 10  1  0
 18  8  1  0
 20 22  2  0
 21 20  1  0
 23 21  1  0
 24 33  2  0
 24 29  1  0
 25 21  1  0
 25 29  1  0
 26 25  1  0
 27 28  1  0
 27 26  1  0
 28 24  1  0
 29 30  2  0
 30 31  1  0
 32 31  2  0
 33 32  1  0
 34  8  1  0
 34 39  1  0
 34 35  1  0
 35 38  1  1
 35 36  1  0
 37 35  1  0
 39 42  1  0
 40 44  1  0
 40 39  1  0
 41 40  2  0
 44 43  1  0
 46 44  1  0
 46 47  1  0
 46 45  1  0
 48  5  1  0
 48 49  1  0
 50 60  1  0
 50 49  1  0
 51 60  1  0
 52 57  1  0
 53 54  1  0
 53 52  1  0
 55 54  1  0
 55 64  1  0
 55 56  1  0
 57 51  1  0
 57 56  1  0
 58 51  2  0
 60 59  1  0
 61 62  2  0
 62 81  1  0
 63 62  1  0
 63 66  1  0
 64 65  1  0
 64 61  1  0
 65 63  2  0
 66 67  1  0
 67 68  2  0
 69 72  1  0
 69 68  1  0
 70 69  2  0
 71 70  1  0
 71 66  2  0
 72 73  1  0
 73 74  1  0
 74 75  2  0
 76 75  1  0
 76 80  1  0
 77 76  2  0
 78 73  2  0
 78 77  1  0
 79 78  1  0
 81 82  1  0
 82 85  1  0
 82 84  1  0
 83 81  2  0
 86 61  1  0
 86 87  1  0
 88 86  1  0
M  ISO  4   6 101   7 101  51 100  60 100
M  END
>  <TORSDO>  (64) 
F 20

>  <SCORE>  (64) 
-13.212

>  <name>  (64) 
65

>  <ligand_id>  (64) 
65

>  <original_smiles>  (64) 
[H]c1c([H])c([H])c2c(c1[H])C([H])([H])C([H])([H])C([H])([H])C2([H])N([H])C(=O)C1([H])N(C(=O)C([H])(N([H])C(=O)C([H])(N([H])C([H])([H])[H])C([H])([H])[H])C(C([H])([H])[H])(C([H])([H])[H])C([H])([H])[H])C([H])([H])c2c([H])c(OC([H])([H])c3nc([H])n(C([H])([H])C([H])([H])C([H])([H])N(C(=O)N4C([H])([H])C([H])([H])C([H])([H])C([H])(n5nc(-c6c([H])c([H])c(Oc7c([H])c([H])c(F)c([H])c7F)c([H])c6[H])c(C(=O)N([H])[H])c5N([H])[H])C4([H])[H])C([H])([H])[H])c3[H])c([H])c([H])c2C1([H])[H]

>  <smiles>  (64) 
[H]c1c([H])c([H])c2c(c1[H])C([H])([H])C([H])([H])C([H])([H])C2([H])N([H])C(=O)C1([H])N(C(=O)C([H])(N([H])C(=O)C([H])(N([H])C([H])([H])[H])C([H])([H])[H])C(C([H])([H])[H])(C([H])([H])[H])C([H])([H])[H])C([H])([H])c2c([H])c(OC([H])([H])c3nc([H])n(C([H])([H])C([H])([H])C([H])([H])N(C(=O)N4C([H])([H])C([H])([H])C([H])([H])C([H])(n5nc(-c6c([H])c([H])c(Oc7c([H])c([H])c(F)c([H])c7F)c([H])c6[H])c(C(=O)N([H])[H])c5N([H])[H])C4([H])[H])C([H])([H])[H])c3[H])c([H])c([H])c2C1([H])[H]

$$$$
66:0:0
     RDKit          3D

 88 96  0  0  1  0  0  0  0  0999 V2000
  -28.8510  -20.4710   20.9710 C   0  0  0  0  0  3  0  0  0  0  0  0
  -29.9230  -20.9040   19.0350 C   0  0  0  0  0  3  0  0  0  0  0  0
  -29.6350  -19.8050   19.9420 C   0  0  0  0  0  0  0  0  0  0  0  0
  -28.7790  -22.8140   20.0980 C   0  0  0  0  0  0  0  0  0  0  0  0
  -28.4470  -21.8380   21.0180 N   0  0  0  0  0  0  0  0  0  0  0  0
  -29.5230  -22.2610   19.0980 N   0  0  0  0  0  0  0  0  0  0  0  0
  -30.3360  -18.2080   19.7500 C   0  0  0  0  0  2  0  0  0  0  0  0
  -30.6780  -15.3470   19.6870 C   0  0  0  0  0  0  0  0  0  0  0  0
  -30.5130  -12.9900   18.5870 C   0  0  0  0  0  2  0  0  0  0  0  0
  -29.4190  -12.8970   17.4910 C   0  0  0  0  0  2  0  0  0  0  0  0
  -28.0230  -12.6270   18.0860 C   0  0  0  0  0  2  0  0  0  0  0  0
  -27.7780  -13.4440   19.3810 C   0  0  0  0  0  3  0  0  0  0  0  0
  -28.9920  -13.4100   20.3380 C   0  0  0  0  0  2  0  0  0  0  0  0
  -30.1050  -14.0340   19.6040 N   0  0  0  0  0  0  0  0  0  0  0  0
  -31.8040  -15.3860   19.1680 O   0  0  0  0  0  0  0  0  0  0  0  0
  -29.9930  -16.6200   20.0880 N   0  0  0  0  0  0  0  0  0  0  0  0
  -25.5580  -13.9330   20.5340 C   0  0  0  0  0  0  0  0  0  0  0  0
  -24.5520  -13.1300   20.9920 C   0  0  0  0  0  0  0  0  0  0  0  0
  -24.9780  -11.7870   20.7530 C   0  0  0  0  0  0  0  0  0  0  0  0
  -26.5320  -13.0830   20.0420 N   0  0  0  0  0  0  0  0  0  0  0  0
  -26.2020  -11.7780   20.2330 N   0  0  0  0  0  0  0  0  0  0  0  0
  -24.2610  -10.5180   20.9280 C   0  0  0  0  0  0  0  0  0  0  0  0
  -24.7070   -9.5330   21.8350 C   0  0  0  0  0  3  0  0  0  0  0  0
  -23.9840   -8.3320   22.0030 C   0  0  0  0  0  3  0  0  0  0  0  0
  -22.8020   -8.1020   21.2590 C   0  0  0  0  0  0  0  0  0  0  0  0
  -22.3750   -9.0760   20.3370 C   0  0  0  0  0  3  0  0  0  0  0  0
  -23.1000  -10.2680   20.1680 C   0  0  0  0  0  3  0  0  0  0  0  0
  -22.0490   -6.9550   21.3380 O   0  0  0  0  0  0  0  0  0  0  0  0
  -21.8620   -6.2960   22.5280 C   0  0  0  0  0  0  0  0  0  0  0  0
  -21.2820   -6.9330   23.6460 C   0  0  0  0  0  3  0  0  0  0  0  0
  -21.0430   -6.2000   24.8260 C   0  0  0  0  0  3  0  0  0  0  0  0
  -21.3710   -4.8320   24.8850 C   0  0  0  0  0  0  0  0  0  0  0  0
  -21.9430   -4.1960   23.7710 C   0  0  0  0  0  3  0  0  0  0  0  0
  -22.1860   -4.9250   22.5940 C   0  0  0  0  0  0  0  0  0  0  0  0
  -22.7180   -4.3040   21.5140 F   0  0  0  0  0  0  0  0  0  0  0  0
  -21.1340   -4.1260   26.0160 F   0  0  0  0  0  0  0  0  0  0  0  0
  -23.2240  -13.5860   21.5200 C   0  0  0  0  0  0  0  0  0  0  0  0
  -22.6380  -12.8410   22.4490 N   0  0  0  0  0  0  0  0  0  0  0  0
  -22.7190  -14.6420   21.1420 O   0  0  0  0  0  0  0  0  0  0  0  0
  -23.0620  -11.9870   22.7810 H   0  0  0  0  0  0  0  0  0  0  0  0
  -21.7450  -13.1280   22.8250 H   0  0  0  0  0  0  0  0  0  0  0  0
  -25.7160  -15.3130   20.4770 N   0  0  0  0  0  0  0  0  0  0  0  0
  -24.9870  -15.9500   20.7770 H   0  0  0  0  0  0  0  0  0  0  0  0
  -26.5000  -15.7860   20.0510 H   0  0  0  0  0  0  0  0  0  0  0  0
  -29.5500  -16.6730   22.5680 C   0  0  0  0  0  1  0  0  0  0  0  0
  -28.9610  -16.6410   21.1390 C   0  0  0  0  0  2  0  0  0  0  0  0
  -27.9440  -24.3450   19.9520 C   0  0  0  0  0  2  0  0  0  0  0  0
  -28.2970  -25.9320   20.1380 O   0  0  0  0  0  0  0  0  0  0  0  0
  -24.6930  -31.8210   23.1120 C   0  0  0  0  0  0  0  0  0  0  0  0
  -27.2890  -27.0220   20.0530 C   0  0  0  0  0  0  0  0  0  0  0  0
  -23.5040  -30.4320   21.4560 C   0  0  0  0  0  3  0  0  0  0  0  0
  -24.9690  -28.8630   20.0130 C   0  0  0  0  0  0  0  0  0  0  0  0
  -26.0620  -30.6820   21.3010 C   0  0  0  0  0  2  0  0  0  0  0  0
  -26.1500  -29.2780   20.6390 C   0  0  0  0  0  0  0  0  0  0  0  0
  -27.3030  -28.3760   20.6440 C   0  0  0  0  0  3  0  0  0  0  0  0
  -26.0830  -26.7610   19.3630 C   0  0  0  0  0  3  0  0  0  0  0  0
  -24.9620  -27.6280   19.3490 C   0  0  0  0  0  3  0  0  0  0  0  0
  -23.7370  -29.7640   20.0700 C   0  0  0  0  0  2  0  0  0  0  0  0
  -24.7740  -31.0030   22.0120 N   0  0  0  0  0  0  0  0  0  0  0  0
  -23.6040  -32.0920   23.6440 O   0  0  0  0  0  0  0  0  0  0  0  0
  -22.8230  -29.4220   22.4140 C   0  0  0  0  0  0  0  0  0  0  0  0
  -21.5000  -29.2250   22.2760 N   0  0  0  0  0  0  0  0  0  0  0  0
  -23.4950  -28.8140   23.2510 O   0  0  0  0  0  0  0  0  0  0  0  0
  -21.0100  -29.7650   21.5770 H   0  0  0  0  0  0  0  0  0  0  0  0
  -18.1470  -27.9130   22.7300 C   0  0  0  0  0  0  0  0  0  0  0  0
  -20.6920  -28.2680   23.0400 C   0  0  0  0  0  3  0  0  0  0  0  0
  -20.8510  -26.8350   22.4820 C   0  0  0  0  0  2  0  0  0  0  0  0
  -19.7820  -26.4650   21.4490 C   0  0  0  0  0  2  0  0  0  0  0  0
  -18.3850  -26.5680   22.0660 C   0  0  0  0  0  2  0  0  0  0  0  0
  -19.2310  -28.7180   23.1740 C   0  0  0  0  0  0  0  0  0  0  0  0
  -18.9570  -29.9730   23.7610 C   0  0  0  0  0  3  0  0  0  0  0  0
  -17.6330  -30.4280   23.8990 C   0  0  0  0  0  3  0  0  0  0  0  0
  -16.5640  -29.6220   23.4720 C   0  0  0  0  0  3  0  0  0  0  0  0
  -16.8210  -28.3640   22.8960 C   0  0  0  0  0  3  0  0  0  0  0  0
  -25.9620  -32.4660   23.7440 C   0  0  0  0  0  3  0  0  0  0  0  0
  -26.5060  -31.6710   24.9970 C   0  0  1  0  0  0  0  0  0  0  0  0
  -25.4210  -31.3640   26.0570 C   0  0  0  0  0  1  0  0  0  0  0  0
  -27.1310  -30.3250   24.5670 C   0  0  0  0  0  1  0  0  0  0  0  0
  -27.6350  -32.4770   25.6860 C   0  0  0  0  0  1  0  0  0  0  0  0
  -25.6260  -33.8490   24.1270 N   0  0  0  0  0  0  0  0  0  0  0  0
  -25.9070  -34.9350   23.3950 C   0  0  0  0  0  0  0  0  0  0  0  0
  -26.5390  -34.8820   22.3380 O   0  0  0  0  0  0  0  0  0  0  0  0
  -25.0490  -33.9620   24.9490 H   0  0  0  0  0  0  0  0  0  0  0  0
  -24.1190  -36.6970   23.1900 C   0  0  0  0  0  1  0  0  0  0  0  0
  -25.4130  -36.2990   23.9170 C   0  0  0  0  0  3  0  0  0  0  0  0
  -27.5650  -37.2260   24.6590 C   0  0  0  0  0  1  0  0  0  0  0  0
  -26.4090  -37.3830   23.7800 N   0  0  0  0  0  0  0  0  0  0  0  0
  -25.9860  -38.2880   23.9700 H   0  0  0  0  0  0  0  0  0  0  0  0
  1  5  1  0
  2  6  2  0
  2  3  1  0
  3  1  2  0
  4  5  2  0
  6  4  1  0
  7  3  1  0
  7 16  1  0
  8 16  1  0
  9 14  1  0
 10 11  1  0
 10  9  1  0
 12 11  1  0
 12 20  1  0
 12 13  1  0
 14  8  1  0
 14 13  1  0
 15  8  2  0
 16 46  1  0
 17 18  2  0
 18 37  1  0
 19 22  1  0
 19 18  1  0
 20 21  1  0
 20 17  1  0
 21 19  2  0
 22 23  1  0
 23 24  2  0
 25 28  1  0
 25 24  1  0
 26 25  2  0
 27 26  1  0
 27 22  2  0
 28 29  1  0
 29 34  2  0
 29 30  1  0
 30 31  2  0
 31 32  1  0
 32 36  1  0
 33 32  2  0
 34 33  1  0
 35 34  1  0
 37 38  1  0
 38 40  1  0
 38 41  1  0
 39 37  2  0
 42 17  1  0
 42 43  1  0
 44 42  1  0
 46 45  1  0
 47  4  1  0
 47 48  1  0
 49 60  2  0
 50 48  1  0
 50 55  1  0
 51 59  1  0
 51 61  1  0
 52 58  1  0
 52 54  1  0
 53 59  1  0
 54 55  2  0
 54 53  1  0
 56 50  2  0
 57 56  1  0
 57 52  2  0
 58 51  1  0
 59 49  1  0
 61 63  2  0
 62 61  1  0
 64 62  1  0
 65 74  2  0
 65 70  1  0
 66 62  1  0
 66 70  1  0
 67 66  1  0
 68 69  1  0
 68 67  1  0
 69 65  1  0
 70 71  2  0
 71 72  1  0
 73 72  2  0
 74 73  1  0
 75 49  1  0
 75 80  1  0
 75 76  1  0
 76 79  1  1
 76 77  1  0
 78 76  1  0
 80 83  1  0
 81 85  1  0
 81 80  1  0
 82 81  2  0
 85 84  1  0
 87 85  1  0
 87 88  1  0
 87 86  1  0
M  ISO  4   8 100  16 100  47 101  48 101
M  END
>  <TORSDO>  (65) 
F 19

>  <SCORE>  (65) 
-12.594

>  <name>  (65) 
66

>  <ligand_id>  (65) 
66

>  <original_smiles>  (65) 
[H]c1nc(C([H])([H])Oc2c([H])c([H])c3c(c2[H])C([H])([H])N(C(=O)C([H])(N([H])C(=O)C([H])(N([H])C([H])([H])[H])C([H])([H])[H])C(C([H])([H])[H])(C([H])([H])[H])C([H])([H])[H])C([H])(C(=O)N([H])C2([H])c4c([H])c([H])c([H])c([H])c4C([H])([H])C([H])([H])C2([H])[H])C3([H])[H])nc([H])c1C([H])([H])N(C(=O)N1C([H])([H])C([H])([H])C([H])([H])C([H])(n2nc(-c3c([H])c([H])c(Oc4c([H])c([H])c(F)c([H])c4F)c([H])c3[H])c(C(=O)N([H])[H])c2N([H])[H])C1([H])[H])C([H])([H])C([H])([H])[H]

>  <smiles>  (65) 
[H]c1nc(C([H])([H])Oc2c([H])c([H])c3c(c2[H])C([H])([H])N(C(=O)C([H])(N([H])C(=O)C([H])(N([H])C([H])([H])[H])C([H])([H])[H])C(C([H])([H])[H])(C([H])([H])[H])C([H])([H])[H])C([H])(C(=O)N([H])C2([H])c4c([H])c([H])c([H])c([H])c4C([H])([H])C([H])([H])C2([H])[H])C3([H])[H])nc([H])c1C([H])([H])N(C(=O)N1C([H])([H])C([H])([H])C([H])([H])C([H])(n2nc(-c3c([H])c([H])c(Oc4c([H])c([H])c(F)c([H])c4F)c([H])c3[H])c(C(=O)N([H])[H])c2N([H])[H])C1([H])[H])C([H])([H])C([H])([H])[H]

$$$$
67:0:0
     RDKit          3D

 91 99  0  0  1  0  0  0  0  0999 V2000
  -28.4440  -17.4490   20.0320 C   0  0  0  0  0  3  0  0  0  0  0  0
  -27.1770  -18.0140   20.0600 C   0  0  0  0  0  3  0  0  0  0  0  0
  -29.5560  -18.1050   19.4510 C   0  0  0  0  0  0  0  0  0  0  0  0
  -29.2670  -19.4090   18.7770 C   0  0  0  0  0  0  0  0  0  0  0  0
  -27.9060  -19.8520   18.8750 C   0  0  0  0  0  0  0  0  0  0  0  0
  -27.3640  -21.1050   18.2270 C   0  0  0  0  0  1  0  0  0  0  0  0
  -26.9190  -19.1980   19.5100 N   0  0  0  0  0  0  0  0  0  0  0  0
  -30.2280  -20.2950   17.8430 C   0  0  0  0  0  2  0  0  0  0  0  0
  -30.5960  -21.9030   18.0210 C   0  0  0  0  0  2  0  0  0  0  0  0
  -29.5920  -23.2000   17.8850 C   0  0  0  0  0  2  0  0  0  0  0  0
  -30.0880  -24.7240   17.5840 C   0  0  0  0  0  2  0  0  0  0  0  0
  -30.0320  -25.9080   18.5130 O   0  0  0  0  0  0  0  0  0  0  0  0
  -26.2110  -29.3930   23.5730 C   0  0  0  0  0  0  0  0  0  0  0  0
  -28.8980  -26.7050   18.7930 C   0  0  0  0  0  0  0  0  0  0  0  0
  -25.0360  -28.8830   21.4610 C   0  0  0  0  0  3  0  0  0  0  0  0
  -26.5150  -28.1560   19.4940 C   0  0  0  0  0  0  0  0  0  0  0  0
  -27.5720  -29.2610   21.4680 C   0  0  0  0  0  2  0  0  0  0  0  0
  -27.6720  -28.3240   20.2630 C   0  0  0  0  0  0  0  0  0  0  0  0
  -28.8600  -27.6100   19.9080 C   0  0  0  0  0  3  0  0  0  0  0  0
  -27.7170  -26.6020   18.0270 C   0  0  0  0  0  3  0  0  0  0  0  0
  -26.5430  -27.3090   18.3720 C   0  0  0  0  0  3  0  0  0  0  0  0
  -25.2670  -28.9050   19.9260 C   0  0  0  0  0  2  0  0  0  0  0  0
  -26.2910  -29.1710   22.2270 N   0  0  0  0  0  0  0  0  0  0  0  0
  -25.1220  -29.3880   24.1640 O   0  0  0  0  0  0  0  0  0  0  0  0
  -24.3770  -27.5370   21.8520 C   0  0  0  0  0  0  0  0  0  0  0  0
  -23.0650  -27.4050   21.5930 N   0  0  0  0  0  0  0  0  0  0  0  0
  -25.0480  -26.6320   22.3550 O   0  0  0  0  0  0  0  0  0  0  0  0
  -22.5800  -28.1950   21.1900 H   0  0  0  0  0  0  0  0  0  0  0  0
  -19.7490  -25.9990   21.2430 C   0  0  0  0  0  0  0  0  0  0  0  0
  -22.2570  -26.2070   21.8350 C   0  0  0  0  0  3  0  0  0  0  0  0
  -22.4980  -25.1430   20.7390 C   0  0  0  0  0  2  0  0  0  0  0  0
  -21.4970  -25.2310   19.5830 C   0  0  0  0  0  2  0  0  0  0  0  0
  -20.0660  -25.0540   20.0960 C   0  0  0  0  0  2  0  0  0  0  0  0
  -20.7790  -26.5530   22.0500 C   0  0  0  0  0  0  0  0  0  0  0  0
  -20.4320  -27.4520   23.0810 C   0  0  0  0  0  3  0  0  0  0  0  0
  -19.0870  -27.7970   23.3140 C   0  0  0  0  0  3  0  0  0  0  0  0
  -18.0710  -27.2340   22.5220 C   0  0  0  0  0  3  0  0  0  0  0  0
  -18.4020  -26.3340   21.4940 C   0  0  0  0  0  3  0  0  0  0  0  0
  -27.4810  -29.6860   24.4310 C   0  0  0  0  0  3  0  0  0  0  0  0
  -27.1440  -30.7620   25.3750 N   0  0  0  0  0  0  0  0  0  0  0  0
  -27.5300  -32.0390   25.2460 C   0  0  0  0  0  0  0  0  0  0  0  0
  -28.2740  -32.4240   24.3400 O   0  0  0  0  0  0  0  0  0  0  0  0
  -26.4940  -30.5300   26.1130 H   0  0  0  0  0  0  0  0  0  0  0  0
  -25.8600  -33.8700   25.6780 C   0  0  0  0  0  1  0  0  0  0  0  0
  -27.0090  -33.0500   26.2870 C   0  0  0  0  0  3  0  0  0  0  0  0
  -29.0490  -33.2920   27.6300 C   0  0  0  0  0  1  0  0  0  0  0  0
  -28.0540  -33.9630   26.7960 N   0  0  0  0  0  0  0  0  0  0  0  0
  -27.6420  -34.7160   27.3390 H   0  0  0  0  0  0  0  0  0  0  0  0
  -28.0130  -28.4190   25.2070 C   0  0  1  0  0  0  0  0  0  0  0  0
  -26.9260  -27.6960   26.0360 C   0  0  0  0  0  1  0  0  0  0  0  0
  -28.6170  -27.3890   24.2250 C   0  0  0  0  0  1  0  0  0  0  0  0
  -29.1520  -28.8310   26.1690 C   0  0  0  0  0  1  0  0  0  0  0  0
  -30.8920  -17.2410   19.6450 C   0  0  0  0  0  2  0  0  0  0  0  0
  -31.6350  -14.9710   20.8250 C   0  0  0  0  0  0  0  0  0  0  0  0
  -31.5290  -12.4620   20.7980 C   0  0  0  0  0  2  0  0  0  0  0  0
  -30.8690  -11.9750   19.4890 C   0  0  0  0  0  2  0  0  0  0  0  0
  -29.3380  -11.9310   19.6400 C   0  0  0  0  0  2  0  0  0  0  0  0
  -28.7670  -13.2260   20.2750 C   0  0  0  0  0  3  0  0  0  0  0  0
  -29.5630  -13.6530   21.5270 C   0  0  0  0  0  2  0  0  0  0  0  0
  -30.9700  -13.7980   21.1300 N   0  0  0  0  0  0  0  0  0  0  0  0
  -32.8350  -14.9240   20.5330 O   0  0  0  0  0  0  0  0  0  0  0  0
  -31.0010  -16.8570   22.1000 C   0  0  0  0  0  1  0  0  0  0  0  0
  -30.9470  -16.1860   20.7900 N   0  0  0  0  0  0  0  0  0  0  0  0
  -26.3860  -14.1120   20.6350 C   0  0  0  0  0  0  0  0  0  0  0  0
  -25.1890  -13.4790   20.8330 C   0  0  0  0  0  0  0  0  0  0  0  0
  -25.4810  -12.0800   20.8540 C   0  0  0  0  0  0  0  0  0  0  0  0
  -27.3380  -13.1100   20.5510 N   0  0  0  0  0  0  0  0  0  0  0  0
  -26.7890  -11.8810   20.7430 N   0  0  0  0  0  0  0  0  0  0  0  0
  -24.5820  -10.9210   20.9150 C   0  0  0  0  0  0  0  0  0  0  0  0
  -24.7730   -9.8850   21.8570 C   0  0  0  0  0  3  0  0  0  0  0  0
  -23.8830   -8.7910   21.9070 C   0  0  0  0  0  3  0  0  0  0  0  0
  -22.7870   -8.7250   21.0150 C   0  0  0  0  0  0  0  0  0  0  0  0
  -22.6150   -9.7460   20.0640 C   0  0  0  0  0  3  0  0  0  0  0  0
  -23.5050  -10.8320   20.0110 C   0  0  0  0  0  3  0  0  0  0  0  0
  -21.8860   -7.6880   20.9750 O   0  0  0  0  0  0  0  0  0  0  0  0
  -21.6170   -6.9260   22.0830 C   0  0  0  0  0  0  0  0  0  0  0  0
  -21.1240   -7.4940   23.2770 C   0  0  0  0  0  3  0  0  0  0  0  0
  -20.7960   -6.6650   24.3690 C   0  0  0  0  0  3  0  0  0  0  0  0
  -20.9510   -5.2690   24.2660 C   0  0  0  0  0  0  0  0  0  0  0  0
  -21.4360   -4.7000   23.0750 C   0  0  0  0  0  3  0  0  0  0  0  0
  -21.7660   -5.5270   21.9850 C   0  0  0  0  0  0  0  0  0  0  0  0
  -22.2130   -4.9720   20.8330 F   0  0  0  0  0  0  0  0  0  0  0  0
  -20.6270   -4.4720   25.3100 F   0  0  0  0  0  0  0  0  0  0  0  0
  -23.8390  -14.1300   20.8980 C   0  0  0  0  0  0  0  0  0  0  0  0
  -22.9140  -13.5470   21.6540 N   0  0  0  0  0  0  0  0  0  0  0  0
  -23.6110  -15.1900   20.3160 O   0  0  0  0  0  0  0  0  0  0  0  0
  -23.1070  -12.6900   22.1480 H   0  0  0  0  0  0  0  0  0  0  0  0
  -21.9990  -13.9680   21.7400 H   0  0  0  0  0  0  0  0  0  0  0  0
  -26.7390  -15.4500   20.4960 N   0  0  0  0  0  0  0  0  0  0  0  0
  -26.0460  -16.1880   20.4810 H   0  0  0  0  0  0  0  0  0  0  0  0
  -27.6770  -15.7850   20.3200 H   0  0  0  0  0  0  0  0  0  0  0  0
  1  2  1  0
  3 53  1  0
  3  1  2  0
  4  5  2  0
  4  3  1  0
  5  7  1  0
  6  5  1  0
  7  2  2  0
  8  9  1  0
  8  4  1  0
 10  9  1  0
 11 10  1  0
 11 12  1  0
 12 14  1  0
 13 24  2  0
 14 19  1  0
 15 25  1  0
 15 23  1  0
 16 22  1  0
 16 18  1  0
 17 23  1  0
 18 17  1  0
 19 18  2  0
 20 21  1  0
 20 14  2  0
 21 16  2  0
 22 15  1  0
 23 13  1  0
 25 27  2  0
 26 25  1  0
 28 26  1  0
 29 38  2  0
 29 34  1  0
 30 26  1  0
 30 34  1  0
 31 30  1  0
 32 33  1  0
 32 31  1  0
 33 29  1  0
 34 35  2  0
 35 36  1  0
 37 36  2  0
 38 37  1  0
 39 13  1  0
 39 49  1  0
 39 40  1  0
 40 43  1  0
 41 40  1  0
 41 45  1  0
 42 41  2  0
 45 44  1  0
 45 47  1  0
 47 48  1  0
 47 46  1  0
 49 50  1  1
 49 52  1  0
 51 49  1  0
 53 63  1  0
 54 60  1  0
 55 60  1  0
 56 57  1  0
 56 55  1  0
 58 57  1  0
 58 67  1  0
 58 59  1  0
 60 59  1  0
 61 54  2  0
 63 54  1  0
 63 62  1  0
 64 65  2  0
 65 66  1  0
 65 84  1  0
 66 69  1  0
 67 64  1  0
 67 68  1  0
 68 66  2  0
 69 70  1  0
 70 71  2  0
 72 71  1  0
 73 72  2  0
 74 73  1  0
 74 69  2  0
 75 72  1  0
 75 76  1  0
 76 77  1  0
 77 78  2  0
 79 78  1  0
 79 83  1  0
 80 79  2  0
 81 76  2  0
 81 80  1  0
 82 81  1  0
 84 85  1  0
 85 88  1  0
 85 87  1  0
 86 84  2  0
 89 64  1  0
 90 89  1  0
 91 89  1  0
M  ISO  4  11 101  12 101  54 100  63 100
M  END
>  <TORSDO>  (66) 
F 21

>  <SCORE>  (66) 
-8.956

>  <name>  (66) 
67

>  <ligand_id>  (66) 
67

>  <original_smiles>  (66) 
[H]c1nc(C([H])([H])[H])c(C([H])([H])C([H])([H])C([H])([H])C([H])([H])Oc2c([H])c([H])c3c(c2[H])C([H])([H])N(C(=O)C([H])(N([H])C(=O)C([H])(N([H])C([H])([H])[H])C([H])([H])[H])C(C([H])([H])[H])(C([H])([H])[H])C([H])([H])[H])C([H])(C(=O)N([H])C2([H])c4c([H])c([H])c([H])c([H])c4C([H])([H])C([H])([H])C2([H])[H])C3([H])[H])c(C([H])([H])N(C(=O)N2C([H])([H])C([H])([H])C([H])([H])C([H])(n3nc(-c4c([H])c([H])c(Oc5c([H])c([H])c(F)c([H])c5F)c([H])c4[H])c(C(=O)N([H])[H])c3N([H])[H])C2([H])[H])C([H])([H])[H])c1[H]

>  <smiles>  (66) 
[H]c1nc(C([H])([H])[H])c(C([H])([H])C([H])([H])C([H])([H])C([H])([H])Oc2c([H])c([H])c3c(c2[H])C([H])([H])N(C(=O)C([H])(N([H])C(=O)C([H])(N([H])C([H])([H])[H])C([H])([H])[H])C(C([H])([H])[H])(C([H])([H])[H])C([H])([H])[H])C([H])(C(=O)N([H])C2([H])c4c([H])c([H])c([H])c([H])c4C([H])([H])C([H])([H])C2([H])[H])C3([H])[H])c(C([H])([H])N(C(=O)N2C([H])([H])C([H])([H])C([H])([H])C([H])(n3nc(-c4c([H])c([H])c(Oc5c([H])c([H])c(F)c([H])c5F)c([H])c4[H])c(C(=O)N([H])[H])c3N([H])[H])C2([H])[H])C([H])([H])[H])c1[H]

$$$$
68:0:0
     RDKit          3D

 88 96  0  0  1  0  0  0  0  0999 V2000
  -29.6090  -23.1800   21.8160 C   0  0  0  0  0  1  0  0  0  0  0  0
  -27.2090  -22.7120   21.3920 C   0  0  0  0  0  1  0  0  0  0  0  0
  -28.5910  -22.8470   20.7150 C   0  0  2  0  0  0  0  0  0  0  0  0
  -28.6840  -19.8370   20.6710 C   0  0  0  0  0  3  0  0  0  0  0  0
  -29.0250  -21.1930   20.2360 C   0  0  0  0  0  0  0  0  0  0  0  0
  -30.1310  -20.7960   19.4390 N   0  0  0  0  0  0  0  0  0  0  0  0
  -30.3530  -19.4580   19.3530 N   0  0  0  0  0  0  0  0  0  0  0  0
  -29.5100  -18.7000   20.1420 N   0  0  0  0  0  0  0  0  0  0  0  0
  -28.6640  -16.9890   18.5960 C   0  0  0  0  0  1  0  0  0  0  0  0
  -29.3310  -17.0130   19.9870 C   0  0  0  0  0  3  0  0  0  0  0  0
  -30.3250  -15.5180   19.9980 C   0  0  0  0  0  0  0  0  0  0  0  0
  -30.3910  -13.0370   19.1690 C   0  0  0  0  0  2  0  0  0  0  0  0
  -29.4190  -12.7970   17.9770 C   0  0  0  0  0  2  0  0  0  0  0  0
  -27.9830  -12.5300   18.4610 C   0  0  0  0  0  2  0  0  0  0  0  0
  -27.5740  -13.4510   19.6310 C   0  0  0  0  0  3  0  0  0  0  0  0
  -28.6720  -13.6100   20.7000 C   0  0  0  0  0  2  0  0  0  0  0  0
  -29.8610  -14.1610   20.0260 N   0  0  0  0  0  0  0  0  0  0  0  0
  -31.5440  -15.5540   19.7600 O   0  0  0  0  0  0  0  0  0  0  0  0
  -25.2460  -14.0020   20.4890 C   0  0  0  0  0  0  0  0  0  0  0  0
  -24.2020  -13.2190   20.8850 C   0  0  0  0  0  0  0  0  0  0  0  0
  -24.6670  -11.8700   20.8100 C   0  0  0  0  0  0  0  0  0  0  0  0
  -26.2740  -13.1290   20.1890 N   0  0  0  0  0  0  0  0  0  0  0  0
  -25.9450  -11.8400   20.4460 N   0  0  0  0  0  0  0  0  0  0  0  0
  -23.9520  -10.6030   21.0000 C   0  0  0  0  0  0  0  0  0  0  0  0
  -24.4070   -9.6290   21.9150 C   0  0  0  0  0  3  0  0  0  0  0  0
  -23.6880   -8.4280   22.0940 C   0  0  0  0  0  3  0  0  0  0  0  0
  -22.5020   -8.1950   21.3550 C   0  0  0  0  0  0  0  0  0  0  0  0
  -22.0690   -9.1600   20.4270 C   0  0  0  0  0  3  0  0  0  0  0  0
  -22.7900  -10.3520   20.2490 C   0  0  0  0  0  3  0  0  0  0  0  0
  -21.7540   -7.0500   21.4440 O   0  0  0  0  0  0  0  0  0  0  0  0
  -21.7070   -6.3080   22.6010 C   0  0  0  0  0  0  0  0  0  0  0  0
  -21.2550   -6.8570   23.8220 C   0  0  0  0  0  3  0  0  0  0  0  0
  -21.1590   -6.0410   24.9660 C   0  0  0  0  0  3  0  0  0  0  0  0
  -21.5040   -4.6770   24.8930 C   0  0  0  0  0  0  0  0  0  0  0  0
  -21.9490   -4.1300   23.6750 C   0  0  0  0  0  3  0  0  0  0  0  0
  -22.0480   -4.9430   22.5310 C   0  0  0  0  0  0  0  0  0  0  0  0
  -22.4570   -4.4050   21.3560 F   0  0  0  0  0  0  0  0  0  0  0  0
  -21.4100   -3.8900   25.9900 F   0  0  0  0  0  0  0  0  0  0  0  0
  -22.8160  -13.6870   21.2210 C   0  0  0  0  0  0  0  0  0  0  0  0
  -22.1260  -12.9690   22.0980 N   0  0  0  0  0  0  0  0  0  0  0  0
  -22.3610  -14.7250   20.7400 O   0  0  0  0  0  0  0  0  0  0  0  0
  -22.5160  -12.1310   22.5030 H   0  0  0  0  0  0  0  0  0  0  0  0
  -21.1970  -13.2600   22.3700 H   0  0  0  0  0  0  0  0  0  0  0  0
  -25.4020  -15.3790   20.3300 N   0  0  0  0  0  0  0  0  0  0  0  0
  -24.6330  -16.0200   20.4850 H   0  0  0  0  0  0  0  0  0  0  0  0
  -26.2180  -15.8240   19.9330 H   0  0  0  0  0  0  0  0  0  0  0  0
  -28.3990  -24.4370   19.8730 C   0  0  0  0  0  2  0  0  0  0  0  0
  -28.3110  -26.0210   20.3590 O   0  0  0  0  0  0  0  0  0  0  0  0
  -24.6770  -31.9520   23.2400 C   0  0  0  0  0  0  0  0  0  0  0  0
  -27.2790  -27.0920   20.2260 C   0  0  0  0  0  0  0  0  0  0  0  0
  -23.4950  -30.5430   21.6010 C   0  0  0  0  0  3  0  0  0  0  0  0
  -24.9560  -28.9530   20.1700 C   0  0  0  0  0  0  0  0  0  0  0  0
  -26.0570  -30.7770   21.4520 C   0  0  0  0  0  2  0  0  0  0  0  0
  -26.1370  -29.3680   20.7960 C   0  0  0  0  0  0  0  0  0  0  0  0
  -27.2850  -28.4580   20.8020 C   0  0  0  0  0  3  0  0  0  0  0  0
  -26.0680  -26.8290   19.5400 C   0  0  0  0  0  3  0  0  0  0  0  0
  -24.9500  -27.7050   19.5180 C   0  0  0  0  0  3  0  0  0  0  0  0
  -23.7250  -29.8590   20.2240 C   0  0  0  0  0  2  0  0  0  0  0  0
  -24.7650  -31.1170   22.1510 N   0  0  0  0  0  0  0  0  0  0  0  0
  -23.5840  -32.2350   23.7620 O   0  0  0  0  0  0  0  0  0  0  0  0
  -22.8090  -29.5450   22.5680 C   0  0  0  0  0  0  0  0  0  0  0  0
  -21.4820  -29.3630   22.4350 N   0  0  0  0  0  0  0  0  0  0  0  0
  -23.4750  -28.9300   23.4030 O   0  0  0  0  0  0  0  0  0  0  0  0
  -20.9980  -29.9090   21.7350 H   0  0  0  0  0  0  0  0  0  0  0  0
  -18.1120  -28.1130   22.9290 C   0  0  0  0  0  0  0  0  0  0  0  0
  -20.6660  -28.4160   23.2040 C   0  0  0  0  0  3  0  0  0  0  0  0
  -20.7920  -26.9860   22.6320 C   0  0  0  0  0  2  0  0  0  0  0  0
  -19.7020  -26.6440   21.6130 C   0  0  0  0  0  2  0  0  0  0  0  0
  -18.3140  -26.7660   22.2490 C   0  0  0  0  0  2  0  0  0  0  0  0
  -19.2170  -28.8940   23.3600 C   0  0  0  0  0  0  0  0  0  0  0  0
  -18.9750  -30.1500   23.9580 C   0  0  0  0  0  3  0  0  0  0  0  0
  -17.6620  -30.6280   24.1240 C   0  0  0  0  0  3  0  0  0  0  0  0
  -16.5720  -29.8470   23.7060 C   0  0  0  0  0  3  0  0  0  0  0  0
  -16.7970  -28.5900   23.1140 C   0  0  0  0  0  3  0  0  0  0  0  0
  -25.9410  -32.6010   23.8770 C   0  0  0  0  0  3  0  0  0  0  0  0
  -26.4350  -31.8550   25.1790 C   0  0  1  0  0  0  0  0  0  0  0  0
  -25.3220  -31.6350   26.2310 C   0  0  0  0  0  1  0  0  0  0  0  0
  -27.0270  -30.4700   24.8310 C   0  0  0  0  0  1  0  0  0  0  0  0
  -27.5730  -32.6640   25.8460 C   0  0  0  0  0  1  0  0  0  0  0  0
  -25.6200  -34.0060   24.1930 N   0  0  0  0  0  0  0  0  0  0  0  0
  -25.9520  -35.0600   23.4360 C   0  0  0  0  0  0  0  0  0  0  0  0
  -26.6250  -34.9530   22.4080 O   0  0  0  0  0  0  0  0  0  0  0  0
  -25.0190  -34.1620   24.9890 H   0  0  0  0  0  0  0  0  0  0  0  0
  -24.2180  -36.8560   23.0760 C   0  0  0  0  0  1  0  0  0  0  0  0
  -25.4610  -36.4550   23.8870 C   0  0  0  0  0  3  0  0  0  0  0  0
  -27.5910  -37.3560   24.7150 C   0  0  0  0  0  1  0  0  0  0  0  0
  -26.4930  -37.5090   23.7680 N   0  0  0  0  0  0  0  0  0  0  0  0
  -26.0850  -38.4310   23.9010 H   0  0  0  0  0  0  0  0  0  0  0  0
  3  2  1  1
  3  1  1  0
  5  4  2  0
  5  3  1  0
  6  5  1  0
  7  6  2  0
  7  8  1  0
  8  4  1  0
 10  9  1  0
 10 11  1  0
 10  8  1  0
 11 17  1  0
 12 17  1  0
 13 14  1  0
 13 12  1  0
 15 14  1  0
 15 22  1  0
 15 16  1  0
 17 16  1  0
 18 11  2  0
 19 20  2  0
 20 39  1  0
 21 20  1  0
 21 24  1  0
 22 23  1  0
 22 19  1  0
 23 21  2  0
 24 25  1  0
 25 26  2  0
 27 30  1  0
 27 26  1  0
 28 27  2  0
 29 28  1  0
 29 24  2  0
 30 31  1  0
 31 32  1  0
 32 33  2  0
 34 33  1  0
 34 38  1  0
 35 34  2  0
 36 31  2  0
 36 35  1  0
 37 36  1  0
 39 40  1  0
 40 43  1  0
 40 42  1  0
 41 39  2  0
 44 45  1  0
 44 19  1  0
 46 44  1  0
 47 48  1  0
 47  3  1  0
 49 60  2  0
 50 48  1  0
 50 55  1  0
 51 59  1  0
 51 61  1  0
 52 58  1  0
 52 54  1  0
 53 59  1  0
 54 55  2  0
 54 53  1  0
 56 50  2  0
 57 56  1  0
 57 52  2  0
 58 51  1  0
 59 49  1  0
 61 63  2  0
 62 61  1  0
 64 62  1  0
 65 74  2  0
 65 70  1  0
 66 62  1  0
 66 70  1  0
 67 66  1  0
 68 69  1  0
 68 67  1  0
 69 65  1  0
 70 71  2  0
 71 72  1  0
 73 72  2  0
 74 73  1  0
 75 49  1  0
 75 80  1  0
 75 76  1  0
 76 79  1  1
 76 77  1  0
 78 76  1  0
 80 83  1  0
 81 85  1  0
 81 80  1  0
 82 81  2  0
 85 84  1  0
 87 85  1  0
 87 88  1  0
 87 86  1  0
M  ISO  4  10 100  11 100  47 101  48 101
M  END
>  <TORSDO>  (67) 
F 19

>  <SCORE>  (67) 
-16.784

>  <name>  (67) 
68

>  <ligand_id>  (67) 
68

>  <original_smiles>  (67) 
[H]c1c([H])c([H])c2c(c1[H])C([H])([H])C([H])([H])C([H])([H])C2([H])N([H])C(=O)C1([H])N(C(=O)C([H])(N([H])C(=O)C([H])(N([H])C([H])([H])[H])C([H])([H])[H])C(C([H])([H])[H])(C([H])([H])[H])C([H])([H])[H])C([H])([H])c2c([H])c(OC([H])([H])C(c3nnn(C([H])(C(=O)N4C([H])([H])C([H])([H])C([H])([H])C([H])(n5nc(-c6c([H])c([H])c(Oc7c([H])c([H])c(F)c([H])c7F)c([H])c6[H])c(C(=O)N([H])[H])c5N([H])[H])C4([H])[H])C([H])([H])[H])c3[H])(C([H])([H])[H])C([H])([H])[H])c([H])c([H])c2C1([H])[H]

>  <smiles>  (67) 
[H]c1c([H])c([H])c2c(c1[H])C([H])([H])C([H])([H])C([H])([H])C2([H])N([H])C(=O)C1([H])N(C(=O)C([H])(N([H])C(=O)C([H])(N([H])C([H])([H])[H])C([H])([H])[H])C(C([H])([H])[H])(C([H])([H])[H])C([H])([H])[H])C([H])([H])c2c([H])c(OC([H])([H])C(c3nnn(C([H])(C(=O)N4C([H])([H])C([H])([H])C([H])([H])C([H])(n5nc(-c6c([H])c([H])c(Oc7c([H])c([H])c(F)c([H])c7F)c([H])c6[H])c(C(=O)N([H])[H])c5N([H])[H])C4([H])[H])C([H])([H])[H])c3[H])(C([H])([H])[H])C([H])([H])[H])c([H])c([H])c2C1([H])[H]

$$$$
69:0:0
     RDKit          3D

 88 96  0  0  1  0  0  0  0  0999 V2000
  -28.5510  -21.8500   20.2010 C   0  0  0  0  0  2  0  0  0  0  0  0
  -28.9410  -19.1540   20.0210 C   0  0  0  0  0  3  0  0  0  0  0  0
  -30.4340  -20.1540   21.1410 C   0  0  0  0  0  3  0  0  0  0  0  0
  -29.8580  -18.1120   20.3700 C   0  0  0  0  0  0  0  0  0  0  0  0
  -30.8090  -18.8410   21.1140 N   0  0  0  0  0  0  0  0  0  0  0  0
  -29.3100  -20.4830   20.4630 N   0  0  0  0  0  0  0  0  0  0  0  0
  -31.0420  -16.8700   18.5830 C   0  0  0  0  0  1  0  0  0  0  0  0
  -28.7070  -16.3340   18.9880 C   0  0  0  0  0  1  0  0  0  0  0  0
  -30.0260  -16.5890   19.7250 C   0  0  2  0  0  0  0  0  0  0  0  0
  -30.6080  -15.1190   20.3770 C   0  0  0  0  0  0  0  0  0  0  0  0
  -30.4800  -12.7120   19.5910 C   0  0  0  0  0  2  0  0  0  0  0  0
  -29.5790  -12.5600   18.3460 C   0  0  0  0  0  2  0  0  0  0  0  0
  -28.1180  -12.3130   18.7680 C   0  0  0  0  0  2  0  0  0  0  0  0
  -27.6430  -13.2840   19.8760 C   0  0  0  0  0  3  0  0  0  0  0  0
  -28.6860  -13.4860   21.0000 C   0  0  0  0  0  2  0  0  0  0  0  0
  -29.9650  -13.8710   20.3770 N   0  0  0  0  0  0  0  0  0  0  0  0
  -31.8390  -15.0390   20.4570 O   0  0  0  0  0  0  0  0  0  0  0  0
  -25.2530  -13.8800   20.5540 C   0  0  0  0  0  0  0  0  0  0  0  0
  -24.1800  -13.1100   20.8950 C   0  0  0  0  0  0  0  0  0  0  0  0
  -24.6500  -11.7610   20.8950 C   0  0  0  0  0  0  0  0  0  0  0  0
  -26.3060  -12.9980   20.3630 N   0  0  0  0  0  0  0  0  0  0  0  0
  -25.9500  -11.7200   20.6350 N   0  0  0  0  0  0  0  0  0  0  0  0
  -23.9250  -10.5000   21.0670 C   0  0  0  0  0  0  0  0  0  0  0  0
  -24.3370   -9.5390   22.0160 C   0  0  0  0  0  3  0  0  0  0  0  0
  -23.6120   -8.3410   22.1790 C   0  0  0  0  0  3  0  0  0  0  0  0
  -22.4610   -8.0970   21.3900 C   0  0  0  0  0  0  0  0  0  0  0  0
  -22.0720   -9.0450   20.4280 C   0  0  0  0  0  3  0  0  0  0  0  0
  -22.7980  -10.2350   20.2640 C   0  0  0  0  0  3  0  0  0  0  0  0
  -21.7100   -6.9500   21.4660 O   0  0  0  0  0  0  0  0  0  0  0  0
  -21.6290   -6.2180   22.6230 C   0  0  0  0  0  0  0  0  0  0  0  0
  -21.1530   -6.7800   23.8260 C   0  0  0  0  0  3  0  0  0  0  0  0
  -21.0210   -5.9740   24.9760 C   0  0  0  0  0  3  0  0  0  0  0  0
  -21.3550   -4.6090   24.9220 C   0  0  0  0  0  0  0  0  0  0  0  0
  -21.8250   -4.0450   23.7230 C   0  0  0  0  0  3  0  0  0  0  0  0
  -21.9590   -4.8470   22.5760 C   0  0  0  0  0  0  0  0  0  0  0  0
  -22.3930   -4.2960   21.4160 F   0  0  0  0  0  0  0  0  0  0  0  0
  -21.2210   -3.8320   26.0230 F   0  0  0  0  0  0  0  0  0  0  0  0
  -22.7730  -13.5870   21.1090 C   0  0  0  0  0  0  0  0  0  0  0  0
  -22.0160  -12.8960   21.9540 N   0  0  0  0  0  0  0  0  0  0  0  0
  -22.3530  -14.6080   20.5650 O   0  0  0  0  0  0  0  0  0  0  0  0
  -22.3710  -12.0720   22.4160 H   0  0  0  0  0  0  0  0  0  0  0  0
  -21.0720  -13.1990   22.1450 H   0  0  0  0  0  0  0  0  0  0  0  0
  -25.4080  -15.2510   20.3600 N   0  0  0  0  0  0  0  0  0  0  0  0
  -24.6250  -15.8900   20.4310 H   0  0  0  0  0  0  0  0  0  0  0  0
  -26.2500  -15.6940   20.0200 H   0  0  0  0  0  0  0  0  0  0  0  0
  -29.0030  -23.4330   20.5360 C   0  0  0  0  0  3  0  0  0  0  0  0
  -28.0200  -24.7450   20.1370 C   0  0  0  0  0  3  0  0  0  0  0  0
  -28.2660  -26.2660   20.3180 O   0  0  0  0  0  0  0  0  0  0  0  0
  -24.5970  -31.9180   23.2440 C   0  0  0  0  0  0  0  0  0  0  0  0
  -27.1930  -27.2260   20.2270 C   0  0  0  0  0  0  0  0  0  0  0  0
  -23.3970  -30.5150   21.6100 C   0  0  0  0  0  3  0  0  0  0  0  0
  -24.8490  -28.9460   20.1830 C   0  0  0  0  0  0  0  0  0  0  0  0
  -25.9470  -30.7970   21.4350 C   0  0  0  0  0  2  0  0  0  0  0  0
  -26.0260  -29.4060   20.7880 C   0  0  0  0  0  0  0  0  0  0  0  0
  -27.1970  -28.5610   20.7950 C   0  0  0  0  0  3  0  0  0  0  0  0
  -25.9910  -26.8650   19.5760 C   0  0  0  0  0  3  0  0  0  0  0  0
  -24.8440  -27.6880   19.5620 C   0  0  0  0  0  3  0  0  0  0  0  0
  -23.6160  -29.8350   20.2320 C   0  0  0  0  0  2  0  0  0  0  0  0
  -24.6670  -31.0980   22.1520 N   0  0  0  0  0  0  0  0  0  0  0  0
  -23.5130  -32.2030   23.7750 O   0  0  0  0  0  0  0  0  0  0  0  0
  -22.7240  -29.5090   22.5770 C   0  0  0  0  0  0  0  0  0  0  0  0
  -21.3970  -29.3300   22.4500 N   0  0  0  0  0  0  0  0  0  0  0  0
  -23.3980  -28.8900   23.4030 O   0  0  0  0  0  0  0  0  0  0  0  0
  -20.9110  -29.8770   21.7540 H   0  0  0  0  0  0  0  0  0  0  0  0
  -18.0210  -28.1220   22.9570 C   0  0  0  0  0  0  0  0  0  0  0  0
  -20.5790  -28.3960   23.2280 C   0  0  0  0  0  3  0  0  0  0  0  0
  -20.6880  -26.9610   22.6630 C   0  0  0  0  0  2  0  0  0  0  0  0
  -19.5880  -26.6280   21.6500 C   0  0  0  0  0  2  0  0  0  0  0  0
  -18.2040  -26.7690   22.2890 C   0  0  0  0  0  2  0  0  0  0  0  0
  -19.1360  -28.8920   23.3840 C   0  0  0  0  0  0  0  0  0  0  0  0
  -18.9070  -30.1550   23.9720 C   0  0  0  0  0  3  0  0  0  0  0  0
  -17.6000  -30.6490   24.1380 C   0  0  0  0  0  3  0  0  0  0  0  0
  -16.5010  -29.8760   23.7260 C   0  0  0  0  0  3  0  0  0  0  0  0
  -16.7110  -28.6150   23.1410 C   0  0  0  0  0  3  0  0  0  0  0  0
  -25.8780  -32.5570   23.8650 C   0  0  0  0  0  3  0  0  0  0  0  0
  -26.3790  -31.8070   25.1600 C   0  0  1  0  0  0  0  0  0  0  0  0
  -25.2760  -31.5980   26.2250 C   0  0  0  0  0  1  0  0  0  0  0  0
  -26.9570  -30.4190   24.8050 C   0  0  0  0  0  1  0  0  0  0  0  0
  -27.5300  -32.6070   25.8150 C   0  0  0  0  0  1  0  0  0  0  0  0
  -25.5730  -33.9640   24.1720 N   0  0  0  0  0  0  0  0  0  0  0  0
  -25.9190  -35.0050   23.4040 C   0  0  0  0  0  0  0  0  0  0  0  0
  -26.5930  -34.8820   22.3780 O   0  0  0  0  0  0  0  0  0  0  0  0
  -24.9730  -34.1340   24.9660 H   0  0  0  0  0  0  0  0  0  0  0  0
  -24.2150  -36.8170   23.0080 C   0  0  0  0  0  1  0  0  0  0  0  0
  -25.4410  -36.4050   23.8410 C   0  0  0  0  0  3  0  0  0  0  0  0
  -27.5690  -37.2780   24.6980 C   0  0  0  0  0  1  0  0  0  0  0  0
  -26.4860  -37.4440   23.7320 N   0  0  0  0  0  0  0  0  0  0  0  0
  -26.0880  -38.3710   23.8620 H   0  0  0  0  0  0  0  0  0  0  0  0
  1  6  1  0
  1 46  1  0
  2  4  2  0
  2  6  1  0
  4  5  1  0
  5  3  2  0
  6  3  1  0
  9  7  1  6
  8  9  1  0
  9  4  1  0
  9 10  1  0
 10 16  1  0
 10 17  2  0
 11 16  1  0
 12 13  1  0
 12 11  1  0
 14 13  1  0
 14 21  1  0
 14 15  1  0
 16 15  1  0
 18 19  2  0
 19 20  1  0
 19 38  1  0
 20 23  1  0
 21 18  1  0
 21 22  1  0
 22 20  2  0
 23 24  1  0
 24 25  2  0
 26 29  1  0
 26 25  1  0
 27 26  2  0
 28 27  1  0
 28 23  2  0
 29 30  1  0
 30 31  1  0
 31 32  2  0
 33 32  1  0
 33 37  1  0
 34 33  2  0
 35 30  2  0
 35 34  1  0
 36 35  1  0
 38 39  1  0
 39 42  1  0
 39 41  1  0
 40 38  2  0
 43 44  1  0
 43 18  1  0
 45 43  1  0
 47 48  1  0
 47 46  2  0
 49 60  2  0
 50 48  1  0
 50 55  1  0
 51 59  1  0
 51 61  1  0
 52 58  1  0
 52 54  1  0
 53 59  1  0
 54 55  2  0
 54 53  1  0
 56 50  2  0
 57 56  1  0
 57 52  2  0
 58 51  1  0
 59 49  1  0
 61 63  2  0
 62 61  1  0
 64 62  1  0
 65 74  2  0
 65 70  1  0
 66 62  1  0
 66 70  1  0
 67 66  1  0
 68 69  1  0
 68 67  1  0
 69 65  1  0
 70 71  2  0
 71 72  1  0
 73 72  2  0
 74 73  1  0
 75 49  1  0
 75 80  1  0
 75 76  1  0
 76 79  1  1
 76 77  1  0
 78 76  1  0
 80 83  1  0
 81 85  1  0
 81 80  1  0
 82 81  2  0
 85 84  1  0
 87 85  1  0
 87 88  1  0
 87 86  1  0
M  ISO  4   9 100  10 100  47 101  48 101
M  END
>  <TORSDO>  (68) 
F 20

>  <SCORE>  (68) 
-14.180

>  <name>  (68) 
69

>  <ligand_id>  (68) 
69

>  <original_smiles>  (68) 
[H]c1c([H])c([H])c2c(c1[H])C([H])([H])C([H])([H])C([H])([H])C2([H])N([H])C(=O)C1([H])N(C(=O)C([H])(N([H])C(=O)C([H])(N([H])C([H])([H])[H])C([H])([H])[H])C(C([H])([H])[H])(C([H])([H])[H])C([H])([H])[H])C([H])([H])c2c([H])c(OC([H])([H])C([H])([H])C([H])([H])n3c([H])nc(C(C(=O)N4C([H])([H])C([H])([H])C([H])([H])C([H])(n5nc(-c6c([H])c([H])c(Oc7c([H])c([H])c(F)c([H])c7F)c([H])c6[H])c(C(=O)N([H])[H])c5N([H])[H])C4([H])[H])(C([H])([H])[H])C([H])([H])[H])c3[H])c([H])c([H])c2C1([H])[H]

>  <smiles>  (68) 
[H]c1c([H])c([H])c2c(c1[H])C([H])([H])C([H])([H])C([H])([H])C2([H])N([H])C(=O)C1([H])N(C(=O)C([H])(N([H])C(=O)C([H])(N([H])C([H])([H])[H])C([H])([H])[H])C(C([H])([H])[H])(C([H])([H])[H])C([H])([H])[H])C([H])([H])c2c([H])c(OC([H])([H])C([H])([H])C([H])([H])n3c([H])nc(C(C(=O)N4C([H])([H])C([H])([H])C([H])([H])C([H])(n5nc(-c6c([H])c([H])c(Oc7c([H])c([H])c(F)c([H])c7F)c([H])c6[H])c(C(=O)N([H])[H])c5N([H])[H])C4([H])[H])(C([H])([H])[H])C([H])([H])[H])c3[H])c([H])c([H])c2C1([H])[H]

$$$$
70:0:0
     RDKit          3D

 89 97  0  0  1  0  0  0  0  0999 V2000
  -28.7030  -21.0320   20.0320 O   0  0  0  0  0  0  0  0  0  0  0  0
  -30.8560  -19.6640   19.8840 C   0  0  0  0  0  3  0  0  0  0  0  0
  -29.5230  -19.8670   20.1270 C   0  0  0  0  0  0  0  0  0  0  0  0
  -30.0090  -17.6160   20.4260 C   0  0  0  0  0  3  0  0  0  0  0  0
  -32.4670  -17.7400   19.9450 C   0  0  0  0  0  1  0  0  0  0  0  0
  -31.1270  -18.3130   20.0800 N   0  0  0  0  0  0  0  0  0  0  0  0
  -29.0420  -18.5910   20.4310 N   0  0  0  0  0  0  0  0  0  0  0  0
  -28.0680  -18.4140   20.6480 H   0  0  0  0  0  0  0  0  0  0  0  0
  -29.7750  -16.0980   20.8810 C   0  0  0  0  0  2  0  0  0  0  0  0
  -30.5690  -14.7720   20.4130 C   0  0  0  0  0  0  0  0  0  0  0  0
  -30.3710  -12.4970   19.3750 C   0  0  0  0  0  2  0  0  0  0  0  0
  -29.4370  -12.6100   18.1480 C   0  0  0  0  0  2  0  0  0  0  0  0
  -27.9600  -12.4450   18.5620 C   0  0  0  0  0  2  0  0  0  0  0  0
  -27.5910  -13.3050   19.7990 C   0  0  0  0  0  3  0  0  0  0  0  0
  -28.6490  -13.1840   20.9180 C   0  0  0  0  0  2  0  0  0  0  0  0
  -29.9550  -13.5370   20.3440 N   0  0  0  0  0  0  0  0  0  0  0  0
  -31.7380  -14.8600   20.0310 O   0  0  0  0  0  0  0  0  0  0  0  0
  -25.1980  -13.9010   20.5100 C   0  0  0  0  0  0  0  0  0  0  0  0
  -24.1300  -13.1310   20.8760 C   0  0  0  0  0  0  0  0  0  0  0  0
  -24.5910  -11.7790   20.8540 C   0  0  0  0  0  0  0  0  0  0  0  0
  -26.2420  -13.0200   20.2820 N   0  0  0  0  0  0  0  0  0  0  0  0
  -25.8840  -11.7380   20.5530 N   0  0  0  0  0  0  0  0  0  0  0  0
  -23.8590  -10.5190   21.0440 C   0  0  0  0  0  0  0  0  0  0  0  0
  -24.2880   -9.5530   21.9810 C   0  0  0  0  0  3  0  0  0  0  0  0
  -23.5600   -8.3580   22.1600 C   0  0  0  0  0  3  0  0  0  0  0  0
  -22.3870   -8.1210   21.4040 C   0  0  0  0  0  0  0  0  0  0  0  0
  -21.9760   -9.0760   20.4580 C   0  0  0  0  0  3  0  0  0  0  0  0
  -22.7040  -10.2630   20.2770 C   0  0  0  0  0  3  0  0  0  0  0  0
  -21.6290   -6.9780   21.4940 O   0  0  0  0  0  0  0  0  0  0  0  0
  -21.5840   -6.2320   22.6440 C   0  0  0  0  0  0  0  0  0  0  0  0
  -21.1730   -6.7860   23.8760 C   0  0  0  0  0  3  0  0  0  0  0  0
  -21.0730   -5.9680   25.0180 C   0  0  0  0  0  3  0  0  0  0  0  0
  -21.3730   -4.5950   24.9300 C   0  0  0  0  0  0  0  0  0  0  0  0
  -21.7760   -4.0400   23.7020 C   0  0  0  0  0  3  0  0  0  0  0  0
  -21.8790   -4.8570   22.5630 C   0  0  0  0  0  0  0  0  0  0  0  0
  -22.2470   -4.3130   21.3780 F   0  0  0  0  0  0  0  0  0  0  0  0
  -21.2710   -3.8070   26.0250 F   0  0  0  0  0  0  0  0  0  0  0  0
  -22.7310  -13.6110   21.1350 C   0  0  0  0  0  0  0  0  0  0  0  0
  -21.9930  -12.9200   21.9980 N   0  0  0  0  0  0  0  0  0  0  0  0
  -22.2990  -14.6330   20.6050 O   0  0  0  0  0  0  0  0  0  0  0  0
  -22.3570  -12.0950   22.4530 H   0  0  0  0  0  0  0  0  0  0  0  0
  -21.0520  -13.2200   22.2090 H   0  0  0  0  0  0  0  0  0  0  0  0
  -25.3630  -15.2720   20.3250 N   0  0  0  0  0  0  0  0  0  0  0  0
  -24.5830  -15.9140   20.4050 H   0  0  0  0  0  0  0  0  0  0  0  0
  -26.1930  -15.7030   19.9420 H   0  0  0  0  0  0  0  0  0  0  0  0
  -29.1970  -22.4060   20.3320 C   0  0  0  0  0  2  0  0  0  0  0  0
  -28.3400  -23.7030   19.8470 C   0  0  0  0  0  2  0  0  0  0  0  0
  -28.3660  -25.0820   20.6990 C   0  0  0  0  0  2  0  0  0  0  0  0
  -28.3480  -26.4700   20.1290 O   0  0  0  0  0  0  0  0  0  0  0  0
  -24.6020  -31.8880   23.2460 C   0  0  0  0  0  0  0  0  0  0  0  0
  -27.2090  -27.2940   20.1990 C   0  0  0  0  0  0  0  0  0  0  0  0
  -23.3970  -30.4810   21.6140 C   0  0  0  0  0  3  0  0  0  0  0  0
  -24.8420  -28.9110   20.1980 C   0  0  0  0  0  0  0  0  0  0  0  0
  -25.9340  -30.7980   21.4150 C   0  0  0  0  0  2  0  0  0  0  0  0
  -26.0150  -29.4080   20.7810 C   0  0  0  0  0  0  0  0  0  0  0  0
  -27.2030  -28.6140   20.7600 C   0  0  0  0  0  3  0  0  0  0  0  0
  -26.0100  -26.8430   19.6150 C   0  0  0  0  0  3  0  0  0  0  0  0
  -24.8420  -27.6360   19.6050 C   0  0  0  0  0  3  0  0  0  0  0  0
  -23.6080  -29.7910   20.2390 C   0  0  0  0  0  2  0  0  0  0  0  0
  -24.6650  -31.0740   22.1480 N   0  0  0  0  0  0  0  0  0  0  0  0
  -23.5190  -32.1670   23.7800 O   0  0  0  0  0  0  0  0  0  0  0  0
  -22.7330  -29.4740   22.5840 C   0  0  0  0  0  0  0  0  0  0  0  0
  -21.4050  -29.2980   22.4610 N   0  0  0  0  0  0  0  0  0  0  0  0
  -23.4110  -28.8510   23.4060 O   0  0  0  0  0  0  0  0  0  0  0  0
  -20.9200  -29.8500   21.7680 H   0  0  0  0  0  0  0  0  0  0  0  0
  -18.0270  -28.0960   22.9630 C   0  0  0  0  0  0  0  0  0  0  0  0
  -20.5850  -28.3630   23.2350 C   0  0  0  0  0  3  0  0  0  0  0  0
  -20.6910  -26.9300   22.6660 C   0  0  0  0  0  2  0  0  0  0  0  0
  -19.5900  -26.5990   21.6540 C   0  0  0  0  0  2  0  0  0  0  0  0
  -18.2080  -26.7430   22.2960 C   0  0  0  0  0  2  0  0  0  0  0  0
  -19.1440  -28.8630   23.3900 C   0  0  0  0  0  0  0  0  0  0  0  0
  -18.9200  -30.1280   23.9760 C   0  0  0  0  0  3  0  0  0  0  0  0
  -17.6130  -30.6240   24.1440 C   0  0  0  0  0  3  0  0  0  0  0  0
  -16.5120  -29.8540   23.7320 C   0  0  0  0  0  3  0  0  0  0  0  0
  -16.7190  -28.5930   23.1450 C   0  0  0  0  0  3  0  0  0  0  0  0
  -25.8840  -32.5260   23.8670 C   0  0  0  0  0  3  0  0  0  0  0  0
  -25.5740  -33.9260   24.1940 N   0  0  0  0  0  0  0  0  0  0  0  0
  -25.9110  -34.9780   23.4350 C   0  0  0  0  0  0  0  0  0  0  0  0
  -26.5840  -34.8700   22.4060 O   0  0  0  0  0  0  0  0  0  0  0  0
  -24.9780  -34.0830   24.9930 H   0  0  0  0  0  0  0  0  0  0  0  0
  -24.1910  -36.7770   23.0690 C   0  0  0  0  0  1  0  0  0  0  0  0
  -25.4260  -36.3690   23.8880 C   0  0  0  0  0  3  0  0  0  0  0  0
  -27.5630  -37.2430   24.7280 C   0  0  0  0  0  1  0  0  0  0  0  0
  -26.4650  -37.4180   23.7800 N   0  0  0  0  0  0  0  0  0  0  0  0
  -26.0630  -38.3400   23.9240 H   0  0  0  0  0  0  0  0  0  0  0  0
  -26.4000  -31.7600   25.1470 C   0  0  1  0  0  0  0  0  0  0  0  0
  -25.3070  -31.5270   26.2170 C   0  0  0  0  0  1  0  0  0  0  0  0
  -26.9790  -30.3800   24.7590 C   0  0  0  0  0  1  0  0  0  0  0  0
  -27.5600  -32.5490   25.7990 C   0  0  0  0  0  1  0  0  0  0  0  0
  1  3  1  0
  1 46  1  0
  2  6  1  0
  2  3  2  0
  3  7  1  0
  4  7  1  0
  4  9  1  0
  5  6  1  0
  6  4  1  0
  7  8  1  0
 10  9  1  0
 11 16  1  0
 12 13  1  0
 12 11  1  0
 14 13  1  0
 14 21  1  0
 14 15  1  0
 16 10  1  0
 16 15  1  0
 17 10  2  0
 18 19  2  0
 19 38  1  0
 20 19  1  0
 20 23  1  0
 21 18  1  0
 21 22  1  0
 22 20  2  0
 23 24  1  0
 24 25  2  0
 26 29  1  0
 26 25  1  0
 27 26  2  0
 28 27  1  0
 28 23  2  0
 29 30  1  0
 30 31  1  0
 31 32  2  0
 33 32  1  0
 33 37  1  0
 34 33  2  0
 35 30  2  0
 35 34  1  0
 36 35  1  0
 38 39  1  0
 39 42  1  0
 39 41  1  0
 40 38  2  0
 43 44  1  0
 43 18  1  0
 45 43  1  0
 47 46  1  0
 47 48  1  0
 49 51  1  0
 49 48  1  0
 50 61  2  0
 51 56  1  0
 52 60  1  0
 52 62  1  0
 53 59  1  0
 53 55  1  0
 54 60  1  0
 55 54  1  0
 56 55  2  0
 57 51  2  0
 58 57  1  0
 58 53  2  0
 59 52  1  0
 60 50  1  0
 62 64  2  0
 63 62  1  0
 65 63  1  0
 66 75  2  0
 66 71  1  0
 67 63  1  0
 67 71  1  0
 68 67  1  0
 69 70  1  0
 69 68  1  0
 70 66  1  0
 71 72  2  0
 72 73  1  0
 74 73  2  0
 75 74  1  0
 76 50  1  0
 76 77  1  0
 76 86  1  0
 77 80  1  0
 78 82  1  0
 78 77  1  0
 79 78  2  0
 82 81  1  0
 84 82  1  0
 84 85  1  0
 84 83  1  0
 86 89  1  1
 86 87  1  0
 88 86  1  0
M  ISO  4   9 100  10 100  48 101  49 101
M  END
>  <TORSDO>  (69) 
F 21

>  <SCORE>  (69) 
-13.534

>  <name>  (69) 
70

>  <ligand_id>  (69) 
70

>  <original_smiles>  (69) 
[H]c1c([H])c([H])c2c(c1[H])C([H])([H])C([H])([H])C([H])([H])C2([H])N([H])C(=O)C1([H])N(C(=O)C([H])(N([H])C(=O)C([H])(N([H])C([H])([H])[H])C([H])([H])[H])C(C([H])([H])[H])(C([H])([H])[H])C([H])([H])[H])C([H])([H])c2c([H])c(OC([H])([H])C([H])([H])C([H])([H])Oc3c([H])n(C([H])([H])[H])c(C([H])([H])C(=O)N4C([H])([H])C([H])([H])C([H])([H])C([H])(n5nc(-c6c([H])c([H])c(Oc7c([H])c([H])c(F)c([H])c7F)c([H])c6[H])c(C(=O)N([H])[H])c5N([H])[H])C4([H])[H])[n+]3[H])c([H])c([H])c2C1([H])[H]

>  <smiles>  (69) 
[H]c1c([H])c([H])c2c(c1[H])C([H])([H])C([H])([H])C([H])([H])C2([H])N([H])C(=O)C1([H])N(C(=O)C([H])(N([H])C(=O)C([H])(N([H])C([H])([H])[H])C([H])([H])[H])C(C([H])([H])[H])(C([H])([H])[H])C([H])([H])[H])C([H])([H])c2c([H])c(OC([H])([H])C([H])([H])C([H])([H])Oc3c([H])n(C([H])([H])[H])c(C([H])([H])C(=O)N4C([H])([H])C([H])([H])C([H])([H])C([H])(n5nc(-c6c([H])c([H])c(Oc7c([H])c([H])c(F)c([H])c7F)c([H])c6[H])c(C(=O)N([H])[H])c5N([H])[H])C4([H])[H])[n+]3[H])c([H])c([H])c2C1([H])[H]

$$$$
71:0:0
     RDKit          3D

 94102  0  0  1  0  0  0  0  0999 V2000
  -30.4070  -20.4050   19.8320 C   0  0  0  0  0  3  0  0  0  0  0  0
  -30.0320  -21.5740   20.4710 C   0  0  0  0  0  0  0  0  0  0  0  0
  -31.1000  -20.2350   21.9290 C   0  0  0  0  0  3  0  0  0  0  0  0
  -31.0470  -19.5880   20.7480 N   0  0  0  0  0  0  0  0  0  0  0  0
  -30.4830  -21.4160   21.7590 N   0  0  0  0  0  0  0  0  0  0  0  0
  -30.3640  -22.0780   22.5180 H   0  0  0  0  0  0  0  0  0  0  0  0
  -31.7020  -19.7710   23.2260 C   0  0  1  0  0  0  0  0  0  0  0  0
  -33.0040  -19.5280   23.0820 F   0  0  0  0  0  0  0  0  0  0  0  0
  -31.5490  -20.7140   24.1570 F   0  0  0  0  0  0  0  0  0  0  0  0
  -31.0970  -18.6620   23.6490 F   0  0  0  0  0  0  0  0  0  0  0  0
  -29.1770  -22.7470   20.0100 C   0  0  0  0  0  2  0  0  0  0  0  0
  -29.5010  -24.1910   20.5310 C   0  0  0  0  0  2  0  0  0  0  0  0
  -28.3560  -25.1890   20.1640 C   0  0  0  0  0  2  0  0  0  0  0  0
  -28.5210  -26.6120   20.4410 O   0  0  0  0  0  0  0  0  0  0  0  0
  -24.7140  -31.9340   23.3600 C   0  0  0  0  0  0  0  0  0  0  0  0
  -27.3790  -27.4130   20.3540 C   0  0  0  0  0  0  0  0  0  0  0  0
  -23.5250  -30.5060   21.7360 C   0  0  0  0  0  3  0  0  0  0  0  0
  -24.9900  -28.9670   20.3260 C   0  0  0  0  0  0  0  0  0  0  0  0
  -26.0580  -30.8590   21.5480 C   0  0  0  0  0  2  0  0  0  0  0  0
  -26.1500  -29.4800   20.9190 C   0  0  0  0  0  0  0  0  0  0  0  0
  -27.3460  -28.7130   20.9290 C   0  0  0  0  0  3  0  0  0  0  0  0
  -26.1980  -26.9500   19.7210 C   0  0  0  0  0  3  0  0  0  0  0  0
  -25.0120  -27.7020   19.7230 C   0  0  0  0  0  3  0  0  0  0  0  0
  -23.7420  -29.8210   20.3630 C   0  0  0  0  0  2  0  0  0  0  0  0
  -24.7850  -31.1150   22.2720 N   0  0  0  0  0  0  0  0  0  0  0  0
  -23.6280  -32.2080   23.8890 O   0  0  0  0  0  0  0  0  0  0  0  0
  -22.8740  -29.4890   22.7040 C   0  0  0  0  0  0  0  0  0  0  0  0
  -21.5690  -29.2310   22.5170 N   0  0  0  0  0  0  0  0  0  0  0  0
  -23.5440  -28.9340   23.5790 O   0  0  0  0  0  0  0  0  0  0  0  0
  -21.0870  -29.7310   21.7820 H   0  0  0  0  0  0  0  0  0  0  0  0
  -18.2590  -27.8120   22.8340 C   0  0  0  0  0  0  0  0  0  0  0  0
  -20.7600  -28.2860   23.2870 C   0  0  0  0  0  3  0  0  0  0  0  0
  -21.0130  -26.8330   22.8240 C   0  0  0  0  0  2  0  0  0  0  0  0
  -20.0270  -26.3590   21.7530 C   0  0  0  0  0  2  0  0  0  0  0  0
  -18.5890  -26.4370   22.2750 C   0  0  0  0  0  2  0  0  0  0  0  0
  -19.2810  -28.6850   23.2950 C   0  0  0  0  0  0  0  0  0  0  0  0
  -18.9230  -29.9640   23.7730 C   0  0  0  0  0  3  0  0  0  0  0  0
  -17.5770  -30.3730   23.7990 C   0  0  0  0  0  3  0  0  0  0  0  0
  -16.5680  -29.4980   23.3610 C   0  0  0  0  0  3  0  0  0  0  0  0
  -16.9100  -28.2200   22.8820 C   0  0  0  0  0  3  0  0  0  0  0  0
  -25.9930  -32.5840   23.9740 C   0  0  0  0  0  3  0  0  0  0  0  0
  -25.6750  -33.9860   24.2750 N   0  0  0  0  0  0  0  0  0  0  0  0
  -25.9910  -35.0240   23.4900 C   0  0  0  0  0  0  0  0  0  0  0  0
  -26.6540  -34.9030   22.4560 O   0  0  0  0  0  0  0  0  0  0  0  0
  -25.0810  -34.1530   25.0750 H   0  0  0  0  0  0  0  0  0  0  0  0
  -24.2380  -36.7890   23.1150 C   0  0  0  0  0  1  0  0  0  0  0  0
  -25.4940  -36.4170   23.9200 C   0  0  0  0  0  3  0  0  0  0  0  0
  -27.6320  -37.3410   24.7000 C   0  0  0  0  0  1  0  0  0  0  0  0
  -26.5140  -37.4780   23.7680 N   0  0  0  0  0  0  0  0  0  0  0  0
  -26.1010  -38.3970   23.8990 H   0  0  0  0  0  0  0  0  0  0  0  0
  -26.5100  -31.8370   25.2650 C   0  0  1  0  0  0  0  0  0  0  0  0
  -25.4110  -31.6040   26.3280 C   0  0  0  0  0  1  0  0  0  0  0  0
  -27.1090  -30.4590   24.9020 C   0  0  0  0  0  1  0  0  0  0  0  0
  -27.6490  -32.6540   25.9190 C   0  0  0  0  0  1  0  0  0  0  0  0
  -31.6390  -18.2300   20.5090 C   0  0  0  0  0  2  0  0  0  0  0  0
  -30.6060  -17.0730   20.2960 C   0  0  0  0  0  2  0  0  0  0  0  0
  -31.5370  -14.7260   20.2590 C   0  0  0  0  0  0  0  0  0  0  0  0
  -31.1700  -12.5250   19.1730 C   0  0  0  0  0  2  0  0  0  0  0  0
  -30.2300  -12.6830   17.9590 C   0  0  0  0  0  2  0  0  0  0  0  0
  -28.7510  -12.6050   18.3890 C   0  0  0  0  0  2  0  0  0  0  0  0
  -28.4400  -13.5120   19.6070 C   0  0  0  0  0  3  0  0  0  0  0  0
  -29.4820  -13.3020   20.7250 C   0  0  0  0  0  2  0  0  0  0  0  0
  -30.8230  -13.5610   20.1630 N   0  0  0  0  0  0  0  0  0  0  0  0
  -32.5930  -14.9010   19.6430 O   0  0  0  0  0  0  0  0  0  0  0  0
  -30.8600  -15.7360   22.3830 C   0  0  0  0  0  1  0  0  0  0  0  0
  -30.9410  -15.7590   20.9180 N   0  0  0  0  0  0  0  0  0  0  0  0
  -26.0840  -14.2420   20.3440 C   0  0  0  0  0  0  0  0  0  0  0  0
  -24.9780  -13.5250   20.7140 C   0  0  0  0  0  0  0  0  0  0  0  0
  -25.3620  -12.1490   20.6620 C   0  0  0  0  0  0  0  0  0  0  0  0
  -27.0770  -13.3070   20.0930 N   0  0  0  0  0  0  0  0  0  0  0  0
  -26.6450  -12.0420   20.3400 N   0  0  0  0  0  0  0  0  0  0  0  0
  -24.5680  -10.9280   20.8440 C   0  0  0  0  0  0  0  0  0  0  0  0
  -24.9130   -9.9590   21.8110 C   0  0  0  0  0  3  0  0  0  0  0  0
  -24.1220   -8.8020   21.9800 C   0  0  0  0  0  3  0  0  0  0  0  0
  -22.9720   -8.6050   21.1790 C   0  0  0  0  0  0  0  0  0  0  0  0
  -22.6460   -9.5630   20.2020 C   0  0  0  0  0  3  0  0  0  0  0  0
  -23.4360  -10.7110   20.0320 C   0  0  0  0  0  3  0  0  0  0  0  0
  -22.1590   -7.5000   21.2540 O   0  0  0  0  0  0  0  0  0  0  0  0
  -21.9600   -6.8330   22.4360 C   0  0  0  0  0  0  0  0  0  0  0  0
  -21.4550   -7.4850   23.5830 C   0  0  0  0  0  3  0  0  0  0  0  0
  -21.1980   -6.7470   24.7560 C   0  0  0  0  0  3  0  0  0  0  0  0
  -21.4360   -5.3600   24.7830 C   0  0  0  0  0  0  0  0  0  0  0  0
  -21.9350   -4.7080   23.6400 C   0  0  0  0  0  3  0  0  0  0  0  0
  -22.1930   -5.4430   22.4700 C   0  0  0  0  0  0  0  0  0  0  0  0
  -22.6520   -4.8070   21.3650 F   0  0  0  0  0  0  0  0  0  0  0  0
  -21.1830   -4.6490   25.9060 F   0  0  0  0  0  0  0  0  0  0  0  0
  -23.6120  -14.0760   21.0070 C   0  0  0  0  0  0  0  0  0  0  0  0
  -22.8650  -13.4240   21.8910 N   0  0  0  0  0  0  0  0  0  0  0  0
  -23.2190  -15.1200   20.4880 O   0  0  0  0  0  0  0  0  0  0  0  0
  -23.1940  -12.5780   22.3310 H   0  0  0  0  0  0  0  0  0  0  0  0
  -21.9500  -13.7770   22.1330 H   0  0  0  0  0  0  0  0  0  0  0  0
  -26.3240  -15.6030   20.1830 N   0  0  0  0  0  0  0  0  0  0  0  0
  -25.5970  -16.3000   20.3080 H   0  0  0  0  0  0  0  0  0  0  0  0
  -27.1980  -15.9960   19.8590 H   0  0  0  0  0  0  0  0  0  0  0  0
  1  2  2  0
  1  4  1  0
  2  5  1  0
  3  7  1  0
  4  3  1  0
  5  3  1  0
  5  6  1  0
  7 10  1  1
  7  9  1  0
  8  7  1  0
 11  2  1  0
 11 12  1  0
 13 14  1  0
 13 12  1  0
 15 26  2  0
 16 14  1  0
 16 21  1  0
 17 25  1  0
 17 27  1  0
 18 24  1  0
 18 20  1  0
 19 25  1  0
 20 21  2  0
 20 19  1  0
 22 23  1  0
 22 16  2  0
 23 18  2  0
 24 17  1  0
 25 15  1  0
 27 29  2  0
 28 27  1  0
 30 28  1  0
 31 40  2  0
 31 36  1  0
 32 28  1  0
 32 36  1  0
 33 32  1  0
 34 35  1  0
 34 33  1  0
 35 31  1  0
 36 37  2  0
 37 38  1  0
 39 38  2  0
 40 39  1  0
 41 15  1  0
 41 42  1  0
 41 51  1  0
 42 45  1  0
 43 47  1  0
 43 42  1  0
 44 43  2  0
 47 46  1  0
 49 50  1  0
 49 47  1  0
 49 48  1  0
 51 54  1  1
 51 52  1  0
 53 51  1  0
 55  4  1  0
 56 55  1  0
 56 66  1  0
 57 66  1  0
 58 63  1  0
 59 60  1  0
 59 58  1  0
 61 60  1  0
 61 70  1  0
 61 62  1  0
 63 57  1  0
 63 62  1  0
 64 57  2  0
 66 65  1  0
 67 68  2  0
 68 87  1  0
 69 68  1  0
 69 72  1  0
 70 71  1  0
 70 67  1  0
 71 69  2  0
 72 73  1  0
 73 74  2  0
 75 78  1  0
 75 74  1  0
 76 75  2  0
 77 76  1  0
 77 72  2  0
 78 79  1  0
 79 84  2  0
 79 80  1  0
 80 81  2  0
 81 82  1  0
 82 86  1  0
 83 82  2  0
 84 83  1  0
 85 84  1  0
 87 88  1  0
 88 91  1  0
 88 90  1  0
 89 87  2  0
 92 93  1  0
 92 67  1  0
 94 92  1  0
M  ISO  4  13 101  14 101  57 100  66 100
M  END
>  <TORSDO>  (70) 
F 22

>  <SCORE>  (70) 
-12.290

>  <name>  (70) 
71

>  <ligand_id>  (70) 
71

>  <original_smiles>  (70) 
[H]c1c([H])c([H])c2c(c1[H])C([H])([H])C([H])([H])C([H])([H])C2([H])N([H])C(=O)C1([H])N(C(=O)C([H])(N([H])C(=O)C([H])(N([H])C([H])([H])[H])C([H])([H])[H])C(C([H])([H])[H])(C([H])([H])[H])C([H])([H])[H])C([H])([H])c2c([H])c(OC([H])([H])C([H])([H])C([H])([H])c3c([H])n(C([H])([H])C([H])([H])N(C(=O)N4C([H])([H])C([H])([H])C([H])([H])C([H])(n5nc(-c6c([H])c([H])c(Oc7c([H])c([H])c(F)c([H])c7F)c([H])c6[H])c(C(=O)N([H])[H])c5N([H])[H])C4([H])[H])C([H])([H])[H])c(C(F)(F)F)[n+]3[H])c([H])c([H])c2C1([H])[H]

>  <smiles>  (70) 
[H]c1c([H])c([H])c2c(c1[H])C([H])([H])C([H])([H])C([H])([H])C2([H])N([H])C(=O)C1([H])N(C(=O)C([H])(N([H])C(=O)C([H])(N([H])C([H])([H])[H])C([H])([H])[H])C(C([H])([H])[H])(C([H])([H])[H])C([H])([H])[H])C([H])([H])c2c([H])c(OC([H])([H])C([H])([H])C([H])([H])c3c([H])n(C([H])([H])C([H])([H])N(C(=O)N4C([H])([H])C([H])([H])C([H])([H])C([H])(n5nc(-c6c([H])c([H])c(Oc7c([H])c([H])c(F)c([H])c7F)c([H])c6[H])c(C(=O)N([H])[H])c5N([H])[H])C4([H])[H])C([H])([H])[H])c(C(F)(F)F)[n+]3[H])c([H])c([H])c2C1([H])[H]

$$$$
72:0:0
     RDKit          3D

 93101  0  0  1  0  0  0  0  0999 V2000
  -28.8240  -20.6650   20.7340 C   0  0  0  0  0  3  0  0  0  0  0  0
  -29.6140  -19.5320   20.8200 C   0  0  0  0  0  0  0  0  0  0  0  0
  -30.8820  -21.3630   21.1480 C   0  0  0  0  0  3  0  0  0  0  0  0
  -32.0950  -22.1820   21.4490 C   0  0  0  0  0  1  0  0  0  0  0  0
  -29.6150  -21.7790   20.9540 N   0  0  0  0  0  0  0  0  0  0  0  0
  -30.8770  -20.0220   21.0580 N   0  0  0  0  0  0  0  0  0  0  0  0
  -31.7070  -19.4560   21.1840 H   0  0  0  0  0  0  0  0  0  0  0  0
  -29.2430  -18.0480   20.7490 C   0  0  0  0  0  2  0  0  0  0  0  0
  -30.4080  -17.0040   20.7610 C   0  0  0  0  0  2  0  0  0  0  0  0
  -30.6740  -14.5250   20.3020 C   0  0  0  0  0  0  0  0  0  0  0  0
  -30.3700  -12.3430   19.1850 C   0  0  0  0  0  2  0  0  0  0  0  0
  -29.4050  -12.5240   17.9930 C   0  0  0  0  0  2  0  0  0  0  0  0
  -27.9390  -12.3810   18.4490 C   0  0  0  0  0  2  0  0  0  0  0  0
  -27.6170  -13.2250   19.7130 C   0  0  0  0  0  3  0  0  0  0  0  0
  -28.6960  -13.0320   20.8030 C   0  0  0  0  0  2  0  0  0  0  0  0
  -30.0040  -13.3420   20.2040 N   0  0  0  0  0  0  0  0  0  0  0  0
  -31.8080  -14.6830   19.8460 O   0  0  0  0  0  0  0  0  0  0  0  0
  -29.9630  -15.5820   20.7610 N   0  0  0  0  0  0  0  0  0  0  0  0
  -29.0300  -15.3830   21.0890 H   0  0  0  0  0  0  0  0  0  0  0  0
  -25.2340  -13.8200   20.4760 C   0  0  0  0  0  0  0  0  0  0  0  0
  -24.1740  -13.0450   20.8640 C   0  0  0  0  0  0  0  0  0  0  0  0
  -24.6360  -11.6930   20.8160 C   0  0  0  0  0  0  0  0  0  0  0  0
  -26.2760  -12.9430   20.2190 N   0  0  0  0  0  0  0  0  0  0  0  0
  -25.9200  -11.6570   20.4800 N   0  0  0  0  0  0  0  0  0  0  0  0
  -23.9130  -10.4300   21.0110 C   0  0  0  0  0  0  0  0  0  0  0  0
  -24.3540   -9.4650   21.9440 C   0  0  0  0  0  3  0  0  0  0  0  0
  -23.6330   -8.2650   22.1270 C   0  0  0  0  0  3  0  0  0  0  0  0
  -22.4570   -8.0230   21.3780 C   0  0  0  0  0  0  0  0  0  0  0  0
  -22.0360   -8.9760   20.4340 C   0  0  0  0  0  3  0  0  0  0  0  0
  -22.7580  -10.1670   20.2490 C   0  0  0  0  0  3  0  0  0  0  0  0
  -21.7050   -6.8770   21.4710 O   0  0  0  0  0  0  0  0  0  0  0  0
  -21.6550   -6.1410   22.6280 C   0  0  0  0  0  0  0  0  0  0  0  0
  -21.1950   -6.6930   23.8430 C   0  0  0  0  0  3  0  0  0  0  0  0
  -21.0960   -5.8820   24.9910 C   0  0  0  0  0  3  0  0  0  0  0  0
  -21.4450   -4.5200   24.9260 C   0  0  0  0  0  0  0  0  0  0  0  0
  -21.8980   -3.9670   23.7140 C   0  0  0  0  0  3  0  0  0  0  0  0
  -22.0000   -4.7760   22.5680 C   0  0  0  0  0  0  0  0  0  0  0  0
  -22.4160   -4.2320   21.3990 F   0  0  0  0  0  0  0  0  0  0  0  0
  -21.3420   -3.7390   26.0250 F   0  0  0  0  0  0  0  0  0  0  0  0
  -22.7820  -13.5190   21.1690 C   0  0  0  0  0  0  0  0  0  0  0  0
  -22.0690  -12.8130   22.0380 N   0  0  0  0  0  0  0  0  0  0  0  0
  -22.3370  -14.5530   20.6720 O   0  0  0  0  0  0  0  0  0  0  0  0
  -22.4420  -11.9780   22.4670 H   0  0  0  0  0  0  0  0  0  0  0  0
  -21.1340  -13.1100   22.2810 H   0  0  0  0  0  0  0  0  0  0  0  0
  -25.3930  -15.1920   20.3030 N   0  0  0  0  0  0  0  0  0  0  0  0
  -24.6220  -15.8410   20.4160 H   0  0  0  0  0  0  0  0  0  0  0  0
  -26.2250  -15.6270   19.9260 H   0  0  0  0  0  0  0  0  0  0  0  0
  -29.1470  -23.2050   21.0590 C   0  0  0  0  0  2  0  0  0  0  0  0
  -30.6550  -24.9050   19.8440 C   0  0  0  0  0  1  0  0  0  0  0  0
  -29.2960  -23.2990   18.5120 C   0  0  0  0  0  1  0  0  0  0  0  0
  -29.3120  -24.1530   19.8030 C   0  0  1  0  0  0  0  0  0  0  0  0
  -28.1420  -25.2050   19.6840 C   0  0  0  0  0  2  0  0  0  0  0  0
  -28.3030  -26.5720   20.1650 O   0  0  0  0  0  0  0  0  0  0  0  0
  -24.5770  -31.9000   23.2050 C   0  0  0  0  0  0  0  0  0  0  0  0
  -27.1660  -27.3830   20.1230 C   0  0  0  0  0  0  0  0  0  0  0  0
  -23.3610  -30.5120   21.5660 C   0  0  0  0  0  3  0  0  0  0  0  0
  -24.7990  -28.9710   20.1360 C   0  0  0  0  0  0  0  0  0  0  0  0
  -25.8980  -30.8320   21.3740 C   0  0  0  0  0  2  0  0  0  0  0  0
  -25.9700  -29.4580   20.7290 C   0  0  0  0  0  0  0  0  0  0  0  0
  -27.1550  -28.6740   20.7220 C   0  0  0  0  0  3  0  0  0  0  0  0
  -25.9660  -26.9420   19.5070 C   0  0  0  0  0  3  0  0  0  0  0  0
  -24.7950  -27.7140   19.5200 C   0  0  0  0  0  3  0  0  0  0  0  0
  -23.5660  -29.8420   20.1840 C   0  0  0  0  0  2  0  0  0  0  0  0
  -24.6320  -31.0960   22.1060 N   0  0  0  0  0  0  0  0  0  0  0  0
  -23.4970  -32.1810   23.7430 O   0  0  0  0  0  0  0  0  0  0  0  0
  -22.7000  -29.4920   22.5230 C   0  0  0  0  0  0  0  0  0  0  0  0
  -21.3720  -29.3280   22.4020 N   0  0  0  0  0  0  0  0  0  0  0  0
  -23.3780  -28.8530   23.3320 O   0  0  0  0  0  0  0  0  0  0  0  0
  -20.8850  -29.8950   21.7220 H   0  0  0  0  0  0  0  0  0  0  0  0
  -17.9810  -28.1900   22.9310 C   0  0  0  0  0  0  0  0  0  0  0  0
  -20.5460  -28.3960   23.1730 C   0  0  0  0  0  3  0  0  0  0  0  0
  -20.6140  -26.9700   22.5820 C   0  0  0  0  0  2  0  0  0  0  0  0
  -19.4950  -26.6770   21.5790 C   0  0  0  0  0  2  0  0  0  0  0  0
  -18.1230  -26.8430   22.2410 C   0  0  0  0  0  2  0  0  0  0  0  0
  -19.1180  -28.9260   23.3540 C   0  0  0  0  0  0  0  0  0  0  0  0
  -18.9300  -30.1880   23.9590 C   0  0  0  0  0  3  0  0  0  0  0  0
  -17.6380  -30.7120   24.1430 C   0  0  0  0  0  3  0  0  0  0  0  0
  -16.5150  -29.9720   23.7350 C   0  0  0  0  0  3  0  0  0  0  0  0
  -16.6870  -28.7130   23.1350 C   0  0  0  0  0  3  0  0  0  0  0  0
  -25.8670  -32.5230   23.8250 C   0  0  0  0  0  3  0  0  0  0  0  0
  -25.5620  -33.9160   24.1720 N   0  0  0  0  0  0  0  0  0  0  0  0
  -25.8920  -34.9770   23.4210 C   0  0  0  0  0  0  0  0  0  0  0  0
  -26.5580  -34.8830   22.3850 O   0  0  0  0  0  0  0  0  0  0  0  0
  -24.9710  -34.0640   24.9760 H   0  0  0  0  0  0  0  0  0  0  0  0
  -24.1770  -36.7840   23.0790 C   0  0  0  0  0  1  0  0  0  0  0  0
  -25.4090  -36.3610   23.8940 C   0  0  0  0  0  3  0  0  0  0  0  0
  -27.5390  -37.2240   24.7580 C   0  0  0  0  0  1  0  0  0  0  0  0
  -26.4500  -37.4090   23.8040 N   0  0  0  0  0  0  0  0  0  0  0  0
  -26.0470  -38.3300   23.9560 H   0  0  0  0  0  0  0  0  0  0  0  0
  -26.3890  -31.7350   25.0880 C   0  0  1  0  0  0  0  0  0  0  0  0
  -25.3020  -31.4840   26.1580 C   0  0  0  0  0  1  0  0  0  0  0  0
  -26.9690  -30.3620   24.6740 C   0  0  0  0  0  1  0  0  0  0  0  0
  -27.5440  -32.5200   25.7540 C   0  0  0  0  0  1  0  0  0  0  0  0
  1  2  2  0
  1  5  1  0
  2  6  1  0
  3  4  1  0
  5 48  1  0
  5  3  1  0
  6  3  1  0
  6  7  1  0
  8  9  1  0
  8  2  1  0
 10 18  1  0
 11 16  1  0
 12 13  1  0
 12 11  1  0
 14 13  1  0
 14 23  1  0
 14 15  1  0
 16 10  1  0
 16 15  1  0
 17 10  2  0
 18  9  1  0
 18 19  1  0
 20 21  2  0
 21 40  1  0
 22 21  1  0
 22 25  1  0
 23 20  1  0
 23 24  1  0
 24 22  2  0
 25 26  1  0
 26 27  2  0
 28 31  1  0
 28 27  1  0
 29 28  2  0
 30 29  1  0
 30 25  2  0
 31 32  1  0
 32 33  1  0
 33 34  2  0
 35 34  1  0
 35 39  1  0
 36 35  2  0
 37 32  2  0
 37 36  1  0
 38 37  1  0
 40 41  1  0
 41 44  1  0
 41 43  1  0
 42 40  2  0
 45 46  1  0
 45 20  1  0
 47 45  1  0
 51 50  1  6
 51 49  1  0
 51 48  1  0
 52 51  1  0
 52 53  1  0
 54 65  2  0
 55 53  1  0
 55 60  1  0
 56 64  1  0
 56 66  1  0
 57 63  1  0
 57 59  1  0
 58 64  1  0
 59 58  1  0
 60 59  2  0
 61 62  1  0
 61 55  2  0
 62 57  2  0
 63 56  1  0
 64 54  1  0
 66 68  2  0
 67 66  1  0
 69 67  1  0
 70 79  2  0
 70 75  1  0
 71 67  1  0
 71 75  1  0
 72 71  1  0
 73 74  1  0
 73 72  1  0
 74 70  1  0
 75 76  2  0
 76 77  1  0
 78 77  2  0
 79 78  1  0
 80 54  1  0
 80 81  1  0
 80 90  1  0
 81 84  1  0
 82 86  1  0
 82 81  1  0
 83 82  2  0
 86 85  1  0
 88 86  1  0
 88 89  1  0
 88 87  1  0
 90 93  1  1
 90 91  1  0
 92 90  1  0
M  ISO  4  10 100  18 100  52 101  53 101
M  END
>  <TORSDO>  (71) 
F 21

>  <SCORE>  (71) 
-13.362

>  <name>  (71) 
72

>  <ligand_id>  (71) 
72

>  <original_smiles>  (71) 
[H]c1c([H])c([H])c2c(c1[H])C([H])([H])C([H])([H])C([H])([H])C2([H])N([H])C(=O)C1([H])N(C(=O)C([H])(N([H])C(=O)C([H])(N([H])C([H])([H])[H])C([H])([H])[H])C(C([H])([H])[H])(C([H])([H])[H])C([H])([H])[H])C([H])([H])c2c([H])c(OC([H])([H])C(C([H])([H])[H])(C([H])([H])[H])C([H])([H])n3c([H])c(C([H])([H])C([H])([H])N([H])C(=O)N4C([H])([H])C([H])([H])C([H])([H])C([H])(n5nc(-c6c([H])c([H])c(Oc7c([H])c([H])c(F)c([H])c7F)c([H])c6[H])c(C(=O)N([H])[H])c5N([H])[H])C4([H])[H])[n+]([H])c3C([H])([H])[H])c([H])c([H])c2C1([H])[H]

>  <smiles>  (71) 
[H]c1c([H])c([H])c2c(c1[H])C([H])([H])C([H])([H])C([H])([H])C2([H])N([H])C(=O)C1([H])N(C(=O)C([H])(N([H])C(=O)C([H])(N([H])C([H])([H])[H])C([H])([H])[H])C(C([H])([H])[H])(C([H])([H])[H])C([H])([H])[H])C([H])([H])c2c([H])c(OC([H])([H])C(C([H])([H])[H])(C([H])([H])[H])C([H])([H])n3c([H])c(C([H])([H])C([H])([H])N([H])C(=O)N4C([H])([H])C([H])([H])C([H])([H])C([H])(n5nc(-c6c([H])c([H])c(Oc7c([H])c([H])c(F)c([H])c7F)c([H])c6[H])c(C(=O)N([H])[H])c5N([H])[H])C4([H])[H])[n+]([H])c3C([H])([H])[H])c([H])c([H])c2C1([H])[H]

$$$$
73:0:0
     RDKit          3D

 90 98  0  0  1  0  0  0  0  0999 V2000
  -27.8680  -21.9390   21.6490 C   0  0  0  0  0  2  0  0  0  0  0  0
  -28.6130  -23.2910   20.0170 C   0  0  0  0  0  0  0  0  0  0  0  0
  -29.1480  -20.8920   20.1110 C   0  0  0  0  0  0  0  0  0  0  0  0
  -27.9240  -23.1700   21.1430 N   0  0  0  0  0  0  0  0  0  0  0  0
  -28.4210  -20.8030   21.2140 N   0  0  0  0  0  0  0  0  0  0  0  0
  -29.2170  -22.1400   19.4480 N   0  0  0  0  0  2  0  0  0  0  0  0
  -30.7310  -19.6070   18.5030 C   0  0  0  0  0  1  0  0  0  0  0  0
  -28.3800  -18.8560   18.6770 C   0  0  0  0  0  1  0  0  0  0  0  0
  -29.5760  -19.3660   19.4920 C   0  0  2  0  0  0  0  0  0  0  0  0
  -30.1300  -18.0140   20.4280 C   0  0  0  0  0  2  0  0  0  0  0  0
  -30.7030  -15.2190   20.1880 C   0  0  0  0  0  0  0  0  0  0  0  0
  -30.6080  -12.8280   19.2980 C   0  0  0  0  0  2  0  0  0  0  0  0
  -29.6900  -12.7830   18.0570 C   0  0  0  0  0  2  0  0  0  0  0  0
  -28.2080  -12.5960   18.4660 C   0  0  0  0  0  2  0  0  0  0  0  0
  -27.8100  -13.4540   19.7010 C   0  0  0  0  0  3  0  0  0  0  0  0
  -28.8830  -13.4870   20.8060 C   0  0  0  0  0  2  0  0  0  0  0  0
  -30.1220  -13.9420   20.1590 N   0  0  0  0  0  0  0  0  0  0  0  0
  -31.9270  -15.2610   20.0140 O   0  0  0  0  0  0  0  0  0  0  0  0
  -29.9110  -16.4230   20.1990 N   0  0  0  0  0  0  0  0  0  0  0  0
  -28.9330  -16.1810   20.2410 H   0  0  0  0  0  0  0  0  0  0  0  0
  -25.4410  -13.9950   20.4860 C   0  0  0  0  0  0  0  0  0  0  0  0
  -24.3850  -13.2100   20.8570 C   0  0  0  0  0  0  0  0  0  0  0  0
  -24.8540  -11.8580   20.7950 C   0  0  0  0  0  0  0  0  0  0  0  0
  -26.4820  -13.1260   20.2110 N   0  0  0  0  0  0  0  0  0  0  0  0
  -26.1420  -11.8320   20.4640 N   0  0  0  0  0  0  0  0  0  0  0  0
  -24.1250  -10.5960   20.9700 C   0  0  0  0  0  0  0  0  0  0  0  0
  -24.5250   -9.6410   21.9300 C   0  0  0  0  0  3  0  0  0  0  0  0
  -23.7970   -8.4420   22.0980 C   0  0  0  0  0  3  0  0  0  0  0  0
  -22.6520   -8.1940   21.3020 C   0  0  0  0  0  0  0  0  0  0  0  0
  -22.2670   -9.1390   20.3320 C   0  0  0  0  0  3  0  0  0  0  0  0
  -22.9970  -10.3290   20.1670 C   0  0  0  0  0  3  0  0  0  0  0  0
  -21.8940   -7.0490   21.3770 O   0  0  0  0  0  0  0  0  0  0  0  0
  -21.7630   -6.3420   22.5470 C   0  0  0  0  0  0  0  0  0  0  0  0
  -21.1840   -6.9160   23.7000 C   0  0  0  0  0  3  0  0  0  0  0  0
  -21.0050   -6.1360   24.8610 C   0  0  0  0  0  3  0  0  0  0  0  0
  -21.3940   -4.7820   24.8650 C   0  0  0  0  0  0  0  0  0  0  0  0
  -21.9600   -4.2060   23.7140 C   0  0  0  0  0  3  0  0  0  0  0  0
  -22.1440   -4.9850   22.5590 C   0  0  0  0  0  0  0  0  0  0  0  0
  -22.6720   -4.4190   21.4460 F   0  0  0  0  0  0  0  0  0  0  0  0
  -21.2170   -4.0310   25.9760 F   0  0  0  0  0  0  0  0  0  0  0  0
  -22.9910  -13.6830   21.1460 C   0  0  0  0  0  0  0  0  0  0  0  0
  -22.2630  -12.9730   21.9980 N   0  0  0  0  0  0  0  0  0  0  0  0
  -22.5540  -14.7230   20.6520 O   0  0  0  0  0  0  0  0  0  0  0  0
  -22.6330  -12.1380   22.4300 H   0  0  0  0  0  0  0  0  0  0  0  0
  -21.3240  -13.2700   22.2200 H   0  0  0  0  0  0  0  0  0  0  0  0
  -25.5870  -15.3720   20.3380 N   0  0  0  0  0  0  0  0  0  0  0  0
  -24.7900  -15.9890   20.4730 H   0  0  0  0  0  0  0  0  0  0  0  0
  -26.3890  -15.8380   19.9380 H   0  0  0  0  0  0  0  0  0  0  0  0
  -28.5330  -24.8310   19.3380 C   0  0  0  0  0  2  0  0  0  0  0  0
  -28.3990  -26.2470   20.0500 O   0  0  0  0  0  0  0  0  0  0  0  0
  -24.6700  -31.9230   23.0800 C   0  0  0  0  0  0  0  0  0  0  0  0
  -27.3240  -27.2270   19.9700 C   0  0  0  0  0  0  0  0  0  0  0  0
  -23.4950  -30.5190   21.4320 C   0  0  0  0  0  3  0  0  0  0  0  0
  -24.9620  -28.9640   19.9890 C   0  0  0  0  0  0  0  0  0  0  0  0
  -26.0490  -30.8000   21.2770 C   0  0  0  0  0  2  0  0  0  0  0  0
  -26.1370  -29.4090   20.6070 C   0  0  0  0  0  0  0  0  0  0  0  0
  -27.3100  -28.5560   20.5820 C   0  0  0  0  0  3  0  0  0  0  0  0
  -26.1160  -26.8940   19.3210 C   0  0  0  0  0  3  0  0  0  0  0  0
  -24.9670  -27.7190   19.3370 C   0  0  0  0  0  3  0  0  0  0  0  0
  -23.7260  -29.8510   20.0490 C   0  0  0  0  0  2  0  0  0  0  0  0
  -24.7610  -31.1040   21.9850 N   0  0  0  0  0  0  0  0  0  0  0  0
  -23.5790  -32.1970   23.6010 O   0  0  0  0  0  0  0  0  0  0  0  0
  -22.8250  -29.5020   22.3900 C   0  0  0  0  0  0  0  0  0  0  0  0
  -21.4940  -29.3260   22.2710 N   0  0  0  0  0  0  0  0  0  0  0  0
  -23.5020  -28.8700   23.2050 O   0  0  0  0  0  0  0  0  0  0  0  0
  -21.0030  -29.8930   21.5920 H   0  0  0  0  0  0  0  0  0  0  0  0
  -18.1130  -28.1380   22.8180 C   0  0  0  0  0  0  0  0  0  0  0  0
  -20.6800  -28.3760   23.0330 C   0  0  0  0  0  3  0  0  0  0  0  0
  -20.7560  -26.9590   22.4220 C   0  0  0  0  0  2  0  0  0  0  0  0
  -19.6320  -26.6680   21.4250 C   0  0  0  0  0  2  0  0  0  0  0  0
  -18.2650  -26.8070   22.1010 C   0  0  0  0  0  2  0  0  0  0  0  0
  -19.2460  -28.8830   23.2390 C   0  0  0  0  0  0  0  0  0  0  0  0
  -19.0470  -30.1290   23.8710 C   0  0  0  0  0  3  0  0  0  0  0  0
  -17.7510  -30.6320   24.0840 C   0  0  0  0  0  3  0  0  0  0  0  0
  -16.6310  -29.8840   23.6750 C   0  0  0  0  0  3  0  0  0  0  0  0
  -16.8150  -28.6380   23.0490 C   0  0  0  0  0  3  0  0  0  0  0  0
  -25.9380  -32.5710   23.7200 C   0  0  0  0  0  3  0  0  0  0  0  0
  -26.4620  -31.7950   24.9900 C   0  0  1  0  0  0  0  0  0  0  0  0
  -25.3630  -31.5020   26.0400 C   0  0  0  0  0  1  0  0  0  0  0  0
  -27.0980  -30.4450   24.5840 C   0  0  0  0  0  1  0  0  0  0  0  0
  -27.5780  -32.6140   25.6860 C   0  0  0  0  0  1  0  0  0  0  0  0
  -25.6010  -33.9600   24.0740 N   0  0  0  0  0  0  0  0  0  0  0  0
  -25.9160  -35.0360   23.3430 C   0  0  0  0  0  0  0  0  0  0  0  0
  -26.5900  -34.9690   22.3120 O   0  0  0  0  0  0  0  0  0  0  0  0
  -25.0080  -34.0870   24.8820 H   0  0  0  0  0  0  0  0  0  0  0  0
  -24.1750  -36.8250   23.0150 C   0  0  0  0  0  1  0  0  0  0  0  0
  -25.4070  -36.4070   23.8330 C   0  0  0  0  0  3  0  0  0  0  0  0
  -27.5090  -37.2990   24.7350 C   0  0  0  0  0  1  0  0  0  0  0  0
  -26.4290  -37.4740   23.7690 N   0  0  0  0  0  0  0  0  0  0  0  0
  -26.0050  -38.3850   23.9280 H   0  0  0  0  0  0  0  0  0  0  0  0
  2  4  2  0
  3  5  2  0
  4  1  1  0
  5  1  1  0
  6  2  1  0
  6  3  1  0
  9  7  1  6
  8  9  1  0
  9  3  1  0
  9 10  1  0
 11 19  1  0
 12 17  1  0
 13 14  1  0
 13 12  1  0
 15 14  1  0
 15 24  1  0
 15 16  1  0
 17 11  1  0
 17 16  1  0
 18 11  2  0
 19 20  1  0
 19 10  1  0
 21 22  2  0
 22 41  1  0
 23 22  1  0
 23 26  1  0
 24 25  1  0
 24 21  1  0
 25 23  2  0
 26 27  1  0
 27 28  2  0
 29 32  1  0
 29 28  1  0
 30 29  2  0
 31 30  1  0
 31 26  2  0
 32 33  1  0
 33 38  2  0
 33 34  1  0
 34 35  2  0
 35 36  1  0
 36 40  1  0
 37 36  2  0
 38 37  1  0
 39 38  1  0
 41 42  1  0
 42 45  1  0
 42 44  1  0
 43 41  2  0
 46 47  1  0
 46 21  1  0
 48 46  1  0
 49  2  1  0
 49 50  1  0
 51 62  2  0
 52 50  1  0
 52 57  1  0
 53 61  1  0
 53 63  1  0
 54 60  1  0
 54 56  1  0
 55 61  1  0
 56 55  1  0
 57 56  2  0
 58 59  1  0
 58 52  2  0
 59 54  2  0
 60 53  1  0
 61 51  1  0
 63 65  2  0
 64 63  1  0
 66 64  1  0
 67 76  2  0
 67 72  1  0
 68 64  1  0
 68 72  1  0
 69 68  1  0
 70 71  1  0
 70 69  1  0
 71 67  1  0
 72 73  2  0
 73 74  1  0
 75 74  2  0
 76 75  1  0
 77 51  1  0
 77 82  1  0
 77 78  1  0
 78 81  1  1
 78 79  1  0
 80 78  1  0
 82 85  1  0
 83 87  1  0
 83 82  1  0
 84 83  2  0
 87 86  1  0
 89 87  1  0
 89 90  1  0
 89 88  1  0
M  ISO  4  11 100  19 100  49 101  50 101
M  END
>  <TORSDO>  (72) 
F 19

>  <SCORE>  (72) 
-15.091

>  <name>  (72) 
73

>  <ligand_id>  (72) 
73

>  <original_smiles>  (72) 
[H]c1nc(C([H])([H])Oc2c([H])c([H])c3c(c2[H])C([H])([H])N(C(=O)C([H])(N([H])C(=O)C([H])(N([H])C([H])([H])[H])C([H])([H])[H])C(C([H])([H])[H])(C([H])([H])[H])C([H])([H])[H])C([H])(C(=O)N([H])C2([H])c4c([H])c([H])c([H])c([H])c4C([H])([H])C([H])([H])C2([H])[H])C3([H])[H])nc(C(C([H])([H])[H])(C([H])([H])[H])C([H])([H])N([H])C(=O)N2C([H])([H])C([H])([H])C([H])([H])C([H])(n3nc(-c4c([H])c([H])c(Oc5c([H])c([H])c(F)c([H])c5F)c([H])c4[H])c(C(=O)N([H])[H])c3N([H])[H])C2([H])[H])n1

>  <smiles>  (72) 
[H]c1nc(C([H])([H])Oc2c([H])c([H])c3c(c2[H])C([H])([H])N(C(=O)C([H])(N([H])C(=O)C([H])(N([H])C([H])([H])[H])C([H])([H])[H])C(C([H])([H])[H])(C([H])([H])[H])C([H])([H])[H])C([H])(C(=O)N([H])C2([H])c4c([H])c([H])c([H])c([H])c4C([H])([H])C([H])([H])C2([H])[H])C3([H])[H])nc(C(C([H])([H])[H])(C([H])([H])[H])C([H])([H])N([H])C(=O)N2C([H])([H])C([H])([H])C([H])([H])C([H])(n3nc(-c4c([H])c([H])c(Oc5c([H])c([H])c(F)c([H])c5F)c([H])c4[H])c(C(=O)N([H])[H])c3N([H])[H])C2([H])[H])n1

$$$$
74:0:0
     RDKit          3D

 91 99  0  0  1  0  0  0  0  0999 V2000
  -29.3940  -20.8280   20.5270 C   0  0  0  0  0  0  0  0  0  0  0  0
  -30.0800  -18.7340   20.2720 C   0  0  0  0  0  0  0  0  0  0  0  0
  -30.5180  -20.6660   21.2410 N   0  0  0  0  0  0  0  0  0  0  0  0
  -30.9460  -19.3490   21.0880 N   0  0  0  0  0  0  0  0  0  0  0  0
  -29.0700  -19.6160   19.8990 N   0  0  0  0  0  0  0  0  0  0  0  0
  -28.5560  -22.1830   20.6610 C   0  0  0  0  0  2  0  0  0  0  0  0
  -29.0050  -23.6530   20.1310 C   0  0  0  0  0  3  0  0  0  0  0  0
  -28.0670  -24.9220   20.5380 C   0  0  0  0  0  3  0  0  0  0  0  0
  -28.3380  -26.3640   20.1760 O   0  0  0  0  0  0  0  0  0  0  0  0
  -24.6270  -31.8260   23.2290 C   0  0  0  0  0  0  0  0  0  0  0  0
  -27.2490  -27.2690   20.1440 C   0  0  0  0  0  0  0  0  0  0  0  0
  -23.4360  -30.4570   21.5560 C   0  0  0  0  0  3  0  0  0  0  0  0
  -24.9000  -28.9240   20.1160 C   0  0  0  0  0  0  0  0  0  0  0  0
  -25.9820  -30.7640   21.4040 C   0  0  0  0  0  2  0  0  0  0  0  0
  -26.0660  -29.3910   20.7370 C   0  0  0  0  0  0  0  0  0  0  0  0
  -27.2470  -28.5780   20.7360 C   0  0  0  0  0  3  0  0  0  0  0  0
  -26.0650  -26.8770   19.4840 C   0  0  0  0  0  3  0  0  0  0  0  0
  -24.9060  -27.6760   19.4760 C   0  0  0  0  0  3  0  0  0  0  0  0
  -23.6640  -29.8040   20.1680 C   0  0  0  0  0  2  0  0  0  0  0  0
  -24.7010  -31.0340   22.1200 N   0  0  0  0  0  0  0  0  0  0  0  0
  -23.5390  -32.0990   23.7580 O   0  0  0  0  0  0  0  0  0  0  0  0
  -22.7590  -29.4290   22.4940 C   0  0  0  0  0  0  0  0  0  0  0  0
  -21.4300  -29.2730   22.3700 N   0  0  0  0  0  0  0  0  0  0  0  0
  -23.4310  -28.7770   23.2980 O   0  0  0  0  0  0  0  0  0  0  0  0
  -20.9440  -29.8480   21.6950 H   0  0  0  0  0  0  0  0  0  0  0  0
  -18.0360  -28.1220   22.8760 C   0  0  0  0  0  0  0  0  0  0  0  0
  -20.6030  -28.3260   23.1210 C   0  0  0  0  0  3  0  0  0  0  0  0
  -20.6700  -26.9110   22.4990 C   0  0  0  0  0  2  0  0  0  0  0  0
  -19.5510  -26.6450   21.4860 C   0  0  0  0  0  2  0  0  0  0  0  0
  -18.1800  -26.7930   22.1540 C   0  0  0  0  0  2  0  0  0  0  0  0
  -19.1740  -28.8500   23.3150 C   0  0  0  0  0  0  0  0  0  0  0  0
  -18.9850  -30.0970   23.9490 C   0  0  0  0  0  3  0  0  0  0  0  0
  -17.6920  -30.6160   24.1480 C   0  0  0  0  0  3  0  0  0  0  0  0
  -16.5690  -29.8840   23.7240 C   0  0  0  0  0  3  0  0  0  0  0  0
  -16.7430  -28.6400   23.0940 C   0  0  0  0  0  3  0  0  0  0  0  0
  -25.9030  -32.4490   23.8740 C   0  0  0  0  0  3  0  0  0  0  0  0
  -25.6030  -33.8510   24.1970 N   0  0  0  0  0  0  0  0  0  0  0  0
  -25.9510  -34.8990   23.4400 C   0  0  0  0  0  0  0  0  0  0  0  0
  -26.6300  -34.7880   22.4160 O   0  0  0  0  0  0  0  0  0  0  0  0
  -24.9990  -34.0110   24.9910 H   0  0  0  0  0  0  0  0  0  0  0  0
  -24.2400  -36.7070   23.0740 C   0  0  0  0  0  1  0  0  0  0  0  0
  -25.4750  -36.2950   23.8920 C   0  0  0  0  0  3  0  0  0  0  0  0
  -27.6110  -37.1670   24.7290 C   0  0  0  0  0  1  0  0  0  0  0  0
  -26.5170  -37.3380   23.7760 N   0  0  0  0  0  0  0  0  0  0  0  0
  -26.1190  -38.2630   23.9140 H   0  0  0  0  0  0  0  0  0  0  0  0
  -26.3860  -31.6750   25.1620 C   0  0  1  0  0  0  0  0  0  0  0  0
  -25.2670  -31.4540   26.2070 C   0  0  0  0  0  1  0  0  0  0  0  0
  -26.9640  -30.2910   24.7890 C   0  0  0  0  0  1  0  0  0  0  0  0
  -27.5320  -32.4590   25.8450 C   0  0  0  0  0  1  0  0  0  0  0  0
  -30.3490  -17.2830   19.6650 C   0  0  0  0  0  2  0  0  0  0  0  0
  -31.0890  -14.8260   20.1080 C   0  0  0  0  0  0  0  0  0  0  0  0
  -30.7440  -12.6200   18.9560 C   0  0  0  0  0  2  0  0  0  0  0  0
  -29.7640  -12.7820   17.7720 C   0  0  0  0  0  2  0  0  0  0  0  0
  -28.3070  -12.6370   18.2480 C   0  0  0  0  0  2  0  0  0  0  0  0
  -28.0160  -13.4810   19.5190 C   0  0  0  0  0  3  0  0  0  0  0  0
  -29.1050  -13.2790   20.5940 C   0  0  0  0  0  2  0  0  0  0  0  0
  -30.3940  -13.6370   19.9830 N   0  0  0  0  0  0  0  0  0  0  0  0
  -32.2250  -14.9010   19.6270 O   0  0  0  0  0  0  0  0  0  0  0  0
  -30.1390  -16.2090   21.9240 C   0  0  0  0  0  1  0  0  0  0  0  0
  -30.4220  -15.9940   20.5030 N   0  0  0  0  0  0  0  0  0  0  0  0
  -25.6670  -14.1470   20.3120 C   0  0  0  0  0  0  0  0  0  0  0  0
  -24.5870  -13.4030   20.7020 C   0  0  0  0  0  0  0  0  0  0  0  0
  -25.0040  -12.0380   20.6480 C   0  0  0  0  0  0  0  0  0  0  0  0
  -26.6750  -13.2360   20.0400 N   0  0  0  0  0  0  0  0  0  0  0  0
  -26.2840  -11.9620   20.3040 N   0  0  0  0  0  0  0  0  0  0  0  0
  -24.2420  -10.7980   20.8500 C   0  0  0  0  0  0  0  0  0  0  0  0
  -24.6440   -9.8300   21.7980 C   0  0  0  0  0  3  0  0  0  0  0  0
  -23.8870   -8.6560   21.9900 C   0  0  0  0  0  3  0  0  0  0  0  0
  -22.7140   -8.4380   21.2300 C   0  0  0  0  0  0  0  0  0  0  0  0
  -22.3280   -9.3910   20.2710 C   0  0  0  0  0  3  0  0  0  0  0  0
  -23.0870  -10.5590   20.0800 C   0  0  0  0  0  3  0  0  0  0  0  0
  -21.9310   -7.3130   21.3250 O   0  0  0  0  0  0  0  0  0  0  0  0
  -21.8110   -6.6170   22.5010 C   0  0  0  0  0  0  0  0  0  0  0  0
  -21.3490   -7.2280   23.6860 C   0  0  0  0  0  3  0  0  0  0  0  0
  -21.1760   -6.4600   24.8540 C   0  0  0  0  0  3  0  0  0  0  0  0
  -21.4560   -5.0810   24.8380 C   0  0  0  0  0  0  0  0  0  0  0  0
  -21.9100   -4.4680   23.6570 C   0  0  0  0  0  3  0  0  0  0  0  0
  -22.0840   -5.2340   22.4910 C   0  0  0  0  0  0  0  0  0  0  0  0
  -22.5030   -4.6350   21.3500 F   0  0  0  0  0  0  0  0  0  0  0  0
  -21.2810   -4.3400   25.9570 F   0  0  0  0  0  0  0  0  0  0  0  0
  -23.2120  -13.9200   21.0160 C   0  0  0  0  0  0  0  0  0  0  0  0
  -22.4930  -13.2490   21.9070 N   0  0  0  0  0  0  0  0  0  0  0  0
  -22.7860  -14.9530   20.5030 O   0  0  0  0  0  0  0  0  0  0  0  0
  -22.8480  -12.4120   22.3450 H   0  0  0  0  0  0  0  0  0  0  0  0
  -21.5690  -13.5760   22.1560 H   0  0  0  0  0  0  0  0  0  0  0  0
  -25.8680  -15.5150   20.1410 N   0  0  0  0  0  0  0  0  0  0  0  0
  -25.1150  -16.1830   20.2680 H   0  0  0  0  0  0  0  0  0  0  0  0
  -26.7240  -15.9370   19.8060 H   0  0  0  0  0  0  0  0  0  0  0  0
  -27.9780  -19.2170   18.9990 C   0  0  0  0  0  2  0  0  0  0  0  0
  -25.9230  -19.7820   17.5760 C   0  0  0  0  0  1  0  0  0  0  0  0
  -26.9490  -20.2840   18.5980 C   0  0  0  0  0  2  0  0  0  0  0  0
  1  6  1  0
  1  3  2  0
  2  4  2  0
  4  3  1  0
  5  2  1  0
  5  1  1  0
  7  8  2  0
  7  6  1  0
  9  8  1  0
 10 21  2  0
 11  9  1  0
 11 16  1  0
 12 20  1  0
 12 22  1  0
 13 19  1  0
 13 15  1  0
 14 20  1  0
 15 14  1  0
 16 15  2  0
 17 11  2  0
 18 17  1  0
 18 13  2  0
 19 12  1  0
 20 10  1  0
 22 24  2  0
 23 22  1  0
 25 23  1  0
 26 35  2  0
 26 31  1  0
 27 23  1  0
 27 31  1  0
 28 27  1  0
 29 30  1  0
 29 28  1  0
 30 26  1  0
 31 32  2  0
 32 33  1  0
 34 33  2  0
 35 34  1  0
 36 10  1  0
 36 37  1  0
 36 46  1  0
 37 40  1  0
 38 42  1  0
 38 37  1  0
 39 38  2  0
 42 41  1  0
 44 42  1  0
 44 45  1  0
 44 43  1  0
 46 49  1  1
 46 47  1  0
 48 46  1  0
 50  2  1  0
 50 60  1  0
 51 60  1  0
 52 57  1  0
 53 54  1  0
 53 52  1  0
 55 54  1  0
 55 64  1  0
 55 56  1  0
 57 51  1  0
 57 56  1  0
 58 51  2  0
 60 59  1  0
 61 62  2  0
 62 81  1  0
 63 62  1  0
 63 66  1  0
 64 65  1  0
 64 61  1  0
 65 63  2  0
 66 67  1  0
 67 68  2  0
 69 72  1  0
 69 68  1  0
 70 69  2  0
 71 70  1  0
 71 66  2  0
 72 73  1  0
 73 74  1  0
 74 75  2  0
 76 75  1  0
 76 80  1  0
 77 76  2  0
 78 73  2  0
 78 77  1  0
 79 78  1  0
 81 82  1  0
 82 85  1  0
 82 84  1  0
 83 81  2  0
 86 87  1  0
 86 61  1  0
 88 86  1  0
 89  5  1  0
 90 91  1  0
 91 89  1  0
M  ISO  4   8 101   9 101  51 100  60 100
M  END
>  <TORSDO>  (73) 
F 22

>  <SCORE>  (73) 
-12.676

>  <name>  (73) 
74

>  <ligand_id>  (73) 
74

>  <original_smiles>  (73) 
[H]c1c([H])c([H])c2c(c1[H])C([H])([H])C([H])([H])C([H])([H])C2([H])N([H])C(=O)C1([H])N(C(=O)C([H])(N([H])C(=O)C([H])(N([H])C([H])([H])[H])C([H])([H])[H])C(C([H])([H])[H])(C([H])([H])[H])C([H])([H])[H])C([H])([H])c2c([H])c(OC([H])([H])C([H])([H])C([H])([H])c3nnc(C([H])([H])N(C(=O)N4C([H])([H])C([H])([H])C([H])([H])C([H])(n5nc(-c6c([H])c([H])c(Oc7c([H])c([H])c(F)c([H])c7F)c([H])c6[H])c(C(=O)N([H])[H])c5N([H])[H])C4([H])[H])C([H])([H])[H])n3C([H])([H])C([H])([H])C([H])([H])[H])c([H])c([H])c2C1([H])[H]

>  <smiles>  (73) 
[H]c1c([H])c([H])c2c(c1[H])C([H])([H])C([H])([H])C([H])([H])C2([H])N([H])C(=O)C1([H])N(C(=O)C([H])(N([H])C(=O)C([H])(N([H])C([H])([H])[H])C([H])([H])[H])C(C([H])([H])[H])(C([H])([H])[H])C([H])([H])[H])C([H])([H])c2c([H])c(OC([H])([H])C([H])([H])C([H])([H])c3nnc(C([H])([H])N(C(=O)N4C([H])([H])C([H])([H])C([H])([H])C([H])(n5nc(-c6c([H])c([H])c(Oc7c([H])c([H])c(F)c([H])c7F)c([H])c6[H])c(C(=O)N([H])[H])c5N([H])[H])C4([H])[H])C([H])([H])[H])n3C([H])([H])C([H])([H])C([H])([H])[H])c([H])c([H])c2C1([H])[H]

$$$$
75:0:0
     RDKit          3D

 91 99  0  0  1  0  0  0  0  0999 V2000
  -29.5120  -19.4640   20.1500 C   0  0  0  0  0  0  0  0  0  0  0  0
  -28.4270  -19.8540   19.2730 C   0  0  0  0  0  0  0  0  0  0  0  0
  -29.8570  -20.6690   20.7060 N   0  0  0  0  0  0  0  0  0  0  0  0
  -28.1280  -21.1630   19.3420 N   0  0  0  0  0  0  0  0  0  0  0  0
  -29.0060  -21.7240   20.2150 N   0  0  0  0  0  0  0  0  0  0  0  0
  -27.6770  -18.9540   18.3180 C   0  0  1  0  0  0  0  0  0  0  0  0
  -28.4090  -17.9070   17.9420 F   0  0  0  0  0  0  0  0  0  0  0  0
  -26.5560  -18.4890   18.8690 F   0  0  0  0  0  0  0  0  0  0  0  0
  -27.3350  -19.6040   17.2060 F   0  0  0  0  0  0  0  0  0  0  0  0
  -30.3210  -17.9830   20.3170 C   0  0  0  0  0  2  0  0  0  0  0  0
  -30.4980  -15.1950   20.3130 C   0  0  0  0  0  0  0  0  0  0  0  0
  -30.4080  -12.8300   19.3160 C   0  0  0  0  0  2  0  0  0  0  0  0
  -29.4490  -12.7240   18.1040 C   0  0  0  0  0  2  0  0  0  0  0  0
  -28.0000  -12.4620   18.5600 C   0  0  0  0  0  2  0  0  0  0  0  0
  -27.5980  -13.3640   19.7520 C   0  0  0  0  0  3  0  0  0  0  0  0
  -28.6830  -13.3610   20.8500 C   0  0  0  0  0  2  0  0  0  0  0  0
  -29.9010  -13.9120   20.2250 N   0  0  0  0  0  0  0  0  0  0  0  0
  -31.7070  -15.2020   20.0440 O   0  0  0  0  0  0  0  0  0  0  0  0
  -28.3910  -16.5500   20.8850 C   0  0  0  0  0  1  0  0  0  0  0  0
  -29.7840  -16.4700   20.4510 N   0  0  0  0  0  0  0  0  0  0  0  0
  -25.2210  -13.9260   20.5210 C   0  0  0  0  0  0  0  0  0  0  0  0
  -24.1670  -13.1440   20.8980 C   0  0  0  0  0  0  0  0  0  0  0  0
  -24.6400  -11.7980   20.8490 C   0  0  0  0  0  0  0  0  0  0  0  0
  -26.2710  -13.0580   20.2680 N   0  0  0  0  0  0  0  0  0  0  0  0
  -25.9310  -11.7700   20.5320 N   0  0  0  0  0  0  0  0  0  0  0  0
  -23.9220  -10.5330   21.0320 C   0  0  0  0  0  0  0  0  0  0  0  0
  -24.3560   -9.5680   21.9670 C   0  0  0  0  0  3  0  0  0  0  0  0
  -23.6350   -8.3670   22.1410 C   0  0  0  0  0  3  0  0  0  0  0  0
  -22.4670   -8.1250   21.3810 C   0  0  0  0  0  0  0  0  0  0  0  0
  -22.0530   -9.0780   20.4360 C   0  0  0  0  0  3  0  0  0  0  0  0
  -22.7720  -10.2700   20.2590 C   0  0  0  0  0  3  0  0  0  0  0  0
  -21.7190   -6.9760   21.4630 O   0  0  0  0  0  0  0  0  0  0  0  0
  -21.6500   -6.2440   22.6210 C   0  0  0  0  0  0  0  0  0  0  0  0
  -21.1650   -6.7970   23.8270 C   0  0  0  0  0  3  0  0  0  0  0  0
  -21.0460   -5.9890   24.9740 C   0  0  0  0  0  3  0  0  0  0  0  0
  -21.4050   -4.6290   24.9190 C   0  0  0  0  0  0  0  0  0  0  0  0
  -21.8830   -4.0760   23.7180 C   0  0  0  0  0  3  0  0  0  0  0  0
  -22.0030   -4.8800   22.5720 C   0  0  0  0  0  0  0  0  0  0  0  0
  -22.4450   -4.3380   21.4120 F   0  0  0  0  0  0  0  0  0  0  0  0
  -21.2830   -3.8490   26.0180 F   0  0  0  0  0  0  0  0  0  0  0  0
  -22.7710  -13.6140   21.1830 C   0  0  0  0  0  0  0  0  0  0  0  0
  -22.0560  -12.9140   22.0550 N   0  0  0  0  0  0  0  0  0  0  0  0
  -22.3230  -14.6350   20.6650 O   0  0  0  0  0  0  0  0  0  0  0  0
  -22.4310  -12.0870   22.4950 H   0  0  0  0  0  0  0  0  0  0  0  0
  -21.1190  -13.2090   22.2880 H   0  0  0  0  0  0  0  0  0  0  0  0
  -25.3530  -15.2980   20.3490 N   0  0  0  0  0  0  0  0  0  0  0  0
  -24.5680  -15.9270   20.4790 H   0  0  0  0  0  0  0  0  0  0  0  0
  -26.1860  -15.7650   20.0180 H   0  0  0  0  0  0  0  0  0  0  0  0
  -29.1420  -23.3130   20.4900 C   0  0  0  0  0  3  0  0  0  0  0  0
  -28.0650  -24.6070   20.1270 C   0  0  0  0  0  3  0  0  0  0  0  0
  -28.2670  -26.1670   20.3590 O   0  0  0  0  0  0  0  0  0  0  0  0
  -24.6320  -31.9480   23.2740 C   0  0  0  0  0  0  0  0  0  0  0  0
  -27.2130  -27.1710   20.2790 C   0  0  0  0  0  0  0  0  0  0  0  0
  -23.4370  -30.5500   21.6320 C   0  0  0  0  0  3  0  0  0  0  0  0
  -24.8880  -28.9540   20.2230 C   0  0  0  0  0  0  0  0  0  0  0  0
  -25.9950  -30.7910   21.4860 C   0  0  0  0  0  2  0  0  0  0  0  0
  -26.0680  -29.3920   20.8380 C   0  0  0  0  0  0  0  0  0  0  0  0
  -27.2280  -28.5190   20.8450 C   0  0  0  0  0  3  0  0  0  0  0  0
  -26.0040  -26.8440   19.6260 C   0  0  0  0  0  3  0  0  0  0  0  0
  -24.8730  -27.6950   19.6000 C   0  0  0  0  0  3  0  0  0  0  0  0
  -23.6660  -29.8620   20.2610 C   0  0  0  0  0  2  0  0  0  0  0  0
  -24.7090  -31.1210   22.1860 N   0  0  0  0  0  0  0  0  0  0  0  0
  -23.5430  -32.2400   23.7940 O   0  0  0  0  0  0  0  0  0  0  0  0
  -22.7460  -29.5550   22.5980 C   0  0  0  0  0  0  0  0  0  0  0  0
  -21.4180  -29.3880   22.4630 N   0  0  0  0  0  0  0  0  0  0  0  0
  -23.4060  -28.9330   23.4340 O   0  0  0  0  0  0  0  0  0  0  0  0
  -20.9400  -29.9390   21.7650 H   0  0  0  0  0  0  0  0  0  0  0  0
  -18.0260  -28.2060   22.9590 C   0  0  0  0  0  0  0  0  0  0  0  0
  -20.5860  -28.4570   23.2330 C   0  0  0  0  0  3  0  0  0  0  0  0
  -20.6810  -27.0230   22.6630 C   0  0  0  0  0  2  0  0  0  0  0  0
  -19.5820  -26.7030   21.6460 C   0  0  0  0  0  2  0  0  0  0  0  0
  -18.1990  -26.8560   22.2840 C   0  0  0  0  0  2  0  0  0  0  0  0
  -19.1470  -28.9660   23.3890 C   0  0  0  0  0  0  0  0  0  0  0  0
  -18.9300  -30.2280   23.9820 C   0  0  0  0  0  3  0  0  0  0  0  0
  -17.6270  -30.7320   24.1480 C   0  0  0  0  0  3  0  0  0  0  0  0
  -16.5210  -29.9710   23.7320 C   0  0  0  0  0  3  0  0  0  0  0  0
  -16.7210  -28.7100   23.1430 C   0  0  0  0  0  3  0  0  0  0  0  0
  -25.9060  -32.5840   23.9080 C   0  0  0  0  0  3  0  0  0  0  0  0
  -26.4030  -31.8210   25.1970 C   0  0  1  0  0  0  0  0  0  0  0  0
  -25.2960  -31.5930   26.2540 C   0  0  0  0  0  1  0  0  0  0  0  0
  -26.9900  -30.4400   24.8290 C   0  0  0  0  0  1  0  0  0  0  0  0
  -27.5470  -32.6180   25.8680 C   0  0  0  0  0  1  0  0  0  0  0  0
  -25.5960  -33.9860   24.2330 N   0  0  0  0  0  0  0  0  0  0  0  0
  -25.9140  -35.0390   23.4680 C   0  0  0  0  0  0  0  0  0  0  0  0
  -26.5650  -34.9320   22.4260 O   0  0  0  0  0  0  0  0  0  0  0  0
  -25.0160  -34.1410   25.0440 H   0  0  0  0  0  0  0  0  0  0  0  0
  -24.1700  -36.8280   23.1540 C   0  0  0  0  0  1  0  0  0  0  0  0
  -25.4370  -36.4300   23.9300 C   0  0  0  0  0  3  0  0  0  0  0  0
  -27.5880  -37.3370   24.6970 C   0  0  0  0  0  1  0  0  0  0  0  0
  -26.4610  -37.4870   23.7780 N   0  0  0  0  0  0  0  0  0  0  0  0
  -26.0550  -38.4070   23.9230 H   0  0  0  0  0  0  0  0  0  0  0  0
  1 10  1  0
  1  3  2  0
  2  4  2  0
  2  1  1  0
  4  5  1  0
  5 49  1  0
  5  3  1  0
  6  8  1  1
  6  2  1  0
  7  6  1  0
  9  6  1  0
 10 20  1  0
 11 20  1  0
 12 17  1  0
 13 14  1  0
 13 12  1  0
 15 14  1  0
 15 24  1  0
 15 16  1  0
 17 11  1  0
 17 16  1  0
 18 11  2  0
 20 19  1  0
 21 22  2  0
 22 41  1  0
 23 22  1  0
 23 26  1  0
 24 21  1  0
 24 25  1  0
 25 23  2  0
 26 27  1  0
 27 28  2  0
 29 32  1  0
 29 28  1  0
 30 29  2  0
 31 30  1  0
 31 26  2  0
 32 33  1  0
 33 34  1  0
 34 35  2  0
 36 35  1  0
 36 40  1  0
 37 36  2  0
 38 33  2  0
 38 37  1  0
 39 38  1  0
 41 42  1  0
 42 45  1  0
 42 44  1  0
 43 41  2  0
 46 47  1  0
 46 21  1  0
 48 46  1  0
 50 51  1  0
 50 49  2  0
 52 63  2  0
 53 51  1  0
 53 58  1  0
 54 62  1  0
 54 64  1  0
 55 61  1  0
 55 57  1  0
 56 62  1  0
 57 58  2  0
 57 56  1  0
 59 53  2  0
 60 59  1  0
 60 55  2  0
 61 54  1  0
 62 52  1  0
 64 66  2  0
 65 64  1  0
 67 65  1  0
 68 77  2  0
 68 73  1  0
 69 65  1  0
 69 73  1  0
 70 69  1  0
 71 72  1  0
 71 70  1  0
 72 68  1  0
 73 74  2  0
 74 75  1  0
 76 75  2  0
 77 76  1  0
 78 52  1  0
 78 83  1  0
 78 79  1  0
 79 82  1  1
 79 80  1  0
 81 79  1  0
 83 86  1  0
 84 88  1  0
 84 83  1  0
 85 84  2  0
 88 87  1  0
 90 91  1  0
 90 88  1  0
 90 89  1  0
M  ISO  4  11 100  20 100  50 101  51 101
M  END
>  <TORSDO>  (74) 
F 20

>  <SCORE>  (74) 
-15.509

>  <name>  (74) 
75

>  <ligand_id>  (74) 
75

>  <original_smiles>  (74) 
[H]c1c([H])c([H])c2c(c1[H])C([H])([H])C([H])([H])C([H])([H])C2([H])N([H])C(=O)C1([H])N(C(=O)C([H])(N([H])C(=O)C([H])(N([H])C([H])([H])[H])C([H])([H])[H])C(C([H])([H])[H])(C([H])([H])[H])C([H])([H])[H])C([H])([H])c2c([H])c(OC([H])([H])C([H])([H])n3nc(C(F)(F)F)c(C([H])([H])N(C(=O)N4C([H])([H])C([H])([H])C([H])([H])C([H])(n5nc(-c6c([H])c([H])c(Oc7c([H])c([H])c(F)c([H])c7F)c([H])c6[H])c(C(=O)N([H])[H])c5N([H])[H])C4([H])[H])C([H])([H])[H])n3)c([H])c([H])c2C1([H])[H]

>  <smiles>  (74) 
[H]c1c([H])c([H])c2c(c1[H])C([H])([H])C([H])([H])C([H])([H])C2([H])N([H])C(=O)C1([H])N(C(=O)C([H])(N([H])C(=O)C([H])(N([H])C([H])([H])[H])C([H])([H])[H])C(C([H])([H])[H])(C([H])([H])[H])C([H])([H])[H])C([H])([H])c2c([H])c(OC([H])([H])C([H])([H])n3nc(C(F)(F)F)c(C([H])([H])N(C(=O)N4C([H])([H])C([H])([H])C([H])([H])C([H])(n5nc(-c6c([H])c([H])c(Oc7c([H])c([H])c(F)c([H])c7F)c([H])c6[H])c(C(=O)N([H])[H])c5N([H])[H])C4([H])[H])C([H])([H])[H])n3)c([H])c([H])c2C1([H])[H]

$$$$
76:0:0
     RDKit          3D

 93101  0  0  1  0  0  0  0  0999 V2000
  -30.2900  -19.5420   21.8340 C   0  0  0  0  0  3  0  0  0  0  0  0
  -29.7720  -19.4420   20.5350 C   0  0  0  0  0  0  0  0  0  0  0  0
  -30.3490  -20.7960   22.4850 C   0  0  0  0  0  0  0  0  0  0  0  0
  -29.4330  -21.9370   20.6620 C   0  0  0  0  0  0  0  0  0  0  0  0
  -29.3870  -20.7060   19.9740 N   0  0  0  0  0  0  0  0  0  0  0  0
  -29.9220  -21.9480   21.8960 N   0  0  0  0  0  0  0  0  0  0  0  0
  -30.9460  -20.9210   23.8990 C   0  0  1  0  0  0  0  0  0  0  0  0
  -31.2650  -19.7270   24.4100 F   0  0  0  0  0  0  0  0  0  0  0  0
  -32.0560  -21.6640   23.8730 F   0  0  0  0  0  0  0  0  0  0  0  0
  -30.0740  -21.4980   24.7280 F   0  0  0  0  0  0  0  0  0  0  0  0
  -28.6230  -17.9550   18.7340 C   0  0  0  0  0  1  0  0  0  0  0  0
  -29.7900  -17.9540   19.7450 C   0  0  0  0  0  3  0  0  0  0  0  0
  -30.5920  -15.2870   20.0490 C   0  0  0  0  0  0  0  0  0  0  0  0
  -30.5430  -12.9330   19.0150 C   0  0  0  0  0  2  0  0  0  0  0  0
  -29.5480  -12.8770   17.8280 C   0  0  0  0  0  2  0  0  0  0  0  0
  -28.1040  -12.6320   18.3120 C   0  0  0  0  0  2  0  0  0  0  0  0
  -27.7480  -13.4810   19.5610 C   0  0  0  0  0  3  0  0  0  0  0  0
  -28.8650  -13.4070   20.6220 C   0  0  0  0  0  2  0  0  0  0  0  0
  -30.0690  -13.9760   19.9890 N   0  0  0  0  0  0  0  0  0  0  0  0
  -31.7340  -15.4020   19.5730 O   0  0  0  0  0  0  0  0  0  0  0  0
  -28.8770  -16.3980   21.5160 C   0  0  0  0  0  1  0  0  0  0  0  0
  -29.8080  -16.4710   20.3770 N   0  0  0  0  0  0  0  0  0  0  0  0
  -25.3870  -13.9980   20.4060 C   0  0  0  0  0  0  0  0  0  0  0  0
  -24.3610  -13.1980   20.8170 C   0  0  0  0  0  0  0  0  0  0  0  0
  -24.8470  -11.8550   20.7340 C   0  0  0  0  0  0  0  0  0  0  0  0
  -26.4390  -13.1450   20.1070 N   0  0  0  0  0  0  0  0  0  0  0  0
  -26.1210  -11.8490   20.3600 N   0  0  0  0  0  0  0  0  0  0  0  0
  -24.1500  -10.5770   20.9360 C   0  0  0  0  0  0  0  0  0  0  0  0
  -24.5870   -9.6350   21.8920 C   0  0  0  0  0  3  0  0  0  0  0  0
  -23.8830   -8.4260   22.0790 C   0  0  0  0  0  3  0  0  0  0  0  0
  -22.7280   -8.1500   21.3070 C   0  0  0  0  0  0  0  0  0  0  0  0
  -22.3130   -9.0810   20.3360 C   0  0  0  0  0  3  0  0  0  0  0  0
  -23.0180  -10.2810   20.1500 C   0  0  0  0  0  3  0  0  0  0  0  0
  -21.9980   -6.9900   21.3980 O   0  0  0  0  0  0  0  0  0  0  0  0
  -21.8790   -6.3060   22.5820 C   0  0  0  0  0  0  0  0  0  0  0  0
  -21.3220   -6.9020   23.7350 C   0  0  0  0  0  3  0  0  0  0  0  0
  -21.1560   -6.1430   24.9100 C   0  0  0  0  0  3  0  0  0  0  0  0
  -21.5400   -4.7900   24.9360 C   0  0  0  0  0  0  0  0  0  0  0  0
  -22.0940   -4.1940   23.7890 C   0  0  0  0  0  3  0  0  0  0  0  0
  -22.2600   -4.9490   22.6150 C   0  0  0  0  0  0  0  0  0  0  0  0
  -22.7710   -4.3620   21.5060 F   0  0  0  0  0  0  0  0  0  0  0  0
  -21.3730   -4.0580   26.0620 F   0  0  0  0  0  0  0  0  0  0  0  0
  -22.9720  -13.6420   21.1730 C   0  0  0  0  0  0  0  0  0  0  0  0
  -22.3100  -12.9130   22.0630 N   0  0  0  0  0  0  0  0  0  0  0  0
  -22.4880  -14.6700   20.7000 O   0  0  0  0  0  0  0  0  0  0  0  0
  -22.7170  -12.0800   22.4670 H   0  0  0  0  0  0  0  0  0  0  0  0
  -21.3820  -13.1900   22.3530 H   0  0  0  0  0  0  0  0  0  0  0  0
  -25.5090  -15.3740   20.2360 N   0  0  0  0  0  0  0  0  0  0  0  0
  -24.7310  -16.0070   20.3790 H   0  0  0  0  0  0  0  0  0  0  0  0
  -26.3140  -15.8300   19.8330 H   0  0  0  0  0  0  0  0  0  0  0  0
  -29.2460  -23.4710   20.0140 C   0  0  0  0  0  3  0  0  0  0  0  0
  -28.4760  -24.8390   20.6860 C   0  0  0  0  0  3  0  0  0  0  0  0
  -28.6240  -26.3620   20.2970 O   0  0  0  0  0  0  0  0  0  0  0  0
  -24.7250  -31.9030   23.2680 C   0  0  0  0  0  0  0  0  0  0  0  0
  -27.5260  -27.3060   20.2580 C   0  0  0  0  0  0  0  0  0  0  0  0
  -23.6160  -30.4960   21.5780 C   0  0  0  0  0  3  0  0  0  0  0  0
  -25.1510  -28.9930   20.1600 C   0  0  0  0  0  0  0  0  0  0  0  0
  -26.1620  -30.8470   21.4780 C   0  0  0  0  0  2  0  0  0  0  0  0
  -26.2970  -29.4640   20.8150 C   0  0  0  0  0  0  0  0  0  0  0  0
  -27.4860  -28.6400   20.8390 C   0  0  0  0  0  3  0  0  0  0  0  0
  -26.3520  -26.9330   19.5720 C   0  0  0  0  0  3  0  0  0  0  0  0
  -25.1940  -27.7430   19.5180 C   0  0  0  0  0  3  0  0  0  0  0  0
  -23.8930  -29.8540   20.1930 C   0  0  0  0  0  2  0  0  0  0  0  0
  -24.8540  -31.1050   22.1630 N   0  0  0  0  0  0  0  0  0  0  0  0
  -23.6150  -32.1400   23.7700 O   0  0  0  0  0  0  0  0  0  0  0  0
  -22.9470  -29.4470   22.5010 C   0  0  0  0  0  0  0  0  0  0  0  0
  -21.6310  -29.2310   22.3320 N   0  0  0  0  0  0  0  0  0  0  0  0
  -23.6150  -28.8340   23.3360 O   0  0  0  0  0  0  0  0  0  0  0  0
  -21.1460  -29.7820   21.6380 H   0  0  0  0  0  0  0  0  0  0  0  0
  -18.2790  -27.9040   22.7070 C   0  0  0  0  0  0  0  0  0  0  0  0
  -20.8170  -28.2530   23.0600 C   0  0  0  0  0  3  0  0  0  0  0  0
  -20.9870  -26.8360   22.4630 C   0  0  0  0  0  2  0  0  0  0  0  0
  -19.9280  -26.4940   21.4100 C   0  0  0  0  0  2  0  0  0  0  0  0
  -18.5230  -26.5760   22.0110 C   0  0  0  0  0  2  0  0  0  0  0  0
  -19.3550  -28.7000   23.1830 C   0  0  0  0  0  0  0  0  0  0  0  0
  -19.0660  -29.9430   23.7890 C   0  0  0  0  0  3  0  0  0  0  0  0
  -17.7370  -30.3880   23.9200 C   0  0  0  0  0  3  0  0  0  0  0  0
  -16.6760  -29.5880   23.4610 C   0  0  0  0  0  3  0  0  0  0  0  0
  -16.9490  -28.3460   22.8610 C   0  0  0  0  0  3  0  0  0  0  0  0
  -25.9610  -32.5700   23.9450 C   0  0  0  0  0  3  0  0  0  0  0  0
  -26.4380  -31.8170   25.2460 C   0  0  1  0  0  0  0  0  0  0  0  0
  -25.3010  -31.5360   26.2580 C   0  0  0  0  0  1  0  0  0  0  0  0
  -27.0870  -30.4650   24.8810 C   0  0  0  0  0  1  0  0  0  0  0  0
  -27.5310  -32.6450   25.9640 C   0  0  0  0  0  1  0  0  0  0  0  0
  -25.6060  -33.9620   24.2630 N   0  0  0  0  0  0  0  0  0  0  0  0
  -25.9350  -35.0260   23.5160 C   0  0  0  0  0  0  0  0  0  0  0  0
  -26.6350  -34.9380   22.5040 O   0  0  0  0  0  0  0  0  0  0  0  0
  -24.9880  -34.1050   25.0500 H   0  0  0  0  0  0  0  0  0  0  0  0
  -24.1650  -36.7700   23.1320 C   0  0  0  0  0  1  0  0  0  0  0  0
  -25.4050  -36.4040   23.9630 C   0  0  0  0  0  3  0  0  0  0  0  0
  -27.5050  -37.3440   24.8230 C   0  0  0  0  0  1  0  0  0  0  0  0
  -26.4120  -37.4840   23.8660 N   0  0  0  0  0  0  0  0  0  0  0  0
  -25.9790  -38.3930   24.0120 H   0  0  0  0  0  0  0  0  0  0  0  0
  1  3  1  0
  2  1  2  0
  3  7  1  0
  4  6  1  0
  5  2  1  0
  5  4  2  0
  6  3  2  0
  7  8  1  1
  7 10  1  0
  9  7  1  0
 12 11  1  0
 12 22  1  0
 12  2  1  0
 13 22  1  0
 14 19  1  0
 15 16  1  0
 15 14  1  0
 17 16  1  0
 17 26  1  0
 17 18  1  0
 19 13  1  0
 19 18  1  0
 20 13  2  0
 22 21  1  0
 23 24  2  0
 24 43  1  0
 25 24  1  0
 25 28  1  0
 26 27  1  0
 26 23  1  0
 27 25  2  0
 28 29  1  0
 29 30  2  0
 31 34  1  0
 31 30  1  0
 32 31  2  0
 33 32  1  0
 33 28  2  0
 34 35  1  0
 35 40  2  0
 35 36  1  0
 36 37  2  0
 37 38  1  0
 38 42  1  0
 39 38  2  0
 40 39  1  0
 41 40  1  0
 43 44  1  0
 44 47  1  0
 44 46  1  0
 45 43  2  0
 48 49  1  0
 48 23  1  0
 50 48  1  0
 51  4  1  0
 51 52  2  0
 53 52  1  0
 54 65  2  0
 55 53  1  0
 55 60  1  0
 56 64  1  0
 56 66  1  0
 57 63  1  0
 57 59  1  0
 58 64  1  0
 59 60  2  0
 59 58  1  0
 61 55  2  0
 62 61  1  0
 62 57  2  0
 63 56  1  0
 64 54  1  0
 66 68  2  0
 67 66  1  0
 69 67  1  0
 70 79  2  0
 70 75  1  0
 71 67  1  0
 71 75  1  0
 72 71  1  0
 73 74  1  0
 73 72  1  0
 74 70  1  0
 75 76  2  0
 76 77  1  0
 78 77  2  0
 79 78  1  0
 80 54  1  0
 80 85  1  0
 80 81  1  0
 81 84  1  1
 81 82  1  0
 83 81  1  0
 85 88  1  0
 86 90  1  0
 86 85  1  0
 87 86  2  0
 90 89  1  0
 92 90  1  0
 92 93  1  0
 92 91  1  0
M  ISO  4  13 100  22 100  52 101  53 101
M  END
>  <TORSDO>  (75) 
F 20

>  <SCORE>  (75) 
-14.546

>  <name>  (75) 
76

>  <ligand_id>  (75) 
76

>  <original_smiles>  (75) 
[H]c1c(C(F)(F)F)nc(C([H])([H])C([H])([H])Oc2c([H])c([H])c3c(c2[H])C([H])([H])N(C(=O)C([H])(N([H])C(=O)C([H])(N([H])C([H])([H])[H])C([H])([H])[H])C(C([H])([H])[H])(C([H])([H])[H])C([H])([H])[H])C([H])(C(=O)N([H])C2([H])c4c([H])c([H])c([H])c([H])c4C([H])([H])C([H])([H])C2([H])[H])C3([H])[H])nc1C([H])(N(C(=O)N1C([H])([H])C([H])([H])C([H])([H])C([H])(n2nc(-c3c([H])c([H])c(Oc4c([H])c([H])c(F)c([H])c4F)c([H])c3[H])c(C(=O)N([H])[H])c2N([H])[H])C1([H])[H])C([H])([H])[H])C([H])([H])[H]

>  <smiles>  (75) 
[H]c1c(C(F)(F)F)nc(C([H])([H])C([H])([H])Oc2c([H])c([H])c3c(c2[H])C([H])([H])N(C(=O)C([H])(N([H])C(=O)C([H])(N([H])C([H])([H])[H])C([H])([H])[H])C(C([H])([H])[H])(C([H])([H])[H])C([H])([H])[H])C([H])(C(=O)N([H])C2([H])c4c([H])c([H])c([H])c([H])c4C([H])([H])C([H])([H])C2([H])[H])C3([H])[H])nc1C([H])(N(C(=O)N1C([H])([H])C([H])([H])C([H])([H])C([H])(n2nc(-c3c([H])c([H])c(Oc4c([H])c([H])c(F)c([H])c4F)c([H])c3[H])c(C(=O)N([H])[H])c2N([H])[H])C1([H])[H])C([H])([H])[H])C([H])([H])[H]

$$$$
77:0:0
     RDKit          3D

 91 99  0  0  1  0  0  0  0  0999 V2000
  -28.3900  -22.3800   22.0050 C   0  0  0  0  0  3  0  0  0  0  0  0
  -29.3080  -20.4500   21.9920 C   0  0  0  0  0  3  0  0  0  0  0  0
  -29.0310  -22.2610   20.7890 C   0  0  0  0  0  0  0  0  0  0  0  0
  -28.5650  -21.2290   22.7650 N   0  0  0  0  0  0  0  0  0  0  0  0
  -29.6570  -20.9880   20.8130 N   0  0  0  0  0  0  0  0  0  0  0  0
  -29.0390  -23.2840   19.6600 C   0  0  0  0  0  2  0  0  0  0  0  0
  -28.5100  -24.7130   20.0480 C   0  0  0  0  0  3  0  0  0  0  0  0
  -28.5880  -25.8050   18.9380 C   0  0  0  0  0  3  0  0  0  0  0  0
  -28.4940  -27.1730   19.4130 O   0  0  0  0  0  0  0  0  0  0  0  0
  -24.7290  -31.8820   23.2210 C   0  0  0  0  0  0  0  0  0  0  0  0
  -27.2860  -27.8460   19.5280 C   0  0  0  0  0  0  0  0  0  0  0  0
  -23.4630  -30.6400   21.4990 C   0  0  0  0  0  3  0  0  0  0  0  0
  -24.8630  -29.3070   19.8310 C   0  0  0  0  0  0  0  0  0  0  0  0
  -25.9670  -31.0790   21.2070 C   0  0  0  0  0  2  0  0  0  0  0  0
  -26.0420  -29.7870   20.4120 C   0  0  0  0  0  0  0  0  0  0  0  0
  -27.2520  -29.0660   20.2530 C   0  0  0  0  0  3  0  0  0  0  0  0
  -26.0800  -27.3840   18.9510 C   0  0  0  0  0  3  0  0  0  0  0  0
  -24.8790  -28.1070   19.0970 C   0  0  0  0  0  3  0  0  0  0  0  0
  -23.6070  -30.1240   20.0420 C   0  0  0  0  0  2  0  0  0  0  0  0
  -24.7410  -31.2110   22.0340 N   0  0  0  0  0  0  0  0  0  0  0  0
  -23.6740  -32.0620   23.8440 O   0  0  0  0  0  0  0  0  0  0  0  0
  -22.8880  -29.5010   22.3730 C   0  0  0  0  0  0  0  0  0  0  0  0
  -21.5820  -29.2270   22.2190 N   0  0  0  0  0  0  0  0  0  0  0  0
  -23.6150  -28.8690   23.1440 O   0  0  0  0  0  0  0  0  0  0  0  0
  -21.0520  -29.7960   21.5740 H   0  0  0  0  0  0  0  0  0  0  0  0
  -18.3430  -27.6460   22.4830 C   0  0  0  0  0  0  0  0  0  0  0  0
  -20.8380  -28.1710   22.9060 C   0  0  0  0  0  3  0  0  0  0  0  0
  -21.1290  -26.7870   22.2800 C   0  0  0  0  0  2  0  0  0  0  0  0
  -20.1220  -26.3920   21.1940 C   0  0  0  0  0  2  0  0  0  0  0  0
  -18.7020  -26.3550   21.7670 C   0  0  0  0  0  2  0  0  0  0  0  0
  -19.3450  -28.5050   23.0040 C   0  0  0  0  0  0  0  0  0  0  0  0
  -18.9560  -29.7100   23.6290 C   0  0  0  0  0  3  0  0  0  0  0  0
  -17.5960  -30.0560   23.7410 C   0  0  0  0  0  3  0  0  0  0  0  0
  -16.6070  -29.1940   23.2360 C   0  0  0  0  0  3  0  0  0  0  0  0
  -16.9820  -27.9900   22.6130 C   0  0  0  0  0  3  0  0  0  0  0  0
  -26.0320  -32.4760   23.8400 C   0  0  0  0  0  3  0  0  0  0  0  0
  -25.7520  -33.8690   24.2140 N   0  0  0  0  0  0  0  0  0  0  0  0
  -26.1020  -34.9360   23.4830 C   0  0  0  0  0  0  0  0  0  0  0  0
  -26.7660  -34.8500   22.4470 O   0  0  0  0  0  0  0  0  0  0  0  0
  -25.1620  -34.0120   25.0200 H   0  0  0  0  0  0  0  0  0  0  0  0
  -24.4070  -36.7710   23.1870 C   0  0  0  0  0  1  0  0  0  0  0  0
  -25.6430  -36.3200   23.9830 C   0  0  0  0  0  3  0  0  0  0  0  0
  -27.7960  -37.1400   24.8330 C   0  0  0  0  0  1  0  0  0  0  0  0
  -26.6960  -37.3550   23.8960 N   0  0  0  0  0  0  0  0  0  0  0  0
  -26.3080  -38.2800   24.0680 H   0  0  0  0  0  0  0  0  0  0  0  0
  -26.5560  -31.6600   25.0850 C   0  0  1  0  0  0  0  0  0  0  0  0
  -25.4710  -31.3850   26.1520 C   0  0  0  0  0  1  0  0  0  0  0  0
  -27.1350  -30.2960   24.6390 C   0  0  0  0  0  1  0  0  0  0  0  0
  -27.7140  -32.4290   25.7650 C   0  0  0  0  0  1  0  0  0  0  0  0
  -30.4570  -20.2810   19.8000 C   0  0  0  0  0  2  0  0  0  0  0  0
  -31.6370  -19.4120   20.3740 C   0  0  0  0  0  2  0  0  0  0  0  0
  -31.4500  -17.8680   20.6650 C   0  0  0  0  0  2  0  0  0  0  0  0
  -30.0200  -16.8210   18.8490 C   0  0  0  0  0  1  0  0  0  0  0  0
  -32.3330  -17.3740   18.3360 C   0  0  0  0  0  1  0  0  0  0  0  0
  -31.4190  -16.8320   19.4770 C   0  0  1  0  0  0  0  0  0  0  0  0
  -31.9750  -15.3710   19.8400 C   0  0  0  0  0  0  0  0  0  0  0  0
  -31.6380  -13.0100   19.2050 C   0  0  0  0  0  2  0  0  0  0  0  0
  -30.7100  -12.9180   17.9780 C   0  0  0  0  0  2  0  0  0  0  0  0
  -29.2490  -12.7740   18.4390 C   0  0  0  0  0  2  0  0  0  0  0  0
  -28.8510  -13.8380   19.4890 C   0  0  0  0  0  3  0  0  0  0  0  0
  -29.9260  -14.0330   20.5880 C   0  0  0  0  0  2  0  0  0  0  0  0
  -31.2370  -14.2190   19.9550 N   0  0  0  0  0  0  0  0  0  0  0  0
  -33.1950  -15.2660   19.7250 O   0  0  0  0  0  0  0  0  0  0  0  0
  -26.5520  -14.5670   20.3510 C   0  0  0  0  0  0  0  0  0  0  0  0
  -25.4510  -13.8480   20.7270 C   0  0  0  0  0  0  0  0  0  0  0  0
  -25.8270  -12.4750   20.6290 C   0  0  0  0  0  0  0  0  0  0  0  0
  -27.5240  -13.6280   20.0400 N   0  0  0  0  0  0  0  0  0  0  0  0
  -27.1000  -12.3650   20.2760 N   0  0  0  0  0  0  0  0  0  0  0  0
  -25.0340  -11.2540   20.7890 C   0  0  0  0  0  0  0  0  0  0  0  0
  -25.3790  -10.2730   21.7440 C   0  0  0  0  0  3  0  0  0  0  0  0
  -24.5900   -9.1140   21.8920 C   0  0  0  0  0  3  0  0  0  0  0  0
  -23.4430   -8.9280   21.0840 C   0  0  0  0  0  0  0  0  0  0  0  0
  -23.1190   -9.8970   20.1190 C   0  0  0  0  0  3  0  0  0  0  0  0
  -23.9080  -11.0490   19.9690 C   0  0  0  0  0  3  0  0  0  0  0  0
  -22.6310   -7.8220   21.1430 O   0  0  0  0  0  0  0  0  0  0  0  0
  -22.3520   -7.1970   22.3320 C   0  0  0  0  0  0  0  0  0  0  0  0
  -21.7430   -7.8800   23.4070 C   0  0  0  0  0  3  0  0  0  0  0  0
  -21.4120   -7.1830   24.5860 C   0  0  0  0  0  3  0  0  0  0  0  0
  -21.6770   -5.8040   24.6880 C   0  0  0  0  0  0  0  0  0  0  0  0
  -22.2770   -5.1210   23.6150 C   0  0  0  0  0  3  0  0  0  0  0  0
  -22.6110   -5.8160   22.4390 C   0  0  0  0  0  0  0  0  0  0  0  0
  -23.1710   -5.1500   21.4010 F   0  0  0  0  0  0  0  0  0  0  0  0
  -21.3510   -5.1320   25.8160 F   0  0  0  0  0  0  0  0  0  0  0  0
  -24.0950  -14.4010   21.0590 C   0  0  0  0  0  0  0  0  0  0  0  0
  -23.3570  -13.7250   21.9340 N   0  0  0  0  0  0  0  0  0  0  0  0
  -23.7010  -15.4620   20.5780 O   0  0  0  0  0  0  0  0  0  0  0  0
  -23.6900  -12.8660   22.3440 H   0  0  0  0  0  0  0  0  0  0  0  0
  -22.4460  -14.0740   22.1970 H   0  0  0  0  0  0  0  0  0  0  0  0
  -26.7920  -15.9310   20.2190 N   0  0  0  0  0  0  0  0  0  0  0  0
  -26.0720  -16.6250   20.3860 H   0  0  0  0  0  0  0  0  0  0  0  0
  -27.6530  -16.3300   19.8700 H   0  0  0  0  0  0  0  0  0  0  0  0
  1  4  1  0
  2  4  2  0
  3  5  1  0
  3  1  2  0
  5  2  1  0
  6  7  1  0
  6  3  1  0
  8  9  1  0
  8  7  2  0
  9 11  1  0
 10 21  2  0
 11 16  1  0
 12 20  1  0
 12 22  1  0
 13 19  1  0
 13 15  1  0
 14 20  1  0
 15 14  1  0
 16 15  2  0
 17 18  1  0
 17 11  2  0
 18 13  2  0
 19 12  1  0
 20 10  1  0
 22 24  2  0
 23 22  1  0
 25 23  1  0
 26 35  2  0
 26 31  1  0
 27 23  1  0
 27 31  1  0
 28 27  1  0
 29 30  1  0
 29 28  1  0
 30 26  1  0
 31 32  2  0
 32 33  1  0
 34 33  2  0
 35 34  1  0
 36 10  1  0
 36 37  1  0
 36 46  1  0
 37 40  1  0
 38 42  1  0
 38 37  1  0
 39 38  2  0
 42 41  1  0
 44 42  1  0
 44 45  1  0
 44 43  1  0
 46 49  1  1
 46 47  1  0
 48 46  1  0
 50 51  1  0
 50  5  1  0
 51 52  1  0
 55 53  1  6
 54 55  1  0
 55 56  1  0
 55 52  1  0
 56 62  1  0
 57 62  1  0
 58 59  1  0
 58 57  1  0
 60 59  1  0
 60 67  1  0
 60 61  1  0
 62 61  1  0
 63 56  2  0
 64 65  2  0
 65 84  1  0
 66 65  1  0
 66 69  1  0
 67 68  1  0
 67 64  1  0
 68 66  2  0
 69 70  1  0
 70 71  2  0
 72 75  1  0
 72 71  1  0
 73 72  2  0
 74 73  1  0
 74 69  2  0
 75 76  1  0
 76 81  2  0
 76 77  1  0
 77 78  2  0
 78 79  1  0
 79 83  1  0
 80 79  2  0
 81 80  1  0
 82 81  1  0
 84 85  1  0
 85 88  1  0
 85 87  1  0
 86 84  2  0
 89 64  1  0
 89 90  1  0
 91 89  1  0
M  ISO  4   8 101   9 101  55 100  56 100
M  END
>  <TORSDO>  (76) 
F 23

>  <SCORE>  (76) 
-9.021

>  <name>  (76) 
77

>  <ligand_id>  (76) 
77

>  <original_smiles>  (76) 
[H]c1nc([H])n(C([H])([H])C([H])([H])C([H])([H])C(C(=O)N2C([H])([H])C([H])([H])C([H])([H])C([H])(n3nc(-c4c([H])c([H])c(Oc5c([H])c([H])c(F)c([H])c5F)c([H])c4[H])c(C(=O)N([H])[H])c3N([H])[H])C2([H])[H])(C([H])([H])[H])C([H])([H])[H])c1C([H])([H])C([H])([H])C([H])([H])Oc1c([H])c([H])c2c(c1[H])C([H])([H])N(C(=O)C([H])(N([H])C(=O)C([H])(N([H])C([H])([H])[H])C([H])([H])[H])C(C([H])([H])[H])(C([H])([H])[H])C([H])([H])[H])C([H])(C(=O)N([H])C1([H])c3c([H])c([H])c([H])c([H])c3C([H])([H])C([H])([H])C1([H])[H])C2([H])[H]

>  <smiles>  (76) 
[H]c1nc([H])n(C([H])([H])C([H])([H])C([H])([H])C(C(=O)N2C([H])([H])C([H])([H])C([H])([H])C([H])(n3nc(-c4c([H])c([H])c(Oc5c([H])c([H])c(F)c([H])c5F)c([H])c4[H])c(C(=O)N([H])[H])c3N([H])[H])C2([H])[H])(C([H])([H])[H])C([H])([H])[H])c1C([H])([H])C([H])([H])C([H])([H])Oc1c([H])c([H])c2c(c1[H])C([H])([H])N(C(=O)C([H])(N([H])C(=O)C([H])(N([H])C([H])([H])[H])C([H])([H])[H])C(C([H])([H])[H])(C([H])([H])[H])C([H])([H])[H])C([H])(C(=O)N([H])C1([H])c3c([H])c([H])c([H])c([H])c3C([H])([H])C([H])([H])C1([H])[H])C2([H])[H]

$$$$
78:0:0
     RDKit          3D

 91 99  0  0  1  0  0  0  0  0999 V2000
  -29.1210  -23.0450   21.3350 C   0  0  0  0  0  2  0  0  0  0  0  0
  -28.0930  -20.8450   20.5300 C   0  0  0  0  0  2  0  0  0  0  0  0
  -29.7420  -19.5910   20.7140 C   0  0  0  0  0  0  0  0  0  0  0  0
  -28.4320  -19.5740   20.3140 N   0  0  0  0  0  0  0  0  0  0  0  0
  -30.1950  -20.8020   21.0800 N   0  0  0  0  0  2  0  0  0  0  0  0
  -29.1040  -21.6210   20.9310 N   0  0  0  0  0  0  0  0  0  0  0  0
  -30.6590  -18.3880   20.5520 C   0  0  0  0  0  2  0  0  0  0  0  0
  -30.1550  -17.0200   21.1650 C   0  0  0  0  0  2  0  0  0  0  0  0
  -30.9380  -14.7190   20.4130 C   0  0  0  0  0  0  0  0  0  0  0  0
  -30.6910  -12.4760   19.4110 C   0  0  0  0  0  2  0  0  0  0  0  0
  -29.7730  -12.5760   18.1730 C   0  0  0  0  0  2  0  0  0  0  0  0
  -28.2780  -12.5280   18.5680 C   0  0  0  0  0  2  0  0  0  0  0  0
  -27.9110  -13.3740   19.8210 C   0  0  0  0  0  3  0  0  0  0  0  0
  -28.9630  -13.2470   20.9430 C   0  0  0  0  0  2  0  0  0  0  0  0
  -30.2810  -13.5240   20.3570 N   0  0  0  0  0  0  0  0  0  0  0  0
  -32.1540  -14.8150   20.2360 O   0  0  0  0  0  0  0  0  0  0  0  0
  -29.6980  -16.1670   18.9090 C   0  0  0  0  0  1  0  0  0  0  0  0
  -30.1450  -15.8250   20.2690 N   0  0  0  0  0  0  0  0  0  0  0  0
  -25.5150  -14.0070   20.4790 C   0  0  0  0  0  0  0  0  0  0  0  0
  -24.4350  -13.2430   20.8220 C   0  0  0  0  0  0  0  0  0  0  0  0
  -24.8910  -11.8900   20.8200 C   0  0  0  0  0  0  0  0  0  0  0  0
  -26.5570  -13.1110   20.2860 N   0  0  0  0  0  0  0  0  0  0  0  0
  -26.1880  -11.8370   20.5550 N   0  0  0  0  0  0  0  0  0  0  0  0
  -24.1580  -10.6340   21.0030 C   0  0  0  0  0  0  0  0  0  0  0  0
  -24.5530   -9.6880   21.9750 C   0  0  0  0  0  3  0  0  0  0  0  0
  -23.8230   -8.4930   22.1470 C   0  0  0  0  0  3  0  0  0  0  0  0
  -22.6860   -8.2340   21.3450 C   0  0  0  0  0  0  0  0  0  0  0  0
  -22.3110   -9.1700   20.3640 C   0  0  0  0  0  3  0  0  0  0  0  0
  -23.0400  -10.3580   20.1910 C   0  0  0  0  0  3  0  0  0  0  0  0
  -21.9300   -7.0900   21.4240 O   0  0  0  0  0  0  0  0  0  0  0  0
  -21.8140   -6.3850   22.5950 C   0  0  0  0  0  0  0  0  0  0  0  0
  -21.2810   -6.9700   23.7640 C   0  0  0  0  0  3  0  0  0  0  0  0
  -21.1120   -6.1910   24.9250 C   0  0  0  0  0  3  0  0  0  0  0  0
  -21.4680   -4.8290   24.9170 C   0  0  0  0  0  0  0  0  0  0  0  0
  -21.9930   -4.2450   23.7510 C   0  0  0  0  0  3  0  0  0  0  0  0
  -22.1620   -5.0200   22.5910 C   0  0  0  0  0  0  0  0  0  0  0  0
  -22.6490   -4.4470   21.4640 F   0  0  0  0  0  0  0  0  0  0  0  0
  -21.2970   -4.0780   26.0300 F   0  0  0  0  0  0  0  0  0  0  0  0
  -23.0350  -13.7310   21.0520 C   0  0  0  0  0  0  0  0  0  0  0  0
  -22.2890  -13.0530   21.9150 N   0  0  0  0  0  0  0  0  0  0  0  0
  -22.6140  -14.7480   20.5050 O   0  0  0  0  0  0  0  0  0  0  0  0
  -22.6510  -12.2310   22.3780 H   0  0  0  0  0  0  0  0  0  0  0  0
  -21.3470  -13.3590   22.1170 H   0  0  0  0  0  0  0  0  0  0  0  0
  -25.6920  -15.3750   20.2910 N   0  0  0  0  0  0  0  0  0  0  0  0
  -24.9400  -16.0460   20.4020 H   0  0  0  0  0  0  0  0  0  0  0  0
  -26.5710  -15.8090   20.0420 H   0  0  0  0  0  0  0  0  0  0  0  0
  -28.4850  -24.1070   20.3650 C   0  0  0  0  0  3  0  0  0  0  0  0
  -27.1760  -23.6940   19.9860 O   0  0  0  0  0  0  0  0  0  0  0  0
  -26.9220  -24.2030   19.2270 H   0  0  0  0  0  0  0  0  0  0  0  0
  -28.4030  -25.5370   21.0120 C   0  0  0  0  0  2  0  0  0  0  0  0
  -28.4290  -26.6880   20.1320 O   0  0  0  0  0  0  0  0  0  0  0  0
  -24.5900  -31.9010   23.2140 C   0  0  0  0  0  0  0  0  0  0  0  0
  -27.2900  -27.4670   20.1420 C   0  0  0  0  0  0  0  0  0  0  0  0
  -23.4190  -30.5090   21.5400 C   0  0  0  0  0  3  0  0  0  0  0  0
  -24.9010  -28.9900   20.1240 C   0  0  0  0  0  0  0  0  0  0  0  0
  -25.9470  -30.8750   21.3850 C   0  0  0  0  0  2  0  0  0  0  0  0
  -26.0520  -29.5050   20.7360 C   0  0  0  0  0  0  0  0  0  0  0  0
  -27.2520  -28.7520   20.7430 C   0  0  0  0  0  3  0  0  0  0  0  0
  -26.1260  -26.9750   19.5220 C   0  0  0  0  0  3  0  0  0  0  0  0
  -24.9350  -27.7230   19.5140 C   0  0  0  0  0  3  0  0  0  0  0  0
  -23.6540  -29.8460   20.1580 C   0  0  0  0  0  2  0  0  0  0  0  0
  -24.6690  -31.1100   22.1050 N   0  0  0  0  0  0  0  0  0  0  0  0
  -23.4980  -32.1600   23.7420 O   0  0  0  0  0  0  0  0  0  0  0  0
  -22.7560  -29.4750   22.4810 C   0  0  0  0  0  0  0  0  0  0  0  0
  -21.4330  -29.2960   22.3420 N   0  0  0  0  0  0  0  0  0  0  0  0
  -23.4300  -28.8370   23.2930 O   0  0  0  0  0  0  0  0  0  0  0  0
  -20.9480  -29.8660   21.6630 H   0  0  0  0  0  0  0  0  0  0  0  0
  -18.0480  -28.1180   22.8140 C   0  0  0  0  0  0  0  0  0  0  0  0
  -20.6090  -28.3470   23.0900 C   0  0  0  0  0  3  0  0  0  0  0  0
  -20.6990  -26.9300   22.4780 C   0  0  0  0  0  2  0  0  0  0  0  0
  -19.5940  -26.6420   21.4570 C   0  0  0  0  0  2  0  0  0  0  0  0
  -18.2130  -26.7830   22.1070 C   0  0  0  0  0  2  0  0  0  0  0  0
  -19.1740  -28.8590   23.2610 C   0  0  0  0  0  0  0  0  0  0  0  0
  -18.9660  -30.1090   23.8850 C   0  0  0  0  0  3  0  0  0  0  0  0
  -17.6680  -30.6180   24.0640 C   0  0  0  0  0  3  0  0  0  0  0  0
  -16.5570  -29.8730   23.6350 C   0  0  0  0  0  3  0  0  0  0  0  0
  -16.7490  -28.6250   23.0170 C   0  0  0  0  0  3  0  0  0  0  0  0
  -25.8610  -32.5350   23.8600 C   0  0  0  0  0  3  0  0  0  0  0  0
  -25.5470  -33.9340   24.1810 N   0  0  0  0  0  0  0  0  0  0  0  0
  -25.9000  -34.9830   23.4280 C   0  0  0  0  0  0  0  0  0  0  0  0
  -26.5920  -34.8770   22.4100 O   0  0  0  0  0  0  0  0  0  0  0  0
  -24.9360  -34.0900   24.9690 H   0  0  0  0  0  0  0  0  0  0  0  0
  -24.1920  -36.7850   23.0140 C   0  0  0  0  0  1  0  0  0  0  0  0
  -25.4030  -36.3740   23.8690 C   0  0  0  0  0  3  0  0  0  0  0  0
  -27.5090  -37.2500   24.7790 C   0  0  0  0  0  1  0  0  0  0  0  0
  -26.4440  -37.4230   23.7940 N   0  0  0  0  0  0  0  0  0  0  0  0
  -26.0350  -38.3450   23.9310 H   0  0  0  0  0  0  0  0  0  0  0  0
  -26.3560  -31.7660   25.1460 C   0  0  1  0  0  0  0  0  0  0  0  0
  -25.2440  -31.5310   26.1950 C   0  0  0  0  0  1  0  0  0  0  0  0
  -26.9440  -30.3890   24.7640 C   0  0  0  0  0  1  0  0  0  0  0  0
  -27.4960  -32.5600   25.8270 C   0  0  0  0  0  1  0  0  0  0  0  0
  2  6  1  0
  3  5  1  0
  4  2  1  0
  4  3  2  0
  6  5  1  0
  6  1  1  0
  7  3  1  0
  7  8  1  0
 10 15  1  0
 11 12  1  0
 11 10  1  0
 13 12  1  0
 13 22  1  0
 13 14  1  0
 15  9  1  0
 15 14  1  0
 16  9  2  0
 17 18  1  0
 18  9  1  0
 18  8  1  0
 19 20  2  0
 20 39  1  0
 21 20  1  0
 21 24  1  0
 22 19  1  0
 22 23  1  0
 23 21  2  0
 24 25  1  0
 25 26  2  0
 27 30  1  0
 27 26  1  0
 28 27  2  0
 29 28  1  0
 29 24  2  0
 30 31  1  0
 31 32  1  0
 32 33  2  0
 34 33  1  0
 34 38  1  0
 35 34  2  0
 36 31  2  0
 36 35  1  0
 37 36  1  0
 39 40  1  0
 40 43  1  0
 40 42  1  0
 41 39  2  0
 44 45  1  0
 44 19  1  0
 46 44  1  0
 47 50  1  0
 47  1  1  0
 48 47  1  0
 49 48  1  0
 51 53  1  0
 51 50  1  0
 52 63  2  0
 53 58  1  0
 54 62  1  0
 54 64  1  0
 55 61  1  0
 55 57  1  0
 56 62  1  0
 57 58  2  0
 57 56  1  0
 59 53  2  0
 60 59  1  0
 60 55  2  0
 61 54  1  0
 62 52  1  0
 64 66  2  0
 65 64  1  0
 67 65  1  0
 68 77  2  0
 68 73  1  0
 69 65  1  0
 69 73  1  0
 70 69  1  0
 71 72  1  0
 71 70  1  0
 72 68  1  0
 73 74  2  0
 74 75  1  0
 76 75  2  0
 77 76  1  0
 78 52  1  0
 78 79  1  0
 78 88  1  0
 79 82  1  0
 80 84  1  0
 80 79  1  0
 81 80  2  0
 84 83  1  0
 86 84  1  0
 86 87  1  0
 86 85  1  0
 88 91  1  1
 88 89  1  0
 90 88  1  0
M  ISO  4   9 100  18 100  50 101  51 101
M  END
>  <TORSDO>  (77) 
F 22

>  <SCORE>  (77) 
-13.274

>  <name>  (77) 
78

>  <ligand_id>  (77) 
78

>  <original_smiles>  (77) 
[H]OC([H])(C([H])([H])Oc1c([H])c([H])c2c(c1[H])C([H])([H])N(C(=O)C([H])(N([H])C(=O)C([H])(N([H])C([H])([H])[H])C([H])([H])[H])C(C([H])([H])[H])(C([H])([H])[H])C([H])([H])[H])C([H])(C(=O)N([H])C1([H])c3c([H])c([H])c([H])c([H])c3C([H])([H])C([H])([H])C1([H])[H])C2([H])[H])C([H])([H])n1nc(C([H])([H])C([H])([H])N(C(=O)N2C([H])([H])C([H])([H])C([H])([H])C([H])(n3nc(-c4c([H])c([H])c(Oc5c([H])c([H])c(F)c([H])c5F)c([H])c4[H])c(C(=O)N([H])[H])c3N([H])[H])C2([H])[H])C([H])([H])[H])nc1[H]

>  <smiles>  (77) 
[H]OC([H])(C([H])([H])Oc1c([H])c([H])c2c(c1[H])C([H])([H])N(C(=O)C([H])(N([H])C(=O)C([H])(N([H])C([H])([H])[H])C([H])([H])[H])C(C([H])([H])[H])(C([H])([H])[H])C([H])([H])[H])C([H])(C(=O)N([H])C1([H])c3c([H])c([H])c([H])c([H])c3C([H])([H])C([H])([H])C1([H])[H])C2([H])[H])C([H])([H])n1nc(C([H])([H])C([H])([H])N(C(=O)N2C([H])([H])C([H])([H])C([H])([H])C([H])(n3nc(-c4c([H])c([H])c(Oc5c([H])c([H])c(F)c([H])c5F)c([H])c4[H])c(C(=O)N([H])[H])c3N([H])[H])C2([H])[H])C([H])([H])[H])nc1[H]

$$$$
79:0:0
     RDKit          3D

 92100  0  0  1  0  0  0  0  0999 V2000
  -30.1880  -20.8770   20.2420 C   0  0  0  0  0  3  0  0  0  0  0  0
  -27.9690  -20.1400   20.5310 C   0  0  0  0  0  3  0  0  0  0  0  0
  -28.8250  -21.2300   20.2760 C   0  0  0  0  0  0  0  0  0  0  0  0
  -29.7130  -18.6260   20.6410 C   0  0  0  0  0  0  0  0  0  0  0  0
  -30.6130  -19.5900   20.4000 N   0  0  0  0  0  0  0  0  0  0  0  0
  -28.4110  -18.8800   20.7550 N   0  0  0  0  0  0  0  0  0  0  0  0
  -31.6370  -17.1710   21.4780 C   0  0  0  0  0  1  0  0  0  0  0  0
  -30.1900  -17.1450   20.9170 C   0  0  0  0  0  3  0  0  0  0  0  0
  -30.5890  -14.8040   19.9760 C   0  0  0  0  0  0  0  0  0  0  0  0
  -30.2720  -12.5300   19.0340 C   0  0  0  0  0  2  0  0  0  0  0  0
  -29.2880  -12.5740   17.8490 C   0  0  0  0  0  2  0  0  0  0  0  0
  -27.8330  -12.4400   18.3490 C   0  0  0  0  0  2  0  0  0  0  0  0
  -27.5120  -13.3370   19.5780 C   0  0  0  0  0  3  0  0  0  0  0  0
  -28.6370  -13.3110   20.6370 C   0  0  0  0  0  2  0  0  0  0  0  0
  -29.8970  -13.6190   19.9580 N   0  0  0  0  0  0  0  0  0  0  0  0
  -31.7860  -14.8160   19.6860 O   0  0  0  0  0  0  0  0  0  0  0  0
  -29.8880  -16.0010   19.9490 N   0  0  0  0  0  0  0  0  0  0  0  0
  -25.1730  -13.8880   20.4730 C   0  0  0  0  0  0  0  0  0  0  0  0
  -24.1370  -13.0990   20.8820 C   0  0  0  0  0  0  0  0  0  0  0  0
  -24.6030  -11.7520   20.7870 C   0  0  0  0  0  0  0  0  0  0  0  0
  -26.2060  -13.0240   20.1510 N   0  0  0  0  0  0  0  0  0  0  0  0
  -25.8740  -11.7310   20.4070 N   0  0  0  0  0  0  0  0  0  0  0  0
  -23.8950  -10.4810   20.9840 C   0  0  0  0  0  0  0  0  0  0  0  0
  -24.3580   -9.5120   21.9030 C   0  0  0  0  0  3  0  0  0  0  0  0
  -23.6490   -8.3050   22.0870 C   0  0  0  0  0  3  0  0  0  0  0  0
  -22.4630   -8.0590   21.3570 C   0  0  0  0  0  0  0  0  0  0  0  0
  -22.0190   -9.0170   20.4290 C   0  0  0  0  0  3  0  0  0  0  0  0
  -22.7280  -10.2150   20.2410 C   0  0  0  0  0  3  0  0  0  0  0  0
  -21.7230   -6.9050   21.4540 O   0  0  0  0  0  0  0  0  0  0  0  0
  -21.6890   -6.1660   22.6100 C   0  0  0  0  0  0  0  0  0  0  0  0
  -21.2200   -6.7080   23.8260 C   0  0  0  0  0  3  0  0  0  0  0  0
  -21.1360   -5.8930   24.9730 C   0  0  0  0  0  3  0  0  0  0  0  0
  -21.5110   -4.5370   24.9050 C   0  0  0  0  0  0  0  0  0  0  0  0
  -21.9740   -3.9960   23.6920 C   0  0  0  0  0  3  0  0  0  0  0  0
  -22.0590   -4.8080   22.5480 C   0  0  0  0  0  0  0  0  0  0  0  0
  -22.4840   -4.2740   21.3760 F   0  0  0  0  0  0  0  0  0  0  0  0
  -21.4240   -3.7530   26.0040 F   0  0  0  0  0  0  0  0  0  0  0  0
  -22.7540  -13.5570   21.2450 C   0  0  0  0  0  0  0  0  0  0  0  0
  -22.0810  -12.8360   22.1320 N   0  0  0  0  0  0  0  0  0  0  0  0
  -22.2790  -14.5890   20.7720 O   0  0  0  0  0  0  0  0  0  0  0  0
  -22.4760  -11.9970   22.5330 H   0  0  0  0  0  0  0  0  0  0  0  0
  -21.1540  -13.1260   22.4170 H   0  0  0  0  0  0  0  0  0  0  0  0
  -25.3170  -15.2660   20.3210 N   0  0  0  0  0  0  0  0  0  0  0  0
  -24.5600  -15.9130   20.5060 H   0  0  0  0  0  0  0  0  0  0  0  0
  -26.1470  -15.7180   19.9610 H   0  0  0  0  0  0  0  0  0  0  0  0
  -27.9490  -16.9860   18.5630 C   0  0  0  0  0  1  0  0  0  0  0  0
  -30.3750  -17.1780   17.7500 C   0  0  0  0  0  1  0  0  0  0  0  0
  -29.3650  -16.3790   18.6000 C   0  0  0  0  0  3  0  0  0  0  0  0
  -28.2190  -22.6290   19.9220 C   0  0  0  0  0  2  0  0  0  0  0  0
  -28.8710  -24.0110   20.3330 C   0  0  0  0  0  2  0  0  0  0  0  0
  -27.9880  -25.2190   19.8270 C   0  0  0  0  0  2  0  0  0  0  0  0
  -28.2950  -26.6370   20.0970 O   0  0  0  0  0  0  0  0  0  0  0  0
  -24.5550  -31.9140   23.2400 C   0  0  0  0  0  0  0  0  0  0  0  0
  -27.1960  -27.5080   20.0310 C   0  0  0  0  0  0  0  0  0  0  0  0
  -23.3670  -30.5650   21.5520 C   0  0  0  0  0  3  0  0  0  0  0  0
  -24.8280  -29.0990   20.0660 C   0  0  0  0  0  0  0  0  0  0  0  0
  -25.9020  -30.9200   21.3830 C   0  0  0  0  0  2  0  0  0  0  0  0
  -25.9920  -29.5710   20.6860 C   0  0  0  0  0  0  0  0  0  0  0  0
  -27.1810  -28.7830   20.6680 C   0  0  0  0  0  3  0  0  0  0  0  0
  -26.0120  -27.1070   19.3620 C   0  0  0  0  0  3  0  0  0  0  0  0
  -24.8380  -27.8720   19.3940 C   0  0  0  0  0  3  0  0  0  0  0  0
  -23.5830  -29.9560   20.1440 C   0  0  0  0  0  2  0  0  0  0  0  0
  -24.6280  -31.1480   22.1150 N   0  0  0  0  0  0  0  0  0  0  0  0
  -23.4700  -32.1580   23.7850 O   0  0  0  0  0  0  0  0  0  0  0  0
  -22.7170  -29.4990   22.4690 C   0  0  0  0  0  0  0  0  0  0  0  0
  -21.3930  -29.3150   22.3370 N   0  0  0  0  0  0  0  0  0  0  0  0
  -23.4050  -28.8470   23.2580 O   0  0  0  0  0  0  0  0  0  0  0  0
  -20.8960  -29.8920   21.6740 H   0  0  0  0  0  0  0  0  0  0  0  0
  -18.0190  -28.1160   22.8400 C   0  0  0  0  0  0  0  0  0  0  0  0
  -20.5840  -28.3460   23.0780 C   0  0  0  0  0  3  0  0  0  0  0  0
  -20.6680  -26.9430   22.4340 C   0  0  0  0  0  2  0  0  0  0  0  0
  -19.5470  -26.6770   21.4240 C   0  0  0  0  0  2  0  0  0  0  0  0
  -18.1760  -26.8000   22.0970 C   0  0  0  0  0  2  0  0  0  0  0  0
  -19.1510  -28.8500   23.2860 C   0  0  0  0  0  0  0  0  0  0  0  0
  -18.9510  -30.0850   23.9390 C   0  0  0  0  0  3  0  0  0  0  0  0
  -17.6510  -30.5860   24.1510 C   0  0  0  0  0  3  0  0  0  0  0  0
  -16.5360  -29.8480   23.7220 C   0  0  0  0  0  3  0  0  0  0  0  0
  -16.7200  -28.6140   23.0730 C   0  0  0  0  0  3  0  0  0  0  0  0
  -25.8330  -32.5380   23.8790 C   0  0  0  0  0  3  0  0  0  0  0  0
  -25.5360  -33.9460   24.1760 N   0  0  0  0  0  0  0  0  0  0  0  0
  -25.8780  -34.9800   23.3940 C   0  0  0  0  0  0  0  0  0  0  0  0
  -26.5480  -34.8460   22.3660 O   0  0  0  0  0  0  0  0  0  0  0  0
  -24.9460  -34.1220   24.9770 H   0  0  0  0  0  0  0  0  0  0  0  0
  -24.1610  -36.7750   23.0000 C   0  0  0  0  0  1  0  0  0  0  0  0
  -25.4020  -36.3830   23.8180 C   0  0  0  0  0  3  0  0  0  0  0  0
  -27.5390  -37.2820   24.6280 C   0  0  0  0  0  1  0  0  0  0  0  0
  -26.4400  -37.4260   23.6760 N   0  0  0  0  0  0  0  0  0  0  0  0
  -26.0400  -38.3520   23.7910 H   0  0  0  0  0  0  0  0  0  0  0  0
  -26.3080  -31.7810   25.1790 C   0  0  1  0  0  0  0  0  0  0  0  0
  -25.1850  -31.5610   26.2210 C   0  0  0  0  0  1  0  0  0  0  0  0
  -26.8910  -30.3940   24.8240 C   0  0  0  0  0  1  0  0  0  0  0  0
  -27.4500  -32.5710   25.8590 C   0  0  0  0  0  1  0  0  0  0  0  0
  1  3  2  0
  1  5  1  0
  2  6  2  0
  3  2  1  0
  4  6  1  0
  4  8  1  0
  5  4  2  0
  8  7  1  0
 10 15  1  0
 11 12  1  0
 11 10  1  0
 13 12  1  0
 13 21  1  0
 13 14  1  0
 15  9  1  0
 15 14  1  0
 16  9  2  0
 17  9  1  0
 17  8  1  0
 18 19  2  0
 19 38  1  0
 20 19  1  0
 20 23  1  0
 21 22  1  0
 21 18  1  0
 22 20  2  0
 23 24  1  0
 24 25  2  0
 26 29  1  0
 26 25  1  0
 27 26  2  0
 28 27  1  0
 28 23  2  0
 29 30  1  0
 30 31  1  0
 31 32  2  0
 33 32  1  0
 33 37  1  0
 34 33  2  0
 35 30  2  0
 35 34  1  0
 36 35  1  0
 38 39  1  0
 39 42  1  0
 39 41  1  0
 40 38  2  0
 43 18  1  0
 43 44  1  0
 45 43  1  0
 46 48  1  0
 47 48  1  0
 48 17  1  0
 49  3  1  0
 49 50  1  0
 51 52  1  0
 51 50  1  0
 53 64  2  0
 54 52  1  0
 54 59  1  0
 55 63  1  0
 55 65  1  0
 56 62  1  0
 56 58  1  0
 57 63  1  0
 58 57  1  0
 59 58  2  0
 60 61  1  0
 60 54  2  0
 61 56  2  0
 62 55  1  0
 63 53  1  0
 65 67  2  0
 66 65  1  0
 68 66  1  0
 69 78  2  0
 69 74  1  0
 70 66  1  0
 70 74  1  0
 71 70  1  0
 72 73  1  0
 72 71  1  0
 73 69  1  0
 74 75  2  0
 75 76  1  0
 77 76  2  0
 78 77  1  0
 79 53  1  0
 79 80  1  0
 79 89  1  0
 80 83  1  0
 81 85  1  0
 81 80  1  0
 82 81  2  0
 85 84  1  0
 87 88  1  0
 87 85  1  0
 87 86  1  0
 89 92  1  1
 89 90  1  0
 91 89  1  0
M  ISO  4   9 100  17 100  51 101  52 101
M  END
>  <TORSDO>  (78) 
F 21

>  <SCORE>  (78) 
-12.714

>  <name>  (78) 
79

>  <ligand_id>  (78) 
79

>  <original_smiles>  (78) 
[H]c1nc(C([H])(N(C(=O)N2C([H])([H])C([H])([H])C([H])([H])C([H])(n3nc(-c4c([H])c([H])c(Oc5c([H])c([H])c(F)c([H])c5F)c([H])c4[H])c(C(=O)N([H])[H])c3N([H])[H])C2([H])[H])C([H])(C([H])([H])[H])C([H])([H])[H])C([H])([H])[H])nc([H])c1C([H])([H])C([H])([H])C([H])([H])Oc1c([H])c([H])c2c(c1[H])C([H])([H])N(C(=O)C([H])(N([H])C(=O)C([H])(N([H])C([H])([H])[H])C([H])([H])[H])C(C([H])([H])[H])(C([H])([H])[H])C([H])([H])[H])C([H])(C(=O)N([H])C1([H])c3c([H])c([H])c([H])c([H])c3C([H])([H])C([H])([H])C1([H])[H])C2([H])[H]

>  <smiles>  (78) 
[H]c1nc(C([H])(N(C(=O)N2C([H])([H])C([H])([H])C([H])([H])C([H])(n3nc(-c4c([H])c([H])c(Oc5c([H])c([H])c(F)c([H])c5F)c([H])c4[H])c(C(=O)N([H])[H])c3N([H])[H])C2([H])[H])C([H])(C([H])([H])[H])C([H])([H])[H])C([H])([H])[H])nc([H])c1C([H])([H])C([H])([H])C([H])([H])Oc1c([H])c([H])c2c(c1[H])C([H])([H])N(C(=O)C([H])(N([H])C(=O)C([H])(N([H])C([H])([H])[H])C([H])([H])[H])C(C([H])([H])[H])(C([H])([H])[H])C([H])([H])[H])C([H])(C(=O)N([H])C1([H])c3c([H])c([H])c([H])c([H])c3C([H])([H])C([H])([H])C1([H])[H])C2([H])[H]

$$$$
80:0:0
     RDKit          3D

 87 95  0  0  1  0  0  0  0  0999 V2000
  -28.9490  -21.3870   21.3010 C   0  0  0  0  0  3  0  0  0  0  0  0
  -29.0570  -19.9910   19.0690 C   0  0  0  0  0  3  0  0  0  0  0  0
  -28.6500  -22.3180   20.1820 C   0  0  0  0  0  0  0  0  0  0  0  0
  -29.3830  -19.0640   20.1850 C   0  0  0  0  0  0  0  0  0  0  0  0
  -28.7360  -21.4230   19.0720 N   0  0  0  0  0  0  0  0  0  0  0  0
  -29.2710  -19.9570   21.2970 N   0  0  0  0  0  0  0  0  0  0  0  0
  -29.3580  -17.2160   20.2910 C   0  0  1  0  0  0  0  0  0  0  0  0
  -29.0510  -17.0860   21.5820 F   0  0  0  0  0  0  0  0  0  0  0  0
  -28.2130  -16.9990   19.6420 F   0  0  0  0  0  0  0  0  0  0  0  0
  -30.3010  -15.6590   19.9520 C   0  0  0  0  0  0  0  0  0  0  0  0
  -30.3970  -13.1520   19.0520 C   0  0  0  0  0  2  0  0  0  0  0  0
  -29.4190  -12.8530   17.8770 C   0  0  0  0  0  2  0  0  0  0  0  0
  -28.0140  -12.4980   18.3940 C   0  0  0  0  0  2  0  0  0  0  0  0
  -27.5830  -13.4450   19.5370 C   0  0  0  0  0  3  0  0  0  0  0  0
  -28.6840  -13.6610   20.5980 C   0  0  0  0  0  2  0  0  0  0  0  0
  -29.8450  -14.2770   19.9220 N   0  0  0  0  0  0  0  0  0  0  0  0
  -31.5040  -15.6720   19.6230 O   0  0  0  0  0  0  0  0  0  0  0  0
  -25.2670  -13.9370   20.4670 C   0  0  0  0  0  0  0  0  0  0  0  0
  -24.2370  -13.1370   20.8730 C   0  0  0  0  0  0  0  0  0  0  0  0
  -24.7130  -11.7930   20.7650 C   0  0  0  0  0  0  0  0  0  0  0  0
  -26.2980  -13.0840   20.1230 N   0  0  0  0  0  0  0  0  0  0  0  0
  -25.9840  -11.7840   20.3700 N   0  0  0  0  0  0  0  0  0  0  0  0
  -24.0080  -10.5190   20.9560 C   0  0  0  0  0  0  0  0  0  0  0  0
  -24.4580   -9.5540   21.8840 C   0  0  0  0  0  3  0  0  0  0  0  0
  -23.7480   -8.3470   22.0650 C   0  0  0  0  0  3  0  0  0  0  0  0
  -22.5720   -8.0960   21.3190 C   0  0  0  0  0  0  0  0  0  0  0  0
  -22.1400   -9.0510   20.3800 C   0  0  0  0  0  3  0  0  0  0  0  0
  -22.8510  -10.2480   20.1980 C   0  0  0  0  0  3  0  0  0  0  0  0
  -21.8320   -6.9420   21.4090 O   0  0  0  0  0  0  0  0  0  0  0  0
  -21.7420   -6.2340   22.5810 C   0  0  0  0  0  0  0  0  0  0  0  0
  -21.2310   -6.8130   23.7630 C   0  0  0  0  0  3  0  0  0  0  0  0
  -21.0900   -6.0310   24.9260 C   0  0  0  0  0  3  0  0  0  0  0  0
  -21.4500   -4.6700   24.9090 C   0  0  0  0  0  0  0  0  0  0  0  0
  -21.9540   -4.0900   23.7310 C   0  0  0  0  0  3  0  0  0  0  0  0
  -22.0960   -4.8700   22.5700 C   0  0  0  0  0  0  0  0  0  0  0  0
  -22.5610   -4.3000   21.4320 F   0  0  0  0  0  0  0  0  0  0  0  0
  -21.3080   -3.9160   26.0240 F   0  0  0  0  0  0  0  0  0  0  0  0
  -22.8560  -13.5920   21.2430 C   0  0  0  0  0  0  0  0  0  0  0  0
  -22.1880  -12.8640   22.1300 N   0  0  0  0  0  0  0  0  0  0  0  0
  -22.3800  -14.6280   20.7790 O   0  0  0  0  0  0  0  0  0  0  0  0
  -22.5890  -12.0260   22.5250 H   0  0  0  0  0  0  0  0  0  0  0  0
  -21.2640  -13.1500   22.4200 H   0  0  0  0  0  0  0  0  0  0  0  0
  -25.4070  -15.3160   20.3290 N   0  0  0  0  0  0  0  0  0  0  0  0
  -24.6430  -15.9550   20.5200 H   0  0  0  0  0  0  0  0  0  0  0  0
  -26.2310  -15.7810   19.9700 H   0  0  0  0  0  0  0  0  0  0  0  0
  -27.8410  -23.9810   20.1480 C   0  0  0  0  0  2  0  0  0  0  0  0
  -28.1580  -25.6740   20.3040 O   0  0  0  0  0  0  0  0  0  0  0  0
  -24.6740  -31.9040   23.2460 C   0  0  0  0  0  0  0  0  0  0  0  0
  -27.1890  -26.8700   20.2480 C   0  0  0  0  0  0  0  0  0  0  0  0
  -23.4750  -30.5080   21.6150 C   0  0  0  0  0  3  0  0  0  0  0  0
  -24.9150  -28.8680   20.1970 C   0  0  0  0  0  0  0  0  0  0  0  0
  -26.0510  -30.6630   21.4780 C   0  0  0  0  0  2  0  0  0  0  0  0
  -26.1130  -29.2360   20.8230 C   0  0  0  0  0  0  0  0  0  0  0  0
  -27.2370  -28.2640   20.8170 C   0  0  0  0  0  3  0  0  0  0  0  0
  -25.9580  -26.7000   19.5670 C   0  0  0  0  0  3  0  0  0  0  0  0
  -24.8730  -27.6250   19.5450 C   0  0  0  0  0  3  0  0  0  0  0  0
  -23.7070  -29.8120   20.2430 C   0  0  0  0  0  2  0  0  0  0  0  0
  -24.7570  -31.0560   22.1650 N   0  0  0  0  0  0  0  0  0  0  0  0
  -23.5840  -32.2040   23.7630 O   0  0  0  0  0  0  0  0  0  0  0  0
  -22.7650  -29.5290   22.5890 C   0  0  0  0  0  0  0  0  0  0  0  0
  -21.4340  -29.3660   22.4610 N   0  0  0  0  0  0  0  0  0  0  0  0
  -23.4220  -28.9130   23.4310 O   0  0  0  0  0  0  0  0  0  0  0  0
  -20.9540  -29.9120   21.7590 H   0  0  0  0  0  0  0  0  0  0  0  0
  -18.0520  -28.1390   22.9650 C   0  0  0  0  0  0  0  0  0  0  0  0
  -20.6090  -28.4320   23.2360 C   0  0  0  0  0  3  0  0  0  0  0  0
  -20.7240  -26.9930   22.6770 C   0  0  0  0  0  2  0  0  0  0  0  0
  -19.6310  -26.6520   21.6610 C   0  0  0  0  0  2  0  0  0  0  0  0
  -18.2440  -26.7880   22.2960 C   0  0  0  0  0  2  0  0  0  0  0  0
  -19.1610  -28.9170   23.3920 C   0  0  0  0  0  0  0  0  0  0  0  0
  -18.9250  -30.1780   23.9810 C   0  0  0  0  0  3  0  0  0  0  0  0
  -17.6130  -30.6610   24.1450 C   0  0  0  0  0  3  0  0  0  0  0  0
  -16.5190  -29.8830   23.7310 C   0  0  0  0  0  3  0  0  0  0  0  0
  -16.7400  -28.6220   23.1470 C   0  0  0  0  0  3  0  0  0  0  0  0
  -25.9420  -32.5500   23.8800 C   0  0  0  0  0  3  0  0  0  0  0  0
  -25.6250  -33.9530   24.2130 N   0  0  0  0  0  0  0  0  0  0  0  0
  -25.9380  -35.0140   23.4580 C   0  0  0  0  0  0  0  0  0  0  0  0
  -26.5810  -34.9160   22.4100 O   0  0  0  0  0  0  0  0  0  0  0  0
  -25.0490  -34.1010   25.0280 H   0  0  0  0  0  0  0  0  0  0  0  0
  -24.1850  -36.8050   23.1860 C   0  0  0  0  0  1  0  0  0  0  0  0
  -25.4660  -36.4040   23.9370 C   0  0  0  0  0  3  0  0  0  0  0  0
  -27.6280  -37.3130   24.6690 C   0  0  0  0  0  1  0  0  0  0  0  0
  -26.4850  -37.4640   23.7720 N   0  0  0  0  0  0  0  0  0  0  0  0
  -26.0790  -38.3830   23.9290 H   0  0  0  0  0  0  0  0  0  0  0  0
  -26.4410  -31.7920   25.1730 C   0  0  1  0  0  0  0  0  0  0  0  0
  -25.3370  -31.5750   26.2350 C   0  0  0  0  0  1  0  0  0  0  0  0
  -27.0200  -30.4050   24.8140 C   0  0  0  0  0  1  0  0  0  0  0  0
  -27.5910  -32.5880   25.8350 C   0  0  0  0  0  1  0  0  0  0  0  0
  2  5  2  0
  2  4  1  0
  3  1  2  0
  4  7  1  0
  4  6  2  0
  5  3  1  0
  6  1  1  0
  7  8  1  1
  9  7  1  0
 10  7  1  0
 11 16  1  0
 12 13  1  0
 12 11  1  0
 14 13  1  0
 14 21  1  0
 14 15  1  0
 16 10  1  0
 16 15  1  0
 17 10  2  0
 18 19  2  0
 19 38  1  0
 20 19  1  0
 20 23  1  0
 21 22  1  0
 21 18  1  0
 22 20  2  0
 23 24  1  0
 24 25  2  0
 26 29  1  0
 26 25  1  0
 27 26  2  0
 28 27  1  0
 28 23  2  0
 29 30  1  0
 30 31  1  0
 31 32  2  0
 33 32  1  0
 33 37  1  0
 34 33  2  0
 35 30  2  0
 35 34  1  0
 36 35  1  0
 38 39  1  0
 39 42  1  0
 39 41  1  0
 40 38  2  0
 43 18  1  0
 43 44  1  0
 45 43  1  0
 46  3  1  0
 46 47  1  0
 48 59  2  0
 49 47  1  0
 49 54  1  0
 50 58  1  0
 50 60  1  0
 51 57  1  0
 51 53  1  0
 52 58  1  0
 53 52  1  0
 54 53  2  0
 55 49  2  0
 56 55  1  0
 56 51  2  0
 57 50  1  0
 58 48  1  0
 60 62  2  0
 61 60  1  0
 63 61  1  0
 64 73  2  0
 64 69  1  0
 65 61  1  0
 65 69  1  0
 66 65  1  0
 67 68  1  0
 67 66  1  0
 68 64  1  0
 69 70  2  0
 70 71  1  0
 72 71  2  0
 73 72  1  0
 74 48  1  0
 74 75  1  0
 74 84  1  0
 75 78  1  0
 76 80  1  0
 76 75  1  0
 77 76  2  0
 80 79  1  0
 82 83  1  0
 82 80  1  0
 82 81  1  0
 84 87  1  1
 84 85  1  0
 86 84  1  0
M  ISO  4   7 100  10 100  46 101  47 101
M  END
>  <TORSDO>  (79) 
F 18

>  <SCORE>  (79) 
-16.607

>  <name>  (79) 
80

>  <ligand_id>  (79) 
80

>  <original_smiles>  (79) 
[H]c1nc(C(F)(F)C(=O)N2C([H])([H])C([H])([H])C([H])([H])C([H])(n3nc(-c4c([H])c([H])c(Oc5c([H])c([H])c(F)c([H])c5F)c([H])c4[H])c(C(=O)N([H])[H])c3N([H])[H])C2([H])[H])c([H])nc1C([H])([H])Oc1c([H])c([H])c2c(c1[H])C([H])([H])N(C(=O)C([H])(N([H])C(=O)C([H])(N([H])C([H])([H])[H])C([H])([H])[H])C(C([H])([H])[H])(C([H])([H])[H])C([H])([H])[H])C([H])(C(=O)N([H])C1([H])c3c([H])c([H])c([H])c([H])c3C([H])([H])C([H])([H])C1([H])[H])C2([H])[H]

>  <smiles>  (79) 
[H]c1nc(C(F)(F)C(=O)N2C([H])([H])C([H])([H])C([H])([H])C([H])(n3nc(-c4c([H])c([H])c(Oc5c([H])c([H])c(F)c([H])c5F)c([H])c4[H])c(C(=O)N([H])[H])c3N([H])[H])C2([H])[H])c([H])nc1C([H])([H])Oc1c([H])c([H])c2c(c1[H])C([H])([H])N(C(=O)C([H])(N([H])C(=O)C([H])(N([H])C([H])([H])[H])C([H])([H])[H])C(C([H])([H])[H])(C([H])([H])[H])C([H])([H])[H])C([H])(C(=O)N([H])C1([H])c3c([H])c([H])c([H])c([H])c3C([H])([H])C([H])([H])C1([H])[H])C2([H])[H]

$$$$
81:0:0
     RDKit          3D

 92100  0  0  1  0  0  0  0  0999 V2000
  -29.2730  -21.9520   19.1920 C   0  0  0  0  0  3  0  0  0  0  0  0
  -29.2700  -22.5870   20.4660 C   0  0  0  0  0  0  0  0  0  0  0  0
  -30.1160  -20.5540   21.3490 C   0  0  0  0  0  0  0  0  0  0  0  0
  -30.1490  -19.9070   20.0690 C   0  0  0  0  0  0  0  0  0  0  0  0
  -30.6260  -19.9080   22.6250 C   0  0  0  0  0  1  0  0  0  0  0  0
  -29.6950  -20.6520   19.0070 N   0  0  0  0  0  0  0  0  0  0  0  0
  -29.6840  -21.8430   21.5310 N   0  0  0  0  0  0  0  0  0  0  0  0
  -32.1930  -18.3700   20.4490 C   0  0  0  0  0  1  0  0  0  0  0  0
  -31.1140  -18.3470   18.2650 C   0  0  0  0  0  1  0  0  0  0  0  0
  -30.7990  -18.4590   19.7780 C   0  0  2  0  0  0  0  0  0  0  0  0
  -29.8790  -17.1770   20.1120 C   0  0  0  0  0  2  0  0  0  0  0  0
  -30.9920  -14.7870   19.9850 C   0  0  0  0  0  0  0  0  0  0  0  0
  -30.6400  -12.5490   18.9370 C   0  0  0  0  0  2  0  0  0  0  0  0
  -29.6330  -12.6560   17.7720 C   0  0  0  0  0  2  0  0  0  0  0  0
  -28.1920  -12.5010   18.2940 C   0  0  0  0  0  2  0  0  0  0  0  0
  -27.9060  -13.3890   19.5330 C   0  0  0  0  0  3  0  0  0  0  0  0
  -29.0280  -13.2690   20.5890 C   0  0  0  0  0  2  0  0  0  0  0  0
  -30.3100  -13.5900   19.9370 N   0  0  0  0  0  0  0  0  0  0  0  0
  -32.0510  -14.9250   19.3700 O   0  0  0  0  0  0  0  0  0  0  0  0
  -30.5600  -15.8600   22.1160 C   0  0  0  0  0  1  0  0  0  0  0  0
  -30.4280  -15.8560   20.6530 N   0  0  0  0  0  0  0  0  0  0  0  0
  -25.5840  -13.9990   20.4470 C   0  0  0  0  0  0  0  0  0  0  0  0
  -24.5270  -13.2350   20.8580 C   0  0  0  0  0  0  0  0  0  0  0  0
  -24.9540  -11.8760   20.7430 C   0  0  0  0  0  0  0  0  0  0  0  0
  -26.5880  -13.1100   20.1020 N   0  0  0  0  0  0  0  0  0  0  0  0
  -26.2190  -11.8250   20.3430 N   0  0  0  0  0  0  0  0  0  0  0  0
  -24.2140  -10.6230   20.9350 C   0  0  0  0  0  0  0  0  0  0  0  0
  -24.6390   -9.6480   21.8660 C   0  0  0  0  0  3  0  0  0  0  0  0
  -23.8980   -8.4600   22.0450 C   0  0  0  0  0  3  0  0  0  0  0  0
  -22.7200   -8.2370   21.2930 C   0  0  0  0  0  0  0  0  0  0  0  0
  -22.3150   -9.2000   20.3520 C   0  0  0  0  0  3  0  0  0  0  0  0
  -23.0550  -10.3800   20.1720 C   0  0  0  0  0  3  0  0  0  0  0  0
  -21.9520   -7.1010   21.3810 O   0  0  0  0  0  0  0  0  0  0  0  0
  -21.8180   -6.4120   22.5600 C   0  0  0  0  0  0  0  0  0  0  0  0
  -21.3120   -7.0250   23.7280 C   0  0  0  0  0  3  0  0  0  0  0  0
  -21.1260   -6.2620   24.8980 C   0  0  0  0  0  3  0  0  0  0  0  0
  -21.4360   -4.8890   24.9010 C   0  0  0  0  0  0  0  0  0  0  0  0
  -21.9340   -4.2770   23.7370 C   0  0  0  0  0  3  0  0  0  0  0  0
  -22.1220   -5.0360   22.5700 C   0  0  0  0  0  0  0  0  0  0  0  0
  -22.5830   -4.4370   21.4450 F   0  0  0  0  0  0  0  0  0  0  0  0
  -21.2500   -4.1540   26.0220 F   0  0  0  0  0  0  0  0  0  0  0  0
  -23.1620  -13.7310   21.2420 C   0  0  0  0  0  0  0  0  0  0  0  0
  -22.4830  -13.0270   22.1400 N   0  0  0  0  0  0  0  0  0  0  0  0
  -22.7110  -14.7800   20.7830 O   0  0  0  0  0  0  0  0  0  0  0  0
  -22.8590  -12.1770   22.5340 H   0  0  0  0  0  0  0  0  0  0  0  0
  -21.5700  -13.3410   22.4380 H   0  0  0  0  0  0  0  0  0  0  0  0
  -25.7700  -15.3720   20.3120 N   0  0  0  0  0  0  0  0  0  0  0  0
  -25.0430  -16.0460   20.5250 H   0  0  0  0  0  0  0  0  0  0  0  0
  -26.6240  -15.8030   19.9790 H   0  0  0  0  0  0  0  0  0  0  0  0
  -28.8210  -24.0700   20.7990 C   0  0  0  0  0  3  0  0  0  0  0  0
  -28.7280  -25.2350   19.7190 C   0  0  0  0  0  3  0  0  0  0  0  0
  -28.5840  -26.6360   20.2000 O   0  0  0  0  0  0  0  0  0  0  0  0
  -24.6100  -31.8380   23.2180 C   0  0  0  0  0  0  0  0  0  0  0  0
  -27.4010  -27.3900   20.1420 C   0  0  0  0  0  0  0  0  0  0  0  0
  -23.4700  -30.4270   21.5410 C   0  0  0  0  0  3  0  0  0  0  0  0
  -24.9830  -28.9250   20.1230 C   0  0  0  0  0  0  0  0  0  0  0  0
  -26.0030  -30.8140   21.4000 C   0  0  0  0  0  2  0  0  0  0  0  0
  -26.1260  -29.4450   20.7400 C   0  0  0  0  0  0  0  0  0  0  0  0
  -27.3350  -28.6900   20.7340 C   0  0  0  0  0  3  0  0  0  0  0  0
  -26.2270  -26.9120   19.5170 C   0  0  0  0  0  3  0  0  0  0  0  0
  -25.0350  -27.6670   19.5020 C   0  0  0  0  0  3  0  0  0  0  0  0
  -23.7250  -29.7690   20.1570 C   0  0  0  0  0  2  0  0  0  0  0  0
  -24.7130  -31.0450   22.1100 N   0  0  0  0  0  0  0  0  0  0  0  0
  -23.5100  -32.0800   23.7370 O   0  0  0  0  0  0  0  0  0  0  0  0
  -22.8180  -29.3830   22.4780 C   0  0  0  0  0  0  0  0  0  0  0  0
  -21.5000  -29.1720   22.3250 N   0  0  0  0  0  0  0  0  0  0  0  0
  -23.4990  -28.7690   23.3050 O   0  0  0  0  0  0  0  0  0  0  0  0
  -21.0090  -29.7280   21.6390 H   0  0  0  0  0  0  0  0  0  0  0  0
  -18.1530  -27.8560   22.7180 C   0  0  0  0  0  0  0  0  0  0  0  0
  -20.6910  -28.2020   23.0650 C   0  0  0  0  0  3  0  0  0  0  0  0
  -20.8570  -26.7770   22.4890 C   0  0  0  0  0  2  0  0  0  0  0  0
  -19.7990  -26.4200   21.4400 C   0  0  0  0  0  2  0  0  0  0  0  0
  -18.3960  -26.5160   22.0460 C   0  0  0  0  0  2  0  0  0  0  0  0
  -19.2310  -28.6550   23.1810 C   0  0  0  0  0  0  0  0  0  0  0  0
  -18.9520  -29.9080   23.7680 C   0  0  0  0  0  3  0  0  0  0  0  0
  -17.6260  -30.3630   23.8990 C   0  0  0  0  0  3  0  0  0  0  0  0
  -16.5610  -29.5620   23.4520 C   0  0  0  0  0  3  0  0  0  0  0  0
  -16.8250  -28.3110   22.8680 C   0  0  0  0  0  3  0  0  0  0  0  0
  -25.8640  -32.4970   23.8690 C   0  0  0  0  0  3  0  0  0  0  0  0
  -26.3790  -31.7240   25.1450 C   0  0  1  0  0  0  0  0  0  0  0  0
  -25.2780  -31.4420   26.1950 C   0  0  0  0  0  1  0  0  0  0  0  0
  -27.0050  -30.3660   24.7510 C   0  0  0  0  0  1  0  0  0  0  0  0
  -27.4960  -32.5440   25.8360 C   0  0  0  0  0  1  0  0  0  0  0  0
  -25.5100  -33.8830   24.2110 N   0  0  0  0  0  0  0  0  0  0  0  0
  -25.8200  -34.9550   23.4670 C   0  0  0  0  0  0  0  0  0  0  0  0
  -26.5050  -34.8830   22.4430 O   0  0  0  0  0  0  0  0  0  0  0  0
  -24.8970  -34.0060   25.0030 H   0  0  0  0  0  0  0  0  0  0  0  0
  -24.0480  -36.7120   23.1160 C   0  0  0  0  0  1  0  0  0  0  0  0
  -25.2900  -36.3250   23.9350 C   0  0  0  0  0  3  0  0  0  0  0  0
  -27.3930  -37.2580   24.8020 C   0  0  0  0  0  1  0  0  0  0  0  0
  -26.2960  -37.4070   23.8490 N   0  0  0  0  0  0  0  0  0  0  0  0
  -25.8630  -38.3120   24.0050 H   0  0  0  0  0  0  0  0  0  0  0  0
  1  2  1  0
  2 50  1  0
  2  7  2  0
  3  7  1  0
  3  5  1  0
  4  3  2  0
  6  1  2  0
  6  4  1  0
 10  9  1  6
 10  4  1  0
 10 11  1  0
 10  8  1  0
 11 21  1  0
 12 21  1  0
 13 18  1  0
 14 15  1  0
 14 13  1  0
 16 15  1  0
 16 25  1  0
 16 17  1  0
 18 12  1  0
 18 17  1  0
 19 12  2  0
 21 20  1  0
 22 23  2  0
 23 42  1  0
 24 23  1  0
 24 27  1  0
 25 26  1  0
 25 22  1  0
 26 24  2  0
 27 28  1  0
 28 29  2  0
 30 33  1  0
 30 29  1  0
 31 30  2  0
 32 31  1  0
 32 27  2  0
 33 34  1  0
 34 39  2  0
 34 35  1  0
 35 36  2  0
 36 37  1  0
 37 41  1  0
 38 37  2  0
 39 38  1  0
 40 39  1  0
 42 43  1  0
 43 46  1  0
 43 45  1  0
 44 42  2  0
 47 22  1  0
 47 48  1  0
 49 47  1  0
 51 52  1  0
 51 50  2  0
 53 64  2  0
 54 52  1  0
 54 59  1  0
 55 63  1  0
 55 65  1  0
 56 62  1  0
 56 58  1  0
 57 63  1  0
 58 57  1  0
 59 58  2  0
 60 54  2  0
 61 60  1  0
 61 56  2  0
 62 55  1  0
 63 53  1  0
 65 67  2  0
 66 65  1  0
 68 66  1  0
 69 78  2  0
 69 74  1  0
 70 66  1  0
 70 74  1  0
 71 70  1  0
 72 73  1  0
 72 71  1  0
 73 69  1  0
 74 75  2  0
 75 76  1  0
 77 76  2  0
 78 77  1  0
 79 53  1  0
 79 84  1  0
 79 80  1  0
 80 83  1  1
 80 81  1  0
 82 80  1  0
 84 87  1  0
 85 89  1  0
 85 84  1  0
 86 85  2  0
 89 88  1  0
 91 89  1  0
 91 92  1  0
 91 90  1  0
M  ISO  4  12 100  21 100  51 101  52 101
M  END
>  <TORSDO>  (80) 
F 20

>  <SCORE>  (80) 
-13.411

>  <name>  (80) 
81

>  <ligand_id>  (80) 
81

>  <original_smiles>  (80) 
[H]c1nc(C(C([H])([H])[H])(C([H])([H])[H])C([H])([H])N(C(=O)N2C([H])([H])C([H])([H])C([H])([H])C([H])(n3nc(-c4c([H])c([H])c(Oc5c([H])c([H])c(F)c([H])c5F)c([H])c4[H])c(C(=O)N([H])[H])c3N([H])[H])C2([H])[H])C([H])([H])[H])c(C([H])([H])[H])nc1C([H])([H])C([H])([H])Oc1c([H])c([H])c2c(c1[H])C([H])([H])N(C(=O)C([H])(N([H])C(=O)C([H])(N([H])C([H])([H])[H])C([H])([H])[H])C(C([H])([H])[H])(C([H])([H])[H])C([H])([H])[H])C([H])(C(=O)N([H])C1([H])c3c([H])c([H])c([H])c([H])c3C([H])([H])C([H])([H])C1([H])[H])C2([H])[H]

>  <smiles>  (80) 
[H]c1nc(C(C([H])([H])[H])(C([H])([H])[H])C([H])([H])N(C(=O)N2C([H])([H])C([H])([H])C([H])([H])C([H])(n3nc(-c4c([H])c([H])c(Oc5c([H])c([H])c(F)c([H])c5F)c([H])c4[H])c(C(=O)N([H])[H])c3N([H])[H])C2([H])[H])C([H])([H])[H])c(C([H])([H])[H])nc1C([H])([H])C([H])([H])Oc1c([H])c([H])c2c(c1[H])C([H])([H])N(C(=O)C([H])(N([H])C(=O)C([H])(N([H])C([H])([H])[H])C([H])([H])[H])C(C([H])([H])[H])(C([H])([H])[H])C([H])([H])[H])C([H])(C(=O)N([H])C1([H])c3c([H])c([H])c([H])c([H])c3C([H])([H])C([H])([H])C1([H])[H])C2([H])[H]

$$$$
82:0:0
     RDKit          3D

 88 96  0  0  1  0  0  0  0  0999 V2000
  -28.4980  -21.8980   18.8420 C   0  0  0  0  0  3  0  0  0  0  0  0
  -28.5840  -22.5270   20.0850 C   0  0  0  0  0  0  0  0  0  0  0  0
  -29.2540  -20.0500   20.0820 C   0  0  0  0  0  3  0  0  0  0  0  0
  -28.9120  -19.6740   17.6630 C   0  0  0  0  0  1  0  0  0  0  0  0
  -28.8790  -20.5280   18.8620 N   0  0  0  0  0  0  0  0  0  0  0  0
  -29.0560  -21.2980   20.7990 N   0  0  0  0  0  0  0  0  0  0  0  0
  -29.2480  -21.3410   21.7930 H   0  0  0  0  0  0  0  0  0  0  0  0
  -27.9970  -24.1330   20.6080 C   0  0  0  0  0  2  0  0  0  0  0  0
  -28.2320  -25.7570   20.2270 O   0  0  0  0  0  0  0  0  0  0  0  0
  -24.6400  -31.8380   23.1890 C   0  0  0  0  0  0  0  0  0  0  0  0
  -27.2270  -26.8830   20.2410 C   0  0  0  0  0  0  0  0  0  0  0  0
  -23.4660  -30.4260   21.5520 C   0  0  0  0  0  3  0  0  0  0  0  0
  -24.9280  -28.8010   20.1660 C   0  0  0  0  0  0  0  0  0  0  0  0
  -26.0380  -30.6280   21.4250 C   0  0  0  0  0  2  0  0  0  0  0  0
  -26.1200  -29.2040   20.7800 C   0  0  0  0  0  0  0  0  0  0  0  0
  -27.2650  -28.2760   20.7780 C   0  0  0  0  0  3  0  0  0  0  0  0
  -25.9950  -26.6430   19.5910 C   0  0  0  0  0  3  0  0  0  0  0  0
  -24.8950  -27.5400   19.5450 C   0  0  0  0  0  3  0  0  0  0  0  0
  -23.7100  -29.7270   20.1870 C   0  0  0  0  0  2  0  0  0  0  0  0
  -24.7380  -30.9920   22.1090 N   0  0  0  0  0  0  0  0  0  0  0  0
  -23.5450  -32.1290   23.6960 O   0  0  0  0  0  0  0  0  0  0  0  0
  -22.7570  -29.4430   22.5230 C   0  0  0  0  0  0  0  0  0  0  0  0
  -21.4230  -29.2910   22.4050 N   0  0  0  0  0  0  0  0  0  0  0  0
  -23.4180  -28.8140   23.3540 O   0  0  0  0  0  0  0  0  0  0  0  0
  -20.9440  -29.8590   21.7180 H   0  0  0  0  0  0  0  0  0  0  0  0
  -18.0270  -28.1220   22.9380 C   0  0  0  0  0  0  0  0  0  0  0  0
  -20.5930  -28.3600   23.1780 C   0  0  0  0  0  3  0  0  0  0  0  0
  -20.6740  -26.9260   22.6030 C   0  0  0  0  0  2  0  0  0  0  0  0
  -19.5620  -26.6210   21.5960 C   0  0  0  0  0  2  0  0  0  0  0  0
  -18.1870  -26.7770   22.2520 C   0  0  0  0  0  2  0  0  0  0  0  0
  -19.1560  -28.8750   23.3580 C   0  0  0  0  0  0  0  0  0  0  0  0
  -18.9490  -30.1340   23.9640 C   0  0  0  0  0  3  0  0  0  0  0  0
  -17.6470  -30.6410   24.1460 C   0  0  0  0  0  3  0  0  0  0  0  0
  -16.5340  -29.8820   23.7430 C   0  0  0  0  0  3  0  0  0  0  0  0
  -16.7240  -28.6230   23.1460 C   0  0  0  0  0  3  0  0  0  0  0  0
  -25.9030  -32.4930   23.8290 C   0  0  0  0  0  3  0  0  0  0  0  0
  -25.5710  -33.8930   24.1540 N   0  0  0  0  0  0  0  0  0  0  0  0
  -25.9060  -34.9570   23.4100 C   0  0  0  0  0  0  0  0  0  0  0  0
  -26.5830  -34.8620   22.3850 O   0  0  0  0  0  0  0  0  0  0  0  0
  -24.9660  -34.0400   24.9470 H   0  0  0  0  0  0  0  0  0  0  0  0
  -24.1810  -36.7600   23.0620 C   0  0  0  0  0  1  0  0  0  0  0  0
  -25.4150  -36.3420   23.8760 C   0  0  0  0  0  3  0  0  0  0  0  0
  -27.5390  -37.2310   24.7320 C   0  0  0  0  0  1  0  0  0  0  0  0
  -26.4470  -37.3980   23.7780 N   0  0  0  0  0  0  0  0  0  0  0  0
  -26.0370  -38.3170   23.9240 H   0  0  0  0  0  0  0  0  0  0  0  0
  -26.3970  -31.7440   25.1290 C   0  0  1  0  0  0  0  0  0  0  0  0
  -25.2890  -31.5220   26.1840 C   0  0  0  0  0  1  0  0  0  0  0  0
  -26.9860  -30.3610   24.7760 C   0  0  0  0  0  1  0  0  0  0  0  0
  -27.5340  -32.5490   25.8010 C   0  0  0  0  0  1  0  0  0  0  0  0
  -29.9940  -18.4530   20.4530 C   0  0  0  0  0  2  0  0  0  0  0  0
  -30.3430  -15.4740   20.1810 C   0  0  0  0  0  0  0  0  0  0  0  0
  -30.3740  -12.9940   19.3040 C   0  0  0  0  0  2  0  0  0  0  0  0
  -29.4380  -12.6480   18.1110 C   0  0  0  0  0  2  0  0  0  0  0  0
  -28.0320  -12.2870   18.6220 C   0  0  0  0  0  2  0  0  0  0  0  0
  -27.5470  -13.2960   19.6830 C   0  0  0  0  0  3  0  0  0  0  0  0
  -28.6070  -13.5640   20.7780 C   0  0  0  0  0  2  0  0  0  0  0  0
  -29.7820  -14.1460   20.0960 N   0  0  0  0  0  0  0  0  0  0  0  0
  -31.5770  -15.4200   20.0440 O   0  0  0  0  0  0  0  0  0  0  0  0
  -28.1490  -16.7860   20.1070 C   0  0  0  0  0  1  0  0  0  0  0  0
  -29.6040  -16.8120   20.2270 N   0  0  0  0  0  0  0  0  0  0  0  0
  -25.1980  -13.8420   20.4910 C   0  0  0  0  0  0  0  0  0  0  0  0
  -24.1490  -13.0620   20.8840 C   0  0  0  0  0  0  0  0  0  0  0  0
  -24.6250  -11.7160   20.8480 C   0  0  0  0  0  0  0  0  0  0  0  0
  -26.2400  -12.9710   20.2300 N   0  0  0  0  0  0  0  0  0  0  0  0
  -25.9100  -11.6850   20.5120 N   0  0  0  0  0  0  0  0  0  0  0  0
  -23.9100  -10.4490   21.0400 C   0  0  0  0  0  0  0  0  0  0  0  0
  -24.3600   -9.4800   21.9630 C   0  0  0  0  0  3  0  0  0  0  0  0
  -23.6440   -8.2790   22.1450 C   0  0  0  0  0  3  0  0  0  0  0  0
  -22.4640   -8.0370   21.4020 C   0  0  0  0  0  0  0  0  0  0  0  0
  -22.0260   -8.9990   20.4750 C   0  0  0  0  0  3  0  0  0  0  0  0
  -22.7450  -10.1910   20.2920 C   0  0  0  0  0  3  0  0  0  0  0  0
  -21.7170   -6.8870   21.4960 O   0  0  0  0  0  0  0  0  0  0  0  0
  -21.6870   -6.1430   22.6470 C   0  0  0  0  0  0  0  0  0  0  0  0
  -21.2610   -6.6900   23.8770 C   0  0  0  0  0  3  0  0  0  0  0  0
  -21.1790   -5.8680   25.0200 C   0  0  0  0  0  3  0  0  0  0  0  0
  -21.5190   -4.5050   24.9320 C   0  0  0  0  0  0  0  0  0  0  0  0
  -21.9430   -3.9600   23.7090 C   0  0  0  0  0  3  0  0  0  0  0  0
  -22.0250   -4.7760   22.5670 C   0  0  0  0  0  0  0  0  0  0  0  0
  -22.4100   -4.2420   21.3830 F   0  0  0  0  0  0  0  0  0  0  0  0
  -21.4360   -3.7150   26.0290 F   0  0  0  0  0  0  0  0  0  0  0  0
  -22.7530  -13.5300   21.1720 C   0  0  0  0  0  0  0  0  0  0  0  0
  -22.0460  -12.8320   22.0500 N   0  0  0  0  0  0  0  0  0  0  0  0
  -22.3050  -14.5530   20.6550 O   0  0  0  0  0  0  0  0  0  0  0  0
  -22.4190  -11.9970   22.4770 H   0  0  0  0  0  0  0  0  0  0  0  0
  -21.1110  -13.1270   22.2910 H   0  0  0  0  0  0  0  0  0  0  0  0
  -25.3450  -15.2070   20.2820 N   0  0  0  0  0  0  0  0  0  0  0  0
  -24.5630  -15.8560   20.3330 H   0  0  0  0  0  0  0  0  0  0  0  0
  -26.1610  -15.6030   19.8320 H   0  0  0  0  0  0  0  0  0  0  0  0
  1  5  1  0
  1  2  2  0
  2  8  1  0
  2  6  1  0
  3 50  1  0
  3  6  1  0
  4  5  1  0
  5  3  1  0
  6  7  1  0
  9 11  1  0
  9  8  1  0
 10 21  2  0
 11 16  1  0
 12 20  1  0
 12 22  1  0
 13 19  1  0
 13 15  1  0
 14 20  1  0
 15 14  1  0
 16 15  2  0
 17 11  2  0
 18 17  1  0
 18 13  2  0
 19 12  1  0
 20 10  1  0
 22 24  2  0
 23 22  1  0
 25 23  1  0
 26 35  2  0
 26 31  1  0
 27 23  1  0
 27 31  1  0
 28 27  1  0
 29 30  1  0
 29 28  1  0
 30 26  1  0
 31 32  2  0
 32 33  1  0
 34 33  2  0
 35 34  1  0
 36 10  1  0
 36 37  1  0
 36 46  1  0
 37 40  1  0
 38 42  1  0
 38 37  1  0
 39 38  2  0
 42 41  1  0
 44 42  1  0
 44 45  1  0
 44 43  1  0
 46 49  1  1
 46 47  1  0
 48 46  1  0
 51 60  1  0
 52 57  1  0
 53 54  1  0
 53 52  1  0
 55 54  1  0
 55 64  1  0
 55 56  1  0
 57 51  1  0
 57 56  1  0
 58 51  2  0
 59 60  1  0
 60 50  1  0
 61 62  2  0
 62 81  1  0
 63 62  1  0
 63 66  1  0
 64 61  1  0
 64 65  1  0
 65 63  2  0
 66 67  1  0
 67 68  2  0
 69 72  1  0
 69 68  1  0
 70 69  2  0
 71 70  1  0
 71 66  2  0
 72 73  1  0
 73 74  1  0
 74 75  2  0
 76 75  1  0
 76 80  1  0
 77 76  2  0
 78 73  2  0
 78 77  1  0
 79 78  1  0
 81 82  1  0
 82 85  1  0
 82 84  1  0
 83 81  2  0
 86 87  1  0
 86 61  1  0
 88 86  1  0
M  ISO  4   8 101   9 101  51 100  60 100
M  END
>  <TORSDO>  (81) 
F 18

>  <SCORE>  (81) 
-16.727

>  <name>  (81) 
82

>  <ligand_id>  (81) 
82

>  <original_smiles>  (81) 
[H]c1c([H])c([H])c2c(c1[H])C([H])([H])C([H])([H])C([H])([H])C2([H])N([H])C(=O)C1([H])N(C(=O)C([H])(N([H])C(=O)C([H])(N([H])C([H])([H])[H])C([H])([H])[H])C(C([H])([H])[H])(C([H])([H])[H])C([H])([H])[H])C([H])([H])c2c([H])c(OC([H])([H])c3c([H])n(C([H])([H])[H])c(C([H])([H])N(C(=O)N4C([H])([H])C([H])([H])C([H])([H])C([H])(n5nc(-c6c([H])c([H])c(Oc7c([H])c([H])c(F)c([H])c7F)c([H])c6[H])c(C(=O)N([H])[H])c5N([H])[H])C4([H])[H])C([H])([H])[H])[n+]3[H])c([H])c([H])c2C1([H])[H]

>  <smiles>  (81) 
[H]c1c([H])c([H])c2c(c1[H])C([H])([H])C([H])([H])C([H])([H])C2([H])N([H])C(=O)C1([H])N(C(=O)C([H])(N([H])C(=O)C([H])(N([H])C([H])([H])[H])C([H])([H])[H])C(C([H])([H])[H])(C([H])([H])[H])C([H])([H])[H])C([H])([H])c2c([H])c(OC([H])([H])c3c([H])n(C([H])([H])[H])c(C([H])([H])N(C(=O)N4C([H])([H])C([H])([H])C([H])([H])C([H])(n5nc(-c6c([H])c([H])c(Oc7c([H])c([H])c(F)c([H])c7F)c([H])c6[H])c(C(=O)N([H])[H])c5N([H])[H])C4([H])[H])C([H])([H])[H])[n+]3[H])c([H])c([H])c2C1([H])[H]

$$$$
83:0:0
     RDKit          3D

 91 99  0  0  1  0  0  0  0  0999 V2000
  -28.0130  -21.5270   20.3180 C   0  0  0  0  0  3  0  0  0  0  0  0
  -30.1500  -21.3010   20.3300 C   0  0  0  0  0  3  0  0  0  0  0  0
  -29.2000  -22.3260   20.2870 C   0  0  0  0  0  0  0  0  0  0  0  0
  -28.2330  -20.1960   20.3870 N   0  0  0  0  0  0  0  0  0  0  0  0
  -29.5780  -20.0030   20.3860 N   0  0  0  0  0  0  0  0  0  0  0  0
  -30.2180  -24.2050   18.9520 C   0  0  0  0  0  1  0  0  0  0  0  0
  -30.2620  -24.3200   21.4500 C   0  0  0  0  0  1  0  0  0  0  0  0
  -29.4100  -23.9170   20.2300 C   0  0  2  0  0  0  0  0  0  0  0  0
  -28.1330  -24.9170   20.1990 C   0  0  0  0  0  2  0  0  0  0  0  0
  -28.3310  -26.4140   20.2010 O   0  0  0  0  0  0  0  0  0  0  0  0
  -24.5980  -31.8830   23.2040 C   0  0  0  0  0  0  0  0  0  0  0  0
  -27.2090  -27.2790   20.1650 C   0  0  0  0  0  0  0  0  0  0  0  0
  -23.3920  -30.4670   21.5810 C   0  0  0  0  0  3  0  0  0  0  0  0
  -24.8400  -28.9100   20.1570 C   0  0  0  0  0  0  0  0  0  0  0  0
  -25.9310  -30.7880   21.3810 C   0  0  0  0  0  2  0  0  0  0  0  0
  -26.0140  -29.4020   20.7400 C   0  0  0  0  0  0  0  0  0  0  0  0
  -27.2020  -28.6010   20.7280 C   0  0  0  0  0  3  0  0  0  0  0  0
  -26.0070  -26.8530   19.5580 C   0  0  0  0  0  3  0  0  0  0  0  0
  -24.8410  -27.6430   19.5560 C   0  0  0  0  0  3  0  0  0  0  0  0
  -23.6010  -29.7830   20.2050 C   0  0  0  0  0  2  0  0  0  0  0  0
  -24.6600  -31.0650   22.1110 N   0  0  0  0  0  0  0  0  0  0  0  0
  -23.5160  -32.1600   23.7420 O   0  0  0  0  0  0  0  0  0  0  0  0
  -22.7370  -29.4570   22.5540 C   0  0  0  0  0  0  0  0  0  0  0  0
  -21.4100  -29.2740   22.4360 N   0  0  0  0  0  0  0  0  0  0  0  0
  -23.4210  -28.8390   23.3730 O   0  0  0  0  0  0  0  0  0  0  0  0
  -20.9150  -29.8240   21.7480 H   0  0  0  0  0  0  0  0  0  0  0  0
  -18.0430  -28.0520   22.9520 C   0  0  0  0  0  0  0  0  0  0  0  0
  -20.6000  -28.3390   23.2180 C   0  0  0  0  0  3  0  0  0  0  0  0
  -20.7130  -26.9000   22.6600 C   0  0  0  0  0  2  0  0  0  0  0  0
  -19.6140  -26.5560   21.6500 C   0  0  0  0  0  2  0  0  0  0  0  0
  -18.2320  -26.6970   22.2920 C   0  0  0  0  0  2  0  0  0  0  0  0
  -19.1550  -28.8290   23.3730 C   0  0  0  0  0  0  0  0  0  0  0  0
  -18.9240  -30.0960   23.9530 C   0  0  0  0  0  3  0  0  0  0  0  0
  -17.6140  -30.5870   24.1130 C   0  0  0  0  0  3  0  0  0  0  0  0
  -16.5170  -29.8070   23.7090 C   0  0  0  0  0  3  0  0  0  0  0  0
  -16.7330  -28.5410   23.1350 C   0  0  0  0  0  3  0  0  0  0  0  0
  -25.8800  -32.5270   23.8150 C   0  0  0  0  0  3  0  0  0  0  0  0
  -26.4160  -31.7560   25.0840 C   0  0  1  0  0  0  0  0  0  0  0  0
  -25.3370  -31.5040   26.1610 C   0  0  0  0  0  1  0  0  0  0  0  0
  -27.0090  -30.3870   24.6810 C   0  0  0  0  0  1  0  0  0  0  0  0
  -27.5680  -32.5580   25.7350 C   0  0  0  0  0  1  0  0  0  0  0  0
  -25.5590  -33.9210   24.1580 N   0  0  0  0  0  0  0  0  0  0  0  0
  -25.8770  -34.9830   23.4050 C   0  0  0  0  0  0  0  0  0  0  0  0
  -26.5420  -34.8930   22.3700 O   0  0  0  0  0  0  0  0  0  0  0  0
  -24.9670  -34.0650   24.9620 H   0  0  0  0  0  0  0  0  0  0  0  0
  -24.1370  -36.7670   23.0740 C   0  0  0  0  0  1  0  0  0  0  0  0
  -25.3820  -36.3640   23.8780 C   0  0  0  0  0  3  0  0  0  0  0  0
  -27.5160  -37.2520   24.7070 C   0  0  0  0  0  1  0  0  0  0  0  0
  -26.4070  -37.4250   23.7720 N   0  0  0  0  0  0  0  0  0  0  0  0
  -25.9970  -38.3400   23.9350 H   0  0  0  0  0  0  0  0  0  0  0  0
  -31.7350  -18.7160   20.6430 C   0  0  0  0  0  1  0  0  0  0  0  0
  -30.2030  -18.6310   20.7140 C   0  0  0  0  0  3  0  0  0  0  0  0
  -29.7480  -17.2570   19.9660 C   0  0  0  0  0  2  0  0  0  0  0  0
  -30.6900  -14.7750   20.0450 C   0  0  0  0  0  0  0  0  0  0  0  0
  -30.4110  -12.5380   18.9320 C   0  0  0  0  0  2  0  0  0  0  0  0
  -29.4110  -12.6570   17.7610 C   0  0  0  0  0  2  0  0  0  0  0  0
  -27.9610  -12.4840   18.2530 C   0  0  0  0  0  2  0  0  0  0  0  0
  -27.6620  -13.3260   19.5210 C   0  0  0  0  0  3  0  0  0  0  0  0
  -28.7700  -13.1640   20.5800 C   0  0  0  0  0  2  0  0  0  0  0  0
  -30.0450  -13.5520   19.9550 N   0  0  0  0  0  0  0  0  0  0  0  0
  -31.7780  -14.9250   19.4790 O   0  0  0  0  0  0  0  0  0  0  0  0
  -29.8890  -15.9070   22.0580 C   0  0  0  0  0  1  0  0  0  0  0  0
  -30.0210  -15.8730   20.5960 N   0  0  0  0  0  0  0  0  0  0  0  0
  -25.3170  -13.9190   20.3760 C   0  0  0  0  0  0  0  0  0  0  0  0
  -24.2660  -13.1450   20.7900 C   0  0  0  0  0  0  0  0  0  0  0  0
  -24.7180  -11.7920   20.7170 C   0  0  0  0  0  0  0  0  0  0  0  0
  -26.3400  -13.0360   20.0740 N   0  0  0  0  0  0  0  0  0  0  0  0
  -25.9920  -11.7520   20.3410 N   0  0  0  0  0  0  0  0  0  0  0  0
  -23.9950  -10.5310   20.9290 C   0  0  0  0  0  0  0  0  0  0  0  0
  -24.4530   -9.5620   21.8470 C   0  0  0  0  0  3  0  0  0  0  0  0
  -23.7310   -8.3650   22.0470 C   0  0  0  0  0  3  0  0  0  0  0  0
  -22.5350   -8.1310   21.3270 C   0  0  0  0  0  0  0  0  0  0  0  0
  -22.0940   -9.0880   20.3970 C   0  0  0  0  0  3  0  0  0  0  0  0
  -22.8180  -10.2750   20.1960 C   0  0  0  0  0  3  0  0  0  0  0  0
  -21.7810   -6.9860   21.4370 O   0  0  0  0  0  0  0  0  0  0  0  0
  -21.7380   -6.2620   22.6010 C   0  0  0  0  0  0  0  0  0  0  0  0
  -21.3340   -6.8400   23.8240 C   0  0  0  0  0  3  0  0  0  0  0  0
  -21.2370   -6.0420   24.9810 C   0  0  0  0  0  3  0  0  0  0  0  0
  -21.5340   -4.6670   24.9160 C   0  0  0  0  0  0  0  0  0  0  0  0
  -21.9300   -4.0900   23.6980 C   0  0  0  0  0  3  0  0  0  0  0  0
  -22.0290   -4.8850   22.5430 C   0  0  0  0  0  0  0  0  0  0  0  0
  -22.3900   -4.3200   21.3660 F   0  0  0  0  0  0  0  0  0  0  0  0
  -21.4340   -3.8960   26.0240 F   0  0  0  0  0  0  0  0  0  0  0  0
  -22.8880  -13.6260   21.1410 C   0  0  0  0  0  0  0  0  0  0  0  0
  -22.2080  -12.9230   22.0400 N   0  0  0  0  0  0  0  0  0  0  0  0
  -22.4240  -14.6560   20.6510 O   0  0  0  0  0  0  0  0  0  0  0  0
  -22.5960  -12.0900   22.4580 H   0  0  0  0  0  0  0  0  0  0  0  0
  -21.2840  -13.2250   22.3160 H   0  0  0  0  0  0  0  0  0  0  0  0
  -25.4840  -15.2900   20.2110 N   0  0  0  0  0  0  0  0  0  0  0  0
  -24.7410  -15.9580   20.3840 H   0  0  0  0  0  0  0  0  0  0  0  0
  -26.3320  -15.7270   19.8670 H   0  0  0  0  0  0  0  0  0  0  0  0
  1  4  2  0
  2  5  1  0
  3  1  1  0
  3  2  2  0
  5  4  1  0
  5 52  1  0
  8  6  1  6
  8  3  1  0
  8  7  1  0
  9 10  1  0
  9  8  1  0
 11 22  2  0
 12 10  1  0
 12 17  1  0
 13 21  1  0
 13 23  1  0
 14 20  1  0
 14 16  1  0
 15 21  1  0
 16 15  1  0
 17 16  2  0
 18 12  2  0
 19 18  1  0
 19 14  2  0
 20 13  1  0
 21 11  1  0
 23 25  2  0
 24 23  1  0
 26 24  1  0
 27 36  2  0
 27 32  1  0
 28 24  1  0
 28 32  1  0
 29 28  1  0
 30 31  1  0
 30 29  1  0
 31 27  1  0
 32 33  2  0
 33 34  1  0
 35 34  2  0
 36 35  1  0
 37 11  1  0
 37 42  1  0
 37 38  1  0
 38 41  1  1
 38 39  1  0
 40 38  1  0
 42 45  1  0
 43 47  1  0
 43 42  1  0
 44 43  2  0
 47 46  1  0
 49 47  1  0
 49 50  1  0
 49 48  1  0
 52 51  1  0
 53 63  1  0
 53 52  1  0
 54 63  1  0
 55 60  1  0
 56 57  1  0
 56 55  1  0
 58 57  1  0
 58 67  1  0
 58 59  1  0
 60 54  1  0
 60 59  1  0
 61 54  2  0
 63 62  1  0
 64 65  2  0
 65 84  1  0
 66 65  1  0
 66 69  1  0
 67 68  1  0
 67 64  1  0
 68 66  2  0
 69 70  1  0
 70 71  2  0
 72 75  1  0
 72 71  1  0
 73 72  2  0
 74 73  1  0
 74 69  2  0
 75 76  1  0
 76 77  1  0
 77 78  2  0
 79 78  1  0
 79 83  1  0
 80 79  2  0
 81 76  2  0
 81 80  1  0
 82 81  1  0
 84 85  1  0
 85 88  1  0
 85 87  1  0
 86 84  2  0
 89 64  1  0
 89 90  1  0
 91 89  1  0
M  ISO  4   9 101  10 101  54 100  63 100
M  END
>  <TORSDO>  (82) 
F 20

>  <SCORE>  (82) 
-13.516

>  <name>  (82) 
83

>  <ligand_id>  (82) 
83

>  <original_smiles>  (82) 
[H]c1nn(C([H])(C([H])([H])[H])C([H])([H])N(C(=O)N2C([H])([H])C([H])([H])C([H])([H])C([H])(n3nc(-c4c([H])c([H])c(Oc5c([H])c([H])c(F)c([H])c5F)c([H])c4[H])c(C(=O)N([H])[H])c3N([H])[H])C2([H])[H])C([H])([H])[H])c([H])c1C(C([H])([H])[H])(C([H])([H])[H])C([H])([H])Oc1c([H])c([H])c2c(c1[H])C([H])([H])N(C(=O)C([H])(N([H])C(=O)C([H])(N([H])C([H])([H])[H])C([H])([H])[H])C(C([H])([H])[H])(C([H])([H])[H])C([H])([H])[H])C([H])(C(=O)N([H])C1([H])c3c([H])c([H])c([H])c([H])c3C([H])([H])C([H])([H])C1([H])[H])C2([H])[H]

>  <smiles>  (82) 
[H]c1nn(C([H])(C([H])([H])[H])C([H])([H])N(C(=O)N2C([H])([H])C([H])([H])C([H])([H])C([H])(n3nc(-c4c([H])c([H])c(Oc5c([H])c([H])c(F)c([H])c5F)c([H])c4[H])c(C(=O)N([H])[H])c3N([H])[H])C2([H])[H])C([H])([H])[H])c([H])c1C(C([H])([H])[H])(C([H])([H])[H])C([H])([H])Oc1c([H])c([H])c2c(c1[H])C([H])([H])N(C(=O)C([H])(N([H])C(=O)C([H])(N([H])C([H])([H])[H])C([H])([H])[H])C(C([H])([H])[H])(C([H])([H])[H])C([H])([H])[H])C([H])(C(=O)N([H])C1([H])c3c([H])c([H])c([H])c([H])c3C([H])([H])C([H])([H])C1([H])[H])C2([H])[H]

$$$$
84:0:0
     RDKit          3D

 90 98  0  0  1  0  0  0  0  0999 V2000
  -28.1990  -21.8140   19.9170 C   0  0  0  0  0  3  0  0  0  0  0  0
  -28.7040  -23.1190   20.1820 C   0  0  0  0  0  0  0  0  0  0  0  0
  -30.0570  -22.7840   20.4410 N   0  0  0  0  0  0  0  0  0  0  0  0
  -30.3260  -21.4680   20.3040 N   0  0  0  0  0  0  0  0  0  0  0  0
  -29.1890  -20.7570   20.0070 N   0  0  0  0  0  0  0  0  0  0  0  0
  -27.8040  -18.7300   20.5430 C   0  0  0  0  0  1  0  0  0  0  0  0
  -28.7610  -19.0030   18.2670 C   0  0  0  0  0  1  0  0  0  0  0  0
  -29.0640  -19.1540   19.7680 C   0  0  1  0  0  0  0  0  0  0  0  0
  -30.2010  -17.9120   20.0950 C   0  0  0  0  0  2  0  0  0  0  0  0
  -30.6220  -15.1240   19.8930 C   0  0  0  0  0  0  0  0  0  0  0  0
  -30.4490  -12.7610   18.9500 C   0  0  0  0  0  2  0  0  0  0  0  0
  -29.4480  -12.6940   17.7720 C   0  0  0  0  0  2  0  0  0  0  0  0
  -28.0120  -12.4760   18.2890 C   0  0  0  0  0  2  0  0  0  0  0  0
  -27.6690  -13.4000   19.4860 C   0  0  0  0  0  3  0  0  0  0  0  0
  -28.7890  -13.4310   20.5480 C   0  0  0  0  0  2  0  0  0  0  0  0
  -30.0140  -13.8620   19.8610 N   0  0  0  0  0  0  0  0  0  0  0  0
  -31.8160  -15.1610   19.5760 O   0  0  0  0  0  0  0  0  0  0  0  0
  -29.8710  -16.3350   20.0780 N   0  0  0  0  0  0  0  0  0  0  0  0
  -28.8990  -16.1410   20.2600 H   0  0  0  0  0  0  0  0  0  0  0  0
  -25.3460  -13.9790   20.3820 C   0  0  0  0  0  0  0  0  0  0  0  0
  -24.2980  -13.2050   20.8000 C   0  0  0  0  0  0  0  0  0  0  0  0
  -24.7480  -11.8510   20.7160 C   0  0  0  0  0  0  0  0  0  0  0  0
  -26.3640  -13.0980   20.0620 N   0  0  0  0  0  0  0  0  0  0  0  0
  -26.0200  -11.8120   20.3300 N   0  0  0  0  0  0  0  0  0  0  0  0
  -24.0220  -10.5910   20.9230 C   0  0  0  0  0  0  0  0  0  0  0  0
  -24.4670   -9.6240   21.8510 C   0  0  0  0  0  3  0  0  0  0  0  0
  -23.7380   -8.4320   22.0480 C   0  0  0  0  0  3  0  0  0  0  0  0
  -22.5500   -8.1980   21.3170 C   0  0  0  0  0  0  0  0  0  0  0  0
  -22.1220   -9.1540   20.3790 C   0  0  0  0  0  3  0  0  0  0  0  0
  -22.8520  -10.3380   20.1800 C   0  0  0  0  0  3  0  0  0  0  0  0
  -21.7910   -7.0570   21.4230 O   0  0  0  0  0  0  0  0  0  0  0  0
  -21.7370   -6.3330   22.5870 C   0  0  0  0  0  0  0  0  0  0  0  0
  -21.2620   -6.8940   23.7930 C   0  0  0  0  0  3  0  0  0  0  0  0
  -21.1600   -6.0950   24.9490 C   0  0  0  0  0  3  0  0  0  0  0  0
  -21.5230   -4.7350   24.9010 C   0  0  0  0  0  0  0  0  0  0  0  0
  -21.9910   -4.1740   23.7000 C   0  0  0  0  0  3  0  0  0  0  0  0
  -22.0950   -4.9700   22.5460 C   0  0  0  0  0  0  0  0  0  0  0  0
  -22.5270   -4.4180   21.3860 F   0  0  0  0  0  0  0  0  0  0  0  0
  -21.4180   -3.9660   26.0090 F   0  0  0  0  0  0  0  0  0  0  0  0
  -22.9230  -13.6890   21.1570 C   0  0  0  0  0  0  0  0  0  0  0  0
  -22.2370  -12.9860   22.0500 N   0  0  0  0  0  0  0  0  0  0  0  0
  -22.4660  -14.7270   20.6790 O   0  0  0  0  0  0  0  0  0  0  0  0
  -22.6210  -12.1470   22.4590 H   0  0  0  0  0  0  0  0  0  0  0  0
  -21.3160  -13.2910   22.3310 H   0  0  0  0  0  0  0  0  0  0  0  0
  -25.5110  -15.3510   20.2160 N   0  0  0  0  0  0  0  0  0  0  0  0
  -24.7540  -16.0060   20.3820 H   0  0  0  0  0  0  0  0  0  0  0  0
  -26.3220  -15.7830   19.7960 H   0  0  0  0  0  0  0  0  0  0  0  0
  -27.3130  -24.4900   21.8500 C   0  0  0  0  0  1  0  0  0  0  0  0
  -27.8700  -24.5630   20.4190 C   0  0  0  0  0  3  0  0  0  0  0  0
  -28.2900  -26.0910   20.2770 O   0  0  0  0  0  0  0  0  0  0  0  0
  -24.6240  -31.9090   23.1440 C   0  0  0  0  0  0  0  0  0  0  0  0
  -27.2680  -27.1360   20.1960 C   0  0  0  0  0  0  0  0  0  0  0  0
  -23.4560  -30.4830   21.5100 C   0  0  0  0  0  3  0  0  0  0  0  0
  -24.9360  -28.9060   20.1170 C   0  0  0  0  0  0  0  0  0  0  0  0
  -26.0150  -30.7540   21.3760 C   0  0  0  0  0  2  0  0  0  0  0  0
  -26.1090  -29.3520   20.7410 C   0  0  0  0  0  0  0  0  0  0  0  0
  -27.2760  -28.4830   20.7640 C   0  0  0  0  0  3  0  0  0  0  0  0
  -26.0730  -26.8270   19.5070 C   0  0  0  0  0  3  0  0  0  0  0  0
  -24.9350  -27.6590   19.4820 C   0  0  0  0  0  3  0  0  0  0  0  0
  -23.7020  -29.7950   20.1420 C   0  0  0  0  0  2  0  0  0  0  0  0
  -24.7180  -31.0730   22.0640 N   0  0  0  0  0  0  0  0  0  0  0  0
  -23.5280  -32.1890   23.6560 O   0  0  0  0  0  0  0  0  0  0  0  0
  -22.7740  -29.4810   22.4770 C   0  0  0  0  0  0  0  0  0  0  0  0
  -21.4440  -29.3210   22.3620 N   0  0  0  0  0  0  0  0  0  0  0  0
  -23.4460  -28.8490   23.2960 O   0  0  0  0  0  0  0  0  0  0  0  0
  -20.9560  -29.8800   21.6760 H   0  0  0  0  0  0  0  0  0  0  0  0
  -18.0530  -28.1650   22.9190 C   0  0  0  0  0  0  0  0  0  0  0  0
  -20.6200  -28.3900   23.1400 C   0  0  0  0  0  3  0  0  0  0  0  0
  -20.6910  -26.9620   22.5540 C   0  0  0  0  0  2  0  0  0  0  0  0
  -19.5670  -26.6620   21.5580 C   0  0  0  0  0  2  0  0  0  0  0  0
  -18.1990  -26.8190   22.2270 C   0  0  0  0  0  2  0  0  0  0  0  0
  -19.1900  -28.9100   23.3320 C   0  0  0  0  0  0  0  0  0  0  0  0
  -18.9970  -30.1680   23.9420 C   0  0  0  0  0  3  0  0  0  0  0  0
  -17.7010  -30.6820   24.1400 C   0  0  0  0  0  3  0  0  0  0  0  0
  -16.5800  -29.9350   23.7400 C   0  0  0  0  0  3  0  0  0  0  0  0
  -16.7570  -28.6780   23.1340 C   0  0  0  0  0  3  0  0  0  0  0  0
  -25.8860  -32.5670   23.7770 C   0  0  0  0  0  3  0  0  0  0  0  0
  -26.4050  -31.8040   25.0580 C   0  0  1  0  0  0  0  0  0  0  0  0
  -25.3060  -31.5380   26.1140 C   0  0  0  0  0  1  0  0  0  0  0  0
  -27.0250  -30.4410   24.6740 C   0  0  0  0  0  1  0  0  0  0  0  0
  -27.5300  -32.6230   25.7330 C   0  0  0  0  0  1  0  0  0  0  0  0
  -25.5450  -33.9580   24.1160 N   0  0  0  0  0  0  0  0  0  0  0  0
  -25.8690  -35.0280   23.3770 C   0  0  0  0  0  0  0  0  0  0  0  0
  -26.5530  -34.9480   22.3530 O   0  0  0  0  0  0  0  0  0  0  0  0
  -24.9380  -34.0920   24.9110 H   0  0  0  0  0  0  0  0  0  0  0  0
  -24.1360  -36.8170   23.0100 C   0  0  0  0  0  1  0  0  0  0  0  0
  -25.3570  -36.4040   23.8480 C   0  0  0  0  0  3  0  0  0  0  0  0
  -27.4520  -37.3000   24.7640 C   0  0  0  0  0  1  0  0  0  0  0  0
  -26.3830  -37.4690   23.7840 N   0  0  0  0  0  0  0  0  0  0  0  0
  -25.9630  -38.3830   23.9280 H   0  0  0  0  0  0  0  0  0  0  0  0
  1  5  1  0
  1  2  2  0
  2 49  1  0
  2  3  1  0
  4  3  2  0
  5  4  1  0
  8  7  1  6
  8  5  1  0
  8  9  1  0
  8  6  1  0
 10 18  1  0
 11 16  1  0
 12 13  1  0
 12 11  1  0
 14 13  1  0
 14 23  1  0
 14 15  1  0
 16 10  1  0
 16 15  1  0
 17 10  2  0
 18  9  1  0
 18 19  1  0
 20 21  2  0
 21 40  1  0
 22 21  1  0
 22 25  1  0
 23 24  1  0
 23 20  1  0
 24 22  2  0
 25 26  1  0
 26 27  2  0
 28 31  1  0
 28 27  1  0
 29 28  2  0
 30 29  1  0
 30 25  2  0
 31 32  1  0
 32 33  1  0
 33 34  2  0
 35 34  1  0
 35 39  1  0
 36 35  2  0
 37 32  2  0
 37 36  1  0
 38 37  1  0
 40 41  1  0
 41 44  1  0
 41 43  1  0
 42 40  2  0
 45 46  1  0
 45 20  1  0
 47 45  1  0
 49 48  1  0
 50 49  1  0
 51 62  2  0
 52 50  1  0
 52 57  1  0
 53 61  1  0
 53 63  1  0
 54 60  1  0
 54 56  1  0
 55 61  1  0
 56 57  2  0
 56 55  1  0
 58 52  2  0
 59 58  1  0
 59 54  2  0
 60 53  1  0
 61 51  1  0
 63 65  2  0
 64 63  1  0
 66 64  1  0
 67 76  2  0
 67 72  1  0
 68 64  1  0
 68 72  1  0
 69 68  1  0
 70 71  1  0
 70 69  1  0
 71 67  1  0
 72 73  2  0
 73 74  1  0
 75 74  2  0
 76 75  1  0
 77 51  1  0
 77 82  1  0
 77 78  1  0
 78 81  1  1
 78 79  1  0
 80 78  1  0
 82 85  1  0
 83 87  1  0
 83 82  1  0
 84 83  2  0
 87 86  1  0
 89 87  1  0
 89 90  1  0
 89 88  1  0
M  ISO  4  10 100  18 100  49 101  50 101
M  END
>  <TORSDO>  (83) 
F 19

>  <SCORE>  (83) 
-14.642

>  <name>  (83) 
84

>  <ligand_id>  (83) 
84

>  <original_smiles>  (83) 
[H]c1c([H])c([H])c2c(c1[H])C([H])([H])C([H])([H])C([H])([H])C2([H])N([H])C(=O)C1([H])N(C(=O)C([H])(N([H])C(=O)C([H])(N([H])C([H])([H])[H])C([H])([H])[H])C(C([H])([H])[H])(C([H])([H])[H])C([H])([H])[H])C([H])([H])c2c([H])c(OC([H])(c3nnn(C(C([H])([H])[H])(C([H])([H])[H])C([H])([H])N([H])C(=O)N4C([H])([H])C([H])([H])C([H])([H])C([H])(n5nc(-c6c([H])c([H])c(Oc7c([H])c([H])c(F)c([H])c7F)c([H])c6[H])c(C(=O)N([H])[H])c5N([H])[H])C4([H])[H])c3[H])C([H])([H])[H])c([H])c([H])c2C1([H])[H]

>  <smiles>  (83) 
[H]c1c([H])c([H])c2c(c1[H])C([H])([H])C([H])([H])C([H])([H])C2([H])N([H])C(=O)C1([H])N(C(=O)C([H])(N([H])C(=O)C([H])(N([H])C([H])([H])[H])C([H])([H])[H])C(C([H])([H])[H])(C([H])([H])[H])C([H])([H])[H])C([H])([H])c2c([H])c(OC([H])(c3nnn(C(C([H])([H])[H])(C([H])([H])[H])C([H])([H])N([H])C(=O)N4C([H])([H])C([H])([H])C([H])([H])C([H])(n5nc(-c6c([H])c([H])c(Oc7c([H])c([H])c(F)c([H])c7F)c([H])c6[H])c(C(=O)N([H])[H])c5N([H])[H])C4([H])[H])c3[H])C([H])([H])[H])c([H])c([H])c2C1([H])[H]

$$$$
85:0:0
     RDKit          3D

 89 97  0  0  1  0  0  0  0  0999 V2000
  -28.1230  -22.6080   20.4250 C   0  0  0  0  0  3  0  0  0  0  0  0
  -27.8660  -21.2380   20.6980 C   0  0  0  0  0  0  0  0  0  0  0  0
  -29.2610  -23.0260   19.7140 C   0  0  0  0  0  0  0  0  0  0  0  0
  -29.8090  -20.4020   19.6970 C   0  0  0  0  0  0  0  0  0  0  0  0
  -26.5650  -20.8580   21.3780 C   0  0  0  0  0  1  0  0  0  0  0  0
  -28.6690  -20.1950   20.3510 N   0  0  0  0  0  0  0  0  0  0  0  0
  -30.0760  -21.8160   19.3760 N   0  0  0  0  0  0  0  0  0  0  0  0
  -30.7950  -18.8670   17.8070 C   0  0  0  0  0  1  0  0  0  0  0  0
  -30.7090  -18.9010   19.3440 C   0  0  0  0  0  3  0  0  0  0  0  0
  -31.3110  -15.9650   19.6950 C   0  0  0  0  0  0  0  0  0  0  0  0
  -31.3130  -13.4530   18.9490 C   0  0  0  0  0  2  0  0  0  0  0  0
  -30.3540  -13.1550   17.7660 C   0  0  0  0  0  2  0  0  0  0  0  0
  -28.9410  -12.8580   18.2890 C   0  0  0  0  0  2  0  0  0  0  0  0
  -28.5140  -13.8660   19.3820 C   0  0  0  0  0  3  0  0  0  0  0  0
  -29.6000  -14.1110   20.4530 C   0  0  0  0  0  2  0  0  0  0  0  0
  -30.7800  -14.6320   19.7430 N   0  0  0  0  0  0  0  0  0  0  0  0
  -32.5140  -15.9480   19.3880 O   0  0  0  0  0  0  0  0  0  0  0  0
  -30.5440  -17.2590   19.7820 N   0  0  0  0  0  0  0  0  0  0  0  0
  -29.6040  -17.0960   20.1120 H   0  0  0  0  0  0  0  0  0  0  0  0
  -26.2010  -14.4260   20.2840 C   0  0  0  0  0  0  0  0  0  0  0  0
  -25.1520  -13.6510   20.6850 C   0  0  0  0  0  0  0  0  0  0  0  0
  -25.5950  -12.2960   20.5840 C   0  0  0  0  0  0  0  0  0  0  0  0
  -27.2160  -13.5460   19.9560 N   0  0  0  0  0  0  0  0  0  0  0  0
  -26.8670  -12.2550   20.2030 N   0  0  0  0  0  0  0  0  0  0  0  0
  -24.8590  -11.0390   20.7700 C   0  0  0  0  0  0  0  0  0  0  0  0
  -25.1860  -10.1350   21.8040 C   0  0  0  0  0  3  0  0  0  0  0  0
  -24.4470   -8.9440   21.9750 C   0  0  0  0  0  3  0  0  0  0  0  0
  -23.3670   -8.6470   21.1100 C   0  0  0  0  0  0  0  0  0  0  0  0
  -23.0620   -9.5390   20.0660 C   0  0  0  0  0  3  0  0  0  0  0  0
  -23.8010  -10.7210   19.8950 C   0  0  0  0  0  3  0  0  0  0  0  0
  -22.6090   -7.5030   21.1850 O   0  0  0  0  0  0  0  0  0  0  0  0
  -22.2150   -6.9790   22.3910 C   0  0  0  0  0  0  0  0  0  0  0  0
  -21.4090   -7.7090   23.2910 C   0  0  0  0  0  3  0  0  0  0  0  0
  -20.9670   -7.1080   24.4860 C   0  0  0  0  0  3  0  0  0  0  0  0
  -21.3230   -5.7780   24.7810 C   0  0  0  0  0  0  0  0  0  0  0  0
  -22.1220   -5.0490   23.8820 C   0  0  0  0  0  3  0  0  0  0  0  0
  -22.5640   -5.6480   22.6890 C   0  0  0  0  0  0  0  0  0  0  0  0
  -23.3160   -4.9330   21.8180 F   0  0  0  0  0  0  0  0  0  0  0  0
  -20.8950   -5.1980   25.9250 F   0  0  0  0  0  0  0  0  0  0  0  0
  -23.7800  -14.1370   21.0460 C   0  0  0  0  0  0  0  0  0  0  0  0
  -23.1040  -13.4400   21.9520 N   0  0  0  0  0  0  0  0  0  0  0  0
  -23.3210  -15.1710   20.5610 O   0  0  0  0  0  0  0  0  0  0  0  0
  -23.4880  -12.5990   22.3560 H   0  0  0  0  0  0  0  0  0  0  0  0
  -22.1880  -13.7520   22.2460 H   0  0  0  0  0  0  0  0  0  0  0  0
  -26.3720  -15.8000   20.1420 N   0  0  0  0  0  0  0  0  0  0  0  0
  -25.6190  -16.4560   20.3200 H   0  0  0  0  0  0  0  0  0  0  0  0
  -27.1970  -16.2430   19.7580 H   0  0  0  0  0  0  0  0  0  0  0  0
  -29.2950  -24.7340   19.1590 C   0  0  0  0  0  2  0  0  0  0  0  0
  -29.0560  -26.2750   19.8110 O   0  0  0  0  0  0  0  0  0  0  0  0
  -24.8140  -31.7030   23.0240 C   0  0  0  0  0  0  0  0  0  0  0  0
  -27.9550  -27.3110   19.7250 C   0  0  0  0  0  0  0  0  0  0  0  0
  -23.8180  -30.3060   21.2600 C   0  0  0  0  0  3  0  0  0  0  0  0
  -25.4640  -28.9750   19.7560 C   0  0  0  0  0  0  0  0  0  0  0  0
  -26.3520  -30.7910   21.2040 C   0  0  0  0  0  2  0  0  0  0  0  0
  -26.5890  -29.4430   20.4470 C   0  0  0  0  0  0  0  0  0  0  0  0
  -27.8160  -28.6270   20.4170 C   0  0  0  0  0  3  0  0  0  0  0  0
  -26.7870  -27.0200   18.9830 C   0  0  0  0  0  3  0  0  0  0  0  0
  -25.5900  -27.7910   19.0100 C   0  0  0  0  0  3  0  0  0  0  0  0
  -24.1510  -29.7560   19.8430 C   0  0  0  0  0  2  0  0  0  0  0  0
  -25.0130  -30.9620   21.8850 N   0  0  0  0  0  0  0  0  0  0  0  0
  -23.6890  -31.8330   23.5310 O   0  0  0  0  0  0  0  0  0  0  0  0
  -23.2200  -29.1770   22.1390 C   0  0  0  0  0  0  0  0  0  0  0  0
  -21.9190  -28.8720   21.9660 N   0  0  0  0  0  0  0  0  0  0  0  0
  -23.9330  -28.5780   22.9480 O   0  0  0  0  0  0  0  0  0  0  0  0
  -21.3890  -29.4140   21.2980 H   0  0  0  0  0  0  0  0  0  0  0  0
  -18.6880  -27.2460   22.3110 C   0  0  0  0  0  0  0  0  0  0  0  0
  -21.1970  -27.7910   22.6470 C   0  0  0  0  0  3  0  0  0  0  0  0
  -21.4750  -26.4280   21.9720 C   0  0  0  0  0  2  0  0  0  0  0  0
  -20.4290  -26.0570   20.9150 C   0  0  0  0  0  2  0  0  0  0  0  0
  -19.0370  -25.9810   21.5440 C   0  0  0  0  0  2  0  0  0  0  0  0
  -19.7040  -28.1030   22.8170 C   0  0  0  0  0  0  0  0  0  0  0  0
  -19.3250  -29.2800   23.4990 C   0  0  0  0  0  3  0  0  0  0  0  0
  -17.9680  -29.6060   23.6770 C   0  0  0  0  0  3  0  0  0  0  0  0
  -16.9690  -28.7470   23.1880 C   0  0  0  0  0  3  0  0  0  0  0  0
  -17.3300  -27.5690   22.5110 C   0  0  0  0  0  3  0  0  0  0  0  0
  -25.9890  -32.4410   23.7340 C   0  0  0  0  0  3  0  0  0  0  0  0
  -25.5240  -33.7910   24.1040 N   0  0  0  0  0  0  0  0  0  0  0  0
  -25.7920  -34.9130   23.4200 C   0  0  0  0  0  0  0  0  0  0  0  0
  -26.5160  -34.9240   22.4220 O   0  0  0  0  0  0  0  0  0  0  0  0
  -24.8740  -33.8490   24.8740 H   0  0  0  0  0  0  0  0  0  0  0  0
  -23.9130  -36.5570   23.0920 C   0  0  0  0  0  1  0  0  0  0  0  0
  -25.1620  -36.2290   23.9250 C   0  0  0  0  0  3  0  0  0  0  0  0
  -27.1680  -37.2810   24.8760 C   0  0  0  0  0  1  0  0  0  0  0  0
  -26.0930  -37.3790   23.8920 N   0  0  0  0  0  0  0  0  0  0  0  0
  -25.5920  -38.2490   24.0540 H   0  0  0  0  0  0  0  0  0  0  0  0
  -26.5120  -31.6810   25.0160 C   0  0  1  0  0  0  0  0  0  0  0  0
  -25.3930  -31.2950   26.0130 C   0  0  0  0  0  1  0  0  0  0  0  0
  -27.2540  -30.3850   24.6250 C   0  0  0  0  0  1  0  0  0  0  0  0
  -27.5370  -32.5630   25.7680 C   0  0  0  0  0  1  0  0  0  0  0  0
  1  2  2  0
  2  5  1  0
  3  1  1  0
  4  6  2  0
  6  2  1  0
  7  4  1  0
  7  3  2  0
  9  8  1  0
  9  4  1  0
  9 18  1  0
 10 16  1  0
 10 18  1  0
 11 16  1  0
 12 13  1  0
 12 11  1  0
 14 13  1  0
 14 23  1  0
 14 15  1  0
 16 15  1  0
 17 10  2  0
 18 19  1  0
 20 21  2  0
 21 40  1  0
 22 21  1  0
 22 25  1  0
 23 24  1  0
 23 20  1  0
 24 22  2  0
 25 26  1  0
 26 27  2  0
 28 31  1  0
 28 27  1  0
 29 28  2  0
 30 29  1  0
 30 25  2  0
 31 32  1  0
 32 37  2  0
 32 33  1  0
 33 34  2  0
 34 35  1  0
 35 39  1  0
 36 35  2  0
 37 36  1  0
 38 37  1  0
 40 41  1  0
 41 44  1  0
 41 43  1  0
 42 40  2  0
 45 20  1  0
 45 46  1  0
 47 45  1  0
 48  3  1  0
 48 49  1  0
 50 61  2  0
 51 49  1  0
 51 56  1  0
 52 60  1  0
 52 62  1  0
 53 59  1  0
 53 55  1  0
 54 60  1  0
 55 54  1  0
 56 55  2  0
 57 58  1  0
 57 51  2  0
 58 53  2  0
 59 52  1  0
 60 50  1  0
 62 64  2  0
 63 62  1  0
 65 63  1  0
 66 75  2  0
 66 71  1  0
 67 63  1  0
 67 71  1  0
 68 67  1  0
 69 70  1  0
 69 68  1  0
 70 66  1  0
 71 72  2  0
 72 73  1  0
 74 73  2  0
 75 74  1  0
 76 50  1  0
 76 77  1  0
 76 86  1  0
 77 80  1  0
 78 82  1  0
 78 77  1  0
 79 78  2  0
 82 81  1  0
 84 82  1  0
 84 85  1  0
 84 83  1  0
 86 89  1  1
 86 87  1  0
 88 86  1  0
M  ISO  4  10 100  18 100  48 101  49 101
M  END
>  <TORSDO>  (84) 
F 18

>  <SCORE>  (84) 
-9.362

>  <name>  (84) 
85

>  <ligand_id>  (84) 
85

>  <original_smiles>  (84) 
[H]c1c(C([H])([H])[H])nc(C([H])(N([H])C(=O)N2C([H])([H])C([H])([H])C([H])([H])C([H])(n3nc(-c4c([H])c([H])c(Oc5c([H])c([H])c(F)c([H])c5F)c([H])c4[H])c(C(=O)N([H])[H])c3N([H])[H])C2([H])[H])C([H])([H])[H])nc1C([H])([H])Oc1c([H])c([H])c2c(c1[H])C([H])([H])N(C(=O)C([H])(N([H])C(=O)C([H])(N([H])C([H])([H])[H])C([H])([H])[H])C(C([H])([H])[H])(C([H])([H])[H])C([H])([H])[H])C([H])(C(=O)N([H])C1([H])c3c([H])c([H])c([H])c([H])c3C([H])([H])C([H])([H])C1([H])[H])C2([H])[H]

>  <smiles>  (84) 
[H]c1c(C([H])([H])[H])nc(C([H])(N([H])C(=O)N2C([H])([H])C([H])([H])C([H])([H])C([H])(n3nc(-c4c([H])c([H])c(Oc5c([H])c([H])c(F)c([H])c5F)c([H])c4[H])c(C(=O)N([H])[H])c3N([H])[H])C2([H])[H])C([H])([H])[H])nc1C([H])([H])Oc1c([H])c([H])c2c(c1[H])C([H])([H])N(C(=O)C([H])(N([H])C(=O)C([H])(N([H])C([H])([H])[H])C([H])([H])[H])C(C([H])([H])[H])(C([H])([H])[H])C([H])([H])[H])C([H])(C(=O)N([H])C1([H])c3c([H])c([H])c([H])c([H])c3C([H])([H])C([H])([H])C1([H])[H])C2([H])[H]

$$$$
87:0:0
     RDKit          3D

 92100  0  0  1  0  0  0  0  0999 V2000
  -30.6100  -21.5070   19.1440 C   0  0  0  0  0  0  0  0  0  0  0  0
  -30.0690  -22.2290   20.2710 C   0  0  0  0  0  0  0  0  0  0  0  0
  -30.2850  -20.1010   21.4100 C   0  0  0  0  0  0  0  0  0  0  0  0
  -30.8530  -19.3940   20.2900 C   0  0  0  0  0  0  0  0  0  0  0  0
  -30.9380  -22.2120   17.8420 C   0  0  0  0  0  1  0  0  0  0  0  0
  -30.9690  -20.1620   19.1580 N   0  0  0  0  0  0  0  0  0  0  0  0
  -29.9040  -21.4460   21.3920 N   0  0  0  0  0  0  0  0  0  0  0  0
  -31.3670  -19.6840   23.6650 C   0  0  0  0  0  1  0  0  0  0  0  0
  -30.1540  -19.4200   22.7610 C   0  0  0  0  0  2  0  0  0  0  0  0
  -29.9980  -23.8720   20.3880 C   0  0  0  0  0  2  0  0  0  0  0  0
  -28.3890  -24.7400   18.5160 C   0  0  0  0  0  1  0  0  0  0  0  0
  -28.7690  -24.9230   19.9970 C   0  0  0  0  0  3  0  0  0  0  0  0
  -28.8500  -26.4460   20.2800 O   0  0  0  0  0  0  0  0  0  0  0  0
  -24.7940  -31.7630   23.3130 C   0  0  0  0  0  0  0  0  0  0  0  0
  -27.7230  -27.3360   20.2060 C   0  0  0  0  0  0  0  0  0  0  0  0
  -23.7290  -30.3810   21.5730 C   0  0  0  0  0  3  0  0  0  0  0  0
  -25.3050  -28.9430   20.1510 C   0  0  0  0  0  0  0  0  0  0  0  0
  -26.2680  -30.7840   21.5210 C   0  0  0  0  0  2  0  0  0  0  0  0
  -26.4360  -29.4290   20.8180 C   0  0  0  0  0  0  0  0  0  0  0  0
  -27.6450  -28.6420   20.8280 C   0  0  0  0  0  3  0  0  0  0  0  0
  -26.5540  -26.9380   19.5200 C   0  0  0  0  0  3  0  0  0  0  0  0
  -25.3740  -27.7090   19.4880 C   0  0  0  0  0  3  0  0  0  0  0  0
  -24.0340  -29.7730   20.1800 C   0  0  0  0  0  2  0  0  0  0  0  0
  -24.9480  -30.9950   22.1920 N   0  0  0  0  0  0  0  0  0  0  0  0
  -23.6760  -31.9760   23.8050 O   0  0  0  0  0  0  0  0  0  0  0  0
  -23.0650  -29.3020   22.4650 C   0  0  0  0  0  0  0  0  0  0  0  0
  -21.7590  -29.0570   22.2570 N   0  0  0  0  0  0  0  0  0  0  0  0
  -23.7280  -28.6910   23.3070 O   0  0  0  0  0  0  0  0  0  0  0  0
  -21.2810  -29.6030   21.5540 H   0  0  0  0  0  0  0  0  0  0  0  0
  -18.4350  -27.6420   22.5180 C   0  0  0  0  0  0  0  0  0  0  0  0
  -20.9530  -28.0510   22.9510 C   0  0  0  0  0  3  0  0  0  0  0  0
  -21.1790  -26.6440   22.3490 C   0  0  0  0  0  2  0  0  0  0  0  0
  -20.1620  -26.2840   21.2620 C   0  0  0  0  0  2  0  0  0  0  0  0
  -18.7380  -26.3250   21.8220 C   0  0  0  0  0  2  0  0  0  0  0  0
  -19.4760  -28.4590   23.0350 C   0  0  0  0  0  0  0  0  0  0  0  0
  -19.1410  -29.6880   23.6430 C   0  0  0  0  0  3  0  0  0  0  0  0
  -17.7990  -30.1020   23.7420 C   0  0  0  0  0  3  0  0  0  0  0  0
  -16.7730  -29.2820   23.2410 C   0  0  0  0  0  3  0  0  0  0  0  0
  -17.0920  -28.0540   22.6350 C   0  0  0  0  0  3  0  0  0  0  0  0
  -26.0150  -32.4290   24.0170 C   0  0  0  0  0  3  0  0  0  0  0  0
  -26.4810  -31.6560   25.3120 C   0  0  1  0  0  0  0  0  0  0  0  0
  -25.3340  -31.3650   26.3100 C   0  0  0  0  0  1  0  0  0  0  0  0
  -27.1330  -30.3040   24.9410 C   0  0  0  0  0  1  0  0  0  0  0  0
  -27.5630  -32.4780   26.0520 C   0  0  0  0  0  1  0  0  0  0  0  0
  -25.6390  -33.8120   24.3520 N   0  0  0  0  0  0  0  0  0  0  0  0
  -25.9470  -34.8870   23.6150 C   0  0  0  0  0  0  0  0  0  0  0  0
  -26.6470  -34.8220   22.6010 O   0  0  0  0  0  0  0  0  0  0  0  0
  -25.0170  -33.9330   25.1380 H   0  0  0  0  0  0  0  0  0  0  0  0
  -24.1420  -36.6030   23.2570 C   0  0  0  0  0  1  0  0  0  0  0  0
  -25.3950  -36.2510   24.0750 C   0  0  0  0  0  3  0  0  0  0  0  0
  -27.4770  -37.2330   24.9310 C   0  0  0  0  0  1  0  0  0  0  0  0
  -26.3800  -37.3500   23.9730 N   0  0  0  0  0  0  0  0  0  0  0  0
  -25.9310  -38.2510   24.1150 H   0  0  0  0  0  0  0  0  0  0  0  0
  -31.6440  -17.9490   20.3380 C   0  0  0  0  0  2  0  0  0  0  0  0
  -31.8070  -15.2830   20.2350 C   0  0  0  0  0  0  0  0  0  0  0  0
  -31.6500  -12.8430   19.6090 C   0  0  0  0  0  2  0  0  0  0  0  0
  -30.7720  -12.6270   18.3560 C   0  0  0  0  0  2  0  0  0  0  0  0
  -29.2910  -12.4730   18.7560 C   0  0  0  0  0  2  0  0  0  0  0  0
  -28.8300  -13.5480   19.7700 C   0  0  0  0  0  3  0  0  0  0  0  0
  -29.8450  -13.7600   20.9170 C   0  0  0  0  0  2  0  0  0  0  0  0
  -31.1450  -14.0580   20.2990 N   0  0  0  0  0  0  0  0  0  0  0  0
  -33.0400  -15.2550   20.1790 O   0  0  0  0  0  0  0  0  0  0  0  0
  -30.1490  -16.5930   18.9300 C   0  0  0  0  0  1  0  0  0  0  0  0
  -31.1160  -16.5140   20.0270 N   0  0  0  0  0  0  0  0  0  0  0  0
  -26.4830  -14.2720   20.4820 C   0  0  0  0  0  0  0  0  0  0  0  0
  -25.3640  -13.5590   20.8090 C   0  0  0  0  0  0  0  0  0  0  0  0
  -25.7460  -12.1840   20.7630 C   0  0  0  0  0  0  0  0  0  0  0  0
  -27.4730  -13.3330   20.2480 N   0  0  0  0  0  0  0  0  0  0  0  0
  -27.0400  -12.0710   20.4850 N   0  0  0  0  0  0  0  0  0  0  0  0
  -24.9430  -10.9660   20.9080 C   0  0  0  0  0  0  0  0  0  0  0  0
  -25.2380  -10.0010   21.8960 C   0  0  0  0  0  3  0  0  0  0  0  0
  -24.4380   -8.8460   22.0290 C   0  0  0  0  0  3  0  0  0  0  0  0
  -23.3290   -8.6510   21.1720 C   0  0  0  0  0  0  0  0  0  0  0  0
  -23.0540   -9.6030   20.1740 C   0  0  0  0  0  3  0  0  0  0  0  0
  -23.8550  -10.7490   20.0400 C   0  0  0  0  0  3  0  0  0  0  0  0
  -22.5110   -7.5480   21.2110 O   0  0  0  0  0  0  0  0  0  0  0  0
  -22.2020   -6.9240   22.3920 C   0  0  0  0  0  0  0  0  0  0  0  0
  -21.5650   -7.6080   23.4510 C   0  0  0  0  0  3  0  0  0  0  0  0
  -21.2020   -6.9110   24.6210 C   0  0  0  0  0  3  0  0  0  0  0  0
  -21.4680   -5.5330   24.7330 C   0  0  0  0  0  0  0  0  0  0  0  0
  -22.0980   -4.8510   23.6780 C   0  0  0  0  0  3  0  0  0  0  0  0
  -22.4620   -5.5440   22.5100 C   0  0  0  0  0  0  0  0  0  0  0  0
  -23.0500   -4.8770   21.4880 F   0  0  0  0  0  0  0  0  0  0  0  0
  -21.1120   -4.8620   25.8530 F   0  0  0  0  0  0  0  0  0  0  0  0
  -23.9920  -14.1180   21.0500 C   0  0  0  0  0  0  0  0  0  0  0  0
  -23.2040  -13.4620   21.8940 N   0  0  0  0  0  0  0  0  0  0  0  0
  -23.6290  -15.1700   20.5260 O   0  0  0  0  0  0  0  0  0  0  0  0
  -23.5100  -12.6100   22.3410 H   0  0  0  0  0  0  0  0  0  0  0  0
  -22.2810  -13.8180   22.0970 H   0  0  0  0  0  0  0  0  0  0  0  0
  -26.7310  -15.6330   20.3360 N   0  0  0  0  0  0  0  0  0  0  0  0
  -26.0010  -16.3300   20.4490 H   0  0  0  0  0  0  0  0  0  0  0  0
  -27.6150  -16.0290   20.0480 H   0  0  0  0  0  0  0  0  0  0  0  0
  1  6  2  0
  1  2  1  0
  2 10  1  0
  2  7  2  0
  3  9  1  0
  4 54  1  0
  4  3  2  0
  5  1  1  0
  6  4  1  0
  7  3  1  0
  9  8  1  0
 12 11  1  0
 12 13  1  0
 12 10  1  0
 14 25  2  0
 15 13  1  0
 15 20  1  0
 16 24  1  0
 16 26  1  0
 17 23  1  0
 17 19  1  0
 18 24  1  0
 19 20  2  0
 19 18  1  0
 21 15  2  0
 22 21  1  0
 22 17  2  0
 23 16  1  0
 24 14  1  0
 26 28  2  0
 27 26  1  0
 29 27  1  0
 30 39  2  0
 30 35  1  0
 31 27  1  0
 31 35  1  0
 32 31  1  0
 33 34  1  0
 33 32  1  0
 34 30  1  0
 35 36  2  0
 36 37  1  0
 38 37  2  0
 39 38  1  0
 40 14  1  0
 40 45  1  0
 40 41  1  0
 41 44  1  1
 41 42  1  0
 43 41  1  0
 45 48  1  0
 46 50  1  0
 46 45  1  0
 47 46  2  0
 50 49  1  0
 52 50  1  0
 52 53  1  0
 52 51  1  0
 55 61  1  0
 56 61  1  0
 57 58  1  0
 57 56  1  0
 59 58  1  0
 59 68  1  0
 59 60  1  0
 61 60  1  0
 62 55  2  0
 63 64  1  0
 64 55  1  0
 64 54  1  0
 65 66  2  0
 66 85  1  0
 67 66  1  0
 67 70  1  0
 68 65  1  0
 68 69  1  0
 69 67  2  0
 70 71  1  0
 71 72  2  0
 73 76  1  0
 73 72  1  0
 74 73  2  0
 75 74  1  0
 75 70  2  0
 76 77  1  0
 77 82  2  0
 77 78  1  0
 78 79  2  0
 79 80  1  0
 80 84  1  0
 81 80  2  0
 82 81  1  0
 83 82  1  0
 85 86  1  0
 86 89  1  0
 86 88  1  0
 87 85  2  0
 90 91  1  0
 90 65  1  0
 92 90  1  0
M  ISO  4  12 101  13 101  55 100  64 100
M  END
>  <TORSDO>  (85) 
F 20

>  <SCORE>  (85) 
-11.320

>  <name>  (85) 
87

>  <ligand_id>  (85) 
87

>  <original_smiles>  (85) 
[H]c1c([H])c([H])c2c(c1[H])C([H])([H])C([H])([H])C([H])([H])C2([H])N([H])C(=O)C1([H])N(C(=O)C([H])(N([H])C(=O)C([H])(N([H])C([H])([H])[H])C([H])([H])[H])C(C([H])([H])[H])(C([H])([H])[H])C([H])([H])[H])C([H])([H])c2c([H])c(OC([H])(C([H])([H])[H])C([H])([H])c3nc(C([H])([H])C([H])([H])[H])c(C([H])([H])N(C(=O)N4C([H])([H])C([H])([H])C([H])([H])C([H])(n5nc(-c6c([H])c([H])c(Oc7c([H])c([H])c(F)c([H])c7F)c([H])c6[H])c(C(=O)N([H])[H])c5N([H])[H])C4([H])[H])C([H])([H])[H])nc3C([H])([H])[H])c([H])c([H])c2C1([H])[H]

>  <smiles>  (85) 
[H]c1c([H])c([H])c2c(c1[H])C([H])([H])C([H])([H])C([H])([H])C2([H])N([H])C(=O)C1([H])N(C(=O)C([H])(N([H])C(=O)C([H])(N([H])C([H])([H])[H])C([H])([H])[H])C(C([H])([H])[H])(C([H])([H])[H])C([H])([H])[H])C([H])([H])c2c([H])c(OC([H])(C([H])([H])[H])C([H])([H])c3nc(C([H])([H])C([H])([H])[H])c(C([H])([H])N(C(=O)N4C([H])([H])C([H])([H])C([H])([H])C([H])(n5nc(-c6c([H])c([H])c(Oc7c([H])c([H])c(F)c([H])c7F)c([H])c6[H])c(C(=O)N([H])[H])c5N([H])[H])C4([H])[H])C([H])([H])[H])nc3C([H])([H])[H])c([H])c([H])c2C1([H])[H]

$$$$
88:0:0
     RDKit          3D

 90 98  0  0  1  0  0  0  0  0999 V2000
  -28.4670  -20.2630   19.3450 C   0  0  0  0  0  3  0  0  0  0  0  0
  -28.1600  -21.6100   19.3960 C   0  0  0  0  0  3  0  0  0  0  0  0
  -29.7300  -20.0950   19.9900 C   0  0  0  0  0  0  0  0  0  0  0  0
  -30.1320  -21.3460   20.3850 N   0  0  0  0  0  0  0  0  0  0  0  0
  -29.1690  -22.2990   20.0480 N   0  0  0  0  0  0  0  0  0  0  0  0
  -30.9330  -18.7120   21.7380 C   0  0  0  0  0  1  0  0  0  0  0  0
  -31.9180  -18.9130   19.4670 C   0  0  0  0  0  1  0  0  0  0  0  0
  -30.5900  -18.7570   20.2330 C   0  0  2  0  0  0  0  0  0  0  0  0
  -29.9440  -17.3330   19.7310 C   0  0  0  0  0  2  0  0  0  0  0  0
  -30.8640  -14.8210   19.9750 C   0  0  0  0  0  0  0  0  0  0  0  0
  -30.6360  -12.5460   18.9120 C   0  0  0  0  0  2  0  0  0  0  0  0
  -29.6120  -12.6160   17.7500 C   0  0  0  0  0  2  0  0  0  0  0  0
  -28.1590  -12.4670   18.2520 C   0  0  0  0  0  2  0  0  0  0  0  0
  -27.8810  -13.3310   19.5100 C   0  0  0  0  0  3  0  0  0  0  0  0
  -28.9990  -13.1040   20.5460 C   0  0  0  0  0  2  0  0  0  0  0  0
  -30.2560  -13.5670   19.9260 N   0  0  0  0  0  0  0  0  0  0  0  0
  -31.9590  -14.9550   19.4150 O   0  0  0  0  0  0  0  0  0  0  0  0
  -29.3650  -15.9010   21.6550 C   0  0  0  0  0  1  0  0  0  0  0  0
  -30.1490  -15.9550   20.4130 N   0  0  0  0  0  0  0  0  0  0  0  0
  -25.5600  -13.9920   20.3900 C   0  0  0  0  0  0  0  0  0  0  0  0
  -24.4920  -13.2460   20.8100 C   0  0  0  0  0  0  0  0  0  0  0  0
  -24.9010  -11.8810   20.7120 C   0  0  0  0  0  0  0  0  0  0  0  0
  -26.5550  -13.0820   20.0670 N   0  0  0  0  0  0  0  0  0  0  0  0
  -26.1660  -11.8060   20.3180 N   0  0  0  0  0  0  0  0  0  0  0  0
  -24.1420  -10.6400   20.9150 C   0  0  0  0  0  0  0  0  0  0  0  0
  -24.5630   -9.6630   21.8430 C   0  0  0  0  0  3  0  0  0  0  0  0
  -23.8080   -8.4870   22.0370 C   0  0  0  0  0  3  0  0  0  0  0  0
  -22.6170   -8.2780   21.3020 C   0  0  0  0  0  0  0  0  0  0  0  0
  -22.2140   -9.2430   20.3630 C   0  0  0  0  0  3  0  0  0  0  0  0
  -22.9690  -10.4120   20.1670 C   0  0  0  0  0  3  0  0  0  0  0  0
  -21.8340   -7.1540   21.4030 O   0  0  0  0  0  0  0  0  0  0  0  0
  -21.7270   -6.4560   22.5780 C   0  0  0  0  0  0  0  0  0  0  0  0
  -21.2600   -7.0620   23.7660 C   0  0  0  0  0  3  0  0  0  0  0  0
  -21.0980   -6.2890   24.9340 C   0  0  0  0  0  3  0  0  0  0  0  0
  -21.3930   -4.9130   24.9140 C   0  0  0  0  0  0  0  0  0  0  0  0
  -21.8540   -4.3070   23.7320 C   0  0  0  0  0  3  0  0  0  0  0  0
  -22.0170   -5.0760   22.5670 C   0  0  0  0  0  0  0  0  0  0  0  0
  -22.4400   -4.4840   21.4230 F   0  0  0  0  0  0  0  0  0  0  0  0
  -21.2300   -4.1670   26.0330 F   0  0  0  0  0  0  0  0  0  0  0  0
  -23.1330  -13.7640   21.1860 C   0  0  0  0  0  0  0  0  0  0  0  0
  -22.4420  -13.0740   22.0870 N   0  0  0  0  0  0  0  0  0  0  0  0
  -22.6980  -14.8140   20.7180 O   0  0  0  0  0  0  0  0  0  0  0  0
  -22.8060  -12.2220   22.4880 H   0  0  0  0  0  0  0  0  0  0  0  0
  -21.5330  -13.4020   22.3800 H   0  0  0  0  0  0  0  0  0  0  0  0
  -25.7580  -15.3620   20.2390 N   0  0  0  0  0  0  0  0  0  0  0  0
  -25.0220  -16.0340   20.4240 H   0  0  0  0  0  0  0  0  0  0  0  0
  -26.6020  -15.7860   19.8760 H   0  0  0  0  0  0  0  0  0  0  0  0
  -29.3390  -23.8060   20.3110 C   0  0  0  0  0  3  0  0  0  0  0  0
  -28.1570  -24.8790   20.0030 C   0  0  0  0  0  3  0  0  0  0  0  0
  -28.3520  -26.3650   20.2080 O   0  0  0  0  0  0  0  0  0  0  0  0
  -24.6680  -31.8590   23.2430 C   0  0  0  0  0  0  0  0  0  0  0  0
  -27.2390  -27.2460   20.1650 C   0  0  0  0  0  0  0  0  0  0  0  0
  -23.4410  -30.4420   21.6380 C   0  0  0  0  0  3  0  0  0  0  0  0
  -24.8700  -28.8830   20.1910 C   0  0  0  0  0  0  0  0  0  0  0  0
  -25.9790  -30.7570   21.4060 C   0  0  0  0  0  2  0  0  0  0  0  0
  -26.0520  -29.3710   20.7620 C   0  0  0  0  0  0  0  0  0  0  0  0
  -27.2370  -28.5650   20.7370 C   0  0  0  0  0  3  0  0  0  0  0  0
  -26.0300  -26.8290   19.5640 C   0  0  0  0  0  3  0  0  0  0  0  0
  -24.8650  -27.6190   19.5810 C   0  0  0  0  0  3  0  0  0  0  0  0
  -23.6310  -29.7560   20.2600 C   0  0  0  0  0  2  0  0  0  0  0  0
  -24.7160  -31.0390   22.1510 N   0  0  0  0  0  0  0  0  0  0  0  0
  -23.5930  -32.1360   23.7960 O   0  0  0  0  0  0  0  0  0  0  0  0
  -22.8000  -29.4310   22.6200 C   0  0  0  0  0  0  0  0  0  0  0  0
  -21.4750  -29.2310   22.5070 N   0  0  0  0  0  0  0  0  0  0  0  0
  -23.4930  -28.8300   23.4440 O   0  0  0  0  0  0  0  0  0  0  0  0
  -20.9740  -29.7690   21.8140 H   0  0  0  0  0  0  0  0  0  0  0  0
  -18.1260  -27.9630   23.0320 C   0  0  0  0  0  0  0  0  0  0  0  0
  -20.6770  -28.2910   23.2970 C   0  0  0  0  0  3  0  0  0  0  0  0
  -20.8140  -26.8490   22.7540 C   0  0  0  0  0  2  0  0  0  0  0  0
  -19.7220  -26.4780   21.7460 C   0  0  0  0  0  2  0  0  0  0  0  0
  -18.3360  -26.6040   22.3860 C   0  0  0  0  0  2  0  0  0  0  0  0
  -19.2250  -28.7620   23.4450 C   0  0  0  0  0  0  0  0  0  0  0  0
  -18.9740  -30.0320   24.0080 C   0  0  0  0  0  3  0  0  0  0  0  0
  -17.6570  -30.5030   24.1650 C   0  0  0  0  0  3  0  0  0  0  0  0
  -16.5720  -29.7020   23.7680 C   0  0  0  0  0  3  0  0  0  0  0  0
  -16.8080  -28.4330   23.2070 C   0  0  0  0  0  3  0  0  0  0  0  0
  -25.9580  -32.5040   23.8360 C   0  0  0  0  0  3  0  0  0  0  0  0
  -26.5130  -31.7350   25.0980 C   0  0  1  0  0  0  0  0  0  0  0  0
  -25.4490  -31.4810   26.1910 C   0  0  0  0  0  1  0  0  0  0  0  0
  -27.1040  -30.3650   24.6890 C   0  0  0  0  0  1  0  0  0  0  0  0
  -27.6690  -32.5410   25.7350 C   0  0  0  0  0  1  0  0  0  0  0  0
  -25.6410  -33.8980   24.1800 N   0  0  0  0  0  0  0  0  0  0  0  0
  -25.9300  -34.9580   23.4130 C   0  0  0  0  0  0  0  0  0  0  0  0
  -26.5600  -34.8650   22.3550 O   0  0  0  0  0  0  0  0  0  0  0  0
  -25.0770  -34.0430   25.0040 H   0  0  0  0  0  0  0  0  0  0  0  0
  -24.1680  -36.7330   23.1300 C   0  0  0  0  0  1  0  0  0  0  0  0
  -25.4440  -36.3390   23.8930 C   0  0  0  0  0  3  0  0  0  0  0  0
  -27.5940  -37.2500   24.6510 C   0  0  0  0  0  1  0  0  0  0  0  0
  -26.4590  -37.4050   23.7460 N   0  0  0  0  0  0  0  0  0  0  0  0
  -26.0470  -38.3200   23.9080 H   0  0  0  0  0  0  0  0  0  0  0  0
  1  2  2  0
  1  3  1  0
  2  5  1  0
  3  8  1  0
  3  4  2  0
  5 48  1  0
  5  4  1  0
  8  7  1  6
  8  6  1  0
  9  8  1  0
  9 19  1  0
 10 19  1  0
 11 16  1  0
 12 13  1  0
 12 11  1  0
 14 13  1  0
 14 23  1  0
 14 15  1  0
 16 10  1  0
 16 15  1  0
 17 10  2  0
 19 18  1  0
 20 21  2  0
 21 40  1  0
 22 21  1  0
 22 25  1  0
 23 24  1  0
 23 20  1  0
 24 22  2  0
 25 26  1  0
 26 27  2  0
 28 31  1  0
 28 27  1  0
 29 28  2  0
 30 29  1  0
 30 25  2  0
 31 32  1  0
 32 33  1  0
 33 34  2  0
 35 34  1  0
 35 39  1  0
 36 35  2  0
 37 32  2  0
 37 36  1  0
 38 37  1  0
 40 41  1  0
 41 44  1  0
 41 43  1  0
 42 40  2  0
 45 20  1  0
 45 46  1  0
 47 45  1  0
 49 50  1  0
 49 48  2  0
 51 62  2  0
 52 50  1  0
 52 57  1  0
 53 61  1  0
 53 63  1  0
 54 60  1  0
 54 56  1  0
 55 61  1  0
 56 55  1  0
 57 56  2  0
 58 59  1  0
 58 52  2  0
 59 54  2  0
 60 53  1  0
 61 51  1  0
 63 65  2  0
 64 63  1  0
 66 64  1  0
 67 76  2  0
 67 72  1  0
 68 64  1  0
 68 72  1  0
 69 68  1  0
 70 71  1  0
 70 69  1  0
 71 67  1  0
 72 73  2  0
 73 74  1  0
 75 74  2  0
 76 75  1  0
 77 51  1  0
 77 82  1  0
 77 78  1  0
 78 81  1  1
 78 79  1  0
 80 78  1  0
 82 85  1  0
 83 87  1  0
 83 82  1  0
 84 83  2  0
 87 86  1  0
 89 87  1  0
 89 90  1  0
 89 88  1  0
M  ISO  4  10 100  19 100  49 101  50 101
M  END
>  <TORSDO>  (86) 
F 20

>  <SCORE>  (86) 
-13.216

>  <name>  (86) 
88

>  <ligand_id>  (86) 
88

>  <original_smiles>  (86) 
[H]c1c([H])c([H])c2c(c1[H])C([H])([H])C([H])([H])C([H])([H])C2([H])N([H])C(=O)C1([H])N(C(=O)C([H])(N([H])C(=O)C([H])(N([H])C([H])([H])[H])C([H])([H])[H])C(C([H])([H])[H])(C([H])([H])[H])C([H])([H])[H])C([H])([H])c2c([H])c(OC([H])([H])C([H])([H])n3nc(C(C([H])([H])[H])(C([H])([H])[H])C([H])([H])N(C(=O)N4C([H])([H])C([H])([H])C([H])([H])C([H])(n5nc(-c6c([H])c([H])c(Oc7c([H])c([H])c(F)c([H])c7F)c([H])c6[H])c(C(=O)N([H])[H])c5N([H])[H])C4([H])[H])C([H])([H])[H])c([H])c3[H])c([H])c([H])c2C1([H])[H]

>  <smiles>  (86) 
[H]c1c([H])c([H])c2c(c1[H])C([H])([H])C([H])([H])C([H])([H])C2([H])N([H])C(=O)C1([H])N(C(=O)C([H])(N([H])C(=O)C([H])(N([H])C([H])([H])[H])C([H])([H])[H])C(C([H])([H])[H])(C([H])([H])[H])C([H])([H])[H])C([H])([H])c2c([H])c(OC([H])([H])C([H])([H])n3nc(C(C([H])([H])[H])(C([H])([H])[H])C([H])([H])N(C(=O)N4C([H])([H])C([H])([H])C([H])([H])C([H])(n5nc(-c6c([H])c([H])c(Oc7c([H])c([H])c(F)c([H])c7F)c([H])c6[H])c(C(=O)N([H])[H])c5N([H])[H])C4([H])[H])C([H])([H])[H])c([H])c3[H])c([H])c([H])c2C1([H])[H]

$$$$
89:0:0
     RDKit          3D

 92100  0  0  1  0  0  0  0  0999 V2000
  -29.7820  -21.4470   18.8760 C   0  0  0  0  0  3  0  0  0  0  0  0
  -28.5500  -21.8970   19.4140 C   0  0  0  0  0  0  0  0  0  0  0  0
  -28.9810  -19.2350   19.4050 C   0  0  0  0  0  3  0  0  0  0  0  0
  -31.2770  -19.3850   18.3800 C   0  0  0  0  0  1  0  0  0  0  0  0
  -30.0090  -20.0030   18.8830 N   0  0  0  0  0  0  0  0  0  0  0  0
  -28.1240  -20.4360   19.7250 N   0  0  0  0  0  0  0  0  0  0  0  0
  -27.2230  -20.3240   20.1780 H   0  0  0  0  0  0  0  0  0  0  0  0
  -29.2780  -17.4160   21.2350 C   0  0  0  0  0  1  0  0  0  0  0  0
  -28.9180  -17.3300   19.7440 C   0  0  2  0  0  0  0  0  0  0  0  0
  -29.7540  -15.6260   19.4060 C   0  0  0  0  0  0  0  0  0  0  0  0
  -30.1500  -13.0030   18.8390 C   0  0  0  0  0  2  0  0  0  0  0  0
  -29.2540  -12.3330   17.7500 C   0  0  0  0  0  2  0  0  0  0  0  0
  -27.9030  -11.8420   18.3060 C   0  0  0  0  0  2  0  0  0  0  0  0
  -27.3490  -12.8890   19.3000 C   0  0  0  0  0  3  0  0  0  0  0  0
  -28.4070  -13.3860   20.3140 C   0  0  0  0  0  2  0  0  0  0  0  0
  -29.4410  -14.1720   19.5500 N   0  0  0  0  0  0  0  0  0  0  0  0
  -30.9540  -15.6290   19.0090 O   0  0  0  0  0  0  0  0  0  0  0  0
  -25.0370  -13.3030   20.2480 C   0  0  0  0  0  0  0  0  0  0  0  0
  -24.0570  -12.4620   20.7390 C   0  0  0  0  0  0  0  0  0  0  0  0
  -24.5970  -11.1490   20.6680 C   0  0  0  0  0  0  0  0  0  0  0  0
  -26.1010  -12.4900   19.9360 N   0  0  0  0  0  0  0  0  0  0  0  0
  -25.8600  -11.1860   20.2560 N   0  0  0  0  0  0  0  0  0  0  0  0
  -23.9510   -9.8500   20.9140 C   0  0  0  0  0  0  0  0  0  0  0  0
  -24.4380   -8.9670   21.9120 C   0  0  0  0  0  3  0  0  0  0  0  0
  -23.7920   -7.7320   22.1490 C   0  0  0  0  0  3  0  0  0  0  0  0
  -22.6530   -7.3660   21.3910 C   0  0  0  0  0  0  0  0  0  0  0  0
  -22.1940   -8.2320   20.3870 C   0  0  0  0  0  3  0  0  0  0  0  0
  -22.8350   -9.4530   20.1430 C   0  0  0  0  0  3  0  0  0  0  0  0
  -21.9660   -6.1810   21.5320 O   0  0  0  0  0  0  0  0  0  0  0  0
  -21.7970   -5.5950   22.7550 C   0  0  0  0  0  0  0  0  0  0  0  0
  -21.1430   -6.2720   23.8120 C   0  0  0  0  0  3  0  0  0  0  0  0
  -20.9590   -5.6160   25.0460 C   0  0  0  0  0  3  0  0  0  0  0  0
  -21.3650   -4.2800   25.2130 C   0  0  0  0  0  0  0  0  0  0  0  0
  -21.9820   -3.6000   24.1460 C   0  0  0  0  0  3  0  0  0  0  0  0
  -22.2050   -4.2600   22.9260 C   0  0  0  0  0  0  0  0  0  0  0  0
  -22.7930   -3.5980   21.9000 F   0  0  0  0  0  0  0  0  0  0  0  0
  -21.1630   -3.6440   26.3900 F   0  0  0  0  0  0  0  0  0  0  0  0
  -22.6760  -12.8550   21.1320 C   0  0  0  0  0  0  0  0  0  0  0  0
  -22.0770  -12.1280   22.0680 N   0  0  0  0  0  0  0  0  0  0  0  0
  -22.1240  -13.8430   20.6460 O   0  0  0  0  0  0  0  0  0  0  0  0
  -22.5680  -11.3700   22.5320 H   0  0  0  0  0  0  0  0  0  0  0  0
  -21.1490  -12.3670   22.3730 H   0  0  0  0  0  0  0  0  0  0  0  0
  -25.0700  -14.6660   19.9990 N   0  0  0  0  0  0  0  0  0  0  0  0
  -24.1670  -15.1230   19.9440 H   0  0  0  0  0  0  0  0  0  0  0  0
  -25.7070  -14.9910   19.2830 H   0  0  0  0  0  0  0  0  0  0  0  0
  -27.4070  -16.9750   19.5280 C   0  0  0  0  0  2  0  0  0  0  0  0
  -24.9550  -16.7720   20.0050 C   0  0  0  0  0  1  0  0  0  0  0  0
  -26.4700  -15.6060   21.5270 C   0  0  0  0  0  1  0  0  0  0  0  0
  -26.3500  -16.7610   20.5770 N   0  0  1  0  0  4  0  0  0  0  0  0
  -26.3770  -17.5750   21.1710 H   0  0  0  0  0  0  0  0  0  0  0  0
  -27.7220  -23.6270   19.4450 C   0  0  0  0  0  2  0  0  0  0  0  0
  -28.0500  -25.3780   19.5880 O   0  0  0  0  0  0  0  0  0  0  0  0
  -24.8730  -31.6500   23.0490 C   0  0  0  0  0  0  0  0  0  0  0  0
  -27.1290  -26.6530   19.6700 C   0  0  0  0  0  0  0  0  0  0  0  0
  -23.5790  -30.3690   21.3970 C   0  0  0  0  0  3  0  0  0  0  0  0
  -24.9220  -28.7690   19.8250 C   0  0  0  0  0  0  0  0  0  0  0  0
  -26.1520  -30.4620   21.1580 C   0  0  0  0  0  2  0  0  0  0  0  0
  -26.1530  -29.0620   20.4230 C   0  0  0  0  0  0  0  0  0  0  0  0
  -27.2470  -28.0340   20.3030 C   0  0  0  0  0  3  0  0  0  0  0  0
  -25.8560  -26.5920   19.0500 C   0  0  0  0  0  3  0  0  0  0  0  0
  -24.8150  -27.5710   19.1080 C   0  0  0  0  0  3  0  0  0  0  0  0
  -23.7440  -29.7480   19.9770 C   0  0  0  0  0  2  0  0  0  0  0  0
  -24.8900  -30.8490   21.9230 N   0  0  0  0  0  0  0  0  0  0  0  0
  -23.8040  -31.9570   23.6130 O   0  0  0  0  0  0  0  0  0  0  0  0
  -22.8620  -29.3600   22.3370 C   0  0  0  0  0  0  0  0  0  0  0  0
  -21.5220  -29.2340   22.2340 N   0  0  0  0  0  0  0  0  0  0  0  0
  -23.5340  -28.6920   23.1260 O   0  0  0  0  0  0  0  0  0  0  0  0
  -21.0380  -29.8320   21.5770 H   0  0  0  0  0  0  0  0  0  0  0  0
  -18.1330  -28.0430   22.7900 C   0  0  0  0  0  0  0  0  0  0  0  0
  -20.7010  -28.2700   22.9830 C   0  0  0  0  0  3  0  0  0  0  0  0
  -20.7630  -26.8590   22.3460 C   0  0  0  0  0  2  0  0  0  0  0  0
  -19.6310  -26.6000   21.3460 C   0  0  0  0  0  2  0  0  0  0  0  0
  -18.2690  -26.7290   22.0320 C   0  0  0  0  0  2  0  0  0  0  0  0
  -19.2720  -28.7710   23.2240 C   0  0  0  0  0  0  0  0  0  0  0  0
  -19.0880  -29.9990   23.8940 C   0  0  0  0  0  3  0  0  0  0  0  0
  -17.7950  -30.5090   24.1140 C   0  0  0  0  0  3  0  0  0  0  0  0
  -16.6710  -29.7750   23.6990 C   0  0  0  0  0  3  0  0  0  0  0  0
  -16.8370  -28.5390   23.0480 C   0  0  0  0  0  3  0  0  0  0  0  0
  -26.1790  -32.2190   23.6720 C   0  0  0  0  0  3  0  0  0  0  0  0
  -26.7250  -31.3490   24.8730 C   0  0  1  0  0  0  0  0  0  0  0  0
  -25.6740  -31.0750   25.9710 C   0  0  0  0  0  1  0  0  0  0  0  0
  -27.2520  -29.9830   24.3760 C   0  0  0  0  0  1  0  0  0  0  0  0
  -27.9250  -32.0610   25.5440 C   0  0  0  0  0  1  0  0  0  0  0  0
  -25.9120  -33.5960   24.1340 N   0  0  0  0  0  0  0  0  0  0  0  0
  -26.1640  -34.7060   23.4320 C   0  0  0  0  0  0  0  0  0  0  0  0
  -26.7220  -34.6810   22.3330 O   0  0  0  0  0  0  0  0  0  0  0  0
  -25.4140  -33.6900   25.0070 H   0  0  0  0  0  0  0  0  0  0  0  0
  -24.4150  -36.5110   23.4450 C   0  0  0  0  0  1  0  0  0  0  0  0
  -25.7470  -36.0550   24.0570 C   0  0  0  0  0  3  0  0  0  0  0  0
  -27.9670  -36.8950   24.6700 C   0  0  0  0  0  1  0  0  0  0  0  0
  -26.7560  -37.1200   23.8890 N   0  0  0  0  0  0  0  0  0  0  0  0
  -26.3700  -38.0180   24.1670 H   0  0  0  0  0  0  0  0  0  0  0  0
  1  5  1  0
  1  2  2  0
  2 51  1  0
  2  6  1  0
  3  6  1  0
  3  9  1  0
  4  5  1  0
  5  3  1  0
  6  7  1  0
  9  8  1  1
 10 16  1  0
 10  9  1  0
 11 16  1  0
 12 13  1  0
 12 11  1  0
 14 13  1  0
 14 21  1  0
 14 15  1  0
 16 15  1  0
 17 10  2  0
 18 19  2  0
 19 38  1  0
 20 19  1  0
 20 23  1  0
 21 18  1  0
 21 22  1  0
 22 20  2  0
 23 24  1  0
 24 25  2  0
 26 29  1  0
 26 25  1  0
 27 26  2  0
 28 27  1  0
 28 23  2  0
 29 30  1  0
 30 35  2  0
 30 31  1  0
 31 32  2  0
 32 33  1  0
 33 37  1  0
 34 33  2  0
 35 34  1  0
 36 35  1  0
 38 39  1  0
 39 42  1  0
 39 41  1  0
 40 38  2  0
 43 18  1  0
 44 43  1  0
 45 43  1  0
 46  9  1  0
 46 49  1  0
 47 49  1  0
 49 50  1  1
 49 48  1  0
 51 52  1  0
 52 54  1  0
 53 64  2  0
 54 59  1  0
 55 63  1  0
 55 65  1  0
 56 62  1  0
 56 58  1  0
 57 63  1  0
 58 57  1  0
 59 58  2  0
 60 61  1  0
 60 54  2  0
 61 56  2  0
 62 55  1  0
 63 53  1  0
 65 67  2  0
 66 65  1  0
 68 66  1  0
 69 78  2  0
 69 74  1  0
 70 66  1  0
 70 74  1  0
 71 70  1  0
 72 73  1  0
 72 71  1  0
 73 69  1  0
 74 75  2  0
 75 76  1  0
 77 76  2  0
 78 77  1  0
 79 53  1  0
 79 84  1  0
 79 80  1  0
 80 83  1  1
 80 81  1  0
 82 80  1  0
 84 87  1  0
 85 89  1  0
 85 84  1  0
 86 85  2  0
 89 88  1  0
 91 89  1  0
 91 92  1  0
 91 90  1  0
M  ISO  4   9 100  10 100  51 101  52 101
M  END
>  <TORSDO>  (87) 
F 20

>  <SCORE>  (87) 
-11.364

>  <name>  (87) 
89

>  <ligand_id>  (87) 
89

>  <original_smiles>  (87) 
[H]c1c([H])c([H])c2c(c1[H])C([H])([H])C([H])([H])C([H])([H])C2([H])N([H])C(=O)C1([H])N(C(=O)C([H])(N([H])C(=O)C([H])(N([H])C([H])([H])[H])C([H])([H])[H])C(C([H])([H])[H])(C([H])([H])[H])C([H])([H])[H])C([H])([H])c2c([H])c(OC([H])([H])c3c([H])n(C([H])([H])[H])c(C(C(=O)N4C([H])([H])C([H])([H])C([H])([H])C([H])(n5nc(-c6c([H])c([H])c(Oc7c([H])c([H])c(F)c([H])c7F)c([H])c6[H])c(C(=O)N([H])[H])c5N([H])[H])C4([H])[H])(C([H])([H])[H])C([H])([H])[N+]([H])(C([H])([H])[H])C([H])([H])[H])[n+]3[H])c([H])c([H])c2C1([H])[H]

>  <smiles>  (87) 
[H]c1c([H])c([H])c2c(c1[H])C([H])([H])C([H])([H])C([H])([H])C2([H])N([H])C(=O)C1([H])N(C(=O)C([H])(N([H])C(=O)C([H])(N([H])C([H])([H])[H])C([H])([H])[H])C(C([H])([H])[H])(C([H])([H])[H])C([H])([H])[H])C([H])([H])c2c([H])c(OC([H])([H])c3c([H])n(C([H])([H])[H])c(C(C(=O)N4C([H])([H])C([H])([H])C([H])([H])C([H])(n5nc(-c6c([H])c([H])c(Oc7c([H])c([H])c(F)c([H])c7F)c([H])c6[H])c(C(=O)N([H])[H])c5N([H])[H])C4([H])[H])(C([H])([H])[H])C([H])([H])[N+]([H])(C([H])([H])[H])C([H])([H])[H])[n+]3[H])c([H])c([H])c2C1([H])[H]

$$$$
90:0:0
     RDKit          3D

 87 95  0  0  1  0  0  0  0  0999 V2000
  -30.4560  -23.2020   20.2270 C   0  0  0  0  0  1  0  0  0  0  0  0
  -28.8170  -22.8330   22.0590 C   0  0  0  0  0  1  0  0  0  0  0  0
  -29.0140  -22.7720   20.5360 C   0  0  2  0  0  0  0  0  0  0  0  0
  -29.2160  -19.7750   20.9570 C   0  0  0  0  0  3  0  0  0  0  0  0
  -29.3910  -19.0730   19.0010 C   0  0  0  0  0  3  0  0  0  0  0  0
  -29.0330  -21.0280   20.1960 C   0  0  0  0  0  0  0  0  0  0  0  0
  -29.1930  -20.4370   18.9180 N   0  0  0  0  0  0  0  0  0  0  0  0
  -29.4470  -18.4740   20.2210 N   0  0  0  0  0  0  0  0  0  0  0  0
  -29.4790  -16.8310   20.6480 C   0  0  0  0  0  2  0  0  0  0  0  0
  -30.3470  -15.3420   20.2460 C   0  0  0  0  0  0  0  0  0  0  0  0
  -30.3890  -12.8800   19.3680 C   0  0  0  0  0  2  0  0  0  0  0  0
  -29.4610  -12.6780   18.1390 C   0  0  0  0  0  2  0  0  0  0  0  0
  -28.0110  -12.4030   18.5770 C   0  0  0  0  0  2  0  0  0  0  0  0
  -27.5620  -13.3580   19.7090 C   0  0  0  0  0  3  0  0  0  0  0  0
  -28.6110  -13.4860   20.8320 C   0  0  0  0  0  2  0  0  0  0  0  0
  -29.8470  -14.0030   20.2200 N   0  0  0  0  0  0  0  0  0  0  0  0
  -31.5440  -15.3820   19.9170 O   0  0  0  0  0  0  0  0  0  0  0  0
  -25.1930  -13.9200   20.4670 C   0  0  0  0  0  0  0  0  0  0  0  0
  -24.1310  -13.1470   20.8450 C   0  0  0  0  0  0  0  0  0  0  0  0
  -24.5970  -11.7970   20.8160 C   0  0  0  0  0  0  0  0  0  0  0  0
  -26.2340  -13.0440   20.2210 N   0  0  0  0  0  0  0  0  0  0  0  0
  -25.8880  -11.7590   20.5000 N   0  0  0  0  0  0  0  0  0  0  0  0
  -23.8680  -10.5360   21.0110 C   0  0  0  0  0  0  0  0  0  0  0  0
  -24.3000   -9.5680   21.9460 C   0  0  0  0  0  3  0  0  0  0  0  0
  -23.5700   -8.3740   22.1310 C   0  0  0  0  0  3  0  0  0  0  0  0
  -22.3930   -8.1390   21.3820 C   0  0  0  0  0  0  0  0  0  0  0  0
  -21.9800   -9.0940   20.4370 C   0  0  0  0  0  3  0  0  0  0  0  0
  -22.7100  -10.2790   20.2490 C   0  0  0  0  0  3  0  0  0  0  0  0
  -21.6340   -6.9970   21.4750 O   0  0  0  0  0  0  0  0  0  0  0  0
  -21.5890   -6.2550   22.6300 C   0  0  0  0  0  0  0  0  0  0  0  0
  -21.1750   -6.8150   23.8580 C   0  0  0  0  0  3  0  0  0  0  0  0
  -21.0760   -5.9990   25.0040 C   0  0  0  0  0  3  0  0  0  0  0  0
  -21.3820   -4.6270   24.9220 C   0  0  0  0  0  0  0  0  0  0  0  0
  -21.7880   -4.0680   23.6980 C   0  0  0  0  0  3  0  0  0  0  0  0
  -21.8890   -4.8800   22.5540 C   0  0  0  0  0  0  0  0  0  0  0  0
  -22.2600   -4.3330   21.3720 F   0  0  0  0  0  0  0  0  0  0  0  0
  -21.2810   -3.8430   26.0200 F   0  0  0  0  0  0  0  0  0  0  0  0
  -22.7350  -13.6270   21.1140 C   0  0  0  0  0  0  0  0  0  0  0  0
  -22.0080  -12.9390   21.9870 N   0  0  0  0  0  0  0  0  0  0  0  0
  -22.2980  -14.6470   20.5840 O   0  0  0  0  0  0  0  0  0  0  0  0
  -22.3740  -12.1170   22.4420 H   0  0  0  0  0  0  0  0  0  0  0  0
  -21.0690  -13.2440   22.2050 H   0  0  0  0  0  0  0  0  0  0  0  0
  -25.3540  -15.2910   20.2820 N   0  0  0  0  0  0  0  0  0  0  0  0
  -24.5830  -15.9400   20.3840 H   0  0  0  0  0  0  0  0  0  0  0  0
  -26.1900  -15.7260   19.9160 H   0  0  0  0  0  0  0  0  0  0  0  0
  -28.0520  -24.2160   19.9990 C   0  0  0  0  0  2  0  0  0  0  0  0
  -28.2070  -25.8520   20.2690 O   0  0  0  0  0  0  0  0  0  0  0  0
  -24.6300  -31.8380   23.1900 C   0  0  0  0  0  0  0  0  0  0  0  0
  -27.1910  -26.9470   20.1820 C   0  0  0  0  0  0  0  0  0  0  0  0
  -23.4370  -30.4340   21.5580 C   0  0  0  0  0  3  0  0  0  0  0  0
  -24.8870  -28.8260   20.1360 C   0  0  0  0  0  0  0  0  0  0  0  0
  -26.0020  -30.6480   21.4060 C   0  0  0  0  0  2  0  0  0  0  0  0
  -26.0750  -29.2350   20.7530 C   0  0  0  0  0  0  0  0  0  0  0  0
  -27.2200  -28.3170   20.7510 C   0  0  0  0  0  3  0  0  0  0  0  0
  -25.9740  -26.6930   19.5110 C   0  0  0  0  0  3  0  0  0  0  0  0
  -24.8620  -27.5770   19.4920 C   0  0  0  0  0  3  0  0  0  0  0  0
  -23.6660  -29.7440   20.1840 C   0  0  0  0  0  2  0  0  0  0  0  0
  -24.7110  -31.0010   22.1050 N   0  0  0  0  0  0  0  0  0  0  0  0
  -23.5410  -32.1260   23.7120 O   0  0  0  0  0  0  0  0  0  0  0  0
  -22.7450  -29.4410   22.5290 C   0  0  0  0  0  0  0  0  0  0  0  0
  -21.4130  -29.2810   22.4140 N   0  0  0  0  0  0  0  0  0  0  0  0
  -23.4150  -28.8130   23.3530 O   0  0  0  0  0  0  0  0  0  0  0  0
  -20.9270  -29.8390   21.7260 H   0  0  0  0  0  0  0  0  0  0  0  0
  -18.0300  -28.0790   22.9430 C   0  0  0  0  0  0  0  0  0  0  0  0
  -20.5920  -28.3450   23.1890 C   0  0  0  0  0  3  0  0  0  0  0  0
  -20.6880  -26.9130   22.6130 C   0  0  0  0  0  2  0  0  0  0  0  0
  -19.5790  -26.5910   21.6060 C   0  0  0  0  0  2  0  0  0  0  0  0
  -18.2020  -26.7330   22.2610 C   0  0  0  0  0  2  0  0  0  0  0  0
  -19.1510  -28.8440   23.3640 C   0  0  0  0  0  0  0  0  0  0  0  0
  -18.9320  -30.1020   23.9650 C   0  0  0  0  0  3  0  0  0  0  0  0
  -17.6280  -30.5970   24.1490 C   0  0  0  0  0  3  0  0  0  0  0  0
  -16.5220  -29.8310   23.7410 C   0  0  0  0  0  3  0  0  0  0  0  0
  -16.7240  -28.5730   23.1440 C   0  0  0  0  0  3  0  0  0  0  0  0
  -25.9000  -32.4870   23.8190 C   0  0  0  0  0  3  0  0  0  0  0  0
  -26.4150  -31.7190   25.1010 C   0  0  1  0  0  0  0  0  0  0  0  0
  -25.3210  -31.4820   26.1680 C   0  0  0  0  0  1  0  0  0  0  0  0
  -27.0000  -30.3400   24.7220 C   0  0  0  0  0  1  0  0  0  0  0  0
  -27.5630  -32.5160   25.7630 C   0  0  0  0  0  1  0  0  0  0  0  0
  -25.5760  -33.8820   24.1630 N   0  0  0  0  0  0  0  0  0  0  0  0
  -25.8820  -34.9490   23.4130 C   0  0  0  0  0  0  0  0  0  0  0  0
  -26.5300  -34.8620   22.3670 O   0  0  0  0  0  0  0  0  0  0  0  0
  -24.9970  -34.0230   24.9790 H   0  0  0  0  0  0  0  0  0  0  0  0
  -24.1220  -36.7300   23.1350 C   0  0  0  0  0  1  0  0  0  0  0  0
  -25.3970  -36.3330   23.8960 C   0  0  0  0  0  3  0  0  0  0  0  0
  -27.5500  -37.2430   24.6530 C   0  0  0  0  0  1  0  0  0  0  0  0
  -26.4130  -37.4000   23.7510 N   0  0  0  0  0  0  0  0  0  0  0  0
  -26.0010  -38.3140   23.9170 H   0  0  0  0  0  0  0  0  0  0  0  0
  3  1  1  1
  3  2  1  0
  5  8  1  0
  6  3  1  0
  6  4  2  0
  7  5  2  0
  7  6  1  0
  8  9  1  0
  8  4  1  0
 10  9  1  0
 11 16  1  0
 12 13  1  0
 12 11  1  0
 14 13  1  0
 14 21  1  0
 14 15  1  0
 16 10  1  0
 16 15  1  0
 17 10  2  0
 18 19  2  0
 19 38  1  0
 20 19  1  0
 20 23  1  0
 21 18  1  0
 21 22  1  0
 22 20  2  0
 23 24  1  0
 24 25  2  0
 26 29  1  0
 26 25  1  0
 27 26  2  0
 28 27  1  0
 28 23  2  0
 29 30  1  0
 30 31  1  0
 31 32  2  0
 33 32  1  0
 33 37  1  0
 34 33  2  0
 35 30  2  0
 35 34  1  0
 36 35  1  0
 38 39  1  0
 39 42  1  0
 39 41  1  0
 40 38  2  0
 43 44  1  0
 43 18  1  0
 45 43  1  0
 46 47  1  0
 46  3  1  0
 48 59  2  0
 49 47  1  0
 49 54  1  0
 50 58  1  0
 50 60  1  0
 51 57  1  0
 51 53  1  0
 52 58  1  0
 53 52  1  0
 54 53  2  0
 55 49  2  0
 56 55  1  0
 56 51  2  0
 57 50  1  0
 58 48  1  0
 60 62  2  0
 61 60  1  0
 63 61  1  0
 64 73  2  0
 64 69  1  0
 65 61  1  0
 65 69  1  0
 66 65  1  0
 67 68  1  0
 67 66  1  0
 68 64  1  0
 69 70  2  0
 70 71  1  0
 72 71  2  0
 73 72  1  0
 74 48  1  0
 74 79  1  0
 74 75  1  0
 75 78  1  1
 75 76  1  0
 77 75  1  0
 79 82  1  0
 80 84  1  0
 80 79  1  0
 81 80  2  0
 84 83  1  0
 86 84  1  0
 86 87  1  0
 86 85  1  0
M  ISO  4   9 100  10 100  46 101  47 101
M  END
>  <TORSDO>  (88) 
F 19

>  <SCORE>  (88) 
-16.576

>  <name>  (88) 
90

>  <ligand_id>  (88) 
90

>  <original_smiles>  (88) 
[H]c1c([H])c([H])c2c(c1[H])C([H])([H])C([H])([H])C([H])([H])C2([H])N([H])C(=O)C1([H])N(C(=O)C([H])(N([H])C(=O)C([H])(N([H])C([H])([H])[H])C([H])([H])[H])C(C([H])([H])[H])(C([H])([H])[H])C([H])([H])[H])C([H])([H])c2c([H])c(OC([H])([H])C(c3nc([H])n(C([H])([H])C(=O)N4C([H])([H])C([H])([H])C([H])([H])C([H])(n5nc(-c6c([H])c([H])c(Oc7c([H])c([H])c(F)c([H])c7F)c([H])c6[H])c(C(=O)N([H])[H])c5N([H])[H])C4([H])[H])c3[H])(C([H])([H])[H])C([H])([H])[H])c([H])c([H])c2C1([H])[H]

>  <smiles>  (88) 
[H]c1c([H])c([H])c2c(c1[H])C([H])([H])C([H])([H])C([H])([H])C2([H])N([H])C(=O)C1([H])N(C(=O)C([H])(N([H])C(=O)C([H])(N([H])C([H])([H])[H])C([H])([H])[H])C(C([H])([H])[H])(C([H])([H])[H])C([H])([H])[H])C([H])([H])c2c([H])c(OC([H])([H])C(c3nc([H])n(C([H])([H])C(=O)N4C([H])([H])C([H])([H])C([H])([H])C([H])(n5nc(-c6c([H])c([H])c(Oc7c([H])c([H])c(F)c([H])c7F)c([H])c6[H])c(C(=O)N([H])[H])c5N([H])[H])C4([H])[H])c3[H])(C([H])([H])[H])C([H])([H])[H])c([H])c([H])c2C1([H])[H]

$$$$
91:0:0
     RDKit          3D

 91 99  0  0  1  0  0  0  0  0999 V2000
  -28.5960  -20.7980   18.7360 C   0  0  0  0  0  3  0  0  0  0  0  0
  -28.7880  -21.5420   19.8890 C   0  0  0  0  0  0  0  0  0  0  0  0
  -29.5640  -19.2250   20.0780 C   0  0  0  0  0  3  0  0  0  0  0  0
  -28.9710  -18.4600   17.8180 C   0  0  0  0  0  1  0  0  0  0  0  0
  -29.0360  -19.4790   18.8690 N   0  0  0  0  0  0  0  0  0  0  0  0
  -29.3990  -20.4970   20.6970 N   0  0  0  0  0  0  0  0  0  0  0  0
  -29.7070  -20.6640   21.6470 H   0  0  0  0  0  0  0  0  0  0  0  0
  -30.4920  -17.8580   22.0620 C   0  0  0  0  0  1  0  0  0  0  0  0
  -31.8430  -18.0810   20.0010 C   0  0  0  0  0  1  0  0  0  0  0  0
  -30.4140  -17.8330   20.5240 C   0  0  2  0  0  0  0  0  0  0  0  0
  -30.7450  -15.0420   20.0300 C   0  0  0  0  0  0  0  0  0  0  0  0
  -30.5740  -12.6540   19.1250 C   0  0  0  0  0  2  0  0  0  0  0  0
  -29.6000  -12.5370   17.9280 C   0  0  0  0  0  2  0  0  0  0  0  0
  -28.1570  -12.3350   18.4220 C   0  0  0  0  0  2  0  0  0  0  0  0
  -27.7870  -13.2990   19.5760 C   0  0  0  0  0  3  0  0  0  0  0  0
  -28.8800  -13.3720   20.6620 C   0  0  0  0  0  2  0  0  0  0  0  0
  -30.1140  -13.7900   19.9840 N   0  0  0  0  0  0  0  0  0  0  0  0
  -31.9540  -15.0180   19.7670 O   0  0  0  0  0  0  0  0  0  0  0  0
  -30.0250  -16.2940   20.1780 N   0  0  0  0  0  0  0  0  0  0  0  0
  -29.0300  -16.1360   20.2340 H   0  0  0  0  0  0  0  0  0  0  0  0
  -25.4600  -13.9080   20.4340 C   0  0  0  0  0  0  0  0  0  0  0  0
  -24.3990  -13.1490   20.8410 C   0  0  0  0  0  0  0  0  0  0  0  0
  -24.8360  -11.7910   20.7750 C   0  0  0  0  0  0  0  0  0  0  0  0
  -26.4730  -13.0140   20.1360 N   0  0  0  0  0  0  0  0  0  0  0  0
  -26.1120  -11.7330   20.4090 N   0  0  0  0  0  0  0  0  0  0  0  0
  -24.0910  -10.5420   20.9820 C   0  0  0  0  0  0  0  0  0  0  0  0
  -24.5280   -9.5640   21.9030 C   0  0  0  0  0  3  0  0  0  0  0  0
  -23.7840   -8.3810   22.0970 C   0  0  0  0  0  3  0  0  0  0  0  0
  -22.5870   -8.1670   21.3710 C   0  0  0  0  0  0  0  0  0  0  0  0
  -22.1690   -9.1340   20.4380 C   0  0  0  0  0  3  0  0  0  0  0  0
  -22.9140  -10.3090   20.2430 C   0  0  0  0  0  3  0  0  0  0  0  0
  -21.8100   -7.0390   21.4780 O   0  0  0  0  0  0  0  0  0  0  0  0
  -21.7600   -6.3070   22.6370 C   0  0  0  0  0  0  0  0  0  0  0  0
  -21.3360   -6.8730   23.8600 C   0  0  0  0  0  3  0  0  0  0  0  0
  -21.2320   -6.0650   25.0100 C   0  0  0  0  0  3  0  0  0  0  0  0
  -21.5440   -4.6940   24.9400 C   0  0  0  0  0  0  0  0  0  0  0  0
  -21.9620   -4.1280   23.7230 C   0  0  0  0  0  3  0  0  0  0  0  0
  -22.0680   -4.9330   22.5750 C   0  0  0  0  0  0  0  0  0  0  0  0
  -22.4500   -4.3770   21.3990 F   0  0  0  0  0  0  0  0  0  0  0  0
  -21.4360   -3.9180   26.0440 F   0  0  0  0  0  0  0  0  0  0  0  0
  -23.0240  -13.6510   21.1690 C   0  0  0  0  0  0  0  0  0  0  0  0
  -22.3140  -12.9680   22.0600 N   0  0  0  0  0  0  0  0  0  0  0  0
  -22.5890  -14.6890   20.6720 O   0  0  0  0  0  0  0  0  0  0  0  0
  -22.6790  -12.1290   22.4890 H   0  0  0  0  0  0  0  0  0  0  0  0
  -21.3910  -13.2890   22.3180 H   0  0  0  0  0  0  0  0  0  0  0  0
  -25.6360  -15.2790   20.2650 N   0  0  0  0  0  0  0  0  0  0  0  0
  -24.8750  -15.9300   20.4280 H   0  0  0  0  0  0  0  0  0  0  0  0
  -26.4500  -15.7180   19.8590 H   0  0  0  0  0  0  0  0  0  0  0  0
  -28.1890  -23.1250   19.9990 C   0  0  0  0  0  2  0  0  0  0  0  0
  -28.5620  -24.5680   20.8290 C   0  0  0  0  0  2  0  0  0  0  0  0
  -28.4870  -26.1040   20.4120 O   0  0  0  0  0  0  0  0  0  0  0  0
  -24.5400  -31.7710   23.2700 C   0  0  0  0  0  0  0  0  0  0  0  0
  -27.3790  -27.0400   20.4140 C   0  0  0  0  0  0  0  0  0  0  0  0
  -23.5140  -30.3600   21.5560 C   0  0  0  0  0  3  0  0  0  0  0  0
  -25.0530  -28.7880   20.2410 C   0  0  0  0  0  0  0  0  0  0  0  0
  -26.0620  -30.6730   21.5440 C   0  0  0  0  0  2  0  0  0  0  0  0
  -26.1940  -29.2550   20.9130 C   0  0  0  0  0  0  0  0  0  0  0  0
  -27.3620  -28.3960   20.9630 C   0  0  0  0  0  3  0  0  0  0  0  0
  -26.2070  -26.6800   19.7200 C   0  0  0  0  0  3  0  0  0  0  0  0
  -25.0720  -27.5200   19.6350 C   0  0  0  0  0  3  0  0  0  0  0  0
  -23.8240  -29.6790   20.2010 C   0  0  0  0  0  2  0  0  0  0  0  0
  -24.7390  -30.9620   22.1820 N   0  0  0  0  0  0  0  0  0  0  0  0
  -23.3830  -32.0280   23.6470 O   0  0  0  0  0  0  0  0  0  0  0  0
  -22.7930  -29.3500   22.4870 C   0  0  0  0  0  0  0  0  0  0  0  0
  -21.4670  -29.2020   22.3230 N   0  0  0  0  0  0  0  0  0  0  0  0
  -23.4300  -28.7110   23.3290 O   0  0  0  0  0  0  0  0  0  0  0  0
  -21.0070  -29.7720   21.6270 H   0  0  0  0  0  0  0  0  0  0  0  0
  -18.0590  -28.0520   22.7190 C   0  0  0  0  0  0  0  0  0  0  0  0
  -20.6120  -28.2720   23.0640 C   0  0  0  0  0  3  0  0  0  0  0  0
  -20.7090  -26.8470   22.4740 C   0  0  0  0  0  2  0  0  0  0  0  0
  -19.6360  -26.5550   21.4210 C   0  0  0  0  0  2  0  0  0  0  0  0
  -18.2370  -26.7100   22.0260 C   0  0  0  0  0  2  0  0  0  0  0  0
  -19.1750  -28.7920   23.1910 C   0  0  0  0  0  0  0  0  0  0  0  0
  -18.9550  -30.0470   23.7970 C   0  0  0  0  0  3  0  0  0  0  0  0
  -17.6530  -30.5630   23.9360 C   0  0  0  0  0  3  0  0  0  0  0  0
  -16.5500  -29.8180   23.4800 C   0  0  0  0  0  3  0  0  0  0  0  0
  -16.7540  -28.5650   22.8780 C   0  0  0  0  0  3  0  0  0  0  0  0
  -25.6910  -32.4260   24.0980 C   0  0  0  0  0  0  0  0  0  0  0  0
  -26.3210  -31.6140   25.3060 C   0  0  1  0  0  0  0  0  0  0  0  0
  -25.2640  -31.2590   26.4010 C   0  0  0  0  0  1  0  0  0  0  0  0
  -26.9510  -30.2750   24.8700 C   0  0  0  0  0  1  0  0  0  0  0  0
  -27.4380  -32.4410   25.9790 C   0  0  0  0  0  1  0  0  0  0  0  0
  -25.5790  -33.8700   24.2630 N   0  0  0  0  0  4  0  0  0  0  0  0
  -25.9590  -34.8640   23.4710 C   0  0  0  0  0  0  0  0  0  0  0  0
  -26.6320  -34.7020   22.4550 O   0  0  0  0  0  0  0  0  0  0  0  0
  -25.0190  -34.1530   25.0550 H   0  0  0  0  0  0  0  0  0  0  0  0
  -24.2100  -36.6480   23.1030 C   0  0  0  0  0  1  0  0  0  0  0  0
  -25.4670  -36.2630   23.9000 C   0  0  0  0  0  3  0  0  0  0  0  0
  -27.5770  -37.1720   24.7410 C   0  0  0  0  0  1  0  0  0  0  0  0
  -26.4910  -37.3170   23.7750 N   0  0  0  0  0  0  0  0  0  0  0  0
  -26.0780  -38.2370   23.9000 H   0  0  0  0  0  0  0  0  0  0  0  0
  1  5  1  0
  1  2  2  0
  2 49  1  0
  2  6  1  0
  3 10  1  0
  3  6  1  0
  4  5  1  0
  5  3  1  0
  6  7  1  0
 10  9  1  6
 10  8  1  0
 11 19  1  0
 12 17  1  0
 13 14  1  0
 13 12  1  0
 15 14  1  0
 15 24  1  0
 15 16  1  0
 17 11  1  0
 17 16  1  0
 18 11  2  0
 19 20  1  0
 19 10  1  0
 21 22  2  0
 22 41  1  0
 23 22  1  0
 23 26  1  0
 24 25  1  0
 24 21  1  0
 25 23  2  0
 26 27  1  0
 27 28  2  0
 29 32  1  0
 29 28  1  0
 30 29  2  0
 31 30  1  0
 31 26  2  0
 32 33  1  0
 33 34  1  0
 34 35  2  0
 36 35  1  0
 36 40  1  0
 37 36  2  0
 38 33  2  0
 38 37  1  0
 39 38  1  0
 41 42  1  0
 42 45  1  0
 42 44  1  0
 43 41  2  0
 46 47  1  0
 46 21  1  0
 48 46  1  0
 49 50  1  0
 51 53  1  0
 51 50  1  0
 52 63  2  0
 52 78  1  0
 53 58  1  0
 54 62  1  0
 54 64  1  0
 55 57  1  0
 56 62  1  0
 57 58  2  0
 57 56  1  0
 59 53  2  0
 60 59  1  0
 60 55  2  0
 61 55  1  0
 61 54  1  0
 62 52  1  0
 64 66  2  0
 65 64  1  0
 67 65  1  0
 68 77  2  0
 68 73  1  0
 69 65  1  0
 69 73  1  0
 70 69  1  0
 71 72  1  0
 71 70  1  0
 72 68  1  0
 73 74  2  0
 74 75  1  0
 76 75  2  0
 77 76  1  0
 78 83  2  3
 78 79  1  0
 79 82  1  1
 79 80  1  0
 81 79  1  0
 83 86  1  0
 84 88  1  0
 84 83  1  0
 85 84  2  0
 88 87  1  0
 90 91  1  0
 90 88  1  0
 90 89  1  0
M  ISO  4  11 100  19 100  50 101  51 101
M  END
>  <TORSDO>  (89) 
F 19

>  <SCORE>  (89) 
-15.181

>  <name>  (89) 
91

>  <ligand_id>  (89) 
91

>  <original_smiles>  (89) 
[H]c1c([H])c([H])c2c(c1[H])C([H])([H])C([H])([H])C([H])([H])C2([H])N([H])C(=O)C1([H])N(C(=O)C([H])(N([H])C(=O)C([H])(N([H])C([H])([H])[H])C([H])([H])[H])C(C([H])([H])[H])(C([H])([H])[H])C([H])([H])[H])C([H])([H])c2c([H])c(OC([H])([H])C([H])([H])c3c([H])n(C([H])([H])[H])c(C(N([H])C(=O)N4C([H])([H])C([H])([H])C([H])([H])C([H])(n5nc(-c6c([H])c([H])c(Oc7c([H])c([H])c(F)c([H])c7F)c([H])c6[H])c(C(=O)N([H])[H])c5N([H])[H])C4([H])[H])(C([H])([H])[H])C([H])([H])[H])[n+]3[H])c([H])c([H])c2C1([H])[H]

>  <smiles>  (89) 
[H]c1c([H])c([H])c2c(c1[H])C([H])([H])C([H])([H])C([H])([H])C2([H])N([H])C(=O)C1([H])N(C(=O)C([H])(N([H])C(=O)C([H])(N([H])C([H])([H])[H])C([H])([H])[H])C(C([H])([H])[H])(C([H])([H])[H])C([H])([H])[H])C([H])([H])c2c([H])c(OC([H])([H])C([H])([H])c3c([H])n(C([H])([H])[H])c(C(N([H])C(=O)N4C([H])([H])C([H])([H])C([H])([H])C([H])(n5nc(-c6c([H])c([H])c(Oc7c([H])c([H])c(F)c([H])c7F)c([H])c6[H])c(C(=O)N([H])[H])c5N([H])[H])C4([H])[H])(C([H])([H])[H])C([H])([H])[H])[n+]3[H])c([H])c([H])c2C1([H])[H]

$$$$
92:0:0
     RDKit          3D

 89 97  0  0  1  0  0  0  0  0999 V2000
  -29.0960  -21.1900   18.9630 C   0  0  0  0  0  3  0  0  0  0  0  0
  -29.2770  -20.4510   20.1780 C   0  0  0  0  0  0  0  0  0  0  0  0
  -28.9600  -22.6050   21.2420 C   0  0  0  0  0  0  0  0  0  0  0  0
  -28.7160  -23.3320   20.0240 C   0  0  0  0  0  0  0  0  0  0  0  0
  -28.8220  -23.3080   22.5790 C   0  0  0  0  0  1  0  0  0  0  0  0
  -28.8310  -22.5540   18.8910 N   0  0  0  0  0  0  0  0  0  0  0  0
  -29.2360  -21.2360   21.3130 N   0  0  0  0  0  0  0  0  0  0  0  0
  -29.1420  -18.8180   20.2890 C   0  0  0  0  0  3  0  0  0  0  0  0
  -30.3040  -17.6240   20.1830 C   0  0  0  0  0  3  0  0  0  0  0  0
  -30.6630  -14.9330   20.0550 C   0  0  0  0  0  0  0  0  0  0  0  0
  -30.4380  -12.6680   18.9340 C   0  0  0  0  0  2  0  0  0  0  0  0
  -29.4160  -12.7140   17.7730 C   0  0  0  0  0  2  0  0  0  0  0  0
  -27.9800  -12.4880   18.2850 C   0  0  0  0  0  2  0  0  0  0  0  0
  -27.6730  -13.3210   19.5550 C   0  0  0  0  0  3  0  0  0  0  0  0
  -28.8030  -13.1870   20.5930 C   0  0  0  0  0  2  0  0  0  0  0  0
  -30.0370  -13.6840   19.9530 N   0  0  0  0  0  0  0  0  0  0  0  0
  -31.7870  -15.0330   19.5480 O   0  0  0  0  0  0  0  0  0  0  0  0
  -29.3340  -16.0540   21.8100 C   0  0  0  0  0  1  0  0  0  0  0  0
  -29.9820  -16.1110   20.4940 N   0  0  0  0  0  0  0  0  0  0  0  0
  -25.3350  -13.8630   20.4540 C   0  0  0  0  0  0  0  0  0  0  0  0
  -24.2990  -13.0690   20.8640 C   0  0  0  0  0  0  0  0  0  0  0  0
  -24.7670  -11.7230   20.7580 C   0  0  0  0  0  0  0  0  0  0  0  0
  -26.3660  -13.0010   20.1200 N   0  0  0  0  0  0  0  0  0  0  0  0
  -26.0370  -11.7060   20.3650 N   0  0  0  0  0  0  0  0  0  0  0  0
  -24.0610  -10.4500   20.9510 C   0  0  0  0  0  0  0  0  0  0  0  0
  -24.5160   -9.4860   21.8770 C   0  0  0  0  0  3  0  0  0  0  0  0
  -23.8070   -8.2790   22.0590 C   0  0  0  0  0  3  0  0  0  0  0  0
  -22.6310   -8.0260   21.3140 C   0  0  0  0  0  0  0  0  0  0  0  0
  -22.1960   -8.9800   20.3770 C   0  0  0  0  0  3  0  0  0  0  0  0
  -22.9040  -10.1790   20.1930 C   0  0  0  0  0  3  0  0  0  0  0  0
  -21.8930   -6.8710   21.4040 O   0  0  0  0  0  0  0  0  0  0  0  0
  -21.8030   -6.1640   22.5760 C   0  0  0  0  0  0  0  0  0  0  0  0
  -21.3150   -6.7510   23.7640 C   0  0  0  0  0  3  0  0  0  0  0  0
  -21.1750   -5.9690   24.9290 C   0  0  0  0  0  3  0  0  0  0  0  0
  -21.5130   -4.6020   24.9050 C   0  0  0  0  0  0  0  0  0  0  0  0
  -21.9930   -4.0160   23.7220 C   0  0  0  0  0  3  0  0  0  0  0  0
  -22.1350   -4.7940   22.5600 C   0  0  0  0  0  0  0  0  0  0  0  0
  -22.5790   -4.2190   21.4170 F   0  0  0  0  0  0  0  0  0  0  0  0
  -21.3700   -3.8500   26.0210 F   0  0  0  0  0  0  0  0  0  0  0  0
  -22.9210  -13.5260   21.2400 C   0  0  0  0  0  0  0  0  0  0  0  0
  -22.2580  -12.8040   22.1360 N   0  0  0  0  0  0  0  0  0  0  0  0
  -22.4400  -14.5590   20.7730 O   0  0  0  0  0  0  0  0  0  0  0  0
  -22.6610  -11.9680   22.5340 H   0  0  0  0  0  0  0  0  0  0  0  0
  -21.3350  -13.0920   22.4310 H   0  0  0  0  0  0  0  0  0  0  0  0
  -25.4790  -15.2410   20.3150 N   0  0  0  0  0  0  0  0  0  0  0  0
  -24.7190  -15.8850   20.5010 H   0  0  0  0  0  0  0  0  0  0  0  0
  -26.3080  -15.6990   19.9580 H   0  0  0  0  0  0  0  0  0  0  0  0
  -27.8910  -24.7450   19.8770 C   0  0  0  0  0  2  0  0  0  0  0  0
  -28.2730  -26.2070   20.1930 O   0  0  0  0  0  0  0  0  0  0  0  0
  -24.6560  -31.8540   23.2350 C   0  0  0  0  0  0  0  0  0  0  0  0
  -27.2260  -27.1970   20.1340 C   0  0  0  0  0  0  0  0  0  0  0  0
  -23.4490  -30.4780   21.5860 C   0  0  0  0  0  3  0  0  0  0  0  0
  -24.8930  -28.9300   20.1390 C   0  0  0  0  0  0  0  0  0  0  0  0
  -26.0040  -30.7480   21.4190 C   0  0  0  0  0  2  0  0  0  0  0  0
  -26.0750  -29.3680   20.7500 C   0  0  0  0  0  0  0  0  0  0  0  0
  -27.2420  -28.5170   20.7370 C   0  0  0  0  0  3  0  0  0  0  0  0
  -26.0130  -26.8690   19.4800 C   0  0  0  0  0  3  0  0  0  0  0  0
  -24.8730  -27.6910   19.4920 C   0  0  0  0  0  3  0  0  0  0  0  0
  -23.6660  -29.8230   20.1980 C   0  0  0  0  0  2  0  0  0  0  0  0
  -24.7220  -31.0470   22.1350 N   0  0  0  0  0  0  0  0  0  0  0  0
  -23.5710  -32.1320   23.7680 O   0  0  0  0  0  0  0  0  0  0  0  0
  -22.7770  -29.4560   22.5360 C   0  0  0  0  0  0  0  0  0  0  0  0
  -21.4480  -29.2840   22.4120 N   0  0  0  0  0  0  0  0  0  0  0  0
  -23.4510  -28.8210   23.3520 O   0  0  0  0  0  0  0  0  0  0  0  0
  -20.9610  -29.8480   21.7300 H   0  0  0  0  0  0  0  0  0  0  0  0
  -18.0680  -28.0840   22.9100 C   0  0  0  0  0  0  0  0  0  0  0  0
  -20.6280  -28.3420   23.1770 C   0  0  0  0  0  3  0  0  0  0  0  0
  -20.7280  -26.9140   22.5920 C   0  0  0  0  0  2  0  0  0  0  0  0
  -19.6250  -26.5990   21.5770 C   0  0  0  0  0  2  0  0  0  0  0  0
  -18.2440  -26.7400   22.2230 C   0  0  0  0  0  2  0  0  0  0  0  0
  -19.1870  -28.8430   23.3430 C   0  0  0  0  0  0  0  0  0  0  0  0
  -18.9680  -30.1010   23.9470 C   0  0  0  0  0  3  0  0  0  0  0  0
  -17.6630  -30.5990   24.1200 C   0  0  0  0  0  3  0  0  0  0  0  0
  -16.5590  -29.8380   23.7020 C   0  0  0  0  0  3  0  0  0  0  0  0
  -16.7620  -28.5810   23.1030 C   0  0  0  0  0  3  0  0  0  0  0  0
  -25.9360  -32.4820   23.8620 C   0  0  0  0  0  3  0  0  0  0  0  0
  -26.4480  -31.7040   25.1370 C   0  0  1  0  0  0  0  0  0  0  0  0
  -25.3510  -31.4670   26.2010 C   0  0  0  0  0  1  0  0  0  0  0  0
  -27.0270  -30.3260   24.7470 C   0  0  0  0  0  1  0  0  0  0  0  0
  -27.6000  -32.4920   25.8040 C   0  0  0  0  0  1  0  0  0  0  0  0
  -25.6270  -33.8800   24.2030 N   0  0  0  0  0  0  0  0  0  0  0  0
  -25.9380  -34.9390   23.4430 C   0  0  0  0  0  0  0  0  0  0  0  0
  -26.5840  -34.8430   22.3960 O   0  0  0  0  0  0  0  0  0  0  0  0
  -25.0540  -34.0290   25.0210 H   0  0  0  0  0  0  0  0  0  0  0  0
  -24.1860  -36.7220   23.1560 C   0  0  0  0  0  1  0  0  0  0  0  0
  -25.4590  -36.3240   23.9210 C   0  0  0  0  0  3  0  0  0  0  0  0
  -27.6160  -37.2240   24.6750 C   0  0  0  0  0  1  0  0  0  0  0  0
  -26.4810  -37.3840   23.7710 N   0  0  0  0  0  0  0  0  0  0  0  0
  -26.0730  -38.3020   23.9330 H   0  0  0  0  0  0  0  0  0  0  0  0
  1  2  1  0
  2  8  1  0
  2  7  2  0
  3  7  1  0
  3  5  1  0
  4  3  2  0
  6  1  2  0
  6  4  1  0
  9  8  2  0
  9 19  1  0
 10 19  1  0
 11 16  1  0
 12 13  1  0
 12 11  1  0
 14 13  1  0
 14 23  1  0
 14 15  1  0
 16 10  1  0
 16 15  1  0
 17 10  2  0
 19 18  1  0
 20 21  2  0
 21 40  1  0
 22 21  1  0
 22 25  1  0
 23 24  1  0
 23 20  1  0
 24 22  2  0
 25 26  1  0
 26 27  2  0
 28 31  1  0
 28 27  1  0
 29 28  2  0
 30 29  1  0
 30 25  2  0
 31 32  1  0
 32 33  1  0
 33 34  2  0
 35 34  1  0
 35 39  1  0
 36 35  2  0
 37 32  2  0
 37 36  1  0
 38 37  1  0
 40 41  1  0
 41 44  1  0
 41 43  1  0
 42 40  2  0
 45 20  1  0
 45 46  1  0
 47 45  1  0
 48  4  1  0
 48 49  1  0
 50 61  2  0
 51 49  1  0
 51 56  1  0
 52 60  1  0
 52 62  1  0
 53 59  1  0
 53 55  1  0
 54 60  1  0
 55 54  1  0
 56 55  2  0
 57 58  1  0
 57 51  2  0
 58 53  2  0
 59 52  1  0
 60 50  1  0
 62 64  2  0
 63 62  1  0
 65 63  1  0
 66 75  2  0
 66 71  1  0
 67 63  1  0
 67 71  1  0
 68 67  1  0
 69 70  1  0
 69 68  1  0
 70 66  1  0
 71 72  2  0
 72 73  1  0
 74 73  2  0
 75 74  1  0
 76 50  1  0
 76 81  1  0
 76 77  1  0
 77 80  1  1
 77 78  1  0
 79 77  1  0
 81 84  1  0
 82 86  1  0
 82 81  1  0
 83 82  2  0
 86 85  1  0
 88 86  1  0
 88 89  1  0
 88 87  1  0
M  ISO  4  10 100  19 100  48 101  49 101
M  END
>  <TORSDO>  (90) 
F 19

>  <SCORE>  (90) 
-13.375

>  <name>  (90) 
92

>  <ligand_id>  (90) 
92

>  <original_smiles>  (90) 
[H]c1nc(C([H])([H])Oc2c([H])c([H])c3c(c2[H])C([H])([H])N(C(=O)C([H])(N([H])C(=O)C([H])(N([H])C([H])([H])[H])C([H])([H])[H])C(C([H])([H])[H])(C([H])([H])[H])C([H])([H])[H])C([H])(C(=O)N([H])C2([H])c4c([H])c([H])c([H])c([H])c4C([H])([H])C([H])([H])C2([H])[H])C3([H])[H])c(C([H])([H])[H])nc1C([H])([H])C([H])([H])N(C(=O)N1C([H])([H])C([H])([H])C([H])([H])C([H])(n2nc(-c3c([H])c([H])c(Oc4c([H])c([H])c(F)c([H])c4F)c([H])c3[H])c(C(=O)N([H])[H])c2N([H])[H])C1([H])[H])C([H])([H])[H]

>  <smiles>  (90) 
[H]c1nc(C([H])([H])Oc2c([H])c([H])c3c(c2[H])C([H])([H])N(C(=O)C([H])(N([H])C(=O)C([H])(N([H])C([H])([H])[H])C([H])([H])[H])C(C([H])([H])[H])(C([H])([H])[H])C([H])([H])[H])C([H])(C(=O)N([H])C2([H])c4c([H])c([H])c([H])c([H])c4C([H])([H])C([H])([H])C2([H])[H])C3([H])[H])c(C([H])([H])[H])nc1C([H])([H])C([H])([H])N(C(=O)N1C([H])([H])C([H])([H])C([H])([H])C([H])(n2nc(-c3c([H])c([H])c(Oc4c([H])c([H])c(F)c([H])c4F)c([H])c3[H])c(C(=O)N([H])[H])c2N([H])[H])C1([H])[H])C([H])([H])[H]

$$$$
93:0:0
     RDKit          3D

 91 99  0  0  1  0  0  0  0  0999 V2000
  -28.1280  -20.3050   19.5330 C   0  0  0  0  0  3  0  0  0  0  0  0
  -29.2810  -21.0210   19.7780 C   0  0  0  0  0  0  0  0  0  0  0  0
  -29.7510  -18.7280   19.6450 C   0  0  0  0  0  3  0  0  0  0  0  0
  -27.4810  -17.9030   19.1000 C   0  0  0  0  0  1  0  0  0  0  0  0
  -28.4390  -18.9560   19.4370 N   0  0  0  0  0  0  0  0  0  0  0  0
  -30.2460  -19.9930   19.8440 N   0  0  0  0  0  0  0  0  0  0  0  0
  -31.2360  -20.1730   19.9680 H   0  0  0  0  0  0  0  0  0  0  0  0
  -29.5930  -22.5750   19.8240 C   0  0  0  0  0  2  0  0  0  0  0  0
  -28.4750  -23.7320   20.0520 C   0  0  0  0  0  2  0  0  0  0  0  0
  -28.6960  -25.1990   19.3880 C   0  0  0  0  0  2  0  0  0  0  0  0
  -28.4550  -26.5250   20.0440 O   0  0  0  0  0  0  0  0  0  0  0  0
  -24.3990  -31.7030   23.0330 C   0  0  0  0  0  0  0  0  0  0  0  0
  -27.2750  -27.2930   19.9480 C   0  0  0  0  0  0  0  0  0  0  0  0
  -23.2810  -30.2540   21.3720 C   0  0  0  0  0  3  0  0  0  0  0  0
  -24.8190  -28.7830   19.9420 C   0  0  0  0  0  0  0  0  0  0  0  0
  -25.8040  -30.6990   21.2150 C   0  0  0  0  0  2  0  0  0  0  0  0
  -25.9560  -29.3340   20.5440 C   0  0  0  0  0  0  0  0  0  0  0  0
  -27.1810  -28.5980   20.5380 C   0  0  0  0  0  3  0  0  0  0  0  0
  -26.1060  -26.7890   19.3390 C   0  0  0  0  0  3  0  0  0  0  0  0
  -24.8950  -27.5160   19.3390 C   0  0  0  0  0  3  0  0  0  0  0  0
  -23.5360  -29.5940   19.9900 C   0  0  0  0  0  2  0  0  0  0  0  0
  -24.5110  -30.9090   21.9260 N   0  0  0  0  0  0  0  0  0  0  0  0
  -23.3000  -31.9150   23.5660 O   0  0  0  0  0  0  0  0  0  0  0  0
  -22.6750  -29.1990   22.3260 C   0  0  0  0  0  0  0  0  0  0  0  0
  -21.3610  -28.9460   22.1970 N   0  0  0  0  0  0  0  0  0  0  0  0
  -23.3860  -28.6050   23.1410 O   0  0  0  0  0  0  0  0  0  0  0  0
  -20.8450  -29.4770   21.5070 H   0  0  0  0  0  0  0  0  0  0  0  0
  -18.0500  -27.5770   22.7100 C   0  0  0  0  0  0  0  0  0  0  0  0
  -20.5970  -27.9590   22.9610 C   0  0  0  0  0  3  0  0  0  0  0  0
  -20.7610  -26.5420   22.3620 C   0  0  0  0  0  2  0  0  0  0  0  0
  -19.6670  -26.1810   21.3530 C   0  0  0  0  0  2  0  0  0  0  0  0
  -18.2860  -26.2500   22.0100 C   0  0  0  0  0  2  0  0  0  0  0  0
  -19.1350  -28.3870   23.1420 C   0  0  0  0  0  0  0  0  0  0  0  0
  -18.8590  -29.6280   23.7560 C   0  0  0  0  0  3  0  0  0  0  0  0
  -17.5330  -30.0600   23.9440 C   0  0  0  0  0  3  0  0  0  0  0  0
  -16.4640  -29.2490   23.5270 C   0  0  0  0  0  3  0  0  0  0  0  0
  -16.7230  -28.0100   22.9150 C   0  0  0  0  0  3  0  0  0  0  0  0
  -25.6420  -32.4030   23.6660 C   0  0  0  0  0  3  0  0  0  0  0  0
  -25.2440  -33.7710   24.0270 N   0  0  0  0  0  0  0  0  0  0  0  0
  -25.4890  -34.8600   23.2870 C   0  0  0  0  0  0  0  0  0  0  0  0
  -26.1450  -34.8230   22.2420 O   0  0  0  0  0  0  0  0  0  0  0  0
  -24.6600  -33.8700   24.8440 H   0  0  0  0  0  0  0  0  0  0  0  0
  -23.6350  -36.5360   23.0080 C   0  0  0  0  0  1  0  0  0  0  0  0
  -24.9190  -36.2020   23.7840 C   0  0  0  0  0  3  0  0  0  0  0  0
  -27.0020  -37.2190   24.5940 C   0  0  0  0  0  1  0  0  0  0  0  0
  -25.8720  -37.3270   23.6730 N   0  0  0  0  0  0  0  0  0  0  0  0
  -25.4060  -38.2130   23.8440 H   0  0  0  0  0  0  0  0  0  0  0  0
  -26.2110  -31.6460   24.9290 C   0  0  1  0  0  0  0  0  0  0  0  0
  -25.1400  -31.3170   25.9950 C   0  0  0  0  0  1  0  0  0  0  0  0
  -26.8850  -30.3170   24.5180 C   0  0  0  0  0  1  0  0  0  0  0  0
  -27.3080  -32.5040   25.6020 C   0  0  0  0  0  1  0  0  0  0  0  0
  -30.5730  -17.3720   19.4860 C   0  0  0  0  0  2  0  0  0  0  0  0
  -30.7800  -14.8260   19.6500 C   0  0  0  0  0  0  0  0  0  0  0  0
  -30.4440  -12.5900   18.5580 C   0  0  0  0  0  2  0  0  0  0  0  0
  -29.3420  -12.6820   17.4790 C   0  0  0  0  0  2  0  0  0  0  0  0
  -27.9460  -12.4740   18.0990 C   0  0  0  0  0  2  0  0  0  0  0  0
  -27.7450  -13.3050   19.3950 C   0  0  0  0  0  3  0  0  0  0  0  0
  -28.9470  -13.1360   20.3430 C   0  0  0  0  0  2  0  0  0  0  0  0
  -30.1360  -13.5980   19.6080 N   0  0  0  0  0  0  0  0  0  0  0  0
  -31.8690  -14.9200   19.0700 O   0  0  0  0  0  0  0  0  0  0  0  0
  -30.1260  -16.0100   20.0540 N   0  0  0  0  0  0  0  0  0  0  0  0
  -25.5100  -13.8540   20.5280 C   0  0  0  0  0  0  0  0  0  0  0  0
  -24.4960  -13.0620   20.9880 C   0  0  0  0  0  0  0  0  0  0  0  0
  -24.9070  -11.7160   20.7540 C   0  0  0  0  0  0  0  0  0  0  0  0
  -26.4820  -12.9890   20.0520 N   0  0  0  0  0  0  0  0  0  0  0  0
  -26.1330  -11.6910   20.2440 N   0  0  0  0  0  0  0  0  0  0  0  0
  -24.1790  -10.4550   20.9380 C   0  0  0  0  0  0  0  0  0  0  0  0
  -24.6440   -9.4570   21.8220 C   0  0  0  0  0  3  0  0  0  0  0  0
  -23.9180   -8.2600   21.9960 C   0  0  0  0  0  3  0  0  0  0  0  0
  -22.7090   -8.0530   21.2870 C   0  0  0  0  0  0  0  0  0  0  0  0
  -22.2620   -9.0410   20.3940 C   0  0  0  0  0  3  0  0  0  0  0  0
  -22.9890  -10.2300   20.2170 C   0  0  0  0  0  3  0  0  0  0  0  0
  -21.9510   -6.9090   21.3730 O   0  0  0  0  0  0  0  0  0  0  0  0
  -21.8410   -6.2040   22.5450 C   0  0  0  0  0  0  0  0  0  0  0  0
  -21.3560   -6.7990   23.7300 C   0  0  0  0  0  3  0  0  0  0  0  0
  -21.1960   -6.0190   24.8940 C   0  0  0  0  0  3  0  0  0  0  0  0
  -21.5090   -4.6480   24.8720 C   0  0  0  0  0  0  0  0  0  0  0  0
  -21.9880   -4.0530   23.6900 C   0  0  0  0  0  3  0  0  0  0  0  0
  -22.1510   -4.8290   22.5300 C   0  0  0  0  0  0  0  0  0  0  0  0
  -22.5910   -4.2460   21.3880 F   0  0  0  0  0  0  0  0  0  0  0  0
  -21.3490   -3.8970   25.9860 F   0  0  0  0  0  0  0  0  0  0  0  0
  -23.1750  -13.5340   21.5220 C   0  0  0  0  0  0  0  0  0  0  0  0
  -22.5830  -12.7910   22.4500 N   0  0  0  0  0  0  0  0  0  0  0  0
  -22.6820  -14.5960   21.1500 O   0  0  0  0  0  0  0  0  0  0  0  0
  -22.9940  -11.9290   22.7750 H   0  0  0  0  0  0  0  0  0  0  0  0
  -21.7000  -13.0920   22.8370 H   0  0  0  0  0  0  0  0  0  0  0  0
  -25.6760  -15.2320   20.4610 N   0  0  0  0  0  0  0  0  0  0  0  0
  -24.9320  -15.8630   20.7390 H   0  0  0  0  0  0  0  0  0  0  0  0
  -26.4740  -15.7050   20.0630 H   0  0  0  0  0  0  0  0  0  0  0  0
  -30.3440  -15.9220   22.5670 C   0  0  0  0  0  1  0  0  0  0  0  0
  -29.4260  -16.1470   21.3490 C   0  0  0  0  0  2  0  0  0  0  0  0
  1  2  2  0
  2  8  1  0
  2  6  1  0
  3 52  1  0
  3  6  1  0
  4  5  1  0
  5  1  1  0
  5  3  1  0
  6  7  1  0
  8  9  1  0
 10 11  1  0
 10  9  1  0
 12 23  2  0
 13 11  1  0
 13 18  1  0
 14 22  1  0
 14 24  1  0
 15 21  1  0
 15 17  1  0
 16 22  1  0
 17 16  1  0
 18 17  2  0
 19 13  2  0
 20 19  1  0
 20 15  2  0
 21 14  1  0
 22 12  1  0
 24 26  2  0
 25 24  1  0
 27 25  1  0
 28 37  2  0
 28 33  1  0
 29 25  1  0
 29 33  1  0
 30 29  1  0
 31 32  1  0
 31 30  1  0
 32 28  1  0
 33 34  2  0
 34 35  1  0
 36 35  2  0
 37 36  1  0
 38 12  1  0
 38 39  1  0
 38 48  1  0
 39 42  1  0
 40 44  1  0
 40 39  1  0
 41 40  2  0
 44 43  1  0
 46 44  1  0
 46 47  1  0
 46 45  1  0
 48 51  1  1
 48 49  1  0
 50 48  1  0
 52 61  1  0
 53 61  1  0
 54 59  1  0
 55 56  1  0
 55 54  1  0
 57 56  1  0
 57 65  1  0
 57 58  1  0
 59 53  1  0
 59 58  1  0
 60 53  2  0
 61 91  1  0
 62 63  2  0
 63 82  1  0
 64 67  1  0
 64 63  1  0
 65 66  1  0
 65 62  1  0
 66 64  2  0
 67 68  1  0
 68 69  2  0
 70 73  1  0
 70 69  1  0
 71 70  2  0
 72 71  1  0
 72 67  2  0
 73 74  1  0
 74 75  1  0
 75 76  2  0
 77 76  1  0
 77 81  1  0
 78 77  2  0
 79 74  2  0
 79 78  1  0
 80 79  1  0
 82 83  1  0
 83 85  1  0
 83 86  1  0
 84 82  2  0
 87 62  1  0
 87 88  1  0
 89 87  1  0
 91 90  1  0
M  ISO  4  10 101  11 101  53 100  61 100
M  END
>  <TORSDO>  (91) 
F 21

>  <SCORE>  (91) 
-11.457

>  <name>  (91) 
93

>  <ligand_id>  (91) 
93

>  <original_smiles>  (91) 
[H]c1c([H])c([H])c2c(c1[H])C([H])([H])C([H])([H])C([H])([H])C2([H])N([H])C(=O)C1([H])N(C(=O)C([H])(N([H])C(=O)C([H])(N([H])C([H])([H])[H])C([H])([H])[H])C(C([H])([H])[H])(C([H])([H])[H])C([H])([H])[H])C([H])([H])c2c([H])c(OC([H])([H])C([H])([H])C([H])([H])c3c([H])n(C([H])([H])[H])c(C([H])([H])N(C(=O)N4C([H])([H])C([H])([H])C([H])([H])C([H])(n5nc(-c6c([H])c([H])c(Oc7c([H])c([H])c(F)c([H])c7F)c([H])c6[H])c(C(=O)N([H])[H])c5N([H])[H])C4([H])[H])C([H])([H])C([H])([H])[H])[n+]3[H])c([H])c([H])c2C1([H])[H]

>  <smiles>  (91) 
[H]c1c([H])c([H])c2c(c1[H])C([H])([H])C([H])([H])C([H])([H])C2([H])N([H])C(=O)C1([H])N(C(=O)C([H])(N([H])C(=O)C([H])(N([H])C([H])([H])[H])C([H])([H])[H])C(C([H])([H])[H])(C([H])([H])[H])C([H])([H])[H])C([H])([H])c2c([H])c(OC([H])([H])C([H])([H])C([H])([H])c3c([H])n(C([H])([H])[H])c(C([H])([H])N(C(=O)N4C([H])([H])C([H])([H])C([H])([H])C([H])(n5nc(-c6c([H])c([H])c(Oc7c([H])c([H])c(F)c([H])c7F)c([H])c6[H])c(C(=O)N([H])[H])c5N([H])[H])C4([H])[H])C([H])([H])C([H])([H])[H])[n+]3[H])c([H])c([H])c2C1([H])[H]

$$$$
94:0:0
     RDKit          3D

 98107  0  0  1  0  0  0  0  0999 V2000
  -28.7580  -20.4470   19.3190 C   0  0  0  0  0  2  0  0  0  0  0  0
  -29.1320  -22.9450   19.5400 C   0  0  0  0  0  3  0  0  0  0  0  0
  -28.3580  -24.0760   19.5710 C   0  0  0  0  0  0  0  0  0  0  0  0
  -27.0170  -22.2630   19.2750 C   0  0  0  0  0  3  0  0  0  0  0  0
  -25.7540  -21.4720   19.0170 C   0  0  0  0  0  1  0  0  0  0  0  0
  -28.2990  -21.8560   19.3660 N   0  0  0  0  0  0  0  0  0  0  0  0
  -27.0540  -23.5960   19.4100 N   0  0  0  0  0  0  0  0  0  0  0  0
  -26.2210  -24.1810   19.3490 H   0  0  0  0  0  0  0  0  0  0  0  0
  -28.7590  -25.5610   19.4810 C   0  0  0  0  0  2  0  0  0  0  0  0
  -28.7250  -26.7000   20.4150 O   0  0  0  0  0  0  0  0  0  0  0  0
  -24.6530  -31.8540   23.3550 C   0  0  0  0  0  0  0  0  0  0  0  0
  -27.5860  -27.5340   20.3310 C   0  0  0  0  0  0  0  0  0  0  0  0
  -23.5910  -30.4570   21.6220 C   0  0  0  0  0  3  0  0  0  0  0  0
  -25.1630  -29.0170   20.2520 C   0  0  0  0  0  0  0  0  0  0  0  0
  -26.1200  -30.8780   21.5880 C   0  0  0  0  0  2  0  0  0  0  0  0
  -26.2830  -29.5240   20.9310 C   0  0  0  0  0  0  0  0  0  0  0  0
  -27.4980  -28.7890   20.9850 C   0  0  0  0  0  3  0  0  0  0  0  0
  -26.4280  -27.0860   19.6300 C   0  0  0  0  0  3  0  0  0  0  0  0
  -25.2350  -27.7900   19.5980 C   0  0  0  0  0  3  0  0  0  0  0  0
  -23.9070  -29.8450   20.2380 C   0  0  0  0  0  2  0  0  0  0  0  0
  -24.8050  -31.0780   22.2480 N   0  0  0  0  0  0  0  0  0  0  0  0
  -23.5290  -32.0740   23.8360 O   0  0  0  0  0  0  0  0  0  0  0  0
  -22.9210  -29.3820   22.5080 C   0  0  0  0  0  0  0  0  0  0  0  0
  -21.6030  -29.1900   22.3250 N   0  0  0  0  0  0  0  0  0  0  0  0
  -23.5830  -28.7240   23.3160 O   0  0  0  0  0  0  0  0  0  0  0  0
  -21.1390  -29.7770   21.6440 H   0  0  0  0  0  0  0  0  0  0  0  0
  -18.2060  -28.0220   22.7050 C   0  0  0  0  0  0  0  0  0  0  0  0
  -20.7610  -28.2240   23.0240 C   0  0  0  0  0  3  0  0  0  0  0  0
  -20.8550  -26.8280   22.3690 C   0  0  0  0  0  2  0  0  0  0  0  0
  -19.7640  -26.5840   21.3220 C   0  0  0  0  0  2  0  0  0  0  0  0
  -18.3730  -26.7090   21.9540 C   0  0  0  0  0  2  0  0  0  0  0  0
  -19.3280  -28.7380   23.1900 C   0  0  0  0  0  0  0  0  0  0  0  0
  -19.1210  -29.9690   23.8490 C   0  0  0  0  0  3  0  0  0  0  0  0
  -17.8220  -30.4800   24.0320 C   0  0  0  0  0  3  0  0  0  0  0  0
  -16.7120  -29.7580   23.5590 C   0  0  0  0  0  3  0  0  0  0  0  0
  -16.9030  -28.5310   22.8940 C   0  0  0  0  0  3  0  0  0  0  0  0
  -25.8780  -32.5030   24.0700 C   0  0  0  0  0  3  0  0  0  0  0  0
  -26.2860  -31.7570   25.3980 C   0  0  1  0  0  0  0  0  0  0  0  0
  -25.1120  -31.5250   26.3750 C   0  0  0  0  0  1  0  0  0  0  0  0
  -26.9100  -30.3810   25.0740 C   0  0  0  0  0  1  0  0  0  0  0  0
  -27.3740  -32.5700   26.1370 C   0  0  0  0  0  1  0  0  0  0  0  0
  -25.5390  -33.9060   24.3320 N   0  0  0  0  0  0  0  0  0  0  0  0
  -25.9160  -34.9350   23.5590 C   0  0  0  0  0  0  0  0  0  0  0  0
  -26.6640  -34.8050   22.5880 O   0  0  0  0  0  0  0  0  0  0  0  0
  -24.8920  -34.0870   25.0850 H   0  0  0  0  0  0  0  0  0  0  0  0
  -24.1940  -36.6870   23.0090 C   0  0  0  0  0  1  0  0  0  0  0  0
  -25.3760  -36.3340   23.9260 C   0  0  0  0  0  3  0  0  0  0  0  0
  -27.4340  -37.2740   24.8780 C   0  0  0  0  0  1  0  0  0  0  0  0
  -26.4010  -37.3980   23.8510 N   0  0  0  0  0  0  0  0  0  0  0  0
  -25.9780  -38.3160   23.9440 H   0  0  0  0  0  0  0  0  0  0  0  0
  -27.4490  -19.2520   17.4490 C   0  0  0  0  0  1  0  0  0  0  0  0
  -29.3430  -20.7400   16.8380 C   0  0  0  0  0  1  0  0  0  0  0  0
  -28.8290  -19.7460   17.9190 C   0  0  1  0  0  0  0  0  0  0  0  0
  -31.0770  -14.9780   20.9410 C   0  0  0  0  0  0  0  0  0  0  0  0
  -30.9390  -12.7020   20.0760 C   0  0  0  0  0  2  0  0  0  0  0  0
  -30.1380  -12.7700   18.7610 C   0  0  0  0  0  2  0  0  0  0  0  0
  -28.6080  -12.7080   19.0120 C   0  0  0  0  0  2  0  0  0  0  0  0
  -28.1170  -13.6280   20.1590 C   0  0  0  0  0  3  0  0  0  0  0  0
  -29.0570  -13.5300   21.3820 C   0  0  0  0  0  2  0  0  0  0  0  0
  -30.4290  -13.7830   20.9220 N   0  0  0  0  0  0  0  0  0  0  0  0
  -32.3090  -15.0660   20.9240 O   0  0  0  0  0  0  0  0  0  0  0  0
  -30.7570  -18.2160   17.1290 C   0  0  0  0  0  3  0  0  0  0  0  0
  -31.5360  -17.0940   17.3890 C   0  0  0  0  0  0  0  0  0  0  0  0
  -29.7420  -18.5080   18.0510 C   0  0  0  0  0  0  0  0  0  0  0  0
  -30.3820  -16.6830   19.3420 C   0  0  0  0  0  0  0  0  0  0  0  0
  -32.7280  -16.7560   16.5300 C   0  0  0  0  0  1  0  0  0  0  0  0
  -29.6570  -16.7590   21.6980 C   0  0  0  0  0  1  0  0  0  0  0  0
  -31.3250  -16.3270   18.4710 N   0  0  0  0  0  0  0  0  0  0  0  0
  -29.5580  -17.7170   19.1330 N   0  0  0  0  0  0  0  0  0  0  0  0
  -30.3150  -16.0510   20.5970 N   0  0  0  0  0  0  0  0  0  0  0  0
  -25.6550  -14.2460   20.6210 C   0  0  0  0  0  0  0  0  0  0  0  0
  -24.5480  -13.4790   20.8800 C   0  0  0  0  0  0  0  0  0  0  0  0
  -25.0050  -12.1240   20.9090 C   0  0  0  0  0  0  0  0  0  0  0  0
  -26.7170  -13.3600   20.5050 N   0  0  0  0  0  0  0  0  0  0  0  0
  -26.3230  -12.0790   20.7350 N   0  0  0  0  0  0  0  0  0  0  0  0
  -24.2540  -10.8650   21.0200 C   0  0  0  0  0  0  0  0  0  0  0  0
  -24.5950   -9.8850   21.9790 C   0  0  0  0  0  3  0  0  0  0  0  0
  -23.8480   -8.6910   22.0800 C   0  0  0  0  0  3  0  0  0  0  0  0
  -22.7410   -8.4680   21.2270 C   0  0  0  0  0  0  0  0  0  0  0  0
  -22.4230   -9.4370   20.2620 C   0  0  0  0  0  3  0  0  0  0  0  0
  -23.1710  -10.6200   20.1540 C   0  0  0  0  0  3  0  0  0  0  0  0
  -21.9730   -7.3300   21.2380 O   0  0  0  0  0  0  0  0  0  0  0  0
  -21.8080   -6.5880   22.3820 C   0  0  0  0  0  0  0  0  0  0  0  0
  -21.2630   -7.1420   23.5580 C   0  0  0  0  0  3  0  0  0  0  0  0
  -21.0430   -6.3270   24.6850 C   0  0  0  0  0  3  0  0  0  0  0  0
  -21.3560   -4.9540   24.6390 C   0  0  0  0  0  0  0  0  0  0  0  0
  -21.8890   -4.3960   23.4640 C   0  0  0  0  0  3  0  0  0  0  0  0
  -22.1110   -5.2110   22.3380 C   0  0  0  0  0  0  0  0  0  0  0  0
  -22.6060   -4.6610   21.2030 F   0  0  0  0  0  0  0  0  0  0  0  0
  -21.1410   -4.1700   25.7220 F   0  0  0  0  0  0  0  0  0  0  0  0
  -23.1270  -13.9620   20.9970 C   0  0  0  0  0  0  0  0  0  0  0  0
  -22.3050  -13.2880   21.7980 N   0  0  0  0  0  0  0  0  0  0  0  0
  -22.7500  -14.9740   20.4100 O   0  0  0  0  0  0  0  0  0  0  0  0
  -22.6070  -12.4700   22.3120 H   0  0  0  0  0  0  0  0  0  0  0  0
  -21.3520  -13.6050   21.9050 H   0  0  0  0  0  0  0  0  0  0  0  0
  -25.8500  -15.6150   20.4500 N   0  0  0  0  0  0  0  0  0  0  0  0
  -25.0960  -16.2910   20.4860 H   0  0  0  0  0  0  0  0  0  0  0  0
  -26.7410  -16.0480   20.2480 H   0  0  0  0  0  0  0  0  0  0  0  0
  1  6  1  0
  2  3  2  0
  4  5  1  0
  4  6  1  0
  4  7  1  0
  6  2  1  0
  7  3  1  0
  8  7  1  0
  9  3  1  0
  9 10  1  0
 11 22  2  0
 12 10  1  0
 12 17  1  0
 13 21  1  0
 13 23  1  0
 14 16  1  0
 15 21  1  0
 16 17  2  0
 16 15  1  0
 18 12  2  0
 19 18  1  0
 19 14  2  0
 20 14  1  0
 20 13  1  0
 21 11  1  0
 23 25  2  0
 24 23  1  0
 26 24  1  0
 27 36  2  0
 27 32  1  0
 28 24  1  0
 28 32  1  0
 29 28  1  0
 30 31  1  0
 30 29  1  0
 31 27  1  0
 32 33  2  0
 33 34  1  0
 35 34  2  0
 36 35  1  0
 37 11  1  0
 37 42  1  0
 37 38  1  0
 38 41  1  1
 38 39  1  0
 40 38  1  0
 42 45  1  0
 43 47  1  0
 43 42  1  0
 44 43  2  0
 47 46  1  0
 49 47  1  0
 49 50  1  0
 49 48  1  0
 53 51  1  6
 52 53  1  0
 53 64  1  0
 53  1  1  0
 55 60  1  0
 56 57  1  0
 56 55  1  0
 58 57  1  0
 58 74  1  0
 58 59  1  0
 60 54  1  0
 60 59  1  0
 61 54  2  0
 62 63  2  0
 62 64  1  0
 63 68  1  0
 64 69  2  0
 65 70  1  0
 66 63  1  0
 68 65  2  0
 69 65  1  0
 70 54  1  0
 70 67  1  0
 71 72  2  0
 72 73  1  0
 72 91  1  0
 73 76  1  0
 74 71  1  0
 74 75  1  0
 75 73  2  0
 76 77  1  0
 77 78  2  0
 79 82  1  0
 79 78  1  0
 80 79  2  0
 81 80  1  0
 81 76  2  0
 82 83  1  0
 83 84  1  0
 84 85  2  0
 86 85  1  0
 86 90  1  0
 87 86  2  0
 88 83  2  0
 88 87  1  0
 89 88  1  0
 91 92  1  0
 92 95  1  0
 92 94  1  0
 93 91  2  0
 96 97  1  0
 96 71  1  0
 98 96  1  0
M  ISO  4   9 101  10 101  54 100  70 100
M  END
>  <TORSDO>  (92) 
F 19

>  <SCORE>  (92) 
-13.609

>  <name>  (92) 
94

>  <ligand_id>  (92) 
94

>  <original_smiles>  (92) 
[H]c1c(C([H])([H])[H])nc(N(C(=O)N2C([H])([H])C([H])([H])C([H])([H])C([H])(n3nc(-c4c([H])c([H])c(Oc5c([H])c([H])c(F)c([H])c5F)c([H])c4[H])c(C(=O)N([H])[H])c3N([H])[H])C2([H])[H])C([H])([H])[H])nc1C(C([H])([H])[H])(C([H])([H])[H])C([H])([H])n1c([H])c(C([H])([H])Oc2c([H])c([H])c3c(c2[H])C([H])([H])N(C(=O)C([H])(N([H])C(=O)C([H])(N([H])C([H])([H])[H])C([H])([H])[H])C(C([H])([H])[H])(C([H])([H])[H])C([H])([H])[H])C([H])(C(=O)N([H])C2([H])c4c([H])c([H])c([H])c([H])c4C([H])([H])C([H])([H])C2([H])[H])C3([H])[H])[n+]([H])c1C([H])([H])[H]

>  <smiles>  (92) 
[H]c1c(C([H])([H])[H])nc(N(C(=O)N2C([H])([H])C([H])([H])C([H])([H])C([H])(n3nc(-c4c([H])c([H])c(Oc5c([H])c([H])c(F)c([H])c5F)c([H])c4[H])c(C(=O)N([H])[H])c3N([H])[H])C2([H])[H])C([H])([H])[H])nc1C(C([H])([H])[H])(C([H])([H])[H])C([H])([H])n1c([H])c(C([H])([H])Oc2c([H])c([H])c3c(c2[H])C([H])([H])N(C(=O)C([H])(N([H])C(=O)C([H])(N([H])C([H])([H])[H])C([H])([H])[H])C(C([H])([H])[H])(C([H])([H])[H])C([H])([H])[H])C([H])(C(=O)N([H])C2([H])c4c([H])c([H])c([H])c([H])c4C([H])([H])C([H])([H])C2([H])[H])C3([H])[H])[n+]([H])c1C([H])([H])[H]

$$$$
95:0:0
     RDKit          3D

 98106  0  0  1  0  0  0  0  0999 V2000
  -30.2490  -22.2980   17.7250 C   0  0  0  0  0  2  0  0  0  0  0  0
  -30.3780  -21.0760   16.7970 C   0  0  0  0  0  2  0  0  0  0  0  0
  -28.8390  -18.1670   18.0510 C   0  0  0  0  0  3  0  0  0  0  0  0
  -30.9130  -18.8120   17.7910 C   0  0  0  0  0  3  0  0  0  0  0  0
  -30.1870  -17.7240   18.1930 C   0  0  0  0  0  0  0  0  0  0  0  0
  -28.7560  -19.4190   17.5990 N   0  0  0  0  0  0  0  0  0  0  0  0
  -30.0390  -19.8040   17.4180 N   0  0  0  0  0  0  0  0  0  0  0  0
  -30.8250  -16.3990   18.5600 C   0  0  0  0  0  2  0  0  0  0  0  0
  -30.8220  -14.2240   19.5720 C   0  0  0  0  0  0  0  0  0  0  0  0
  -30.1890  -12.1860   18.3710 C   0  0  0  0  0  2  0  0  0  0  0  0
  -29.1250  -12.5440   17.3190 C   0  0  0  0  0  2  0  0  0  0  0  0
  -27.7110  -12.4810   17.9320 C   0  0  0  0  0  2  0  0  0  0  0  0
  -27.5980  -13.2220   19.2930 C   0  0  0  0  0  3  0  0  0  0  0  0
  -28.7740  -12.8390   20.2170 C   0  0  0  0  0  2  0  0  0  0  0  0
  -30.0100  -13.1360   19.4810 N   0  0  0  0  0  0  0  0  0  0  0  0
  -31.9880  -14.1600   19.1750 O   0  0  0  0  0  0  0  0  0  0  0  0
  -30.2190  -15.4510   19.5370 N   0  0  0  0  0  0  0  0  0  0  0  0
  -25.3270  -13.9010   20.2920 C   0  0  0  0  0  0  0  0  0  0  0  0
  -24.2780  -13.1600   20.7660 C   0  0  0  0  0  0  0  0  0  0  0  0
  -24.6780  -11.7940   20.6540 C   0  0  0  0  0  0  0  0  0  0  0  0
  -26.3020  -12.9860   19.9260 N   0  0  0  0  0  0  0  0  0  0  0  0
  -25.9220  -11.7130   20.2010 N   0  0  0  0  0  0  0  0  0  0  0  0
  -23.9290  -10.5540   20.9020 C   0  0  0  0  0  0  0  0  0  0  0  0
  -24.4170   -9.5590   21.7760 C   0  0  0  0  0  3  0  0  0  0  0  0
  -23.6690   -8.3850   22.0120 C   0  0  0  0  0  3  0  0  0  0  0  0
  -22.4190   -8.2000   21.3760 C   0  0  0  0  0  0  0  0  0  0  0  0
  -21.9490   -9.1830   20.4880 C   0  0  0  0  0  3  0  0  0  0  0  0
  -22.6970  -10.3490   20.2510 C   0  0  0  0  0  3  0  0  0  0  0  0
  -21.6330   -7.0840   21.5270 O   0  0  0  0  0  0  0  0  0  0  0  0
  -21.6670   -6.3310   22.6730 C   0  0  0  0  0  0  0  0  0  0  0  0
  -21.3960   -6.8900   23.9390 C   0  0  0  0  0  3  0  0  0  0  0  0
  -21.3740   -6.0660   25.0810 C   0  0  0  0  0  3  0  0  0  0  0  0
  -21.6120   -4.6840   24.9590 C   0  0  0  0  0  0  0  0  0  0  0  0
  -21.8730   -4.1250   23.6960 C   0  0  0  0  0  3  0  0  0  0  0  0
  -21.8970   -4.9460   22.5560 C   0  0  0  0  0  0  0  0  0  0  0  0
  -22.1300   -4.3990   21.3380 F   0  0  0  0  0  0  0  0  0  0  0  0
  -21.5800   -3.8900   26.0550 F   0  0  0  0  0  0  0  0  0  0  0  0
  -22.9400  -13.6810   21.2070 C   0  0  0  0  0  0  0  0  0  0  0  0
  -22.2970  -12.9980   22.1480 N   0  0  0  0  0  0  0  0  0  0  0  0
  -22.4810  -14.7270   20.7530 O   0  0  0  0  0  0  0  0  0  0  0  0
  -22.6810  -12.1500   22.5390 H   0  0  0  0  0  0  0  0  0  0  0  0
  -21.4040  -13.3290   22.4850 H   0  0  0  0  0  0  0  0  0  0  0  0
  -25.5270  -15.2680   20.1220 N   0  0  0  0  0  0  0  0  0  0  0  0
  -24.8110  -15.9540   20.3380 H   0  0  0  0  0  0  0  0  0  0  0  0
  -26.3600  -15.6740   19.7180 H   0  0  0  0  0  0  0  0  0  0  0  0
  -29.5110  -16.0390   20.6890 C   0  0  0  0  0  2  0  0  0  0  0  0
  -31.4840  -15.9310   22.3710 C   0  0  0  0  0  1  0  0  0  0  0  0
  -29.5430  -17.4950   22.7440 C   0  0  0  0  0  1  0  0  0  0  0  0
  -30.4170  -16.8050   21.6840 C   0  0  0  0  0  3  0  0  0  0  0  0
  -28.7980  -22.8040   17.8730 C   0  0  0  0  0  2  0  0  0  0  0  0
  -28.6760  -24.2040   18.3820 N   0  0  2  0  0  4  0  0  0  0  0  0
  -27.6800  -24.3450   18.4710 H   0  0  0  0  0  0  0  0  0  0  0  0
  -29.1380  -25.2580   17.4310 C   0  0  0  0  0  2  0  0  0  0  0  0
  -28.6540  -26.5840   15.2950 C   0  0  0  0  0  1  0  0  0  0  0  0
  -28.2060  -25.4420   16.2180 C   0  0  0  0  0  2  0  0  0  0  0  0
  -29.2170  -24.3830   19.7590 C   0  0  0  0  0  2  0  0  0  0  0  0
  -28.3450  -25.3130   20.6250 C   0  0  0  0  0  2  0  0  0  0  0  0
  -28.4140  -26.6640   20.1640 O   0  0  0  0  0  0  0  0  0  0  0  0
  -24.5360  -31.7940   23.1740 C   0  0  0  0  0  0  0  0  0  0  0  0
  -27.2310  -27.3620   20.1530 C   0  0  0  0  0  0  0  0  0  0  0  0
  -23.3550  -30.3910   21.5130 C   0  0  0  0  0  3  0  0  0  0  0  0
  -24.8310  -28.8500   20.1210 C   0  0  0  0  0  0  0  0  0  0  0  0
  -25.8820  -30.7550   21.3550 C   0  0  0  0  0  2  0  0  0  0  0  0
  -25.9780  -29.3840   20.7220 C   0  0  0  0  0  0  0  0  0  0  0  0
  -27.1820  -28.6480   20.7310 C   0  0  0  0  0  3  0  0  0  0  0  0
  -26.0690  -26.8380   19.5430 C   0  0  0  0  0  3  0  0  0  0  0  0
  -24.8700  -27.5760   19.5290 C   0  0  0  0  0  3  0  0  0  0  0  0
  -23.5860  -29.7040   20.1410 C   0  0  0  0  0  2  0  0  0  0  0  0
  -24.6080  -30.9940   22.0730 N   0  0  0  0  0  0  0  0  0  0  0  0
  -23.4460  -32.0680   23.6970 O   0  0  0  0  0  0  0  0  0  0  0  0
  -22.6870  -29.3720   22.4650 C   0  0  0  0  0  0  0  0  0  0  0  0
  -21.3600  -29.2190   22.3380 N   0  0  0  0  0  0  0  0  0  0  0  0
  -23.3600  -28.7240   23.2720 O   0  0  0  0  0  0  0  0  0  0  0  0
  -20.8810  -29.7930   21.6580 H   0  0  0  0  0  0  0  0  0  0  0  0
  -17.9580  -28.1220   22.8540 C   0  0  0  0  0  0  0  0  0  0  0  0
  -20.5260  -28.2900   23.0970 C   0  0  0  0  0  3  0  0  0  0  0  0
  -20.5740  -26.8700   22.4870 C   0  0  0  0  0  2  0  0  0  0  0  0
  -19.4490  -26.6070   21.4810 C   0  0  0  0  0  2  0  0  0  0  0  0
  -18.0810  -26.7830   22.1460 C   0  0  0  0  0  2  0  0  0  0  0  0
  -19.1060  -28.8380   23.2850 C   0  0  0  0  0  0  0  0  0  0  0  0
  -18.9370  -30.0950   23.9040 C   0  0  0  0  0  3  0  0  0  0  0  0
  -17.6520  -30.6350   24.0980 C   0  0  0  0  0  3  0  0  0  0  0  0
  -16.5180  -29.9160   23.6830 C   0  0  0  0  0  3  0  0  0  0  0  0
  -16.6720  -28.6610   23.0670 C   0  0  0  0  0  3  0  0  0  0  0  0
  -25.8130  -32.4220   23.8160 C   0  0  0  0  0  3  0  0  0  0  0  0
  -25.5000  -33.8180   24.1510 N   0  0  0  0  0  0  0  0  0  0  0  0
  -25.8370  -34.8730   23.3970 C   0  0  0  0  0  0  0  0  0  0  0  0
  -26.5170  -34.7740   22.3720 O   0  0  0  0  0  0  0  0  0  0  0  0
  -24.8950  -33.9670   24.9450 H   0  0  0  0  0  0  0  0  0  0  0  0
  -24.1030  -36.6580   23.0320 C   0  0  0  0  0  1  0  0  0  0  0  0
  -25.3390  -36.2570   23.8530 C   0  0  0  0  0  3  0  0  0  0  0  0
  -27.4650  -37.1440   24.7020 C   0  0  0  0  0  1  0  0  0  0  0  0
  -26.3680  -37.3150   23.7540 N   0  0  0  0  0  0  0  0  0  0  0  0
  -25.9570  -38.2320   23.9070 H   0  0  0  0  0  0  0  0  0  0  0  0
  -26.3170  -31.6420   25.0920 C   0  0  1  0  0  0  0  0  0  0  0  0
  -25.2120  -31.3940   26.1450 C   0  0  0  0  0  1  0  0  0  0  0  0
  -26.9070  -30.2690   24.6930 C   0  0  0  0  0  1  0  0  0  0  0  0
  -27.4570  -32.4330   25.7740 C   0  0  0  0  0  1  0  0  0  0  0  0
  1 50  1  0
  2  7  1  0
  2  1  1  0
  3  5  1  0
  4  5  2  0
  5  8  1  0
  6  3  2  0
  7  6  1  0
  7  4  1  0
  8 17  1  0
 10 15  1  0
 11 12  1  0
 11 10  1  0
 13 12  1  0
 13 21  1  0
 13 14  1  0
 15  9  1  0
 15 14  1  0
 16  9  2  0
 17  9  1  0
 17 46  1  0
 18 19  2  0
 19 38  1  0
 20 19  1  0
 20 23  1  0
 21 22  1  0
 21 18  1  0
 22 20  2  0
 23 24  1  0
 24 25  2  0
 26 29  1  0
 26 25  1  0
 27 26  2  0
 28 27  1  0
 28 23  2  0
 29 30  1  0
 30 31  1  0
 31 32  2  0
 33 32  1  0
 33 37  1  0
 34 33  2  0
 35 30  2  0
 35 34  1  0
 36 35  1  0
 38 39  1  0
 39 42  1  0
 39 41  1  0
 40 38  2  0
 43 18  1  0
 43 44  1  0
 45 43  1  0
 46 49  1  0
 49 47  1  0
 49 48  1  0
 50 51  1  0
 51 52  1  1
 51 56  1  0
 53 51  1  0
 54 55  1  0
 55 53  1  0
 56 57  1  0
 58 57  1  0
 59 70  2  0
 60 58  1  0
 60 65  1  0
 61 69  1  0
 61 71  1  0
 62 68  1  0
 62 64  1  0
 63 69  1  0
 64 65  2  0
 64 63  1  0
 66 60  2  0
 67 66  1  0
 67 62  2  0
 68 61  1  0
 69 59  1  0
 71 73  2  0
 72 71  1  0
 74 72  1  0
 75 84  2  0
 75 80  1  0
 76 72  1  0
 76 80  1  0
 77 76  1  0
 78 79  1  0
 78 77  1  0
 79 75  1  0
 80 81  2  0
 81 82  1  0
 83 82  2  0
 84 83  1  0
 85 59  1  0
 85 86  1  0
 85 95  1  0
 86 89  1  0
 87 91  1  0
 87 86  1  0
 88 87  2  0
 91 90  1  0
 93 91  1  0
 93 94  1  0
 93 92  1  0
 95 98  1  1
 95 96  1  0
 97 95  1  0
M  ISO  4   9 100  17 100  57 101  58 101
M  END
>  <TORSDO>  (93) 
F 27

>  <SCORE>  (93) 
-9.053

>  <name>  (93) 
95

>  <ligand_id>  (93) 
95

>  <original_smiles>  (93) 
[H]c1nn(C([H])([H])C([H])([H])C([H])([H])[N+]([H])(C([H])([H])C([H])([H])Oc2c([H])c([H])c3c(c2[H])C([H])([H])N(C(=O)C([H])(N([H])C(=O)C([H])(N([H])C([H])([H])[H])C([H])([H])[H])C(C([H])([H])[H])(C([H])([H])[H])C([H])([H])[H])C([H])(C(=O)N([H])C2([H])c4c([H])c([H])c([H])c([H])c4C([H])([H])C([H])([H])C2([H])[H])C3([H])[H])C([H])([H])C([H])([H])C([H])([H])[H])c([H])c1C([H])([H])N(C(=O)N1C([H])([H])C([H])([H])C([H])([H])C([H])(n2nc(-c3c([H])c([H])c(Oc4c([H])c([H])c(F)c([H])c4F)c([H])c3[H])c(C(=O)N([H])[H])c2N([H])[H])C1([H])[H])C([H])([H])C([H])(C([H])([H])[H])C([H])([H])[H]

>  <smiles>  (93) 
[H]c1nn(C([H])([H])C([H])([H])C([H])([H])[N+]([H])(C([H])([H])C([H])([H])Oc2c([H])c([H])c3c(c2[H])C([H])([H])N(C(=O)C([H])(N([H])C(=O)C([H])(N([H])C([H])([H])[H])C([H])([H])[H])C(C([H])([H])[H])(C([H])([H])[H])C([H])([H])[H])C([H])(C(=O)N([H])C2([H])c4c([H])c([H])c([H])c([H])c4C([H])([H])C([H])([H])C2([H])[H])C3([H])[H])C([H])([H])C([H])([H])C([H])([H])[H])c([H])c1C([H])([H])N(C(=O)N1C([H])([H])C([H])([H])C([H])([H])C([H])(n2nc(-c3c([H])c([H])c(Oc4c([H])c([H])c(F)c([H])c4F)c([H])c3[H])c(C(=O)N([H])[H])c2N([H])[H])C1([H])[H])C([H])([H])C([H])(C([H])([H])[H])C([H])([H])[H]

$$$$
96:0:0
     RDKit          3D

 87 95  0  0  1  0  0  0  0  0999 V2000
  -31.3020  -22.6350   20.0390 C   0  0  0  0  0  3  0  0  0  0  0  0
  -29.2040  -22.9760   20.1420 C   0  0  0  0  0  0  0  0  0  0  0  0
  -30.3730  -23.6210   20.0740 N   0  0  0  0  0  0  0  0  0  0  0  0
  -30.8550  -21.3900   20.0810 N   0  0  0  0  0  0  0  0  0  0  0  0
  -29.5000  -21.4750   20.1500 N   0  0  0  0  0  0  0  0  0  0  0  0
  -27.9630  -24.1930   20.1650 C   0  0  0  0  0  2  0  0  0  0  0  0
  -28.2280  -25.8400   20.2040 O   0  0  0  0  0  0  0  0  0  0  0  0
  -24.6830  -31.8420   23.2070 C   0  0  0  0  0  0  0  0  0  0  0  0
  -27.2160  -26.9470   20.1680 C   0  0  0  0  0  0  0  0  0  0  0  0
  -23.4800  -30.4570   21.5670 C   0  0  0  0  0  3  0  0  0  0  0  0
  -24.9200  -28.8470   20.1370 C   0  0  0  0  0  0  0  0  0  0  0  0
  -26.0480  -30.6540   21.4150 C   0  0  0  0  0  2  0  0  0  0  0  0
  -26.1130  -29.2430   20.7540 C   0  0  0  0  0  0  0  0  0  0  0  0
  -27.2540  -28.3170   20.7420 C   0  0  0  0  0  3  0  0  0  0  0  0
  -25.9890  -26.7080   19.5060 C   0  0  0  0  0  3  0  0  0  0  0  0
  -24.8850  -27.6010   19.4920 C   0  0  0  0  0  3  0  0  0  0  0  0
  -23.7050  -29.7760   20.1880 C   0  0  0  0  0  2  0  0  0  0  0  0
  -24.7590  -31.0110   22.1170 N   0  0  0  0  0  0  0  0  0  0  0  0
  -23.5960  -32.1340   23.7310 O   0  0  0  0  0  0  0  0  0  0  0  0
  -22.7820  -29.4620   22.5320 C   0  0  0  0  0  0  0  0  0  0  0  0
  -21.4520  -29.3000   22.4060 N   0  0  0  0  0  0  0  0  0  0  0  0
  -23.4460  -28.8350   23.3600 O   0  0  0  0  0  0  0  0  0  0  0  0
  -20.9700  -29.8570   21.7150 H   0  0  0  0  0  0  0  0  0  0  0  0
  -18.0680  -28.0890   22.9120 C   0  0  0  0  0  0  0  0  0  0  0  0
  -20.6280  -28.3620   23.1770 C   0  0  0  0  0  3  0  0  0  0  0  0
  -20.7320  -26.9300   22.6020 C   0  0  0  0  0  2  0  0  0  0  0  0
  -19.6310  -26.6050   21.5870 C   0  0  0  0  0  2  0  0  0  0  0  0
  -18.2500  -26.7420   22.2310 C   0  0  0  0  0  2  0  0  0  0  0  0
  -19.1850  -28.8560   23.3420 C   0  0  0  0  0  0  0  0  0  0  0  0
  -18.9590  -30.1120   23.9420 C   0  0  0  0  0  3  0  0  0  0  0  0
  -17.6510  -30.6050   24.1150 C   0  0  0  0  0  3  0  0  0  0  0  0
  -16.5500  -29.8360   23.6990 C   0  0  0  0  0  3  0  0  0  0  0  0
  -16.7600  -28.5800   23.1040 C   0  0  0  0  0  3  0  0  0  0  0  0
  -25.9560  -32.4790   23.8400 C   0  0  0  0  0  3  0  0  0  0  0  0
  -26.4630  -31.7060   25.1210 C   0  0  1  0  0  0  0  0  0  0  0  0
  -25.3650  -31.4740   26.1850 C   0  0  0  0  0  1  0  0  0  0  0  0
  -27.0430  -30.3250   24.7410 C   0  0  0  0  0  1  0  0  0  0  0  0
  -27.6150  -32.4960   25.7870 C   0  0  0  0  0  1  0  0  0  0  0  0
  -25.6420  -33.8770   24.1860 N   0  0  0  0  0  0  0  0  0  0  0  0
  -25.9500  -34.9430   23.4350 C   0  0  0  0  0  0  0  0  0  0  0  0
  -26.5910  -34.8530   22.3840 O   0  0  0  0  0  0  0  0  0  0  0  0
  -25.0670  -34.0190   25.0040 H   0  0  0  0  0  0  0  0  0  0  0  0
  -24.1940  -36.7300   23.1770 C   0  0  0  0  0  1  0  0  0  0  0  0
  -25.4760  -36.3280   23.9230 C   0  0  0  0  0  3  0  0  0  0  0  0
  -27.6390  -37.2330   24.6590 C   0  0  0  0  0  1  0  0  0  0  0  0
  -26.4940  -37.3910   23.7650 N   0  0  0  0  0  0  0  0  0  0  0  0
  -26.0870  -38.3070   23.9300 H   0  0  0  0  0  0  0  0  0  0  0  0
  -29.0060  -19.8720   20.2330 C   0  0  0  0  0  3  0  0  0  0  0  0
  -30.0000  -18.3430   20.0280 C   0  0  0  0  0  3  0  0  0  0  0  0
  -30.4250  -15.3850   20.0200 C   0  0  0  0  0  0  0  0  0  0  0  0
  -30.3780  -12.9500   19.0580 C   0  0  0  0  0  2  0  0  0  0  0  0
  -29.3860  -12.7310   17.8820 C   0  0  0  0  0  2  0  0  0  0  0  0
  -27.9690  -12.4240   18.3960 C   0  0  0  0  0  2  0  0  0  0  0  0
  -27.5760  -13.3480   19.5750 C   0  0  0  0  0  3  0  0  0  0  0  0
  -28.6960  -13.4520   20.6350 C   0  0  0  0  0  2  0  0  0  0  0  0
  -29.8620  -14.0600   19.9550 N   0  0  0  0  0  0  0  0  0  0  0  0
  -31.6130  -15.3770   19.6570 O   0  0  0  0  0  0  0  0  0  0  0  0
  -28.5190  -16.6190   21.1040 C   0  0  0  0  0  1  0  0  0  0  0  0
  -29.6980  -16.6940   20.2540 N   0  0  0  0  0  0  0  0  0  0  0  0
  -25.2410  -13.8690   20.4680 C   0  0  0  0  0  0  0  0  0  0  0  0
  -24.2090  -13.0750   20.8800 C   0  0  0  0  0  0  0  0  0  0  0  0
  -24.6810  -11.7320   20.7800 C   0  0  0  0  0  0  0  0  0  0  0  0
  -26.2790  -13.0100   20.1460 N   0  0  0  0  0  0  0  0  0  0  0  0
  -25.9540  -11.7140   20.3970 N   0  0  0  0  0  0  0  0  0  0  0  0
  -23.9680  -10.4610   20.9670 C   0  0  0  0  0  0  0  0  0  0  0  0
  -24.4080   -9.4970   21.8990 C   0  0  0  0  0  3  0  0  0  0  0  0
  -23.6900   -8.2940   22.0770 C   0  0  0  0  0  3  0  0  0  0  0  0
  -22.5180   -8.0490   21.3220 C   0  0  0  0  0  0  0  0  0  0  0  0
  -22.0970   -9.0030   20.3800 C   0  0  0  0  0  3  0  0  0  0  0  0
  -22.8160  -10.1960   20.2000 C   0  0  0  0  0  3  0  0  0  0  0  0
  -21.7710   -6.8990   21.4100 O   0  0  0  0  0  0  0  0  0  0  0  0
  -21.6740   -6.1920   22.5820 C   0  0  0  0  0  0  0  0  0  0  0  0
  -21.1780   -6.7790   23.7670 C   0  0  0  0  0  3  0  0  0  0  0  0
  -21.0290   -5.9970   24.9300 C   0  0  0  0  0  3  0  0  0  0  0  0
  -21.3670   -4.6300   24.9090 C   0  0  0  0  0  0  0  0  0  0  0  0
  -21.8570   -4.0440   23.7290 C   0  0  0  0  0  3  0  0  0  0  0  0
  -22.0070   -4.8220   22.5680 C   0  0  0  0  0  0  0  0  0  0  0  0
  -22.4590   -4.2480   21.4270 F   0  0  0  0  0  0  0  0  0  0  0  0
  -21.2170   -3.8780   26.0240 F   0  0  0  0  0  0  0  0  0  0  0  0
  -22.8290  -13.5400   21.2420 C   0  0  0  0  0  0  0  0  0  0  0  0
  -22.1530  -12.8190   22.1300 N   0  0  0  0  0  0  0  0  0  0  0  0
  -22.3610  -14.5780   20.7760 O   0  0  0  0  0  0  0  0  0  0  0  0
  -22.5470  -11.9790   22.5280 H   0  0  0  0  0  0  0  0  0  0  0  0
  -21.2300  -13.1110   22.4150 H   0  0  0  0  0  0  0  0  0  0  0  0
  -25.3610  -15.2430   20.3080 N   0  0  0  0  0  0  0  0  0  0  0  0
  -24.5780  -15.8690   20.4690 H   0  0  0  0  0  0  0  0  0  0  0  0
  -26.1590  -15.7070   19.8960 H   0  0  0  0  0  0  0  0  0  0  0  0
  1  3  1  0
  1  4  2  0
  2  5  1  0
  2  6  1  0
  3  2  2  0
  4  5  1  0
  5 48  1  0
  6  7  1  0
  8 19  2  0
  9  7  1  0
  9 14  1  0
 10 18  1  0
 10 20  1  0
 11 17  1  0
 11 13  1  0
 12 18  1  0
 13 12  1  0
 14 13  2  0
 15  9  2  0
 16 15  1  0
 16 11  2  0
 17 10  1  0
 18  8  1  0
 20 22  2  0
 21 20  1  0
 23 21  1  0
 24 33  2  0
 24 29  1  0
 25 21  1  0
 25 29  1  0
 26 25  1  0
 27 28  1  0
 27 26  1  0
 28 24  1  0
 29 30  2  0
 30 31  1  0
 32 31  2  0
 33 32  1  0
 34  8  1  0
 34 39  1  0
 34 35  1  0
 35 38  1  1
 35 36  1  0
 37 35  1  0
 39 42  1  0
 40 44  1  0
 40 39  1  0
 41 40  2  0
 44 43  1  0
 46 44  1  0
 46 47  1  0
 46 45  1  0
 49 48  2  0
 49 59  1  0
 50 59  1  0
 51 56  1  0
 52 53  1  0
 52 51  1  0
 54 53  1  0
 54 63  1  0
 54 55  1  0
 56 50  1  0
 56 55  1  0
 57 50  2  0
 59 58  1  0
 60 61  2  0
 61 80  1  0
 62 61  1  0
 62 65  1  0
 63 64  1  0
 63 60  1  0
 64 62  2  0
 65 66  1  0
 66 67  2  0
 68 71  1  0
 68 67  1  0
 69 68  2  0
 70 69  1  0
 70 65  2  0
 71 72  1  0
 72 73  1  0
 73 74  2  0
 75 74  1  0
 75 79  1  0
 76 75  2  0
 77 72  2  0
 77 76  1  0
 78 77  1  0
 80 81  1  0
 81 84  1  0
 81 83  1  0
 82 80  2  0
 85 60  1  0
 85 86  1  0
 87 85  1  0
M  ISO  4   6 101   7 101  50 100  59 100
M  END
>  <TORSDO>  (94) 
F 19

>  <SCORE>  (94) 
-16.259

>  <name>  (94) 
96

>  <ligand_id>  (94) 
96

>  <original_smiles>  (94) 
[H]c1nc(C([H])([H])Oc2c([H])c([H])c3c(c2[H])C([H])([H])N(C(=O)C([H])(N([H])C(=O)C([H])(N([H])C([H])([H])[H])C([H])([H])[H])C(C([H])([H])[H])(C([H])([H])[H])C([H])([H])[H])C([H])(C(=O)N([H])C2([H])c4c([H])c([H])c([H])c([H])c4C([H])([H])C([H])([H])C2([H])[H])C3([H])[H])n(C([H])([H])C([H])([H])N(C(=O)N2C([H])([H])C([H])([H])C([H])([H])C([H])(n3nc(-c4c([H])c([H])c(Oc5c([H])c([H])c(F)c([H])c5F)c([H])c4[H])c(C(=O)N([H])[H])c3N([H])[H])C2([H])[H])C([H])([H])[H])n1

>  <smiles>  (94) 
[H]c1nc(C([H])([H])Oc2c([H])c([H])c3c(c2[H])C([H])([H])N(C(=O)C([H])(N([H])C(=O)C([H])(N([H])C([H])([H])[H])C([H])([H])[H])C(C([H])([H])[H])(C([H])([H])[H])C([H])([H])[H])C([H])(C(=O)N([H])C2([H])c4c([H])c([H])c([H])c([H])c4C([H])([H])C([H])([H])C2([H])[H])C3([H])[H])n(C([H])([H])C([H])([H])N(C(=O)N2C([H])([H])C([H])([H])C([H])([H])C([H])(n3nc(-c4c([H])c([H])c(Oc5c([H])c([H])c(F)c([H])c5F)c([H])c4[H])c(C(=O)N([H])[H])c3N([H])[H])C2([H])[H])C([H])([H])[H])n1

$$$$
97:0:0
     RDKit          3D

 88 96  0  0  1  0  0  0  0  0999 V2000
  -27.9080  -21.5680   19.5160 C   0  0  0  0  0  3  0  0  0  0  0  0
  -29.9000  -20.8960   21.0880 C   0  0  0  0  0  3  0  0  0  0  0  0
  -28.4670  -22.7330   20.2060 C   0  0  0  0  0  0  0  0  0  0  0  0
  -29.3400  -19.7300   20.3830 C   0  0  0  0  0  0  0  0  0  0  0  0
  -29.4960  -22.2710   21.0320 N   0  0  0  0  0  0  0  0  0  0  0  0
  -28.3050  -20.1990   19.5770 N   0  0  0  0  0  0  0  0  0  0  0  0
  -30.7910  -18.2440   18.8380 C   0  0  0  0  0  1  0  0  0  0  0  0
  -30.1020  -18.1660   20.2110 C   0  0  0  0  0  0  0  0  0  0  0  0
  -30.4110  -15.2800   20.2930 C   0  0  0  0  0  0  0  0  0  0  0  0
  -30.3320  -12.8640   19.3680 C   0  0  0  0  0  2  0  0  0  0  0  0
  -29.4010  -12.7010   18.1430 C   0  0  0  0  0  2  0  0  0  0  0  0
  -27.9530  -12.4350   18.5940 C   0  0  0  0  0  2  0  0  0  0  0  0
  -27.5230  -13.3780   19.7460 C   0  0  0  0  0  3  0  0  0  0  0  0
  -28.5850  -13.4980   20.8620 C   0  0  0  0  0  2  0  0  0  0  0  0
  -29.8140  -13.9930   20.2250 N   0  0  0  0  0  0  0  0  0  0  0  0
  -31.6270  -15.2570   20.0530 O   0  0  0  0  0  0  0  0  0  0  0  0
  -29.6930  -16.5690   20.4120 N   0  0  0  0  0  4  0  0  0  0  0  0
  -28.7100  -16.4430   20.6010 H   0  0  0  0  0  0  0  0  0  0  0  0
  -25.1580  -13.9250   20.5250 C   0  0  0  0  0  0  0  0  0  0  0  0
  -24.1020  -13.1420   20.9010 C   0  0  0  0  0  0  0  0  0  0  0  0
  -24.5740  -11.7950   20.8590 C   0  0  0  0  0  0  0  0  0  0  0  0
  -26.2010  -13.0550   20.2650 N   0  0  0  0  0  0  0  0  0  0  0  0
  -25.8630  -11.7660   20.5350 N   0  0  0  0  0  0  0  0  0  0  0  0
  -23.8520  -10.5280   21.0450 C   0  0  0  0  0  0  0  0  0  0  0  0
  -24.2890   -9.5570   21.9730 C   0  0  0  0  0  3  0  0  0  0  0  0
  -23.5640   -8.3580   22.1500 C   0  0  0  0  0  3  0  0  0  0  0  0
  -22.3890   -8.1220   21.3970 C   0  0  0  0  0  0  0  0  0  0  0  0
  -21.9720   -9.0810   20.4580 C   0  0  0  0  0  3  0  0  0  0  0  0
  -22.6960  -10.2700   20.2800 C   0  0  0  0  0  3  0  0  0  0  0  0
  -21.6350   -6.9770   21.4840 O   0  0  0  0  0  0  0  0  0  0  0  0
  -21.5810   -6.2350   22.6370 C   0  0  0  0  0  0  0  0  0  0  0  0
  -21.1320   -6.7860   23.8580 C   0  0  0  0  0  3  0  0  0  0  0  0
  -21.0280   -5.9690   25.0010 C   0  0  0  0  0  3  0  0  0  0  0  0
  -21.3620   -4.6030   24.9250 C   0  0  0  0  0  0  0  0  0  0  0  0
  -21.8040   -4.0530   23.7090 C   0  0  0  0  0  3  0  0  0  0  0  0
  -21.9100   -4.8660   22.5670 C   0  0  0  0  0  0  0  0  0  0  0  0
  -22.3150   -4.3250   21.3930 F   0  0  0  0  0  0  0  0  0  0  0  0
  -21.2540   -3.8170   26.0220 F   0  0  0  0  0  0  0  0  0  0  0  0
  -22.7050  -13.6140   21.1800 C   0  0  0  0  0  0  0  0  0  0  0  0
  -21.9850  -12.9160   22.0500 N   0  0  0  0  0  0  0  0  0  0  0  0
  -22.2610  -14.6370   20.6610 O   0  0  0  0  0  0  0  0  0  0  0  0
  -22.3600  -12.0890   22.4930 H   0  0  0  0  0  0  0  0  0  0  0  0
  -21.0480  -13.2130   22.2810 H   0  0  0  0  0  0  0  0  0  0  0  0
  -25.3130  -15.2960   20.3530 N   0  0  0  0  0  0  0  0  0  0  0  0
  -24.5390  -15.9440   20.4560 H   0  0  0  0  0  0  0  0  0  0  0  0
  -26.1460  -15.7330   19.9780 H   0  0  0  0  0  0  0  0  0  0  0  0
  -27.7370  -24.3220   20.0960 C   0  0  0  0  0  2  0  0  0  0  0  0
  -28.1450  -25.8940   20.2920 O   0  0  0  0  0  0  0  0  0  0  0  0
  -24.6420  -31.8850   23.2470 C   0  0  0  0  0  0  0  0  0  0  0  0
  -27.1580  -27.0110   20.2230 C   0  0  0  0  0  0  0  0  0  0  0  0
  -23.4360  -30.4970   21.6140 C   0  0  0  0  0  3  0  0  0  0  0  0
  -24.8700  -28.8950   20.1830 C   0  0  0  0  0  0  0  0  0  0  0  0
  -26.0030  -30.7020   21.4550 C   0  0  0  0  0  2  0  0  0  0  0  0
  -26.0630  -29.2940   20.8010 C   0  0  0  0  0  0  0  0  0  0  0  0
  -27.2020  -28.3730   20.7970 C   0  0  0  0  0  3  0  0  0  0  0  0
  -25.9360  -26.7660   19.5540 C   0  0  0  0  0  3  0  0  0  0  0  0
  -24.8320  -27.6520   19.5400 C   0  0  0  0  0  3  0  0  0  0  0  0
  -23.6560  -29.8190   20.2350 C   0  0  0  0  0  2  0  0  0  0  0  0
  -24.7160  -31.0550   22.1580 N   0  0  0  0  0  0  0  0  0  0  0  0
  -23.5560  -32.1770   23.7730 O   0  0  0  0  0  0  0  0  0  0  0  0
  -22.7440  -29.5010   22.5800 C   0  0  0  0  0  0  0  0  0  0  0  0
  -21.4130  -29.3330   22.4560 N   0  0  0  0  0  0  0  0  0  0  0  0
  -23.4100  -28.8790   23.4130 O   0  0  0  0  0  0  0  0  0  0  0  0
  -20.9280  -29.8890   21.7650 H   0  0  0  0  0  0  0  0  0  0  0  0
  -18.0340  -28.1100   22.9580 C   0  0  0  0  0  0  0  0  0  0  0  0
  -20.5920  -28.3980   23.2320 C   0  0  0  0  0  3  0  0  0  0  0  0
  -20.7060  -26.9600   22.6710 C   0  0  0  0  0  2  0  0  0  0  0  0
  -19.6110  -26.6190   21.6560 C   0  0  0  0  0  2  0  0  0  0  0  0
  -18.2250  -26.7580   22.2910 C   0  0  0  0  0  2  0  0  0  0  0  0
  -19.1450  -28.8860   23.3850 C   0  0  0  0  0  0  0  0  0  0  0  0
  -18.9100  -30.1480   23.9730 C   0  0  0  0  0  3  0  0  0  0  0  0
  -17.5990  -30.6360   24.1320 C   0  0  0  0  0  3  0  0  0  0  0  0
  -16.5040  -29.8580   23.7180 C   0  0  0  0  0  3  0  0  0  0  0  0
  -16.7230  -28.5970   23.1380 C   0  0  0  0  0  3  0  0  0  0  0  0
  -25.9190  -32.5240   23.8740 C   0  0  0  0  0  3  0  0  0  0  0  0
  -25.6100  -33.9250   24.2060 N   0  0  0  0  0  0  0  0  0  0  0  0
  -25.9240  -34.9830   23.4450 C   0  0  0  0  0  0  0  0  0  0  0  0
  -26.5700  -34.8800   22.4000 O   0  0  0  0  0  0  0  0  0  0  0  0
  -25.0350  -34.0790   25.0220 H   0  0  0  0  0  0  0  0  0  0  0  0
  -24.1840  -36.7770   23.1500 C   0  0  0  0  0  1  0  0  0  0  0  0
  -25.4510  -36.3730   23.9190 C   0  0  0  0  0  3  0  0  0  0  0  0
  -27.6110  -37.2650   24.6760 C   0  0  0  0  0  1  0  0  0  0  0  0
  -26.4760  -37.4290   23.7710 N   0  0  0  0  0  0  0  0  0  0  0  0
  -26.0720  -38.3470   23.9330 H   0  0  0  0  0  0  0  0  0  0  0  0
  -26.4230  -31.7610   25.1610 C   0  0  1  0  0  0  0  0  0  0  0  0
  -25.3230  -31.5450   26.2270 C   0  0  0  0  0  1  0  0  0  0  0  0
  -26.9950  -30.3740   24.7940 C   0  0  0  0  0  1  0  0  0  0  0  0
  -27.5780  -32.5520   25.8180 C   0  0  0  0  0  1  0  0  0  0  0  0
  1  6  2  0
  1  3  1  0
  3  5  2  0
  4  2  2  0
  5  2  1  0
  6  4  1  0
  7  8  1  0
  8  4  1  0
  8 17  2  0
  9 17  1  0
 10 15  1  0
 11 12  1  0
 11 10  1  0
 13 12  1  0
 13 22  1  0
 13 14  1  0
 15  9  1  0
 15 14  1  0
 16  9  2  0
 17 18  1  0
 19 20  2  0
 20 39  1  0
 21 20  1  0
 21 24  1  0
 22 19  1  0
 22 23  1  0
 23 21  2  0
 24 25  1  0
 25 26  2  0
 27 30  1  0
 27 26  1  0
 28 27  2  0
 29 28  1  0
 29 24  2  0
 30 31  1  0
 31 32  1  0
 32 33  2  0
 34 33  1  0
 34 38  1  0
 35 34  2  0
 36 31  2  0
 36 35  1  0
 37 36  1  0
 39 40  1  0
 40 43  1  0
 40 42  1  0
 41 39  2  0
 44 45  1  0
 44 19  1  0
 46 44  1  0
 47  3  1  0
 47 48  1  0
 49 60  2  0
 50 48  1  0
 50 55  1  0
 51 59  1  0
 51 61  1  0
 52 58  1  0
 52 54  1  0
 53 59  1  0
 54 53  1  0
 55 54  2  0
 56 50  2  0
 57 56  1  0
 57 52  2  0
 58 51  1  0
 59 49  1  0
 61 63  2  0
 62 61  1  0
 64 62  1  0
 65 74  2  0
 65 70  1  0
 66 62  1  0
 66 70  1  0
 67 66  1  0
 68 69  1  0
 68 67  1  0
 69 65  1  0
 70 71  2  0
 71 72  1  0
 73 72  2  0
 74 73  1  0
 75 49  1  0
 75 76  1  0
 75 85  1  0
 76 79  1  0
 77 81  1  0
 77 76  1  0
 78 77  2  0
 81 80  1  0
 83 81  1  0
 83 84  1  0
 83 82  1  0
 85 88  1  1
 85 86  1  0
 87 85  1  0
M  ISO  4   9 100  17 100  47 101  48 101
M  END
>  <TORSDO>  (95) 
F 18

>  <SCORE>  (95) 
-15.726

>  <name>  (95) 
97

>  <ligand_id>  (95) 
97

>  <original_smiles>  (95) 
[H]c1nc(C([H])(N([H])C(=O)N2C([H])([H])C([H])([H])C([H])([H])C([H])(n3nc(-c4c([H])c([H])c(Oc5c([H])c([H])c(F)c([H])c5F)c([H])c4[H])c(C(=O)N([H])[H])c3N([H])[H])C2([H])[H])C([H])([H])[H])c([H])nc1C([H])([H])Oc1c([H])c([H])c2c(c1[H])C([H])([H])N(C(=O)C([H])(N([H])C(=O)C([H])(N([H])C([H])([H])[H])C([H])([H])[H])C(C([H])([H])[H])(C([H])([H])[H])C([H])([H])[H])C([H])(C(=O)N([H])C1([H])c3c([H])c([H])c([H])c([H])c3C([H])([H])C([H])([H])C1([H])[H])C2([H])[H]

>  <smiles>  (95) 
[H]c1nc(C([H])(N([H])C(=O)N2C([H])([H])C([H])([H])C([H])([H])C([H])(n3nc(-c4c([H])c([H])c(Oc5c([H])c([H])c(F)c([H])c5F)c([H])c4[H])c(C(=O)N([H])[H])c3N([H])[H])C2([H])[H])C([H])([H])[H])c([H])nc1C([H])([H])Oc1c([H])c([H])c2c(c1[H])C([H])([H])N(C(=O)C([H])(N([H])C(=O)C([H])(N([H])C([H])([H])[H])C([H])([H])[H])C(C([H])([H])[H])(C([H])([H])[H])C([H])([H])[H])C([H])(C(=O)N([H])C1([H])c3c([H])c([H])c([H])c([H])c3C([H])([H])C([H])([H])C1([H])[H])C2([H])[H]

$$$$
