0:0:0
     RDKit          3D

 94102  0  0  1  0  0  0  0  0999 V2000
  -30.9140  -19.3940   21.6380 C   0  0  0  0  0  0  0  0  0  0  0  0
  -30.2010  -17.2630   20.8340 C   0  0  0  0  0  3  0  0  0  0  0  0
  -29.9900  -20.2930   20.7610 C   0  0  1  0  0  0  0  0  0  0  0  0
  -31.8760  -20.1090   22.5710 C   0  0  0  0  0  1  0  0  0  0  0  0
  -30.8890  -18.1030   21.6780 N   0  0  0  0  0  0  0  0  0  0  0  0
  -30.2030  -19.8990   19.3420 N   0  0  0  0  0  2  0  0  0  0  0  0
  -29.8110  -18.7930   18.8730 N   0  0  0  0  0  2  0  0  0  0  0  0
  -29.5600  -17.6310   19.6160 N   0  0  0  0  0  0  0  0  0  0  0  0
  -28.7110  -20.0910   21.0930 F   0  0  0  0  0  0  0  0  0  0  0  0
  -29.0640  -16.9310   19.0770 H   0  0  0  0  0  0  0  0  0  0  0  0
  -29.9590  -15.7870   21.2560 C   0  0  0  0  0  2  0  0  0  0  0  0
  -30.6420  -14.6080   20.4580 C   0  0  0  0  0  0  0  0  0  0  0  0
  -30.3780  -12.4380   19.2580 C   0  0  0  0  0  2  0  0  0  0  0  0
  -29.4120  -12.6220   18.0660 C   0  0  0  0  0  2  0  0  0  0  0  0
  -27.9430  -12.4660   18.5130 C   0  0  0  0  0  2  0  0  0  0  0  0
  -27.6160  -13.2890   19.7880 C   0  0  0  0  0  3  0  0  0  0  0  0
  -28.6880  -13.0490   20.8760 C   0  0  0  0  0  2  0  0  0  0  0  0
  -29.9970  -13.4070   20.3030 N   0  0  0  0  0  0  0  0  0  0  0  0
  -31.7410  -14.8040   19.9250 O   0  0  0  0  0  0  0  0  0  0  0  0
  -25.2190  -13.9030   20.5010 C   0  0  0  0  0  0  0  0  0  0  0  0
  -24.1530  -13.1340   20.8770 C   0  0  0  0  0  0  0  0  0  0  0  0
  -24.6120  -11.7810   20.8510 C   0  0  0  0  0  0  0  0  0  0  0  0
  -26.2640  -13.0190   20.2730 N   0  0  0  0  0  0  0  0  0  0  0  0
  -25.9020  -11.7390   20.5400 N   0  0  0  0  0  0  0  0  0  0  0  0
  -23.8850  -10.5220   21.0460 C   0  0  0  0  0  0  0  0  0  0  0  0
  -24.3300   -9.5480   21.9670 C   0  0  0  0  0  3  0  0  0  0  0  0
  -23.6030   -8.3530   22.1510 C   0  0  0  0  0  3  0  0  0  0  0  0
  -22.4170   -8.1230   21.4140 C   0  0  0  0  0  0  0  0  0  0  0  0
  -21.9910   -9.0840   20.4800 C   0  0  0  0  0  3  0  0  0  0  0  0
  -22.7190  -10.2710   20.2940 C   0  0  0  0  0  3  0  0  0  0  0  0
  -21.6600   -6.9800   21.5090 O   0  0  0  0  0  0  0  0  0  0  0  0
  -21.6380   -6.2260   22.6540 C   0  0  0  0  0  0  0  0  0  0  0  0
  -21.2450   -6.7690   23.8980 C   0  0  0  0  0  3  0  0  0  0  0  0
  -21.1690   -5.9420   25.0350 C   0  0  0  0  0  3  0  0  0  0  0  0
  -21.4770   -4.5710   24.9310 C   0  0  0  0  0  0  0  0  0  0  0  0
  -21.8630   -4.0270   23.6930 C   0  0  0  0  0  3  0  0  0  0  0  0
  -21.9410   -4.8530   22.5580 C   0  0  0  0  0  0  0  0  0  0  0  0
  -22.2940   -4.3200   21.3640 F   0  0  0  0  0  0  0  0  0  0  0  0
  -21.3960   -3.7740   26.0220 F   0  0  0  0  0  0  0  0  0  0  0  0
  -22.7570  -13.6140   21.1530 C   0  0  0  0  0  0  0  0  0  0  0  0
  -22.0320  -12.9240   22.0260 N   0  0  0  0  0  0  0  0  0  0  0  0
  -22.3170  -14.6380   20.6300 O   0  0  0  0  0  0  0  0  0  0  0  0
  -22.4020  -12.0950   22.4680 H   0  0  0  0  0  0  0  0  0  0  0  0
  -21.0970  -13.2270   22.2570 H   0  0  0  0  0  0  0  0  0  0  0  0
  -25.3790  -15.2720   20.3130 N   0  0  0  0  0  0  0  0  0  0  0  0
  -24.5940  -15.9090   20.4060 H   0  0  0  0  0  0  0  0  0  0  0  0
  -26.1940  -15.7140   19.9140 H   0  0  0  0  0  0  0  0  0  0  0  0
  -30.2500  -21.8620   20.8460 C   0  0  0  0  0  2  0  0  0  0  0  0
  -29.2150  -22.7680   20.2350 N   0  0  0  0  0  4  0  0  0  0  0  0
  -28.3270  -22.4810   20.6190 H   0  0  0  0  0  0  0  0  0  0  0  0
  -29.1790  -22.5890   19.2430 H   0  0  0  0  0  0  0  0  0  0  0  0
  -29.4060  -24.2530   20.4730 C   0  0  0  0  0  3  0  0  0  0  0  0
  -28.2160  -25.1710   20.0150 C   0  0  0  0  0  3  0  0  0  0  0  0
  -28.3710  -26.6090   20.2410 O   0  0  0  0  0  0  0  0  0  0  0  0
  -24.5990  -31.9270   23.2410 C   0  0  0  0  0  0  0  0  0  0  0  0
  -27.2240  -27.4050   20.1900 C   0  0  0  0  0  0  0  0  0  0  0  0
  -23.3950  -30.5280   21.5990 C   0  0  0  0  0  3  0  0  0  0  0  0
  -24.8460  -28.9790   20.1810 C   0  0  0  0  0  0  0  0  0  0  0  0
  -25.9300  -30.8560   21.4170 C   0  0  0  0  0  2  0  0  0  0  0  0
  -26.0100  -29.4800   20.7750 C   0  0  0  0  0  0  0  0  0  0  0  0
  -27.2010  -28.7030   20.7740 C   0  0  0  0  0  3  0  0  0  0  0  0
  -26.0340  -26.9440   19.5760 C   0  0  0  0  0  3  0  0  0  0  0  0
  -24.8570  -27.7120   19.5760 C   0  0  0  0  0  3  0  0  0  0  0  0
  -23.6090  -29.8490   20.2210 C   0  0  0  0  0  2  0  0  0  0  0  0
  -24.6600  -31.1190   22.1430 N   0  0  0  0  0  0  0  0  0  0  0  0
  -23.5150  -32.2070   23.7730 O   0  0  0  0  0  0  0  0  0  0  0  0
  -22.7300  -29.5130   22.5570 C   0  0  0  0  0  0  0  0  0  0  0  0
  -21.4040  -29.3420   22.4260 N   0  0  0  0  0  0  0  0  0  0  0  0
  -23.4050  -28.8820   23.3740 O   0  0  0  0  0  0  0  0  0  0  0  0
  -20.9190  -29.9020   21.7380 H   0  0  0  0  0  0  0  0  0  0  0  0
  -18.0160  -28.1810   22.9240 C   0  0  0  0  0  0  0  0  0  0  0  0
  -20.5770  -28.4110   23.1960 C   0  0  0  0  0  3  0  0  0  0  0  0
  -20.6630  -26.9800   22.6160 C   0  0  0  0  0  2  0  0  0  0  0  0
  -19.5580  -26.6720   21.6020 C   0  0  0  0  0  2  0  0  0  0  0  0
  -18.1770  -26.8310   22.2460 C   0  0  0  0  0  2  0  0  0  0  0  0
  -19.1430  -28.9300   23.3560 C   0  0  0  0  0  0  0  0  0  0  0  0
  -18.9380  -30.1950   23.9490 C   0  0  0  0  0  3  0  0  0  0  0  0
  -17.6390  -30.7100   24.1150 C   0  0  0  0  0  3  0  0  0  0  0  0
  -16.5260  -29.9570   23.7010 C   0  0  0  0  0  3  0  0  0  0  0  0
  -16.7160  -28.6950   23.1110 C   0  0  0  0  0  3  0  0  0  0  0  0
  -25.8840  -32.5530   23.8650 C   0  0  0  0  0  3  0  0  0  0  0  0
  -25.5790  -33.9520   24.1940 N   0  0  0  0  0  0  0  0  0  0  0  0
  -25.9120  -35.0030   23.4330 C   0  0  0  0  0  0  0  0  0  0  0  0
  -26.5800  -34.8970   22.4000 O   0  0  0  0  0  0  0  0  0  0  0  0
  -24.9860  -34.1100   24.9960 H   0  0  0  0  0  0  0  0  0  0  0  0
  -24.1880  -36.7980   23.0800 C   0  0  0  0  0  1  0  0  0  0  0  0
  -25.4290  -36.3920   23.8900 C   0  0  0  0  0  3  0  0  0  0  0  0
  -27.5680  -37.2720   24.7150 C   0  0  0  0  0  1  0  0  0  0  0  0
  -26.4640  -37.4440   23.7730 N   0  0  0  0  0  0  0  0  0  0  0  0
  -26.0600  -38.3650   23.9230 H   0  0  0  0  0  0  0  0  0  0  0  0
  -26.3950  -31.7790   25.1410 C   0  0  1  0  0  0  0  0  0  0  0  0
  -25.2990  -31.5430   26.2050 C   0  0  0  0  0  1  0  0  0  0  0  0
  -26.9740  -30.4010   24.7470 C   0  0  0  0  0  1  0  0  0  0  0  0
  -27.5470  -32.5680   25.8060 C   0  0  0  0  0  1  0  0  0  0  0  0
  1  5  2  0
  1  4  1  0
  2 11  1  0
  2  5  1  0
  3 48  1  0
  3  9  1  1
  3  1  1  0
  6  3  1  0
  7  6  1  0
  7  8  1  0
  8  2  1  0
 10  8  1  0
 12 11  1  0
 13 18  1  0
 14 15  1  0
 14 13  1  0
 16 15  1  0
 16 23  1  0
 16 17  1  0
 18 12  1  0
 18 17  1  0
 19 12  2  0
 20 21  2  0
 21 40  1  0
 22 21  1  0
 22 25  1  0
 23 20  1  0
 23 24  1  0
 24 22  2  0
 25 26  1  0
 26 27  2  0
 28 31  1  0
 28 27  1  0
 29 28  2  0
 30 29  1  0
 30 25  2  0
 31 32  1  0
 32 33  1  0
 33 34  2  0
 35 34  1  0
 35 39  1  0
 36 35  2  0
 37 32  2  0
 37 36  1  0
 38 37  1  0
 40 41  1  0
 41 44  1  0
 41 43  1  0
 42 40  2  0
 45 46  1  0
 45 20  1  0
 47 45  1  0
 49 52  1  0
 49 50  1  0
 49 48  1  0
 51 49  1  0
 53 54  1  0
 53 52  2  0
 55 66  2  0
 56 54  1  0
 56 61  1  0
 57 65  1  0
 57 67  1  0
 58 64  1  0
 58 60  1  0
 59 65  1  0
 60 59  1  0
 61 60  2  0
 62 56  2  0
 63 62  1  0
 63 58  2  0
 64 57  1  0
 65 55  1  0
 67 69  2  0
 68 67  1  0
 70 68  1  0
 71 80  2  0
 71 76  1  0
 72 68  1  0
 72 76  1  0
 73 72  1  0
 74 75  1  0
 74 73  1  0
 75 71  1  0
 76 77  2  0
 77 78  1  0
 79 78  2  0
 80 79  1  0
 81 55  1  0
 81 82  1  0
 81 91  1  0
 82 85  1  0
 83 87  1  0
 83 82  1  0
 84 83  2  0
 87 86  1  0
 89 87  1  0
 89 90  1  0
 89 88  1  0
 91 94  1  1
 91 92  1  0
 93 91  1  0
M  ISO  4  11 100  12 100  53 101  54 101
M  END
>  <TORSDO>  (1) 
F 21

>  <SCORE>  (1) 
-13.917

>  <name>  (1) 
0

>  <ligand_id>  (1) 
0

>  <original_smiles>  (1) 
[H]c1c([H])c([H])c2c(c1[H])C([H])([H])C([H])([H])C([H])([H])C2([H])N([H])C(=O)C1([H])N(C(=O)C([H])(N([H])C(=O)C([H])(N([H])C([H])([H])[H])C([H])([H])[H])C(C([H])([H])[H])(C([H])([H])[H])C([H])([H])[H])C([H])([H])c2c([H])c(OC([H])([H])C([H])([H])[N+]([H])([H])C([H])([H])C3(F)N=N[N+]([H])=C(C([H])([H])C(=O)N4C([H])([H])C([H])([H])C([H])([H])C([H])(n5nc(-c6c([H])c([H])c(Oc7c([H])c([H])c(F)c([H])c7F)c([H])c6[H])c(C(=O)N([H])[H])c5N([H])[H])C4([H])[H])N=C3C([H])([H])[H])c([H])c([H])c2C1([H])[H]

>  <smiles>  (1) 
[H]c1c([H])c([H])c2c(c1[H])C([H])([H])C([H])([H])C([H])([H])C2([H])N([H])C(=O)C1([H])N(C(=O)C([H])(N([H])C(=O)C([H])(N([H])C([H])([H])[H])C([H])([H])[H])C(C([H])([H])[H])(C([H])([H])[H])C([H])([H])[H])C([H])([H])c2c([H])c(OC([H])([H])C([H])([H])[N+]([H])([H])C([H])([H])C3(F)N=N[N+]([H])=C(C([H])([H])C(=O)N4C([H])([H])C([H])([H])C([H])([H])C([H])(n5nc(-c6c([H])c([H])c(Oc7c([H])c([H])c(F)c([H])c7F)c([H])c6[H])c(C(=O)N([H])[H])c5N([H])[H])C4([H])[H])N=C3C([H])([H])[H])c([H])c([H])c2C1([H])[H]

$$$$
1:0:0
     RDKit          3D

 91 99  0  0  1  0  0  0  0  0999 V2000
  -27.6590  -21.5740   19.4660 C   0  0  0  0  0  3  0  0  0  0  0  0
  -28.5700  -22.4990   19.9750 C   0  0  0  0  0  0  0  0  0  0  0  0
  -29.3130  -20.0360   20.0520 C   0  0  0  0  0  3  0  0  0  0  0  0
  -28.1230  -20.2340   19.4370 N   0  0  0  0  0  0  0  0  0  0  0  0
  -29.5880  -21.4460   20.3190 N   0  0  0  0  0  0  0  0  0  0  0  0
  -30.4940  -21.7150   20.6850 H   0  0  0  0  0  0  0  0  0  0  0  0
  -26.8140  -18.1740   19.8260 C   0  0  0  0  0  1  0  0  0  0  0  0
  -28.1020  -18.5020   17.5830 C   0  0  0  0  0  1  0  0  0  0  0  0
  -27.3700  -19.1480   18.7880 C   0  0  0  0  0  3  0  0  0  0  0  0
  -31.5040  -18.7350   19.4030 C   0  0  0  0  0  1  0  0  0  0  0  0
  -30.2350  -18.5070   20.2420 C   0  0  0  0  0  0  0  0  0  0  0  0
  -30.5340  -15.4880   20.1770 C   0  0  0  0  0  0  0  0  0  0  0  0
  -30.4890  -13.0160   19.3100 C   0  0  0  0  0  2  0  0  0  0  0  0
  -29.5440  -12.7040   18.1180 C   0  0  0  0  0  2  0  0  0  0  0  0
  -28.1120  -12.3970   18.5980 C   0  0  0  0  0  2  0  0  0  0  0  0
  -27.6430  -13.3880   19.6910 C   0  0  0  0  0  3  0  0  0  0  0  0
  -28.7210  -13.6580   20.7760 C   0  0  0  0  0  2  0  0  0  0  0  0
  -29.9250  -14.1850   20.1000 N   0  0  0  0  0  0  0  0  0  0  0  0
  -31.7610  -15.4040   20.0380 O   0  0  0  0  0  0  0  0  0  0  0  0
  -29.8490  -16.8350   20.2160 N   0  0  0  0  0  4  0  0  0  0  0  0
  -28.8540  -16.7060   20.3100 H   0  0  0  0  0  0  0  0  0  0  0  0
  -25.2910  -13.8870   20.5490 C   0  0  0  0  0  0  0  0  0  0  0  0
  -24.2440  -13.0930   20.9270 C   0  0  0  0  0  0  0  0  0  0  0  0
  -24.7280  -11.7510   20.8610 C   0  0  0  0  0  0  0  0  0  0  0  0
  -26.3380  -13.0340   20.2560 N   0  0  0  0  0  0  0  0  0  0  0  0
  -26.0150  -11.7380   20.5180 N   0  0  0  0  0  0  0  0  0  0  0  0
  -24.0120  -10.4800   21.0410 C   0  0  0  0  0  0  0  0  0  0  0  0
  -24.4520   -9.5140   21.9700 C   0  0  0  0  0  3  0  0  0  0  0  0
  -23.7360   -8.3100   22.1430 C   0  0  0  0  0  3  0  0  0  0  0  0
  -22.5650   -8.0660   21.3860 C   0  0  0  0  0  0  0  0  0  0  0  0
  -22.1440   -9.0230   20.4440 C   0  0  0  0  0  3  0  0  0  0  0  0
  -22.8620  -10.2190   20.2680 C   0  0  0  0  0  3  0  0  0  0  0  0
  -21.8170   -6.9170   21.4740 O   0  0  0  0  0  0  0  0  0  0  0  0
  -21.7500   -6.1830   22.6300 C   0  0  0  0  0  0  0  0  0  0  0  0
  -21.2500   -6.7300   23.8320 C   0  0  0  0  0  3  0  0  0  0  0  0
  -21.1340   -5.9200   24.9790 C   0  0  0  0  0  3  0  0  0  0  0  0
  -21.5090   -4.5640   24.9250 C   0  0  0  0  0  0  0  0  0  0  0  0
  -22.0060   -4.0170   23.7300 C   0  0  0  0  0  3  0  0  0  0  0  0
  -22.1230   -4.8240   22.5840 C   0  0  0  0  0  0  0  0  0  0  0  0
  -22.5810   -4.2870   21.4290 F   0  0  0  0  0  0  0  0  0  0  0  0
  -21.3910   -3.7830   26.0260 F   0  0  0  0  0  0  0  0  0  0  0  0
  -22.8460  -13.5510   21.2240 C   0  0  0  0  0  0  0  0  0  0  0  0
  -22.1370  -12.8390   22.0990 N   0  0  0  0  0  0  0  0  0  0  0  0
  -22.3910  -14.5750   20.7200 O   0  0  0  0  0  0  0  0  0  0  0  0
  -22.5070  -12.0040   22.5250 H   0  0  0  0  0  0  0  0  0  0  0  0
  -21.2000  -13.1320   22.3440 H   0  0  0  0  0  0  0  0  0  0  0  0
  -25.4310  -15.2550   20.3960 N   0  0  0  0  0  0  0  0  0  0  0  0
  -24.6580  -15.8980   20.5260 H   0  0  0  0  0  0  0  0  0  0  0  0
  -26.2520  -15.7070   20.0200 H   0  0  0  0  0  0  0  0  0  0  0  0
  -28.3970  -24.2760   19.6990 C   0  0  0  0  0  2  0  0  0  0  0  0
  -28.2050  -25.7550   20.4860 O   0  0  0  0  0  0  0  0  0  0  0  0
  -24.5910  -31.8650   23.2640 C   0  0  0  0  0  0  0  0  0  0  0  0
  -27.2200  -26.9010   20.3280 C   0  0  0  0  0  0  0  0  0  0  0  0
  -23.4300  -30.4530   21.6160 C   0  0  0  0  0  3  0  0  0  0  0  0
  -24.9090  -28.8210   20.2350 C   0  0  0  0  0  0  0  0  0  0  0  0
  -26.0030  -30.6450   21.5210 C   0  0  0  0  0  2  0  0  0  0  0  0
  -26.0860  -29.2200   20.8780 C   0  0  0  0  0  0  0  0  0  0  0  0
  -27.2220  -28.2790   20.9070 C   0  0  0  0  0  3  0  0  0  0  0  0
  -26.0050  -26.6740   19.6350 C   0  0  0  0  0  3  0  0  0  0  0  0
  -24.8980  -27.5690   19.5970 C   0  0  0  0  0  3  0  0  0  0  0  0
  -23.6970  -29.7580   20.2490 C   0  0  0  0  0  2  0  0  0  0  0  0
  -24.6960  -31.0180   22.1880 N   0  0  0  0  0  0  0  0  0  0  0  0
  -23.4910  -32.1580   23.7630 O   0  0  0  0  0  0  0  0  0  0  0  0
  -22.7090  -29.4710   22.5810 C   0  0  0  0  0  0  0  0  0  0  0  0
  -21.3780  -29.3190   22.4440 N   0  0  0  0  0  0  0  0  0  0  0  0
  -23.3600  -28.8450   23.4240 O   0  0  0  0  0  0  0  0  0  0  0  0
  -20.9060  -29.8740   21.7460 H   0  0  0  0  0  0  0  0  0  0  0  0
  -17.9780  -28.1400   22.9390 C   0  0  0  0  0  0  0  0  0  0  0  0
  -20.5410  -28.3900   23.2120 C   0  0  0  0  0  3  0  0  0  0  0  0
  -20.6350  -26.9560   22.6390 C   0  0  0  0  0  2  0  0  0  0  0  0
  -19.5350  -26.6400   21.6210 C   0  0  0  0  0  2  0  0  0  0  0  0
  -18.1510  -26.7910   22.2590 C   0  0  0  0  0  2  0  0  0  0  0  0
  -19.1000  -28.8960   23.3740 C   0  0  0  0  0  0  0  0  0  0  0  0
  -18.8840  -30.1530   23.9780 C   0  0  0  0  0  3  0  0  0  0  0  0
  -17.5800  -30.6570   24.1460 C   0  0  0  0  0  3  0  0  0  0  0  0
  -16.4740  -29.9000   23.7210 C   0  0  0  0  0  3  0  0  0  0  0  0
  -16.6730  -28.6430   23.1250 C   0  0  0  0  0  3  0  0  0  0  0  0
  -25.8450  -32.5220   23.9160 C   0  0  0  0  0  3  0  0  0  0  0  0
  -26.3050  -31.7900   25.2380 C   0  0  1  0  0  0  0  0  0  0  0  0
  -25.1670  -31.5970   26.2700 C   0  0  0  0  0  1  0  0  0  0  0  0
  -26.8970  -30.3990   24.9190 C   0  0  0  0  0  1  0  0  0  0  0  0
  -27.4320  -32.6010   25.9250 C   0  0  0  0  0  1  0  0  0  0  0  0
  -25.5260  -33.9310   24.2100 N   0  0  0  0  0  0  0  0  0  0  0  0
  -25.8780  -34.9740   23.4470 C   0  0  0  0  0  0  0  0  0  0  0  0
  -26.5670  -34.8520   22.4320 O   0  0  0  0  0  0  0  0  0  0  0  0
  -24.9290  -34.0990   25.0050 H   0  0  0  0  0  0  0  0  0  0  0  0
  -24.1740  -36.7850   23.0300 C   0  0  0  0  0  1  0  0  0  0  0  0
  -25.3910  -36.3750   23.8790 C   0  0  0  0  0  3  0  0  0  0  0  0
  -27.5050  -37.2650   24.7570 C   0  0  0  0  0  1  0  0  0  0  0  0
  -26.4330  -37.4190   23.7770 N   0  0  0  0  0  0  0  0  0  0  0  0
  -26.0290  -38.3450   23.8910 H   0  0  0  0  0  0  0  0  0  0  0  0
  1  2  2  0
  2  5  1  0
  3 11  1  0
  3  5  1  0
  4  1  1  0
  4  3  1  0
  5  6  1  0
  8  9  1  0
  9  4  1  0
  9  7  1  0
 10 11  1  0
 12 20  1  0
 13 18  1  0
 14 15  1  0
 14 13  1  0
 16 15  1  0
 16 25  1  0
 16 17  1  0
 18 12  1  0
 18 17  1  0
 19 12  2  0
 20 11  2  0
 20 21  1  0
 22 23  2  0
 23 42  1  0
 24 23  1  0
 24 27  1  0
 25 26  1  0
 25 22  1  0
 26 24  2  0
 27 28  1  0
 28 29  2  0
 30 33  1  0
 30 29  1  0
 31 30  2  0
 32 31  1  0
 32 27  2  0
 33 34  1  0
 34 35  1  0
 35 36  2  0
 37 36  1  0
 37 41  1  0
 38 37  2  0
 39 34  2  0
 39 38  1  0
 40 39  1  0
 42 43  1  0
 43 46  1  0
 43 45  1  0
 44 42  2  0
 47 48  1  0
 47 22  1  0
 49 47  1  0
 50  2  1  0
 50 51  1  0
 52 63  2  0
 53 51  1  0
 53 58  1  0
 54 62  1  0
 54 64  1  0
 55 61  1  0
 55 57  1  0
 56 62  1  0
 57 58  2  0
 57 56  1  0
 59 53  2  0
 60 59  1  0
 60 55  2  0
 61 54  1  0
 62 52  1  0
 64 66  2  0
 65 64  1  0
 67 65  1  0
 68 77  2  0
 68 73  1  0
 69 65  1  0
 69 73  1  0
 70 69  1  0
 71 72  1  0
 71 70  1  0
 72 68  1  0
 73 74  2  0
 74 75  1  0
 76 75  2  0
 77 76  1  0
 78 52  1  0
 78 83  1  0
 78 79  1  0
 79 82  1  1
 79 80  1  0
 81 79  1  0
 83 86  1  0
 84 88  1  0
 84 83  1  0
 85 84  2  0
 88 87  1  0
 90 88  1  0
 90 91  1  0
 90 89  1  0
M  ISO  4  12 100  20 100  50 101  51 101
M  END
>  <TORSDO>  (2) 
F 19

>  <SCORE>  (2) 
-16.402

>  <name>  (2) 
1

>  <ligand_id>  (2) 
1

>  <original_smiles>  (2) 
[H]c1c([H])c([H])c2c(c1[H])C([H])([H])C([H])([H])C([H])([H])C2([H])N([H])C(=O)C1([H])N(C(=O)C([H])(N([H])C(=O)C([H])(N([H])C([H])([H])[H])C([H])([H])[H])C(C([H])([H])[H])(C([H])([H])[H])C([H])([H])[H])C([H])([H])c2c([H])c(OC([H])([H])c3c([H])n(C([H])(C([H])([H])[H])C([H])([H])[H])c(C([H])(N([H])C(=O)N4C([H])([H])C([H])([H])C([H])([H])C([H])(n5nc(-c6c([H])c([H])c(Oc7c([H])c([H])c(F)c([H])c7F)c([H])c6[H])c(C(=O)N([H])[H])c5N([H])[H])C4([H])[H])C([H])([H])[H])[n+]3[H])c([H])c([H])c2C1([H])[H]

>  <smiles>  (2) 
[H]c1c([H])c([H])c2c(c1[H])C([H])([H])C([H])([H])C([H])([H])C2([H])N([H])C(=O)C1([H])N(C(=O)C([H])(N([H])C(=O)C([H])(N([H])C([H])([H])[H])C([H])([H])[H])C(C([H])([H])[H])(C([H])([H])[H])C([H])([H])[H])C([H])([H])c2c([H])c(OC([H])([H])c3c([H])n(C([H])(C([H])([H])[H])C([H])([H])[H])c(C([H])(N([H])C(=O)N4C([H])([H])C([H])([H])C([H])([H])C([H])(n5nc(-c6c([H])c([H])c(Oc7c([H])c([H])c(F)c([H])c7F)c([H])c6[H])c(C(=O)N([H])[H])c5N([H])[H])C4([H])[H])C([H])([H])[H])[n+]3[H])c([H])c([H])c2C1([H])[H]

$$$$
2:0:0
     RDKit          3D

 89 97  0  0  1  0  0  0  0  0999 V2000
  -29.0220  -21.1700   21.0500 C   0  0  0  0  0  3  0  0  0  0  0  0
  -29.1270  -22.2950   20.2320 C   0  0  0  0  0  0  0  0  0  0  0  0
  -29.4450  -21.7590   18.9730 N   0  0  0  0  0  0  0  0  0  0  0  0
  -29.5050  -20.4400   19.0020 N   0  0  0  0  0  0  0  0  0  0  0  0
  -29.2860  -20.0120   20.2730 N   0  0  0  0  0  0  0  0  0  0  0  0
  -29.1650  -23.8560   20.5490 C   0  0  0  0  0  3  0  0  0  0  0  0
  -28.0850  -24.9290   20.0070 C   0  0  0  0  0  3  0  0  0  0  0  0
  -28.2770  -26.4060   20.2590 O   0  0  0  0  0  0  0  0  0  0  0  0
  -24.5680  -31.8900   23.2400 C   0  0  0  0  0  0  0  0  0  0  0  0
  -27.1750  -27.2910   20.1900 C   0  0  0  0  0  0  0  0  0  0  0  0
  -23.3640  -30.4860   21.6070 C   0  0  0  0  0  3  0  0  0  0  0  0
  -24.8150  -28.9340   20.1760 C   0  0  0  0  0  0  0  0  0  0  0  0
  -25.9070  -30.7970   21.4220 C   0  0  0  0  0  2  0  0  0  0  0  0
  -25.9870  -29.4150   20.7720 C   0  0  0  0  0  0  0  0  0  0  0  0
  -27.1700  -28.6060   20.7660 C   0  0  0  0  0  3  0  0  0  0  0  0
  -25.9800  -26.8810   19.5580 C   0  0  0  0  0  3  0  0  0  0  0  0
  -24.8170  -27.6750   19.5580 C   0  0  0  0  0  3  0  0  0  0  0  0
  -23.5780  -29.8100   20.2260 C   0  0  0  0  0  2  0  0  0  0  0  0
  -24.6320  -31.0770   22.1440 N   0  0  0  0  0  0  0  0  0  0  0  0
  -23.4840  -32.1680   23.7750 O   0  0  0  0  0  0  0  0  0  0  0  0
  -22.7040  -29.4710   22.5700 C   0  0  0  0  0  0  0  0  0  0  0  0
  -21.3770  -29.2900   22.4450 N   0  0  0  0  0  0  0  0  0  0  0  0
  -23.3840  -28.8480   23.3900 O   0  0  0  0  0  0  0  0  0  0  0  0
  -20.8870  -29.8440   21.7570 H   0  0  0  0  0  0  0  0  0  0  0  0
  -18.0030  -28.0890   22.9570 C   0  0  0  0  0  0  0  0  0  0  0  0
  -20.5620  -28.3520   23.2200 C   0  0  0  0  0  3  0  0  0  0  0  0
  -20.6640  -26.9200   22.6470 C   0  0  0  0  0  2  0  0  0  0  0  0
  -19.5600  -26.5940   21.6360 C   0  0  0  0  0  2  0  0  0  0  0  0
  -18.1800  -26.7380   22.2840 C   0  0  0  0  0  2  0  0  0  0  0  0
  -19.1210  -28.8530   23.3830 C   0  0  0  0  0  0  0  0  0  0  0  0
  -18.9030  -30.1160   23.9740 C   0  0  0  0  0  3  0  0  0  0  0  0
  -17.5980  -30.6150   24.1450 C   0  0  0  0  0  3  0  0  0  0  0  0
  -16.4930  -29.8470   23.7350 C   0  0  0  0  0  3  0  0  0  0  0  0
  -16.6960  -28.5860   23.1480 C   0  0  0  0  0  3  0  0  0  0  0  0
  -25.8490  -32.5280   23.8590 C   0  0  0  0  0  3  0  0  0  0  0  0
  -26.3760  -31.7550   25.1300 C   0  0  1  0  0  0  0  0  0  0  0  0
  -25.2890  -31.5060   26.2010 C   0  0  0  0  0  1  0  0  0  0  0  0
  -26.9660  -30.3820   24.7310 C   0  0  0  0  0  1  0  0  0  0  0  0
  -27.5240  -32.5540   25.7900 C   0  0  0  0  0  1  0  0  0  0  0  0
  -25.5320  -33.9220   24.1990 N   0  0  0  0  0  0  0  0  0  0  0  0
  -25.8460  -34.9830   23.4430 C   0  0  0  0  0  0  0  0  0  0  0  0
  -26.5040  -34.8910   22.4020 O   0  0  0  0  0  0  0  0  0  0  0  0
  -24.9450  -34.0670   25.0080 H   0  0  0  0  0  0  0  0  0  0  0  0
  -24.0960  -36.7630   23.1300 C   0  0  0  0  0  1  0  0  0  0  0  0
  -25.3550  -36.3650   23.9160 C   0  0  0  0  0  3  0  0  0  0  0  0
  -27.4960  -37.2670   24.7120 C   0  0  0  0  0  1  0  0  0  0  0  0
  -26.3760  -37.4290   23.7900 N   0  0  0  0  0  0  0  0  0  0  0  0
  -25.9650  -38.3440   23.9480 H   0  0  0  0  0  0  0  0  0  0  0  0
  -29.1640  -18.5200   20.6130 C   0  0  0  0  0  2  0  0  0  0  0  0
  -31.6790  -17.9150   20.5620 C   0  0  0  0  0  1  0  0  0  0  0  0
  -30.2730  -17.4040   20.1840 C   0  0  0  0  0  3  0  0  0  0  0  0
  -30.6980  -14.7880   20.1020 C   0  0  0  0  0  0  0  0  0  0  0  0
  -30.3870  -12.5770   18.9540 C   0  0  0  0  0  2  0  0  0  0  0  0
  -29.3750  -12.7080   17.7930 C   0  0  0  0  0  2  0  0  0  0  0  0
  -27.9320  -12.5190   18.2960 C   0  0  0  0  0  2  0  0  0  0  0  0
  -27.6440  -13.3410   19.5800 C   0  0  0  0  0  3  0  0  0  0  0  0
  -28.7630  -13.1550   20.6220 C   0  0  0  0  0  2  0  0  0  0  0  0
  -30.0270  -13.5780   19.9950 N   0  0  0  0  0  0  0  0  0  0  0  0
  -31.7890  -14.8970   19.5320 O   0  0  0  0  0  0  0  0  0  0  0  0
  -29.6440  -15.8730   22.0390 C   0  0  0  0  0  1  0  0  0  0  0  0
  -30.0720  -15.9300   20.6340 N   0  0  0  0  0  0  0  0  0  0  0  0
  -25.3050  -13.9100   20.4650 C   0  0  0  0  0  0  0  0  0  0  0  0
  -24.2610  -13.1250   20.8740 C   0  0  0  0  0  0  0  0  0  0  0  0
  -24.7190  -11.7750   20.7730 C   0  0  0  0  0  0  0  0  0  0  0  0
  -26.3290  -13.0380   20.1370 N   0  0  0  0  0  0  0  0  0  0  0  0
  -25.9880  -11.7460   20.3830 N   0  0  0  0  0  0  0  0  0  0  0  0
  -24.0030  -10.5070   20.9670 C   0  0  0  0  0  0  0  0  0  0  0  0
  -24.4620   -9.5310   21.8800 C   0  0  0  0  0  3  0  0  0  0  0  0
  -23.7460   -8.3290   22.0630 C   0  0  0  0  0  3  0  0  0  0  0  0
  -22.5560   -8.0940   21.3340 C   0  0  0  0  0  0  0  0  0  0  0  0
  -22.1160   -9.0580   20.4110 C   0  0  0  0  0  3  0  0  0  0  0  0
  -22.8320  -10.2520   20.2260 C   0  0  0  0  0  3  0  0  0  0  0  0
  -21.8090   -6.9450   21.4280 O   0  0  0  0  0  0  0  0  0  0  0  0
  -21.7530   -6.2150   22.5880 C   0  0  0  0  0  0  0  0  0  0  0  0
  -21.3210   -6.7860   23.8060 C   0  0  0  0  0  3  0  0  0  0  0  0
  -21.2110   -5.9840   24.9590 C   0  0  0  0  0  3  0  0  0  0  0  0
  -21.5210   -4.6120   24.8950 C   0  0  0  0  0  0  0  0  0  0  0  0
  -21.9450   -4.0420   23.6820 C   0  0  0  0  0  3  0  0  0  0  0  0
  -22.0570   -4.8400   22.5320 C   0  0  0  0  0  0  0  0  0  0  0  0
  -22.4450   -4.2810   21.3610 F   0  0  0  0  0  0  0  0  0  0  0  0
  -21.4080   -3.8390   26.0000 F   0  0  0  0  0  0  0  0  0  0  0  0
  -22.8840  -13.5930   21.2440 C   0  0  0  0  0  0  0  0  0  0  0  0
  -22.2130  -12.8760   22.1380 N   0  0  0  0  0  0  0  0  0  0  0  0
  -22.4130  -14.6290   20.7770 O   0  0  0  0  0  0  0  0  0  0  0  0
  -22.6070  -12.0370   22.5370 H   0  0  0  0  0  0  0  0  0  0  0  0
  -21.2910  -13.1700   22.4280 H   0  0  0  0  0  0  0  0  0  0  0  0
  -25.4620  -15.2850   20.3240 N   0  0  0  0  0  0  0  0  0  0  0  0
  -24.7100  -15.9390   20.5100 H   0  0  0  0  0  0  0  0  0  0  0  0
  -26.2990  -15.7330   19.9720 H   0  0  0  0  0  0  0  0  0  0  0  0
  2  6  1  0
  2  1  2  0
  3  4  2  0
  3  2  1  0
  4  5  1  0
  5 49  1  0
  5  1  1  0
  7  8  1  0
  7  6  2  0
  9 20  2  0
 10  8  1  0
 10 15  1  0
 11 19  1  0
 11 21  1  0
 12 18  1  0
 12 14  1  0
 13 19  1  0
 14 13  1  0
 15 14  2  0
 16 10  2  0
 17 16  1  0
 17 12  2  0
 18 11  1  0
 19  9  1  0
 21 23  2  0
 22 21  1  0
 24 22  1  0
 25 34  2  0
 25 30  1  0
 26 22  1  0
 26 30  1  0
 27 26  1  0
 28 29  1  0
 28 27  1  0
 29 25  1  0
 30 31  2  0
 31 32  1  0
 33 32  2  0
 34 33  1  0
 35  9  1  0
 35 40  1  0
 35 36  1  0
 36 39  1  1
 36 37  1  0
 38 36  1  0
 40 43  1  0
 41 45  1  0
 41 40  1  0
 42 41  2  0
 45 44  1  0
 47 45  1  0
 47 48  1  0
 47 46  1  0
 51 50  1  0
 51 49  1  0
 51 61  1  0
 52 61  1  0
 53 58  1  0
 54 55  1  0
 54 53  1  0
 56 55  1  0
 56 65  1  0
 56 57  1  0
 58 52  1  0
 58 57  1  0
 59 52  2  0
 61 60  1  0
 62 63  2  0
 63 82  1  0
 64 63  1  0
 64 67  1  0
 65 66  1  0
 65 62  1  0
 66 64  2  0
 67 68  1  0
 68 69  2  0
 70 73  1  0
 70 69  1  0
 71 70  2  0
 72 71  1  0
 72 67  2  0
 73 74  1  0
 74 75  1  0
 75 76  2  0
 77 76  1  0
 77 81  1  0
 78 77  2  0
 79 74  2  0
 79 78  1  0
 80 79  1  0
 82 83  1  0
 83 86  1  0
 83 85  1  0
 84 82  2  0
 87 62  1  0
 87 88  1  0
 89 87  1  0
M  ISO  4   7 101   8 101  52 100  61 100
M  END
>  <TORSDO>  (3) 
F 20

>  <SCORE>  (3) 
-13.178

>  <name>  (3) 
2

>  <ligand_id>  (3) 
2

>  <original_smiles>  (3) 
[H]c1c([H])c([H])c2c(c1[H])C([H])([H])C([H])([H])C([H])([H])C2([H])N([H])C(=O)C1([H])N(C(=O)C([H])(N([H])C(=O)C([H])(N([H])C([H])([H])[H])C([H])([H])[H])C(C([H])([H])[H])(C([H])([H])[H])C([H])([H])[H])C([H])([H])c2c([H])c(OC([H])([H])C([H])([H])c3nnn(C([H])([H])C([H])(N(C(=O)N4C([H])([H])C([H])([H])C([H])([H])C([H])(n5nc(-c6c([H])c([H])c(Oc7c([H])c([H])c(F)c([H])c7F)c([H])c6[H])c(C(=O)N([H])[H])c5N([H])[H])C4([H])[H])C([H])([H])[H])C([H])([H])[H])c3[H])c([H])c([H])c2C1([H])[H]

>  <smiles>  (3) 
[H]c1c([H])c([H])c2c(c1[H])C([H])([H])C([H])([H])C([H])([H])C2([H])N([H])C(=O)C1([H])N(C(=O)C([H])(N([H])C(=O)C([H])(N([H])C([H])([H])[H])C([H])([H])[H])C(C([H])([H])[H])(C([H])([H])[H])C([H])([H])[H])C([H])([H])c2c([H])c(OC([H])([H])C([H])([H])c3nnn(C([H])([H])C([H])(N(C(=O)N4C([H])([H])C([H])([H])C([H])([H])C([H])(n5nc(-c6c([H])c([H])c(Oc7c([H])c([H])c(F)c([H])c7F)c([H])c6[H])c(C(=O)N([H])[H])c5N([H])[H])C4([H])[H])C([H])([H])[H])C([H])([H])[H])c3[H])c([H])c([H])c2C1([H])[H]

$$$$
3:0:0
     RDKit          3D

 90 98  0  0  1  0  0  0  0  0999 V2000
  -28.4060  -21.2670   21.8780 C   0  0  0  0  0  1  0  0  0  0  0  0
  -28.7900  -21.2020   20.3900 C   0  0  0  0  0  3  0  0  0  0  0  0
  -29.6350  -18.6770   20.9150 C   0  0  0  0  0  3  0  0  0  0  0  0
  -29.9740  -17.9630   18.9240 C   0  0  0  0  0  3  0  0  0  0  0  0
  -29.4020  -19.7690   20.0710 C   0  0  0  0  0  0  0  0  0  0  0  0
  -29.6280  -19.2620   18.7810 N   0  0  0  0  0  0  0  0  0  0  0  0
  -29.9720  -17.4930   20.1870 N   0  0  0  0  0  0  0  0  0  0  0  0
  -29.2610  -15.8210   21.8620 C   0  0  0  0  0  1  0  0  0  0  0  0
  -31.6420  -16.3320   21.5270 C   0  0  0  0  0  1  0  0  0  0  0  0
  -30.3090  -16.1120   20.7670 C   0  0  2  0  0  0  0  0  0  0  0  0
  -30.6180  -14.8370   19.7890 C   0  0  0  0  0  0  0  0  0  0  0  0
  -30.2670  -12.6410   18.6030 C   0  0  0  0  0  2  0  0  0  0  0  0
  -29.2020  -12.7710   17.4890 C   0  0  0  0  0  2  0  0  0  0  0  0
  -27.7810  -12.5670   18.0490 C   0  0  0  0  0  2  0  0  0  0  0  0
  -27.5480  -13.3680   19.3550 C   0  0  0  0  0  3  0  0  0  0  0  0
  -28.7130  -13.1430   20.3360 C   0  0  0  0  0  2  0  0  0  0  0  0
  -29.9480  -13.6190   19.6840 N   0  0  0  0  0  0  0  0  0  0  0  0
  -31.6220  -14.9730   19.0800 O   0  0  0  0  0  0  0  0  0  0  0  0
  -25.2480  -13.9280   20.3480 C   0  0  0  0  0  0  0  0  0  0  0  0
  -24.2240  -13.1380   20.7950 C   0  0  0  0  0  0  0  0  0  0  0  0
  -24.6780  -11.7910   20.6570 C   0  0  0  0  0  0  0  0  0  0  0  0
  -26.2580  -13.0610   19.9640 N   0  0  0  0  0  0  0  0  0  0  0  0
  -25.9280  -11.7670   20.2080 N   0  0  0  0  0  0  0  0  0  0  0  0
  -23.9730  -10.5210   20.8730 C   0  0  0  0  0  0  0  0  0  0  0  0
  -24.4450   -9.5610   21.7950 C   0  0  0  0  0  3  0  0  0  0  0  0
  -23.7370   -8.3580   21.9980 C   0  0  0  0  0  3  0  0  0  0  0  0
  -22.5470   -8.1050   21.2760 C   0  0  0  0  0  0  0  0  0  0  0  0
  -22.0960   -9.0530   20.3420 C   0  0  0  0  0  3  0  0  0  0  0  0
  -22.8030  -10.2500   20.1370 C   0  0  0  0  0  3  0  0  0  0  0  0
  -21.8110   -6.9500   21.3870 O   0  0  0  0  0  0  0  0  0  0  0  0
  -21.7380   -6.2520   22.5660 C   0  0  0  0  0  0  0  0  0  0  0  0
  -21.2630   -6.8450   23.7560 C   0  0  0  0  0  3  0  0  0  0  0  0
  -21.1340   -6.0710   24.9270 C   0  0  0  0  0  3  0  0  0  0  0  0
  -21.4780   -4.7060   24.9100 C   0  0  0  0  0  0  0  0  0  0  0  0
  -21.9520   -4.1140   23.7250 C   0  0  0  0  0  3  0  0  0  0  0  0
  -22.0770   -4.8840   22.5560 C   0  0  0  0  0  0  0  0  0  0  0  0
  -22.5110   -4.3030   21.4120 F   0  0  0  0  0  0  0  0  0  0  0  0
  -21.3510   -3.9600   26.0320 F   0  0  0  0  0  0  0  0  0  0  0  0
  -22.8650  -13.6020   21.2340 C   0  0  0  0  0  0  0  0  0  0  0  0
  -22.2360  -12.8730   22.1510 N   0  0  0  0  0  0  0  0  0  0  0  0
  -22.3730  -14.6430   20.8020 O   0  0  0  0  0  0  0  0  0  0  0  0
  -22.6460  -12.0250   22.5100 H   0  0  0  0  0  0  0  0  0  0  0  0
  -21.3320  -13.1670   22.4910 H   0  0  0  0  0  0  0  0  0  0  0  0
  -25.3990  -15.3040   20.2170 N   0  0  0  0  0  0  0  0  0  0  0  0
  -24.6570  -15.9570   20.4420 H   0  0  0  0  0  0  0  0  0  0  0  0
  -26.2290  -15.7550   19.8540 H   0  0  0  0  0  0  0  0  0  0  0  0
  -29.5610  -22.5500   19.9550 C   0  0  0  0  0  2  0  0  0  0  0  0
  -29.2010  -24.0530   20.4740 C   0  0  0  0  0  2  0  0  0  0  0  0
  -28.1650  -25.0550   19.7630 C   0  0  0  0  0  2  0  0  0  0  0  0
  -28.2890  -26.5270   20.0260 O   0  0  0  0  0  0  0  0  0  0  0  0
  -24.5810  -31.8700   23.1870 C   0  0  0  0  0  0  0  0  0  0  0  0
  -27.1590  -27.3730   19.9910 C   0  0  0  0  0  0  0  0  0  0  0  0
  -23.3460  -30.4810   21.5650 C   0  0  0  0  0  3  0  0  0  0  0  0
  -24.7720  -28.9710   20.0700 C   0  0  0  0  0  0  0  0  0  0  0  0
  -25.8760  -30.8350   21.3050 C   0  0  0  0  0  2  0  0  0  0  0  0
  -25.9560  -29.4660   20.6340 C   0  0  0  0  0  0  0  0  0  0  0  0
  -27.1510  -28.6820   20.5770 C   0  0  0  0  0  3  0  0  0  0  0  0
  -25.9500  -26.9440   19.3930 C   0  0  0  0  0  3  0  0  0  0  0  0
  -24.7740  -27.7180   19.4380 C   0  0  0  0  0  3  0  0  0  0  0  0
  -23.5260  -29.8290   20.1690 C   0  0  0  0  0  2  0  0  0  0  0  0
  -24.6230  -31.0790   22.0760 N   0  0  0  0  0  0  0  0  0  0  0  0
  -23.5090  -32.1260   23.7570 O   0  0  0  0  0  0  0  0  0  0  0  0
  -22.7250  -29.4420   22.5280 C   0  0  0  0  0  0  0  0  0  0  0  0
  -21.4030  -29.2200   22.4100 N   0  0  0  0  0  0  0  0  0  0  0  0
  -23.4270  -28.8340   23.3410 O   0  0  0  0  0  0  0  0  0  0  0  0
  -20.8920  -29.7610   21.7270 H   0  0  0  0  0  0  0  0  0  0  0  0
  -18.0780  -27.8800   22.8940 C   0  0  0  0  0  0  0  0  0  0  0  0
  -20.6200  -28.2540   23.1840 C   0  0  0  0  0  3  0  0  0  0  0  0
  -20.7900  -26.8250   22.6190 C   0  0  0  0  0  2  0  0  0  0  0  0
  -19.7130  -26.4450   21.6000 C   0  0  0  0  0  2  0  0  0  0  0  0
  -18.3190  -26.5370   22.2280 C   0  0  0  0  0  2  0  0  0  0  0  0
  -19.1580  -28.6930   23.3280 C   0  0  0  0  0  0  0  0  0  0  0  0
  -18.8790  -29.9510   23.9040 C   0  0  0  0  0  3  0  0  0  0  0  0
  -17.5540  -30.3960   24.0540 C   0  0  0  0  0  3  0  0  0  0  0  0
  -16.4870  -29.5780   23.6430 C   0  0  0  0  0  3  0  0  0  0  0  0
  -16.7490  -28.3220   23.0680 C   0  0  0  0  0  3  0  0  0  0  0  0
  -25.8700  -32.5120   23.7810 C   0  0  0  0  0  3  0  0  0  0  0  0
  -25.5650  -33.9160   24.0930 N   0  0  0  0  0  0  0  0  0  0  0  0
  -25.8880  -34.9570   23.3150 C   0  0  0  0  0  0  0  0  0  0  0  0
  -26.5440  -34.8390   22.2760 O   0  0  0  0  0  0  0  0  0  0  0  0
  -24.9780  -34.0850   24.8960 H   0  0  0  0  0  0  0  0  0  0  0  0
  -24.1540  -36.7470   22.9710 C   0  0  0  0  0  1  0  0  0  0  0  0
  -25.4110  -36.3520   23.7610 C   0  0  0  0  0  3  0  0  0  0  0  0
  -27.5590  -37.2520   24.5370 C   0  0  0  0  0  1  0  0  0  0  0  0
  -26.4410  -37.4030   23.6100 N   0  0  0  0  0  0  0  0  0  0  0  0
  -26.0370  -38.3270   23.7490 H   0  0  0  0  0  0  0  0  0  0  0  0
  -26.4000  -31.7600   25.0640 C   0  0  1  0  0  0  0  0  0  0  0  0
  -25.3190  -31.5310   26.1450 C   0  0  0  0  0  1  0  0  0  0  0  0
  -26.9830  -30.3790   24.6840 C   0  0  0  0  0  1  0  0  0  0  0  0
  -27.5520  -32.5710   25.7070 C   0  0  0  0  0  1  0  0  0  0  0  0
  2  1  1  0
  4  7  1  0
  5  2  1  0
  5  3  2  0
  6  4  2  0
  6  5  1  0
  7 10  1  0
  7  3  1  0
 10  9  1  1
 10  8  1  0
 11 10  1  0
 12 17  1  0
 13 14  1  0
 13 12  1  0
 15 14  1  0
 15 22  1  0
 15 16  1  0
 17 11  1  0
 17 16  1  0
 18 11  2  0
 19 20  2  0
 20 39  1  0
 21 20  1  0
 21 24  1  0
 22 23  1  0
 22 19  1  0
 23 21  2  0
 24 25  1  0
 25 26  2  0
 27 30  1  0
 27 26  1  0
 28 27  2  0
 29 28  1  0
 29 24  2  0
 30 31  1  0
 31 32  1  0
 32 33  2  0
 34 33  1  0
 34 38  1  0
 35 34  2  0
 36 31  2  0
 36 35  1  0
 37 36  1  0
 39 40  1  0
 40 43  1  0
 40 42  1  0
 41 39  2  0
 44 19  1  0
 44 45  1  0
 46 44  1  0
 47  2  1  0
 47 48  1  0
 49 50  1  0
 49 48  1  0
 51 62  2  0
 52 50  1  0
 52 57  1  0
 53 61  1  0
 53 63  1  0
 54 60  1  0
 54 56  1  0
 55 61  1  0
 56 55  1  0
 57 56  2  0
 58 59  1  0
 58 52  2  0
 59 54  2  0
 60 53  1  0
 61 51  1  0
 63 65  2  0
 64 63  1  0
 66 64  1  0
 67 76  2  0
 67 72  1  0
 68 64  1  0
 68 72  1  0
 69 68  1  0
 70 71  1  0
 70 69  1  0
 71 67  1  0
 72 73  2  0
 73 74  1  0
 75 74  2  0
 76 75  1  0
 77 51  1  0
 77 78  1  0
 77 87  1  0
 78 81  1  0
 79 83  1  0
 79 78  1  0
 80 79  2  0
 83 82  1  0
 85 86  1  0
 85 83  1  0
 85 84  1  0
 87 90  1  1
 87 88  1  0
 89 87  1  0
M  ISO  4  10 100  11 100  49 101  50 101
M  END
>  <TORSDO>  (4) 
F 21

>  <SCORE>  (4) 
-11.610

>  <name>  (4) 
3

>  <ligand_id>  (4) 
3

>  <original_smiles>  (4) 
[H]c1c([H])c([H])c2c(c1[H])C([H])([H])C([H])([H])C([H])([H])C2([H])N([H])C(=O)C1([H])N(C(=O)C([H])(N([H])C(=O)C([H])(N([H])C([H])([H])[H])C([H])([H])[H])C(C([H])([H])[H])(C([H])([H])[H])C([H])([H])[H])C([H])([H])c2c([H])c(OC([H])([H])C([H])([H])C([H])([H])C([H])(c3nc([H])n(C(C(=O)N4C([H])([H])C([H])([H])C([H])([H])C([H])(n5nc(-c6c([H])c([H])c(Oc7c([H])c([H])c(F)c([H])c7F)c([H])c6[H])c(C(=O)N([H])[H])c5N([H])[H])C4([H])[H])(C([H])([H])[H])C([H])([H])[H])c3[H])C([H])([H])[H])c([H])c([H])c2C1([H])[H]

>  <smiles>  (4) 
[H]c1c([H])c([H])c2c(c1[H])C([H])([H])C([H])([H])C([H])([H])C2([H])N([H])C(=O)C1([H])N(C(=O)C([H])(N([H])C(=O)C([H])(N([H])C([H])([H])[H])C([H])([H])[H])C(C([H])([H])[H])(C([H])([H])[H])C([H])([H])[H])C([H])([H])c2c([H])c(OC([H])([H])C([H])([H])C([H])([H])C([H])(c3nc([H])n(C(C(=O)N4C([H])([H])C([H])([H])C([H])([H])C([H])(n5nc(-c6c([H])c([H])c(Oc7c([H])c([H])c(F)c([H])c7F)c([H])c6[H])c(C(=O)N([H])[H])c5N([H])[H])C4([H])[H])(C([H])([H])[H])C([H])([H])[H])c3[H])C([H])([H])[H])c([H])c([H])c2C1([H])[H]

$$$$
4:0:0
     RDKit          3D

 89 97  0  0  1  0  0  0  0  0999 V2000
  -30.0830  -21.0640   21.0230 C   0  0  0  0  0  3  0  0  0  0  0  0
  -29.4780  -19.8580   20.4400 C   0  0  0  0  0  0  0  0  0  0  0  0
  -27.9250  -21.6170   19.6250 C   0  0  0  0  0  0  0  0  0  0  0  0
  -28.5340  -22.8250   20.2090 C   0  0  0  0  0  0  0  0  0  0  0  0
  -26.6590  -21.7720   18.8020 C   0  0  0  0  0  1  0  0  0  0  0  0
  -29.6590  -22.4280   20.9280 N   0  0  0  0  0  0  0  0  0  0  0  0
  -28.3550  -20.2580   19.7280 N   0  0  0  0  0  0  0  0  0  0  0  0
  -30.0780  -18.2360   20.7020 C   0  0  0  0  0  2  0  0  0  0  0  0
  -30.4890  -15.3950   20.2840 C   0  0  0  0  0  0  0  0  0  0  0  0
  -30.4550  -12.9560   19.4120 C   0  0  0  0  0  2  0  0  0  0  0  0
  -29.5290  -12.7150   18.1960 C   0  0  0  0  0  2  0  0  0  0  0  0
  -28.0910  -12.4140   18.6540 C   0  0  0  0  0  2  0  0  0  0  0  0
  -27.6210  -13.3760   19.7710 C   0  0  0  0  0  3  0  0  0  0  0  0
  -28.6810  -13.5950   20.8740 C   0  0  0  0  0  2  0  0  0  0  0  0
  -29.8930  -14.1050   20.2060 N   0  0  0  0  0  0  0  0  0  0  0  0
  -31.7270  -15.3520   20.2470 O   0  0  0  0  0  0  0  0  0  0  0  0
  -29.7710  -16.6990   20.1740 N   0  0  0  0  0  0  0  0  0  0  0  0
  -25.2530  -13.9280   20.5270 C   0  0  0  0  0  0  0  0  0  0  0  0
  -24.1950  -13.1430   20.8870 C   0  0  0  0  0  0  0  0  0  0  0  0
  -24.6770  -11.7970   20.8610 C   0  0  0  0  0  0  0  0  0  0  0  0
  -26.3030  -13.0580   20.2920 N   0  0  0  0  0  0  0  0  0  0  0  0
  -25.9700  -11.7720   20.5610 N   0  0  0  0  0  0  0  0  0  0  0  0
  -23.9650  -10.5280   21.0450 C   0  0  0  0  0  0  0  0  0  0  0  0
  -24.4030   -9.5650   21.9810 C   0  0  0  0  0  3  0  0  0  0  0  0
  -23.6890   -8.3610   22.1560 C   0  0  0  0  0  3  0  0  0  0  0  0
  -22.5220   -8.1120   21.3940 C   0  0  0  0  0  0  0  0  0  0  0  0
  -22.1040   -9.0630   20.4480 C   0  0  0  0  0  3  0  0  0  0  0  0
  -22.8190  -10.2590   20.2710 C   0  0  0  0  0  3  0  0  0  0  0  0
  -21.7790   -6.9600   21.4800 O   0  0  0  0  0  0  0  0  0  0  0  0
  -21.7320   -6.2170   22.6330 C   0  0  0  0  0  0  0  0  0  0  0  0
  -21.2750   -6.7630   23.8520 C   0  0  0  0  0  3  0  0  0  0  0  0
  -21.1780   -5.9460   24.9960 C   0  0  0  0  0  3  0  0  0  0  0  0
  -21.5280   -4.5840   24.9210 C   0  0  0  0  0  0  0  0  0  0  0  0
  -21.9800   -4.0390   23.7060 C   0  0  0  0  0  3  0  0  0  0  0  0
  -22.0790   -4.8540   22.5640 C   0  0  0  0  0  0  0  0  0  0  0  0
  -22.4940   -4.3180   21.3910 F   0  0  0  0  0  0  0  0  0  0  0  0
  -21.4280   -3.7970   26.0170 F   0  0  0  0  0  0  0  0  0  0  0  0
  -22.7910  -13.6050   21.1420 C   0  0  0  0  0  0  0  0  0  0  0  0
  -22.0660  -12.9090   22.0100 N   0  0  0  0  0  0  0  0  0  0  0  0
  -22.3460  -14.6210   20.6090 O   0  0  0  0  0  0  0  0  0  0  0  0
  -22.4400  -12.0890   22.4630 H   0  0  0  0  0  0  0  0  0  0  0  0
  -21.1230  -13.2010   22.2240 H   0  0  0  0  0  0  0  0  0  0  0  0
  -25.4030  -15.3010   20.3490 N   0  0  0  0  0  0  0  0  0  0  0  0
  -24.6320  -15.9490   20.4680 H   0  0  0  0  0  0  0  0  0  0  0  0
  -26.2590  -15.7540   20.0580 H   0  0  0  0  0  0  0  0  0  0  0  0
  -29.7290  -17.4580   17.7940 C   0  0  0  0  0  1  0  0  0  0  0  0
  -28.9410  -16.8620   18.9740 C   0  0  0  0  0  2  0  0  0  0  0  0
  -27.8160  -24.4170   20.0650 C   0  0  0  0  0  2  0  0  0  0  0  0
  -28.1900  -25.9790   20.3560 O   0  0  0  0  0  0  0  0  0  0  0  0
  -24.6470  -31.9510   23.2940 C   0  0  0  0  0  0  0  0  0  0  0  0
  -27.1960  -27.0860   20.2790 C   0  0  0  0  0  0  0  0  0  0  0  0
  -23.4490  -30.5570   21.6580 C   0  0  0  0  0  3  0  0  0  0  0  0
  -24.8970  -28.9560   20.2350 C   0  0  0  0  0  0  0  0  0  0  0  0
  -26.0160  -30.7680   21.5100 C   0  0  0  0  0  2  0  0  0  0  0  0
  -26.0850  -29.3610   20.8550 C   0  0  0  0  0  0  0  0  0  0  0  0
  -27.2300  -28.4470   20.8560 C   0  0  0  0  0  3  0  0  0  0  0  0
  -25.9780  -26.8340   19.6060 C   0  0  0  0  0  3  0  0  0  0  0  0
  -24.8660  -27.7120   19.5910 C   0  0  0  0  0  3  0  0  0  0  0  0
  -23.6770  -29.8750   20.2820 C   0  0  0  0  0  2  0  0  0  0  0  0
  -24.7260  -31.1180   22.2080 N   0  0  0  0  0  0  0  0  0  0  0  0
  -23.5580  -32.2440   23.8150 O   0  0  0  0  0  0  0  0  0  0  0  0
  -22.7550  -29.5610   22.6230 C   0  0  0  0  0  0  0  0  0  0  0  0
  -21.4260  -29.3890   22.4890 N   0  0  0  0  0  0  0  0  0  0  0  0
  -23.4170  -28.9440   23.4610 O   0  0  0  0  0  0  0  0  0  0  0  0
  -20.9450  -29.9370   21.7900 H   0  0  0  0  0  0  0  0  0  0  0  0
  -18.0470  -28.1600   22.9720 C   0  0  0  0  0  0  0  0  0  0  0  0
  -20.6020  -28.4530   23.2610 C   0  0  0  0  0  3  0  0  0  0  0  0
  -20.7220  -27.0150   22.7040 C   0  0  0  0  0  2  0  0  0  0  0  0
  -19.6340  -26.6710   21.6810 C   0  0  0  0  0  2  0  0  0  0  0  0
  -18.2440  -26.8070   22.3090 C   0  0  0  0  0  2  0  0  0  0  0  0
  -19.1530  -28.9390   23.4050 C   0  0  0  0  0  0  0  0  0  0  0  0
  -18.9120  -30.2020   23.9890 C   0  0  0  0  0  3  0  0  0  0  0  0
  -17.6010  -30.6870   24.1400 C   0  0  0  0  0  3  0  0  0  0  0  0
  -16.5090  -29.9070   23.7210 C   0  0  0  0  0  3  0  0  0  0  0  0
  -16.7330  -28.6450   23.1440 C   0  0  0  0  0  3  0  0  0  0  0  0
  -25.9200  -32.5910   23.9250 C   0  0  0  0  0  3  0  0  0  0  0  0
  -26.4090  -31.8420   25.2270 C   0  0  1  0  0  0  0  0  0  0  0  0
  -25.2970  -31.6380   26.2830 C   0  0  0  0  0  1  0  0  0  0  0  0
  -26.9840  -30.4500   24.8800 C   0  0  0  0  0  1  0  0  0  0  0  0
  -27.5560  -32.6390   25.8900 C   0  0  0  0  0  1  0  0  0  0  0  0
  -25.6130  -33.9980   24.2360 N   0  0  0  0  0  0  0  0  0  0  0  0
  -25.9410  -35.0440   23.4650 C   0  0  0  0  0  0  0  0  0  0  0  0
  -26.5960  -34.9250   22.4270 O   0  0  0  0  0  0  0  0  0  0  0  0
  -25.0290  -34.1630   25.0420 H   0  0  0  0  0  0  0  0  0  0  0  0
  -24.2090  -36.8410   23.1310 C   0  0  0  0  0  1  0  0  0  0  0  0
  -25.4690  -36.4420   23.9140 C   0  0  0  0  0  3  0  0  0  0  0  0
  -27.6230  -37.3410   24.6820 C   0  0  0  0  0  1  0  0  0  0  0  0
  -26.5010  -37.4910   23.7590 N   0  0  0  0  0  0  0  0  0  0  0  0
  -26.1000  -38.4150   23.8970 H   0  0  0  0  0  0  0  0  0  0  0  0
  2  8  1  0
  2  1  2  0
  3  7  2  0
  3  4  1  0
  4  6  2  0
  5  3  1  0
  6  1  1  0
  7  2  1  0
 10 15  1  0
 11 12  1  0
 11 10  1  0
 13 12  1  0
 13 21  1  0
 13 14  1  0
 15  9  1  0
 15 14  1  0
 16  9  2  0
 17  9  1  0
 17  8  1  0
 18 19  2  0
 19 38  1  0
 20 19  1  0
 20 23  1  0
 21 18  1  0
 21 22  1  0
 22 20  2  0
 23 24  1  0
 24 25  2  0
 26 29  1  0
 26 25  1  0
 27 26  2  0
 28 27  1  0
 28 23  2  0
 29 30  1  0
 30 31  1  0
 31 32  2  0
 33 32  1  0
 33 37  1  0
 34 33  2  0
 35 30  2  0
 35 34  1  0
 36 35  1  0
 38 39  1  0
 39 42  1  0
 39 41  1  0
 40 38  2  0
 43 44  1  0
 43 18  1  0
 45 43  1  0
 46 47  1  0
 47 17  1  0
 48  4  1  0
 48 49  1  0
 50 61  2  0
 51 49  1  0
 51 56  1  0
 52 60  1  0
 52 62  1  0
 53 59  1  0
 53 55  1  0
 54 60  1  0
 55 56  2  0
 55 54  1  0
 57 51  2  0
 58 57  1  0
 58 53  2  0
 59 52  1  0
 60 50  1  0
 62 64  2  0
 63 62  1  0
 65 63  1  0
 66 75  2  0
 66 71  1  0
 67 63  1  0
 67 71  1  0
 68 67  1  0
 69 70  1  0
 69 68  1  0
 70 66  1  0
 71 72  2  0
 72 73  1  0
 74 73  2  0
 75 74  1  0
 76 50  1  0
 76 81  1  0
 76 77  1  0
 77 80  1  1
 77 78  1  0
 79 77  1  0
 81 84  1  0
 82 86  1  0
 82 81  1  0
 83 82  2  0
 86 85  1  0
 88 89  1  0
 88 86  1  0
 88 87  1  0
M  ISO  4   9 100  17 100  48 101  49 101
M  END
>  <TORSDO>  (5) 
F 19

>  <SCORE>  (5) 
-15.229

>  <name>  (5) 
4

>  <ligand_id>  (5) 
4

>  <original_smiles>  (5) 
[H]c1nc(C([H])([H])Oc2c([H])c([H])c3c(c2[H])C([H])([H])N(C(=O)C([H])(N([H])C(=O)C([H])(N([H])C([H])([H])[H])C([H])([H])[H])C(C([H])([H])[H])(C([H])([H])[H])C([H])([H])[H])C([H])(C(=O)N([H])C2([H])c4c([H])c([H])c([H])c([H])c4C([H])([H])C([H])([H])C2([H])[H])C3([H])[H])c(C([H])([H])[H])nc1C([H])([H])N(C(=O)N1C([H])([H])C([H])([H])C([H])([H])C([H])(n2nc(-c3c([H])c([H])c(Oc4c([H])c([H])c(F)c([H])c4F)c([H])c3[H])c(C(=O)N([H])[H])c2N([H])[H])C1([H])[H])C([H])([H])C([H])([H])[H]

>  <smiles>  (5) 
[H]c1nc(C([H])([H])Oc2c([H])c([H])c3c(c2[H])C([H])([H])N(C(=O)C([H])(N([H])C(=O)C([H])(N([H])C([H])([H])[H])C([H])([H])[H])C(C([H])([H])[H])(C([H])([H])[H])C([H])([H])[H])C([H])(C(=O)N([H])C2([H])c4c([H])c([H])c([H])c([H])c4C([H])([H])C([H])([H])C2([H])[H])C3([H])[H])c(C([H])([H])[H])nc1C([H])([H])N(C(=O)N1C([H])([H])C([H])([H])C([H])([H])C([H])(n2nc(-c3c([H])c([H])c(Oc4c([H])c([H])c(F)c([H])c4F)c([H])c3[H])c(C(=O)N([H])[H])c2N([H])[H])C1([H])[H])C([H])([H])C([H])([H])[H]

$$$$
5:0:0
     RDKit          3D

 88 96  0  0  1  0  0  0  0  0999 V2000
  -26.8460  -19.9750   19.7340 C   0  0  0  0  0  3  0  0  0  0  0  0
  -28.9180  -19.6430   20.0400 C   0  0  0  0  0  0  0  0  0  0  0  0
  -27.7720  -18.9900   19.8390 N   0  0  0  0  0  0  0  0  0  0  0  0
  -27.2780  -21.2200   19.8410 N   0  0  0  0  0  0  0  0  0  0  0  0
  -28.6220  -21.1430   20.0340 N   0  0  0  0  0  0  0  0  0  0  0  0
  -31.1410  -18.6650   19.0210 C   0  0  0  0  0  1  0  0  0  0  0  0
  -30.1390  -18.4180   20.1570 C   0  0  0  0  0  3  0  0  0  0  0  0
  -30.6360  -15.4660   20.1230 C   0  0  0  0  0  0  0  0  0  0  0  0
  -30.6220  -13.0090   19.2640 C   0  0  0  0  0  2  0  0  0  0  0  0
  -29.6770  -12.7630   18.0610 C   0  0  0  0  0  2  0  0  0  0  0  0
  -28.2470  -12.4660   18.5460 C   0  0  0  0  0  2  0  0  0  0  0  0
  -27.8070  -13.4320   19.6740 C   0  0  0  0  0  3  0  0  0  0  0  0
  -28.8820  -13.6210   20.7650 C   0  0  0  0  0  2  0  0  0  0  0  0
  -30.0770  -14.1530   20.0870 N   0  0  0  0  0  0  0  0  0  0  0  0
  -31.8530  -15.4550   19.8860 O   0  0  0  0  0  0  0  0  0  0  0  0
  -29.8770  -16.7500   20.2220 N   0  0  0  0  0  0  0  0  0  0  0  0
  -28.8920  -16.5720   20.3610 H   0  0  0  0  0  0  0  0  0  0  0  0
  -25.4680  -13.9600   20.5390 C   0  0  0  0  0  0  0  0  0  0  0  0
  -24.4210  -13.1700   20.9190 C   0  0  0  0  0  0  0  0  0  0  0  0
  -24.8860  -11.8220   20.8240 C   0  0  0  0  0  0  0  0  0  0  0  0
  -26.5010  -13.0960   20.2240 N   0  0  0  0  0  0  0  0  0  0  0  0
  -26.1660  -11.8000   20.4640 N   0  0  0  0  0  0  0  0  0  0  0  0
  -24.1650  -10.5540   20.9940 C   0  0  0  0  0  0  0  0  0  0  0  0
  -24.5690   -9.5930   21.9470 C   0  0  0  0  0  3  0  0  0  0  0  0
  -23.8450   -8.3930   22.1080 C   0  0  0  0  0  3  0  0  0  0  0  0
  -22.7000   -8.1430   21.3140 C   0  0  0  0  0  0  0  0  0  0  0  0
  -22.3130   -9.0920   20.3510 C   0  0  0  0  0  3  0  0  0  0  0  0
  -23.0390  -10.2840   20.1890 C   0  0  0  0  0  3  0  0  0  0  0  0
  -21.9500   -6.9930   21.3820 O   0  0  0  0  0  0  0  0  0  0  0  0
  -21.7730   -6.3180   22.5630 C   0  0  0  0  0  0  0  0  0  0  0  0
  -21.1120   -6.9030   23.6660 C   0  0  0  0  0  3  0  0  0  0  0  0
  -20.8910   -6.1490   24.8350 C   0  0  0  0  0  3  0  0  0  0  0  0
  -21.3210   -4.8110   24.9020 C   0  0  0  0  0  0  0  0  0  0  0  0
  -21.9750   -4.2250   23.8040 C   0  0  0  0  0  3  0  0  0  0  0  0
  -22.1970   -4.9760   22.6370 C   0  0  0  0  0  0  0  0  0  0  0  0
  -22.8090   -4.4000   21.5740 F   0  0  0  0  0  0  0  0  0  0  0  0
  -21.1010   -4.0840   26.0220 F   0  0  0  0  0  0  0  0  0  0  0  0
  -23.0350  -13.6380   21.2500 C   0  0  0  0  0  0  0  0  0  0  0  0
  -22.3410  -12.9250   22.1300 N   0  0  0  0  0  0  0  0  0  0  0  0
  -22.5770  -14.6730   20.7660 O   0  0  0  0  0  0  0  0  0  0  0  0
  -22.7240  -12.0890   22.5470 H   0  0  0  0  0  0  0  0  0  0  0  0
  -21.4120  -13.2210   22.3950 H   0  0  0  0  0  0  0  0  0  0  0  0
  -25.6220  -15.3370   20.4030 N   0  0  0  0  0  0  0  0  0  0  0  0
  -24.8550  -15.9800   20.5640 H   0  0  0  0  0  0  0  0  0  0  0  0
  -26.4480  -15.7930   20.0370 H   0  0  0  0  0  0  0  0  0  0  0  0
  -29.1120  -22.7480   20.1530 C   0  0  0  0  0  3  0  0  0  0  0  0
  -28.1200  -24.2820   20.0100 C   0  0  0  0  0  3  0  0  0  0  0  0
  -28.3410  -25.9260   20.2010 O   0  0  0  0  0  0  0  0  0  0  0  0
  -24.6920  -31.8390   23.2440 C   0  0  0  0  0  0  0  0  0  0  0  0
  -27.3250  -27.0300   20.1520 C   0  0  0  0  0  0  0  0  0  0  0  0
  -23.5330  -30.4770   21.5550 C   0  0  0  0  0  3  0  0  0  0  0  0
  -25.0130  -28.9110   20.1170 C   0  0  0  0  0  0  0  0  0  0  0  0
  -26.1020  -30.7010   21.4540 C   0  0  0  0  0  2  0  0  0  0  0  0
  -26.1910  -29.3050   20.7650 C   0  0  0  0  0  0  0  0  0  0  0  0
  -27.3400  -28.3870   20.7550 C   0  0  0  0  0  3  0  0  0  0  0  0
  -26.1150  -26.7940   19.4600 C   0  0  0  0  0  3  0  0  0  0  0  0
  -25.0020  -27.6780   19.4450 C   0  0  0  0  0  3  0  0  0  0  0  0
  -23.7890  -29.8250   20.1670 C   0  0  0  0  0  2  0  0  0  0  0  0
  -24.7970  -31.0320   22.1380 N   0  0  0  0  0  0  0  0  0  0  0  0
  -23.5920  -32.1100   23.7550 O   0  0  0  0  0  0  0  0  0  0  0  0
  -22.8290  -29.4560   22.4860 C   0  0  0  0  0  0  0  0  0  0  0  0
  -21.4990  -29.2950   22.3440 N   0  0  0  0  0  0  0  0  0  0  0  0
  -23.4850  -28.8090   23.3060 O   0  0  0  0  0  0  0  0  0  0  0  0
  -21.0220  -29.8660   21.6620 H   0  0  0  0  0  0  0  0  0  0  0  0
  -18.1040  -28.1050   22.8290 C   0  0  0  0  0  0  0  0  0  0  0  0
  -20.6690  -28.3350   23.0810 C   0  0  0  0  0  3  0  0  0  0  0  0
  -20.7500  -26.9270   22.4450 C   0  0  0  0  0  2  0  0  0  0  0  0
  -19.6370  -26.6590   21.4270 C   0  0  0  0  0  2  0  0  0  0  0  0
  -18.2620  -26.7870   22.0900 C   0  0  0  0  0  2  0  0  0  0  0  0
  -19.2340  -28.8390   23.2800 C   0  0  0  0  0  0  0  0  0  0  0  0
  -19.0290  -30.0730   23.9370 C   0  0  0  0  0  3  0  0  0  0  0  0
  -17.7290  -30.5730   24.1430 C   0  0  0  0  0  3  0  0  0  0  0  0
  -16.6160  -29.8370   23.7040 C   0  0  0  0  0  3  0  0  0  0  0  0
  -16.8030  -28.6030   23.0540 C   0  0  0  0  0  3  0  0  0  0  0  0
  -25.9480  -32.4770   23.9140 C   0  0  0  0  0  3  0  0  0  0  0  0
  -26.4020  -31.7170   25.2220 C   0  0  1  0  0  0  0  0  0  0  0  0
  -25.2630  -31.5000   26.2460 C   0  0  0  0  0  1  0  0  0  0  0  0
  -26.9920  -30.3310   24.8810 C   0  0  0  0  0  1  0  0  0  0  0  0
  -27.5300  -32.5120   25.9230 C   0  0  0  0  0  1  0  0  0  0  0  0
  -25.6320  -33.8810   24.2290 N   0  0  0  0  0  0  0  0  0  0  0  0
  -25.9510  -34.9330   23.4620 C   0  0  0  0  0  0  0  0  0  0  0  0
  -26.6040  -34.8210   22.4220 O   0  0  0  0  0  0  0  0  0  0  0  0
  -25.0480  -34.0390   25.0370 H   0  0  0  0  0  0  0  0  0  0  0  0
  -24.2080  -36.7230   23.1430 C   0  0  0  0  0  1  0  0  0  0  0  0
  -25.4750  -36.3270   23.9200 C   0  0  0  0  0  3  0  0  0  0  0  0
  -27.6170  -37.2480   24.6920 C   0  0  0  0  0  1  0  0  0  0  0  0
  -26.4990  -37.3820   23.7610 N   0  0  0  0  0  0  0  0  0  0  0  0
  -26.0910  -38.3040   23.8880 H   0  0  0  0  0  0  0  0  0  0  0  0
  1  3  1  0
  1  4  2  0
  2  7  1  0
  3  2  2  0
  4  5  1  0
  5  2  1  0
  5 46  1  0
  7  6  1  0
  7 16  1  0
  8 16  1  0
  9 14  1  0
 10 11  1  0
 10  9  1  0
 12 11  1  0
 12 21  1  0
 12 13  1  0
 14  8  1  0
 14 13  1  0
 15  8  2  0
 16 17  1  0
 18 19  2  0
 19 38  1  0
 20 19  1  0
 20 23  1  0
 21 22  1  0
 21 18  1  0
 22 20  2  0
 23 24  1  0
 24 25  2  0
 26 29  1  0
 26 25  1  0
 27 26  2  0
 28 27  1  0
 28 23  2  0
 29 30  1  0
 30 35  2  0
 30 31  1  0
 31 32  2  0
 32 33  1  0
 33 37  1  0
 34 33  2  0
 35 34  1  0
 36 35  1  0
 38 39  1  0
 39 42  1  0
 39 41  1  0
 40 38  2  0
 43 18  1  0
 43 44  1  0
 45 43  1  0
 47 46  2  0
 47 48  1  0
 49 60  2  0
 50 48  1  0
 50 55  1  0
 51 59  1  0
 51 61  1  0
 52 58  1  0
 52 54  1  0
 53 59  1  0
 54 53  1  0
 55 54  2  0
 56 50  2  0
 57 56  1  0
 57 52  2  0
 58 51  1  0
 59 49  1  0
 61 63  2  0
 62 61  1  0
 64 62  1  0
 65 74  2  0
 65 70  1  0
 66 62  1  0
 66 70  1  0
 67 66  1  0
 68 69  1  0
 68 67  1  0
 69 65  1  0
 70 71  2  0
 71 72  1  0
 73 72  2  0
 74 73  1  0
 75 49  1  0
 75 80  1  0
 75 76  1  0
 76 79  1  1
 76 77  1  0
 78 76  1  0
 80 83  1  0
 81 85  1  0
 81 80  1  0
 82 81  2  0
 85 84  1  0
 87 88  1  0
 87 85  1  0
 87 86  1  0
M  ISO  4   8 100  16 100  47 101  48 101
M  END
>  <TORSDO>  (6) 
F 19

>  <SCORE>  (6) 
-15.661

>  <name>  (6) 
5

>  <ligand_id>  (6) 
5

>  <original_smiles>  (6) 
[H]c1nc(C([H])(N([H])C(=O)N2C([H])([H])C([H])([H])C([H])([H])C([H])(n3nc(-c4c([H])c([H])c(Oc5c([H])c([H])c(F)c([H])c5F)c([H])c4[H])c(C(=O)N([H])[H])c3N([H])[H])C2([H])[H])C([H])([H])[H])n(C([H])([H])C([H])([H])Oc2c([H])c([H])c3c(c2[H])C([H])([H])N(C(=O)C([H])(N([H])C(=O)C([H])(N([H])C([H])([H])[H])C([H])([H])[H])C(C([H])([H])[H])(C([H])([H])[H])C([H])([H])[H])C([H])(C(=O)N([H])C2([H])c4c([H])c([H])c([H])c([H])c4C([H])([H])C([H])([H])C2([H])[H])C3([H])[H])n1

>  <smiles>  (6) 
[H]c1nc(C([H])(N([H])C(=O)N2C([H])([H])C([H])([H])C([H])([H])C([H])(n3nc(-c4c([H])c([H])c(Oc5c([H])c([H])c(F)c([H])c5F)c([H])c4[H])c(C(=O)N([H])[H])c3N([H])[H])C2([H])[H])C([H])([H])[H])n(C([H])([H])C([H])([H])Oc2c([H])c([H])c3c(c2[H])C([H])([H])N(C(=O)C([H])(N([H])C(=O)C([H])(N([H])C([H])([H])[H])C([H])([H])[H])C(C([H])([H])[H])(C([H])([H])[H])C([H])([H])[H])C([H])(C(=O)N([H])C2([H])c4c([H])c([H])c([H])c([H])c4C([H])([H])C([H])([H])C2([H])[H])C3([H])[H])n1

$$$$
6:0:0
     RDKit          3D

 89 97  0  0  1  0  0  0  0  0999 V2000
  -28.6340  -20.4060   19.2290 C   0  0  0  0  0  3  0  0  0  0  0  0
  -28.2200  -21.8210   19.1720 C   0  0  0  0  0  3  0  0  0  0  0  0
  -29.4500  -19.7950   20.2600 C   0  0  0  0  0  0  0  0  0  0  0  0
  -28.5600  -22.8690   20.1150 C   0  0  0  0  0  0  0  0  0  0  0  0
  -29.7390  -20.9050   21.1800 C   0  0  0  0  0  0  0  0  0  0  0  0
  -30.6480  -20.6230   22.3590 C   0  0  0  0  0  1  0  0  0  0  0  0
  -29.3140  -22.2730   21.1280 N   0  0  0  0  0  0  0  0  0  0  0  0
  -31.1360  -18.3570   18.9320 C   0  0  0  0  0  1  0  0  0  0  0  0
  -30.2460  -18.2400   20.1830 C   0  0  0  0  0  0  0  0  0  0  0  0
  -30.5470  -15.3570   20.2010 C   0  0  0  0  0  0  0  0  0  0  0  0
  -30.4740  -12.9400   19.2970 C   0  0  0  0  0  2  0  0  0  0  0  0
  -29.5260  -12.7570   18.0870 C   0  0  0  0  0  2  0  0  0  0  0  0
  -28.0900  -12.4810   18.5640 C   0  0  0  0  0  2  0  0  0  0  0  0
  -27.6630  -13.4310   19.7110 C   0  0  0  0  0  3  0  0  0  0  0  0
  -28.7390  -13.5740   20.8080 C   0  0  0  0  0  2  0  0  0  0  0  0
  -29.9530  -14.0700   20.1440 N   0  0  0  0  0  0  0  0  0  0  0  0
  -31.7650  -15.3330   19.9780 O   0  0  0  0  0  0  0  0  0  0  0  0
  -29.8200  -16.6430   20.2910 N   0  0  0  0  0  4  0  0  0  0  0  0
  -28.8300  -16.5060   20.4280 H   0  0  0  0  0  0  0  0  0  0  0  0
  -25.3130  -13.9590   20.5490 C   0  0  0  0  0  0  0  0  0  0  0  0
  -24.2660  -13.1670   20.9270 C   0  0  0  0  0  0  0  0  0  0  0  0
  -24.7400  -11.8200   20.8490 C   0  0  0  0  0  0  0  0  0  0  0  0
  -26.3530  -13.0960   20.2530 N   0  0  0  0  0  0  0  0  0  0  0  0
  -26.0220  -11.8020   20.5030 N   0  0  0  0  0  0  0  0  0  0  0  0
  -24.0240  -10.5490   21.0260 C   0  0  0  0  0  0  0  0  0  0  0  0
  -24.4540   -9.5820   21.9610 C   0  0  0  0  0  3  0  0  0  0  0  0
  -23.7350   -8.3780   22.1270 C   0  0  0  0  0  3  0  0  0  0  0  0
  -22.5730   -8.1320   21.3590 C   0  0  0  0  0  0  0  0  0  0  0  0
  -22.1630   -9.0880   20.4120 C   0  0  0  0  0  3  0  0  0  0  0  0
  -22.8820  -10.2830   20.2440 C   0  0  0  0  0  3  0  0  0  0  0  0
  -21.8270   -6.9810   21.4330 O   0  0  0  0  0  0  0  0  0  0  0  0
  -21.7220   -6.2670   22.6000 C   0  0  0  0  0  0  0  0  0  0  0  0
  -21.1750   -6.8320   23.7740 C   0  0  0  0  0  3  0  0  0  0  0  0
  -21.0220   -6.0410   24.9300 C   0  0  0  0  0  3  0  0  0  0  0  0
  -21.4030   -4.6870   24.9130 C   0  0  0  0  0  0  0  0  0  0  0  0
  -21.9430   -4.1210   23.7450 C   0  0  0  0  0  3  0  0  0  0  0  0
  -22.0980   -4.9090   22.5900 C   0  0  0  0  0  0  0  0  0  0  0  0
  -22.5980   -4.3520   21.4610 F   0  0  0  0  0  0  0  0  0  0  0  0
  -21.2490   -3.9250   26.0220 F   0  0  0  0  0  0  0  0  0  0  0  0
  -22.8730  -13.6280   21.2430 C   0  0  0  0  0  0  0  0  0  0  0  0
  -22.1740  -12.9130   22.1160 N   0  0  0  0  0  0  0  0  0  0  0  0
  -22.4160  -14.6590   20.7500 O   0  0  0  0  0  0  0  0  0  0  0  0
  -22.5580  -12.0810   22.5370 H   0  0  0  0  0  0  0  0  0  0  0  0
  -21.2410  -13.2050   22.3690 H   0  0  0  0  0  0  0  0  0  0  0  0
  -25.4610  -15.3350   20.4020 N   0  0  0  0  0  0  0  0  0  0  0  0
  -24.6920  -15.9780   20.5550 H   0  0  0  0  0  0  0  0  0  0  0  0
  -26.2870  -15.7890   20.0340 H   0  0  0  0  0  0  0  0  0  0  0  0
  -27.7710  -24.4220   20.1470 C   0  0  0  0  0  2  0  0  0  0  0  0
  -28.1870  -25.9990   20.1870 O   0  0  0  0  0  0  0  0  0  0  0  0
  -24.6630  -31.9110   23.2600 C   0  0  0  0  0  0  0  0  0  0  0  0
  -27.1880  -27.0990   20.1540 C   0  0  0  0  0  0  0  0  0  0  0  0
  -23.4520  -30.5360   21.6190 C   0  0  0  0  0  3  0  0  0  0  0  0
  -24.8860  -28.9610   20.1600 C   0  0  0  0  0  0  0  0  0  0  0  0
  -26.0160  -30.7590   21.4460 C   0  0  0  0  0  2  0  0  0  0  0  0
  -26.0820  -29.3620   20.7710 C   0  0  0  0  0  0  0  0  0  0  0  0
  -27.2300  -28.4520   20.7450 C   0  0  0  0  0  3  0  0  0  0  0  0
  -25.9610  -26.8520   19.4940 C   0  0  0  0  0  3  0  0  0  0  0  0
  -24.8500  -27.7260   19.5010 C   0  0  0  0  0  3  0  0  0  0  0  0
  -23.6660  -29.8750   20.2310 C   0  0  0  0  0  2  0  0  0  0  0  0
  -24.7330  -31.0940   22.1620 N   0  0  0  0  0  0  0  0  0  0  0  0
  -23.5790  -32.1930   23.7960 O   0  0  0  0  0  0  0  0  0  0  0  0
  -22.7740  -29.5230   22.5770 C   0  0  0  0  0  0  0  0  0  0  0  0
  -21.4470  -29.3330   22.4430 N   0  0  0  0  0  0  0  0  0  0  0  0
  -23.4450  -28.9080   23.4090 O   0  0  0  0  0  0  0  0  0  0  0  0
  -20.9570  -29.8790   21.7490 H   0  0  0  0  0  0  0  0  0  0  0  0
  -18.0860  -28.0520   22.9170 C   0  0  0  0  0  0  0  0  0  0  0  0
  -20.6360  -28.3810   23.2090 C   0  0  0  0  0  3  0  0  0  0  0  0
  -20.7770  -26.9480   22.6440 C   0  0  0  0  0  2  0  0  0  0  0  0
  -19.6950  -26.5930   21.6190 C   0  0  0  0  0  2  0  0  0  0  0  0
  -18.3040  -26.7060   22.2470 C   0  0  0  0  0  2  0  0  0  0  0  0
  -19.1810  -28.8460   23.3540 C   0  0  0  0  0  0  0  0  0  0  0  0
  -18.9210  -30.1020   23.9430 C   0  0  0  0  0  3  0  0  0  0  0  0
  -17.6020  -30.5670   24.0970 C   0  0  0  0  0  3  0  0  0  0  0  0
  -16.5220  -29.7730   23.6730 C   0  0  0  0  0  3  0  0  0  0  0  0
  -16.7660  -28.5170   23.0890 C   0  0  0  0  0  3  0  0  0  0  0  0
  -25.9410  -32.5470   23.8850 C   0  0  0  0  0  3  0  0  0  0  0  0
  -25.6310  -33.9470   24.2220 N   0  0  0  0  0  0  0  0  0  0  0  0
  -25.9310  -35.0050   23.4570 C   0  0  0  0  0  0  0  0  0  0  0  0
  -26.5630  -34.9050   22.4020 O   0  0  0  0  0  0  0  0  0  0  0  0
  -25.0650  -34.0970   25.0450 H   0  0  0  0  0  0  0  0  0  0  0  0
  -24.1790  -36.7950   23.1850 C   0  0  0  0  0  1  0  0  0  0  0  0
  -25.4600  -36.3930   23.9360 C   0  0  0  0  0  3  0  0  0  0  0  0
  -27.6210  -37.3010   24.6730 C   0  0  0  0  0  1  0  0  0  0  0  0
  -26.4810  -37.4520   23.7730 N   0  0  0  0  0  0  0  0  0  0  0  0
  -26.0750  -38.3720   23.9260 H   0  0  0  0  0  0  0  0  0  0  0  0
  -26.4490  -31.7790   25.1690 C   0  0  1  0  0  0  0  0  0  0  0  0
  -25.3520  -31.5530   26.2360 C   0  0  0  0  0  1  0  0  0  0  0  0
  -27.0280  -30.3960   24.7930 C   0  0  0  0  0  1  0  0  0  0  0  0
  -27.6020  -32.5720   25.8300 C   0  0  0  0  0  1  0  0  0  0  0  0
  1  3  1  0
  2  1  2  0
  2  4  1  0
  3  5  2  0
  4 48  1  0
  4  7  2  0
  5  6  1  0
  7  5  1  0
  8  9  1  0
  9  3  1  0
  9 18  2  0
 10 18  1  0
 11 16  1  0
 12 13  1  0
 12 11  1  0
 14 13  1  0
 14 23  1  0
 14 15  1  0
 16 10  1  0
 16 15  1  0
 17 10  2  0
 18 19  1  0
 20 21  2  0
 21 40  1  0
 22 21  1  0
 22 25  1  0
 23 24  1  0
 23 20  1  0
 24 22  2  0
 25 26  1  0
 26 27  2  0
 28 31  1  0
 28 27  1  0
 29 28  2  0
 30 29  1  0
 30 25  2  0
 31 32  1  0
 32 33  1  0
 33 34  2  0
 35 34  1  0
 35 39  1  0
 36 35  2  0
 37 32  2  0
 37 36  1  0
 38 37  1  0
 40 41  1  0
 41 44  1  0
 41 43  1  0
 42 40  2  0
 45 20  1  0
 45 46  1  0
 47 45  1  0
 48 49  1  0
 50 61  2  0
 51 49  1  0
 51 56  1  0
 52 60  1  0
 52 62  1  0
 53 59  1  0
 53 55  1  0
 54 60  1  0
 55 54  1  0
 56 55  2  0
 57 58  1  0
 57 51  2  0
 58 53  2  0
 59 52  1  0
 60 50  1  0
 62 64  2  0
 63 62  1  0
 65 63  1  0
 66 75  2  0
 66 71  1  0
 67 63  1  0
 67 71  1  0
 68 67  1  0
 69 70  1  0
 69 68  1  0
 70 66  1  0
 71 72  2  0
 72 73  1  0
 74 73  2  0
 75 74  1  0
 76 50  1  0
 76 77  1  0
 76 86  1  0
 77 80  1  0
 78 82  1  0
 78 77  1  0
 79 78  2  0
 82 81  1  0
 84 85  1  0
 84 82  1  0
 84 83  1  0
 86 89  1  1
 86 87  1  0
 88 86  1  0
M  ISO  4  10 100  18 100  48 101  49 101
M  END
>  <TORSDO>  (7) 
F 18

>  <SCORE>  (7) 
-15.792

>  <name>  (7) 
6

>  <ligand_id>  (7) 
6

>  <original_smiles>  (7) 
[H]c1c(C([H])([H])Oc2c([H])c([H])c3c(c2[H])C([H])([H])N(C(=O)C([H])(N([H])C(=O)C([H])(N([H])C([H])([H])[H])C([H])([H])[H])C(C([H])([H])[H])(C([H])([H])[H])C([H])([H])[H])C([H])(C(=O)N([H])C2([H])c4c([H])c([H])c([H])c([H])c4C([H])([H])C([H])([H])C2([H])[H])C3([H])[H])nc(C([H])([H])[H])c(C([H])(N([H])C(=O)N2C([H])([H])C([H])([H])C([H])([H])C([H])(n3nc(-c4c([H])c([H])c(Oc5c([H])c([H])c(F)c([H])c5F)c([H])c4[H])c(C(=O)N([H])[H])c3N([H])[H])C2([H])[H])C([H])([H])[H])c1[H]

>  <smiles>  (7) 
[H]c1c(C([H])([H])Oc2c([H])c([H])c3c(c2[H])C([H])([H])N(C(=O)C([H])(N([H])C(=O)C([H])(N([H])C([H])([H])[H])C([H])([H])[H])C(C([H])([H])[H])(C([H])([H])[H])C([H])([H])[H])C([H])(C(=O)N([H])C2([H])c4c([H])c([H])c([H])c([H])c4C([H])([H])C([H])([H])C2([H])[H])C3([H])[H])nc(C([H])([H])[H])c(C([H])(N([H])C(=O)N2C([H])([H])C([H])([H])C([H])([H])C([H])(n3nc(-c4c([H])c([H])c(Oc5c([H])c([H])c(F)c([H])c5F)c([H])c4[H])c(C(=O)N([H])[H])c3N([H])[H])C2([H])[H])C([H])([H])[H])c1[H]

$$$$
7:0:0
     RDKit          3D

 87 95  0  0  1  0  0  0  0  0999 V2000
  -28.9210  -21.2880   19.4880 C   0  0  0  0  0  3  0  0  0  0  0  0
  -28.8450  -22.6830   20.1470 C   0  0  0  0  0  0  0  0  0  0  0  0
  -29.5630  -20.1770   20.2060 C   0  0  0  0  0  0  0  0  0  0  0  0
  -30.5820  -20.5500   22.5020 C   0  0  0  0  0  1  0  0  0  0  0  0
  -29.4460  -22.3440   21.3060 N   0  0  0  0  0  0  0  0  0  0  0  0
  -29.8590  -20.9870   21.3250 N   0  0  0  0  0  0  0  0  0  0  0  0
  -28.0190  -24.2590   19.8440 C   0  0  0  0  0  2  0  0  0  0  0  0
  -28.2640  -25.8930   20.1430 O   0  0  0  0  0  0  0  0  0  0  0  0
  -24.5910  -31.8480   23.1480 C   0  0  0  0  0  0  0  0  0  0  0  0
  -27.2550  -27.0180   20.0640 C   0  0  0  0  0  0  0  0  0  0  0  0
  -23.4280  -30.4370   21.5010 C   0  0  0  0  0  3  0  0  0  0  0  0
  -24.9130  -28.8810   20.0510 C   0  0  0  0  0  0  0  0  0  0  0  0
  -25.9920  -30.7000   21.3510 C   0  0  0  0  0  2  0  0  0  0  0  0
  -26.0940  -29.2950   20.6760 C   0  0  0  0  0  0  0  0  0  0  0  0
  -27.2550  -28.3850   20.6610 C   0  0  0  0  0  3  0  0  0  0  0  0
  -26.0400  -26.7810   19.3790 C   0  0  0  0  0  3  0  0  0  0  0  0
  -24.9150  -27.6480   19.3800 C   0  0  0  0  0  3  0  0  0  0  0  0
  -23.6710  -29.7740   20.1170 C   0  0  0  0  0  2  0  0  0  0  0  0
  -24.6920  -31.0240   22.0540 N   0  0  0  0  0  0  0  0  0  0  0  0
  -23.4970  -32.1040   23.6760 O   0  0  0  0  0  0  0  0  0  0  0  0
  -22.7620  -29.4170   22.4620 C   0  0  0  0  0  0  0  0  0  0  0  0
  -21.4430  -29.1860   22.3130 N   0  0  0  0  0  0  0  0  0  0  0  0
  -23.4400  -28.8320   23.3100 O   0  0  0  0  0  0  0  0  0  0  0  0
  -20.9460  -29.7100   21.6060 H   0  0  0  0  0  0  0  0  0  0  0  0
  -18.1280  -27.7690   22.7340 C   0  0  0  0  0  0  0  0  0  0  0  0
  -20.6550  -28.2110   23.0760 C   0  0  0  0  0  3  0  0  0  0  0  0
  -20.8690  -26.7780   22.5360 C   0  0  0  0  0  2  0  0  0  0  0  0
  -19.8270  -26.3630   21.4930 C   0  0  0  0  0  2  0  0  0  0  0  0
  -18.4170  -26.4240   22.0870 C   0  0  0  0  0  2  0  0  0  0  0  0
  -19.1770  -28.6140   23.1830 C   0  0  0  0  0  0  0  0  0  0  0  0
  -18.8510  -29.8660   23.7510 C   0  0  0  0  0  3  0  0  0  0  0  0
  -17.5100  -30.2750   23.8710 C   0  0  0  0  0  3  0  0  0  0  0  0
  -16.4750  -29.4300   23.4360 C   0  0  0  0  0  3  0  0  0  0  0  0
  -16.7840  -28.1780   22.8740 C   0  0  0  0  0  3  0  0  0  0  0  0
  -25.8460  -32.5210   23.7830 C   0  0  0  0  0  3  0  0  0  0  0  0
  -25.4950  -33.9130   24.1200 N   0  0  0  0  0  0  0  0  0  0  0  0
  -25.8000  -34.9850   23.3760 C   0  0  0  0  0  0  0  0  0  0  0  0
  -26.4670  -34.9080   22.3420 O   0  0  0  0  0  0  0  0  0  0  0  0
  -24.8980  -34.0430   24.9230 H   0  0  0  0  0  0  0  0  0  0  0  0
  -24.0290  -36.7490   23.0610 C   0  0  0  0  0  1  0  0  0  0  0  0
  -25.2870  -36.3610   23.8540 C   0  0  0  0  0  3  0  0  0  0  0  0
  -27.4060  -37.2930   24.6780 C   0  0  0  0  0  1  0  0  0  0  0  0
  -26.2950  -37.4380   23.7400 N   0  0  0  0  0  0  0  0  0  0  0  0
  -25.8680  -38.3480   23.8930 H   0  0  0  0  0  0  0  0  0  0  0  0
  -26.3660  -31.7690   25.0710 C   0  0  1  0  0  0  0  0  0  0  0  0
  -25.2690  -31.5170   26.1320 C   0  0  0  0  0  1  0  0  0  0  0  0
  -26.9810  -30.3990   24.7040 C   0  0  0  0  0  1  0  0  0  0  0  0
  -27.4960  -32.5900   25.7370 C   0  0  0  0  0  1  0  0  0  0  0  0
  -30.2050  -18.5310   19.8900 C   0  0  0  0  0  2  0  0  0  0  0  0
  -30.5980  -15.5760   20.1080 C   0  0  0  0  0  0  0  0  0  0  0  0
  -30.5540  -13.1000   19.2630 C   0  0  0  0  0  2  0  0  0  0  0  0
  -29.6230  -12.8510   18.0470 C   0  0  0  0  0  2  0  0  0  0  0  0
  -28.1840  -12.5750   18.5110 C   0  0  0  0  0  2  0  0  0  0  0  0
  -27.7440  -13.5550   19.6260 C   0  0  0  0  0  3  0  0  0  0  0  0
  -28.8050  -13.7420   20.7330 C   0  0  0  0  0  2  0  0  0  0  0  0
  -30.0180  -14.2630   20.0780 N   0  0  0  0  0  0  0  0  0  0  0  0
  -31.8090  -15.5330   19.8440 O   0  0  0  0  0  0  0  0  0  0  0  0
  -29.8810  -16.8960   20.2250 N   0  0  0  0  0  0  0  0  0  0  0  0
  -28.9080  -16.7560   20.4560 H   0  0  0  0  0  0  0  0  0  0  0  0
  -25.3940  -14.1250   20.4230 C   0  0  0  0  0  0  0  0  0  0  0  0
  -24.3310  -13.3570   20.8050 C   0  0  0  0  0  0  0  0  0  0  0  0
  -24.7840  -12.0020   20.7590 C   0  0  0  0  0  0  0  0  0  0  0  0
  -26.4240  -13.2430   20.1580 N   0  0  0  0  0  0  0  0  0  0  0  0
  -26.0710  -11.9580   20.4290 N   0  0  0  0  0  0  0  0  0  0  0  0
  -24.0460  -10.7460   20.9520 C   0  0  0  0  0  0  0  0  0  0  0  0
  -24.4550   -9.7860   21.9040 C   0  0  0  0  0  3  0  0  0  0  0  0
  -23.7150   -8.5990   22.0860 C   0  0  0  0  0  3  0  0  0  0  0  0
  -22.5500   -8.3620   21.3170 C   0  0  0  0  0  0  0  0  0  0  0  0
  -22.1600   -9.3110   20.3560 C   0  0  0  0  0  3  0  0  0  0  0  0
  -22.9020  -10.4900   20.1710 C   0  0  0  0  0  3  0  0  0  0  0  0
  -21.7830   -7.2250   21.4080 O   0  0  0  0  0  0  0  0  0  0  0  0
  -21.6720   -6.5240   22.5820 C   0  0  0  0  0  0  0  0  0  0  0  0
  -21.1640   -7.1150   23.7590 C   0  0  0  0  0  3  0  0  0  0  0  0
  -21.0020   -6.3380   24.9230 C   0  0  0  0  0  3  0  0  0  0  0  0
  -21.3390   -4.9720   24.9110 C   0  0  0  0  0  0  0  0  0  0  0  0
  -21.8390   -4.3800   23.7390 C   0  0  0  0  0  3  0  0  0  0  0  0
  -22.0020   -5.1540   22.5760 C   0  0  0  0  0  0  0  0  0  0  0  0
  -22.4660   -4.5730   21.4430 F   0  0  0  0  0  0  0  0  0  0  0  0
  -21.1760   -4.2240   26.0270 F   0  0  0  0  0  0  0  0  0  0  0  0
  -22.9430  -13.8470   21.0930 C   0  0  0  0  0  0  0  0  0  0  0  0
  -22.2240  -13.1660   21.9770 N   0  0  0  0  0  0  0  0  0  0  0  0
  -22.5060  -14.8710   20.5680 O   0  0  0  0  0  0  0  0  0  0  0  0
  -22.5910  -12.3400   22.4230 H   0  0  0  0  0  0  0  0  0  0  0  0
  -21.2920  -13.4790   22.2130 H   0  0  0  0  0  0  0  0  0  0  0  0
  -25.5660  -15.4960   20.2480 N   0  0  0  0  0  0  0  0  0  0  0  0
  -24.8020  -16.1530   20.3690 H   0  0  0  0  0  0  0  0  0  0  0  0
  -26.4000  -15.9250   19.8710 H   0  0  0  0  0  0  0  0  0  0  0  0
  1  2  1  0
  1  3  2  0
  2  5  2  0
  3  6  1  0
  5  6  1  0
  6  4  1  0
  7  8  1  0
  7  2  1  0
  9 20  2  0
 10  8  1  0
 10 15  1  0
 11 19  1  0
 11 21  1  0
 12 18  1  0
 12 14  1  0
 13 19  1  0
 14 13  1  0
 15 14  2  0
 16 17  1  0
 16 10  2  0
 17 12  2  0
 18 11  1  0
 19  9  1  0
 21 23  2  0
 22 21  1  0
 24 22  1  0
 25 34  2  0
 25 30  1  0
 26 22  1  0
 26 30  1  0
 27 26  1  0
 28 29  1  0
 28 27  1  0
 29 25  1  0
 30 31  2  0
 31 32  1  0
 33 32  2  0
 34 33  1  0
 35  9  1  0
 35 36  1  0
 35 45  1  0
 36 39  1  0
 37 41  1  0
 37 36  1  0
 38 37  2  0
 41 40  1  0
 43 41  1  0
 43 44  1  0
 43 42  1  0
 45 48  1  1
 45 46  1  0
 47 45  1  0
 49  3  1  0
 49 58  1  0
 50 58  1  0
 51 56  1  0
 52 53  1  0
 52 51  1  0
 54 53  1  0
 54 63  1  0
 54 55  1  0
 56 50  1  0
 56 55  1  0
 57 50  2  0
 58 59  1  0
 60 61  2  0
 61 80  1  0
 62 61  1  0
 62 65  1  0
 63 60  1  0
 63 64  1  0
 64 62  2  0
 65 66  1  0
 66 67  2  0
 68 71  1  0
 68 67  1  0
 69 68  2  0
 70 69  1  0
 70 65  2  0
 71 72  1  0
 72 73  1  0
 73 74  2  0
 75 74  1  0
 75 79  1  0
 76 75  2  0
 77 72  2  0
 77 76  1  0
 78 77  1  0
 80 81  1  0
 81 84  1  0
 81 83  1  0
 82 80  2  0
 85 86  1  0
 85 60  1  0
 87 85  1  0
M  ISO  4   7 101   8 101  50 100  58 100
M  END
>  <TORSDO>  (8) 
F 18

>  <SCORE>  (8) 
-16.357

>  <name>  (8) 
7

>  <ligand_id>  (8) 
7

>  <original_smiles>  (8) 
[H]c1c([H])c([H])c2c(c1[H])C([H])([H])C([H])([H])C([H])([H])C2([H])N([H])C(=O)C1([H])N(C(=O)C([H])(N([H])C(=O)C([H])(N([H])C([H])([H])[H])C([H])([H])[H])C(C([H])([H])[H])(C([H])([H])[H])C([H])([H])[H])C([H])([H])c2c([H])c(OC([H])([H])c3nn(C([H])([H])[H])c(C([H])([H])N([H])C(=O)N4C([H])([H])C([H])([H])C([H])([H])C([H])(n5nc(-c6c([H])c([H])c(Oc7c([H])c([H])c(F)c([H])c7F)c([H])c6[H])c(C(=O)N([H])[H])c5N([H])[H])C4([H])[H])c3[H])c([H])c([H])c2C1([H])[H]

>  <smiles>  (8) 
[H]c1c([H])c([H])c2c(c1[H])C([H])([H])C([H])([H])C([H])([H])C2([H])N([H])C(=O)C1([H])N(C(=O)C([H])(N([H])C(=O)C([H])(N([H])C([H])([H])[H])C([H])([H])[H])C(C([H])([H])[H])(C([H])([H])[H])C([H])([H])[H])C([H])([H])c2c([H])c(OC([H])([H])c3nn(C([H])([H])[H])c(C([H])([H])N([H])C(=O)N4C([H])([H])C([H])([H])C([H])([H])C([H])(n5nc(-c6c([H])c([H])c(Oc7c([H])c([H])c(F)c([H])c7F)c([H])c6[H])c(C(=O)N([H])[H])c5N([H])[H])C4([H])[H])c3[H])c([H])c([H])c2C1([H])[H]

$$$$
8:0:0
     RDKit          3D

 91 99  0  0  1  0  0  0  0  0999 V2000
  -28.6770  -19.6060   20.3520 C   0  0  0  0  0  3  0  0  0  0  0  0
  -29.6300  -18.6450   19.9900 C   0  0  0  0  0  0  0  0  0  0  0  0
  -30.5420  -20.7350   20.0500 C   0  0  0  0  0  3  0  0  0  0  0  0
  -31.5870  -21.7940   19.9490 C   0  0  0  0  0  1  0  0  0  0  0  0
  -29.2380  -20.8970   20.3570 N   0  0  0  0  0  0  0  0  0  0  0  0
  -30.7590  -19.4190   19.8170 N   0  0  0  0  0  0  0  0  0  0  0  0
  -31.6540  -19.0550   19.5080 H   0  0  0  0  0  0  0  0  0  0  0  0
  -29.5670  -17.1140   19.5890 C   0  0  0  0  0  2  0  0  0  0  0  0
  -30.6080  -14.7910   20.0340 C   0  0  0  0  0  0  0  0  0  0  0  0
  -30.3080  -12.5620   18.9450 C   0  0  0  0  0  2  0  0  0  0  0  0
  -29.3120  -12.6840   17.7740 C   0  0  0  0  0  2  0  0  0  0  0  0
  -27.8670  -12.4980   18.2710 C   0  0  0  0  0  2  0  0  0  0  0  0
  -27.5610  -13.3410   19.5380 C   0  0  0  0  0  3  0  0  0  0  0  0
  -28.6750  -13.2120   20.5970 C   0  0  0  0  0  2  0  0  0  0  0  0
  -29.9440  -13.5820   19.9570 N   0  0  0  0  0  0  0  0  0  0  0  0
  -31.7210  -14.9030   19.5130 O   0  0  0  0  0  0  0  0  0  0  0  0
  -29.9350  -15.9280   20.4810 N   0  0  0  0  0  0  0  0  0  0  0  0
  -25.2140  -13.9000   20.4080 C   0  0  0  0  0  0  0  0  0  0  0  0
  -24.1750  -13.1120   20.8210 C   0  0  0  0  0  0  0  0  0  0  0  0
  -24.6430  -11.7650   20.7410 C   0  0  0  0  0  0  0  0  0  0  0  0
  -26.2470  -13.0310   20.0950 N   0  0  0  0  0  0  0  0  0  0  0  0
  -25.9140  -11.7420   20.3590 N   0  0  0  0  0  0  0  0  0  0  0  0
  -23.9350  -10.4940   20.9470 C   0  0  0  0  0  0  0  0  0  0  0  0
  -24.3960   -9.5340   21.8730 C   0  0  0  0  0  3  0  0  0  0  0  0
  -23.6870   -8.3280   22.0660 C   0  0  0  0  0  3  0  0  0  0  0  0
  -22.5020   -8.0760   21.3310 C   0  0  0  0  0  0  0  0  0  0  0  0
  -22.0610   -9.0270   20.3940 C   0  0  0  0  0  3  0  0  0  0  0  0
  -22.7710  -10.2220   20.1990 C   0  0  0  0  0  3  0  0  0  0  0  0
  -21.7610   -6.9240   21.4370 O   0  0  0  0  0  0  0  0  0  0  0  0
  -21.7080   -6.2040   22.6060 C   0  0  0  0  0  0  0  0  0  0  0  0
  -21.2450   -6.7740   23.8120 C   0  0  0  0  0  3  0  0  0  0  0  0
  -21.1410   -5.9790   24.9710 C   0  0  0  0  0  3  0  0  0  0  0  0
  -21.4900   -4.6160   24.9250 C   0  0  0  0  0  0  0  0  0  0  0  0
  -21.9460   -4.0460   23.7230 C   0  0  0  0  0  3  0  0  0  0  0  0
  -22.0510   -4.8380   22.5660 C   0  0  0  0  0  0  0  0  0  0  0  0
  -22.4700   -4.2790   21.4050 F   0  0  0  0  0  0  0  0  0  0  0  0
  -21.3840   -3.8500   26.0350 F   0  0  0  0  0  0  0  0  0  0  0  0
  -22.7910  -13.5740   21.1760 C   0  0  0  0  0  0  0  0  0  0  0  0
  -22.1110  -12.8570   22.0630 N   0  0  0  0  0  0  0  0  0  0  0  0
  -22.3220  -14.6080   20.7020 O   0  0  0  0  0  0  0  0  0  0  0  0
  -22.5040  -12.0220   22.4720 H   0  0  0  0  0  0  0  0  0  0  0  0
  -21.1830  -13.1440   22.3360 H   0  0  0  0  0  0  0  0  0  0  0  0
  -25.3640  -15.2750   20.2470 N   0  0  0  0  0  0  0  0  0  0  0  0
  -24.6090  -15.9290   20.4210 H   0  0  0  0  0  0  0  0  0  0  0  0
  -26.1990  -15.7230   19.8920 H   0  0  0  0  0  0  0  0  0  0  0  0
  -31.2380  -16.8920   22.3940 C   0  0  0  0  0  1  0  0  0  0  0  0
  -29.9310  -16.2280   21.9190 C   0  0  0  0  0  2  0  0  0  0  0  0
  -28.5320  -22.2270   20.7410 C   0  0  0  0  0  2  0  0  0  0  0  0
  -28.9730  -23.7100   20.2430 C   0  0  0  0  0  3  0  0  0  0  0  0
  -28.0210  -24.9570   20.6420 C   0  0  0  0  0  3  0  0  0  0  0  0
  -28.3190  -26.3980   20.3020 O   0  0  0  0  0  0  0  0  0  0  0  0
  -24.6270  -31.9380   23.2330 C   0  0  0  0  0  0  0  0  0  0  0  0
  -27.2340  -27.3050   20.2460 C   0  0  0  0  0  0  0  0  0  0  0  0
  -23.4330  -30.5170   21.6100 C   0  0  0  0  0  3  0  0  0  0  0  0
  -24.8850  -28.9560   20.2000 C   0  0  0  0  0  0  0  0  0  0  0  0
  -25.9770  -30.8270   21.4330 C   0  0  0  0  0  2  0  0  0  0  0  0
  -26.0570  -29.4400   20.7980 C   0  0  0  0  0  0  0  0  0  0  0  0
  -27.2370  -28.6260   20.8090 C   0  0  0  0  0  3  0  0  0  0  0  0
  -26.0460  -26.9010   19.5980 C   0  0  0  0  0  3  0  0  0  0  0  0
  -24.8850  -27.6950   19.5860 C   0  0  0  0  0  3  0  0  0  0  0  0
  -23.6500  -29.8340   20.2350 C   0  0  0  0  0  2  0  0  0  0  0  0
  -24.6980  -31.1140   22.1460 N   0  0  0  0  0  0  0  0  0  0  0  0
  -23.5410  -32.2150   23.7620 O   0  0  0  0  0  0  0  0  0  0  0  0
  -22.7730  -29.5070   22.5810 C   0  0  0  0  0  0  0  0  0  0  0  0
  -21.4460  -29.3270   22.4620 N   0  0  0  0  0  0  0  0  0  0  0  0
  -23.4550  -28.8890   23.4030 O   0  0  0  0  0  0  0  0  0  0  0  0
  -20.9520  -29.8770   21.7730 H   0  0  0  0  0  0  0  0  0  0  0  0
  -18.0710  -28.1240   22.9810 C   0  0  0  0  0  0  0  0  0  0  0  0
  -20.6300  -28.3950   23.2420 C   0  0  0  0  0  3  0  0  0  0  0  0
  -20.7370  -26.9570   22.6840 C   0  0  0  0  0  2  0  0  0  0  0  0
  -19.6340  -26.6200   21.6750 C   0  0  0  0  0  2  0  0  0  0  0  0
  -18.2520  -26.7680   22.3210 C   0  0  0  0  0  2  0  0  0  0  0  0
  -19.1890  -28.8950   23.4000 C   0  0  0  0  0  0  0  0  0  0  0  0
  -18.9670  -30.1640   23.9780 C   0  0  0  0  0  3  0  0  0  0  0  0
  -17.6610  -30.6600   24.1470 C   0  0  0  0  0  3  0  0  0  0  0  0
  -16.5580  -29.8870   23.7440 C   0  0  0  0  0  3  0  0  0  0  0  0
  -16.7640  -28.6230   23.1640 C   0  0  0  0  0  3  0  0  0  0  0  0
  -25.9030  -32.5880   23.8480 C   0  0  0  0  0  3  0  0  0  0  0  0
  -25.5780  -33.9840   24.1730 N   0  0  0  0  0  0  0  0  0  0  0  0
  -25.9040  -35.0410   23.4190 C   0  0  0  0  0  0  0  0  0  0  0  0
  -26.5760  -34.9440   22.3880 O   0  0  0  0  0  0  0  0  0  0  0  0
  -24.9770  -34.1360   24.9720 H   0  0  0  0  0  0  0  0  0  0  0  0
  -24.1640  -36.8240   23.0660 C   0  0  0  0  0  1  0  0  0  0  0  0
  -25.4050  -36.4250   23.8780 C   0  0  0  0  0  3  0  0  0  0  0  0
  -27.5310  -37.3230   24.7200 C   0  0  0  0  0  1  0  0  0  0  0  0
  -26.4300  -37.4880   23.7750 N   0  0  0  0  0  0  0  0  0  0  0  0
  -26.0140  -38.4030   23.9300 H   0  0  0  0  0  0  0  0  0  0  0  0
  -26.4300  -31.8290   25.1260 C   0  0  1  0  0  0  0  0  0  0  0  0
  -25.3400  -31.5850   26.1970 C   0  0  0  0  0  1  0  0  0  0  0  0
  -27.0290  -30.4550   24.7440 C   0  0  0  0  0  1  0  0  0  0  0  0
  -27.5680  -32.6420   25.7860 C   0  0  0  0  0  1  0  0  0  0  0  0
  1  5  1  0
  2  1  2  0
  3  4  1  0
  3  5  1  0
  5 48  1  0
  6  2  1  0
  6  3  1  0
  7  6  1  0
  8  2  1  0
  8 17  1  0
  9 17  1  0
 10 15  1  0
 11 12  1  0
 11 10  1  0
 13 12  1  0
 13 21  1  0
 13 14  1  0
 15  9  1  0
 15 14  1  0
 16  9  2  0
 17 47  1  0
 18 19  2  0
 19 38  1  0
 20 19  1  0
 20 23  1  0
 21 22  1  0
 21 18  1  0
 22 20  2  0
 23 24  1  0
 24 25  2  0
 26 29  1  0
 26 25  1  0
 27 26  2  0
 28 27  1  0
 28 23  2  0
 29 30  1  0
 30 31  1  0
 31 32  2  0
 33 32  1  0
 33 37  1  0
 34 33  2  0
 35 30  2  0
 35 34  1  0
 36 35  1  0
 38 39  1  0
 39 42  1  0
 39 41  1  0
 40 38  2  0
 43 18  1  0
 43 44  1  0
 45 43  1  0
 47 46  1  0
 49 50  2  0
 49 48  1  0
 51 50  1  0
 52 63  2  0
 53 51  1  0
 53 58  1  0
 54 62  1  0
 54 64  1  0
 55 61  1  0
 55 57  1  0
 56 62  1  0
 57 58  2  0
 57 56  1  0
 59 53  2  0
 60 59  1  0
 60 55  2  0
 61 54  1  0
 62 52  1  0
 64 66  2  0
 65 64  1  0
 67 65  1  0
 68 77  2  0
 68 73  1  0
 69 65  1  0
 69 73  1  0
 70 69  1  0
 71 72  1  0
 71 70  1  0
 72 68  1  0
 73 74  2  0
 74 75  1  0
 76 75  2  0
 77 76  1  0
 78 52  1  0
 78 79  1  0
 78 88  1  0
 79 82  1  0
 80 84  1  0
 80 79  1  0
 81 80  2  0
 84 83  1  0
 86 84  1  0
 86 87  1  0
 86 85  1  0
 88 91  1  1
 88 89  1  0
 90 88  1  0
M  ISO  4   9 100  17 100  50 101  51 101
M  END
>  <TORSDO>  (9) 
F 21

>  <SCORE>  (9) 
-13.160

>  <name>  (9) 
8

>  <ligand_id>  (9) 
8

>  <original_smiles>  (9) 
[H]c1c([H])c([H])c2c(c1[H])C([H])([H])C([H])([H])C([H])([H])C2([H])N([H])C(=O)C1([H])N(C(=O)C([H])(N([H])C(=O)C([H])(N([H])C([H])([H])[H])C([H])([H])[H])C(C([H])([H])[H])(C([H])([H])[H])C([H])([H])[H])C([H])([H])c2c([H])c(OC([H])([H])C([H])([H])C([H])([H])n3c([H])c(C([H])([H])N(C(=O)N4C([H])([H])C([H])([H])C([H])([H])C([H])(n5nc(-c6c([H])c([H])c(Oc7c([H])c([H])c(F)c([H])c7F)c([H])c6[H])c(C(=O)N([H])[H])c5N([H])[H])C4([H])[H])C([H])([H])C([H])([H])[H])[n+]([H])c3C([H])([H])[H])c([H])c([H])c2C1([H])[H]

>  <smiles>  (9) 
[H]c1c([H])c([H])c2c(c1[H])C([H])([H])C([H])([H])C([H])([H])C2([H])N([H])C(=O)C1([H])N(C(=O)C([H])(N([H])C(=O)C([H])(N([H])C([H])([H])[H])C([H])([H])[H])C(C([H])([H])[H])(C([H])([H])[H])C([H])([H])[H])C([H])([H])c2c([H])c(OC([H])([H])C([H])([H])C([H])([H])n3c([H])c(C([H])([H])N(C(=O)N4C([H])([H])C([H])([H])C([H])([H])C([H])(n5nc(-c6c([H])c([H])c(Oc7c([H])c([H])c(F)c([H])c7F)c([H])c6[H])c(C(=O)N([H])[H])c5N([H])[H])C4([H])[H])C([H])([H])C([H])([H])[H])[n+]([H])c3C([H])([H])[H])c([H])c([H])c2C1([H])[H]

$$$$
9:0:0
     RDKit          3D

 89 97  0  0  1  0  0  0  0  0999 V2000
  -29.4020  -21.0630   19.7220 C   0  0  0  0  0  3  0  0  0  0  0  0
  -29.1390  -18.3700   20.1770 C   0  0  0  0  0  3  0  0  0  0  0  0
  -31.2230  -17.9200   20.8710 C   0  0  0  0  0  3  0  0  0  0  0  0
  -30.0520  -17.2980   20.5370 C   0  0  0  0  0  0  0  0  0  0  0  0
  -29.7790  -19.6130   20.2320 C   0  0  0  0  0  0  0  0  0  0  0  0
  -32.1390  -20.2680   20.8870 C   0  0  0  0  0  1  0  0  0  0  0  0
  -31.0700  -19.3030   20.6860 N   0  0  0  0  0  0  0  0  0  0  0  0
  -30.5820  -14.7330   20.3830 C   0  0  0  0  0  0  0  0  0  0  0  0
  -30.3830  -12.4680   19.3480 C   0  0  0  0  0  2  0  0  0  0  0  0
  -29.4390  -12.5560   18.1270 C   0  0  0  0  0  2  0  0  0  0  0  0
  -27.9680  -12.3830   18.5600 C   0  0  0  0  0  2  0  0  0  0  0  0
  -27.5970  -13.2590   19.7880 C   0  0  0  0  0  3  0  0  0  0  0  0
  -28.6620  -13.1510   20.9030 C   0  0  0  0  0  2  0  0  0  0  0  0
  -29.9580  -13.5080   20.3110 N   0  0  0  0  0  0  0  0  0  0  0  0
  -31.7720  -14.8430   20.0740 O   0  0  0  0  0  0  0  0  0  0  0  0
  -29.7730  -15.8430   20.5650 N   0  0  0  0  0  0  0  0  0  0  0  0
  -28.7990  -15.6000   20.6500 H   0  0  0  0  0  0  0  0  0  0  0  0
  -25.2060  -13.8460   20.5200 C   0  0  0  0  0  0  0  0  0  0  0  0
  -24.1450  -13.0690   20.8920 C   0  0  0  0  0  0  0  0  0  0  0  0
  -24.6120  -11.7190   20.8610 C   0  0  0  0  0  0  0  0  0  0  0  0
  -26.2540  -12.9700   20.2820 N   0  0  0  0  0  0  0  0  0  0  0  0
  -25.9020  -11.6850   20.5500 N   0  0  0  0  0  0  0  0  0  0  0  0
  -23.8870  -10.4560   21.0530 C   0  0  0  0  0  0  0  0  0  0  0  0
  -24.3300   -9.4870   21.9800 C   0  0  0  0  0  3  0  0  0  0  0  0
  -23.6080   -8.2870   22.1620 C   0  0  0  0  0  3  0  0  0  0  0  0
  -22.4300   -8.0490   21.4160 C   0  0  0  0  0  0  0  0  0  0  0  0
  -22.0070   -9.0060   20.4760 C   0  0  0  0  0  3  0  0  0  0  0  0
  -22.7280  -10.1960   20.2930 C   0  0  0  0  0  3  0  0  0  0  0  0
  -21.6800   -6.9020   21.5070 O   0  0  0  0  0  0  0  0  0  0  0  0
  -21.6480   -6.1490   22.6520 C   0  0  0  0  0  0  0  0  0  0  0  0
  -21.2420   -6.6940   23.8910 C   0  0  0  0  0  3  0  0  0  0  0  0
  -21.1600   -5.8690   25.0300 C   0  0  0  0  0  3  0  0  0  0  0  0
  -21.4730   -4.4990   24.9320 C   0  0  0  0  0  0  0  0  0  0  0  0
  -21.8690   -3.9550   23.6990 C   0  0  0  0  0  3  0  0  0  0  0  0
  -21.9540   -4.7780   22.5620 C   0  0  0  0  0  0  0  0  0  0  0  0
  -22.3180   -4.2420   21.3720 F   0  0  0  0  0  0  0  0  0  0  0  0
  -21.3860   -3.7050   26.0240 F   0  0  0  0  0  0  0  0  0  0  0  0
  -22.7460  -13.5410   21.1620 C   0  0  0  0  0  0  0  0  0  0  0  0
  -22.0180  -12.8430   22.0300 N   0  0  0  0  0  0  0  0  0  0  0  0
  -22.3050  -14.5640   20.6410 O   0  0  0  0  0  0  0  0  0  0  0  0
  -22.3830  -12.0130   22.4750 H   0  0  0  0  0  0  0  0  0  0  0  0
  -21.0800  -13.1440   22.2520 H   0  0  0  0  0  0  0  0  0  0  0  0
  -25.3620  -15.2180   20.3420 N   0  0  0  0  0  0  0  0  0  0  0  0
  -24.5850  -15.8590   20.4620 H   0  0  0  0  0  0  0  0  0  0  0  0
  -26.1970  -15.6730   20.0000 H   0  0  0  0  0  0  0  0  0  0  0  0
  -28.9940  -22.3170   20.6500 C   0  0  0  0  0  3  0  0  0  0  0  0
  -28.9300  -23.7920   19.9700 C   0  0  0  0  0  3  0  0  0  0  0  0
  -28.1730  -25.0220   20.6900 C   0  0  0  0  0  3  0  0  0  0  0  0
  -28.3400  -26.4340   20.2170 O   0  0  0  0  0  0  0  0  0  0  0  0
  -24.6070  -31.8770   23.2370 C   0  0  0  0  0  0  0  0  0  0  0  0
  -27.2230  -27.2930   20.2070 C   0  0  0  0  0  0  0  0  0  0  0  0
  -23.4050  -30.4720   21.6000 C   0  0  0  0  0  3  0  0  0  0  0  0
  -24.8590  -28.9140   20.1820 C   0  0  0  0  0  0  0  0  0  0  0  0
  -25.9460  -30.7920   21.4150 C   0  0  0  0  0  2  0  0  0  0  0  0
  -26.0300  -29.4090   20.7730 C   0  0  0  0  0  0  0  0  0  0  0  0
  -27.2180  -28.6130   20.7660 C   0  0  0  0  0  3  0  0  0  0  0  0
  -26.0300  -26.8560   19.5920 C   0  0  0  0  0  3  0  0  0  0  0  0
  -24.8620  -27.6450   19.5820 C   0  0  0  0  0  3  0  0  0  0  0  0
  -23.6210  -29.7900   20.2240 C   0  0  0  0  0  2  0  0  0  0  0  0
  -24.6720  -31.0650   22.1410 N   0  0  0  0  0  0  0  0  0  0  0  0
  -23.5220  -32.1550   23.7690 O   0  0  0  0  0  0  0  0  0  0  0  0
  -22.7420  -29.4580   22.5650 C   0  0  0  0  0  0  0  0  0  0  0  0
  -21.4170  -29.2790   22.4370 N   0  0  0  0  0  0  0  0  0  0  0  0
  -23.4210  -28.8360   23.3860 O   0  0  0  0  0  0  0  0  0  0  0  0
  -20.9300  -29.8360   21.7500 H   0  0  0  0  0  0  0  0  0  0  0  0
  -18.0380  -28.0800   22.9330 C   0  0  0  0  0  0  0  0  0  0  0  0
  -20.5950  -28.3420   23.2070 C   0  0  0  0  0  3  0  0  0  0  0  0
  -20.6980  -26.9100   22.6360 C   0  0  0  0  0  2  0  0  0  0  0  0
  -19.6000  -26.5830   21.6200 C   0  0  0  0  0  2  0  0  0  0  0  0
  -18.2170  -26.7280   22.2600 C   0  0  0  0  0  2  0  0  0  0  0  0
  -19.1550  -28.8450   23.3620 C   0  0  0  0  0  0  0  0  0  0  0  0
  -18.9340  -30.1090   23.9480 C   0  0  0  0  0  3  0  0  0  0  0  0
  -17.6280  -30.6090   24.1120 C   0  0  0  0  0  3  0  0  0  0  0  0
  -16.5250  -29.8410   23.7000 C   0  0  0  0  0  3  0  0  0  0  0  0
  -16.7300  -28.5780   23.1160 C   0  0  0  0  0  3  0  0  0  0  0  0
  -25.8870  -32.5140   23.8610 C   0  0  0  0  0  3  0  0  0  0  0  0
  -26.4030  -31.7460   25.1400 C   0  0  1  0  0  0  0  0  0  0  0  0
  -25.3110  -31.5130   26.2110 C   0  0  0  0  0  1  0  0  0  0  0  0
  -26.9850  -30.3670   24.7550 C   0  0  0  0  0  1  0  0  0  0  0  0
  -27.5550  -32.5420   25.8000 C   0  0  0  0  0  1  0  0  0  0  0  0
  -25.5740  -33.9120   24.1880 N   0  0  0  0  0  0  0  0  0  0  0  0
  -25.9070  -34.9660   23.4300 C   0  0  0  0  0  0  0  0  0  0  0  0
  -26.5770  -34.8630   22.3990 O   0  0  0  0  0  0  0  0  0  0  0  0
  -24.9750  -34.0660   24.9850 H   0  0  0  0  0  0  0  0  0  0  0  0
  -24.1770  -36.7600   23.0720 C   0  0  0  0  0  1  0  0  0  0  0  0
  -25.4160  -36.3550   23.8860 C   0  0  0  0  0  3  0  0  0  0  0  0
  -27.5520  -37.2370   24.7180 C   0  0  0  0  0  1  0  0  0  0  0  0
  -26.4480  -37.4090   23.7780 N   0  0  0  0  0  0  0  0  0  0  0  0
  -26.0420  -38.3280   23.9300 H   0  0  0  0  0  0  0  0  0  0  0  0
  1  5  1  0
  1 46  2  0
  2  5  2  0
  2  4  1  0
  4 16  1  0
  4  3  2  0
  5  7  1  0
  7  3  1  0
  7  6  1  0
  8 16  1  0
  9 14  1  0
 10 11  1  0
 10  9  1  0
 12 11  1  0
 12 21  1  0
 12 13  1  0
 14  8  1  0
 14 13  1  0
 15  8  2  0
 16 17  1  0
 18 19  2  0
 19 38  1  0
 20 19  1  0
 20 23  1  0
 21 18  1  0
 21 22  1  0
 22 20  2  0
 23 24  1  0
 24 25  2  0
 26 29  1  0
 26 25  1  0
 27 26  2  0
 28 27  1  0
 28 23  2  0
 29 30  1  0
 30 31  1  0
 31 32  2  0
 33 32  1  0
 33 37  1  0
 34 33  2  0
 35 30  2  0
 35 34  1  0
 36 35  1  0
 38 39  1  0
 39 42  1  0
 39 41  1  0
 40 38  2  0
 43 44  1  0
 43 18  1  0
 45 43  1  0
 47 46  1  0
 47 48  2  0
 49 48  1  0
 50 61  2  0
 51 49  1  0
 51 56  1  0
 52 60  1  0
 52 62  1  0
 53 59  1  0
 53 55  1  0
 54 60  1  0
 55 54  1  0
 56 55  2  0
 57 51  2  0
 58 57  1  0
 58 53  2  0
 59 52  1  0
 60 50  1  0
 62 64  2  0
 63 62  1  0
 65 63  1  0
 66 75  2  0
 66 71  1  0
 67 63  1  0
 67 71  1  0
 68 67  1  0
 69 70  1  0
 69 68  1  0
 70 66  1  0
 71 72  2  0
 72 73  1  0
 74 73  2  0
 75 74  1  0
 76 50  1  0
 76 81  1  0
 76 77  1  0
 77 80  1  1
 77 78  1  0
 79 77  1  0
 81 84  1  0
 82 86  1  0
 82 81  1  0
 83 82  2  0
 86 85  1  0
 88 86  1  0
 88 89  1  0
 88 87  1  0
M  ISO  4   8 100  16 100  48 101  49 101
M  END
>  <TORSDO>  (10) 
F 20

>  <SCORE>  (10) 
-13.865

>  <name>  (10) 
9

>  <ligand_id>  (10) 
9

>  <original_smiles>  (10) 
[H]c1c([H])c([H])c2c(c1[H])C([H])([H])C([H])([H])C([H])([H])C2([H])N([H])C(=O)C1([H])N(C(=O)C([H])(N([H])C(=O)C([H])(N([H])C([H])([H])[H])C([H])([H])[H])C(C([H])([H])[H])(C([H])([H])[H])C([H])([H])[H])C([H])([H])c2c([H])c(OC([H])([H])C([H])([H])C([H])([H])C([H])([H])c3c([H])c(N([H])C(=O)N4C([H])([H])C([H])([H])C([H])([H])C([H])(n5nc(-c6c([H])c([H])c(Oc7c([H])c([H])c(F)c([H])c7F)c([H])c6[H])c(C(=O)N([H])[H])c5N([H])[H])C4([H])[H])c([H])n3C([H])([H])[H])c([H])c([H])c2C1([H])[H]

>  <smiles>  (10) 
[H]c1c([H])c([H])c2c(c1[H])C([H])([H])C([H])([H])C([H])([H])C2([H])N([H])C(=O)C1([H])N(C(=O)C([H])(N([H])C(=O)C([H])(N([H])C([H])([H])[H])C([H])([H])[H])C(C([H])([H])[H])(C([H])([H])[H])C([H])([H])[H])C([H])([H])c2c([H])c(OC([H])([H])C([H])([H])C([H])([H])C([H])([H])c3c([H])c(N([H])C(=O)N4C([H])([H])C([H])([H])C([H])([H])C([H])(n5nc(-c6c([H])c([H])c(Oc7c([H])c([H])c(F)c([H])c7F)c([H])c6[H])c(C(=O)N([H])[H])c5N([H])[H])C4([H])[H])c([H])n3C([H])([H])[H])c([H])c([H])c2C1([H])[H]

$$$$
10:0:0
     RDKit          3D

 92100  0  0  1  0  0  0  0  0999 V2000
  -28.6110  -23.2980   21.5350 C   0  0  0  0  0  3  0  0  0  0  0  0
  -30.2430  -23.0340   20.1280 C   0  0  0  0  0  3  0  0  0  0  0  0
  -28.9240  -24.5170   20.9680 C   0  0  0  0  0  0  0  0  0  0  0  0
  -29.9730  -24.3370   20.0630 N   0  0  0  0  0  0  0  0  0  0  0  0
  -29.4750  -22.3500   20.9920 N   0  0  0  0  0  0  0  0  0  0  0  0
  -28.2920  -25.8570   21.2630 C   0  0  0  0  0  2  0  0  0  0  0  0
  -28.3260  -26.7820   20.1650 O   0  0  0  0  0  0  0  0  0  0  0  0
  -24.5420  -31.9470   23.2530 C   0  0  0  0  0  0  0  0  0  0  0  0
  -27.1950  -27.5580   20.1300 C   0  0  0  0  0  0  0  0  0  0  0  0
  -23.3350  -30.5500   21.6050 C   0  0  0  0  0  3  0  0  0  0  0  0
  -24.7930  -29.0360   20.1560 C   0  0  0  0  0  0  0  0  0  0  0  0
  -25.8550  -30.9300   21.3970 C   0  0  0  0  0  2  0  0  0  0  0  0
  -25.9500  -29.5680   20.7450 C   0  0  0  0  0  0  0  0  0  0  0  0
  -27.1570  -28.8340   20.7330 C   0  0  0  0  0  3  0  0  0  0  0  0
  -26.0320  -27.0360   19.5320 C   0  0  0  0  0  3  0  0  0  0  0  0
  -24.8290  -27.7690   19.5460 C   0  0  0  0  0  3  0  0  0  0  0  0
  -23.5410  -29.8820   20.2210 C   0  0  0  0  0  2  0  0  0  0  0  0
  -24.5970  -31.1560   22.1440 N   0  0  0  0  0  0  0  0  0  0  0  0
  -23.4640  -32.2090   23.8010 O   0  0  0  0  0  0  0  0  0  0  0  0
  -22.6940  -29.5190   22.5610 C   0  0  0  0  0  0  0  0  0  0  0  0
  -21.3740  -29.3190   22.4270 N   0  0  0  0  0  0  0  0  0  0  0  0
  -23.3830  -28.9000   23.3770 O   0  0  0  0  0  0  0  0  0  0  0  0
  -20.8800  -29.8710   21.7390 H   0  0  0  0  0  0  0  0  0  0  0  0
  -18.0140  -28.0760   22.8930 C   0  0  0  0  0  0  0  0  0  0  0  0
  -20.5650  -28.3710   23.1900 C   0  0  0  0  0  3  0  0  0  0  0  0
  -20.6940  -26.9420   22.6150 C   0  0  0  0  0  2  0  0  0  0  0  0
  -19.6060  -26.6010   21.5910 C   0  0  0  0  0  2  0  0  0  0  0  0
  -18.2170  -26.7280   22.2210 C   0  0  0  0  0  2  0  0  0  0  0  0
  -19.1180  -28.8540   23.3340 C   0  0  0  0  0  0  0  0  0  0  0  0
  -18.8740  -30.1170   23.9160 C   0  0  0  0  0  3  0  0  0  0  0  0
  -17.5610  -30.6000   24.0680 C   0  0  0  0  0  3  0  0  0  0  0  0
  -16.4720  -29.8180   23.6460 C   0  0  0  0  0  3  0  0  0  0  0  0
  -16.6990  -28.5590   23.0640 C   0  0  0  0  0  3  0  0  0  0  0  0
  -25.8290  -32.5770   23.8710 C   0  0  0  0  0  3  0  0  0  0  0  0
  -25.5240  -33.9770   24.1920 N   0  0  0  0  0  0  0  0  0  0  0  0
  -25.8700  -35.0240   23.4330 C   0  0  0  0  0  0  0  0  0  0  0  0
  -26.5490  -34.9130   22.4090 O   0  0  0  0  0  0  0  0  0  0  0  0
  -24.9240  -34.1370   24.9880 H   0  0  0  0  0  0  0  0  0  0  0  0
  -24.1560  -36.8230   23.0450 C   0  0  0  0  0  1  0  0  0  0  0  0
  -25.3820  -36.4150   23.8770 C   0  0  0  0  0  3  0  0  0  0  0  0
  -27.5090  -37.2900   24.7380 C   0  0  0  0  0  1  0  0  0  0  0  0
  -26.4220  -37.4630   23.7780 N   0  0  0  0  0  0  0  0  0  0  0  0
  -26.0190  -38.3860   23.9190 H   0  0  0  0  0  0  0  0  0  0  0  0
  -26.3460  -31.8090   25.1490 C   0  0  1  0  0  0  0  0  0  0  0  0
  -25.2530  -31.5700   26.2160 C   0  0  0  0  0  1  0  0  0  0  0  0
  -26.9330  -30.4320   24.7570 C   0  0  0  0  0  1  0  0  0  0  0  0
  -27.4940  -32.6060   25.8120 C   0  0  0  0  0  1  0  0  0  0  0  0
  -29.4940  -20.9160   21.2630 C   0  0  0  0  0  2  0  0  0  0  0  0
  -30.8590  -20.3990   21.7890 C   0  0  0  0  0  2  0  0  0  0  0  0
  -31.8990  -18.6860   23.2440 C   0  0  0  0  0  1  0  0  0  0  0  0
  -30.8220  -18.9800   22.2640 N   0  0  2  0  0  4  0  0  0  0  0  0
  -29.9570  -18.8930   22.7780 H   0  0  0  0  0  0  0  0  0  0  0  0
  -30.7860  -17.9830   21.1580 C   0  0  0  0  0  2  0  0  0  0  0  0
  -30.1080  -16.6360   21.5600 C   0  0  0  0  0  2  0  0  0  0  0  0
  -30.6600  -14.5930   20.2580 C   0  0  0  0  0  0  0  0  0  0  0  0
  -30.3500  -12.4200   19.1420 C   0  0  0  0  0  2  0  0  0  0  0  0
  -29.3860  -12.6110   17.9520 C   0  0  0  0  0  2  0  0  0  0  0  0
  -27.9160  -12.4840   18.4020 C   0  0  0  0  0  2  0  0  0  0  0  0
  -27.5910  -13.3070   19.6780 C   0  0  0  0  0  3  0  0  0  0  0  0
  -28.6740  -13.1220   20.7640 C   0  0  0  0  0  2  0  0  0  0  0  0
  -29.9830  -13.4160   20.1580 N   0  0  0  0  0  0  0  0  0  0  0  0
  -31.8390  -14.7330   19.9200 O   0  0  0  0  0  0  0  0  0  0  0  0
  -29.3090  -16.3130   19.2430 C   0  0  0  0  0  1  0  0  0  0  0  0
  -29.8870  -15.6890   20.4440 N   0  0  0  0  0  0  0  0  0  0  0  0
  -25.2040  -13.9050   20.4140 C   0  0  0  0  0  0  0  0  0  0  0  0
  -24.1470  -13.1270   20.7980 C   0  0  0  0  0  0  0  0  0  0  0  0
  -24.6190  -11.7780   20.7740 C   0  0  0  0  0  0  0  0  0  0  0  0
  -26.2520  -13.0290   20.1820 N   0  0  0  0  0  0  0  0  0  0  0  0
  -25.9060  -11.7480   20.4560 N   0  0  0  0  0  0  0  0  0  0  0  0
  -23.9080  -10.5130   20.9790 C   0  0  0  0  0  0  0  0  0  0  0  0
  -24.3580   -9.5550   21.9160 C   0  0  0  0  0  3  0  0  0  0  0  0
  -23.6450   -8.3530   22.1070 C   0  0  0  0  0  3  0  0  0  0  0  0
  -22.4690   -8.0980   21.3620 C   0  0  0  0  0  0  0  0  0  0  0  0
  -22.0390   -9.0420   20.4120 C   0  0  0  0  0  3  0  0  0  0  0  0
  -22.7530  -10.2360   20.2190 C   0  0  0  0  0  3  0  0  0  0  0  0
  -21.7250   -6.9480   21.4680 O   0  0  0  0  0  0  0  0  0  0  0  0
  -21.6940   -6.2160   22.6280 C   0  0  0  0  0  0  0  0  0  0  0  0
  -21.2720   -6.7780   23.8530 C   0  0  0  0  0  3  0  0  0  0  0  0
  -21.1870   -5.9710   25.0050 C   0  0  0  0  0  3  0  0  0  0  0  0
  -21.5140   -4.6030   24.9330 C   0  0  0  0  0  0  0  0  0  0  0  0
  -21.9280   -4.0410   23.7130 C   0  0  0  0  0  3  0  0  0  0  0  0
  -22.0150   -4.8450   22.5630 C   0  0  0  0  0  0  0  0  0  0  0  0
  -22.3960   -4.2950   21.3850 F   0  0  0  0  0  0  0  0  0  0  0  0
  -21.4230   -3.8250   26.0350 F   0  0  0  0  0  0  0  0  0  0  0  0
  -22.7470  -13.5940   21.0730 C   0  0  0  0  0  0  0  0  0  0  0  0
  -22.0280  -12.8980   21.9470 N   0  0  0  0  0  0  0  0  0  0  0  0
  -22.2970  -14.6120   20.5470 O   0  0  0  0  0  0  0  0  0  0  0  0
  -22.4030  -12.0770   22.3990 H   0  0  0  0  0  0  0  0  0  0  0  0
  -21.0860  -13.1900   22.1660 H   0  0  0  0  0  0  0  0  0  0  0  0
  -25.3550  -15.2760   20.2240 N   0  0  0  0  0  0  0  0  0  0  0  0
  -24.5860  -15.9260   20.3320 H   0  0  0  0  0  0  0  0  0  0  0  0
  -26.2110  -15.7200   19.9190 H   0  0  0  0  0  0  0  0  0  0  0  0
  2  5  1  0
  3  6  1  0
  3  1  2  0
  4  2  2  0
  4  3  1  0
  5 48  1  0
  5  1  1  0
  7  6  1  0
  8 19  2  0
  9  7  1  0
  9 14  1  0
 10 18  1  0
 10 20  1  0
 11 17  1  0
 11 13  1  0
 12 18  1  0
 13 12  1  0
 14 13  2  0
 15 16  1  0
 15  9  2  0
 16 11  2  0
 17 10  1  0
 18  8  1  0
 20 22  2  0
 21 20  1  0
 23 21  1  0
 24 33  2  0
 24 29  1  0
 25 21  1  0
 25 29  1  0
 26 25  1  0
 27 28  1  0
 27 26  1  0
 28 24  1  0
 29 30  2  0
 30 31  1  0
 32 31  2  0
 33 32  1  0
 34  8  1  0
 34 35  1  0
 34 44  1  0
 35 38  1  0
 36 40  1  0
 36 35  1  0
 37 36  2  0
 40 39  1  0
 42 40  1  0
 42 43  1  0
 42 41  1  0
 44 47  1  1
 44 45  1  0
 46 44  1  0
 48 49  1  0
 49 51  1  0
 51 52  1  1
 51 50  1  0
 53 54  1  0
 53 51  1  0
 55 64  1  0
 56 61  1  0
 57 58  1  0
 57 56  1  0
 59 58  1  0
 59 68  1  0
 59 60  1  0
 61 55  1  0
 61 60  1  0
 62 55  2  0
 63 64  1  0
 64 54  1  0
 65 66  2  0
 66 85  1  0
 67 66  1  0
 67 70  1  0
 68 65  1  0
 68 69  1  0
 69 67  2  0
 70 71  1  0
 71 72  2  0
 73 76  1  0
 73 72  1  0
 74 73  2  0
 75 74  1  0
 75 70  2  0
 76 77  1  0
 77 78  1  0
 78 79  2  0
 80 79  1  0
 80 84  1  0
 81 80  2  0
 82 77  2  0
 82 81  1  0
 83 82  1  0
 85 86  1  0
 86 89  1  0
 86 88  1  0
 87 85  2  0
 90 91  1  0
 90 65  1  0
 92 90  1  0
M  ISO  4   6 101   7 101  55 100  64 100
M  END
>  <TORSDO>  (11) 
F 22

>  <SCORE>  (11) 
-12.793

>  <name>  (11) 
10

>  <ligand_id>  (11) 
10

>  <original_smiles>  (11) 
[H]c1c([H])c([H])c2c(c1[H])C([H])([H])C([H])([H])C([H])([H])C2([H])N([H])C(=O)C1([H])N(C(=O)C([H])(N([H])C(=O)C([H])(N([H])C([H])([H])[H])C([H])([H])[H])C(C([H])([H])[H])(C([H])([H])[H])C([H])([H])[H])C([H])([H])c2c([H])c(OC([H])([H])c3nc([H])n(C([H])([H])C([H])([H])[N+]([H])(C([H])([H])[H])C([H])([H])C([H])([H])N(C(=O)N4C([H])([H])C([H])([H])C([H])([H])C([H])(n5nc(-c6c([H])c([H])c(Oc7c([H])c([H])c(F)c([H])c7F)c([H])c6[H])c(C(=O)N([H])[H])c5N([H])[H])C4([H])[H])C([H])([H])[H])c3[H])c([H])c([H])c2C1([H])[H]

>  <smiles>  (11) 
[H]c1c([H])c([H])c2c(c1[H])C([H])([H])C([H])([H])C([H])([H])C2([H])N([H])C(=O)C1([H])N(C(=O)C([H])(N([H])C(=O)C([H])(N([H])C([H])([H])[H])C([H])([H])[H])C(C([H])([H])[H])(C([H])([H])[H])C([H])([H])[H])C([H])([H])c2c([H])c(OC([H])([H])c3nc([H])n(C([H])([H])C([H])([H])[N+]([H])(C([H])([H])[H])C([H])([H])C([H])([H])N(C(=O)N4C([H])([H])C([H])([H])C([H])([H])C([H])(n5nc(-c6c([H])c([H])c(Oc7c([H])c([H])c(F)c([H])c7F)c([H])c6[H])c(C(=O)N([H])[H])c5N([H])[H])C4([H])[H])C([H])([H])[H])c3[H])c([H])c([H])c2C1([H])[H]

$$$$
11:0:0
     RDKit          3D

 88 96  0  0  1  0  0  0  0  0999 V2000
  -27.5890  -21.9760   20.9870 C   0  0  0  0  0  3  0  0  0  0  0  0
  -27.3200  -20.6010   21.1560 C   0  0  0  0  0  3  0  0  0  0  0  0
  -28.8430  -22.0860   20.4400 C   0  0  0  0  0  0  0  0  0  0  0  0
  -28.3140  -19.8450   20.7570 N   0  0  0  0  0  0  0  0  0  0  0  0
  -29.3030  -20.6520   20.3090 N   0  0  0  0  0  0  0  0  0  0  0  0
  -29.3660  -23.6140   20.1650 C   0  0  0  0  0  3  0  0  0  0  0  0
  -28.3320  -24.9620   20.3470 C   0  0  0  0  0  3  0  0  0  0  0  0
  -28.5740  -26.5090   20.2490 O   0  0  0  0  0  0  0  0  0  0  0  0
  -24.6670  -32.0090   23.2840 C   0  0  0  0  0  0  0  0  0  0  0  0
  -27.4780  -27.4540   20.2100 C   0  0  0  0  0  0  0  0  0  0  0  0
  -23.5490  -30.6050   21.5950 C   0  0  0  0  0  3  0  0  0  0  0  0
  -25.0800  -29.1160   20.1670 C   0  0  0  0  0  0  0  0  0  0  0  0
  -26.0940  -30.9670   21.4830 C   0  0  0  0  0  2  0  0  0  0  0  0
  -26.2330  -29.5930   20.8050 C   0  0  0  0  0  0  0  0  0  0  0  0
  -27.4310  -28.7810   20.8060 C   0  0  0  0  0  3  0  0  0  0  0  0
  -26.2950  -27.0870   19.5270 C   0  0  0  0  0  3  0  0  0  0  0  0
  -25.1260  -27.8780   19.5110 C   0  0  0  0  0  3  0  0  0  0  0  0
  -23.8180  -29.9650   20.2080 C   0  0  0  0  0  2  0  0  0  0  0  0
  -24.7880  -31.2160   22.1750 N   0  0  0  0  0  0  0  0  0  0  0  0
  -23.5620  -32.2410   23.7980 O   0  0  0  0  0  0  0  0  0  0  0  0
  -22.8920  -29.5540   22.5250 C   0  0  0  0  0  0  0  0  0  0  0  0
  -21.5780  -29.3160   22.3520 N   0  0  0  0  0  0  0  0  0  0  0  0
  -23.5670  -28.9540   23.3660 O   0  0  0  0  0  0  0  0  0  0  0  0
  -21.0880  -29.8540   21.6500 H   0  0  0  0  0  0  0  0  0  0  0  0
  -18.2540  -27.9220   22.7170 C   0  0  0  0  0  0  0  0  0  0  0  0
  -20.7810  -28.3300   23.0870 C   0  0  0  0  0  3  0  0  0  0  0  0
  -20.9870  -26.9090   22.5160 C   0  0  0  0  0  2  0  0  0  0  0  0
  -19.9470  -26.5280   21.4560 C   0  0  0  0  0  2  0  0  0  0  0  0
  -18.5350  -26.5900   22.0430 C   0  0  0  0  0  2  0  0  0  0  0  0
  -19.3080  -28.7470   23.1930 C   0  0  0  0  0  0  0  0  0  0  0  0
  -18.9920  -29.9900   23.7820 C   0  0  0  0  0  3  0  0  0  0  0  0
  -17.6540  -30.4120   23.9000 C   0  0  0  0  0  3  0  0  0  0  0  0
  -16.6140  -29.5870   23.4380 C   0  0  0  0  0  3  0  0  0  0  0  0
  -16.9140  -28.3440   22.8530 C   0  0  0  0  0  3  0  0  0  0  0  0
  -25.9090  -32.6770   23.9470 C   0  0  0  0  0  3  0  0  0  0  0  0
  -26.3810  -31.9430   25.2620 C   0  0  1  0  0  0  0  0  0  0  0  0
  -25.2430  -31.7010   26.2830 C   0  0  0  0  0  1  0  0  0  0  0  0
  -27.0120  -30.5720   24.9320 C   0  0  0  0  0  1  0  0  0  0  0  0
  -27.4800  -32.7770   25.9600 C   0  0  0  0  0  1  0  0  0  0  0  0
  -25.5610  -34.0770   24.2390 N   0  0  0  0  0  0  0  0  0  0  0  0
  -25.9010  -35.1250   23.4780 C   0  0  0  0  0  0  0  0  0  0  0  0
  -26.6060  -35.0170   22.4710 O   0  0  0  0  0  0  0  0  0  0  0  0
  -24.9350  -34.2340   25.0160 H   0  0  0  0  0  0  0  0  0  0  0  0
  -24.1500  -36.8820   23.0480 C   0  0  0  0  0  1  0  0  0  0  0  0
  -25.3780  -36.5130   23.8980 C   0  0  0  0  0  3  0  0  0  0  0  0
  -27.4700  -37.4570   24.7710 C   0  0  0  0  0  1  0  0  0  0  0  0
  -26.3940  -37.5840   23.7910 N   0  0  0  0  0  0  0  0  0  0  0  0
  -25.9670  -38.4990   23.9050 H   0  0  0  0  0  0  0  0  0  0  0  0
  -30.4600  -19.7450   19.7610 C   0  0  0  0  0  2  0  0  0  0  0  0
  -30.8790  -18.2050   20.3970 C   0  0  0  0  0  2  0  0  0  0  0  0
  -31.2070  -15.4790   19.9920 C   0  0  0  0  0  0  0  0  0  0  0  0
  -31.0420  -13.0720   19.1720 C   0  0  0  0  0  2  0  0  0  0  0  0
  -30.1040  -12.9150   17.9550 C   0  0  0  0  0  2  0  0  0  0  0  0
  -28.6480  -12.7020   18.4150 C   0  0  0  0  0  2  0  0  0  0  0  0
  -28.2270  -13.7060   19.5150 C   0  0  0  0  0  3  0  0  0  0  0  0
  -29.2940  -13.8610   20.6230 C   0  0  0  0  0  2  0  0  0  0  0  0
  -30.5560  -14.2380   19.9660 N   0  0  0  0  0  0  0  0  0  0  0  0
  -32.4400  -15.4460   19.9100 O   0  0  0  0  0  0  0  0  0  0  0  0
  -29.3950  -16.8380   18.9550 C   0  0  0  0  0  1  0  0  0  0  0  0
  -30.5060  -16.7410   19.8980 N   0  0  0  0  0  0  0  0  0  0  0  0
  -25.8770  -14.3620   20.2770 C   0  0  0  0  0  0  0  0  0  0  0  0
  -24.7960  -13.6180   20.6560 C   0  0  0  0  0  0  0  0  0  0  0  0
  -25.2310  -12.2570   20.6390 C   0  0  0  0  0  0  0  0  0  0  0  0
  -26.8960  -13.4520   20.0410 N   0  0  0  0  0  0  0  0  0  0  0  0
  -26.5190  -12.1840   20.3290 N   0  0  0  0  0  0  0  0  0  0  0  0
  -24.4780  -11.0160   20.8390 C   0  0  0  0  0  0  0  0  0  0  0  0
  -24.8340  -10.0930   21.8460 C   0  0  0  0  0  3  0  0  0  0  0  0
  -24.0820   -8.9140   22.0330 C   0  0  0  0  0  3  0  0  0  0  0  0
  -22.9600   -8.6500   21.2120 C   0  0  0  0  0  0  0  0  0  0  0  0
  -22.6240   -9.5610   20.1950 C   0  0  0  0  0  3  0  0  0  0  0  0
  -23.3780  -10.7320   20.0060 C   0  0  0  0  0  3  0  0  0  0  0  0
  -22.1850   -7.5210   21.3050 O   0  0  0  0  0  0  0  0  0  0  0  0
  -21.9810   -6.8850   22.5030 C   0  0  0  0  0  0  0  0  0  0  0  0
  -21.3970   -7.5460   23.6060 C   0  0  0  0  0  3  0  0  0  0  0  0
  -21.1430   -6.8370   24.7970 C   0  0  0  0  0  3  0  0  0  0  0  0
  -21.4610   -5.4680   24.8850 C   0  0  0  0  0  0  0  0  0  0  0  0
  -22.0370   -4.8080   23.7850 C   0  0  0  0  0  3  0  0  0  0  0  0
  -22.2940   -5.5140   22.5970 C   0  0  0  0  0  0  0  0  0  0  0  0
  -22.8300   -4.8690   21.5330 F   0  0  0  0  0  0  0  0  0  0  0  0
  -21.2090   -4.7840   26.0250 F   0  0  0  0  0  0  0  0  0  0  0  0
  -23.4110  -14.1320   20.9190 C   0  0  0  0  0  0  0  0  0  0  0  0
  -22.6670  -13.4630   21.7940 N   0  0  0  0  0  0  0  0  0  0  0  0
  -22.9990  -15.1610   20.3860 O   0  0  0  0  0  0  0  0  0  0  0  0
  -23.0150  -12.6300   22.2450 H   0  0  0  0  0  0  0  0  0  0  0  0
  -21.7380  -13.7900   22.0150 H   0  0  0  0  0  0  0  0  0  0  0  0
  -26.0630  -15.7260   20.0840 N   0  0  0  0  0  0  0  0  0  0  0  0
  -25.3080  -16.3940   20.1950 H   0  0  0  0  0  0  0  0  0  0  0  0
  -26.9240  -16.1490   19.7650 H   0  0  0  0  0  0  0  0  0  0  0  0
  1  2  1  0
  3  1  2  0
  4  2  2  0
  5  3  1  0
  5  4  1  0
  6  7  2  0
  6  3  1  0
  8  7  1  0
  9 20  2  0
 10  8  1  0
 10 15  1  0
 11 19  1  0
 11 21  1  0
 12 18  1  0
 12 14  1  0
 13 19  1  0
 14 15  2  0
 14 13  1  0
 16 10  2  0
 17 16  1  0
 17 12  2  0
 18 11  1  0
 19  9  1  0
 21 23  2  0
 22 21  1  0
 24 22  1  0
 25 34  2  0
 25 30  1  0
 26 22  1  0
 26 30  1  0
 27 26  1  0
 28 29  1  0
 28 27  1  0
 29 25  1  0
 30 31  2  0
 31 32  1  0
 33 32  2  0
 34 33  1  0
 35  9  1  0
 35 40  1  0
 35 36  1  0
 36 39  1  1
 36 37  1  0
 38 36  1  0
 40 43  1  0
 41 45  1  0
 41 40  1  0
 42 41  2  0
 45 44  1  0
 47 45  1  0
 47 48  1  0
 47 46  1  0
 49  5  1  0
 49 50  1  0
 52 57  1  0
 53 54  1  0
 53 52  1  0
 55 54  1  0
 55 64  1  0
 55 56  1  0
 57 51  1  0
 57 56  1  0
 58 51  2  0
 59 60  1  0
 60 51  1  0
 60 50  1  0
 61 62  2  0
 62 81  1  0
 63 62  1  0
 63 66  1  0
 64 61  1  0
 64 65  1  0
 65 63  2  0
 66 67  1  0
 67 68  2  0
 69 72  1  0
 69 68  1  0
 70 69  2  0
 71 70  1  0
 71 66  2  0
 72 73  1  0
 73 78  2  0
 73 74  1  0
 74 75  2  0
 75 76  1  0
 76 80  1  0
 77 76  2  0
 78 77  1  0
 79 78  1  0
 81 82  1  0
 82 85  1  0
 82 84  1  0
 83 81  2  0
 86 87  1  0
 86 61  1  0
 88 86  1  0
M  ISO  4   7 101   8 101  51 100  60 100
M  END
>  <TORSDO>  (12) 
F 20

>  <SCORE>  (12) 
-12.705

>  <name>  (12) 
11

>  <ligand_id>  (12) 
11

>  <original_smiles>  (12) 
[H]c1nn(C([H])([H])C([H])([H])N(C(=O)N2C([H])([H])C([H])([H])C([H])([H])C([H])(n3nc(-c4c([H])c([H])c(Oc5c([H])c([H])c(F)c([H])c5F)c([H])c4[H])c(C(=O)N([H])[H])c3N([H])[H])C2([H])[H])C([H])([H])[H])c(C([H])([H])C([H])([H])Oc2c([H])c([H])c3c(c2[H])C([H])([H])N(C(=O)C([H])(N([H])C(=O)C([H])(N([H])C([H])([H])[H])C([H])([H])[H])C(C([H])([H])[H])(C([H])([H])[H])C([H])([H])[H])C([H])(C(=O)N([H])C2([H])c4c([H])c([H])c([H])c([H])c4C([H])([H])C([H])([H])C2([H])[H])C3([H])[H])c1[H]

>  <smiles>  (12) 
[H]c1nn(C([H])([H])C([H])([H])N(C(=O)N2C([H])([H])C([H])([H])C([H])([H])C([H])(n3nc(-c4c([H])c([H])c(Oc5c([H])c([H])c(F)c([H])c5F)c([H])c4[H])c(C(=O)N([H])[H])c3N([H])[H])C2([H])[H])C([H])([H])[H])c(C([H])([H])C([H])([H])Oc2c([H])c([H])c3c(c2[H])C([H])([H])N(C(=O)C([H])(N([H])C(=O)C([H])(N([H])C([H])([H])[H])C([H])([H])[H])C(C([H])([H])[H])(C([H])([H])[H])C([H])([H])[H])C([H])(C(=O)N([H])C2([H])c4c([H])c([H])c([H])c([H])c4C([H])([H])C([H])([H])C2([H])[H])C3([H])[H])c1[H]

$$$$
12:0:0
     RDKit          3D

 92100  0  0  1  0  0  0  0  0999 V2000
  -30.6600  -22.5900   20.4670 C   0  0  0  0  0  3  0  0  0  0  0  0
  -31.5060  -21.4740   20.5060 C   0  0  0  0  0  0  0  0  0  0  0  0
  -29.3050  -22.4020   20.1640 C   0  0  0  0  0  0  0  0  0  0  0  0
  -29.7780  -20.0480   19.9660 C   0  0  0  0  0  0  0  0  0  0  0  0
  -32.9620  -21.6120   20.8950 C   0  0  0  0  0  1  0  0  0  0  0  0
  -31.0660  -20.2290   20.2480 N   0  0  0  0  0  0  0  0  0  0  0  0
  -28.8900  -21.0980   19.9090 N   0  0  0  0  0  0  0  0  0  0  0  0
  -29.1150  -18.4440   18.1040 C   0  0  0  0  0  1  0  0  0  0  0  0
  -28.0700  -18.2010   20.3950 C   0  0  0  0  0  1  0  0  0  0  0  0
  -29.3640  -18.5290   19.6240 C   0  0  2  0  0  0  0  0  0  0  0  0
  -30.4360  -17.3500   19.9980 C   0  0  0  0  0  2  0  0  0  0  0  0
  -30.7780  -14.7310   19.8810 C   0  0  0  0  0  0  0  0  0  0  0  0
  -30.5170  -12.4120   18.9860 C   0  0  0  0  0  2  0  0  0  0  0  0
  -29.5430  -12.4540   17.7900 C   0  0  0  0  0  2  0  0  0  0  0  0
  -28.0830  -12.3290   18.2740 C   0  0  0  0  0  2  0  0  0  0  0  0
  -27.7690  -13.2710   19.4680 C   0  0  0  0  0  3  0  0  0  0  0  0
  -28.8620  -13.2130   20.5550 C   0  0  0  0  0  2  0  0  0  0  0  0
  -30.1400  -13.5120   19.9010 N   0  0  0  0  0  0  0  0  0  0  0  0
  -31.9530  -14.8090   19.5140 O   0  0  0  0  0  0  0  0  0  0  0  0
  -30.0170  -15.8720   20.0800 N   0  0  0  0  0  0  0  0  0  0  0  0
  -29.0520  -15.7010   20.3160 H   0  0  0  0  0  0  0  0  0  0  0  0
  -25.4440  -13.9470   20.3090 C   0  0  0  0  0  0  0  0  0  0  0  0
  -24.3710  -13.2110   20.7310 C   0  0  0  0  0  0  0  0  0  0  0  0
  -24.7820  -11.8450   20.6790 C   0  0  0  0  0  0  0  0  0  0  0  0
  -26.4410  -13.0290   20.0200 N   0  0  0  0  0  0  0  0  0  0  0  0
  -26.0540  -11.7590   20.3090 N   0  0  0  0  0  0  0  0  0  0  0  0
  -24.0180  -10.6120   20.9020 C   0  0  0  0  0  0  0  0  0  0  0  0
  -24.4500   -9.6360   21.8250 C   0  0  0  0  0  3  0  0  0  0  0  0
  -23.6910   -8.4640   22.0380 C   0  0  0  0  0  3  0  0  0  0  0  0
  -22.4830   -8.2650   21.3280 C   0  0  0  0  0  0  0  0  0  0  0  0
  -22.0690   -9.2290   20.3920 C   0  0  0  0  0  3  0  0  0  0  0  0
  -22.8290  -10.3920   20.1780 C   0  0  0  0  0  3  0  0  0  0  0  0
  -21.6900   -7.1500   21.4530 O   0  0  0  0  0  0  0  0  0  0  0  0
  -21.6560   -6.4150   22.6100 C   0  0  0  0  0  0  0  0  0  0  0  0
  -21.2840   -6.9860   23.8470 C   0  0  0  0  0  3  0  0  0  0  0  0
  -21.1960   -6.1790   24.9980 C   0  0  0  0  0  3  0  0  0  0  0  0
  -21.4690   -4.8000   24.9140 C   0  0  0  0  0  0  0  0  0  0  0  0
  -21.8350   -4.2280   23.6830 C   0  0  0  0  0  3  0  0  0  0  0  0
  -21.9250   -5.0330   22.5340 C   0  0  0  0  0  0  0  0  0  0  0  0
  -22.2570   -4.4710   21.3470 F   0  0  0  0  0  0  0  0  0  0  0  0
  -21.3760   -4.0220   26.0170 F   0  0  0  0  0  0  0  0  0  0  0  0
  -23.0070  -13.7400   21.0640 C   0  0  0  0  0  0  0  0  0  0  0  0
  -22.2950  -13.0750   21.9670 N   0  0  0  0  0  0  0  0  0  0  0  0
  -22.5830  -14.7770   20.5550 O   0  0  0  0  0  0  0  0  0  0  0  0
  -22.6490  -12.2350   22.3970 H   0  0  0  0  0  0  0  0  0  0  0  0
  -21.3820  -13.4150   22.2310 H   0  0  0  0  0  0  0  0  0  0  0  0
  -25.6490  -15.3110   20.1220 N   0  0  0  0  0  0  0  0  0  0  0  0
  -24.8980  -15.9830   20.2450 H   0  0  0  0  0  0  0  0  0  0  0  0
  -26.4710  -15.7170   19.6970 H   0  0  0  0  0  0  0  0  0  0  0  0
  -28.3180  -23.6470   20.3260 C   0  0  0  0  0  2  0  0  0  0  0  0
  -28.5420  -25.0280   19.5100 C   0  0  0  0  0  2  0  0  0  0  0  0
  -28.3870  -26.3920   20.1220 O   0  0  0  0  0  0  0  0  0  0  0  0
  -24.5930  -31.7350   23.1390 C   0  0  0  0  0  0  0  0  0  0  0  0
  -27.2450  -27.2140   20.0380 C   0  0  0  0  0  0  0  0  0  0  0  0
  -23.4070  -30.3650   21.4590 C   0  0  0  0  0  3  0  0  0  0  0  0
  -24.8740  -28.8350   20.0190 C   0  0  0  0  0  0  0  0  0  0  0  0
  -25.9470  -30.6870   21.3070 C   0  0  0  0  0  2  0  0  0  0  0  0
  -26.0340  -29.3160   20.6380 C   0  0  0  0  0  0  0  0  0  0  0  0
  -27.2180  -28.5190   20.6330 C   0  0  0  0  0  3  0  0  0  0  0  0
  -26.0620  -26.7860   19.3980 C   0  0  0  0  0  3  0  0  0  0  0  0
  -24.8940  -27.5790   19.3870 C   0  0  0  0  0  3  0  0  0  0  0  0
  -23.6350  -29.7080   20.0690 C   0  0  0  0  0  2  0  0  0  0  0  0
  -24.6670  -30.9480   22.0250 N   0  0  0  0  0  0  0  0  0  0  0  0
  -23.5040  -32.0000   23.6690 O   0  0  0  0  0  0  0  0  0  0  0  0
  -22.7360  -29.3330   22.3980 C   0  0  0  0  0  0  0  0  0  0  0  0
  -21.4100  -29.1650   22.2640 N   0  0  0  0  0  0  0  0  0  0  0  0
  -23.4090  -28.6900   23.2070 O   0  0  0  0  0  0  0  0  0  0  0  0
  -20.9260  -29.7400   21.5890 H   0  0  0  0  0  0  0  0  0  0  0  0
  -18.0250  -27.9720   22.7240 C   0  0  0  0  0  0  0  0  0  0  0  0
  -20.5830  -28.2140   23.0100 C   0  0  0  0  0  3  0  0  0  0  0  0
  -20.6810  -26.7950   22.4030 C   0  0  0  0  0  2  0  0  0  0  0  0
  -19.5820  -26.5010   21.3760 C   0  0  0  0  0  2  0  0  0  0  0  0
  -18.1990  -26.6370   22.0190 C   0  0  0  0  0  2  0  0  0  0  0  0
  -19.1460  -28.7200   23.1760 C   0  0  0  0  0  0  0  0  0  0  0  0
  -18.9300  -29.9690   23.7950 C   0  0  0  0  0  3  0  0  0  0  0  0
  -17.6260  -30.4710   23.9720 C   0  0  0  0  0  3  0  0  0  0  0  0
  -16.5200  -29.7200   23.5360 C   0  0  0  0  0  3  0  0  0  0  0  0
  -16.7200  -28.4730   22.9170 C   0  0  0  0  0  3  0  0  0  0  0  0
  -25.8690  -32.3590   23.7850 C   0  0  0  0  0  3  0  0  0  0  0  0
  -26.3660  -31.5720   25.0610 C   0  0  1  0  0  0  0  0  0  0  0  0
  -25.2610  -31.3250   26.1110 C   0  0  0  0  0  1  0  0  0  0  0  0
  -26.9560  -30.1980   24.6650 C   0  0  0  0  0  1  0  0  0  0  0  0
  -27.5040  -32.3600   25.7520 C   0  0  0  0  0  1  0  0  0  0  0  0
  -25.5520  -33.7530   24.1310 N   0  0  0  0  0  0  0  0  0  0  0  0
  -25.8930  -34.8190   23.3940 C   0  0  0  0  0  0  0  0  0  0  0  0
  -26.5760  -34.7320   22.3700 O   0  0  0  0  0  0  0  0  0  0  0  0
  -24.9450  -33.8920   24.9250 H   0  0  0  0  0  0  0  0  0  0  0  0
  -24.1650  -36.6210   23.0580 C   0  0  0  0  0  1  0  0  0  0  0  0
  -25.4010  -36.2010   23.8700 C   0  0  0  0  0  3  0  0  0  0  0  0
  -27.5280  -37.0820   24.7270 C   0  0  0  0  0  1  0  0  0  0  0  0
  -26.4320  -37.2570   23.7770 N   0  0  0  0  0  0  0  0  0  0  0  0
  -26.0210  -38.1740   23.9320 H   0  0  0  0  0  0  0  0  0  0  0  0
  1  2  2  0
  2  5  1  0
  3 50  1  0
  3  1  1  0
  4  6  2  0
  6  2  1  0
  7  4  1  0
  7  3  2  0
 10  8  1  6
 10  4  1  0
 10 11  1  0
 10  9  1  0
 11 20  1  0
 12 18  1  0
 12 20  1  0
 13 18  1  0
 14 15  1  0
 14 13  1  0
 16 15  1  0
 16 25  1  0
 16 17  1  0
 18 17  1  0
 19 12  2  0
 20 21  1  0
 22 23  2  0
 23 42  1  0
 24 23  1  0
 24 27  1  0
 25 22  1  0
 25 26  1  0
 26 24  2  0
 27 28  1  0
 28 29  2  0
 30 33  1  0
 30 29  1  0
 31 30  2  0
 32 31  1  0
 32 27  2  0
 33 34  1  0
 34 35  1  0
 35 36  2  0
 37 36  1  0
 37 41  1  0
 38 37  2  0
 39 34  2  0
 39 38  1  0
 40 39  1  0
 42 43  1  0
 43 46  1  0
 43 45  1  0
 44 42  2  0
 47 48  1  0
 47 22  1  0
 49 47  1  0
 51 52  1  0
 51 50  1  0
 53 64  2  0
 54 52  1  0
 54 59  1  0
 55 63  1  0
 55 65  1  0
 56 62  1  0
 56 58  1  0
 57 63  1  0
 58 57  1  0
 59 58  2  0
 60 54  2  0
 61 60  1  0
 61 56  2  0
 62 55  1  0
 63 53  1  0
 65 67  2  0
 66 65  1  0
 68 66  1  0
 69 78  2  0
 69 74  1  0
 70 66  1  0
 70 74  1  0
 71 70  1  0
 72 73  1  0
 72 71  1  0
 73 69  1  0
 74 75  2  0
 75 76  1  0
 77 76  2  0
 78 77  1  0
 79 53  1  0
 79 84  1  0
 79 80  1  0
 80 83  1  1
 80 81  1  0
 82 80  1  0
 84 87  1  0
 85 89  1  0
 85 84  1  0
 86 85  2  0
 89 88  1  0
 91 89  1  0
 91 92  1  0
 91 90  1  0
M  ISO  4  12 100  20 100  51 101  52 101
M  END
>  <TORSDO>  (13) 
F 20

>  <SCORE>  (13) 
-13.758

>  <name>  (13) 
12

>  <ligand_id>  (13) 
12

>  <original_smiles>  (13) 
[H]c1c(C([H])([H])[H])nc(C(C([H])([H])[H])(C([H])([H])[H])C([H])([H])N([H])C(=O)N2C([H])([H])C([H])([H])C([H])([H])C([H])(n3nc(-c4c([H])c([H])c(Oc5c([H])c([H])c(F)c([H])c5F)c([H])c4[H])c(C(=O)N([H])[H])c3N([H])[H])C2([H])[H])nc1C([H])([H])C([H])([H])Oc1c([H])c([H])c2c(c1[H])C([H])([H])N(C(=O)C([H])(N([H])C(=O)C([H])(N([H])C([H])([H])[H])C([H])([H])[H])C(C([H])([H])[H])(C([H])([H])[H])C([H])([H])[H])C([H])(C(=O)N([H])C1([H])c3c([H])c([H])c([H])c([H])c3C([H])([H])C([H])([H])C1([H])[H])C2([H])[H]

>  <smiles>  (13) 
[H]c1c(C([H])([H])[H])nc(C(C([H])([H])[H])(C([H])([H])[H])C([H])([H])N([H])C(=O)N2C([H])([H])C([H])([H])C([H])([H])C([H])(n3nc(-c4c([H])c([H])c(Oc5c([H])c([H])c(F)c([H])c5F)c([H])c4[H])c(C(=O)N([H])[H])c3N([H])[H])C2([H])[H])nc1C([H])([H])C([H])([H])Oc1c([H])c([H])c2c(c1[H])C([H])([H])N(C(=O)C([H])(N([H])C(=O)C([H])(N([H])C([H])([H])[H])C([H])([H])[H])C(C([H])([H])[H])(C([H])([H])[H])C([H])([H])[H])C([H])(C(=O)N([H])C1([H])c3c([H])c([H])c([H])c([H])c3C([H])([H])C([H])([H])C1([H])[H])C2([H])[H]

$$$$
13:0:0
     RDKit          3D

 91100  0  0  1  0  0  0  0  0999 V2000
  -27.6850  -22.2820   19.9160 C   0  0  0  0  0  3  0  0  0  0  0  0
  -29.7220  -22.6090   19.2880 C   0  0  0  0  0  3  0  0  0  0  0  0
  -28.5590  -23.3540   19.5300 C   0  0  0  0  0  0  0  0  0  0  0  0
  -28.2060  -21.0580   19.8730 N   0  0  0  0  0  0  0  0  0  0  0  0
  -29.5030  -21.2080   19.5260 N   0  0  0  0  0  0  0  0  0  0  0  0
  -27.9080  -24.8010   19.3000 C   0  0  0  0  0  2  0  0  0  0  0  0
  -28.3260  -26.2040   19.7010 O   0  0  0  0  0  0  0  0  0  0  0  0
  -24.7610  -31.6570   23.0300 C   0  0  0  0  0  0  0  0  0  0  0  0
  -27.2850  -27.1900   19.6720 C   0  0  0  0  0  0  0  0  0  0  0  0
  -23.5170  -30.3290   21.3680 C   0  0  0  0  0  3  0  0  0  0  0  0
  -24.9350  -28.8690   19.8170 C   0  0  0  0  0  0  0  0  0  0  0  0
  -26.0630  -30.6360   21.1480 C   0  0  0  0  0  2  0  0  0  0  0  0
  -26.1250  -29.2910   20.4230 C   0  0  0  0  0  0  0  0  0  0  0  0
  -27.2990  -28.4570   20.3640 C   0  0  0  0  0  3  0  0  0  0  0  0
  -26.0820  -26.9070   18.9770 C   0  0  0  0  0  3  0  0  0  0  0  0
  -24.9210  -27.6840   19.0850 C   0  0  0  0  0  3  0  0  0  0  0  0
  -23.6930  -29.7300   19.9500 C   0  0  0  0  0  2  0  0  0  0  0  0
  -24.8000  -30.8890   21.9020 N   0  0  0  0  0  0  0  0  0  0  0  0
  -23.6900  -31.9110   23.6010 O   0  0  0  0  0  0  0  0  0  0  0  0
  -22.8850  -29.2630   22.2960 C   0  0  0  0  0  0  0  0  0  0  0  0
  -21.5600  -29.0710   22.1870 N   0  0  0  0  0  0  0  0  0  0  0  0
  -23.5870  -28.6120   23.0760 O   0  0  0  0  0  0  0  0  0  0  0  0
  -21.0510  -29.6520   21.5350 H   0  0  0  0  0  0  0  0  0  0  0  0
  -18.2130  -27.7860   22.6950 C   0  0  0  0  0  0  0  0  0  0  0  0
  -20.7680  -28.0930   22.9370 C   0  0  0  0  0  3  0  0  0  0  0  0
  -20.8920  -26.6790   22.3190 C   0  0  0  0  0  2  0  0  0  0  0  0
  -19.7840  -26.3650   21.3090 C   0  0  0  0  0  2  0  0  0  0  0  0
  -18.4090  -26.4620   21.9760 C   0  0  0  0  0  2  0  0  0  0  0  0
  -19.3220  -28.5590   23.1320 C   0  0  0  0  0  0  0  0  0  0  0  0
  -19.0850  -29.7980   23.7640 C   0  0  0  0  0  3  0  0  0  0  0  0
  -17.7720  -30.2670   23.9640 C   0  0  0  0  0  3  0  0  0  0  0  0
  -16.6780  -29.4900   23.5440 C   0  0  0  0  0  3  0  0  0  0  0  0
  -16.9010  -28.2510   22.9170 C   0  0  0  0  0  3  0  0  0  0  0  0
  -26.0580  -32.2720   23.6390 C   0  0  0  0  0  3  0  0  0  0  0  0
  -26.6460  -31.4220   24.8330 C   0  0  1  0  0  0  0  0  0  0  0  0
  -25.6050  -31.0820   25.9250 C   0  0  0  0  0  1  0  0  0  0  0  0
  -27.2410  -30.0870   24.3250 C   0  0  0  0  0  1  0  0  0  0  0  0
  -27.8100  -32.1950   25.4980 C   0  0  0  0  0  1  0  0  0  0  0  0
  -25.7330  -33.6330   24.0850 N   0  0  0  0  0  0  0  0  0  0  0  0
  -26.0300  -34.7500   23.4080 C   0  0  0  0  0  0  0  0  0  0  0  0
  -26.6760  -34.7430   22.3580 O   0  0  0  0  0  0  0  0  0  0  0  0
  -25.1460  -33.7100   24.9040 H   0  0  0  0  0  0  0  0  0  0  0  0
  -24.2650  -36.5360   23.2490 C   0  0  0  0  0  1  0  0  0  0  0  0
  -25.5370  -36.0890   23.9890 C   0  0  0  0  0  3  0  0  0  0  0  0
  -27.6800  -36.9380   24.8320 C   0  0  0  0  0  1  0  0  0  0  0  0
  -26.5490  -37.1650   23.9350 N   0  0  0  0  0  0  0  0  0  0  0  0
  -26.1340  -38.0630   24.1700 H   0  0  0  0  0  0  0  0  0  0  0  0
  -30.3650  -19.9680   19.2560 C   0  0  0  0  0  2  0  0  0  0  0  0
  -31.0000  -16.5070   21.8530 C   0  0  0  0  0  3  0  0  0  0  0  0
  -31.0950  -16.3110   20.4560 C   0  0  0  0  0  0  0  0  0  0  0  0
  -30.3290  -18.7320   21.6210 C   0  0  0  0  0  0  0  0  0  0  0  0
  -30.4530  -18.6670   20.2020 C   0  0  0  0  0  0  0  0  0  0  0  0
  -29.9450  -19.9770   22.4040 C   0  0  0  0  0  1  0  0  0  0  0  0
  -30.6000  -17.6690   22.4190 N   0  0  0  0  0  0  0  0  0  0  0  0
  -30.8330  -17.4330   19.6490 N   0  0  0  0  0  0  0  0  0  0  0  0
  -31.6470  -14.9480   19.8960 C   0  0  0  0  0  0  0  0  0  0  0  0
  -31.2510  -12.6930   18.8730 C   0  0  0  0  0  2  0  0  0  0  0  0
  -30.2420  -12.7900   17.7030 C   0  0  0  0  0  2  0  0  0  0  0  0
  -28.7910  -12.6940   18.2170 C   0  0  0  0  0  2  0  0  0  0  0  0
  -28.5350  -13.6140   19.4380 C   0  0  0  0  0  3  0  0  0  0  0  0
  -29.6430  -13.4300   20.4900 C   0  0  0  0  0  2  0  0  0  0  0  0
  -30.9340  -13.7580   19.8590 N   0  0  0  0  0  0  0  0  0  0  0  0
  -32.7580  -14.9820   19.3530 O   0  0  0  0  0  0  0  0  0  0  0  0
  -26.2750  -14.3550   20.4140 C   0  0  0  0  0  0  0  0  0  0  0  0
  -25.1710  -13.6530   20.8130 C   0  0  0  0  0  0  0  0  0  0  0  0
  -25.5000  -12.2720   20.6390 C   0  0  0  0  0  0  0  0  0  0  0  0
  -27.2080  -13.4100   20.0150 N   0  0  0  0  0  0  0  0  0  0  0  0
  -26.7510  -12.1460   20.2130 N   0  0  0  0  0  0  0  0  0  0  0  0
  -24.6740  -11.0680   20.7920 C   0  0  0  0  0  0  0  0  0  0  0  0
  -25.0220  -10.0410   21.6960 C   0  0  0  0  0  3  0  0  0  0  0  0
  -24.2000   -8.9020   21.8380 C   0  0  0  0  0  3  0  0  0  0  0  0
  -23.0180   -8.7790   21.0720 C   0  0  0  0  0  0  0  0  0  0  0  0
  -22.6850   -9.7960   20.1580 C   0  0  0  0  0  3  0  0  0  0  0  0
  -23.5060  -10.9270   20.0160 C   0  0  0  0  0  3  0  0  0  0  0  0
  -22.1760   -7.6940   21.1220 O   0  0  0  0  0  0  0  0  0  0  0  0
  -21.9840   -6.9850   22.2800 C   0  0  0  0  0  0  0  0  0  0  0  0
  -21.5430   -7.6060   23.4680 C   0  0  0  0  0  3  0  0  0  0  0  0
  -21.2900   -6.8310   24.6170 C   0  0  0  0  0  3  0  0  0  0  0  0
  -21.4660   -5.4340   24.5780 C   0  0  0  0  0  0  0  0  0  0  0  0
  -21.8990   -4.8130   23.3930 C   0  0  0  0  0  3  0  0  0  0  0  0
  -22.1530   -5.5850   22.2470 C   0  0  0  0  0  0  0  0  0  0  0  0
  -22.5480   -4.9800   21.1020 F   0  0  0  0  0  0  0  0  0  0  0  0
  -21.2180   -4.6860   25.6790 F   0  0  0  0  0  0  0  0  0  0  0  0
  -23.8500  -14.2290   21.2330 C   0  0  0  0  0  0  0  0  0  0  0  0
  -23.1490  -13.5650   22.1450 N   0  0  0  0  0  0  0  0  0  0  0  0
  -23.4490  -15.3030   20.7850 O   0  0  0  0  0  0  0  0  0  0  0  0
  -23.4810  -12.6960   22.5370 H   0  0  0  0  0  0  0  0  0  0  0  0
  -22.2600  -13.9330   22.4550 H   0  0  0  0  0  0  0  0  0  0  0  0
  -26.5570  -15.7170   20.3340 N   0  0  0  0  0  0  0  0  0  0  0  0
  -25.8770  -16.4230   20.5900 H   0  0  0  0  0  0  0  0  0  0  0  0
  -27.4260  -16.1110   19.9960 H   0  0  0  0  0  0  0  0  0  0  0  0
  2  5  1  0
  2  3  2  0
  3  1  1  0
  4  1  2  0
  5  4  1  0
  6  3  1  0
  6  7  1  0
  8 19  2  0
  9  7  1  0
  9 14  1  0
 10 18  1  0
 10 20  1  0
 11 17  1  0
 11 13  1  0
 12 18  1  0
 13 12  1  0
 14 13  2  0
 15 16  1  0
 15  9  2  0
 16 11  2  0
 17 10  1  0
 18  8  1  0
 20 22  2  0
 21 20  1  0
 23 21  1  0
 24 33  2  0
 24 29  1  0
 25 21  1  0
 25 29  1  0
 26 25  1  0
 27 28  1  0
 27 26  1  0
 28 24  1  0
 29 30  2  0
 30 31  1  0
 32 31  2  0
 33 32  1  0
 34  8  1  0
 34 39  1  0
 34 35  1  0
 35 38  1  1
 35 36  1  0
 37 35  1  0
 39 42  1  0
 40 44  1  0
 40 39  1  0
 41 40  2  0
 44 43  1  0
 46 44  1  0
 46 47  1  0
 46 45  1  0
 48  5  1  0
 48 52  1  0
 49 54  1  0
 50 49  2  0
 51 53  1  0
 51 54  2  0
 52 51  1  0
 55 52  2  0
 55 50  1  0
 56 50  1  0
 57 62  1  0
 58 59  1  0
 58 57  1  0
 60 59  1  0
 60 67  1  0
 60 61  1  0
 62 56  1  0
 62 61  1  0
 63 56  2  0
 64 65  2  0
 65 84  1  0
 66 69  1  0
 66 65  1  0
 67 68  1  0
 67 64  1  0
 68 66  2  0
 69 70  1  0
 70 71  2  0
 72 75  1  0
 72 71  1  0
 73 72  2  0
 74 73  1  0
 74 69  2  0
 75 76  1  0
 76 77  1  0
 77 78  2  0
 79 78  1  0
 79 83  1  0
 80 79  2  0
 81 76  2  0
 81 80  1  0
 82 81  1  0
 84 85  1  0
 85 88  1  0
 85 87  1  0
 86 84  2  0
 89 64  1  0
 89 90  1  0
 91 89  1  0
M  ISO  4   6 101   7 101  50 100  56 100
M  END
>  <TORSDO>  (14) 
F 19

>  <SCORE>  (14) 
-11.760

>  <name>  (14) 
13

>  <ligand_id>  (14) 
13

>  <original_smiles>  (14) 
[H]c1nc(C([H])([H])[H])c(C([H])([H])n2nc([H])c(C([H])([H])Oc3c([H])c([H])c4c(c3[H])C([H])([H])N(C(=O)C([H])(N([H])C(=O)C([H])(N([H])C([H])([H])[H])C([H])([H])[H])C(C([H])([H])[H])(C([H])([H])[H])C([H])([H])[H])C([H])(C(=O)N([H])C3([H])c5c([H])c([H])c([H])c([H])c5C([H])([H])C([H])([H])C3([H])[H])C4([H])[H])c2[H])nc1C(=O)N1C([H])([H])C([H])([H])C([H])([H])C([H])(n2nc(-c3c([H])c([H])c(Oc4c([H])c([H])c(F)c([H])c4F)c([H])c3[H])c(C(=O)N([H])[H])c2N([H])[H])C1([H])[H]

>  <smiles>  (14) 
[H]c1nc(C([H])([H])[H])c(C([H])([H])n2nc([H])c(C([H])([H])Oc3c([H])c([H])c4c(c3[H])C([H])([H])N(C(=O)C([H])(N([H])C(=O)C([H])(N([H])C([H])([H])[H])C([H])([H])[H])C(C([H])([H])[H])(C([H])([H])[H])C([H])([H])[H])C([H])(C(=O)N([H])C3([H])c5c([H])c([H])c([H])c([H])c5C([H])([H])C([H])([H])C3([H])[H])C4([H])[H])c2[H])nc1C(=O)N1C([H])([H])C([H])([H])C([H])([H])C([H])(n2nc(-c3c([H])c([H])c(Oc4c([H])c([H])c(F)c([H])c4F)c([H])c3[H])c(C(=O)N([H])[H])c2N([H])[H])C1([H])[H]

$$$$
14:0:0
     RDKit          3D

 88 96  0  0  1  0  0  0  0  0999 V2000
  -29.1720  -20.0530   18.6080 C   0  0  0  0  0  3  0  0  0  0  0  0
  -29.2180  -19.9170   20.0130 C   0  0  0  0  0  0  0  0  0  0  0  0
  -28.6790  -22.4040   18.5940 C   0  0  0  0  0  0  0  0  0  0  0  0
  -28.6430  -22.5570   20.0050 C   0  0  0  0  0  0  0  0  0  0  0  0
  -28.3810  -23.5780   17.6800 C   0  0  0  0  0  1  0  0  0  0  0  0
  -28.9280  -21.2240   17.9450 N   0  0  0  0  0  0  0  0  0  0  0  0
  -28.9290  -21.2380   20.6690 N   0  0  0  0  0  0  0  0  0  0  0  0
  -29.7860  -18.3470   20.6400 C   0  0  0  0  0  2  0  0  0  0  0  0
  -30.3690  -15.3880   20.2540 C   0  0  0  0  0  0  0  0  0  0  0  0
  -30.3850  -12.9220   19.3640 C   0  0  0  0  0  2  0  0  0  0  0  0
  -29.4640  -12.6560   18.1450 C   0  0  0  0  0  2  0  0  0  0  0  0
  -28.0240  -12.3590   18.5990 C   0  0  0  0  0  2  0  0  0  0  0  0
  -27.5600  -13.3280   19.7140 C   0  0  0  0  0  3  0  0  0  0  0  0
  -28.6130  -13.5190   20.8250 C   0  0  0  0  0  2  0  0  0  0  0  0
  -29.8140  -14.0690   20.1690 N   0  0  0  0  0  0  0  0  0  0  0  0
  -31.6020  -15.3660   20.1080 O   0  0  0  0  0  0  0  0  0  0  0  0
  -29.5990  -16.6820   20.3090 N   0  0  0  0  0  0  0  0  0  0  0  0
  -28.6140  -16.4660   20.2660 H   0  0  0  0  0  0  0  0  0  0  0  0
  -25.1950  -13.8680   20.4870 C   0  0  0  0  0  0  0  0  0  0  0  0
  -24.1390  -13.0850   20.8570 C   0  0  0  0  0  0  0  0  0  0  0  0
  -24.6130  -11.7370   20.8230 C   0  0  0  0  0  0  0  0  0  0  0  0
  -26.2410  -12.9990   20.2360 N   0  0  0  0  0  0  0  0  0  0  0  0
  -25.9050  -11.7110   20.5080 N   0  0  0  0  0  0  0  0  0  0  0  0
  -23.8920  -10.4710   21.0120 C   0  0  0  0  0  0  0  0  0  0  0  0
  -24.3180   -9.5110   21.9560 C   0  0  0  0  0  3  0  0  0  0  0  0
  -23.5940   -8.3120   22.1340 C   0  0  0  0  0  3  0  0  0  0  0  0
  -22.4290   -8.0660   21.3680 C   0  0  0  0  0  0  0  0  0  0  0  0
  -22.0220   -9.0140   20.4130 C   0  0  0  0  0  3  0  0  0  0  0  0
  -22.7480  -10.2040   20.2330 C   0  0  0  0  0  3  0  0  0  0  0  0
  -21.6780   -6.9190   21.4550 O   0  0  0  0  0  0  0  0  0  0  0  0
  -21.6060   -6.1910   22.6150 C   0  0  0  0  0  0  0  0  0  0  0  0
  -21.1330   -6.7560   23.8210 C   0  0  0  0  0  3  0  0  0  0  0  0
  -21.0090   -5.9540   24.9730 C   0  0  0  0  0  3  0  0  0  0  0  0
  -21.3490   -4.5880   24.9210 C   0  0  0  0  0  0  0  0  0  0  0  0
  -21.8140   -4.0230   23.7210 C   0  0  0  0  0  3  0  0  0  0  0  0
  -21.9390   -4.8220   22.5710 C   0  0  0  0  0  0  0  0  0  0  0  0
  -22.3680   -4.2670   21.4120 F   0  0  0  0  0  0  0  0  0  0  0  0
  -21.2230   -3.8170   26.0260 F   0  0  0  0  0  0  0  0  0  0  0  0
  -22.7400  -13.5550   21.1250 C   0  0  0  0  0  0  0  0  0  0  0  0
  -22.0110  -12.8530   21.9850 N   0  0  0  0  0  0  0  0  0  0  0  0
  -22.3010  -14.5810   20.6060 O   0  0  0  0  0  0  0  0  0  0  0  0
  -22.3820  -12.0250   22.4270 H   0  0  0  0  0  0  0  0  0  0  0  0
  -21.0710  -13.1480   22.2050 H   0  0  0  0  0  0  0  0  0  0  0  0
  -25.3470  -15.2410   20.3090 N   0  0  0  0  0  0  0  0  0  0  0  0
  -24.5710  -15.8840   20.4220 H   0  0  0  0  0  0  0  0  0  0  0  0
  -26.1760  -15.6840   19.9370 H   0  0  0  0  0  0  0  0  0  0  0  0
  -28.0310  -24.1180   20.6310 C   0  0  0  0  0  2  0  0  0  0  0  0
  -28.2550  -25.7530   20.2920 O   0  0  0  0  0  0  0  0  0  0  0  0
  -24.6600  -31.8450   23.2220 C   0  0  0  0  0  0  0  0  0  0  0  0
  -27.2470  -26.8790   20.2960 C   0  0  0  0  0  0  0  0  0  0  0  0
  -23.4880  -30.4290   21.5860 C   0  0  0  0  0  3  0  0  0  0  0  0
  -24.9540  -28.7980   20.2060 C   0  0  0  0  0  0  0  0  0  0  0  0
  -26.0610  -30.6230   21.4720 C   0  0  0  0  0  2  0  0  0  0  0  0
  -26.1400  -29.1990   20.8340 C   0  0  0  0  0  0  0  0  0  0  0  0
  -27.2810  -28.2650   20.8460 C   0  0  0  0  0  3  0  0  0  0  0  0
  -26.0270  -26.6450   19.6230 C   0  0  0  0  0  3  0  0  0  0  0  0
  -24.9260  -27.5430   19.5800 C   0  0  0  0  0  3  0  0  0  0  0  0
  -23.7390  -29.7280   20.2220 C   0  0  0  0  0  2  0  0  0  0  0  0
  -24.7580  -30.9950   22.1460 N   0  0  0  0  0  0  0  0  0  0  0  0
  -23.5640  -32.1400   23.7260 O   0  0  0  0  0  0  0  0  0  0  0  0
  -22.7790  -29.4470   22.5570 C   0  0  0  0  0  0  0  0  0  0  0  0
  -21.4490  -29.2890   22.4250 N   0  0  0  0  0  0  0  0  0  0  0  0
  -23.4360  -28.8260   23.3950 O   0  0  0  0  0  0  0  0  0  0  0  0
  -20.9720  -29.8430   21.7290 H   0  0  0  0  0  0  0  0  0  0  0  0
  -18.0560  -28.1010   22.9360 C   0  0  0  0  0  0  0  0  0  0  0  0
  -20.6180  -28.3590   23.1990 C   0  0  0  0  0  3  0  0  0  0  0  0
  -20.7120  -26.9230   22.6300 C   0  0  0  0  0  2  0  0  0  0  0  0
  -19.6080  -26.6020   21.6170 C   0  0  0  0  0  2  0  0  0  0  0  0
  -18.2280  -26.7510   22.2600 C   0  0  0  0  0  2  0  0  0  0  0  0
  -19.1780  -28.8620   23.3630 C   0  0  0  0  0  0  0  0  0  0  0  0
  -18.9600  -30.1220   23.9600 C   0  0  0  0  0  3  0  0  0  0  0  0
  -17.6550  -30.6240   24.1320 C   0  0  0  0  0  3  0  0  0  0  0  0
  -16.5490  -29.8610   23.7180 C   0  0  0  0  0  3  0  0  0  0  0  0
  -16.7500  -28.6020   23.1270 C   0  0  0  0  0  3  0  0  0  0  0  0
  -25.9200  -32.5000   23.8650 C   0  0  0  0  0  3  0  0  0  0  0  0
  -25.5970  -33.9040   24.1740 N   0  0  0  0  0  0  0  0  0  0  0  0
  -25.9400  -34.9570   23.4210 C   0  0  0  0  0  0  0  0  0  0  0  0
  -26.6230  -34.8480   22.4000 O   0  0  0  0  0  0  0  0  0  0  0  0
  -24.9900  -34.0610   24.9660 H   0  0  0  0  0  0  0  0  0  0  0  0
  -24.2240  -36.7620   23.0410 C   0  0  0  0  0  1  0  0  0  0  0  0
  -25.4520  -36.3510   23.8680 C   0  0  0  0  0  3  0  0  0  0  0  0
  -27.5750  -37.2410   24.7280 C   0  0  0  0  0  1  0  0  0  0  0  0
  -26.4900  -37.4010   23.7630 N   0  0  0  0  0  0  0  0  0  0  0  0
  -26.0840  -38.3240   23.8920 H   0  0  0  0  0  0  0  0  0  0  0  0
  -26.4040  -31.7570   25.1730 C   0  0  1  0  0  0  0  0  0  0  0  0
  -25.2850  -31.5460   26.2220 C   0  0  0  0  0  1  0  0  0  0  0  0
  -26.9920  -30.3690   24.8350 C   0  0  0  0  0  1  0  0  0  0  0  0
  -27.5410  -32.5630   25.8430 C   0  0  0  0  0  1  0  0  0  0  0  0
  1  2  1  0
  2  8  1  0
  2  7  2  0
  3  4  2  0
  4 47  1  0
  4  7  1  0
  5  3  1  0
  6  3  1  0
  6  1  2  0
  9 17  1  0
 10 15  1  0
 11 12  1  0
 11 10  1  0
 13 12  1  0
 13 22  1  0
 13 14  1  0
 15  9  1  0
 15 14  1  0
 16  9  2  0
 17  8  1  0
 18 17  1  0
 19 20  2  0
 20 39  1  0
 21 20  1  0
 21 24  1  0
 22 19  1  0
 22 23  1  0
 23 21  2  0
 24 25  1  0
 25 26  2  0
 27 30  1  0
 27 26  1  0
 28 27  2  0
 29 28  1  0
 29 24  2  0
 30 31  1  0
 31 32  1  0
 32 33  2  0
 34 33  1  0
 34 38  1  0
 35 34  2  0
 36 31  2  0
 36 35  1  0
 37 36  1  0
 39 40  1  0
 40 43  1  0
 40 42  1  0
 41 39  2  0
 44 45  1  0
 44 19  1  0
 46 44  1  0
 48 50  1  0
 48 47  1  0
 49 60  2  0
 50 55  1  0
 51 59  1  0
 51 61  1  0
 52 58  1  0
 52 54  1  0
 53 59  1  0
 54 55  2  0
 54 53  1  0
 56 50  2  0
 57 56  1  0
 57 52  2  0
 58 51  1  0
 59 49  1  0
 61 63  2  0
 62 61  1  0
 64 62  1  0
 65 74  2  0
 65 70  1  0
 66 62  1  0
 66 70  1  0
 67 66  1  0
 68 69  1  0
 68 67  1  0
 69 65  1  0
 70 71  2  0
 71 72  1  0
 73 72  2  0
 74 73  1  0
 75 49  1  0
 75 76  1  0
 75 85  1  0
 76 79  1  0
 77 81  1  0
 77 76  1  0
 78 77  2  0
 81 80  1  0
 83 81  1  0
 83 84  1  0
 83 82  1  0
 85 88  1  1
 85 86  1  0
 87 85  1  0
M  ISO  4   9 100  17 100  47 101  48 101
M  END
>  <TORSDO>  (15) 
F 18

>  <SCORE>  (15) 
-16.592

>  <name>  (15) 
14

>  <ligand_id>  (15) 
14

>  <original_smiles>  (15) 
[H]c1nc(C([H])([H])[H])c(C([H])([H])Oc2c([H])c([H])c3c(c2[H])C([H])([H])N(C(=O)C([H])(N([H])C(=O)C([H])(N([H])C([H])([H])[H])C([H])([H])[H])C(C([H])([H])[H])(C([H])([H])[H])C([H])([H])[H])C([H])(C(=O)N([H])C2([H])c4c([H])c([H])c([H])c([H])c4C([H])([H])C([H])([H])C2([H])[H])C3([H])[H])nc1C([H])([H])N([H])C(=O)N1C([H])([H])C([H])([H])C([H])([H])C([H])(n2nc(-c3c([H])c([H])c(Oc4c([H])c([H])c(F)c([H])c4F)c([H])c3[H])c(C(=O)N([H])[H])c2N([H])[H])C1([H])[H]

>  <smiles>  (15) 
[H]c1nc(C([H])([H])[H])c(C([H])([H])Oc2c([H])c([H])c3c(c2[H])C([H])([H])N(C(=O)C([H])(N([H])C(=O)C([H])(N([H])C([H])([H])[H])C([H])([H])[H])C(C([H])([H])[H])(C([H])([H])[H])C([H])([H])[H])C([H])(C(=O)N([H])C2([H])c4c([H])c([H])c([H])c([H])c4C([H])([H])C([H])([H])C2([H])[H])C3([H])[H])nc1C([H])([H])N([H])C(=O)N1C([H])([H])C([H])([H])C([H])([H])C([H])(n2nc(-c3c([H])c([H])c(Oc4c([H])c([H])c(F)c([H])c4F)c([H])c3[H])c(C(=O)N([H])[H])c2N([H])[H])C1([H])[H]

$$$$
15:0:0
     RDKit          3D

 90 94  0  0  1  0  0  0  0  0999 V2000
  -27.7550  -17.5470   19.4660 C   0  0  0  0  0  3  0  0  0  0  0  0
  -27.1020  -19.0320   19.2430 C   0  0  0  0  0  3  0  0  0  0  0  0
  -27.0370  -16.2980   20.0640 C   0  0  0  0  0  3  0  0  0  0  0  0
  -24.6410  -16.7290   20.7590 C   0  0  0  0  0  1  0  0  0  0  0  0
  -25.9360  -18.5120   19.7450 N   0  0  0  0  0  0  0  0  0  0  0  0
  -25.9020  -17.1440   20.1860 N   0  0  0  0  0  0  0  0  0  0  0  0
  -26.0620  -21.5430   19.6460 C   0  0  0  0  0  1  0  0  0  0  0  0
  -26.2200  -20.7460   17.2850 C   0  0  0  0  0  1  0  0  0  0  0  0
  -27.0060  -20.9440   18.6000 C   0  0  0  0  0  2  0  0  0  0  0  0
  -27.8970  -22.7320   18.1070 C   0  0  0  0  0 15  0  0  0  0  0  0
  -28.0940  -24.5910   18.2990 O   0  0  0  0  0  1  0  0  0  0  0  0
  -25.1230  -30.6210   22.2300 C   0  0  0  0  0  0  0  0  0  0  0  0
  -27.3530  -25.9920   18.3360 C   0  0  0  0  0  0  0  0  0  0  0  0
  -23.9020  -29.5170   20.4150 C   0  0  0  0  0  3  0  0  0  0  0  0
  -25.2820  -28.2020   18.6380 C   0  0  0  0  0  0  0  0  0  0  0  0
  -26.4760  -29.6580   20.2470 C   0  0  0  0  0  2  0  0  0  0  0  0
  -26.4860  -28.3620   19.3260 C   0  0  0  0  0  0  0  0  0  0  0  0
  -27.5210  -27.2880   19.1430 C   0  0  0  0  0  3  0  0  0  0  0  0
  -26.2000  -26.1550   17.5400 C   0  0  0  0  0  3  0  0  0  0  0  0
  -25.2020  -27.1570   17.7040 C   0  0  0  0  0  3  0  0  0  0  0  0
  -24.0950  -29.1350   18.9190 C   0  0  0  0  0  2  0  0  0  0  0  0
  -25.1960  -29.9690   21.0160 N   0  0  0  0  0  0  0  0  0  0  0  0
  -24.0420  -30.7880   22.8230 O   0  0  0  0  0  0  0  0  0  0  0  0
  -23.2670  -28.3370   21.2020 C   0  0  0  0  0  0  0  0  0  0  0  0
  -21.9320  -28.1720   21.1340 N   0  0  0  0  0  0  0  0  0  0  0  0
  -23.9850  -27.5790   21.8590 O   0  0  0  0  0  0  0  0  0  0  0  0
  -21.3950  -28.8380   20.5960 H   0  0  0  0  0  0  0  0  0  0  0  0
  -18.6050  -26.8070   21.6560 C   0  0  0  0  0  0  0  0  0  0  0  0
  -21.1770  -27.0770   21.7570 C   0  0  0  0  0  3  0  0  0  0  0  0
  -21.2370  -25.7970   20.8910 C   0  0  0  0  0  2  0  0  0  0  0  0
  -20.0580  -25.6710   19.9220 C   0  0  0  0  0  2  0  0  0  0  0  0
  -18.7340  -25.6400   20.6920 C   0  0  0  0  0  2  0  0  0  0  0  0
  -19.7500  -27.4910   22.1450 C   0  0  0  0  0  0  0  0  0  0  0  0
  -19.5710  -28.5850   23.0180 C   0  0  0  0  0  3  0  0  0  0  0  0
  -18.2820  -28.9990   23.4010 C   0  0  0  0  0  3  0  0  0  0  0  0
  -17.1520  -28.3120   22.9240 C   0  0  0  0  0  3  0  0  0  0  0  0
  -17.3150  -27.2160   22.0570 C   0  0  0  0  0  3  0  0  0  0  0  0
  -26.3850  -31.2070   22.9330 C   0  0  0  0  0  3  0  0  0  0  0  0
  -27.0940  -30.1760   23.8980 C   0  0  1  0  0  0  0  0  0  0  0  0
  -26.1400  -29.5240   24.9280 C   0  0  0  0  0  1  0  0  0  0  0  0
  -27.7700  -29.0350   23.1090 C   0  0  0  0  0  1  0  0  0  0  0  0
  -28.2240  -30.8840   24.6830 C   0  0  0  0  0  1  0  0  0  0  0  0
  -25.9720  -32.3960   23.7080 N   0  0  0  0  0  0  0  0  0  0  0  0
  -26.1820  -33.6720   23.3570 C   0  0  0  0  0  0  0  0  0  0  0  0
  -26.8030  -33.9820   22.3380 O   0  0  0  0  0  0  0  0  0  0  0  0
  -25.4130  -32.2180   24.5300 H   0  0  0  0  0  0  0  0  0  0  0  0
  -24.3210  -35.3400   23.6870 C   0  0  0  0  0  1  0  0  0  0  0  0
  -25.6250  -34.7790   24.2780 C   0  0  0  0  0  3  0  0  0  0  0  0
  -27.7250  -35.5040   25.3310 C   0  0  0  0  0  1  0  0  0  0  0  0
  -26.5750  -35.8900   24.5170 N   0  0  0  0  0  0  0  0  0  0  0  0
  -26.1110  -36.6700   24.9740 H   0  0  0  0  0  0  0  0  0  0  0  0
  -27.1570  -14.3590   20.6360 C   0  0  0  0  0  2  0  0  0  0  0  0
  -30.3130  -14.2080   20.2610 C   0  0  0  0  0  0  0  0  0  0  0  0
  -31.4390  -11.9100   19.7060 C   0  0  0  0  0  2  0  0  0  0  0  0
  -30.6600  -11.1790   18.5290 C   0  0  0  0  0  2  0  0  0  0  0  0
  -29.1280  -10.9770   18.7050 C   0  0  0  0  0  2  0  0  0  0  0  0
  -28.7400  -12.2460   19.3370 C   0  0  0  0  0  3  0  0  0  0  0  0
  -29.4800  -12.1940   20.7620 C   0  0  0  0  0  2  0  0  0  0  0  0
  -30.5840  -12.8890   20.4310 N   0  0  0  0  0  0  0  0  0  0  0  0
  -31.3350  -14.8040   19.8210 O   0  0  0  0  0  0  0  0  0  0  0  0
  -28.8890  -14.6780   20.5800 N   0  0  0  0  0  0  0  0  0  0  0  0
  -28.9620  -15.6840   20.5830 H   0  0  0  0  0  0  0  0  0  0  0  0
  -25.9600  -13.7630   19.3970 C   0  0  0  0  0  3  0  0  0  0  0  0
  -24.9100  -13.2700   20.6920 C   0  0  0  0  0  3  0  0  0  0  0  0
  -25.4320  -11.7900   21.4600 C   0  0  0  0  0  3  0  0  0  0  0  0
  -27.4460  -12.4690   19.5610 N   0  0  0  0  0  2  0  0  0  0  0  0
  -26.9290  -11.4810   20.9590 N   0  0  0  0  0  2  0  0  0  0  0  0
  -24.5660  -10.3810   21.3330 C   0  0  0  0  0  0  0  0  0  0  0  0
  -24.7400   -9.2850   22.2410 C   0  0  0  0  0  3  0  0  0  0  0  0
  -23.9460   -8.0880   22.2750 C   0  0  0  0  0  3  0  0  0  0  0  0
  -22.8950   -7.8390   21.3610 C   0  0  0  0  0  0  0  0  0  0  0  0
  -22.7780   -8.8070   20.3310 C   0  0  0  0  0  3  0  0  0  0  0  0
  -23.5920  -10.0030   20.3100 C   0  0  0  0  0  3  0  0  0  0  0  0
  -22.0580   -6.7160   21.4020 O   0  0  0  0  0  0  0  0  0  0  0  0
  -21.6820   -6.0860   22.5880 C   0  0  0  0  0  0  0  0  0  0  0  0
  -21.0660   -6.7960   23.6450 C   0  0  0  0  0  3  0  0  0  0  0  0
  -20.6740   -6.1360   24.8310 C   0  0  0  0  0  3  0  0  0  0  0  0
  -20.8780   -4.7520   24.9750 C   0  0  0  0  0  0  0  0  0  0  0  0
  -21.4560   -4.0250   23.9200 C   0  0  0  0  0  3  0  0  0  0  0  0
  -21.8440   -4.6820   22.7340 C   0  0  0  0  0  0  0  0  0  0  0  0
  -22.3750   -3.9470   21.7270 F   0  0  0  0  0  0  0  0  0  0  0  0
  -20.5200   -4.1220   26.1210 F   0  0  0  0  0  0  0  0  0  0  0  0
  -23.4300  -13.4550   20.6260 C   0  0  0  0  0  0  0  0  0  0  0  0
  -22.6510  -12.7980   21.4870 N   0  0  0  0  0  0  0  0  0  0  0  0
  -22.9560  -14.1850   19.7740 O   0  0  0  0  0  0  0  0  0  0  0  0
  -23.0280  -12.1790   22.1880 H   0  0  0  0  0  0  0  0  0  0  0  0
  -21.6480  -12.9090   21.4350 H   0  0  0  0  0  0  0  0  0  0  0  0
  -26.0170  -14.8860   18.6820 N   0  0  0  0  0  0  0  0  0  0  0  0
  -25.4360  -15.6690   18.9560 H   0  0  0  0  0  0  0  0  0  0  0  0
  -26.8870  -15.1850   18.2550 H   0  0  0  0  0  0  0  0  0  0  0  0
  1  3  2  0
  2  1  1  0
  2  5  2  0
  3  6  1  0
  5  6  1  0
  6  4  1  0
  8  9  1  0
  9  7  1  0
 11 13  1  0
 12 23  2  0
 13 18  1  0
 14 22  1  0
 14 24  1  0
 15 21  1  0
 15 17  1  0
 16 22  1  0
 17 16  1  0
 18 17  2  0
 19 20  1  0
 19 13  2  0
 20 15  2  0
 21 14  1  0
 22 12  1  0
 24 26  2  0
 25 24  1  0
 27 25  1  0
 28 37  2  0
 28 33  1  0
 29 25  1  0
 29 33  1  0
 30 29  1  0
 31 32  1  0
 31 30  1  0
 32 28  1  0
 33 34  2  0
 34 35  1  0
 36 35  2  0
 37 36  1  0
 38 12  1  0
 38 43  1  0
 38 39  1  0
 39 42  1  1
 39 40  1  0
 41 39  1  0
 43 46  1  0
 44 43  1  0
 44 48  1  0
 45 44  2  0
 48 47  1  0
 48 50  1  0
 50 51  1  0
 50 49  1  0
 53 59  1  0
 53 61  1  0
 54 59  1  0
 55 56  1  0
 55 54  1  0
 57 56  1  0
 57 66  1  0
 57 58  1  0
 59 58  1  0
 60 53  2  0
 61 62  1  0
 61 52  1  0
 63 88  1  0
 63 52  1  0
 63 64  1  0
 64 83  1  0
 64 65  1  0
 65 68  1  0
 66 67  1  0
 67 65  1  0
 68 69  1  0
 69 70  2  0
 71 74  1  0
 71 70  1  0
 72 71  2  0
 73 72  1  0
 73 68  2  0
 74 75  1  0
 75 80  2  0
 75 76  1  0
 76 77  2  0
 77 78  1  0
 78 82  1  0
 79 78  2  0
 80 79  1  0
 81 80  1  0
 83 84  1  0
 84 86  1  0
 85 83  2  0
 87 84  1  0
 88 89  1  0
 90 88  1  0
M  ISO  4  10 101  11 101  53 100  61 100
M  END
>  <TORSDO>  (16) 
F 19

>  <SCORE>  (16) 
-6.642

>  <name>  (16) 
15

>  <ligand_id>  (16) 
15

>  <original_smiles>  (16) 
[H]c1c([H])c([H])c2c(c1[H])C([H])([H])C([H])([H])C([H])([H])C2([H])N([H])C(=O)C1([H])N(C(=O)C([H])(N([H])C(=O)C([H])(N([H])C([H])([H])[H])C([H])([H])[H])C(C([H])([H])[H])(C([H])([H])[H])C([H])([H])[H])C([H])([H])c2c([H])c(OC([H])([H])C(c3nn(C([H])([H])[H])c(C([H])([H])N([H])C(=O)N4C([H])([H])C([H])([H])C([H])([H])C([H])(n5nc(-c6c([H])c([H])c(Oc7c([H])c([H])c(F)c([H])c7F)c([H])c6[H])c(C(=O)N([H])[H])c5N([H])[H])C4([H])[H])c3[H])(C([H])([H])[H])C([H])([H])[H])c([H])c([H])c2C1([H])[H]

>  <smiles>  (16) 
[H]c1c([H])c([H])c2c(c1[H])C([H])([H])C([H])([H])C([H])([H])C2([H])N([H])C(=O)C1([H])N(C(=O)C([H])(N([H])C(=O)C([H])(N([H])C([H])([H])[H])C([H])([H])[H])C(C([H])([H])[H])(C([H])([H])[H])C([H])([H])[H])C([H])([H])c2c([H])c(OC([H])([H])C(c3nn(C([H])([H])[H])c(C([H])([H])N([H])C(=O)N4C([H])([H])C([H])([H])C([H])([H])C([H])(n5nc(-c6c([H])c([H])c(Oc7c([H])c([H])c(F)c([H])c7F)c([H])c6[H])c(C(=O)N([H])[H])c5N([H])[H])C4([H])[H])c3[H])(C([H])([H])[H])C([H])([H])[H])c([H])c([H])c2C1([H])[H]

$$$$
16:0:0
     RDKit          3D

 90 98  0  0  1  0  0  0  0  0999 V2000
  -28.9810  -22.4340   19.4590 C   0  0  0  0  0  3  0  0  0  0  0  0
  -28.8330  -23.6330   20.1650 C   0  0  0  0  0  0  0  0  0  0  0  0
  -29.9470  -22.0850   21.4000 C   0  0  0  0  0  3  0  0  0  0  0  0
  -30.6900  -21.4810   22.5460 C   0  0  0  0  0  1  0  0  0  0  0  0
  -29.6590  -21.4800   20.2270 N   0  0  0  0  0  0  0  0  0  0  0  0
  -29.4570  -23.3490   21.3590 N   0  0  0  0  0  0  0  0  0  0  0  0
  -29.5250  -24.0090   22.1250 H   0  0  0  0  0  0  0  0  0  0  0  0
  -27.9810  -24.9150   19.8350 C   0  0  0  0  0  2  0  0  0  0  0  0
  -28.2680  -26.3320   20.2560 O   0  0  0  0  0  0  0  0  0  0  0  0
  -24.6180  -31.8810   23.2330 C   0  0  0  0  0  0  0  0  0  0  0  0
  -27.1930  -27.2610   20.1710 C   0  0  0  0  0  0  0  0  0  0  0  0
  -23.4040  -30.4830   21.6050 C   0  0  0  0  0  3  0  0  0  0  0  0
  -24.8440  -28.9290   20.1730 C   0  0  0  0  0  0  0  0  0  0  0  0
  -25.9510  -30.7770   21.4160 C   0  0  0  0  0  2  0  0  0  0  0  0
  -26.0230  -29.3950   20.7700 C   0  0  0  0  0  0  0  0  0  0  0  0
  -27.1990  -28.5720   20.7640 C   0  0  0  0  0  3  0  0  0  0  0  0
  -25.9890  -26.8900   19.5190 C   0  0  0  0  0  3  0  0  0  0  0  0
  -24.8330  -27.6840   19.5360 C   0  0  0  0  0  3  0  0  0  0  0  0
  -23.6110  -29.8090   20.2250 C   0  0  0  0  0  2  0  0  0  0  0  0
  -24.6780  -31.0660   22.1400 N   0  0  0  0  0  0  0  0  0  0  0  0
  -23.5390  -32.1640   23.7710 O   0  0  0  0  0  0  0  0  0  0  0  0
  -22.7430  -29.4700   22.5720 C   0  0  0  0  0  0  0  0  0  0  0  0
  -21.4150  -29.2920   22.4500 N   0  0  0  0  0  0  0  0  0  0  0  0
  -23.4230  -28.8470   23.3910 O   0  0  0  0  0  0  0  0  0  0  0  0
  -20.9240  -29.8420   21.7580 H   0  0  0  0  0  0  0  0  0  0  0  0
  -18.0390  -28.0930   22.9670 C   0  0  0  0  0  0  0  0  0  0  0  0
  -20.5980  -28.3610   23.2300 C   0  0  0  0  0  3  0  0  0  0  0  0
  -20.7030  -26.9250   22.6670 C   0  0  0  0  0  2  0  0  0  0  0  0
  -19.6000  -26.5910   21.6580 C   0  0  0  0  0  2  0  0  0  0  0  0
  -18.2180  -26.7390   22.3010 C   0  0  0  0  0  2  0  0  0  0  0  0
  -19.1580  -28.8610   23.3900 C   0  0  0  0  0  0  0  0  0  0  0  0
  -18.9360  -30.1270   23.9740 C   0  0  0  0  0  3  0  0  0  0  0  0
  -17.6300  -30.6240   24.1400 C   0  0  0  0  0  3  0  0  0  0  0  0
  -16.5270  -29.8560   23.7310 C   0  0  0  0  0  3  0  0  0  0  0  0
  -16.7330  -28.5910   23.1510 C   0  0  0  0  0  3  0  0  0  0  0  0
  -25.9060  -32.5130   23.8460 C   0  0  0  0  0  3  0  0  0  0  0  0
  -26.4290  -31.7430   25.1180 C   0  0  1  0  0  0  0  0  0  0  0  0
  -25.3400  -31.5100   26.1900 C   0  0  0  0  0  1  0  0  0  0  0  0
  -27.0100  -30.3630   24.7270 C   0  0  0  0  0  1  0  0  0  0  0  0
  -27.5840  -32.5370   25.7740 C   0  0  0  0  0  1  0  0  0  0  0  0
  -25.5970  -33.9110   24.1800 N   0  0  0  0  0  0  0  0  0  0  0  0
  -25.9210  -34.9650   23.4220 C   0  0  0  0  0  0  0  0  0  0  0  0
  -26.5800  -34.8660   22.3840 O   0  0  0  0  0  0  0  0  0  0  0  0
  -25.0160  -34.0630   24.9910 H   0  0  0  0  0  0  0  0  0  0  0  0
  -24.1890  -36.7590   23.0890 C   0  0  0  0  0  1  0  0  0  0  0  0
  -25.4360  -36.3520   23.8890 C   0  0  0  0  0  3  0  0  0  0  0  0
  -27.5760  -37.2330   24.7100 C   0  0  0  0  0  1  0  0  0  0  0  0
  -26.4670  -37.4060   23.7750 N   0  0  0  0  0  0  0  0  0  0  0  0
  -26.0610  -38.3250   23.9290 H   0  0  0  0  0  0  0  0  0  0  0  0
  -30.1760  -20.0850   19.7920 C   0  0  0  0  0  2  0  0  0  0  0  0
  -29.7240  -18.6860   20.4650 C   0  0  0  0  0  3  0  0  0  0  0  0
  -30.4490  -17.3240   19.9360 C   0  0  0  0  0  3  0  0  0  0  0  0
  -30.7560  -14.7580   20.0460 C   0  0  0  0  0  0  0  0  0  0  0  0
  -30.4040  -12.5580   18.8980 C   0  0  0  0  0  2  0  0  0  0  0  0
  -29.3930  -12.7000   17.7400 C   0  0  0  0  0  2  0  0  0  0  0  0
  -27.9510  -12.5240   18.2510 C   0  0  0  0  0  2  0  0  0  0  0  0
  -27.6710  -13.3440   19.5370 C   0  0  0  0  0  3  0  0  0  0  0  0
  -28.7950  -13.1670   20.5760 C   0  0  0  0  0  2  0  0  0  0  0  0
  -30.0600  -13.5660   19.9360 N   0  0  0  0  0  0  0  0  0  0  0  0
  -31.8640  -14.8480   19.5060 O   0  0  0  0  0  0  0  0  0  0  0  0
  -29.6990  -16.0020   21.8970 C   0  0  0  0  0  1  0  0  0  0  0  0
  -30.1310  -15.9290   20.4980 N   0  0  0  0  0  0  0  0  0  0  0  0
  -25.3280  -13.9160   20.4090 C   0  0  0  0  0  0  0  0  0  0  0  0
  -24.2840  -13.1340   20.8230 C   0  0  0  0  0  0  0  0  0  0  0  0
  -24.7450  -11.7840   20.7380 C   0  0  0  0  0  0  0  0  0  0  0  0
  -26.3570  -13.0430   20.0960 N   0  0  0  0  0  0  0  0  0  0  0  0
  -26.0160  -11.7540   20.3550 N   0  0  0  0  0  0  0  0  0  0  0  0
  -24.0310  -10.5170   20.9430 C   0  0  0  0  0  0  0  0  0  0  0  0
  -24.4850   -9.5530   21.8710 C   0  0  0  0  0  3  0  0  0  0  0  0
  -23.7680   -8.3530   22.0640 C   0  0  0  0  0  3  0  0  0  0  0  0
  -22.5830   -8.1070   21.3300 C   0  0  0  0  0  0  0  0  0  0  0  0
  -22.1490   -9.0600   20.3920 C   0  0  0  0  0  3  0  0  0  0  0  0
  -22.8670  -10.2510   20.1970 C   0  0  0  0  0  3  0  0  0  0  0  0
  -21.8370   -6.9580   21.4330 O   0  0  0  0  0  0  0  0  0  0  0  0
  -21.7680   -6.2470   22.6040 C   0  0  0  0  0  0  0  0  0  0  0  0
  -21.3160   -6.8330   23.8060 C   0  0  0  0  0  3  0  0  0  0  0  0
  -21.1960   -6.0490   24.9700 C   0  0  0  0  0  3  0  0  0  0  0  0
  -21.5160   -4.6780   24.9320 C   0  0  0  0  0  0  0  0  0  0  0  0
  -21.9610   -4.0910   23.7340 C   0  0  0  0  0  3  0  0  0  0  0  0
  -22.0830   -4.8740   22.5730 C   0  0  0  0  0  0  0  0  0  0  0  0
  -22.4920   -4.2980   21.4150 F   0  0  0  0  0  0  0  0  0  0  0  0
  -21.3930   -3.9210   26.0480 F   0  0  0  0  0  0  0  0  0  0  0  0
  -22.9050  -13.6040   21.1850 C   0  0  0  0  0  0  0  0  0  0  0  0
  -22.2330  -12.8920   22.0820 N   0  0  0  0  0  0  0  0  0  0  0  0
  -22.4370  -14.6370   20.7090 O   0  0  0  0  0  0  0  0  0  0  0  0
  -22.6260  -12.0540   22.4850 H   0  0  0  0  0  0  0  0  0  0  0  0
  -21.3110  -13.1880   22.3710 H   0  0  0  0  0  0  0  0  0  0  0  0
  -25.4840  -15.2910   20.2500 N   0  0  0  0  0  0  0  0  0  0  0  0
  -24.7300  -15.9470   20.4210 H   0  0  0  0  0  0  0  0  0  0  0  0
  -26.3210  -15.7320   19.8910 H   0  0  0  0  0  0  0  0  0  0  0  0
  1  2  2  0
  1  5  1  0
  2  6  1  0
  3  4  1  0
  5  3  1  0
  6  3  1  0
  6  7  1  0
  8  2  1  0
  8  9  1  0
 10 21  2  0
 11  9  1  0
 11 16  1  0
 12 20  1  0
 12 22  1  0
 13 19  1  0
 13 15  1  0
 14 20  1  0
 15 14  1  0
 16 15  2  0
 17 18  1  0
 17 11  2  0
 18 13  2  0
 19 12  1  0
 20 10  1  0
 22 24  2  0
 23 22  1  0
 25 23  1  0
 26 35  2  0
 26 31  1  0
 27 23  1  0
 27 31  1  0
 28 27  1  0
 29 30  1  0
 29 28  1  0
 30 26  1  0
 31 32  2  0
 32 33  1  0
 34 33  2  0
 35 34  1  0
 36 10  1  0
 36 41  1  0
 36 37  1  0
 37 40  1  1
 37 38  1  0
 39 37  1  0
 41 44  1  0
 42 46  1  0
 42 41  1  0
 43 42  2  0
 46 45  1  0
 48 46  1  0
 48 49  1  0
 48 47  1  0
 50  5  1  0
 50 51  1  0
 52 51  2  0
 52 62  1  0
 53 62  1  0
 54 59  1  0
 55 56  1  0
 55 54  1  0
 57 56  1  0
 57 66  1  0
 57 58  1  0
 59 53  1  0
 59 58  1  0
 60 53  2  0
 62 61  1  0
 63 64  2  0
 64 83  1  0
 65 64  1  0
 65 68  1  0
 66 67  1  0
 66 63  1  0
 67 65  2  0
 68 69  1  0
 69 70  2  0
 71 74  1  0
 71 70  1  0
 72 71  2  0
 73 72  1  0
 73 68  2  0
 74 75  1  0
 75 76  1  0
 76 77  2  0
 78 77  1  0
 78 82  1  0
 79 78  2  0
 80 75  2  0
 80 79  1  0
 81 80  1  0
 83 84  1  0
 84 87  1  0
 84 86  1  0
 85 83  2  0
 88 63  1  0
 88 89  1  0
 90 88  1  0
M  ISO  4   8 101   9 101  53 100  62 100
M  END
>  <TORSDO>  (17) 
F 20

>  <SCORE>  (17) 
-13.345

>  <name>  (17) 
16

>  <ligand_id>  (17) 
16

>  <original_smiles>  (17) 
[H]c1c([H])c([H])c2c(c1[H])C([H])([H])C([H])([H])C([H])([H])C2([H])N([H])C(=O)C1([H])N(C(=O)C([H])(N([H])C(=O)C([H])(N([H])C([H])([H])[H])C([H])([H])[H])C(C([H])([H])[H])(C([H])([H])[H])C([H])([H])[H])C([H])([H])c2c([H])c(OC([H])([H])c3c([H])n(C([H])([H])C([H])([H])C([H])([H])N(C(=O)N4C([H])([H])C([H])([H])C([H])([H])C([H])(n5nc(-c6c([H])c([H])c(Oc7c([H])c([H])c(F)c([H])c7F)c([H])c6[H])c(C(=O)N([H])[H])c5N([H])[H])C4([H])[H])C([H])([H])[H])c(C([H])([H])[H])[n+]3[H])c([H])c([H])c2C1([H])[H]

>  <smiles>  (17) 
[H]c1c([H])c([H])c2c(c1[H])C([H])([H])C([H])([H])C([H])([H])C2([H])N([H])C(=O)C1([H])N(C(=O)C([H])(N([H])C(=O)C([H])(N([H])C([H])([H])[H])C([H])([H])[H])C(C([H])([H])[H])(C([H])([H])[H])C([H])([H])[H])C([H])([H])c2c([H])c(OC([H])([H])c3c([H])n(C([H])([H])C([H])([H])C([H])([H])N(C(=O)N4C([H])([H])C([H])([H])C([H])([H])C([H])(n5nc(-c6c([H])c([H])c(Oc7c([H])c([H])c(F)c([H])c7F)c([H])c6[H])c(C(=O)N([H])[H])c5N([H])[H])C4([H])[H])C([H])([H])[H])c(C([H])([H])[H])[n+]3[H])c([H])c([H])c2C1([H])[H]

$$$$
17:0:0
     RDKit          3D

 91 99  0  0  1  0  0  0  0  0999 V2000
  -29.2720  -19.8630   21.1500 C   0  0  0  0  0  3  0  0  0  0  0  0
  -29.8400  -18.6720   20.5000 C   0  0  0  0  0  0  0  0  0  0  0  0
  -30.2280  -20.7570   19.4390 C   0  0  0  0  0  3  0  0  0  0  0  0
  -29.4930  -21.1750   20.5040 N   0  0  0  0  0  0  0  0  0  0  0  0
  -30.3990  -19.3780   19.4340 N   0  0  0  0  0  0  0  0  0  0  0  0
  -30.9040  -18.9130   18.6870 H   0  0  0  0  0  0  0  0  0  0  0  0
  -29.7310  -16.9150   20.6960 C   0  0  0  0  0  2  0  0  0  0  0  0
  -30.6320  -15.4220   20.3800 C   0  0  0  0  0  0  0  0  0  0  0  0
  -30.7220  -12.9330   19.5740 C   0  0  0  0  0  2  0  0  0  0  0  0
  -29.8390  -12.6960   18.3200 C   0  0  0  0  0  2  0  0  0  0  0  0
  -28.3790  -12.4140   18.7150 C   0  0  0  0  0  2  0  0  0  0  0  0
  -27.8830  -13.3920   19.8080 C   0  0  0  0  0  3  0  0  0  0  0  0
  -28.8930  -13.5630   20.9630 C   0  0  0  0  0  2  0  0  0  0  0  0
  -30.1460  -14.0770   20.3770 N   0  0  0  0  0  0  0  0  0  0  0  0
  -31.8410  -15.4600   20.0920 O   0  0  0  0  0  0  0  0  0  0  0  0
  -25.4930  -13.9450   20.5030 C   0  0  0  0  0  0  0  0  0  0  0  0
  -24.4250  -13.1650   20.8480 C   0  0  0  0  0  0  0  0  0  0  0  0
  -24.8950  -11.8160   20.8280 C   0  0  0  0  0  0  0  0  0  0  0  0
  -26.5430  -13.0710   20.2830 N   0  0  0  0  0  0  0  0  0  0  0  0
  -26.1950  -11.7850   20.5490 N   0  0  0  0  0  0  0  0  0  0  0  0
  -24.1650  -10.5530   21.0010 C   0  0  0  0  0  0  0  0  0  0  0  0
  -24.5650   -9.5930   21.9550 C   0  0  0  0  0  3  0  0  0  0  0  0
  -23.8330   -8.3960   22.1170 C   0  0  0  0  0  3  0  0  0  0  0  0
  -22.6870   -8.1520   21.3230 C   0  0  0  0  0  0  0  0  0  0  0  0
  -22.3060   -9.1030   20.3580 C   0  0  0  0  0  3  0  0  0  0  0  0
  -23.0380  -10.2910   20.1970 C   0  0  0  0  0  3  0  0  0  0  0  0
  -21.9280   -7.0090   21.3930 O   0  0  0  0  0  0  0  0  0  0  0  0
  -21.8250   -6.2810   22.5530 C   0  0  0  0  0  0  0  0  0  0  0  0
  -21.3530   -6.8560   23.7520 C   0  0  0  0  0  3  0  0  0  0  0  0
  -21.1960   -6.0570   24.9020 C   0  0  0  0  0  3  0  0  0  0  0  0
  -21.5040   -4.6840   24.8540 C   0  0  0  0  0  0  0  0  0  0  0  0
  -21.9690   -4.1090   23.6580 C   0  0  0  0  0  3  0  0  0  0  0  0
  -22.1270   -4.9050   22.5110 C   0  0  0  0  0  0  0  0  0  0  0  0
  -22.5550   -4.3410   21.3550 F   0  0  0  0  0  0  0  0  0  0  0  0
  -21.3480   -3.9140   25.9560 F   0  0  0  0  0  0  0  0  0  0  0  0
  -23.0190  -13.6400   21.0810 C   0  0  0  0  0  0  0  0  0  0  0  0
  -22.2710  -12.9500   21.9340 N   0  0  0  0  0  0  0  0  0  0  0  0
  -22.5960  -14.6610   20.5430 O   0  0  0  0  0  0  0  0  0  0  0  0
  -22.6260  -12.1250   22.3930 H   0  0  0  0  0  0  0  0  0  0  0  0
  -21.3270  -13.2530   22.1300 H   0  0  0  0  0  0  0  0  0  0  0  0
  -25.6560  -15.3160   20.3290 N   0  0  0  0  0  0  0  0  0  0  0  0
  -24.8800  -15.9640   20.4170 H   0  0  0  0  0  0  0  0  0  0  0  0
  -26.5010  -15.7560   19.9890 H   0  0  0  0  0  0  0  0  0  0  0  0
  -30.7980  -21.6620   18.3950 C   0  0  0  0  0  2  0  0  0  0  0  0
  -29.7170  -22.4340   17.6170 C   0  0  0  0  0  2  0  0  0  0  0  0
  -29.1430  -24.2360   15.9300 C   0  0  0  0  0  1  0  0  0  0  0  0
  -31.2690  -24.4460   17.2750 C   0  0  0  0  0  1  0  0  0  0  0  0
  -30.2810  -23.4670   16.6190 C   0  0  0  0  0  3  0  0  0  0  0  0
  -29.2250  -22.8230   20.9690 C   0  0  0  0  0  3  0  0  0  0  0  0
  -28.4890  -24.3340   20.2770 C   0  0  0  0  0  3  0  0  0  0  0  0
  -28.5210  -25.9430   20.7010 O   0  0  0  0  0  0  0  0  0  0  0  0
  -24.6970  -31.9280   23.2940 C   0  0  0  0  0  0  0  0  0  0  0  0
  -27.4940  -27.0200   20.5300 C   0  0  0  0  0  0  0  0  0  0  0  0
  -23.6130  -30.4740   21.6270 C   0  0  0  0  0  3  0  0  0  0  0  0
  -25.1630  -28.8620   20.3160 C   0  0  0  0  0  0  0  0  0  0  0  0
  -26.1800  -30.7240   21.6110 C   0  0  0  0  0  2  0  0  0  0  0  0
  -26.3090  -29.3010   20.9910 C   0  0  0  0  0  0  0  0  0  0  0  0
  -27.4660  -28.4000   21.0730 C   0  0  0  0  0  3  0  0  0  0  0  0
  -26.3210  -26.7360   19.7940 C   0  0  0  0  0  3  0  0  0  0  0  0
  -25.1970  -27.6000   19.6970 C   0  0  0  0  0  3  0  0  0  0  0  0
  -23.9270  -29.7610   20.2810 C   0  0  0  0  0  2  0  0  0  0  0  0
  -24.8480  -31.0720   22.2310 N   0  0  0  0  0  0  0  0  0  0  0  0
  -23.5770  -32.2090   23.7520 O   0  0  0  0  0  0  0  0  0  0  0  0
  -22.8860  -29.4900   22.5810 C   0  0  0  0  0  0  0  0  0  0  0  0
  -21.5680  -29.2960   22.3890 N   0  0  0  0  0  0  0  0  0  0  0  0
  -23.5170  -28.8980   23.4610 O   0  0  0  0  0  0  0  0  0  0  0  0
  -21.1110  -29.8230   21.6580 H   0  0  0  0  0  0  0  0  0  0  0  0
  -18.1800  -28.0520   22.7670 C   0  0  0  0  0  0  0  0  0  0  0  0
  -20.7230  -28.3610   23.1400 C   0  0  0  0  0  3  0  0  0  0  0  0
  -20.8680  -26.9200   22.5970 C   0  0  0  0  0  2  0  0  0  0  0  0
  -19.8190  -26.5660   21.5400 C   0  0  0  0  0  2  0  0  0  0  0  0
  -18.4070  -26.6970   22.1170 C   0  0  0  0  0  2  0  0  0  0  0  0
  -19.2670  -28.8400   23.2320 C   0  0  0  0  0  0  0  0  0  0  0  0
  -19.0000  -30.1050   23.8010 C   0  0  0  0  0  3  0  0  0  0  0  0
  -17.6810  -30.5830   23.9090 C   0  0  0  0  0  3  0  0  0  0  0  0
  -16.6080  -29.7950   23.4570 C   0  0  0  0  0  3  0  0  0  0  0  0
  -16.8590  -28.5300   22.8930 C   0  0  0  0  0  3  0  0  0  0  0  0
  -25.9230  -32.6090   23.9760 C   0  0  0  0  0  3  0  0  0  0  0  0
  -25.5650  -34.0130   24.2530 N   0  0  0  0  0  0  0  0  0  0  0  0
  -25.9070  -35.0560   23.4870 C   0  0  0  0  0  0  0  0  0  0  0  0
  -26.6160  -34.9420   22.4840 O   0  0  0  0  0  0  0  0  0  0  0  0
  -24.9350  -34.1730   25.0250 H   0  0  0  0  0  0  0  0  0  0  0  0
  -24.1510  -36.8090   23.0500 C   0  0  0  0  0  1  0  0  0  0  0  0
  -25.3830  -36.4500   23.8960 C   0  0  0  0  0  3  0  0  0  0  0  0
  -27.4850  -37.4010   24.7400 C   0  0  0  0  0  1  0  0  0  0  0  0
  -26.3960  -37.5220   23.7750 N   0  0  0  0  0  0  0  0  0  0  0  0
  -25.9680  -38.4360   23.8950 H   0  0  0  0  0  0  0  0  0  0  0  0
  -26.3660  -31.8900   25.3110 C   0  0  1  0  0  0  0  0  0  0  0  0
  -25.2030  -31.6450   26.3020 C   0  0  0  0  0  1  0  0  0  0  0  0
  -27.0160  -30.5220   25.0130 C   0  0  0  0  0  1  0  0  0  0  0  0
  -27.4380  -32.7410   26.0320 C   0  0  0  0  0  1  0  0  0  0  0  0
  2  7  1  0
  2  1  2  0
  3 44  1  0
  3  4  1  0
  4 49  1  0
  4  1  1  0
  5  3  1  0
  5  2  1  0
  6  5  1  0
  8  7  1  0
  9 14  1  0
 10 11  1  0
 10  9  1  0
 12 11  1  0
 12 19  1  0
 12 13  1  0
 14  8  1  0
 14 13  1  0
 15  8  2  0
 16 17  2  0
 17 36  1  0
 18 17  1  0
 18 21  1  0
 19 16  1  0
 19 20  1  0
 20 18  2  0
 21 22  1  0
 22 23  2  0
 24 27  1  0
 24 23  1  0
 25 24  2  0
 26 25  1  0
 26 21  2  0
 27 28  1  0
 28 29  1  0
 29 30  2  0
 31 30  1  0
 31 35  1  0
 32 31  2  0
 33 28  2  0
 33 32  1  0
 34 33  1  0
 36 37  1  0
 37 40  1  0
 37 39  1  0
 38 36  2  0
 41 42  1  0
 41 16  1  0
 43 41  1  0
 45 44  1  0
 46 48  1  0
 48 47  1  0
 48 45  1  0
 50 51  1  0
 50 49  2  0
 52 63  2  0
 53 51  1  0
 53 58  1  0
 54 62  1  0
 54 64  1  0
 55 57  1  0
 56 62  1  0
 57 58  2  0
 57 56  1  0
 59 53  2  0
 60 59  1  0
 60 55  2  0
 61 55  1  0
 61 54  1  0
 62 52  1  0
 64 66  2  0
 65 64  1  0
 67 65  1  0
 68 77  2  0
 68 73  1  0
 69 65  1  0
 69 73  1  0
 70 69  1  0
 71 72  1  0
 71 70  1  0
 72 68  1  0
 73 74  2  0
 74 75  1  0
 76 75  2  0
 77 76  1  0
 78 52  1  0
 78 79  1  0
 78 88  1  0
 79 82  1  0
 80 84  1  0
 80 79  1  0
 81 80  2  0
 84 83  1  0
 86 87  1  0
 86 84  1  0
 86 85  1  0
 88 91  1  1
 88 89  1  0
 90 88  1  0
M  ISO  4   7 100   8 100  50 101  51 101
M  END
>  <TORSDO>  (18) 
F 22

>  <SCORE>  (18) 
-14.691

>  <name>  (18) 
17

>  <ligand_id>  (18) 
17

>  <original_smiles>  (18) 
[H]c1c([H])c([H])c2c(c1[H])C([H])([H])C([H])([H])C([H])([H])C2([H])N([H])C(=O)C1([H])N(C(=O)C([H])(N([H])C(=O)C([H])(N([H])C([H])([H])[H])C([H])([H])[H])C(C([H])([H])[H])(C([H])([H])[H])C([H])([H])[H])C([H])([H])c2c([H])c(OC([H])([H])C([H])([H])n3c([H])c(C([H])([H])C(=O)N4C([H])([H])C([H])([H])C([H])([H])C([H])(n5nc(-c6c([H])c([H])c(Oc7c([H])c([H])c(F)c([H])c7F)c([H])c6[H])c(C(=O)N([H])[H])c5N([H])[H])C4([H])[H])[n+]([H])c3C([H])([H])C([H])([H])C([H])(C([H])([H])[H])C([H])([H])[H])c([H])c([H])c2C1([H])[H]

>  <smiles>  (18) 
[H]c1c([H])c([H])c2c(c1[H])C([H])([H])C([H])([H])C([H])([H])C2([H])N([H])C(=O)C1([H])N(C(=O)C([H])(N([H])C(=O)C([H])(N([H])C([H])([H])[H])C([H])([H])[H])C(C([H])([H])[H])(C([H])([H])[H])C([H])([H])[H])C([H])([H])c2c([H])c(OC([H])([H])C([H])([H])n3c([H])c(C([H])([H])C(=O)N4C([H])([H])C([H])([H])C([H])([H])C([H])(n5nc(-c6c([H])c([H])c(Oc7c([H])c([H])c(F)c([H])c7F)c([H])c6[H])c(C(=O)N([H])[H])c5N([H])[H])C4([H])[H])[n+]([H])c3C([H])([H])C([H])([H])C([H])(C([H])([H])[H])C([H])([H])[H])c([H])c([H])c2C1([H])[H]

$$$$
18:0:0
     RDKit          3D

 92100  0  0  1  0  0  0  0  0999 V2000
  -30.8600  -21.2920   21.3780 C   0  0  0  0  0  3  0  0  0  0  0  0
  -30.4490  -20.3960   19.4450 C   0  0  0  0  0  3  0  0  0  0  0  0
  -30.1320  -21.5280   20.1720 C   0  0  0  0  0  0  0  0  0  0  0  0
  -31.5280  -20.1290   21.3780 N   0  0  0  0  0  0  0  0  0  0  0  0
  -31.2700  -19.5450   20.1820 N   0  0  0  0  0  0  0  0  0  0  0  0
  -29.3860  -22.9320   18.2250 C   0  0  0  0  0  1  0  0  0  0  0  0
  -29.2060  -22.7040   19.7400 C   0  0  0  0  0  3  0  0  0  0  0  0
  -29.2920  -24.0870   20.5100 C   0  0  0  0  0  2  0  0  0  0  0  0
  -28.1670  -25.1240   20.1020 C   0  0  0  0  0  2  0  0  0  0  0  0
  -28.3010  -26.5350   20.4510 O   0  0  0  0  0  0  0  0  0  0  0  0
  -24.5870  -31.9450   23.2880 C   0  0  0  0  0  0  0  0  0  0  0  0
  -27.1620  -27.3400   20.3410 C   0  0  0  0  0  0  0  0  0  0  0  0
  -23.3640  -30.5210   21.6800 C   0  0  0  0  0  3  0  0  0  0  0  0
  -24.7980  -28.9320   20.2870 C   0  0  0  0  0  0  0  0  0  0  0  0
  -25.9000  -30.8280   21.4760 C   0  0  0  0  0  2  0  0  0  0  0  0
  -25.9680  -29.4400   20.8640 C   0  0  0  0  0  0  0  0  0  0  0  0
  -27.1540  -28.6580   20.8740 C   0  0  0  0  0  3  0  0  0  0  0  0
  -25.9680  -26.8710   19.7380 C   0  0  0  0  0  3  0  0  0  0  0  0
  -24.7980  -27.6500   19.7170 C   0  0  0  0  0  3  0  0  0  0  0  0
  -23.5680  -29.8100   20.3150 C   0  0  0  0  0  2  0  0  0  0  0  0
  -24.6350  -31.1160   22.2050 N   0  0  0  0  0  0  0  0  0  0  0  0
  -23.5080  -32.2420   23.8200 O   0  0  0  0  0  0  0  0  0  0  0  0
  -22.6950  -29.5320   22.6640 C   0  0  0  0  0  0  0  0  0  0  0  0
  -21.3750  -29.3370   22.5140 N   0  0  0  0  0  0  0  0  0  0  0  0
  -23.3630  -28.9430   23.5180 O   0  0  0  0  0  0  0  0  0  0  0  0
  -20.8980  -29.8640   21.7960 H   0  0  0  0  0  0  0  0  0  0  0  0
  -18.0010  -28.1100   22.9620 C   0  0  0  0  0  0  0  0  0  0  0  0
  -20.5460  -28.4190   23.2990 C   0  0  0  0  0  3  0  0  0  0  0  0
  -20.6880  -26.9670   22.7890 C   0  0  0  0  0  2  0  0  0  0  0  0
  -19.6210  -26.5840   21.7580 C   0  0  0  0  0  2  0  0  0  0  0  0
  -18.2180  -26.7350   22.3540 C   0  0  0  0  0  2  0  0  0  0  0  0
  -19.0950  -28.9080   23.3920 C   0  0  0  0  0  0  0  0  0  0  0  0
  -18.8410  -30.1930   23.9190 C   0  0  0  0  0  3  0  0  0  0  0  0
  -17.5240  -30.6810   24.0230 C   0  0  0  0  0  3  0  0  0  0  0  0
  -16.4440  -29.8800   23.6120 C   0  0  0  0  0  3  0  0  0  0  0  0
  -16.6840  -28.5970   23.0870 C   0  0  0  0  0  3  0  0  0  0  0  0
  -25.8770  -32.5750   23.8950 C   0  0  0  0  0  3  0  0  0  0  0  0
  -25.5830  -33.9800   24.2070 N   0  0  0  0  0  0  0  0  0  0  0  0
  -25.9120  -35.0180   23.4290 C   0  0  0  0  0  0  0  0  0  0  0  0
  -26.5680  -34.8950   22.3910 O   0  0  0  0  0  0  0  0  0  0  0  0
  -25.0010  -34.1510   25.0140 H   0  0  0  0  0  0  0  0  0  0  0  0
  -24.1900  -36.8160   23.0710 C   0  0  0  0  0  1  0  0  0  0  0  0
  -25.4410  -36.4170   23.8710 C   0  0  0  0  0  3  0  0  0  0  0  0
  -27.5920  -37.3040   24.6580 C   0  0  0  0  0  1  0  0  0  0  0  0
  -26.4790  -37.4620   23.7250 N   0  0  0  0  0  0  0  0  0  0  0  0
  -26.0810  -38.3880   23.8610 H   0  0  0  0  0  0  0  0  0  0  0  0
  -26.3950  -31.8160   25.1780 C   0  0  1  0  0  0  0  0  0  0  0  0
  -25.3050  -31.5880   26.2520 C   0  0  0  0  0  1  0  0  0  0  0  0
  -26.9740  -30.4360   24.7960 C   0  0  0  0  0  1  0  0  0  0  0  0
  -27.5490  -32.6150   25.8290 C   0  0  0  0  0  1  0  0  0  0  0  0
  -31.9850  -18.3120   19.7270 C   0  0  0  0  0  2  0  0  0  0  0  0
  -32.0920  -17.0530   20.6770 C   0  0  0  0  0  2  0  0  0  0  0  0
  -31.4020  -14.7750   19.8720 C   0  0  0  0  0  0  0  0  0  0  0  0
  -30.9890  -12.5250   18.8680 C   0  0  0  0  0  2  0  0  0  0  0  0
  -29.9920  -12.5840   17.6930 C   0  0  0  0  0  2  0  0  0  0  0  0
  -28.5420  -12.4470   18.1960 C   0  0  0  0  0  2  0  0  0  0  0  0
  -28.2510  -13.3680   19.4050 C   0  0  0  0  0  3  0  0  0  0  0  0
  -29.3700  -13.2530   20.4660 C   0  0  0  0  0  2  0  0  0  0  0  0
  -30.6470  -13.6120   19.8320 N   0  0  0  0  0  0  0  0  0  0  0  0
  -32.4970  -14.7490   19.3020 O   0  0  0  0  0  0  0  0  0  0  0  0
  -31.0460  -15.9810   20.4900 N   0  0  0  0  0  0  0  0  0  0  0  0
  -25.9330  -14.0870   20.2600 C   0  0  0  0  0  0  0  0  0  0  0  0
  -24.8480  -13.3710   20.6720 C   0  0  0  0  0  0  0  0  0  0  0  0
  -25.2310  -11.9970   20.5870 C   0  0  0  0  0  0  0  0  0  0  0  0
  -26.9180  -13.1580   19.9570 N   0  0  0  0  0  0  0  0  0  0  0  0
  -26.4990  -11.8920   20.2060 N   0  0  0  0  0  0  0  0  0  0  0  0
  -24.4450  -10.7780   20.7880 C   0  0  0  0  0  0  0  0  0  0  0  0
  -24.8350   -9.7970   21.7260 C   0  0  0  0  0  3  0  0  0  0  0  0
  -24.0580   -8.6340   21.9100 C   0  0  0  0  0  3  0  0  0  0  0  0
  -22.8760   -8.4480   21.1570 C   0  0  0  0  0  0  0  0  0  0  0  0
  -22.5030   -9.4150   20.2050 C   0  0  0  0  0  3  0  0  0  0  0  0
  -23.2790  -10.5700   20.0190 C   0  0  0  0  0  3  0  0  0  0  0  0
  -22.0730   -7.3370   21.2480 O   0  0  0  0  0  0  0  0  0  0  0  0
  -21.9280   -6.6550   22.4300 C   0  0  0  0  0  0  0  0  0  0  0  0
  -21.4570   -7.2870   23.6000 C   0  0  0  0  0  3  0  0  0  0  0  0
  -21.2560   -6.5320   24.7740 C   0  0  0  0  0  3  0  0  0  0  0  0
  -21.5160   -5.1500   24.7760 C   0  0  0  0  0  0  0  0  0  0  0  0
  -21.9820   -4.5180   23.6100 C   0  0  0  0  0  3  0  0  0  0  0  0
  -22.1850   -5.2690   22.4390 C   0  0  0  0  0  0  0  0  0  0  0  0
  -22.6130   -4.6510   21.3120 F   0  0  0  0  0  0  0  0  0  0  0  0
  -21.3140   -4.4250   25.9020 F   0  0  0  0  0  0  0  0  0  0  0  0
  -23.4970  -13.9240   21.0320 C   0  0  0  0  0  0  0  0  0  0  0  0
  -22.7820  -13.2670   21.9390 N   0  0  0  0  0  0  0  0  0  0  0  0
  -23.0930  -14.9810   20.5470 O   0  0  0  0  0  0  0  0  0  0  0  0
  -23.1340  -12.4260   22.3710 H   0  0  0  0  0  0  0  0  0  0  0  0
  -21.8820  -13.6290   22.2220 H   0  0  0  0  0  0  0  0  0  0  0  0
  -26.1600  -15.4490   20.0970 N   0  0  0  0  0  0  0  0  0  0  0  0
  -25.4500  -16.1480   20.2830 H   0  0  0  0  0  0  0  0  0  0  0  0
  -27.0500  -15.8460   19.8350 H   0  0  0  0  0  0  0  0  0  0  0  0
  -29.0320  -17.2750   19.6170 C   0  0  0  0  0  1  0  0  0  0  0  0
  -28.8820  -15.9830   21.9050 C   0  0  0  0  0  1  0  0  0  0  0  0
  -29.7450  -16.6400   20.8180 C   0  0  0  0  0  3  0  0  0  0  0  0
  1  4  2  0
  2  3  2  0
  2  5  1  0
  3  1  1  0
  5  4  1  0
  7  6  1  0
  7  3  1  0
  7  8  1  0
  9 10  1  0
  9  8  1  0
 11 22  2  0
 12 10  1  0
 12 17  1  0
 13 21  1  0
 13 23  1  0
 14 20  1  0
 14 16  1  0
 15 21  1  0
 16 17  2  0
 16 15  1  0
 18 12  2  0
 19 18  1  0
 19 14  2  0
 20 13  1  0
 21 11  1  0
 23 25  2  0
 24 23  1  0
 26 24  1  0
 27 36  2  0
 27 32  1  0
 28 24  1  0
 28 32  1  0
 29 28  1  0
 30 31  1  0
 30 29  1  0
 31 27  1  0
 32 33  2  0
 33 34  1  0
 35 34  2  0
 36 35  1  0
 37 11  1  0
 37 38  1  0
 37 47  1  0
 38 41  1  0
 39 43  1  0
 39 38  1  0
 40 39  2  0
 43 42  1  0
 45 46  1  0
 45 43  1  0
 45 44  1  0
 47 50  1  1
 47 48  1  0
 49 47  1  0
 51  5  1  0
 51 52  1  0
 53 61  1  0
 54 59  1  0
 55 56  1  0
 55 54  1  0
 57 56  1  0
 57 65  1  0
 57 58  1  0
 59 53  1  0
 59 58  1  0
 60 53  2  0
 61 52  1  0
 61 92  1  0
 62 63  2  0
 63 82  1  0
 64 63  1  0
 64 67  1  0
 65 66  1  0
 65 62  1  0
 66 64  2  0
 67 68  1  0
 68 69  2  0
 70 73  1  0
 70 69  1  0
 71 70  2  0
 72 71  1  0
 72 67  2  0
 73 74  1  0
 74 79  2  0
 74 75  1  0
 75 76  2  0
 76 77  1  0
 77 81  1  0
 78 77  2  0
 79 78  1  0
 80 79  1  0
 82 83  1  0
 83 86  1  0
 83 85  1  0
 84 82  2  0
 87 62  1  0
 87 88  1  0
 89 87  1  0
 90 92  1  0
 92 91  1  0
M  ISO  4   9 101  10 101  53 100  61 100
M  END
>  <TORSDO>  (19) 
F 22

>  <SCORE>  (19) 
-11.614

>  <name>  (19) 
18

>  <ligand_id>  (19) 
18

>  <original_smiles>  (19) 
[H]c1nn(C([H])([H])C([H])([H])N(C(=O)N2C([H])([H])C([H])([H])C([H])([H])C([H])(n3nc(-c4c([H])c([H])c(Oc5c([H])c([H])c(F)c([H])c5F)c([H])c4[H])c(C(=O)N([H])[H])c3N([H])[H])C2([H])[H])C([H])(C([H])([H])[H])C([H])([H])[H])c([H])c1C([H])(C([H])([H])[H])C([H])([H])C([H])([H])Oc1c([H])c([H])c2c(c1[H])C([H])([H])N(C(=O)C([H])(N([H])C(=O)C([H])(N([H])C([H])([H])[H])C([H])([H])[H])C(C([H])([H])[H])(C([H])([H])[H])C([H])([H])[H])C([H])(C(=O)N([H])C1([H])c3c([H])c([H])c([H])c([H])c3C([H])([H])C([H])([H])C1([H])[H])C2([H])[H]

>  <smiles>  (19) 
[H]c1nn(C([H])([H])C([H])([H])N(C(=O)N2C([H])([H])C([H])([H])C([H])([H])C([H])(n3nc(-c4c([H])c([H])c(Oc5c([H])c([H])c(F)c([H])c5F)c([H])c4[H])c(C(=O)N([H])[H])c3N([H])[H])C2([H])[H])C([H])(C([H])([H])[H])C([H])([H])[H])c([H])c1C([H])(C([H])([H])[H])C([H])([H])C([H])([H])Oc1c([H])c([H])c2c(c1[H])C([H])([H])N(C(=O)C([H])(N([H])C(=O)C([H])(N([H])C([H])([H])[H])C([H])([H])[H])C(C([H])([H])[H])(C([H])([H])[H])C([H])([H])[H])C([H])(C(=O)N([H])C1([H])c3c([H])c([H])c([H])c([H])c3C([H])([H])C([H])([H])C1([H])[H])C2([H])[H]

$$$$
19:0:0
     RDKit          3D

 92101  0  0  1  0  0  0  0  0999 V2000
  -28.8750  -20.6950   18.8150 C   0  0  0  0  0  3  0  0  0  0  0  0
  -28.5530  -22.0680   18.8790 C   0  0  0  0  0  3  0  0  0  0  0  0
  -29.2210  -20.1300   20.0980 C   0  0  0  0  0  0  0  0  0  0  0  0
  -29.0170  -21.3780   20.8680 N   0  0  0  0  0  0  0  0  0  0  0  0
  -28.6070  -22.6490   20.1520 N   0  0  0  0  0  0  0  0  0  0  0  0
  -27.9700  -24.1670   20.6890 C   0  0  0  0  0  2  0  0  0  0  0  0
  -28.2240  -25.7440   20.2330 O   0  0  0  0  0  0  0  0  0  0  0  0
  -24.6030  -31.8410   23.1940 C   0  0  0  0  0  0  0  0  0  0  0  0
  -27.2100  -26.8750   20.2520 C   0  0  0  0  0  0  0  0  0  0  0  0
  -23.4370  -30.4260   21.5560 C   0  0  0  0  0  3  0  0  0  0  0  0
  -24.9080  -28.8040   20.1690 C   0  0  0  0  0  0  0  0  0  0  0  0
  -26.0100  -30.6280   21.4400 C   0  0  0  0  0  2  0  0  0  0  0  0
  -26.0940  -29.2020   20.7980 C   0  0  0  0  0  0  0  0  0  0  0  0
  -27.2370  -28.2660   20.8050 C   0  0  0  0  0  3  0  0  0  0  0  0
  -25.9880  -26.6520   19.5770 C   0  0  0  0  0  3  0  0  0  0  0  0
  -24.8850  -27.5500   19.5380 C   0  0  0  0  0  3  0  0  0  0  0  0
  -23.6880  -29.7300   20.1890 C   0  0  0  0  0  2  0  0  0  0  0  0
  -24.7060  -30.9940   22.1170 N   0  0  0  0  0  0  0  0  0  0  0  0
  -23.5050  -32.1290   23.7000 O   0  0  0  0  0  0  0  0  0  0  0  0
  -22.7310  -29.4400   22.5230 C   0  0  0  0  0  0  0  0  0  0  0  0
  -21.3990  -29.2820   22.4010 N   0  0  0  0  0  0  0  0  0  0  0  0
  -23.3910  -28.8110   23.3540 O   0  0  0  0  0  0  0  0  0  0  0  0
  -20.9160  -29.8350   21.7060 H   0  0  0  0  0  0  0  0  0  0  0  0
  -18.0090  -28.0920   22.9290 C   0  0  0  0  0  0  0  0  0  0  0  0
  -20.5730  -28.3470   23.1750 C   0  0  0  0  0  3  0  0  0  0  0  0
  -20.6630  -26.9150   22.5960 C   0  0  0  0  0  2  0  0  0  0  0  0
  -19.5520  -26.6020   21.5890 C   0  0  0  0  0  2  0  0  0  0  0  0
  -18.1750  -26.7490   22.2420 C   0  0  0  0  0  2  0  0  0  0  0  0
  -19.1330  -28.8500   23.3540 C   0  0  0  0  0  0  0  0  0  0  0  0
  -18.9200  -30.1060   23.9620 C   0  0  0  0  0  3  0  0  0  0  0  0
  -17.6170  -30.6060   24.1450 C   0  0  0  0  0  3  0  0  0  0  0  0
  -16.5080  -29.8460   23.7350 C   0  0  0  0  0  3  0  0  0  0  0  0
  -16.7050  -28.5900   23.1330 C   0  0  0  0  0  3  0  0  0  0  0  0
  -25.8600  -32.5010   23.8370 C   0  0  0  0  0  3  0  0  0  0  0  0
  -26.3480  -31.7600   25.1430 C   0  0  1  0  0  0  0  0  0  0  0  0
  -25.2310  -31.5450   26.1930 C   0  0  0  0  0  1  0  0  0  0  0  0
  -26.9400  -30.3750   24.8050 C   0  0  0  0  0  1  0  0  0  0  0  0
  -27.4860  -32.5690   25.8100 C   0  0  0  0  0  1  0  0  0  0  0  0
  -25.5330  -33.9050   24.1480 N   0  0  0  0  0  0  0  0  0  0  0  0
  -25.8770  -34.9590   23.3970 C   0  0  0  0  0  0  0  0  0  0  0  0
  -26.5640  -34.8540   22.3780 O   0  0  0  0  0  0  0  0  0  0  0  0
  -24.9240  -34.0610   24.9380 H   0  0  0  0  0  0  0  0  0  0  0  0
  -24.1600  -36.7610   23.0100 C   0  0  0  0  0  1  0  0  0  0  0  0
  -25.3840  -36.3510   23.8450 C   0  0  0  0  0  3  0  0  0  0  0  0
  -27.5000  -37.2360   24.7210 C   0  0  0  0  0  1  0  0  0  0  0  0
  -26.4220  -37.4020   23.7520 N   0  0  0  0  0  0  0  0  0  0  0  0
  -26.0100  -38.3220   23.8910 H   0  0  0  0  0  0  0  0  0  0  0  0
  -29.9960  -18.5080   20.4300 C   0  0  0  0  0  3  0  0  0  0  0  0
  -30.3880  -15.4940   20.2690 C   0  0  0  0  0  0  0  0  0  0  0  0
  -30.4180  -13.0040   19.4200 C   0  0  0  0  0  2  0  0  0  0  0  0
  -29.5250  -12.6860   18.1920 C   0  0  0  0  0  2  0  0  0  0  0  0
  -28.0820  -12.3760   18.6270 C   0  0  0  0  0  2  0  0  0  0  0  0
  -27.5900  -13.3580   19.7170 C   0  0  0  0  0  3  0  0  0  0  0  0
  -28.6210  -13.6060   20.8380 C   0  0  0  0  0  2  0  0  0  0  0  0
  -29.8210  -14.1710   20.1880 N   0  0  0  0  0  0  0  0  0  0  0  0
  -31.6230  -15.4270   20.1520 O   0  0  0  0  0  0  0  0  0  0  0  0
  -29.6570  -16.8250   20.2960 N   0  0  0  0  0  0  0  0  0  0  0  0
  -28.6610  -16.6780   20.2750 H   0  0  0  0  0  0  0  0  0  0  0  0
  -25.2090  -13.8850   20.4430 C   0  0  0  0  0  0  0  0  0  0  0  0
  -24.1520  -13.1000   20.8040 C   0  0  0  0  0  0  0  0  0  0  0  0
  -24.6350  -11.7550   20.7940 C   0  0  0  0  0  0  0  0  0  0  0  0
  -26.2650  -13.0220   20.2220 N   0  0  0  0  0  0  0  0  0  0  0  0
  -25.9330  -11.7330   20.5010 N   0  0  0  0  0  0  0  0  0  0  0  0
  -23.9190  -10.4870   20.9820 C   0  0  0  0  0  0  0  0  0  0  0  0
  -24.3370   -9.5360   21.9380 C   0  0  0  0  0  3  0  0  0  0  0  0
  -23.6160   -8.3340   22.1180 C   0  0  0  0  0  3  0  0  0  0  0  0
  -22.4600   -8.0770   21.3410 C   0  0  0  0  0  0  0  0  0  0  0  0
  -22.0610   -9.0160   20.3750 C   0  0  0  0  0  3  0  0  0  0  0  0
  -22.7830  -10.2090   20.1930 C   0  0  0  0  0  3  0  0  0  0  0  0
  -21.7110   -6.9290   21.4290 O   0  0  0  0  0  0  0  0  0  0  0  0
  -21.6320   -6.2090   22.5940 C   0  0  0  0  0  0  0  0  0  0  0  0
  -21.1440   -6.7790   23.7920 C   0  0  0  0  0  3  0  0  0  0  0  0
  -21.0180   -5.9830   24.9480 C   0  0  0  0  0  3  0  0  0  0  0  0
  -21.3640   -4.6190   24.9060 C   0  0  0  0  0  0  0  0  0  0  0  0
  -21.8450   -4.0500   23.7130 C   0  0  0  0  0  3  0  0  0  0  0  0
  -21.9750   -4.8420   22.5600 C   0  0  0  0  0  0  0  0  0  0  0  0
  -22.4180   -4.2840   21.4080 F   0  0  0  0  0  0  0  0  0  0  0  0
  -21.2350   -3.8520   26.0140 F   0  0  0  0  0  0  0  0  0  0  0  0
  -22.7450  -13.5650   21.0400 C   0  0  0  0  0  0  0  0  0  0  0  0
  -22.0090  -12.8690   21.8990 N   0  0  0  0  0  0  0  0  0  0  0  0
  -22.3110  -14.5810   20.5010 O   0  0  0  0  0  0  0  0  0  0  0  0
  -22.3760  -12.0490   22.3580 H   0  0  0  0  0  0  0  0  0  0  0  0
  -21.0640  -13.1620   22.1020 H   0  0  0  0  0  0  0  0  0  0  0  0
  -25.3560  -15.2560   20.2520 N   0  0  0  0  0  0  0  0  0  0  0  0
  -24.5780  -15.8990   20.3380 H   0  0  0  0  0  0  0  0  0  0  0  0
  -26.1950  -15.6960   19.9010 H   0  0  0  0  0  0  0  0  0  0  0  0
  -32.7920  -18.5340   18.2220 C   0  0  0  0  0  3  0  0  0  0  0  0
  -31.3070  -18.6000   19.6850 C   0  0  0  0  0  0  0  0  0  0  0  0
  -32.7350  -19.6210   21.5370 C   0  0  0  0  0  1  0  0  0  0  0  0
  -31.4730  -18.2290   18.4110 N   0  0  0  0  0  0  0  0  0  0  0  0
  -33.4150  -19.0530   19.2770 N   0  0  0  0  0  0  0  0  0  0  0  0
  -32.4370  -19.0960   20.2170 N   0  0  0  0  0  0  0  0  0  0  0  0
  1  2  2  0
  1  3  1  0
  2  5  1  0
  3 48  1  0
  3  4  2  0
  5  6  1  0
  5  4  1  0
  7  9  1  0
  7  6  1  0
  8 19  2  0
  9 14  1  0
 10 18  1  0
 10 20  1  0
 11 17  1  0
 11 13  1  0
 12 18  1  0
 13 14  2  0
 13 12  1  0
 15  9  2  0
 16 15  1  0
 16 11  2  0
 17 10  1  0
 18  8  1  0
 20 22  2  0
 21 20  1  0
 23 21  1  0
 24 33  2  0
 24 29  1  0
 25 21  1  0
 25 29  1  0
 26 25  1  0
 27 28  1  0
 27 26  1  0
 28 24  1  0
 29 30  2  0
 30 31  1  0
 32 31  2  0
 33 32  1  0
 34  8  1  0
 34 39  1  0
 34 35  1  0
 35 38  1  1
 35 36  1  0
 37 35  1  0
 39 42  1  0
 40 44  1  0
 40 39  1  0
 41 40  2  0
 44 43  1  0
 46 44  1  0
 46 47  1  0
 46 45  1  0
 48 57  1  0
 49 57  1  0
 50 55  1  0
 51 52  1  0
 51 50  1  0
 53 52  1  0
 53 62  1  0
 53 54  1  0
 55 49  1  0
 55 54  1  0
 56 49  2  0
 58 57  1  0
 59 60  2  0
 60 79  1  0
 61 60  1  0
 61 64  1  0
 62 59  1  0
 62 63  1  0
 63 61  2  0
 64 65  1  0
 65 66  2  0
 67 70  1  0
 67 66  1  0
 68 67  2  0
 69 68  1  0
 69 64  2  0
 70 71  1  0
 71 72  1  0
 72 73  2  0
 74 73  1  0
 74 78  1  0
 75 74  2  0
 76 71  2  0
 76 75  1  0
 77 76  1  0
 79 80  1  0
 80 83  1  0
 80 82  1  0
 81 79  2  0
 84 85  1  0
 84 59  1  0
 86 84  1  0
 87 90  1  0
 87 91  2  0
 88 92  1  0
 88 48  1  0
 90 88  2  0
 91 92  1  0
 92 89  1  0
M  ISO  4   6 101   7 101  49 100  57 100
M  END
>  <TORSDO>  (20) 
F 19

>  <SCORE>  (20) 
-16.625

>  <name>  (20) 
19

>  <ligand_id>  (20) 
19

>  <original_smiles>  (20) 
[H]c1nc(C([H])(c2nn(C([H])([H])Oc3c([H])c([H])c4c(c3[H])C([H])([H])N(C(=O)C([H])(N([H])C(=O)C([H])(N([H])C([H])([H])[H])C([H])([H])[H])C(C([H])([H])[H])(C([H])([H])[H])C([H])([H])[H])C([H])(C(=O)N([H])C3([H])c5c([H])c([H])c([H])c([H])c5C([H])([H])C([H])([H])C3([H])[H])C4([H])[H])c([H])c2[H])N([H])C(=O)N2C([H])([H])C([H])([H])C([H])([H])C([H])(n3nc(-c4c([H])c([H])c(Oc5c([H])c([H])c(F)c([H])c5F)c([H])c4[H])c(C(=O)N([H])[H])c3N([H])[H])C2([H])[H])n(C([H])([H])[H])n1

>  <smiles>  (20) 
[H]c1nc(C([H])(c2nn(C([H])([H])Oc3c([H])c([H])c4c(c3[H])C([H])([H])N(C(=O)C([H])(N([H])C(=O)C([H])(N([H])C([H])([H])[H])C([H])([H])[H])C(C([H])([H])[H])(C([H])([H])[H])C([H])([H])[H])C([H])(C(=O)N([H])C3([H])c5c([H])c([H])c([H])c([H])c5C([H])([H])C([H])([H])C3([H])[H])C4([H])[H])c([H])c2[H])N([H])C(=O)N2C([H])([H])C([H])([H])C([H])([H])C([H])(n3nc(-c4c([H])c([H])c(Oc5c([H])c([H])c(F)c([H])c5F)c([H])c4[H])c(C(=O)N([H])[H])c3N([H])[H])C2([H])[H])n(C([H])([H])[H])n1

$$$$
20:0:0
     RDKit          3D

 88 96  0  0  1  0  0  0  0  0999 V2000
  -28.4980  -21.8980   18.8420 C   0  0  0  0  0  3  0  0  0  0  0  0
  -28.5840  -22.5270   20.0850 C   0  0  0  0  0  0  0  0  0  0  0  0
  -29.2540  -20.0500   20.0820 C   0  0  0  0  0  3  0  0  0  0  0  0
  -28.9120  -19.6740   17.6630 C   0  0  0  0  0  1  0  0  0  0  0  0
  -28.8790  -20.5280   18.8620 N   0  0  0  0  0  0  0  0  0  0  0  0
  -29.0560  -21.2980   20.7990 N   0  0  0  0  0  0  0  0  0  0  0  0
  -29.2480  -21.3410   21.7930 H   0  0  0  0  0  0  0  0  0  0  0  0
  -27.9970  -24.1330   20.6080 C   0  0  0  0  0  2  0  0  0  0  0  0
  -28.2320  -25.7570   20.2270 O   0  0  0  0  0  0  0  0  0  0  0  0
  -24.6400  -31.8380   23.1890 C   0  0  0  0  0  0  0  0  0  0  0  0
  -27.2270  -26.8830   20.2410 C   0  0  0  0  0  0  0  0  0  0  0  0
  -23.4660  -30.4260   21.5520 C   0  0  0  0  0  3  0  0  0  0  0  0
  -24.9280  -28.8010   20.1660 C   0  0  0  0  0  0  0  0  0  0  0  0
  -26.0380  -30.6280   21.4250 C   0  0  0  0  0  2  0  0  0  0  0  0
  -26.1200  -29.2040   20.7800 C   0  0  0  0  0  0  0  0  0  0  0  0
  -27.2650  -28.2760   20.7780 C   0  0  0  0  0  3  0  0  0  0  0  0
  -25.9950  -26.6430   19.5910 C   0  0  0  0  0  3  0  0  0  0  0  0
  -24.8950  -27.5400   19.5450 C   0  0  0  0  0  3  0  0  0  0  0  0
  -23.7100  -29.7270   20.1870 C   0  0  0  0  0  2  0  0  0  0  0  0
  -24.7380  -30.9920   22.1090 N   0  0  0  0  0  0  0  0  0  0  0  0
  -23.5450  -32.1290   23.6960 O   0  0  0  0  0  0  0  0  0  0  0  0
  -22.7570  -29.4430   22.5230 C   0  0  0  0  0  0  0  0  0  0  0  0
  -21.4230  -29.2910   22.4050 N   0  0  0  0  0  0  0  0  0  0  0  0
  -23.4180  -28.8140   23.3540 O   0  0  0  0  0  0  0  0  0  0  0  0
  -20.9440  -29.8590   21.7180 H   0  0  0  0  0  0  0  0  0  0  0  0
  -18.0270  -28.1220   22.9380 C   0  0  0  0  0  0  0  0  0  0  0  0
  -20.5930  -28.3600   23.1780 C   0  0  0  0  0  3  0  0  0  0  0  0
  -20.6740  -26.9260   22.6030 C   0  0  0  0  0  2  0  0  0  0  0  0
  -19.5620  -26.6210   21.5960 C   0  0  0  0  0  2  0  0  0  0  0  0
  -18.1870  -26.7770   22.2520 C   0  0  0  0  0  2  0  0  0  0  0  0
  -19.1560  -28.8750   23.3580 C   0  0  0  0  0  0  0  0  0  0  0  0
  -18.9490  -30.1340   23.9640 C   0  0  0  0  0  3  0  0  0  0  0  0
  -17.6470  -30.6410   24.1460 C   0  0  0  0  0  3  0  0  0  0  0  0
  -16.5340  -29.8820   23.7430 C   0  0  0  0  0  3  0  0  0  0  0  0
  -16.7240  -28.6230   23.1460 C   0  0  0  0  0  3  0  0  0  0  0  0
  -25.9030  -32.4930   23.8290 C   0  0  0  0  0  3  0  0  0  0  0  0
  -25.5710  -33.8930   24.1540 N   0  0  0  0  0  0  0  0  0  0  0  0
  -25.9060  -34.9570   23.4100 C   0  0  0  0  0  0  0  0  0  0  0  0
  -26.5830  -34.8620   22.3850 O   0  0  0  0  0  0  0  0  0  0  0  0
  -24.9660  -34.0400   24.9470 H   0  0  0  0  0  0  0  0  0  0  0  0
  -24.1810  -36.7600   23.0620 C   0  0  0  0  0  1  0  0  0  0  0  0
  -25.4150  -36.3420   23.8760 C   0  0  0  0  0  3  0  0  0  0  0  0
  -27.5390  -37.2310   24.7320 C   0  0  0  0  0  1  0  0  0  0  0  0
  -26.4470  -37.3980   23.7780 N   0  0  0  0  0  0  0  0  0  0  0  0
  -26.0370  -38.3170   23.9240 H   0  0  0  0  0  0  0  0  0  0  0  0
  -26.3970  -31.7440   25.1290 C   0  0  1  0  0  0  0  0  0  0  0  0
  -25.2890  -31.5220   26.1840 C   0  0  0  0  0  1  0  0  0  0  0  0
  -26.9860  -30.3610   24.7760 C   0  0  0  0  0  1  0  0  0  0  0  0
  -27.5340  -32.5490   25.8010 C   0  0  0  0  0  1  0  0  0  0  0  0
  -29.9940  -18.4530   20.4530 C   0  0  0  0  0  2  0  0  0  0  0  0
  -30.3430  -15.4740   20.1810 C   0  0  0  0  0  0  0  0  0  0  0  0
  -30.3740  -12.9940   19.3040 C   0  0  0  0  0  2  0  0  0  0  0  0
  -29.4380  -12.6480   18.1110 C   0  0  0  0  0  2  0  0  0  0  0  0
  -28.0320  -12.2870   18.6220 C   0  0  0  0  0  2  0  0  0  0  0  0
  -27.5470  -13.2960   19.6830 C   0  0  0  0  0  3  0  0  0  0  0  0
  -28.6070  -13.5640   20.7780 C   0  0  0  0  0  2  0  0  0  0  0  0
  -29.7820  -14.1460   20.0960 N   0  0  0  0  0  0  0  0  0  0  0  0
  -31.5770  -15.4200   20.0440 O   0  0  0  0  0  0  0  0  0  0  0  0
  -28.1490  -16.7860   20.1070 C   0  0  0  0  0  1  0  0  0  0  0  0
  -29.6040  -16.8120   20.2270 N   0  0  0  0  0  0  0  0  0  0  0  0
  -25.1980  -13.8420   20.4910 C   0  0  0  0  0  0  0  0  0  0  0  0
  -24.1490  -13.0620   20.8840 C   0  0  0  0  0  0  0  0  0  0  0  0
  -24.6250  -11.7160   20.8480 C   0  0  0  0  0  0  0  0  0  0  0  0
  -26.2400  -12.9710   20.2300 N   0  0  0  0  0  0  0  0  0  0  0  0
  -25.9100  -11.6850   20.5120 N   0  0  0  0  0  0  0  0  0  0  0  0
  -23.9100  -10.4490   21.0400 C   0  0  0  0  0  0  0  0  0  0  0  0
  -24.3600   -9.4800   21.9630 C   0  0  0  0  0  3  0  0  0  0  0  0
  -23.6440   -8.2790   22.1450 C   0  0  0  0  0  3  0  0  0  0  0  0
  -22.4640   -8.0370   21.4020 C   0  0  0  0  0  0  0  0  0  0  0  0
  -22.0260   -8.9990   20.4750 C   0  0  0  0  0  3  0  0  0  0  0  0
  -22.7450  -10.1910   20.2920 C   0  0  0  0  0  3  0  0  0  0  0  0
  -21.7170   -6.8870   21.4960 O   0  0  0  0  0  0  0  0  0  0  0  0
  -21.6870   -6.1430   22.6470 C   0  0  0  0  0  0  0  0  0  0  0  0
  -21.2610   -6.6900   23.8770 C   0  0  0  0  0  3  0  0  0  0  0  0
  -21.1790   -5.8680   25.0200 C   0  0  0  0  0  3  0  0  0  0  0  0
  -21.5190   -4.5050   24.9320 C   0  0  0  0  0  0  0  0  0  0  0  0
  -21.9430   -3.9600   23.7090 C   0  0  0  0  0  3  0  0  0  0  0  0
  -22.0250   -4.7760   22.5670 C   0  0  0  0  0  0  0  0  0  0  0  0
  -22.4100   -4.2420   21.3830 F   0  0  0  0  0  0  0  0  0  0  0  0
  -21.4360   -3.7150   26.0290 F   0  0  0  0  0  0  0  0  0  0  0  0
  -22.7530  -13.5300   21.1720 C   0  0  0  0  0  0  0  0  0  0  0  0
  -22.0460  -12.8320   22.0500 N   0  0  0  0  0  0  0  0  0  0  0  0
  -22.3050  -14.5530   20.6550 O   0  0  0  0  0  0  0  0  0  0  0  0
  -22.4190  -11.9970   22.4770 H   0  0  0  0  0  0  0  0  0  0  0  0
  -21.1110  -13.1270   22.2910 H   0  0  0  0  0  0  0  0  0  0  0  0
  -25.3450  -15.2070   20.2820 N   0  0  0  0  0  0  0  0  0  0  0  0
  -24.5630  -15.8560   20.3330 H   0  0  0  0  0  0  0  0  0  0  0  0
  -26.1610  -15.6030   19.8320 H   0  0  0  0  0  0  0  0  0  0  0  0
  1  5  1  0
  1  2  2  0
  2  8  1  0
  2  6  1  0
  3 50  1  0
  3  6  1  0
  4  5  1  0
  5  3  1  0
  6  7  1  0
  9 11  1  0
  9  8  1  0
 10 21  2  0
 11 16  1  0
 12 20  1  0
 12 22  1  0
 13 19  1  0
 13 15  1  0
 14 20  1  0
 15 14  1  0
 16 15  2  0
 17 11  2  0
 18 17  1  0
 18 13  2  0
 19 12  1  0
 20 10  1  0
 22 24  2  0
 23 22  1  0
 25 23  1  0
 26 35  2  0
 26 31  1  0
 27 23  1  0
 27 31  1  0
 28 27  1  0
 29 30  1  0
 29 28  1  0
 30 26  1  0
 31 32  2  0
 32 33  1  0
 34 33  2  0
 35 34  1  0
 36 10  1  0
 36 37  1  0
 36 46  1  0
 37 40  1  0
 38 42  1  0
 38 37  1  0
 39 38  2  0
 42 41  1  0
 44 42  1  0
 44 45  1  0
 44 43  1  0
 46 49  1  1
 46 47  1  0
 48 46  1  0
 51 60  1  0
 52 57  1  0
 53 54  1  0
 53 52  1  0
 55 54  1  0
 55 64  1  0
 55 56  1  0
 57 51  1  0
 57 56  1  0
 58 51  2  0
 59 60  1  0
 60 50  1  0
 61 62  2  0
 62 81  1  0
 63 62  1  0
 63 66  1  0
 64 61  1  0
 64 65  1  0
 65 63  2  0
 66 67  1  0
 67 68  2  0
 69 72  1  0
 69 68  1  0
 70 69  2  0
 71 70  1  0
 71 66  2  0
 72 73  1  0
 73 74  1  0
 74 75  2  0
 76 75  1  0
 76 80  1  0
 77 76  2  0
 78 73  2  0
 78 77  1  0
 79 78  1  0
 81 82  1  0
 82 85  1  0
 82 84  1  0
 83 81  2  0
 86 87  1  0
 86 61  1  0
 88 86  1  0
M  ISO  4   8 101   9 101  51 100  60 100
M  END
>  <TORSDO>  (21) 
F 18

>  <SCORE>  (21) 
-16.727

>  <name>  (21) 
20

>  <ligand_id>  (21) 
20

>  <original_smiles>  (21) 
[H]c1c([H])c([H])c2c(c1[H])C([H])([H])C([H])([H])C([H])([H])C2([H])N([H])C(=O)C1([H])N(C(=O)C([H])(N([H])C(=O)C([H])(N([H])C([H])([H])[H])C([H])([H])[H])C(C([H])([H])[H])(C([H])([H])[H])C([H])([H])[H])C([H])([H])c2c([H])c(OC([H])([H])c3c([H])n(C([H])([H])[H])c(C([H])([H])N(C(=O)N4C([H])([H])C([H])([H])C([H])([H])C([H])(n5nc(-c6c([H])c([H])c(Oc7c([H])c([H])c(F)c([H])c7F)c([H])c6[H])c(C(=O)N([H])[H])c5N([H])[H])C4([H])[H])C([H])([H])[H])[n+]3[H])c([H])c([H])c2C1([H])[H]

>  <smiles>  (21) 
[H]c1c([H])c([H])c2c(c1[H])C([H])([H])C([H])([H])C([H])([H])C2([H])N([H])C(=O)C1([H])N(C(=O)C([H])(N([H])C(=O)C([H])(N([H])C([H])([H])[H])C([H])([H])[H])C(C([H])([H])[H])(C([H])([H])[H])C([H])([H])[H])C([H])([H])c2c([H])c(OC([H])([H])c3c([H])n(C([H])([H])[H])c(C([H])([H])N(C(=O)N4C([H])([H])C([H])([H])C([H])([H])C([H])(n5nc(-c6c([H])c([H])c(Oc7c([H])c([H])c(F)c([H])c7F)c([H])c6[H])c(C(=O)N([H])[H])c5N([H])[H])C4([H])[H])C([H])([H])[H])[n+]3[H])c([H])c([H])c2C1([H])[H]

$$$$
21:0:0
     RDKit          3D

 99107  0  0  1  0  0  0  0  0999 V2000
  -29.5960  -18.6460   21.8920 C   0  0  0  0  0  3  0  0  0  0  0  0
  -32.1970  -18.2740   21.2740 C   0  0  0  0  0  3  0  0  0  0  0  0
  -30.4560  -19.7380   21.6180 C   0  0  0  0  0  0  0  0  0  0  0  0
  -31.3110  -17.1800   21.4290 C   0  0  0  0  0  0  0  0  0  0  0  0
  -31.7740  -19.5580   21.3570 N   0  0  0  0  0  0  0  0  0  0  0  0
  -30.0230  -17.3630   21.8120 N   0  0  0  0  0  0  0  0  0  0  0  0
  -29.9390  -21.1710   21.5870 C   0  0  0  0  0  2  0  0  0  0  0  0
  -30.5400  -22.0130   20.4400 C   0  0  0  0  0  2  0  0  0  0  0  0
  -31.8520  -22.5810   20.8210 N   0  0  0  0  0  4  0  0  0  0  0  0
  -32.5100  -21.8170   20.7270 H   0  0  0  0  0  0  0  0  0  0  0  0
  -31.8390  -22.8370   21.7940 H   0  0  0  0  0  0  0  0  0  0  0  0
  -32.3460  -23.7140   20.0050 C   0  0  0  0  0  2  0  0  0  0  0  0
  -32.0090  -25.0860   20.6260 C   0  0  0  0  0  2  0  0  0  0  0  0
  -32.5760  -26.2690   19.8110 C   0  0  0  0  0  2  0  0  0  0  0  0
  -32.2170  -27.5270   20.3890 O   0  0  0  0  0  0  0  0  0  0  0  0
  -27.0550  -30.0810   24.5390 C   0  0  0  0  0  0  0  0  0  0  0  0
  -30.8900  -27.8950   20.4560 C   0  0  0  0  0  0  0  0  0  0  0  0
  -26.3340  -29.2560   22.3220 C   0  0  0  0  0  3  0  0  0  0  0  0
  -28.2010  -28.7510   20.6690 C   0  0  0  0  0  0  0  0  0  0  0  0
  -28.7010  -30.1620   22.6690 C   0  0  0  0  0  2  0  0  0  0  0  0
  -29.1580  -29.2140   21.5800 C   0  0  0  0  0  0  0  0  0  0  0  0
  -30.5000  -28.7940   21.4740 C   0  0  0  0  0  3  0  0  0  0  0  0
  -29.9080  -27.4320   19.5480 C   0  0  0  0  0  3  0  0  0  0  0  0
  -28.5730  -27.8570   19.6520 C   0  0  0  0  0  3  0  0  0  0  0  0
  -26.7870  -29.2520   20.8390 C   0  0  0  0  0  2  0  0  0  0  0  0
  -27.3740  -29.8260   23.2390 N   0  0  0  0  0  0  0  0  0  0  0  0
  -25.9070  -29.8910   24.9650 O   0  0  0  0  0  0  0  0  0  0  0  0
  -25.8930  -27.8260   22.7080 C   0  0  0  0  0  0  0  0  0  0  0  0
  -24.7030  -27.4190   22.2380 N   0  0  0  0  0  0  0  0  0  0  0  0
  -26.6250  -27.1010   23.3880 O   0  0  0  0  0  0  0  0  0  0  0  0
  -24.1600  -28.0760   21.6960 H   0  0  0  0  0  0  0  0  0  0  0  0
  -21.8090  -25.3970   21.4700 C   0  0  0  0  0  0  0  0  0  0  0  0
  -24.0990  -26.1020   22.4410 C   0  0  0  0  0  3  0  0  0  0  0  0
  -24.7130  -25.0550   21.4820 C   0  0  0  0  0  2  0  0  0  0  0  0
  -23.9270  -24.8970   20.1770 C   0  0  0  0  0  2  0  0  0  0  0  0
  -22.4830  -24.4740   20.4670 C   0  0  0  0  0  2  0  0  0  0  0  0
  -22.5690  -26.1730   22.3850 C   0  0  0  0  0  0  0  0  0  0  0  0
  -21.8960  -27.0390   23.2730 C   0  0  0  0  0  3  0  0  0  0  0  0
  -20.4920  -27.1340   23.2590 C   0  0  0  0  0  3  0  0  0  0  0  0
  -19.7430  -26.3500   22.3650 C   0  0  0  0  0  3  0  0  0  0  0  0
  -20.4010  -25.4820   21.4750 C   0  0  0  0  0  3  0  0  0  0  0  0
  -28.1060  -30.6470   25.5430 C   0  0  0  0  0  3  0  0  0  0  0  0
  -28.4740  -29.6340   26.6950 C   0  0  1  0  0  0  0  0  0  0  0  0
  -27.2420  -29.0540   27.4310 C   0  0  0  0  0  1  0  0  0  0  0  0
  -29.2910  -28.4470   26.1320 C   0  0  0  0  0  1  0  0  0  0  0  0
  -29.3750  -30.3330   27.7410 C   0  0  0  0  0  1  0  0  0  0  0  0
  -27.5590  -31.8920   26.1000 N   0  0  0  0  0  0  0  0  0  0  0  0
  -27.9300  -33.1210   25.7200 C   0  0  0  0  0  0  0  0  0  0  0  0
  -28.8320  -33.3260   24.9030 O   0  0  0  0  0  0  0  0  0  0  0  0
  -26.7800  -31.8000   26.7340 H   0  0  0  0  0  0  0  0  0  0  0  0
  -26.1410  -34.8480   25.3470 C   0  0  0  0  0  1  0  0  0  0  0  0
  -27.1800  -34.3140   26.3450 C   0  0  0  0  0  3  0  0  0  0  0  0
  -28.9290  -35.0560   27.9020 C   0  0  0  0  0  1  0  0  0  0  0  0
  -28.0740  -35.4120   26.7710 N   0  0  0  0  0  0  0  0  0  0  0  0
  -27.5360  -36.2350   27.0280 H   0  0  0  0  0  0  0  0  0  0  0  0
  -31.7580  -15.7570   21.1240 C   0  0  0  0  0  2  0  0  0  0  0  0
  -31.5270  -13.8160   19.7490 C   0  0  0  0  0  0  0  0  0  0  0  0
  -30.8040  -11.7080   18.7230 C   0  0  0  0  0  2  0  0  0  0  0  0
  -29.8300  -11.9850   17.5630 C   0  0  0  0  0  2  0  0  0  0  0  0
  -28.3820  -12.0430   18.0880 C   0  0  0  0  0  2  0  0  0  0  0  0
  -28.2220  -12.9660   19.3270 C   0  0  0  0  0  3  0  0  0  0  0  0
  -29.3290  -12.7210   20.3770 C   0  0  0  0  0  2  0  0  0  0  0  0
  -30.6300  -12.7950   19.6980 N   0  0  0  0  0  0  0  0  0  0  0  0
  -32.6950  -13.6760   19.3940 O   0  0  0  0  0  0  0  0  0  0  0  0
  -31.0640  -15.0630   20.0100 N   0  0  0  0  0  0  0  0  0  0  0  0
  -25.9910  -13.8700   20.2320 C   0  0  0  0  0  0  0  0  0  0  0  0
  -24.8520  -13.2440   20.6530 C   0  0  0  0  0  0  0  0  0  0  0  0
  -25.1110  -11.8440   20.5450 C   0  0  0  0  0  0  0  0  0  0  0  0
  -26.8840  -12.8630   19.9020 N   0  0  0  0  0  0  0  0  0  0  0  0
  -26.3610  -11.6350   20.1500 N   0  0  0  0  0  0  0  0  0  0  0  0
  -24.2200  -10.6940   20.7380 C   0  0  0  0  0  0  0  0  0  0  0  0
  -24.5580   -9.6400   21.6140 C   0  0  0  0  0  3  0  0  0  0  0  0
  -23.6770   -8.5530   21.7980 C   0  0  0  0  0  3  0  0  0  0  0  0
  -22.4420   -8.5170   21.1070 C   0  0  0  0  0  0  0  0  0  0  0  0
  -22.1220   -9.5580   20.2180 C   0  0  0  0  0  3  0  0  0  0  0  0
  -23.0030  -10.6350   20.0310 C   0  0  0  0  0  3  0  0  0  0  0  0
  -21.5350   -7.4900   21.2050 O   0  0  0  0  0  0  0  0  0  0  0  0
  -21.4400   -6.7190   22.3360 C   0  0  0  0  0  0  0  0  0  0  0  0
  -21.1410   -7.2800   23.5970 C   0  0  0  0  0  3  0  0  0  0  0  0
  -20.9840   -6.4430   24.7190 C   0  0  0  0  0  3  0  0  0  0  0  0
  -21.1160   -5.0480   24.5820 C   0  0  0  0  0  0  0  0  0  0  0  0
  -21.4090   -4.4880   23.3270 C   0  0  0  0  0  3  0  0  0  0  0  0
  -21.5670   -5.3220   22.2060 C   0  0  0  0  0  0  0  0  0  0  0  0
  -21.8280   -4.7760   20.9940 F   0  0  0  0  0  0  0  0  0  0  0  0
  -20.9580   -4.2430   25.6590 F   0  0  0  0  0  0  0  0  0  0  0  0
  -23.5610  -13.9060   21.0360 C   0  0  0  0  0  0  0  0  0  0  0  0
  -22.8050  -13.2950   21.9410 N   0  0  0  0  0  0  0  0  0  0  0  0
  -23.2380  -14.9980   20.5710 O   0  0  0  0  0  0  0  0  0  0  0  0
  -23.0820  -12.4110   22.3400 H   0  0  0  0  0  0  0  0  0  0  0  0
  -21.9390  -13.7200   22.2410 H   0  0  0  0  0  0  0  0  0  0  0  0
  -26.3210  -15.2110   20.0820 N   0  0  0  0  0  0  0  0  0  0  0  0
  -25.6550  -15.9520   20.2670 H   0  0  0  0  0  0  0  0  0  0  0  0
  -27.2050  -15.5460   19.7250 H   0  0  0  0  0  0  0  0  0  0  0  0
  -29.1850  -16.5610   19.2390 C   0  0  0  0  0  1  0  0  0  0  0  0
  -30.5020  -15.8540   18.8630 C   0  0  0  0  0  3  0  0  0  0  0  0
  -30.6150  -17.3300   16.7990 C   0  0  0  0  0  1  0  0  0  0  0  0
  -32.1330  -17.9040   18.6720 C   0  0  0  0  0  1  0  0  0  0  0  0
  -32.5720  -15.9030   17.2770 C   0  0  0  0  0  1  0  0  0  0  0  0
  -31.4560  -16.7260   17.9460 C   0  0  1  0  0  0  0  0  0  0  0  0
  2  5  2  0
  2  4  1  0
  3  1  2  0
  4  6  2  0
  5  3  1  0
  6  1  1  0
  7  3  1  0
  8  9  1  0
  8  7  1  0
  9 11  1  0
 10  9  1  0
 12 13  1  0
 12  9  1  0
 14 15  1  0
 14 13  1  0
 15 17  1  0
 16 27  2  0
 17 22  1  0
 18 28  1  0
 18 26  1  0
 19 25  1  0
 19 21  1  0
 20 26  1  0
 21 20  1  0
 22 21  2  0
 23 24  1  0
 23 17  2  0
 24 19  2  0
 25 18  1  0
 26 16  1  0
 28 30  2  0
 29 28  1  0
 31 29  1  0
 32 41  2  0
 32 37  1  0
 33 29  1  0
 34 33  1  0
 35 36  1  0
 35 34  1  0
 36 32  1  0
 37 33  1  0
 37 38  2  0
 39 38  1  0
 40 39  2  0
 41 40  1  0
 42 16  1  0
 42 47  1  0
 42 43  1  0
 43 44  1  1
 43 46  1  0
 45 43  1  0
 47 50  1  0
 48 47  1  0
 48 52  1  0
 49 48  2  0
 52 51  1  0
 52 54  1  0
 54 55  1  0
 54 53  1  0
 56  4  1  0
 57 65  1  0
 58 63  1  0
 59 60  1  0
 59 58  1  0
 61 60  1  0
 61 69  1  0
 61 62  1  0
 63 57  1  0
 63 62  1  0
 64 57  2  0
 65 56  1  0
 66 67  2  0
 67 86  1  0
 68 67  1  0
 68 71  1  0
 69 70  1  0
 69 66  1  0
 70 68  2  0
 71 72  1  0
 72 73  2  0
 74 77  1  0
 74 73  1  0
 75 74  2  0
 76 75  1  0
 76 71  2  0
 77 78  1  0
 78 79  1  0
 79 80  2  0
 81 80  1  0
 81 85  1  0
 82 81  2  0
 83 78  2  0
 83 82  1  0
 84 83  1  0
 86 87  1  0
 87 90  1  0
 87 89  1  0
 88 86  2  0
 91 66  1  0
 91 92  1  0
 93 91  1  0
 95 94  1  0
 95 65  1  0
 99 96  1  6
 98 99  1  0
 99 97  1  0
 99 95  1  0
M  ISO  4  14 101  15 101  57 100  65 100
M  END
>  <TORSDO>  (22) 
F 25

>  <SCORE>  (22) 
-7.235

>  <name>  (22) 
21

>  <ligand_id>  (22) 
21

>  <original_smiles>  (22) 
[H]c1nc(C([H])([H])C([H])([H])[N+]([H])([H])C([H])([H])C([H])([H])C([H])([H])Oc2c([H])c([H])c3c(c2[H])C([H])([H])N(C(=O)C([H])(N([H])C(=O)C([H])(N([H])C([H])([H])[H])C([H])([H])[H])C(C([H])([H])[H])(C([H])([H])[H])C([H])([H])[H])C([H])(C(=O)N([H])C2([H])c4c([H])c([H])c([H])c([H])c4C([H])([H])C([H])([H])C2([H])[H])C3([H])[H])c([H])nc1C([H])([H])N(C(=O)N1C([H])([H])C([H])([H])C([H])([H])C([H])(n2nc(-c3c([H])c([H])c(Oc4c([H])c([H])c(F)c([H])c4F)c([H])c3[H])c(C(=O)N([H])[H])c2N([H])[H])C1([H])[H])C([H])(C([H])([H])[H])C(C([H])([H])[H])(C([H])([H])[H])C([H])([H])[H]

>  <smiles>  (22) 
[H]c1nc(C([H])([H])C([H])([H])[N+]([H])([H])C([H])([H])C([H])([H])C([H])([H])Oc2c([H])c([H])c3c(c2[H])C([H])([H])N(C(=O)C([H])(N([H])C(=O)C([H])(N([H])C([H])([H])[H])C([H])([H])[H])C(C([H])([H])[H])(C([H])([H])[H])C([H])([H])[H])C([H])(C(=O)N([H])C2([H])c4c([H])c([H])c([H])c([H])c4C([H])([H])C([H])([H])C2([H])[H])C3([H])[H])c([H])nc1C([H])([H])N(C(=O)N1C([H])([H])C([H])([H])C([H])([H])C([H])(n2nc(-c3c([H])c([H])c(Oc4c([H])c([H])c(F)c([H])c4F)c([H])c3[H])c(C(=O)N([H])[H])c2N([H])[H])C1([H])[H])C([H])(C([H])([H])[H])C(C([H])([H])[H])(C([H])([H])[H])C([H])([H])[H]

$$$$
22:0:0
     RDKit          3D

 94102  0  0  1  0  0  0  0  0999 V2000
  -27.7520  -20.9070   19.0780 C   0  0  0  0  0  2  0  0  0  0  0  0
  -29.6490  -19.3180   18.4540 C   0  0  0  0  0  3  0  0  0  0  0  0
  -28.3760  -19.5850   18.8470 C   0  0  0  0  0  0  0  0  0  0  0  0
  -27.6910  -18.3900   19.0560 N   0  0  0  0  0  0  0  0  0  0  0  0
  -28.5000  -17.4070   18.8410 N   0  0  0  0  0  0  0  0  0  0  0  0
  -29.6990  -17.9500   18.5140 N   0  0  0  0  0  0  0  0  0  0  0  0
  -30.6610  -15.9790   17.4030 C   0  0  0  0  0  1  0  0  0  0  0  0
  -30.8760  -17.1300   18.3920 C   0  0  0  0  0  3  0  0  0  0  0  0
  -31.3860  -16.7440   19.7940 C   0  0  0  0  0  2  0  0  0  0  0  0
  -31.1310  -14.6750   21.0890 C   0  0  0  0  0  0  0  0  0  0  0  0
  -30.8020  -12.5790   19.9480 C   0  0  0  0  0  2  0  0  0  0  0  0
  -30.0250  -12.9080   18.6600 C   0  0  0  0  0  2  0  0  0  0  0  0
  -28.5040  -12.8910   18.9160 C   0  0  0  0  0  2  0  0  0  0  0  0
  -28.0620  -13.6600   20.1930 C   0  0  0  0  0  3  0  0  0  0  0  0
  -28.9980  -13.3750   21.3900 C   0  0  0  0  0  2  0  0  0  0  0  0
  -30.3890  -13.5560   20.9540 N   0  0  0  0  0  0  0  0  0  0  0  0
  -32.3500  -14.6870   21.2400 O   0  0  0  0  0  0  0  0  0  0  0  0
  -30.5750  -15.7270   20.4820 N   0  0  0  0  0  0  0  0  0  0  0  0
  -29.6000  -15.6570   20.2390 H   0  0  0  0  0  0  0  0  0  0  0  0
  -25.5920  -14.2700   20.5940 C   0  0  0  0  0  0  0  0  0  0  0  0
  -24.4870  -13.4980   20.8450 C   0  0  0  0  0  0  0  0  0  0  0  0
  -24.9530  -12.1510   20.9110 C   0  0  0  0  0  0  0  0  0  0  0  0
  -26.6610  -13.3900   20.5190 N   0  0  0  0  0  0  0  0  0  0  0  0
  -26.2720  -12.1140   20.7720 N   0  0  0  0  0  0  0  0  0  0  0  0
  -24.2120  -10.8870   21.0370 C   0  0  0  0  0  0  0  0  0  0  0  0
  -24.5750   -9.9080   21.9870 C   0  0  0  0  0  3  0  0  0  0  0  0
  -23.8350   -8.7120   22.1030 C   0  0  0  0  0  3  0  0  0  0  0  0
  -22.7180   -8.4850   21.2650 C   0  0  0  0  0  0  0  0  0  0  0  0
  -22.3740   -9.4530   20.3030 C   0  0  0  0  0  3  0  0  0  0  0  0
  -23.1160  -10.6400   20.1860 C   0  0  0  0  0  3  0  0  0  0  0  0
  -21.9570   -7.3410   21.2880 O   0  0  0  0  0  0  0  0  0  0  0  0
  -21.8620   -6.5640   22.4150 C   0  0  0  0  0  0  0  0  0  0  0  0
  -21.3760   -7.0790   23.6370 C   0  0  0  0  0  3  0  0  0  0  0  0
  -21.2280   -6.2280   24.7510 C   0  0  0  0  0  3  0  0  0  0  0  0
  -21.5530   -4.8630   24.6430 C   0  0  0  0  0  0  0  0  0  0  0  0
  -22.0350   -4.3480   23.4270 C   0  0  0  0  0  3  0  0  0  0  0  0
  -22.1850   -5.1960   22.3160 C   0  0  0  0  0  0  0  0  0  0  0  0
  -22.6290   -4.6900   21.1390 F   0  0  0  0  0  0  0  0  0  0  0  0
  -21.4040   -4.0430   25.7090 F   0  0  0  0  0  0  0  0  0  0  0  0
  -23.0640  -13.9740   20.9200 C   0  0  0  0  0  0  0  0  0  0  0  0
  -22.2390  -13.3130   21.7250 N   0  0  0  0  0  0  0  0  0  0  0  0
  -22.6870  -14.9690   20.3010 O   0  0  0  0  0  0  0  0  0  0  0  0
  -22.5520  -12.5100   22.2490 H   0  0  0  0  0  0  0  0  0  0  0  0
  -21.2780  -13.6090   21.8140 H   0  0  0  0  0  0  0  0  0  0  0  0
  -25.7690  -15.6360   20.4050 N   0  0  0  0  0  0  0  0  0  0  0  0
  -24.9820  -16.2760   20.3920 H   0  0  0  0  0  0  0  0  0  0  0  0
  -26.6460  -16.0960   20.1980 H   0  0  0  0  0  0  0  0  0  0  0  0
  -28.6390  -21.3850   21.3420 C   0  0  0  0  0  1  0  0  0  0  0  0
  -28.6240  -21.7770   19.9120 N   0  0  2  0  0  4  0  0  0  0  0  0
  -29.5620  -21.6690   19.5570 H   0  0  0  0  0  0  0  0  0  0  0  0
  -28.2010  -23.1650   19.6740 C   0  0  0  0  0  2  0  0  0  0  0  0
  -29.0650  -24.3480   20.1910 C   0  0  0  0  0  2  0  0  0  0  0  0
  -28.1370  -25.5230   19.8990 C   0  0  0  0  0  2  0  0  0  0  0  0
  -28.3970  -26.8940   20.1840 O   0  0  0  0  0  0  0  0  0  0  0  0
  -24.5570  -31.9680   23.3850 C   0  0  0  0  0  0  0  0  0  0  0  0
  -27.2270  -27.6480   20.1690 C   0  0  0  0  0  0  0  0  0  0  0  0
  -23.3600  -30.6020   21.7140 C   0  0  0  0  0  3  0  0  0  0  0  0
  -24.8190  -29.1400   20.2450 C   0  0  0  0  0  0  0  0  0  0  0  0
  -25.8860  -30.9860   21.5260 C   0  0  0  0  0  2  0  0  0  0  0  0
  -25.9800  -29.6390   20.8490 C   0  0  0  0  0  0  0  0  0  0  0  0
  -27.1840  -28.8970   20.8250 C   0  0  0  0  0  3  0  0  0  0  0  0
  -26.0350  -27.1940   19.5300 C   0  0  0  0  0  3  0  0  0  0  0  0
  -24.8380  -27.9080   19.5910 C   0  0  0  0  0  3  0  0  0  0  0  0
  -23.5720  -29.9800   20.3130 C   0  0  0  0  0  2  0  0  0  0  0  0
  -24.6200  -31.1970   22.2660 N   0  0  0  0  0  0  0  0  0  0  0  0
  -23.4730  -32.2170   23.9300 O   0  0  0  0  0  0  0  0  0  0  0  0
  -22.7230  -29.5400   22.6410 C   0  0  0  0  0  0  0  0  0  0  0  0
  -21.4030  -29.3340   22.4960 N   0  0  0  0  0  0  0  0  0  0  0  0
  -23.4120  -28.9080   23.4450 O   0  0  0  0  0  0  0  0  0  0  0  0
  -20.9070  -29.8980   21.8210 H   0  0  0  0  0  0  0  0  0  0  0  0
  -18.0530  -28.0490   22.9100 C   0  0  0  0  0  0  0  0  0  0  0  0
  -20.5960  -28.3680   23.2410 C   0  0  0  0  0  3  0  0  0  0  0  0
  -20.7490  -26.9440   22.6570 C   0  0  0  0  0  2  0  0  0  0  0  0
  -19.6770  -26.6010   21.6170 C   0  0  0  0  0  2  0  0  0  0  0  0
  -18.2800  -26.7080   22.2320 C   0  0  0  0  0  2  0  0  0  0  0  0
  -19.1420  -28.8340   23.3700 C   0  0  0  0  0  0  0  0  0  0  0  0
  -18.8790  -30.0890   23.9620 C   0  0  0  0  0  3  0  0  0  0  0  0
  -17.5590  -30.5580   24.0990 C   0  0  0  0  0  3  0  0  0  0  0  0
  -16.4830  -29.7690   23.6570 C   0  0  0  0  0  3  0  0  0  0  0  0
  -16.7310  -28.5160   23.0690 C   0  0  0  0  0  3  0  0  0  0  0  0
  -25.8390  -32.5940   24.0150 C   0  0  0  0  0  3  0  0  0  0  0  0
  -25.5400  -34.0000   24.3120 N   0  0  0  0  0  0  0  0  0  0  0  0
  -25.9700  -35.0360   23.5820 C   0  0  0  0  0  0  0  0  0  0  0  0
  -26.7290  -34.9100   22.6160 O   0  0  0  0  0  0  0  0  0  0  0  0
  -24.8790  -34.1750   25.0550 H   0  0  0  0  0  0  0  0  0  0  0  0
  -24.3410  -36.8770   23.0490 C   0  0  0  0  0  1  0  0  0  0  0  0
  -25.4790  -36.4390   23.9870 C   0  0  0  0  0  3  0  0  0  0  0  0
  -27.5460  -37.2560   25.0290 C   0  0  0  0  0  1  0  0  0  0  0  0
  -26.5490  -37.4600   23.9820 N   0  0  0  0  0  0  0  0  0  0  0  0
  -26.1580  -38.3920   24.0930 H   0  0  0  0  0  0  0  0  0  0  0  0
  -26.3280  -31.8340   25.3070 C   0  0  1  0  0  0  0  0  0  0  0  0
  -25.2160  -31.6170   26.3600 C   0  0  0  0  0  1  0  0  0  0  0  0
  -26.9060  -30.4480   24.9410 C   0  0  0  0  0  1  0  0  0  0  0  0
  -27.4740  -32.6280   25.9780 C   0  0  0  0  0  1  0  0  0  0  0  0
  1 49  1  0
  2  6  1  0
  2  3  2  0
  3  4  1  0
  3  1  1  0
  5  4  2  0
  6  5  1  0
  8  7  1  0
  8  6  1  0
  8  9  1  0
  9 18  1  0
 10 17  2  0
 11 16  1  0
 12 13  1  0
 12 11  1  0
 14 13  1  0
 14 23  1  0
 14 15  1  0
 16 10  1  0
 16 15  1  0
 18 10  1  0
 19 18  1  0
 20 21  2  0
 21 22  1  0
 21 40  1  0
 22 25  1  0
 23 20  1  0
 23 24  1  0
 24 22  2  0
 25 26  1  0
 26 27  2  0
 28 31  1  0
 28 27  1  0
 29 28  2  0
 30 29  1  0
 30 25  2  0
 31 32  1  0
 32 33  1  0
 33 34  2  0
 35 34  1  0
 35 39  1  0
 36 35  2  0
 37 32  2  0
 37 36  1  0
 38 37  1  0
 40 41  1  0
 41 44  1  0
 41 43  1  0
 42 40  2  0
 45 20  1  0
 46 45  1  0
 47 45  1  0
 49 48  1  0
 49 50  1  6
 51 49  1  0
 51 52  1  0
 53 54  1  0
 53 52  1  0
 55 66  2  0
 56 54  1  0
 56 61  1  0
 57 65  1  0
 57 67  1  0
 58 64  1  0
 58 60  1  0
 59 65  1  0
 60 59  1  0
 61 60  2  0
 62 63  1  0
 62 56  2  0
 63 58  2  0
 64 57  1  0
 65 55  1  0
 67 69  2  0
 68 67  1  0
 70 68  1  0
 71 80  2  0
 71 76  1  0
 72 68  1  0
 72 76  1  0
 73 72  1  0
 74 75  1  0
 74 73  1  0
 75 71  1  0
 76 77  2  0
 77 78  1  0
 79 78  2  0
 80 79  1  0
 81 55  1  0
 81 82  1  0
 81 91  1  0
 82 85  1  0
 83 87  1  0
 83 82  1  0
 84 83  2  0
 87 86  1  0
 89 87  1  0
 89 90  1  0
 89 88  1  0
 91 94  1  1
 91 92  1  0
 93 91  1  0
M  ISO  4  10 100  18 100  53 101  54 101
M  END
>  <TORSDO>  (23) 
F 23

>  <SCORE>  (23) 
-11.425

>  <name>  (23) 
22

>  <ligand_id>  (23) 
22

>  <original_smiles>  (23) 
[H]c1c([H])c([H])c2c(c1[H])C([H])([H])C([H])([H])C([H])([H])C2([H])N([H])C(=O)C1([H])N(C(=O)C([H])(N([H])C(=O)C([H])(N([H])C([H])([H])[H])C([H])([H])[H])C(C([H])([H])[H])(C([H])([H])[H])C([H])([H])[H])C([H])([H])c2c([H])c(OC([H])([H])C([H])([H])C([H])([H])[N+]([H])(C([H])([H])[H])C([H])([H])c3nnn(C([H])(C([H])([H])[H])C([H])([H])N([H])C(=O)N4C([H])([H])C([H])([H])C([H])([H])C([H])(n5nc(-c6c([H])c([H])c(Oc7c([H])c([H])c(F)c([H])c7F)c([H])c6[H])c(C(=O)N([H])[H])c5N([H])[H])C4([H])[H])c3[H])c([H])c([H])c2C1([H])[H]

>  <smiles>  (23) 
[H]c1c([H])c([H])c2c(c1[H])C([H])([H])C([H])([H])C([H])([H])C2([H])N([H])C(=O)C1([H])N(C(=O)C([H])(N([H])C(=O)C([H])(N([H])C([H])([H])[H])C([H])([H])[H])C(C([H])([H])[H])(C([H])([H])[H])C([H])([H])[H])C([H])([H])c2c([H])c(OC([H])([H])C([H])([H])C([H])([H])[N+]([H])(C([H])([H])[H])C([H])([H])c3nnn(C([H])(C([H])([H])[H])C([H])([H])N([H])C(=O)N4C([H])([H])C([H])([H])C([H])([H])C([H])(n5nc(-c6c([H])c([H])c(Oc7c([H])c([H])c(F)c([H])c7F)c([H])c6[H])c(C(=O)N([H])[H])c5N([H])[H])C4([H])[H])c3[H])c([H])c([H])c2C1([H])[H]

$$$$
23:0:0
     RDKit          3D

 92100  0  0  1  0  0  0  0  0999 V2000
  -30.5850  -24.5360   20.4160 C   0  0  0  0  0  3  0  0  0  0  0  0
  -31.4980  -23.4730   20.3270 C   0  0  0  0  0  0  0  0  0  0  0  0
  -29.2230  -24.2010   20.4190 C   0  0  0  0  0  0  0  0  0  0  0  0
  -29.7790  -21.9590   20.2460 C   0  0  0  0  0  0  0  0  0  0  0  0
  -32.9930  -23.7120   20.3120 C   0  0  0  0  0  1  0  0  0  0  0  0
  -28.1310  -20.3390   19.3750 C   0  0  0  0  0  1  0  0  0  0  0  0
  -31.0860  -22.1890   20.2500 N   0  0  0  0  0  0  0  0  0  0  0  0
  -28.8430  -22.9010   20.3250 N   0  0  0  0  0  0  0  0  0  0  0  0
  -29.3530  -20.6230   20.1310 N   0  0  0  0  0  0  0  0  0  0  0  0
  -28.0950  -25.2330   20.5950 C   0  0  0  0  0  2  0  0  0  0  0  0
  -28.3430  -26.6210   20.2270 O   0  0  0  0  0  0  0  0  0  0  0  0
  -24.5450  -31.9070   23.2410 C   0  0  0  0  0  0  0  0  0  0  0  0
  -27.2000  -27.4150   20.1920 C   0  0  0  0  0  0  0  0  0  0  0  0
  -23.3480  -30.4940   21.6060 C   0  0  0  0  0  3  0  0  0  0  0  0
  -24.8100  -28.9570   20.1910 C   0  0  0  0  0  0  0  0  0  0  0  0
  -25.8800  -30.8430   21.4210 C   0  0  0  0  0  2  0  0  0  0  0  0
  -25.9700  -29.4670   20.7850 C   0  0  0  0  0  0  0  0  0  0  0  0
  -27.1680  -28.7050   20.7840 C   0  0  0  0  0  3  0  0  0  0  0  0
  -26.0210  -26.9500   19.5620 C   0  0  0  0  0  3  0  0  0  0  0  0
  -24.8310  -27.6980   19.5750 C   0  0  0  0  0  3  0  0  0  0  0  0
  -23.5640  -29.8140   20.2320 C   0  0  0  0  0  2  0  0  0  0  0  0
  -24.6100  -31.0970   22.1460 N   0  0  0  0  0  0  0  0  0  0  0  0
  -23.4600  -32.1800   23.7740 O   0  0  0  0  0  0  0  0  0  0  0  0
  -22.6950  -29.4740   22.5690 C   0  0  0  0  0  0  0  0  0  0  0  0
  -21.3720  -29.2820   22.4320 N   0  0  0  0  0  0  0  0  0  0  0  0
  -23.3760  -28.8610   23.3950 O   0  0  0  0  0  0  0  0  0  0  0  0
  -20.8830  -29.8270   21.7370 H   0  0  0  0  0  0  0  0  0  0  0  0
  -18.0040  -28.0680   22.9180 C   0  0  0  0  0  0  0  0  0  0  0  0
  -20.5570  -28.3460   23.2070 C   0  0  0  0  0  3  0  0  0  0  0  0
  -20.6740  -26.9100   22.6450 C   0  0  0  0  0  2  0  0  0  0  0  0
  -19.5810  -26.5710   21.6260 C   0  0  0  0  0  2  0  0  0  0  0  0
  -18.1930  -26.7140   22.2580 C   0  0  0  0  0  2  0  0  0  0  0  0
  -19.1130  -28.8420   23.3500 C   0  0  0  0  0  0  0  0  0  0  0  0
  -18.8820  -30.1090   23.9270 C   0  0  0  0  0  3  0  0  0  0  0  0
  -17.5730  -30.6030   24.0770 C   0  0  0  0  0  3  0  0  0  0  0  0
  -16.4760  -29.8270   23.6620 C   0  0  0  0  0  3  0  0  0  0  0  0
  -16.6930  -28.5630   23.0870 C   0  0  0  0  0  3  0  0  0  0  0  0
  -25.8250  -32.5450   23.8620 C   0  0  0  0  0  3  0  0  0  0  0  0
  -26.3510  -31.7750   25.1340 C   0  0  1  0  0  0  0  0  0  0  0  0
  -25.2630  -31.5280   26.2040 C   0  0  0  0  0  1  0  0  0  0  0  0
  -26.9450  -30.4020   24.7380 C   0  0  0  0  0  1  0  0  0  0  0  0
  -27.4960  -32.5790   25.7930 C   0  0  0  0  0  1  0  0  0  0  0  0
  -25.5060  -33.9410   24.1910 N   0  0  0  0  0  0  0  0  0  0  0  0
  -25.8230  -34.9940   23.4260 C   0  0  0  0  0  0  0  0  0  0  0  0
  -26.4830  -34.8950   22.3890 O   0  0  0  0  0  0  0  0  0  0  0  0
  -24.9180  -34.0920   24.9970 H   0  0  0  0  0  0  0  0  0  0  0  0
  -24.0720  -36.7690   23.0870 C   0  0  0  0  0  1  0  0  0  0  0  0
  -25.3260  -36.3800   23.8850 C   0  0  0  0  0  3  0  0  0  0  0  0
  -27.4610  -37.2880   24.6890 C   0  0  0  0  0  1  0  0  0  0  0  0
  -26.3480  -37.4420   23.7570 N   0  0  0  0  0  0  0  0  0  0  0  0
  -25.9340  -38.3580   23.9040 H   0  0  0  0  0  0  0  0  0  0  0  0
  -30.2690  -19.4860   20.3940 C   0  0  0  0  0  2  0  0  0  0  0  0
  -29.6010  -18.0720   20.5250 C   0  0  0  0  0  2  0  0  0  0  0  0
  -30.5510  -16.9620   21.0640 C   0  0  0  0  0  2  0  0  0  0  0  0
  -30.6730  -14.5160   20.4570 C   0  0  0  0  0  0  0  0  0  0  0  0
  -30.3540  -12.3400   19.3400 C   0  0  0  0  0  2  0  0  0  0  0  0
  -29.4220  -12.5210   18.1270 C   0  0  0  0  0  2  0  0  0  0  0  0
  -27.9500  -12.3770   18.5550 C   0  0  0  0  0  2  0  0  0  0  0  0
  -27.6000  -13.2360   19.8000 C   0  0  0  0  0  3  0  0  0  0  0  0
  -28.6550  -13.0610   20.9180 C   0  0  0  0  0  2  0  0  0  0  0  0
  -29.9800  -13.3490   20.3450 N   0  0  0  0  0  0  0  0  0  0  0  0
  -31.8080  -14.6540   19.9900 O   0  0  0  0  0  0  0  0  0  0  0  0
  -30.0180  -15.5790   20.9740 N   0  0  0  0  0  0  0  0  0  0  0  0
  -29.0850  -15.4100   21.3200 H   0  0  0  0  0  0  0  0  0  0  0  0
  -25.1970  -13.8350   20.5000 C   0  0  0  0  0  0  0  0  0  0  0  0
  -24.1300  -13.0620   20.8730 C   0  0  0  0  0  0  0  0  0  0  0  0
  -24.5930  -11.7110   20.8470 C   0  0  0  0  0  0  0  0  0  0  0  0
  -26.2450  -12.9570   20.2790 N   0  0  0  0  0  0  0  0  0  0  0  0
  -25.8850  -11.6740   20.5440 N   0  0  0  0  0  0  0  0  0  0  0  0
  -23.8700  -10.4470   21.0400 C   0  0  0  0  0  0  0  0  0  0  0  0
  -24.3010   -9.4830   21.9790 C   0  0  0  0  0  3  0  0  0  0  0  0
  -23.5760   -8.2860   22.1600 C   0  0  0  0  0  3  0  0  0  0  0  0
  -22.4050   -8.0440   21.4030 C   0  0  0  0  0  0  0  0  0  0  0  0
  -21.9930   -8.9960   20.4530 C   0  0  0  0  0  3  0  0  0  0  0  0
  -22.7190  -10.1840   20.2700 C   0  0  0  0  0  3  0  0  0  0  0  0
  -21.6550   -6.8970   21.4910 O   0  0  0  0  0  0  0  0  0  0  0  0
  -21.6040   -6.1560   22.6460 C   0  0  0  0  0  0  0  0  0  0  0  0
  -21.1670   -6.7110   23.8680 C   0  0  0  0  0  3  0  0  0  0  0  0
  -21.0630   -5.8970   25.0130 C   0  0  0  0  0  3  0  0  0  0  0  0
  -21.3880   -4.5300   24.9380 C   0  0  0  0  0  0  0  0  0  0  0  0
  -21.8190   -3.9750   23.7200 C   0  0  0  0  0  3  0  0  0  0  0  0
  -21.9220   -4.7860   22.5770 C   0  0  0  0  0  0  0  0  0  0  0  0
  -22.3190   -4.2410   21.4010 F   0  0  0  0  0  0  0  0  0  0  0  0
  -21.2810   -3.7460   26.0360 F   0  0  0  0  0  0  0  0  0  0  0  0
  -22.7300  -13.5380   21.1380 C   0  0  0  0  0  0  0  0  0  0  0  0
  -21.9980  -12.8450   22.0040 N   0  0  0  0  0  0  0  0  0  0  0  0
  -22.2920  -14.5610   20.6120 O   0  0  0  0  0  0  0  0  0  0  0  0
  -22.3640  -12.0190   22.4540 H   0  0  0  0  0  0  0  0  0  0  0  0
  -21.0590  -13.1470   22.2210 H   0  0  0  0  0  0  0  0  0  0  0  0
  -25.3620  -15.2040   20.3130 N   0  0  0  0  0  0  0  0  0  0  0  0
  -24.5980  -15.8630   20.4170 H   0  0  0  0  0  0  0  0  0  0  0  0
  -26.2180  -15.6340   19.9840 H   0  0  0  0  0  0  0  0  0  0  0  0
  1  3  1  0
  2  1  2  0
  3 10  1  0
  4  7  2  0
  4  8  1  0
  5  2  1  0
  6  9  1  0
  7  2  1  0
  8  3  2  0
  9  4  1  0
  9 52  1  0
 11 10  1  0
 12 23  2  0
 13 11  1  0
 13 18  1  0
 14 22  1  0
 14 24  1  0
 15 21  1  0
 15 17  1  0
 16 22  1  0
 17 16  1  0
 18 17  2  0
 19 20  1  0
 19 13  2  0
 20 15  2  0
 21 14  1  0
 22 12  1  0
 24 26  2  0
 25 24  1  0
 27 25  1  0
 28 37  2  0
 28 33  1  0
 29 25  1  0
 29 33  1  0
 30 29  1  0
 31 32  1  0
 31 30  1  0
 32 28  1  0
 33 34  2  0
 34 35  1  0
 36 35  2  0
 37 36  1  0
 38 12  1  0
 38 43  1  0
 38 39  1  0
 39 42  1  1
 39 40  1  0
 41 39  1  0
 43 46  1  0
 44 48  1  0
 44 43  1  0
 45 44  2  0
 48 47  1  0
 50 48  1  0
 50 51  1  0
 50 49  1  0
 52 53  1  0
 53 54  1  0
 55 63  1  0
 56 61  1  0
 57 58  1  0
 57 56  1  0
 59 58  1  0
 59 68  1  0
 59 60  1  0
 61 55  1  0
 61 60  1  0
 62 55  2  0
 63 54  1  0
 63 64  1  0
 65 66  2  0
 66 85  1  0
 67 66  1  0
 67 70  1  0
 68 65  1  0
 68 69  1  0
 69 67  2  0
 70 71  1  0
 71 72  2  0
 73 76  1  0
 73 72  1  0
 74 73  2  0
 75 74  1  0
 75 70  2  0
 76 77  1  0
 77 78  1  0
 78 79  2  0
 80 79  1  0
 80 84  1  0
 81 80  2  0
 82 77  2  0
 82 81  1  0
 83 82  1  0
 85 86  1  0
 86 89  1  0
 86 88  1  0
 87 85  2  0
 90 91  1  0
 90 65  1  0
 92 90  1  0
M  ISO  4  10 101  11 101  55 100  63 100
M  END
>  <TORSDO>  (24) 
F 20

>  <SCORE>  (24) 
-13.679

>  <name>  (24) 
23

>  <ligand_id>  (24) 
23

>  <original_smiles>  (24) 
[H]c1c(C([H])([H])[H])nc(N(C([H])([H])[H])C([H])([H])C([H])([H])C([H])([H])N([H])C(=O)N2C([H])([H])C([H])([H])C([H])([H])C([H])(n3nc(-c4c([H])c([H])c(Oc5c([H])c([H])c(F)c([H])c5F)c([H])c4[H])c(C(=O)N([H])[H])c3N([H])[H])C2([H])[H])nc1C([H])([H])Oc1c([H])c([H])c2c(c1[H])C([H])([H])N(C(=O)C([H])(N([H])C(=O)C([H])(N([H])C([H])([H])[H])C([H])([H])[H])C(C([H])([H])[H])(C([H])([H])[H])C([H])([H])[H])C([H])(C(=O)N([H])C1([H])c3c([H])c([H])c([H])c([H])c3C([H])([H])C([H])([H])C1([H])[H])C2([H])[H]

>  <smiles>  (24) 
[H]c1c(C([H])([H])[H])nc(N(C([H])([H])[H])C([H])([H])C([H])([H])C([H])([H])N([H])C(=O)N2C([H])([H])C([H])([H])C([H])([H])C([H])(n3nc(-c4c([H])c([H])c(Oc5c([H])c([H])c(F)c([H])c5F)c([H])c4[H])c(C(=O)N([H])[H])c3N([H])[H])C2([H])[H])nc1C([H])([H])Oc1c([H])c([H])c2c(c1[H])C([H])([H])N(C(=O)C([H])(N([H])C(=O)C([H])(N([H])C([H])([H])[H])C([H])([H])[H])C(C([H])([H])[H])(C([H])([H])[H])C([H])([H])[H])C([H])(C(=O)N([H])C1([H])c3c([H])c([H])c([H])c([H])c3C([H])([H])C([H])([H])C1([H])[H])C2([H])[H]

$$$$
24:0:0
     RDKit          3D

 85 93  0  0  1  0  0  0  0  0999 V2000
  -28.9710  -22.7700   20.5750 C   0  0  0  0  0  3  0  0  0  0  0  0
  -29.3630  -19.8530   20.9580 C   0  0  0  0  0  3  0  0  0  0  0  0
  -28.9780  -20.4680   18.9990 C   0  0  0  0  0  3  0  0  0  0  0  0
  -29.4790  -18.5680   20.2370 C   0  0  0  0  0  0  0  0  0  0  0  0
  -29.1870  -19.1050   18.9570 N   0  0  0  0  0  0  0  0  0  0  0  0
  -29.0360  -21.1170   20.1940 N   0  0  0  0  0  0  0  0  0  0  0  0
  -29.5440  -16.8430   20.6510 C   0  0  0  0  0  2  0  0  0  0  0  0
  -30.3880  -15.3510   20.2040 C   0  0  0  0  0  0  0  0  0  0  0  0
  -30.4020  -12.8970   19.2980 C   0  0  0  0  0  2  0  0  0  0  0  0
  -29.4620  -12.7180   18.0760 C   0  0  0  0  0  2  0  0  0  0  0  0
  -28.0170  -12.4390   18.5260 C   0  0  0  0  0  2  0  0  0  0  0  0
  -27.5830  -13.3810   19.6750 C   0  0  0  0  0  3  0  0  0  0  0  0
  -28.6460  -13.4960   20.7890 C   0  0  0  0  0  2  0  0  0  0  0  0
  -29.8770  -14.0150   20.1690 N   0  0  0  0  0  0  0  0  0  0  0  0
  -31.5810  -15.3830   19.8580 O   0  0  0  0  0  0  0  0  0  0  0  0
  -25.2180  -13.9320   20.4570 C   0  0  0  0  0  0  0  0  0  0  0  0
  -24.1630  -13.1510   20.8370 C   0  0  0  0  0  0  0  0  0  0  0  0
  -24.6330  -11.8020   20.7980 C   0  0  0  0  0  0  0  0  0  0  0  0
  -26.2610  -13.0590   20.1970 N   0  0  0  0  0  0  0  0  0  0  0  0
  -25.9210  -11.7710   20.4710 N   0  0  0  0  0  0  0  0  0  0  0  0
  -23.9100  -10.5370   20.9950 C   0  0  0  0  0  0  0  0  0  0  0  0
  -24.3530   -9.5680   21.9210 C   0  0  0  0  0  3  0  0  0  0  0  0
  -23.6280   -8.3710   22.1060 C   0  0  0  0  0  3  0  0  0  0  0  0
  -22.4450   -8.1360   21.3660 C   0  0  0  0  0  0  0  0  0  0  0  0
  -22.0210   -9.0940   20.4290 C   0  0  0  0  0  3  0  0  0  0  0  0
  -22.7470  -10.2810   20.2410 C   0  0  0  0  0  3  0  0  0  0  0  0
  -21.6910   -6.9900   21.4610 O   0  0  0  0  0  0  0  0  0  0  0  0
  -21.6570   -6.2440   22.6120 C   0  0  0  0  0  0  0  0  0  0  0  0
  -21.2480   -6.7960   23.8450 C   0  0  0  0  0  3  0  0  0  0  0  0
  -21.1610   -5.9760   24.9880 C   0  0  0  0  0  3  0  0  0  0  0  0
  -21.4730   -4.6070   24.8990 C   0  0  0  0  0  0  0  0  0  0  0  0
  -21.8740   -4.0540   23.6700 C   0  0  0  0  0  3  0  0  0  0  0  0
  -21.9620   -4.8710   22.5290 C   0  0  0  0  0  0  0  0  0  0  0  0
  -22.3290   -4.3290   21.3430 F   0  0  0  0  0  0  0  0  0  0  0  0
  -21.3820   -3.8170   25.9950 F   0  0  0  0  0  0  0  0  0  0  0  0
  -22.7670  -13.6250   21.1200 C   0  0  0  0  0  0  0  0  0  0  0  0
  -22.0510  -12.9300   21.9960 N   0  0  0  0  0  0  0  0  0  0  0  0
  -22.3220  -14.6470   20.6000 O   0  0  0  0  0  0  0  0  0  0  0  0
  -22.4240  -12.1040   22.4390 H   0  0  0  0  0  0  0  0  0  0  0  0
  -21.1150  -13.2290   22.2280 H   0  0  0  0  0  0  0  0  0  0  0  0
  -25.3750  -15.3030   20.2800 N   0  0  0  0  0  0  0  0  0  0  0  0
  -24.6040  -15.9520   20.4020 H   0  0  0  0  0  0  0  0  0  0  0  0
  -26.2120  -15.7460   19.9240 H   0  0  0  0  0  0  0  0  0  0  0  0
  -28.0510  -24.2360   20.0320 C   0  0  0  0  0  3  0  0  0  0  0  0
  -28.2000  -25.8670   20.3180 O   0  0  0  0  0  0  0  0  0  0  0  0
  -24.6270  -31.8650   23.2180 C   0  0  0  0  0  0  0  0  0  0  0  0
  -27.1850  -26.9640   20.2250 C   0  0  0  0  0  0  0  0  0  0  0  0
  -23.4340  -30.4640   21.5830 C   0  0  0  0  0  3  0  0  0  0  0  0
  -24.8840  -28.8500   20.1670 C   0  0  0  0  0  0  0  0  0  0  0  0
  -26.0010  -30.6690   21.4410 C   0  0  0  0  0  2  0  0  0  0  0  0
  -26.0700  -29.2560   20.7890 C   0  0  0  0  0  0  0  0  0  0  0  0
  -27.2130  -28.3340   20.7930 C   0  0  0  0  0  3  0  0  0  0  0  0
  -25.9680  -26.7120   19.5510 C   0  0  0  0  0  3  0  0  0  0  0  0
  -24.8590  -27.5990   19.5270 C   0  0  0  0  0  3  0  0  0  0  0  0
  -23.6650  -29.7720   20.2110 C   0  0  0  0  0  2  0  0  0  0  0  0
  -24.7090  -31.0270   22.1340 N   0  0  0  0  0  0  0  0  0  0  0  0
  -23.5370  -32.1580   23.7380 O   0  0  0  0  0  0  0  0  0  0  0  0
  -22.7370  -29.4740   22.5530 C   0  0  0  0  0  0  0  0  0  0  0  0
  -21.4060  -29.3130   22.4300 N   0  0  0  0  0  0  0  0  0  0  0  0
  -23.4000  -28.8510   23.3860 O   0  0  0  0  0  0  0  0  0  0  0  0
  -20.9240  -29.8660   21.7350 H   0  0  0  0  0  0  0  0  0  0  0  0
  -18.0220  -28.1040   22.9360 C   0  0  0  0  0  0  0  0  0  0  0  0
  -20.5810  -28.3790   23.2050 C   0  0  0  0  0  3  0  0  0  0  0  0
  -20.6880  -26.9430   22.6390 C   0  0  0  0  0  2  0  0  0  0  0  0
  -19.5900  -26.6100   21.6240 C   0  0  0  0  0  2  0  0  0  0  0  0
  -18.2050  -26.7530   22.2640 C   0  0  0  0  0  2  0  0  0  0  0  0
  -19.1370  -28.8740   23.3620 C   0  0  0  0  0  0  0  0  0  0  0  0
  -18.9090  -30.1350   23.9540 C   0  0  0  0  0  3  0  0  0  0  0  0
  -17.6010  -30.6280   24.1200 C   0  0  0  0  0  3  0  0  0  0  0  0
  -16.5020  -29.8550   23.7060 C   0  0  0  0  0  3  0  0  0  0  0  0
  -16.7130  -28.5960   23.1200 C   0  0  0  0  0  3  0  0  0  0  0  0
  -25.8970  -32.5100   23.8520 C   0  0  0  0  0  3  0  0  0  0  0  0
  -26.4000  -31.7510   25.1420 C   0  0  1  0  0  0  0  0  0  0  0  0
  -25.2970  -31.5290   26.2040 C   0  0  0  0  0  1  0  0  0  0  0  0
  -26.9810  -30.3660   24.7780 C   0  0  0  0  0  1  0  0  0  0  0  0
  -27.5480  -32.5480   25.8050 C   0  0  0  0  0  1  0  0  0  0  0  0
  -25.5800  -33.9110   24.1820 N   0  0  0  0  0  0  0  0  0  0  0  0
  -25.9040  -34.9700   23.4280 C   0  0  0  0  0  0  0  0  0  0  0  0
  -26.5640  -34.8720   22.3910 O   0  0  0  0  0  0  0  0  0  0  0  0
  -24.9910  -34.0610   24.9880 H   0  0  0  0  0  0  0  0  0  0  0  0
  -24.1630  -36.7650   23.1170 C   0  0  0  0  0  1  0  0  0  0  0  0
  -25.4240  -36.3600   23.8990 C   0  0  0  0  0  3  0  0  0  0  0  0
  -27.5720  -37.2560   24.6840 C   0  0  0  0  0  1  0  0  0  0  0  0
  -26.4500  -37.4170   23.7630 N   0  0  0  0  0  0  0  0  0  0  0  0
  -26.0440  -38.3360   23.9160 H   0  0  0  0  0  0  0  0  0  0  0  0
  3  6  1  0
  4  7  1  0
  4  2  2  0
  5  3  2  0
  5  4  1  0
  6  1  1  0
  6  2  1  0
  8  7  1  0
  9 14  1  0
 10 11  1  0
 10  9  1  0
 12 11  1  0
 12 19  1  0
 12 13  1  0
 14  8  1  0
 14 13  1  0
 15  8  2  0
 16 17  2  0
 17 36  1  0
 18 17  1  0
 18 21  1  0
 19 16  1  0
 19 20  1  0
 20 18  2  0
 21 22  1  0
 22 23  2  0
 24 27  1  0
 24 23  1  0
 25 24  2  0
 26 25  1  0
 26 21  2  0
 27 28  1  0
 28 29  1  0
 29 30  2  0
 31 30  1  0
 31 35  1  0
 32 31  2  0
 33 28  2  0
 33 32  1  0
 34 33  1  0
 36 37  1  0
 37 40  1  0
 37 39  1  0
 38 36  2  0
 41 42  1  0
 41 16  1  0
 43 41  1  0
 44 45  1  0
 44  1  2  0
 46 57  2  0
 47 45  1  0
 47 52  1  0
 48 56  1  0
 48 58  1  0
 49 55  1  0
 49 51  1  0
 50 56  1  0
 51 52  2  0
 51 50  1  0
 53 47  2  0
 54 53  1  0
 54 49  2  0
 55 48  1  0
 56 46  1  0
 58 60  2  0
 59 58  1  0
 61 59  1  0
 62 71  2  0
 62 67  1  0
 63 59  1  0
 63 67  1  0
 64 63  1  0
 65 66  1  0
 65 64  1  0
 66 62  1  0
 67 68  2  0
 68 69  1  0
 70 69  2  0
 71 70  1  0
 72 46  1  0
 72 77  1  0
 72 73  1  0
 73 76  1  1
 73 74  1  0
 75 73  1  0
 77 80  1  0
 78 82  1  0
 78 77  1  0
 79 78  2  0
 82 81  1  0
 84 82  1  0
 84 85  1  0
 84 83  1  0
M  ISO  4   7 100   8 100  44 101  45 101
M  END
>  <TORSDO>  (25) 
F 19

>  <SCORE>  (25) 
-16.550

>  <name>  (25) 
24

>  <ligand_id>  (25) 
24

>  <original_smiles>  (25) 
[H]c1c([H])c([H])c2c(c1[H])C([H])([H])C([H])([H])C([H])([H])C2([H])N([H])C(=O)C1([H])N(C(=O)C([H])(N([H])C(=O)C([H])(N([H])C([H])([H])[H])C([H])([H])[H])C(C([H])([H])[H])(C([H])([H])[H])C([H])([H])[H])C([H])([H])c2c([H])c(OC([H])([H])C([H])([H])n3c([H])nc(C([H])([H])C(=O)N4C([H])([H])C([H])([H])C([H])([H])C([H])(n5nc(-c6c([H])c([H])c(Oc7c([H])c([H])c(F)c([H])c7F)c([H])c6[H])c(C(=O)N([H])[H])c5N([H])[H])C4([H])[H])c3[H])c([H])c([H])c2C1([H])[H]

>  <smiles>  (25) 
[H]c1c([H])c([H])c2c(c1[H])C([H])([H])C([H])([H])C([H])([H])C2([H])N([H])C(=O)C1([H])N(C(=O)C([H])(N([H])C(=O)C([H])(N([H])C([H])([H])[H])C([H])([H])[H])C(C([H])([H])[H])(C([H])([H])[H])C([H])([H])[H])C([H])([H])c2c([H])c(OC([H])([H])C([H])([H])n3c([H])nc(C([H])([H])C(=O)N4C([H])([H])C([H])([H])C([H])([H])C([H])(n5nc(-c6c([H])c([H])c(Oc7c([H])c([H])c(F)c([H])c7F)c([H])c6[H])c(C(=O)N([H])[H])c5N([H])[H])C4([H])[H])c3[H])c([H])c([H])c2C1([H])[H]

$$$$
25:0:0
     RDKit          3D

 91 99  0  0  1  0  0  0  0  0999 V2000
  -28.6710  -23.3030   20.1410 C   0  0  0  0  0  0  0  0  0  0  0  0
  -28.5190  -22.5130   21.3210 C   0  0  0  0  0  0  0  0  0  0  0  0
  -29.2750  -22.4850   19.1200 C   0  0  0  0  0  0  0  0  0  0  0  0
  -29.4480  -20.4880   20.4240 C   0  0  0  0  0  0  0  0  0  0  0  0
  -27.8340  -23.0920   22.5430 C   0  0  0  0  0  1  0  0  0  0  0  0
  -28.8920  -21.1860   21.4360 N   0  0  0  0  0  0  0  0  0  0  0  0
  -29.6770  -21.1620   19.2810 N   0  0  0  0  0  0  0  0  0  0  0  0
  -28.2430  -22.5240   16.8110 C   0  0  0  0  0  1  0  0  0  0  0  0
  -29.4110  -22.9960   17.6940 C   0  0  0  0  0  2  0  0  0  0  0  0
  -27.8790  -24.7260   19.8810 C   0  0  0  0  0  2  0  0  0  0  0  0
  -28.2470  -26.1860   20.2250 O   0  0  0  0  0  0  0  0  0  0  0  0
  -24.6000  -31.8610   23.1760 C   0  0  0  0  0  0  0  0  0  0  0  0
  -27.2090  -27.1850   20.1330 C   0  0  0  0  0  0  0  0  0  0  0  0
  -23.4120  -30.4500   21.5470 C   0  0  0  0  0  3  0  0  0  0  0  0
  -24.8680  -28.9050   20.1130 C   0  0  0  0  0  0  0  0  0  0  0  0
  -25.9620  -30.7470   21.3710 C   0  0  0  0  0  2  0  0  0  0  0  0
  -26.0460  -29.3600   20.7190 C   0  0  0  0  0  0  0  0  0  0  0  0
  -27.2200  -28.5130   20.7150 C   0  0  0  0  0  3  0  0  0  0  0  0
  -26.0030  -26.8480   19.4690 C   0  0  0  0  0  3  0  0  0  0  0  0
  -24.8570  -27.6630   19.4740 C   0  0  0  0  0  3  0  0  0  0  0  0
  -23.6310  -29.7830   20.1670 C   0  0  0  0  0  2  0  0  0  0  0  0
  -24.6780  -31.0390   22.0870 N   0  0  0  0  0  0  0  0  0  0  0  0
  -23.5130  -32.1330   23.7070 O   0  0  0  0  0  0  0  0  0  0  0  0
  -22.7520  -29.4310   22.5110 C   0  0  0  0  0  0  0  0  0  0  0  0
  -21.4240  -29.2500   22.3940 N   0  0  0  0  0  0  0  0  0  0  0  0
  -23.4360  -28.8070   23.3260 O   0  0  0  0  0  0  0  0  0  0  0  0
  -20.9290  -29.8020   21.7090 H   0  0  0  0  0  0  0  0  0  0  0  0
  -18.0570  -28.0280   22.9320 C   0  0  0  0  0  0  0  0  0  0  0  0
  -20.6170  -28.3070   23.1740 C   0  0  0  0  0  3  0  0  0  0  0  0
  -20.7220  -26.8750   22.6010 C   0  0  0  0  0  2  0  0  0  0  0  0
  -19.6120  -26.5450   21.5990 C   0  0  0  0  0  2  0  0  0  0  0  0
  -18.2350  -26.6800   22.2540 C   0  0  0  0  0  2  0  0  0  0  0  0
  -19.1740  -28.7990   23.3500 C   0  0  0  0  0  0  0  0  0  0  0  0
  -18.9510  -30.0600   23.9450 C   0  0  0  0  0  3  0  0  0  0  0  0
  -17.6430  -30.5500   24.1250 C   0  0  0  0  0  3  0  0  0  0  0  0
  -16.5410  -29.7770   23.7230 C   0  0  0  0  0  3  0  0  0  0  0  0
  -16.7490  -28.5180   23.1320 C   0  0  0  0  0  3  0  0  0  0  0  0
  -25.8740  -32.5140   23.7930 C   0  0  0  0  0  3  0  0  0  0  0  0
  -26.4070  -31.7480   25.0660 C   0  0  1  0  0  0  0  0  0  0  0  0
  -25.3240  -31.4860   26.1400 C   0  0  0  0  0  1  0  0  0  0  0  0
  -27.0130  -30.3800   24.6740 C   0  0  0  0  0  1  0  0  0  0  0  0
  -27.5470  -32.5620   25.7230 C   0  0  0  0  0  1  0  0  0  0  0  0
  -25.5400  -33.9060   24.1320 N   0  0  0  0  0  0  0  0  0  0  0  0
  -25.8550  -34.9720   23.3840 C   0  0  0  0  0  0  0  0  0  0  0  0
  -26.5250  -34.8880   22.3510 O   0  0  0  0  0  0  0  0  0  0  0  0
  -24.9410  -34.0400   24.9340 H   0  0  0  0  0  0  0  0  0  0  0  0
  -24.1090  -36.7550   23.0450 C   0  0  0  0  0  1  0  0  0  0  0  0
  -25.3510  -36.3510   23.8550 C   0  0  0  0  0  3  0  0  0  0  0  0
  -27.4730  -37.2520   24.7040 C   0  0  0  0  0  1  0  0  0  0  0  0
  -26.3740  -37.4170   23.7570 N   0  0  0  0  0  0  0  0  0  0  0  0
  -25.9570  -38.3310   23.9130 H   0  0  0  0  0  0  0  0  0  0  0  0
  -30.0330  -18.9850   20.7570 C   0  0  0  0  0  3  0  0  0  0  0  0
  -29.9590  -17.5590   19.8820 C   0  0  0  0  0  3  0  0  0  0  0  0
  -30.8310  -14.9640   20.0140 C   0  0  0  0  0  0  0  0  0  0  0  0
  -30.5930  -12.6720   18.9640 C   0  0  0  0  0  2  0  0  0  0  0  0
  -29.6000  -12.7100   17.7770 C   0  0  0  0  0  2  0  0  0  0  0  0
  -28.1510  -12.5190   18.2660 C   0  0  0  0  0  2  0  0  0  0  0  0
  -27.8300  -13.4060   19.4950 C   0  0  0  0  0  3  0  0  0  0  0  0
  -28.9300  -13.3150   20.5700 C   0  0  0  0  0  2  0  0  0  0  0  0
  -30.1960  -13.7240   19.9440 N   0  0  0  0  0  0  0  0  0  0  0  0
  -31.9420  -15.0630   19.4810 O   0  0  0  0  0  0  0  0  0  0  0  0
  -29.9820  -16.1680   21.9640 C   0  0  0  0  0  1  0  0  0  0  0  0
  -30.1620  -16.1210   20.5090 N   0  0  0  0  0  0  0  0  0  0  0  0
  -25.4970  -14.0230   20.3590 C   0  0  0  0  0  0  0  0  0  0  0  0
  -24.4350  -13.2640   20.7610 C   0  0  0  0  0  0  0  0  0  0  0  0
  -24.8660  -11.9030   20.6750 C   0  0  0  0  0  0  0  0  0  0  0  0
  -26.5070  -13.1290   20.0450 N   0  0  0  0  0  0  0  0  0  0  0  0
  -26.1380  -11.8470   20.2980 N   0  0  0  0  0  0  0  0  0  0  0  0
  -24.1210  -10.6530   20.8720 C   0  0  0  0  0  0  0  0  0  0  0  0
  -24.5330   -9.6880   21.8180 C   0  0  0  0  0  3  0  0  0  0  0  0
  -23.7890   -8.5030   22.0020 C   0  0  0  0  0  3  0  0  0  0  0  0
  -22.6180   -8.2740   21.2410 C   0  0  0  0  0  0  0  0  0  0  0  0
  -22.2250   -9.2280   20.2850 C   0  0  0  0  0  3  0  0  0  0  0  0
  -22.9680  -10.4040   20.0990 C   0  0  0  0  0  3  0  0  0  0  0  0
  -21.8490   -7.1400   21.3320 O   0  0  0  0  0  0  0  0  0  0  0  0
  -21.7170   -6.4530   22.5110 C   0  0  0  0  0  0  0  0  0  0  0  0
  -21.2190   -7.0680   23.6810 C   0  0  0  0  0  3  0  0  0  0  0  0
  -21.0350   -6.3070   24.8530 C   0  0  0  0  0  3  0  0  0  0  0  0
  -21.3360   -4.9320   24.8550 C   0  0  0  0  0  0  0  0  0  0  0  0
  -21.8270   -4.3160   23.6900 C   0  0  0  0  0  3  0  0  0  0  0  0
  -22.0130   -5.0750   22.5210 C   0  0  0  0  0  0  0  0  0  0  0  0
  -22.4660   -4.4720   21.3960 F   0  0  0  0  0  0  0  0  0  0  0  0
  -21.1520   -4.2000   25.9780 F   0  0  0  0  0  0  0  0  0  0  0  0
  -23.0640  -13.7640   21.1130 C   0  0  0  0  0  0  0  0  0  0  0  0
  -22.3690  -13.0720   22.0080 N   0  0  0  0  0  0  0  0  0  0  0  0
  -22.6210  -14.8050   20.6280 O   0  0  0  0  0  0  0  0  0  0  0  0
  -22.7410  -12.2300   22.4210 H   0  0  0  0  0  0  0  0  0  0  0  0
  -21.4510  -13.3910   22.2840 H   0  0  0  0  0  0  0  0  0  0  0  0
  -25.6850  -15.3950   20.2090 N   0  0  0  0  0  0  0  0  0  0  0  0
  -24.9440  -16.0660   20.3730 H   0  0  0  0  0  0  0  0  0  0  0  0
  -26.5390  -15.8230   19.8740 H   0  0  0  0  0  0  0  0  0  0  0  0
  1  2  2  0
  2  6  1  0
  2  5  1  0
  3  7  2  0
  3  1  1  0
  4 52  1  0
  4  6  2  0
  7  4  1  0
  8  9  1  0
  9  3  1  0
 10  1  1  0
 10 11  1  0
 12 23  2  0
 13 11  1  0
 13 18  1  0
 14 22  1  0
 14 24  1  0
 15 21  1  0
 15 17  1  0
 16 22  1  0
 17 16  1  0
 18 17  2  0
 19 20  1  0
 19 13  2  0
 20 15  2  0
 21 14  1  0
 22 12  1  0
 24 26  2  0
 25 24  1  0
 27 25  1  0
 28 37  2  0
 28 33  1  0
 29 25  1  0
 29 33  1  0
 30 29  1  0
 31 32  1  0
 31 30  1  0
 32 28  1  0
 33 34  2  0
 34 35  1  0
 36 35  2  0
 37 36  1  0
 38 12  1  0
 38 43  1  0
 38 39  1  0
 39 42  1  1
 39 40  1  0
 41 39  1  0
 43 46  1  0
 44 48  1  0
 44 43  1  0
 45 44  2  0
 48 47  1  0
 50 48  1  0
 50 51  1  0
 50 49  1  0
 53 63  1  0
 53 52  2  0
 54 63  1  0
 55 60  1  0
 56 57  1  0
 56 55  1  0
 58 57  1  0
 58 67  1  0
 58 59  1  0
 60 54  1  0
 60 59  1  0
 61 54  2  0
 63 62  1  0
 64 65  2  0
 65 84  1  0
 66 65  1  0
 66 69  1  0
 67 68  1  0
 67 64  1  0
 68 66  2  0
 69 70  1  0
 70 71  2  0
 72 75  1  0
 72 71  1  0
 73 72  2  0
 74 73  1  0
 74 69  2  0
 75 76  1  0
 76 81  2  0
 76 77  1  0
 77 78  2  0
 78 79  1  0
 79 83  1  0
 80 79  2  0
 81 80  1  0
 82 81  1  0
 84 85  1  0
 85 88  1  0
 85 87  1  0
 86 84  2  0
 89 64  1  0
 89 90  1  0
 91 89  1  0
M  ISO  4  10 101  11 101  54 100  63 100
M  END
>  <TORSDO>  (26) 
F 20

>  <SCORE>  (26) 
-12.510

>  <name>  (26) 
25

>  <ligand_id>  (26) 
25

>  <original_smiles>  (26) 
[H]c1c([H])c([H])c2c(c1[H])C([H])([H])C([H])([H])C([H])([H])C2([H])N([H])C(=O)C1([H])N(C(=O)C([H])(N([H])C(=O)C([H])(N([H])C([H])([H])[H])C([H])([H])[H])C(C([H])([H])[H])(C([H])([H])[H])C([H])([H])[H])C([H])([H])c2c([H])c(OC([H])([H])c3c(C([H])([H])[H])nc(C([H])([H])C([H])([H])N(C(=O)N4C([H])([H])C([H])([H])C([H])([H])C([H])(n5nc(-c6c([H])c([H])c(Oc7c([H])c([H])c(F)c([H])c7F)c([H])c6[H])c(C(=O)N([H])[H])c5N([H])[H])C4([H])[H])C([H])([H])[H])nc3C([H])([H])C([H])([H])[H])c([H])c([H])c2C1([H])[H]

>  <smiles>  (26) 
[H]c1c([H])c([H])c2c(c1[H])C([H])([H])C([H])([H])C([H])([H])C2([H])N([H])C(=O)C1([H])N(C(=O)C([H])(N([H])C(=O)C([H])(N([H])C([H])([H])[H])C([H])([H])[H])C(C([H])([H])[H])(C([H])([H])[H])C([H])([H])[H])C([H])([H])c2c([H])c(OC([H])([H])c3c(C([H])([H])[H])nc(C([H])([H])C([H])([H])N(C(=O)N4C([H])([H])C([H])([H])C([H])([H])C([H])(n5nc(-c6c([H])c([H])c(Oc7c([H])c([H])c(F)c([H])c7F)c([H])c6[H])c(C(=O)N([H])[H])c5N([H])[H])C4([H])[H])C([H])([H])[H])nc3C([H])([H])C([H])([H])[H])c([H])c([H])c2C1([H])[H]

$$$$
26:0:0
     RDKit          3D

 96104  0  0  1  0  0  0  0  0999 V2000
  -28.4940  -24.4130   21.9490 C   0  0  0  0  0  3  0  0  0  0  0  0
  -29.0630  -22.3530   22.0970 C   0  0  0  0  0  0  0  0  0  0  0  0
  -29.8050  -22.8940   21.0570 C   0  0  0  0  0  0  0  0  0  0  0  0
  -29.0680  -20.9780   22.6940 C   0  0  0  0  0  1  0  0  0  0  0  0
  -28.2100  -23.3140   22.6290 N   0  0  0  0  0  0  0  0  0  0  0  0
  -29.4730  -24.2730   21.0390 N   0  0  0  0  0  0  0  0  0  0  0  0
  -30.8530  -22.2280   20.1670 C   0  0  0  0  0  2  0  0  0  0  0  0
  -30.4950  -20.8840   19.6170 N   0  0  0  0  0  4  0  0  0  0  0  0
  -30.5550  -20.9650   18.6140 H   0  0  0  0  0  0  0  0  0  0  0  0
  -29.5380  -20.6640   19.8280 H   0  0  0  0  0  0  0  0  0  0  0  0
  -31.3950  -19.7600   20.0100 C   0  0  0  0  0  2  0  0  0  0  0  0
  -29.4980  -18.0660   20.3210 C   0  0  0  0  0  1  0  0  0  0  0  0
  -30.7700  -18.1100   18.1450 C   0  0  0  0  0  1  0  0  0  0  0  0
  -30.8810  -18.3110   19.6700 C   0  0  1  0  0  0  0  0  0  0  0  0
  -31.9370  -17.3120   20.2420 C   0  0  0  0  0  2  0  0  0  0  0  0
  -31.8250  -14.8630   19.8270 C   0  0  0  0  0  0  0  0  0  0  0  0
  -31.3330  -12.5780   19.0040 C   0  0  0  0  0  2  0  0  0  0  0  0
  -30.3910  -12.6250   17.7820 C   0  0  0  0  0  2  0  0  0  0  0  0
  -28.9180  -12.6130   18.2300 C   0  0  0  0  0  2  0  0  0  0  0  0
  -28.6350  -13.6510   19.3470 C   0  0  0  0  0  3  0  0  0  0  0  0
  -29.6980  -13.5980   20.4590 C   0  0  0  0  0  2  0  0  0  0  0  0
  -31.0380  -13.7410   19.8610 N   0  0  0  0  0  0  0  0  0  0  0  0
  -32.8020  -14.9310   19.0770 O   0  0  0  0  0  0  0  0  0  0  0  0
  -31.3170  -15.7550   22.0560 C   0  0  0  0  0  1  0  0  0  0  0  0
  -31.4730  -15.9340   20.5970 N   0  0  0  0  0  0  0  0  0  0  0  0
  -26.3820  -14.4840   20.2650 C   0  0  0  0  0  0  0  0  0  0  0  0
  -25.2500  -13.8200   20.6540 C   0  0  0  0  0  0  0  0  0  0  0  0
  -25.5300  -12.4280   20.4910 C   0  0  0  0  0  0  0  0  0  0  0  0
  -27.2860  -13.5020   19.8930 N   0  0  0  0  0  0  0  0  0  0  0  0
  -26.7840  -12.2560   20.0890 N   0  0  0  0  0  0  0  0  0  0  0  0
  -24.6590  -11.2540   20.6460 C   0  0  0  0  0  0  0  0  0  0  0  0
  -24.9900  -10.1970   21.5210 C   0  0  0  0  0  3  0  0  0  0  0  0
  -24.1300   -9.0860   21.6630 C   0  0  0  0  0  3  0  0  0  0  0  0
  -22.9220   -9.0280   20.9320 C   0  0  0  0  0  0  0  0  0  0  0  0
  -22.6070  -10.0720   20.0460 C   0  0  0  0  0  3  0  0  0  0  0  0
  -23.4660  -11.1730   19.8990 C   0  0  0  0  0  3  0  0  0  0  0  0
  -22.0370   -7.9790   20.9850 O   0  0  0  0  0  0  0  0  0  0  0  0
  -21.8640   -7.2440   22.1280 C   0  0  0  0  0  0  0  0  0  0  0  0
  -21.4790   -7.8420   23.3490 C   0  0  0  0  0  3  0  0  0  0  0  0
  -21.2380   -7.0390   24.4820 C   0  0  0  0  0  3  0  0  0  0  0  0
  -21.3750   -5.6400   24.3970 C   0  0  0  0  0  0  0  0  0  0  0  0
  -21.7540   -5.0420   23.1820 C   0  0  0  0  0  3  0  0  0  0  0  0
  -21.9930   -5.8420   22.0490 C   0  0  0  0  0  0  0  0  0  0  0  0
  -22.3370   -5.2590   20.8760 F   0  0  0  0  0  0  0  0  0  0  0  0
  -21.1370   -4.8690   25.4840 F   0  0  0  0  0  0  0  0  0  0  0  0
  -23.9450  -14.4440   21.0560 C   0  0  0  0  0  0  0  0  0  0  0  0
  -23.2030  -13.7970   21.9490 N   0  0  0  0  0  0  0  0  0  0  0  0
  -23.5990  -15.5380   20.6110 O   0  0  0  0  0  0  0  0  0  0  0  0
  -23.5020  -12.9120   22.3310 H   0  0  0  0  0  0  0  0  0  0  0  0
  -22.3250  -14.1970   22.2520 H   0  0  0  0  0  0  0  0  0  0  0  0
  -26.7140  -15.8320   20.1810 N   0  0  0  0  0  0  0  0  0  0  0  0
  -26.0610  -16.5710   20.4210 H   0  0  0  0  0  0  0  0  0  0  0  0
  -27.6070  -16.1770   19.8450 H   0  0  0  0  0  0  0  0  0  0  0  0
  -30.0610  -25.3640   20.2470 C   0  0  0  0  0  2  0  0  0  0  0  0
  -29.4660  -26.7960   20.5000 C   0  0  0  0  0  2  0  0  0  0  0  0
  -28.3310  -26.9550   19.6580 O   0  0  0  0  0  0  0  0  0  0  0  0
  -24.6760  -31.9800   23.4130 C   0  0  0  0  0  0  0  0  0  0  0  0
  -27.2430  -27.7580   19.9400 C   0  0  0  0  0  0  0  0  0  0  0  0
  -23.4280  -30.6930   21.7130 C   0  0  0  0  0  3  0  0  0  0  0  0
  -24.8490  -29.2610   20.1540 C   0  0  0  0  0  0  0  0  0  0  0  0
  -25.9550  -31.0600   21.4780 C   0  0  0  0  0  2  0  0  0  0  0  0
  -26.0290  -29.7290   20.7530 C   0  0  0  0  0  0  0  0  0  0  0  0
  -27.2340  -28.9800   20.6620 C   0  0  0  0  0  3  0  0  0  0  0  0
  -26.0450  -27.3110   19.3520 C   0  0  0  0  0  3  0  0  0  0  0  0
  -24.8520  -28.0430   19.4570 C   0  0  0  0  0  3  0  0  0  0  0  0
  -23.6090  -30.1170   20.2850 C   0  0  0  0  0  2  0  0  0  0  0  0
  -24.7050  -31.2550   22.2600 N   0  0  0  0  0  0  0  0  0  0  0  0
  -23.6090  -32.2090   24.0010 O   0  0  0  0  0  0  0  0  0  0  0  0
  -22.8040  -29.6020   22.6150 C   0  0  0  0  0  0  0  0  0  0  0  0
  -21.4880  -29.3800   22.4710 N   0  0  0  0  0  0  0  0  0  0  0  0
  -23.5030  -28.9600   23.4050 O   0  0  0  0  0  0  0  0  0  0  0  0
  -20.9810  -29.9530   21.8090 H   0  0  0  0  0  0  0  0  0  0  0  0
  -18.1750  -27.9720   22.8220 C   0  0  0  0  0  0  0  0  0  0  0  0
  -20.7010  -28.3770   23.1900 C   0  0  0  0  0  3  0  0  0  0  0  0
  -20.9090  -26.9680   22.5880 C   0  0  0  0  0  2  0  0  0  0  0  0
  -19.8660  -26.6030   21.5280 C   0  0  0  0  0  2  0  0  0  0  0  0
  -18.4570  -26.6510   22.1250 C   0  0  0  0  0  2  0  0  0  0  0  0
  -19.2290  -28.7890   23.3090 C   0  0  0  0  0  0  0  0  0  0  0  0
  -18.9150  -30.0210   23.9200 C   0  0  0  0  0  3  0  0  0  0  0  0
  -17.5780  -30.4410   24.0490 C   0  0  0  0  0  3  0  0  0  0  0  0
  -16.5360  -29.6220   23.5790 C   0  0  0  0  0  3  0  0  0  0  0  0
  -16.8340  -28.3900   22.9720 C   0  0  0  0  0  3  0  0  0  0  0  0
  -25.9770  -32.5730   24.0360 C   0  0  0  0  0  3  0  0  0  0  0  0
  -25.7110  -33.9830   24.3510 N   0  0  0  0  0  0  0  0  0  0  0  0
  -26.1030  -35.0180   23.5960 C   0  0  0  0  0  0  0  0  0  0  0  0
  -26.7970  -34.8850   22.5840 O   0  0  0  0  0  0  0  0  0  0  0  0
  -25.0980  -34.1650   25.1330 H   0  0  0  0  0  0  0  0  0  0  0  0
  -24.4490  -36.8700   23.1910 C   0  0  0  0  0  1  0  0  0  0  0  0
  -25.6540  -36.4250   24.0340 C   0  0  0  0  0  3  0  0  0  0  0  0
  -27.8030  -37.2320   24.9060 C   0  0  0  0  0  1  0  0  0  0  0  0
  -26.7250  -37.4410   23.9450 N   0  0  0  0  0  0  0  0  0  0  0  0
  -26.3470  -38.3740   24.0910 H   0  0  0  0  0  0  0  0  0  0  0  0
  -26.4620  -31.7940   25.3200 C   0  0  1  0  0  0  0  0  0  0  0  0
  -25.3470  -31.5660   26.3660 C   0  0  0  0  0  1  0  0  0  0  0  0
  -27.0400  -30.4110   24.9340 C   0  0  0  0  0  1  0  0  0  0  0  0
  -27.6070  -32.5770   26.0030 C   0  0  0  0  0  1  0  0  0  0  0  0
  1  5  2  0
  2  5  1  0
  2  4  1  0
  3  2  2  0
  6  3  1  0
  6  1  1  0
  7  3  1  0
  8 10  1  0
  8 11  1  0
  8  7  1  0
  9  8  1  0
 14 13  1  6
 14 11  1  0
 14 15  1  0
 14 12  1  0
 15 25  1  0
 16 22  1  0
 16 25  1  0
 17 22  1  0
 18 19  1  0
 18 17  1  0
 20 19  1  0
 20 29  1  0
 20 21  1  0
 22 21  1  0
 23 16  2  0
 25 24  1  0
 26 27  2  0
 27 46  1  0
 28 31  1  0
 28 27  1  0
 29 30  1  0
 29 26  1  0
 30 28  2  0
 31 32  1  0
 32 33  2  0
 34 37  1  0
 34 33  1  0
 35 34  2  0
 36 35  1  0
 36 31  2  0
 37 38  1  0
 38 39  1  0
 39 40  2  0
 41 40  1  0
 41 45  1  0
 42 41  2  0
 43 38  2  0
 43 42  1  0
 44 43  1  0
 46 47  1  0
 47 50  1  0
 47 49  1  0
 48 46  2  0
 51 26  1  0
 51 52  1  0
 53 51  1  0
 54 55  1  0
 54  6  1  0
 56 58  1  0
 56 55  1  0
 57 68  2  0
 58 63  1  0
 59 67  1  0
 59 69  1  0
 60 66  1  0
 60 62  1  0
 61 67  1  0
 62 61  1  0
 63 62  2  0
 64 65  1  0
 64 58  2  0
 65 60  2  0
 66 59  1  0
 67 57  1  0
 69 71  2  0
 70 69  1  0
 72 70  1  0
 73 82  2  0
 73 78  1  0
 74 70  1  0
 74 78  1  0
 75 74  1  0
 76 77  1  0
 76 75  1  0
 77 73  1  0
 78 79  2  0
 79 80  1  0
 81 80  2  0
 82 81  1  0
 83 57  1  0
 83 84  1  0
 83 93  1  0
 84 87  1  0
 85 89  1  0
 85 84  1  0
 86 85  2  0
 89 88  1  0
 91 89  1  0
 91 92  1  0
 91 90  1  0
 93 96  1  1
 93 94  1  0
 95 93  1  0
M  ISO  4  16 100  25 100  55 101  56 101
M  END
>  <TORSDO>  (27) 
F 23

>  <SCORE>  (27) 
-10.310

>  <name>  (27) 
26

>  <ligand_id>  (27) 
26

>  <original_smiles>  (27) 
[H]c1c([H])c([H])c2c(c1[H])C([H])([H])C([H])([H])C([H])([H])C2([H])N([H])C(=O)C1([H])N(C(=O)C([H])(N([H])C(=O)C([H])(N([H])C([H])([H])[H])C([H])([H])[H])C(C([H])([H])[H])(C([H])([H])[H])C([H])([H])[H])C([H])([H])c2c([H])c(OC([H])([H])C([H])([H])n3c([H])nc(C([H])([H])[H])c3C([H])([H])[N+]([H])([H])C([H])([H])C(C([H])([H])[H])(C([H])([H])[H])C([H])([H])N(C(=O)N3C([H])([H])C([H])([H])C([H])([H])C([H])(n4nc(-c5c([H])c([H])c(Oc6c([H])c([H])c(F)c([H])c6F)c([H])c5[H])c(C(=O)N([H])[H])c4N([H])[H])C3([H])[H])C([H])([H])[H])c([H])c([H])c2C1([H])[H]

>  <smiles>  (27) 
[H]c1c([H])c([H])c2c(c1[H])C([H])([H])C([H])([H])C([H])([H])C2([H])N([H])C(=O)C1([H])N(C(=O)C([H])(N([H])C(=O)C([H])(N([H])C([H])([H])[H])C([H])([H])[H])C(C([H])([H])[H])(C([H])([H])[H])C([H])([H])[H])C([H])([H])c2c([H])c(OC([H])([H])C([H])([H])n3c([H])nc(C([H])([H])[H])c3C([H])([H])[N+]([H])([H])C([H])([H])C(C([H])([H])[H])(C([H])([H])[H])C([H])([H])N(C(=O)N3C([H])([H])C([H])([H])C([H])([H])C([H])(n4nc(-c5c([H])c([H])c(Oc6c([H])c([H])c(F)c([H])c6F)c([H])c5[H])c(C(=O)N([H])[H])c4N([H])[H])C3([H])[H])C([H])([H])[H])c([H])c([H])c2C1([H])[H]

$$$$
27:0:0
     RDKit          3D

 94102  0  0  1  0  0  0  0  0999 V2000
  -29.3360  -22.9460   20.4240 C   0  0  0  0  0  3  0  0  0  0  0  0
  -29.9370  -22.0050   19.5500 C   0  0  0  0  0  0  0  0  0  0  0  0
  -28.9650  -24.2100   19.8970 C   0  0  0  0  0  0  0  0  0  0  0  0
  -29.7290  -23.5400   17.8440 C   0  0  0  0  0  0  0  0  0  0  0  0
  -29.9990  -23.8980   16.3990 C   0  0  0  0  0  1  0  0  0  0  0  0
  -30.1030  -22.3290   18.2500 N   0  0  0  0  0  0  0  0  0  0  0  0
  -29.1730  -24.4810   18.5950 N   0  0  0  0  0  0  0  0  0  0  0  0
  -30.5470  -20.6470   19.9940 C   0  0  0  0  0  2  0  0  0  0  0  0
  -29.2800  -19.6490   21.8740 C   0  0  0  0  0  1  0  0  0  0  0  0
  -29.5560  -19.6060   20.4160 N   0  0  2  0  0  4  0  0  0  0  0  0
  -28.7160  -19.9620   19.9800 H   0  0  0  0  0  0  0  0  0  0  0  0
  -28.2620  -17.6350   19.6120 C   0  0  0  0  0  1  0  0  0  0  0  0
  -29.6790  -18.2050   19.8420 C   0  0  0  0  0  3  0  0  0  0  0  0
  -30.5970  -17.1770   20.6290 C   0  0  0  0  0  2  0  0  0  0  0  0
  -31.0050  -14.6780   20.0590 C   0  0  0  0  0  0  0  0  0  0  0  0
  -30.7040  -12.4590   19.0020 C   0  0  0  0  0  2  0  0  0  0  0  0
  -29.7320  -12.6100   17.8110 C   0  0  0  0  0  2  0  0  0  0  0  0
  -28.2670  -12.4850   18.2840 C   0  0  0  0  0  2  0  0  0  0  0  0
  -27.9580  -13.3690   19.5220 C   0  0  0  0  0  3  0  0  0  0  0  0
  -29.0400  -13.1880   20.6120 C   0  0  0  0  0  2  0  0  0  0  0  0
  -30.3440  -13.4830   19.9960 N   0  0  0  0  0  0  0  0  0  0  0  0
  -32.1530  -14.8260   19.6330 O   0  0  0  0  0  0  0  0  0  0  0  0
  -30.2520  -15.7340   20.4550 N   0  0  0  0  0  0  0  0  0  0  0  0
  -29.3150  -15.4850   20.7300 H   0  0  0  0  0  0  0  0  0  0  0  0
  -25.6010  -14.0390   20.3120 C   0  0  0  0  0  0  0  0  0  0  0  0
  -24.5240  -13.2970   20.7130 C   0  0  0  0  0  0  0  0  0  0  0  0
  -24.9460  -11.9340   20.6650 C   0  0  0  0  0  0  0  0  0  0  0  0
  -26.6130  -13.1310   20.0420 N   0  0  0  0  0  0  0  0  0  0  0  0
  -26.2240  -11.8580   20.3120 N   0  0  0  0  0  0  0  0  0  0  0  0
  -24.1910  -10.6930   20.8720 C   0  0  0  0  0  0  0  0  0  0  0  0
  -24.5770   -9.7470   21.8500 C   0  0  0  0  0  3  0  0  0  0  0  0
  -23.8220   -8.5690   22.0430 C   0  0  0  0  0  3  0  0  0  0  0  0
  -22.6700   -8.3310   21.2590 C   0  0  0  0  0  0  0  0  0  0  0  0
  -22.3010   -9.2650   20.2740 C   0  0  0  0  0  3  0  0  0  0  0  0
  -23.0570  -10.4330   20.0790 C   0  0  0  0  0  3  0  0  0  0  0  0
  -21.8900   -7.2020   21.3570 O   0  0  0  0  0  0  0  0  0  0  0  0
  -21.7390   -6.5350   22.5460 C   0  0  0  0  0  0  0  0  0  0  0  0
  -21.1750   -7.1560   23.6830 C   0  0  0  0  0  3  0  0  0  0  0  0
  -20.9710   -6.4140   24.8640 C   0  0  0  0  0  3  0  0  0  0  0  0
  -21.3230   -5.0510   24.9080 C   0  0  0  0  0  0  0  0  0  0  0  0
  -21.8810   -4.4300   23.7770 C   0  0  0  0  0  3  0  0  0  0  0  0
  -22.0860   -5.1690   22.6000 C   0  0  0  0  0  0  0  0  0  0  0  0
  -22.6030   -4.5590   21.5040 F   0  0  0  0  0  0  0  0  0  0  0  0
  -21.1220   -4.3380   26.0400 F   0  0  0  0  0  0  0  0  0  0  0  0
  -23.1490  -13.8160   21.0260 C   0  0  0  0  0  0  0  0  0  0  0  0
  -22.4220  -13.1450   21.9120 N   0  0  0  0  0  0  0  0  0  0  0  0
  -22.7280  -14.8540   20.5220 O   0  0  0  0  0  0  0  0  0  0  0  0
  -22.7730  -12.3080   22.3530 H   0  0  0  0  0  0  0  0  0  0  0  0
  -21.4990  -13.4770   22.1530 H   0  0  0  0  0  0  0  0  0  0  0  0
  -25.7940  -15.4040   20.1300 N   0  0  0  0  0  0  0  0  0  0  0  0
  -25.0400  -16.0720   20.2530 H   0  0  0  0  0  0  0  0  0  0  0  0
  -26.6230  -15.8120   19.7220 H   0  0  0  0  0  0  0  0  0  0  0  0
  -28.2900  -25.3150   20.7450 C   0  0  0  0  0  2  0  0  0  0  0  0
  -28.4500  -26.6890   20.2790 O   0  0  0  0  0  0  0  0  0  0  0  0
  -24.5060  -31.8620   23.2660 C   0  0  0  0  0  0  0  0  0  0  0  0
  -27.2930  -27.4470   20.2490 C   0  0  0  0  0  0  0  0  0  0  0  0
  -23.3630  -30.4390   21.5990 C   0  0  0  0  0  3  0  0  0  0  0  0
  -24.8750  -28.9290   20.2030 C   0  0  0  0  0  0  0  0  0  0  0  0
  -25.8870  -30.8440   21.4510 C   0  0  0  0  0  2  0  0  0  0  0  0
  -26.0140  -29.4730   20.8100 C   0  0  0  0  0  0  0  0  0  0  0  0
  -27.2300  -28.7420   20.8230 C   0  0  0  0  0  3  0  0  0  0  0  0
  -26.1370  -26.9310   19.6260 C   0  0  0  0  0  3  0  0  0  0  0  0
  -24.9320  -27.6580   19.6070 C   0  0  0  0  0  3  0  0  0  0  0  0
  -23.6140  -29.7660   20.2230 C   0  0  0  0  0  2  0  0  0  0  0  0
  -24.6030  -31.0650   22.1630 N   0  0  0  0  0  0  0  0  0  0  0  0
  -23.4100  -32.1110   23.7850 O   0  0  0  0  0  0  0  0  0  0  0  0
  -22.7120  -29.4040   22.5470 C   0  0  0  0  0  0  0  0  0  0  0  0
  -21.3980  -29.1760   22.3750 N   0  0  0  0  0  0  0  0  0  0  0  0
  -23.3870  -28.8100   23.3900 O   0  0  0  0  0  0  0  0  0  0  0  0
  -20.9110  -29.7140   21.6730 H   0  0  0  0  0  0  0  0  0  0  0  0
  -18.0600  -27.8410   22.7360 C   0  0  0  0  0  0  0  0  0  0  0  0
  -20.5880  -28.2160   23.1240 C   0  0  0  0  0  3  0  0  0  0  0  0
  -20.7790  -26.7810   22.5790 C   0  0  0  0  0  2  0  0  0  0  0  0
  -19.7410  -26.3910   21.5210 C   0  0  0  0  0  2  0  0  0  0  0  0
  -18.3250  -26.4880   22.0970 C   0  0  0  0  0  2  0  0  0  0  0  0
  -19.1230  -28.6580   23.2040 C   0  0  0  0  0  0  0  0  0  0  0  0
  -18.8210  -29.9220   23.7580 C   0  0  0  0  0  3  0  0  0  0  0  0
  -17.4900  -30.3670   23.8530 C   0  0  0  0  0  3  0  0  0  0  0  0
  -16.4400  -29.5480   23.4030 C   0  0  0  0  0  3  0  0  0  0  0  0
  -16.7270  -28.2870   22.8490 C   0  0  0  0  0  3  0  0  0  0  0  0
  -25.7660  -32.5190   23.9110 C   0  0  0  0  0  3  0  0  0  0  0  0
  -25.4290  -33.9170   24.2120 N   0  0  0  0  0  0  0  0  0  0  0  0
  -25.7790  -34.9630   23.4510 C   0  0  0  0  0  0  0  0  0  0  0  0
  -26.4860  -34.8540   22.4450 O   0  0  0  0  0  0  0  0  0  0  0  0
  -24.8030  -34.0760   24.9870 H   0  0  0  0  0  0  0  0  0  0  0  0
  -24.0530  -36.7360   23.0030 C   0  0  0  0  0  1  0  0  0  0  0  0
  -25.2610  -36.3520   23.8730 C   0  0  0  0  0  3  0  0  0  0  0  0
  -27.3470  -37.2640   24.7920 C   0  0  0  0  0  1  0  0  0  0  0  0
  -26.2890  -37.4110   23.7960 N   0  0  0  0  0  0  0  0  0  0  0  0
  -25.8700  -38.3300   23.9090 H   0  0  0  0  0  0  0  0  0  0  0  0
  -26.2570  -31.7730   25.2120 C   0  0  1  0  0  0  0  0  0  0  0  0
  -25.1380  -31.5300   26.2510 C   0  0  0  0  0  1  0  0  0  0  0  0
  -26.8750  -30.4010   24.8520 C   0  0  0  0  0  1  0  0  0  0  0  0
  -27.3710  -32.5980   25.8990 C   0  0  0  0  0  1  0  0  0  0  0  0
  2  8  1  0
  2  1  2  0
  3  1  1  0
  3 53  1  0
  4  6  2  0
  4  7  1  0
  5  4  1  0
  6  2  1  0
  7  3  2  0
  8 10  1  0
 10  9  1  0
 10 11  1  6
 13 12  1  0
 13 10  1  0
 13 14  1  0
 15 23  1  0
 16 21  1  0
 17 18  1  0
 17 16  1  0
 19 18  1  0
 19 28  1  0
 19 20  1  0
 21 15  1  0
 21 20  1  0
 22 15  2  0
 23 14  1  0
 23 24  1  0
 25 26  2  0
 26 45  1  0
 27 26  1  0
 27 30  1  0
 28 25  1  0
 28 29  1  0
 29 27  2  0
 30 31  1  0
 31 32  2  0
 33 36  1  0
 33 32  1  0
 34 33  2  0
 35 34  1  0
 35 30  2  0
 36 37  1  0
 37 42  2  0
 37 38  1  0
 38 39  2  0
 39 40  1  0
 40 44  1  0
 41 40  2  0
 42 41  1  0
 43 42  1  0
 45 46  1  0
 46 49  1  0
 46 48  1  0
 47 45  2  0
 50 51  1  0
 50 25  1  0
 52 50  1  0
 54 53  1  0
 55 66  2  0
 56 54  1  0
 56 61  1  0
 57 65  1  0
 57 67  1  0
 58 64  1  0
 58 60  1  0
 59 65  1  0
 60 61  2  0
 60 59  1  0
 62 56  2  0
 63 62  1  0
 63 58  2  0
 64 57  1  0
 65 55  1  0
 67 69  2  0
 68 67  1  0
 70 68  1  0
 71 80  2  0
 71 76  1  0
 72 68  1  0
 72 76  1  0
 73 72  1  0
 74 75  1  0
 74 73  1  0
 75 71  1  0
 76 77  2  0
 77 78  1  0
 79 78  2  0
 80 79  1  0
 81 55  1  0
 81 82  1  0
 81 91  1  0
 82 85  1  0
 83 87  1  0
 83 82  1  0
 84 83  2  0
 87 86  1  0
 89 87  1  0
 89 90  1  0
 89 88  1  0
 91 94  1  1
 91 92  1  0
 93 91  1  0
M  ISO  4  15 100  23 100  53 101  54 101
M  END
>  <TORSDO>  (28) 
F 21

>  <SCORE>  (28) 
-12.351

>  <name>  (28) 
27

>  <ligand_id>  (28) 
27

>  <original_smiles>  (28) 
[H]c1c(C([H])([H])Oc2c([H])c([H])c3c(c2[H])C([H])([H])N(C(=O)C([H])(N([H])C(=O)C([H])(N([H])C([H])([H])[H])C([H])([H])[H])C(C([H])([H])[H])(C([H])([H])[H])C([H])([H])[H])C([H])(C(=O)N([H])C2([H])c4c([H])c([H])c([H])c([H])c4C([H])([H])C([H])([H])C2([H])[H])C3([H])[H])nc(C([H])([H])[H])nc1C([H])([H])[N+]([H])(C([H])([H])[H])C([H])(C([H])([H])[H])C([H])([H])N([H])C(=O)N1C([H])([H])C([H])([H])C([H])([H])C([H])(n2nc(-c3c([H])c([H])c(Oc4c([H])c([H])c(F)c([H])c4F)c([H])c3[H])c(C(=O)N([H])[H])c2N([H])[H])C1([H])[H]

>  <smiles>  (28) 
[H]c1c(C([H])([H])Oc2c([H])c([H])c3c(c2[H])C([H])([H])N(C(=O)C([H])(N([H])C(=O)C([H])(N([H])C([H])([H])[H])C([H])([H])[H])C(C([H])([H])[H])(C([H])([H])[H])C([H])([H])[H])C([H])(C(=O)N([H])C2([H])c4c([H])c([H])c([H])c([H])c4C([H])([H])C([H])([H])C2([H])[H])C3([H])[H])nc(C([H])([H])[H])nc1C([H])([H])[N+]([H])(C([H])([H])[H])C([H])(C([H])([H])[H])C([H])([H])N([H])C(=O)N1C([H])([H])C([H])([H])C([H])([H])C([H])(n2nc(-c3c([H])c([H])c(Oc4c([H])c([H])c(F)c([H])c4F)c([H])c3[H])c(C(=O)N([H])[H])c2N([H])[H])C1([H])[H]

$$$$
28:0:0
     RDKit          3D

 91 99  0  0  1  0  0  0  0  0999 V2000
  -29.0310  -22.4090   19.8360 N   0  0  0  0  0  4  0  0  0  0  0  0
  -28.4090  -22.3300   19.0460 H   0  0  0  0  0  0  0  0  0  0  0  0
  -29.9480  -22.5380   19.4430 H   0  0  0  0  0  0  0  0  0  0  0  0
  -28.9780  -21.0100   20.4820 C   0  0  0  0  0  2  0  0  0  0  0  0
  -31.4960  -20.7180   20.8910 C   0  0  0  0  0  3  0  0  0  0  0  0
  -31.9140  -18.6560   20.5320 C   0  0  0  0  0  3  0  0  0  0  0  0
  -30.2880  -20.1510   20.5430 C   0  0  0  0  0  0  0  0  0  0  0  0
  -32.5220  -19.7850   20.8620 N   0  0  0  0  0  0  0  0  0  0  0  0
  -30.5830  -18.7280   20.3730 N   0  0  0  0  0  0  0  0  0  0  0  0
  -29.8270  -17.4790   19.9750 C   0  0  0  0  0  2  0  0  0  0  0  0
  -30.4060  -16.3260   22.2700 C   0  0  0  0  0  1  0  0  0  0  0  0
  -29.9870  -16.0820   20.8100 C   0  0  0  0  0  3  0  0  0  0  0  0
  -30.7460  -14.7850   20.2170 C   0  0  0  0  0  0  0  0  0  0  0  0
  -30.5420  -12.5410   19.1130 C   0  0  0  0  0  2  0  0  0  0  0  0
  -29.5670  -12.6620   17.9190 C   0  0  0  0  0  2  0  0  0  0  0  0
  -28.1030  -12.4960   18.3780 C   0  0  0  0  0  2  0  0  0  0  0  0
  -27.7760  -13.3460   19.6350 C   0  0  0  0  0  3  0  0  0  0  0  0
  -28.8580  -13.1700   20.7210 C   0  0  0  0  0  2  0  0  0  0  0  0
  -30.1440  -13.5490   20.1240 N   0  0  0  0  0  0  0  0  0  0  0  0
  -31.8900  -14.9280   19.7710 O   0  0  0  0  0  0  0  0  0  0  0  0
  -25.4050  -13.9610   20.4020 C   0  0  0  0  0  0  0  0  0  0  0  0
  -24.3380  -13.1950   20.7890 C   0  0  0  0  0  0  0  0  0  0  0  0
  -24.7890  -11.8410   20.7480 C   0  0  0  0  0  0  0  0  0  0  0  0
  -26.4370  -13.0720   20.1470 N   0  0  0  0  0  0  0  0  0  0  0  0
  -26.0740  -11.7920   20.4170 N   0  0  0  0  0  0  0  0  0  0  0  0
  -24.0580  -10.5840   20.9510 C   0  0  0  0  0  0  0  0  0  0  0  0
  -24.4850   -9.6210   21.8930 C   0  0  0  0  0  3  0  0  0  0  0  0
  -23.7530   -8.4300   22.0810 C   0  0  0  0  0  3  0  0  0  0  0  0
  -22.5780   -8.1910   21.3280 C   0  0  0  0  0  0  0  0  0  0  0  0
  -22.1700   -9.1420   20.3750 C   0  0  0  0  0  3  0  0  0  0  0  0
  -22.9030  -10.3250   20.1850 C   0  0  0  0  0  3  0  0  0  0  0  0
  -21.8190   -7.0510   21.4250 O   0  0  0  0  0  0  0  0  0  0  0  0
  -21.7430   -6.3330   22.5910 C   0  0  0  0  0  0  0  0  0  0  0  0
  -21.3040   -6.9190   23.8000 C   0  0  0  0  0  3  0  0  0  0  0  0
  -21.1760   -6.1290   24.9590 C   0  0  0  0  0  3  0  0  0  0  0  0
  -21.4760   -4.7540   24.9120 C   0  0  0  0  0  0  0  0  0  0  0  0
  -21.9080   -4.1680   23.7100 C   0  0  0  0  0  3  0  0  0  0  0  0
  -22.0380   -4.9560   22.5520 C   0  0  0  0  0  0  0  0  0  0  0  0
  -22.4340   -4.3810   21.3900 F   0  0  0  0  0  0  0  0  0  0  0  0
  -21.3460   -3.9930   26.0240 F   0  0  0  0  0  0  0  0  0  0  0  0
  -22.9500  -13.6830   21.0870 C   0  0  0  0  0  0  0  0  0  0  0  0
  -22.2350  -12.9940   21.9680 N   0  0  0  0  0  0  0  0  0  0  0  0
  -22.5090  -14.7100   20.5730 O   0  0  0  0  0  0  0  0  0  0  0  0
  -22.6030  -12.1620   22.4050 H   0  0  0  0  0  0  0  0  0  0  0  0
  -21.3040  -13.3030   22.2110 H   0  0  0  0  0  0  0  0  0  0  0  0
  -25.5740  -15.3310   20.2230 N   0  0  0  0  0  0  0  0  0  0  0  0
  -24.8160  -15.9900   20.3550 H   0  0  0  0  0  0  0  0  0  0  0  0
  -26.4220  -15.7650   19.8780 H   0  0  0  0  0  0  0  0  0  0  0  0
  -28.6210  -23.6980   20.5820 C   0  0  0  0  0  3  0  0  0  0  0  0
  -28.4090  -25.0350   19.6870 C   0  0  0  0  0  3  0  0  0  0  0  0
  -28.3180  -26.4220   20.2640 O   0  0  0  0  0  0  0  0  0  0  0  0
  -24.5940  -31.8740   23.2380 C   0  0  0  0  0  0  0  0  0  0  0  0
  -27.1850  -27.2680   20.1830 C   0  0  0  0  0  0  0  0  0  0  0  0
  -23.3840  -30.4770   21.6030 C   0  0  0  0  0  3  0  0  0  0  0  0
  -24.8270  -28.9180   20.1750 C   0  0  0  0  0  0  0  0  0  0  0  0
  -25.9270  -30.7790   21.4170 C   0  0  0  0  0  2  0  0  0  0  0  0
  -25.9990  -29.3960   20.7710 C   0  0  0  0  0  0  0  0  0  0  0  0
  -27.1750  -28.5820   20.7650 C   0  0  0  0  0  3  0  0  0  0  0  0
  -25.9800  -26.8520   19.5670 C   0  0  0  0  0  3  0  0  0  0  0  0
  -24.8230  -27.6560   19.5630 C   0  0  0  0  0  3  0  0  0  0  0  0
  -23.5950  -29.8000   20.2250 C   0  0  0  0  0  2  0  0  0  0  0  0
  -24.6550  -31.0620   22.1430 N   0  0  0  0  0  0  0  0  0  0  0  0
  -23.5120  -32.1580   23.7730 O   0  0  0  0  0  0  0  0  0  0  0  0
  -22.7210  -29.4630   22.5660 C   0  0  0  0  0  0  0  0  0  0  0  0
  -21.3930  -29.2860   22.4420 N   0  0  0  0  0  0  0  0  0  0  0  0
  -23.3990  -28.8390   23.3880 O   0  0  0  0  0  0  0  0  0  0  0  0
  -20.9040  -29.8440   21.7550 H   0  0  0  0  0  0  0  0  0  0  0  0
  -18.0170  -28.0850   22.9410 C   0  0  0  0  0  0  0  0  0  0  0  0
  -20.5750  -28.3490   23.2140 C   0  0  0  0  0  3  0  0  0  0  0  0
  -20.6800  -26.9150   22.6450 C   0  0  0  0  0  2  0  0  0  0  0  0
  -19.5810  -26.5880   21.6300 C   0  0  0  0  0  2  0  0  0  0  0  0
  -18.1980  -26.7330   22.2720 C   0  0  0  0  0  2  0  0  0  0  0  0
  -19.1340  -28.8510   23.3690 C   0  0  0  0  0  0  0  0  0  0  0  0
  -18.9110  -30.1160   23.9550 C   0  0  0  0  0  3  0  0  0  0  0  0
  -17.6060  -30.6140   24.1200 C   0  0  0  0  0  3  0  0  0  0  0  0
  -16.5030  -29.8450   23.7090 C   0  0  0  0  0  3  0  0  0  0  0  0
  -16.7120  -28.5820   23.1250 C   0  0  0  0  0  3  0  0  0  0  0  0
  -25.8790  -32.5060   23.8570 C   0  0  0  0  0  3  0  0  0  0  0  0
  -25.5740  -33.9060   24.1900 N   0  0  0  0  0  0  0  0  0  0  0  0
  -25.9050  -34.9580   23.4280 C   0  0  0  0  0  0  0  0  0  0  0  0
  -26.5690  -34.8520   22.3930 O   0  0  0  0  0  0  0  0  0  0  0  0
  -24.9850  -34.0620   24.9950 H   0  0  0  0  0  0  0  0  0  0  0  0
  -24.1800  -36.7560   23.0790 C   0  0  0  0  0  1  0  0  0  0  0  0
  -25.4220  -36.3480   23.8870 C   0  0  0  0  0  3  0  0  0  0  0  0
  -27.5650  -37.2260   24.7070 C   0  0  0  0  0  1  0  0  0  0  0  0
  -26.4580  -37.3980   23.7710 N   0  0  0  0  0  0  0  0  0  0  0  0
  -26.0550  -38.3190   23.9250 H   0  0  0  0  0  0  0  0  0  0  0  0
  -26.3980  -31.7350   25.1340 C   0  0  1  0  0  0  0  0  0  0  0  0
  -25.3060  -31.5030   26.2060 C   0  0  0  0  0  1  0  0  0  0  0  0
  -26.9760  -30.3550   24.7450 C   0  0  0  0  0  1  0  0  0  0  0  0
  -27.5540  -32.5270   25.7900 C   0  0  0  0  0  1  0  0  0  0  0  0
  1  4  1  0
  1 49  1  0
  2  1  1  0
  3  1  1  0
  4  7  1  0
  6  8  2  0
  7  5  2  0
  8  5  1  0
  9  6  1  0
  9  7  1  0
 10  9  1  0
 10 12  1  0
 12 11  1  0
 13 12  1  0
 14 19  1  0
 15 16  1  0
 15 14  1  0
 17 16  1  0
 17 24  1  0
 17 18  1  0
 19 13  1  0
 19 18  1  0
 20 13  2  0
 21 22  2  0
 22 41  1  0
 23 22  1  0
 23 26  1  0
 24 21  1  0
 24 25  1  0
 25 23  2  0
 26 27  1  0
 27 28  2  0
 29 32  1  0
 29 28  1  0
 30 29  2  0
 31 30  1  0
 31 26  2  0
 32 33  1  0
 33 34  1  0
 34 35  2  0
 36 35  1  0
 36 40  1  0
 37 36  2  0
 38 33  2  0
 38 37  1  0
 39 38  1  0
 41 42  1  0
 42 45  1  0
 42 44  1  0
 43 41  2  0
 46 47  1  0
 46 21  1  0
 48 46  1  0
 50 51  1  0
 50 49  2  0
 52 63  2  0
 53 51  1  0
 53 58  1  0
 54 62  1  0
 54 64  1  0
 55 61  1  0
 55 57  1  0
 56 62  1  0
 57 56  1  0
 58 57  2  0
 59 53  2  0
 60 59  1  0
 60 55  2  0
 61 54  1  0
 62 52  1  0
 64 66  2  0
 65 64  1  0
 67 65  1  0
 68 77  2  0
 68 73  1  0
 69 65  1  0
 69 73  1  0
 70 69  1  0
 71 72  1  0
 71 70  1  0
 72 68  1  0
 73 74  2  0
 74 75  1  0
 76 75  2  0
 77 76  1  0
 78 52  1  0
 78 79  1  0
 78 88  1  0
 79 82  1  0
 80 84  1  0
 80 79  1  0
 81 80  2  0
 84 83  1  0
 86 84  1  0
 86 87  1  0
 86 85  1  0
 88 91  1  1
 88 89  1  0
 90 88  1  0
M  ISO  4  12 100  13 100  50 101  51 101
M  END
>  <TORSDO>  (29) 
F 22

>  <SCORE>  (29) 
-13.098

>  <name>  (29) 
28

>  <ligand_id>  (29) 
28

>  <original_smiles>  (29) 
[H]c1nc([H])n(C([H])([H])C([H])(C(=O)N2C([H])([H])C([H])([H])C([H])([H])C([H])(n3nc(-c4c([H])c([H])c(Oc5c([H])c([H])c(F)c([H])c5F)c([H])c4[H])c(C(=O)N([H])[H])c3N([H])[H])C2([H])[H])C([H])([H])[H])c1C([H])([H])[N+]([H])([H])C([H])([H])C([H])([H])Oc1c([H])c([H])c2c(c1[H])C([H])([H])N(C(=O)C([H])(N([H])C(=O)C([H])(N([H])C([H])([H])[H])C([H])([H])[H])C(C([H])([H])[H])(C([H])([H])[H])C([H])([H])[H])C([H])(C(=O)N([H])C1([H])c3c([H])c([H])c([H])c([H])c3C([H])([H])C([H])([H])C1([H])[H])C2([H])[H]

>  <smiles>  (29) 
[H]c1nc([H])n(C([H])([H])C([H])(C(=O)N2C([H])([H])C([H])([H])C([H])([H])C([H])(n3nc(-c4c([H])c([H])c(Oc5c([H])c([H])c(F)c([H])c5F)c([H])c4[H])c(C(=O)N([H])[H])c3N([H])[H])C2([H])[H])C([H])([H])[H])c1C([H])([H])[N+]([H])([H])C([H])([H])C([H])([H])Oc1c([H])c([H])c2c(c1[H])C([H])([H])N(C(=O)C([H])(N([H])C(=O)C([H])(N([H])C([H])([H])[H])C([H])([H])[H])C(C([H])([H])[H])(C([H])([H])[H])C([H])([H])[H])C([H])(C(=O)N([H])C1([H])c3c([H])c([H])c([H])c([H])c3C([H])([H])C([H])([H])C1([H])[H])C2([H])[H]

$$$$
29:0:0
     RDKit          3D

 94102  0  0  1  0  0  0  0  0999 V2000
  -28.3850  -22.6340   20.7130 C   0  0  0  0  0  3  0  0  0  0  0  0
  -28.8910  -21.5880   21.4380 C   0  0  0  0  0  0  0  0  0  0  0  0
  -29.0600  -23.4390   22.6660 C   0  0  0  0  0  3  0  0  0  0  0  0
  -29.3140  -24.3130   23.8540 C   0  0  0  0  0  1  0  0  0  0  0  0
  -28.5260  -23.7710   21.4730 N   0  0  0  0  0  0  0  0  0  0  0  0
  -29.3170  -22.1260   22.6200 N   0  0  0  0  0  0  0  0  0  0  0  0
  -29.7550  -21.5950   23.3670 H   0  0  0  0  0  0  0  0  0  0  0  0
  -28.9920  -20.1290   21.1280 C   0  0  0  0  0  2  0  0  0  0  0  0
  -30.6580  -20.4250   19.3920 C   0  0  0  0  0  1  0  0  0  0  0  0
  -30.3040  -19.7110   20.6230 N   0  0  0  0  0  0  0  0  0  0  0  0
  -30.2400  -18.2700   20.3600 C   0  0  0  0  0  2  0  0  0  0  0  0
  -31.5650  -17.5770   20.7260 C   0  0  0  0  0  2  0  0  0  0  0  0
  -31.3830  -16.3150   21.5950 C   0  0  0  0  0  2  0  0  0  0  0  0
  -31.0340  -14.3760   20.0620 C   0  0  0  0  0  0  0  0  0  0  0  0
  -30.6310  -12.1920   18.9890 C   0  0  0  0  0  2  0  0  0  0  0  0
  -29.6550  -12.2960   17.8030 C   0  0  0  0  0  2  0  0  0  0  0  0
  -28.1960  -12.2040   18.2880 C   0  0  0  0  0  2  0  0  0  0  0  0
  -27.8990  -13.1630   19.4710 C   0  0  0  0  0  3  0  0  0  0  0  0
  -28.9710  -13.0130   20.5700 C   0  0  0  0  0  2  0  0  0  0  0  0
  -30.2940  -13.2440   19.9570 N   0  0  0  0  0  0  0  0  0  0  0  0
  -32.0640  -14.5820   19.4130 O   0  0  0  0  0  0  0  0  0  0  0  0
  -30.5970  -15.2470   20.9780 N   0  0  0  0  0  0  0  0  0  0  0  0
  -29.7020  -15.0390   21.4000 H   0  0  0  0  0  0  0  0  0  0  0  0
  -25.5610  -13.8760   20.2890 C   0  0  0  0  0  0  0  0  0  0  0  0
  -24.4790  -13.1520   20.7070 C   0  0  0  0  0  0  0  0  0  0  0  0
  -24.8780  -11.7800   20.6540 C   0  0  0  0  0  0  0  0  0  0  0  0
  -26.5550  -12.9510   20.0090 N   0  0  0  0  0  0  0  0  0  0  0  0
  -26.1490  -11.6860   20.2860 N   0  0  0  0  0  0  0  0  0  0  0  0
  -24.1090  -10.5500   20.8740 C   0  0  0  0  0  0  0  0  0  0  0  0
  -24.5140   -9.5870   21.8230 C   0  0  0  0  0  3  0  0  0  0  0  0
  -23.7510   -8.4190   22.0290 C   0  0  0  0  0  3  0  0  0  0  0  0
  -22.5660   -8.2070   21.2840 C   0  0  0  0  0  0  0  0  0  0  0  0
  -22.1810   -9.1570   20.3220 C   0  0  0  0  0  3  0  0  0  0  0  0
  -22.9450  -10.3170   20.1160 C   0  0  0  0  0  3  0  0  0  0  0  0
  -21.7730   -7.0900   21.3980 O   0  0  0  0  0  0  0  0  0  0  0  0
  -21.6710   -6.3980   22.5770 C   0  0  0  0  0  0  0  0  0  0  0  0
  -21.2320   -7.0160   23.7690 C   0  0  0  0  0  3  0  0  0  0  0  0
  -21.0750   -6.2510   24.9420 C   0  0  0  0  0  3  0  0  0  0  0  0
  -21.3450   -4.8700   24.9240 C   0  0  0  0  0  0  0  0  0  0  0  0
  -21.7760   -4.2520   23.7360 C   0  0  0  0  0  3  0  0  0  0  0  0
  -21.9350   -5.0140   22.5660 C   0  0  0  0  0  0  0  0  0  0  0  0
  -22.3300   -4.4100   21.4200 F   0  0  0  0  0  0  0  0  0  0  0  0
  -21.1850   -4.1320   26.0470 F   0  0  0  0  0  0  0  0  0  0  0  0
  -23.1170  -13.6850   21.0410 C   0  0  0  0  0  0  0  0  0  0  0  0
  -22.4010  -13.0240   21.9430 N   0  0  0  0  0  0  0  0  0  0  0  0
  -22.6980  -14.7260   20.5350 O   0  0  0  0  0  0  0  0  0  0  0  0
  -22.7530  -12.1810   22.3760 H   0  0  0  0  0  0  0  0  0  0  0  0
  -21.4850  -13.3610   22.2040 H   0  0  0  0  0  0  0  0  0  0  0  0
  -25.7780  -15.2400   20.1030 N   0  0  0  0  0  0  0  0  0  0  0  0
  -25.0430  -15.9250   20.2360 H   0  0  0  0  0  0  0  0  0  0  0  0
  -26.6240  -15.6350   19.7140 H   0  0  0  0  0  0  0  0  0  0  0  0
  -28.1060  -25.1410   21.0950 C   0  0  0  0  0  2  0  0  0  0  0  0
  -28.3940  -25.4920   19.6080 C   0  0  0  0  0  2  0  0  0  0  0  0
  -28.3620  -26.8900   19.2840 O   0  0  0  0  0  0  0  0  0  0  0  0
  -24.6420  -31.6370   22.9610 C   0  0  0  0  0  0  0  0  0  0  0  0
  -27.1610  -27.5550   19.3610 C   0  0  0  0  0  0  0  0  0  0  0  0
  -23.3470  -30.3290   21.3070 C   0  0  0  0  0  3  0  0  0  0  0  0
  -24.7260  -28.9670   19.6450 C   0  0  0  0  0  0  0  0  0  0  0  0
  -25.8280  -30.8070   20.9350 C   0  0  0  0  0  2  0  0  0  0  0  0
  -25.9080  -29.4960   20.1820 C   0  0  0  0  0  0  0  0  0  0  0  0
  -27.1250  -28.7980   20.0340 C   0  0  0  0  0  3  0  0  0  0  0  0
  -25.9630  -27.0400   18.8140 C   0  0  0  0  0  3  0  0  0  0  0  0
  -24.7490  -27.7400   18.9580 C   0  0  0  0  0  3  0  0  0  0  0  0
  -23.4610  -29.7700   19.8610 C   0  0  0  0  0  2  0  0  0  0  0  0
  -24.6280  -30.9350   21.7940 N   0  0  0  0  0  0  0  0  0  0  0  0
  -23.6040  -31.8240   23.6100 O   0  0  0  0  0  0  0  0  0  0  0  0
  -22.8140  -29.2090   22.2280 C   0  0  0  0  0  0  0  0  0  0  0  0
  -21.4980  -28.9550   22.1550 N   0  0  0  0  0  0  0  0  0  0  0  0
  -23.5780  -28.5730   22.9610 O   0  0  0  0  0  0  0  0  0  0  0  0
  -20.9470  -29.5220   21.5250 H   0  0  0  0  0  0  0  0  0  0  0  0
  -18.2400  -27.4890   22.6710 C   0  0  0  0  0  0  0  0  0  0  0  0
  -20.7760  -27.9250   22.8980 C   0  0  0  0  0  3  0  0  0  0  0  0
  -20.9750  -26.5390   22.2470 C   0  0  0  0  0  2  0  0  0  0  0  0
  -19.8710  -26.1800   21.2470 C   0  0  0  0  0  2  0  0  0  0  0  0
  -18.4980  -26.1890   21.9280 C   0  0  0  0  0  2  0  0  0  0  0  0
  -19.3090  -28.3110   23.1120 C   0  0  0  0  0  0  0  0  0  0  0  0
  -19.0180  -29.5250   23.7700 C   0  0  0  0  0  3  0  0  0  0  0  0
  -17.6850  -29.9190   23.9950 C   0  0  0  0  0  3  0  0  0  0  0  0
  -16.6290  -29.0940   23.5750 C   0  0  0  0  0  3  0  0  0  0  0  0
  -16.9060  -27.8820   22.9160 C   0  0  0  0  0  3  0  0  0  0  0  0
  -25.9600  -32.2600   23.5290 C   0  0  0  0  0  3  0  0  0  0  0  0
  -25.6310  -33.5990   24.0280 N   0  0  0  0  0  0  0  0  0  0  0  0
  -25.8690  -34.7380   23.3650 C   0  0  0  0  0  0  0  0  0  0  0  0
  -26.4670  -34.7730   22.2840 O   0  0  0  0  0  0  0  0  0  0  0  0
  -25.0850  -33.6410   24.8770 H   0  0  0  0  0  0  0  0  0  0  0  0
  -24.0570  -36.4790   23.3360 C   0  0  0  0  0  1  0  0  0  0  0  0
  -25.3700  -36.0460   24.0040 C   0  0  0  0  0  3  0  0  0  0  0  0
  -27.5260  -36.9280   24.7750 C   0  0  0  0  0  1  0  0  0  0  0  0
  -26.3530  -37.1490   23.9350 N   0  0  0  0  0  0  0  0  0  0  0  0
  -25.9250  -38.0270   24.2170 H   0  0  0  0  0  0  0  0  0  0  0  0
  -26.6240  -31.3880   24.6630 C   0  0  1  0  0  0  0  0  0  0  0  0
  -25.6450  -30.9940   25.7940 C   0  0  0  0  0  1  0  0  0  0  0  0
  -27.2160  -30.0880   24.0710 C   0  0  0  0  0  1  0  0  0  0  0  0
  -27.8020  -32.1620   25.2970 C   0  0  0  0  0  1  0  0  0  0  0  0
  1  2  2  0
  1  5  1  0
  2  6  1  0
  3  4  1  0
  5  3  1  0
  6  3  1  0
  6  7  1  0
  8  2  1  0
  9 10  1  0
 10  8  1  0
 11 10  1  0
 11 12  1  0
 12 13  1  0
 14 22  1  0
 15 20  1  0
 16 17  1  0
 16 15  1  0
 18 17  1  0
 18 27  1  0
 18 19  1  0
 20 14  1  0
 20 19  1  0
 21 14  2  0
 22 23  1  0
 22 13  1  0
 24 25  2  0
 25 44  1  0
 26 25  1  0
 26 29  1  0
 27 28  1  0
 27 24  1  0
 28 26  2  0
 29 30  1  0
 30 31  2  0
 32 35  1  0
 32 31  1  0
 33 32  2  0
 34 33  1  0
 34 29  2  0
 35 36  1  0
 36 37  1  0
 37 38  2  0
 39 38  1  0
 39 43  1  0
 40 39  2  0
 41 36  2  0
 41 40  1  0
 42 41  1  0
 44 45  1  0
 45 48  1  0
 45 47  1  0
 46 44  2  0
 49 50  1  0
 49 24  1  0
 51 49  1  0
 52  5  1  0
 53 52  1  0
 54 56  1  0
 54 53  1  0
 55 66  2  0
 56 61  1  0
 57 65  1  0
 57 67  1  0
 58 64  1  0
 58 60  1  0
 59 65  1  0
 60 59  1  0
 61 60  2  0
 62 63  1  0
 62 56  2  0
 63 58  2  0
 64 57  1  0
 65 55  1  0
 67 69  2  0
 68 67  1  0
 70 68  1  0
 71 80  2  0
 71 76  1  0
 72 68  1  0
 72 76  1  0
 73 72  1  0
 74 75  1  0
 74 73  1  0
 75 71  1  0
 76 77  2  0
 77 78  1  0
 79 78  2  0
 80 79  1  0
 81 55  1  0
 81 82  1  0
 81 91  1  0
 82 85  1  0
 83 87  1  0
 83 82  1  0
 84 83  2  0
 87 86  1  0
 89 87  1  0
 89 90  1  0
 89 88  1  0
 91 94  1  1
 91 92  1  0
 93 91  1  0
M  ISO  4  14 100  22 100  53 101  54 101
M  END
>  <TORSDO>  (30) 
F 23

>  <SCORE>  (30) 
-11.572

>  <name>  (30) 
29

>  <ligand_id>  (30) 
29

>  <original_smiles>  (30) 
[H]c1c([H])c([H])c2c(c1[H])C([H])([H])C([H])([H])C([H])([H])C2([H])N([H])C(=O)C1([H])N(C(=O)C([H])(N([H])C(=O)C([H])(N([H])C([H])([H])[H])C([H])([H])[H])C(C([H])([H])[H])(C([H])([H])[H])C([H])([H])[H])C([H])([H])c2c([H])c(OC([H])([H])C([H])([H])n3c([H])c(C([H])([H])N(C([H])([H])[H])C([H])([H])C([H])([H])C([H])([H])N([H])C(=O)N4C([H])([H])C([H])([H])C([H])([H])C([H])(n5nc(-c6c([H])c([H])c(Oc7c([H])c([H])c(F)c([H])c7F)c([H])c6[H])c(C(=O)N([H])[H])c5N([H])[H])C4([H])[H])[n+]([H])c3C([H])([H])[H])c([H])c([H])c2C1([H])[H]

>  <smiles>  (30) 
[H]c1c([H])c([H])c2c(c1[H])C([H])([H])C([H])([H])C([H])([H])C2([H])N([H])C(=O)C1([H])N(C(=O)C([H])(N([H])C(=O)C([H])(N([H])C([H])([H])[H])C([H])([H])[H])C(C([H])([H])[H])(C([H])([H])[H])C([H])([H])[H])C([H])([H])c2c([H])c(OC([H])([H])C([H])([H])n3c([H])c(C([H])([H])N(C([H])([H])[H])C([H])([H])C([H])([H])C([H])([H])N([H])C(=O)N4C([H])([H])C([H])([H])C([H])([H])C([H])(n5nc(-c6c([H])c([H])c(Oc7c([H])c([H])c(F)c([H])c7F)c([H])c6[H])c(C(=O)N([H])[H])c5N([H])[H])C4([H])[H])[n+]([H])c3C([H])([H])[H])c([H])c([H])c2C1([H])[H]

$$$$
30:0:0
     RDKit          3D

 87 95  0  0  1  0  0  0  0  0999 V2000
  -30.4300  -20.6070   20.1570 C   0  0  0  0  0  3  0  0  0  0  0  0
  -28.3670  -18.9770   20.3490 C   0  0  0  0  0  3  0  0  0  0  0  0
  -29.1570  -21.3190   20.2590 C   0  0  0  0  0  0  0  0  0  0  0  0
  -29.6400  -18.2630   20.2610 C   0  0  0  0  0  0  0  0  0  0  0  0
  -28.1370  -20.3800   20.3680 N   0  0  0  0  0  0  0  0  0  0  0  0
  -30.6630  -19.2030   20.1740 N   0  0  0  0  0  0  0  0  0  0  0  0
  -30.2080  -16.5760   22.1410 C   0  0  0  0  0  1  0  0  0  0  0  0
  -29.8050  -16.5880   20.6550 C   0  0  0  0  0  3  0  0  0  0  0  0
  -30.5480  -15.1770   19.9930 C   0  0  0  0  0  0  0  0  0  0  0  0
  -30.4240  -12.8030   18.9660 C   0  0  0  0  0  2  0  0  0  0  0  0
  -29.4090  -12.7420   17.7960 C   0  0  0  0  0  2  0  0  0  0  0  0
  -27.9810  -12.4940   18.3170 C   0  0  0  0  0  2  0  0  0  0  0  0
  -27.6470  -13.3900   19.5380 C   0  0  0  0  0  3  0  0  0  0  0  0
  -28.7730  -13.3900   20.5920 C   0  0  0  0  0  2  0  0  0  0  0  0
  -29.9910  -13.8760   19.9250 N   0  0  0  0  0  0  0  0  0  0  0  0
  -31.7010  -15.2390   19.5380 O   0  0  0  0  0  0  0  0  0  0  0  0
  -25.3300  -13.9600   20.4500 C   0  0  0  0  0  0  0  0  0  0  0  0
  -24.2840  -13.1840   20.8650 C   0  0  0  0  0  0  0  0  0  0  0  0
  -24.7310  -11.8300   20.7660 C   0  0  0  0  0  0  0  0  0  0  0  0
  -26.3450  -13.0800   20.1150 N   0  0  0  0  0  0  0  0  0  0  0  0
  -25.9990  -11.7910   20.3720 N   0  0  0  0  0  0  0  0  0  0  0  0
  -24.0010  -10.5700   20.9660 C   0  0  0  0  0  0  0  0  0  0  0  0
  -24.4590   -9.5860   21.8700 C   0  0  0  0  0  3  0  0  0  0  0  0
  -23.7280   -8.3940   22.0600 C   0  0  0  0  0  3  0  0  0  0  0  0
  -22.5260   -8.1750   21.3460 C   0  0  0  0  0  0  0  0  0  0  0  0
  -22.0860   -9.1480   20.4320 C   0  0  0  0  0  3  0  0  0  0  0  0
  -22.8180  -10.3320   20.2390 C   0  0  0  0  0  3  0  0  0  0  0  0
  -21.7640   -7.0360   21.4480 O   0  0  0  0  0  0  0  0  0  0  0  0
  -21.7260   -6.2970   22.6030 C   0  0  0  0  0  0  0  0  0  0  0  0
  -21.3080   -6.8530   23.8310 C   0  0  0  0  0  3  0  0  0  0  0  0
  -21.2160   -6.0400   24.9780 C   0  0  0  0  0  3  0  0  0  0  0  0
  -21.5330   -4.6710   24.8980 C   0  0  0  0  0  0  0  0  0  0  0  0
  -21.9450   -4.1130   23.6750 C   0  0  0  0  0  3  0  0  0  0  0  0
  -22.0370   -4.9230   22.5300 C   0  0  0  0  0  0  0  0  0  0  0  0
  -22.4140   -4.3770   21.3490 F   0  0  0  0  0  0  0  0  0  0  0  0
  -21.4380   -3.8870   25.9980 F   0  0  0  0  0  0  0  0  0  0  0  0
  -22.9120  -13.6670   21.2360 C   0  0  0  0  0  0  0  0  0  0  0  0
  -22.2320  -12.9570   22.1290 N   0  0  0  0  0  0  0  0  0  0  0  0
  -22.4550  -14.7090   20.7680 O   0  0  0  0  0  0  0  0  0  0  0  0
  -22.6170  -12.1140   22.5280 H   0  0  0  0  0  0  0  0  0  0  0  0
  -21.3150  -13.2630   22.4200 H   0  0  0  0  0  0  0  0  0  0  0  0
  -25.4960  -15.3330   20.3010 N   0  0  0  0  0  0  0  0  0  0  0  0
  -24.7390  -15.9860   20.4710 H   0  0  0  0  0  0  0  0  0  0  0  0
  -26.3120  -15.7710   19.8910 H   0  0  0  0  0  0  0  0  0  0  0  0
  -29.0080  -23.0040   20.6020 C   0  0  0  0  0  3  0  0  0  0  0  0
  -28.0780  -24.3750   20.0170 C   0  0  0  0  0  3  0  0  0  0  0  0
  -28.2320  -25.9600   20.3230 O   0  0  0  0  0  0  0  0  0  0  0  0
  -24.6250  -31.8460   23.1950 C   0  0  0  0  0  0  0  0  0  0  0  0
  -27.1980  -27.0050   20.2230 C   0  0  0  0  0  0  0  0  0  0  0  0
  -23.4320  -30.4360   21.5650 C   0  0  0  0  0  3  0  0  0  0  0  0
  -24.8840  -28.8300   20.1570 C   0  0  0  0  0  0  0  0  0  0  0  0
  -25.9940  -30.6670   21.4150 C   0  0  0  0  0  2  0  0  0  0  0  0
  -26.0660  -29.2580   20.7730 C   0  0  0  0  0  0  0  0  0  0  0  0
  -27.2180  -28.3640   20.7840 C   0  0  0  0  0  3  0  0  0  0  0  0
  -25.9890  -26.7090   19.5560 C   0  0  0  0  0  3  0  0  0  0  0  0
  -24.8660  -27.5730   19.5300 C   0  0  0  0  0  3  0  0  0  0  0  0
  -23.6610  -29.7410   20.1950 C   0  0  0  0  0  2  0  0  0  0  0  0
  -24.7050  -31.0090   22.1120 N   0  0  0  0  0  0  0  0  0  0  0  0
  -23.5370  -32.1390   23.7140 O   0  0  0  0  0  0  0  0  0  0  0  0
  -22.7420  -29.4450   22.5380 C   0  0  0  0  0  0  0  0  0  0  0  0
  -21.4120  -29.2830   22.4150 N   0  0  0  0  0  0  0  0  0  0  0  0
  -23.4070  -28.8240   23.3700 O   0  0  0  0  0  0  0  0  0  0  0  0
  -20.9290  -29.8350   21.7200 H   0  0  0  0  0  0  0  0  0  0  0  0
  -18.0250  -28.0980   22.9380 C   0  0  0  0  0  0  0  0  0  0  0  0
  -20.5850  -28.3540   23.1940 C   0  0  0  0  0  3  0  0  0  0  0  0
  -20.6790  -26.9180   22.6270 C   0  0  0  0  0  2  0  0  0  0  0  0
  -19.5730  -26.5950   21.6170 C   0  0  0  0  0  2  0  0  0  0  0  0
  -18.1930  -26.7470   22.2650 C   0  0  0  0  0  2  0  0  0  0  0  0
  -19.1480  -28.8600   23.3600 C   0  0  0  0  0  0  0  0  0  0  0  0
  -18.9330  -30.1230   23.9530 C   0  0  0  0  0  3  0  0  0  0  0  0
  -17.6290  -30.6270   24.1260 C   0  0  0  0  0  3  0  0  0  0  0  0
  -16.5210  -29.8640   23.7180 C   0  0  0  0  0  3  0  0  0  0  0  0
  -16.7200  -28.6020   23.1310 C   0  0  0  0  0  3  0  0  0  0  0  0
  -25.8990  -32.4910   23.8240 C   0  0  0  0  0  3  0  0  0  0  0  0
  -26.4080  -31.7300   25.1110 C   0  0  1  0  0  0  0  0  0  0  0  0
  -25.3090  -31.5010   26.1750 C   0  0  0  0  0  1  0  0  0  0  0  0
  -26.9950  -30.3500   24.7400 C   0  0  0  0  0  1  0  0  0  0  0  0
  -27.5540  -32.5320   25.7730 C   0  0  0  0  0  1  0  0  0  0  0  0
  -25.5790  -33.8900   24.1540 N   0  0  0  0  0  0  0  0  0  0  0  0
  -25.9070  -34.9500   23.4030 C   0  0  0  0  0  0  0  0  0  0  0  0
  -26.5730  -34.8520   22.3690 O   0  0  0  0  0  0  0  0  0  0  0  0
  -24.9860  -34.0390   24.9570 H   0  0  0  0  0  0  0  0  0  0  0  0
  -24.1740  -36.7470   23.0680 C   0  0  0  0  0  1  0  0  0  0  0  0
  -25.4210  -36.3380   23.8690 C   0  0  0  0  0  3  0  0  0  0  0  0
  -27.5560  -37.2270   24.6940 C   0  0  0  0  0  1  0  0  0  0  0  0
  -26.4510  -37.3940   23.7540 N   0  0  0  0  0  0  0  0  0  0  0  0
  -26.0430  -38.3130   23.9030 H   0  0  0  0  0  0  0  0  0  0  0  0
  1  6  2  0
  1  3  1  0
  2  5  1  0
  3  5  2  0
  3 45  1  0
  4  2  2  0
  4  8  1  0
  6  4  1  0
  8  7  1  0
  9  8  1  0
 10 15  1  0
 11 12  1  0
 11 10  1  0
 13 12  1  0
 13 20  1  0
 13 14  1  0
 15  9  1  0
 15 14  1  0
 16  9  2  0
 17 18  2  0
 18 37  1  0
 19 18  1  0
 19 22  1  0
 20 21  1  0
 20 17  1  0
 21 19  2  0
 22 23  1  0
 23 24  2  0
 25 28  1  0
 25 24  1  0
 26 25  2  0
 27 26  1  0
 27 22  2  0
 28 29  1  0
 29 30  1  0
 30 31  2  0
 32 31  1  0
 32 36  1  0
 33 32  2  0
 34 29  2  0
 34 33  1  0
 35 34  1  0
 37 38  1  0
 38 41  1  0
 38 40  1  0
 39 37  2  0
 42 17  1  0
 42 43  1  0
 44 42  1  0
 46 47  1  0
 46 45  2  0
 48 59  2  0
 49 47  1  0
 49 54  1  0
 50 58  1  0
 50 60  1  0
 51 57  1  0
 51 53  1  0
 52 58  1  0
 53 54  2  0
 53 52  1  0
 55 49  2  0
 56 55  1  0
 56 51  2  0
 57 50  1  0
 58 48  1  0
 60 62  2  0
 61 60  1  0
 63 61  1  0
 64 73  2  0
 64 69  1  0
 65 61  1  0
 65 69  1  0
 66 65  1  0
 67 68  1  0
 67 66  1  0
 68 64  1  0
 69 70  2  0
 70 71  1  0
 72 71  2  0
 73 72  1  0
 74 48  1  0
 74 79  1  0
 74 75  1  0
 75 78  1  1
 75 76  1  0
 77 75  1  0
 79 82  1  0
 80 84  1  0
 80 79  1  0
 81 80  2  0
 84 83  1  0
 86 84  1  0
 86 87  1  0
 86 85  1  0
M  ISO  4   8 100   9 100  46 101  47 101
M  END
>  <TORSDO>  (31) 
F 19

>  <SCORE>  (31) 
-16.102

>  <name>  (31) 
30

>  <ligand_id>  (31) 
30

>  <original_smiles>  (31) 
[H]c1nc(C([H])(C(=O)N2C([H])([H])C([H])([H])C([H])([H])C([H])(n3nc(-c4c([H])c([H])c(Oc5c([H])c([H])c(F)c([H])c5F)c([H])c4[H])c(C(=O)N([H])[H])c3N([H])[H])C2([H])[H])C([H])([H])[H])c([H])nc1C([H])([H])C([H])([H])Oc1c([H])c([H])c2c(c1[H])C([H])([H])N(C(=O)C([H])(N([H])C(=O)C([H])(N([H])C([H])([H])[H])C([H])([H])[H])C(C([H])([H])[H])(C([H])([H])[H])C([H])([H])[H])C([H])(C(=O)N([H])C1([H])c3c([H])c([H])c([H])c([H])c3C([H])([H])C([H])([H])C1([H])[H])C2([H])[H]

>  <smiles>  (31) 
[H]c1nc(C([H])(C(=O)N2C([H])([H])C([H])([H])C([H])([H])C([H])(n3nc(-c4c([H])c([H])c(Oc5c([H])c([H])c(F)c([H])c5F)c([H])c4[H])c(C(=O)N([H])[H])c3N([H])[H])C2([H])[H])C([H])([H])[H])c([H])nc1C([H])([H])C([H])([H])Oc1c([H])c([H])c2c(c1[H])C([H])([H])N(C(=O)C([H])(N([H])C(=O)C([H])(N([H])C([H])([H])[H])C([H])([H])[H])C(C([H])([H])[H])(C([H])([H])[H])C([H])([H])[H])C([H])(C(=O)N([H])C1([H])c3c([H])c([H])c([H])c([H])c3C([H])([H])C([H])([H])C1([H])[H])C2([H])[H]

$$$$
31:0:0
     RDKit          3D

 92100  0  0  1  0  0  0  0  0999 V2000
  -28.4540  -19.2230   20.6860 C   0  0  0  0  0  3  0  0  0  0  0  0
  -29.8340  -18.9090   20.8330 C   0  0  0  0  0  0  0  0  0  0  0  0
  -28.3460  -20.5800   20.4550 C   0  0  0  0  0  0  0  0  0  0  0  0
  -30.5180  -20.0820   20.6590 N   0  0  0  0  0  0  0  0  0  0  0  0
  -29.6310  -21.1380   20.4120 N   0  0  0  0  0  0  0  0  0  0  0  0
  -26.5730  -21.5980   18.9220 C   0  0  0  0  0  1  0  0  0  0  0  0
  -26.9550  -22.5970   21.2250 C   0  0  0  0  0  1  0  0  0  0  0  0
  -27.0380  -21.3300   20.3580 C   0  0  0  0  0  3  0  0  0  0  0  0
  -30.5060  -17.5250   21.2770 C   0  0  0  0  0  2  0  0  0  0  0  0
  -30.8260  -14.9700   21.0210 C   0  0  0  0  0  0  0  0  0  0  0  0
  -30.7720  -12.6120   20.1770 C   0  0  0  0  0  2  0  0  0  0  0  0
  -29.9820  -12.4920   18.8530 C   0  0  0  0  0  2  0  0  0  0  0  0
  -28.4680  -12.3620   19.1160 C   0  0  0  0  0  2  0  0  0  0  0  0
  -27.9350  -13.3340   20.2040 C   0  0  0  0  0  3  0  0  0  0  0  0
  -28.8600  -13.3960   21.4360 C   0  0  0  0  0  2  0  0  0  0  0  0
  -30.2000  -13.7400   20.9460 N   0  0  0  0  0  0  0  0  0  0  0  0
  -32.0600  -15.0060   21.0470 O   0  0  0  0  0  0  0  0  0  0  0  0
  -30.1090  -16.1460   20.7170 N   0  0  0  0  0  0  0  0  0  0  0  0
  -25.4810  -13.9210   20.6700 C   0  0  0  0  0  0  0  0  0  0  0  0
  -24.3850  -13.1460   20.9260 C   0  0  0  0  0  0  0  0  0  0  0  0
  -24.8570  -11.7990   20.9750 C   0  0  0  0  0  0  0  0  0  0  0  0
  -26.5500  -13.0450   20.5640 N   0  0  0  0  0  0  0  0  0  0  0  0
  -26.1740  -11.7660   20.8190 N   0  0  0  0  0  0  0  0  0  0  0  0
  -24.1220  -10.5360   21.1040 C   0  0  0  0  0  0  0  0  0  0  0  0
  -24.4750   -9.5720   22.0730 C   0  0  0  0  0  3  0  0  0  0  0  0
  -23.7410   -8.3730   22.1900 C   0  0  0  0  0  3  0  0  0  0  0  0
  -22.6390   -8.1300   21.3370 C   0  0  0  0  0  0  0  0  0  0  0  0
  -22.3060   -9.0820   20.3570 C   0  0  0  0  0  3  0  0  0  0  0  0
  -23.0410  -10.2740   20.2380 C   0  0  0  0  0  3  0  0  0  0  0  0
  -21.8810   -6.9840   21.3620 O   0  0  0  0  0  0  0  0  0  0  0  0
  -21.7730   -6.2190   22.4950 C   0  0  0  0  0  0  0  0  0  0  0  0
  -21.2950   -6.7520   23.7120 C   0  0  0  0  0  3  0  0  0  0  0  0
  -21.1330   -5.9130   24.8320 C   0  0  0  0  0  3  0  0  0  0  0  0
  -21.4390   -4.5420   24.7370 C   0  0  0  0  0  0  0  0  0  0  0  0
  -21.9090   -4.0080   23.5230 C   0  0  0  0  0  3  0  0  0  0  0  0
  -22.0720   -4.8440   22.4060 C   0  0  0  0  0  0  0  0  0  0  0  0
  -22.5070   -4.3210   21.2330 F   0  0  0  0  0  0  0  0  0  0  0  0
  -21.2760   -3.7350   25.8110 F   0  0  0  0  0  0  0  0  0  0  0  0
  -22.9640  -13.6190   21.0220 C   0  0  0  0  0  0  0  0  0  0  0  0
  -22.1450  -12.9390   21.8180 N   0  0  0  0  0  0  0  0  0  0  0  0
  -22.5810  -14.6250   20.4260 O   0  0  0  0  0  0  0  0  0  0  0  0
  -22.4650  -12.1280   22.3240 H   0  0  0  0  0  0  0  0  0  0  0  0
  -21.1850  -13.2360   21.9230 H   0  0  0  0  0  0  0  0  0  0  0  0
  -25.6490  -15.2880   20.4940 N   0  0  0  0  0  0  0  0  0  0  0  0
  -24.8700  -15.9360   20.5130 H   0  0  0  0  0  0  0  0  0  0  0  0
  -26.5330  -15.7310   20.2830 H   0  0  0  0  0  0  0  0  0  0  0  0
  -28.4990  -16.8390   18.8610 C   0  0  0  0  0  1  0  0  0  0  0  0
  -29.8870  -16.3130   19.2580 C   0  0  0  0  0  2  0  0  0  0  0  0
  -30.0800  -22.6080   20.4770 C   0  0  0  0  0  2  0  0  0  0  0  0
  -29.5210  -23.8280   19.5510 C   0  0  0  0  0  2  0  0  0  0  0  0
  -28.9520  -25.1890   20.2410 C   0  0  0  0  0  2  0  0  0  0  0  0
  -28.9230  -26.5370   19.5770 O   0  0  0  0  0  0  0  0  0  0  0  0
  -24.8980  -31.5430   22.9960 C   0  0  0  0  0  0  0  0  0  0  0  0
  -27.7590  -27.3340   19.6470 C   0  0  0  0  0  0  0  0  0  0  0  0
  -23.7710  -30.1930   21.2630 C   0  0  0  0  0  3  0  0  0  0  0  0
  -25.3050  -28.8230   19.7350 C   0  0  0  0  0  0  0  0  0  0  0  0
  -26.2880  -30.6680   21.0980 C   0  0  0  0  0  2  0  0  0  0  0  0
  -26.4480  -29.3370   20.3610 C   0  0  0  0  0  0  0  0  0  0  0  0
  -27.6800  -28.6110   20.2990 C   0  0  0  0  0  3  0  0  0  0  0  0
  -26.5910  -26.8760   19.0050 C   0  0  0  0  0  3  0  0  0  0  0  0
  -25.3810  -27.6010   19.0430 C   0  0  0  0  0  3  0  0  0  0  0  0
  -24.0190  -29.6230   19.8410 C   0  0  0  0  0  2  0  0  0  0  0  0
  -25.0040  -30.8170   21.8430 N   0  0  0  0  0  0  0  0  0  0  0  0
  -23.8030  -31.7160   23.5500 O   0  0  0  0  0  0  0  0  0  0  0  0
  -23.1730  -29.0760   22.1530 C   0  0  0  0  0  0  0  0  0  0  0  0
  -21.8560  -28.8400   22.0270 N   0  0  0  0  0  0  0  0  0  0  0  0
  -23.8930  -28.4300   22.9180 O   0  0  0  0  0  0  0  0  0  0  0  0
  -21.3300  -29.4180   21.3880 H   0  0  0  0  0  0  0  0  0  0  0  0
  -18.5500  -27.4400   22.4780 C   0  0  0  0  0  0  0  0  0  0  0  0
  -21.0970  -27.8050   22.7320 C   0  0  0  0  0  3  0  0  0  0  0  0
  -21.2580  -26.4300   22.0450 C   0  0  0  0  0  2  0  0  0  0  0  0
  -20.1540  -26.1320   21.0240 C   0  0  0  0  0  2  0  0  0  0  0  0
  -18.7790  -26.1580   21.6960 C   0  0  0  0  0  2  0  0  0  0  0  0
  -19.6370  -28.2220   22.9510 C   0  0  0  0  0  0  0  0  0  0  0  0
  -19.3660  -29.4220   23.6410 C   0  0  0  0  0  3  0  0  0  0  0  0
  -18.0400  -29.8430   23.8640 C   0  0  0  0  0  3  0  0  0  0  0  0
  -16.9680  -29.0560   23.4060 C   0  0  0  0  0  3  0  0  0  0  0  0
  -17.2250  -27.8580   22.7180 C   0  0  0  0  0  3  0  0  0  0  0  0
  -26.1430  -32.2060   23.6610 C   0  0  0  0  0  3  0  0  0  0  0  0
  -25.7480  -33.5530   24.0970 N   0  0  0  0  0  0  0  0  0  0  0  0
  -26.0200  -34.6820   23.4300 C   0  0  0  0  0  0  0  0  0  0  0  0
  -26.6970  -34.7010   22.3980 O   0  0  0  0  0  0  0  0  0  0  0  0
  -25.1440  -33.6060   24.9050 H   0  0  0  0  0  0  0  0  0  0  0  0
  -24.1810  -36.3860   23.2190 C   0  0  0  0  0  1  0  0  0  0  0  0
  -25.4510  -35.9980   23.9940 C   0  0  0  0  0  3  0  0  0  0  0  0
  -27.5350  -36.9490   24.8810 C   0  0  0  0  0  1  0  0  0  0  0  0
  -26.4160  -37.1200   23.9590 N   0  0  0  0  0  0  0  0  0  0  0  0
  -25.9540  -37.9970   24.1800 H   0  0  0  0  0  0  0  0  0  0  0  0
  -26.7140  -31.3750   24.8750 C   0  0  1  0  0  0  0  0  0  0  0  0
  -25.6490  -30.9990   25.9320 C   0  0  0  0  0  1  0  0  0  0  0  0
  -27.3690  -30.0640   24.3800 C   0  0  0  0  0  1  0  0  0  0  0  0
  -27.8260  -32.1830   25.5850 C   0  0  0  0  0  1  0  0  0  0  0  0
  1  2  1  0
  2  9  1  0
  3  1  2  0
  4  2  2  0
  5  3  1  0
  5 49  1  0
  5  4  1  0
  6  8  1  0
  8  3  1  0
  8  7  1  0
 10 17  2  0
 11 16  1  0
 12 13  1  0
 12 11  1  0
 14 13  1  0
 14 22  1  0
 14 15  1  0
 16 10  1  0
 16 15  1  0
 18 10  1  0
 18  9  1  0
 19 20  2  0
 20 21  1  0
 20 39  1  0
 21 24  1  0
 22 19  1  0
 22 23  1  0
 23 21  2  0
 24 25  1  0
 25 26  2  0
 27 30  1  0
 27 26  1  0
 28 27  2  0
 29 28  1  0
 29 24  2  0
 30 31  1  0
 31 32  1  0
 32 33  2  0
 34 33  1  0
 34 38  1  0
 35 34  2  0
 36 31  2  0
 36 35  1  0
 37 36  1  0
 39 40  1  0
 40 43  1  0
 40 42  1  0
 41 39  2  0
 44 45  1  0
 44 19  1  0
 46 44  1  0
 47 48  1  0
 48 18  1  0
 50 51  1  0
 50 49  1  0
 52 54  1  0
 52 51  1  0
 53 64  2  0
 54 59  1  0
 55 63  1  0
 55 65  1  0
 56 62  1  0
 56 58  1  0
 57 63  1  0
 58 57  1  0
 59 58  2  0
 60 61  1  0
 60 54  2  0
 61 56  2  0
 62 55  1  0
 63 53  1  0
 65 67  2  0
 66 65  1  0
 68 66  1  0
 69 78  2  0
 69 74  1  0
 70 66  1  0
 70 74  1  0
 71 70  1  0
 72 73  1  0
 72 71  1  0
 73 69  1  0
 74 75  2  0
 75 76  1  0
 77 76  2  0
 78 77  1  0
 79 53  1  0
 79 80  1  0
 79 89  1  0
 80 83  1  0
 81 85  1  0
 81 80  1  0
 82 81  2  0
 85 84  1  0
 87 85  1  0
 87 88  1  0
 87 86  1  0
 89 92  1  1
 89 90  1  0
 91 89  1  0
M  ISO  4  10 100  18 100  51 101  52 101
M  END
>  <TORSDO>  (32) 
F 22

>  <SCORE>  (32) 
-11.116

>  <name>  (32) 
31

>  <ligand_id>  (32) 
31

>  <original_smiles>  (32) 
[H]c1c([H])c([H])c2c(c1[H])C([H])([H])C([H])([H])C([H])([H])C2([H])N([H])C(=O)C1([H])N(C(=O)C([H])(N([H])C(=O)C([H])(N([H])C([H])([H])[H])C([H])([H])[H])C(C([H])([H])[H])(C([H])([H])[H])C([H])([H])[H])C([H])([H])c2c([H])c(OC([H])([H])C([H])([H])C([H])([H])n3nc(C([H])([H])N(C(=O)N4C([H])([H])C([H])([H])C([H])([H])C([H])(n5nc(-c6c([H])c([H])c(Oc7c([H])c([H])c(F)c([H])c7F)c([H])c6[H])c(C(=O)N([H])[H])c5N([H])[H])C4([H])[H])C([H])([H])C([H])([H])[H])c([H])c3C([H])(C([H])([H])[H])C([H])([H])[H])c([H])c([H])c2C1([H])[H]

>  <smiles>  (32) 
[H]c1c([H])c([H])c2c(c1[H])C([H])([H])C([H])([H])C([H])([H])C2([H])N([H])C(=O)C1([H])N(C(=O)C([H])(N([H])C(=O)C([H])(N([H])C([H])([H])[H])C([H])([H])[H])C(C([H])([H])[H])(C([H])([H])[H])C([H])([H])[H])C([H])([H])c2c([H])c(OC([H])([H])C([H])([H])C([H])([H])n3nc(C([H])([H])N(C(=O)N4C([H])([H])C([H])([H])C([H])([H])C([H])(n5nc(-c6c([H])c([H])c(Oc7c([H])c([H])c(F)c([H])c7F)c([H])c6[H])c(C(=O)N([H])[H])c5N([H])[H])C4([H])[H])C([H])([H])C([H])([H])[H])c([H])c3C([H])(C([H])([H])[H])C([H])([H])[H])c([H])c([H])c2C1([H])[H]

$$$$
32:0:0
     RDKit          3D

 92100  0  0  1  0  0  0  0  0999 V2000
  -30.2890  -19.3380   20.4180 C   0  0  0  0  0  3  0  0  0  0  0  0
  -30.5130  -20.6490   20.9380 C   0  0  0  0  0  0  0  0  0  0  0  0
  -30.6650  -18.4280   21.3920 C   0  0  0  0  0  0  0  0  0  0  0  0
  -31.5750  -18.8440   23.7520 C   0  0  0  0  0  1  0  0  0  0  0  0
  -31.0080  -20.5690   22.1630 N   0  0  0  0  0  0  0  0  0  0  0  0
  -31.0870  -19.2420   22.4400 N   0  0  0  0  0  0  0  0  0  0  0  0
  -30.3700  -22.0060   20.2300 C   0  0  0  0  0  3  0  0  0  0  0  0
  -29.4350  -23.0640   20.8970 C   0  0  0  0  0  3  0  0  0  0  0  0
  -29.3320  -24.4360   20.1400 C   0  0  0  0  0  2  0  0  0  0  0  0
  -28.2810  -25.4370   20.7120 C   0  0  0  0  0  2  0  0  0  0  0  0
  -28.3400  -26.7650   20.1350 O   0  0  0  0  0  0  0  0  0  0  0  0
  -24.5160  -31.9480   23.2670 C   0  0  0  0  0  0  0  0  0  0  0  0
  -27.1710  -27.5110   20.1640 C   0  0  0  0  0  0  0  0  0  0  0  0
  -23.3110  -30.5520   21.6200 C   0  0  0  0  0  3  0  0  0  0  0  0
  -24.7660  -29.0280   20.1810 C   0  0  0  0  0  0  0  0  0  0  0  0
  -25.8360  -30.9190   21.4130 C   0  0  0  0  0  2  0  0  0  0  0  0
  -25.9270  -29.5490   20.7670 C   0  0  0  0  0  0  0  0  0  0  0  0
  -27.1330  -28.8020   20.7490 C   0  0  0  0  0  3  0  0  0  0  0  0
  -25.9910  -27.0140   19.5660 C   0  0  0  0  0  3  0  0  0  0  0  0
  -24.7960  -27.7610   19.5710 C   0  0  0  0  0  3  0  0  0  0  0  0
  -23.5200  -29.8870   20.2350 C   0  0  0  0  0  2  0  0  0  0  0  0
  -24.5730  -31.1550   22.1580 N   0  0  0  0  0  0  0  0  0  0  0  0
  -23.4360  -32.2130   23.8140 O   0  0  0  0  0  0  0  0  0  0  0  0
  -22.6630  -29.5240   22.5760 C   0  0  0  0  0  0  0  0  0  0  0  0
  -21.3460  -29.3140   22.4270 N   0  0  0  0  0  0  0  0  0  0  0  0
  -23.3480  -28.9150   23.4040 O   0  0  0  0  0  0  0  0  0  0  0  0
  -20.8550  -29.8610   21.7340 H   0  0  0  0  0  0  0  0  0  0  0  0
  -17.9920  -28.0340   22.8530 C   0  0  0  0  0  0  0  0  0  0  0  0
  -20.5340  -28.3640   23.1880 C   0  0  0  0  0  3  0  0  0  0  0  0
  -20.6900  -26.9290   22.6330 C   0  0  0  0  0  2  0  0  0  0  0  0
  -19.6220  -26.5660   21.5940 C   0  0  0  0  0  2  0  0  0  0  0  0
  -18.2210  -26.6810   22.2010 C   0  0  0  0  0  2  0  0  0  0  0  0
  -19.0780  -28.8310   23.3020 C   0  0  0  0  0  0  0  0  0  0  0  0
  -18.8100  -30.0960   23.8700 C   0  0  0  0  0  3  0  0  0  0  0  0
  -17.4890  -30.5630   23.9980 C   0  0  0  0  0  3  0  0  0  0  0  0
  -16.4160  -29.7620   23.5640 C   0  0  0  0  0  3  0  0  0  0  0  0
  -16.6690  -28.5010   22.9960 C   0  0  0  0  0  3  0  0  0  0  0  0
  -25.8020  -32.5790   23.8870 C   0  0  0  0  0  3  0  0  0  0  0  0
  -25.5020  -33.9830   24.1970 N   0  0  0  0  0  0  0  0  0  0  0  0
  -25.8570  -35.0230   23.4300 C   0  0  0  0  0  0  0  0  0  0  0  0
  -26.5400  -34.9010   22.4100 O   0  0  0  0  0  0  0  0  0  0  0  0
  -24.8970  -34.1540   24.9870 H   0  0  0  0  0  0  0  0  0  0  0  0
  -24.1630  -36.8340   23.0080 C   0  0  0  0  0  1  0  0  0  0  0  0
  -25.3730  -36.4200   23.8620 C   0  0  0  0  0  3  0  0  0  0  0  0
  -27.4870  -37.2860   24.7560 C   0  0  0  0  0  1  0  0  0  0  0  0
  -26.4220  -37.4580   23.7730 N   0  0  0  0  0  0  0  0  0  0  0  0
  -26.0230  -38.3850   23.8990 H   0  0  0  0  0  0  0  0  0  0  0  0
  -26.3050  -31.8200   25.1760 C   0  0  1  0  0  0  0  0  0  0  0  0
  -25.2040  -31.6020   26.2400 C   0  0  0  0  0  1  0  0  0  0  0  0
  -26.8850  -30.4340   24.8030 C   0  0  0  0  0  1  0  0  0  0  0  0
  -27.4580  -32.6120   25.8370 C   0  0  0  0  0  1  0  0  0  0  0  0
  -30.7510  -16.8850   21.5510 C   0  0  0  0  0  2  0  0  0  0  0  0
  -30.7340  -14.7080   20.3530 C   0  0  0  0  0  0  0  0  0  0  0  0
  -30.3950  -12.4990   19.2870 C   0  0  0  0  0  2  0  0  0  0  0  0
  -29.4540  -12.6410   18.0760 C   0  0  0  0  0  2  0  0  0  0  0  0
  -27.9840  -12.4800   18.5100 C   0  0  0  0  0  2  0  0  0  0  0  0
  -27.6220  -13.3230   19.7630 C   0  0  0  0  0  3  0  0  0  0  0  0
  -28.7090  -13.2410   20.8640 C   0  0  0  0  0  2  0  0  0  0  0  0
  -30.0120  -13.5440   20.2540 N   0  0  0  0  0  0  0  0  0  0  0  0
  -31.9150  -14.7570   20.0090 O   0  0  0  0  0  0  0  0  0  0  0  0
  -30.0840  -15.8850   20.6380 N   0  0  0  0  0  0  0  0  0  0  0  0
  -25.2180  -13.8560   20.5080 C   0  0  0  0  0  0  0  0  0  0  0  0
  -24.1780  -13.0600   20.8910 C   0  0  0  0  0  0  0  0  0  0  0  0
  -24.6740  -11.7230   20.8450 C   0  0  0  0  0  0  0  0  0  0  0  0
  -26.2900  -13.0080   20.2680 N   0  0  0  0  0  0  0  0  0  0  0  0
  -25.9650  -11.7170   20.5300 N   0  0  0  0  0  0  0  0  0  0  0  0
  -23.9740  -10.4490   21.0240 C   0  0  0  0  0  0  0  0  0  0  0  0
  -24.4040   -9.4950   21.9710 C   0  0  0  0  0  3  0  0  0  0  0  0
  -23.6960   -8.2850   22.1370 C   0  0  0  0  0  3  0  0  0  0  0  0
  -22.5440   -8.0260   21.3590 C   0  0  0  0  0  0  0  0  0  0  0  0
  -22.1340   -8.9690   20.3990 C   0  0  0  0  0  3  0  0  0  0  0  0
  -22.8440  -10.1690   20.2290 C   0  0  0  0  0  3  0  0  0  0  0  0
  -21.8110   -6.8680   21.4360 O   0  0  0  0  0  0  0  0  0  0  0  0
  -21.7190   -6.1540   22.6040 C   0  0  0  0  0  0  0  0  0  0  0  0
  -21.1770   -6.7160   23.7810 C   0  0  0  0  0  3  0  0  0  0  0  0
  -21.0320   -5.9250   24.9370 C   0  0  0  0  0  3  0  0  0  0  0  0
  -21.4230   -4.5720   24.9180 C   0  0  0  0  0  0  0  0  0  0  0  0
  -21.9570   -4.0090   23.7470 C   0  0  0  0  0  3  0  0  0  0  0  0
  -22.1010   -4.7970   22.5910 C   0  0  0  0  0  0  0  0  0  0  0  0
  -22.5980   -4.2430   21.4570 F   0  0  0  0  0  0  0  0  0  0  0  0
  -21.2780   -3.8090   26.0270 F   0  0  0  0  0  0  0  0  0  0  0  0
  -22.7740  -13.5140   21.1740 C   0  0  0  0  0  0  0  0  0  0  0  0
  -22.0650  -12.8010   22.0410 N   0  0  0  0  0  0  0  0  0  0  0  0
  -22.3180  -14.5400   20.6710 O   0  0  0  0  0  0  0  0  0  0  0  0
  -22.4500  -11.9760   22.4770 H   0  0  0  0  0  0  0  0  0  0  0  0
  -21.1270  -13.0890   22.2770 H   0  0  0  0  0  0  0  0  0  0  0  0
  -25.3030  -15.2240   20.3120 N   0  0  0  0  0  0  0  0  0  0  0  0
  -24.4680  -15.7980   20.3540 H   0  0  0  0  0  0  0  0  0  0  0  0
  -26.0990  -15.7080   19.9200 H   0  0  0  0  0  0  0  0  0  0  0  0
  -29.3020  -16.4480   19.5300 C   0  0  0  0  0  2  0  0  0  0  0  0
  -27.1470  -17.6330   18.8520 C   0  0  0  0  0  1  0  0  0  0  0  0
  -27.9940  -17.1000   20.0140 C   0  0  0  0  0  2  0  0  0  0  0  0
  1  2  1  0
  1  3  2  0
  2  5  2  0
  3 52  1  0
  3  6  1  0
  5  6  1  0
  6  4  1  0
  7  8  2  0
  7  2  1  0
  9 10  1  0
  9  8  1  0
 11 13  1  0
 11 10  1  0
 12 23  2  0
 13 18  1  0
 14 22  1  0
 14 24  1  0
 15 21  1  0
 15 17  1  0
 16 22  1  0
 17 16  1  0
 18 17  2  0
 19 20  1  0
 19 13  2  0
 20 15  2  0
 21 14  1  0
 22 12  1  0
 24 26  2  0
 25 24  1  0
 27 25  1  0
 28 37  2  0
 28 33  1  0
 29 25  1  0
 29 33  1  0
 30 29  1  0
 31 32  1  0
 31 30  1  0
 32 28  1  0
 33 34  2  0
 34 35  1  0
 36 35  2  0
 37 36  1  0
 38 12  1  0
 38 39  1  0
 38 48  1  0
 39 42  1  0
 40 44  1  0
 40 39  1  0
 41 40  2  0
 44 43  1  0
 46 44  1  0
 46 47  1  0
 46 45  1  0
 48 51  1  1
 48 49  1  0
 50 48  1  0
 53 61  1  0
 54 59  1  0
 55 56  1  0
 55 54  1  0
 57 56  1  0
 57 65  1  0
 57 58  1  0
 59 53  1  0
 59 58  1  0
 60 53  2  0
 61 52  1  0
 62 63  2  0
 63 82  1  0
 64 63  1  0
 64 67  1  0
 65 62  1  0
 65 66  1  0
 66 64  2  0
 67 68  1  0
 68 69  2  0
 70 73  1  0
 70 69  1  0
 71 70  2  0
 72 71  1  0
 72 67  2  0
 73 74  1  0
 74 75  1  0
 75 76  2  0
 77 76  1  0
 77 81  1  0
 78 77  2  0
 79 74  2  0
 79 78  1  0
 80 79  1  0
 82 83  1  0
 83 86  1  0
 83 85  1  0
 84 82  2  0
 87 88  1  0
 87 62  1  0
 89 87  1  0
 90 92  1  0
 90 61  1  0
 91 92  1  0
M  ISO  4  10 101  11 101  53 100  61 100
M  END
>  <TORSDO>  (33) 
F 23

>  <SCORE>  (33) 
-12.476

>  <name>  (33) 
32

>  <ligand_id>  (33) 
32

>  <original_smiles>  (33) 
[H]c1c([H])c([H])c2c(c1[H])C([H])([H])C([H])([H])C([H])([H])C2([H])N([H])C(=O)C1([H])N(C(=O)C([H])(N([H])C(=O)C([H])(N([H])C([H])([H])[H])C([H])([H])[H])C(C([H])([H])[H])(C([H])([H])[H])C([H])([H])[H])C([H])([H])c2c([H])c(OC([H])([H])C([H])([H])C([H])([H])C([H])([H])c3nn(C([H])([H])[H])c(C([H])([H])N(C(=O)N4C([H])([H])C([H])([H])C([H])([H])C([H])(n5nc(-c6c([H])c([H])c(Oc7c([H])c([H])c(F)c([H])c7F)c([H])c6[H])c(C(=O)N([H])[H])c5N([H])[H])C4([H])[H])C([H])([H])C([H])([H])C([H])([H])[H])c3[H])c([H])c([H])c2C1([H])[H]

>  <smiles>  (33) 
[H]c1c([H])c([H])c2c(c1[H])C([H])([H])C([H])([H])C([H])([H])C2([H])N([H])C(=O)C1([H])N(C(=O)C([H])(N([H])C(=O)C([H])(N([H])C([H])([H])[H])C([H])([H])[H])C(C([H])([H])[H])(C([H])([H])[H])C([H])([H])[H])C([H])([H])c2c([H])c(OC([H])([H])C([H])([H])C([H])([H])C([H])([H])c3nn(C([H])([H])[H])c(C([H])([H])N(C(=O)N4C([H])([H])C([H])([H])C([H])([H])C([H])(n5nc(-c6c([H])c([H])c(Oc7c([H])c([H])c(F)c([H])c7F)c([H])c6[H])c(C(=O)N([H])[H])c5N([H])[H])C4([H])[H])C([H])([H])C([H])([H])C([H])([H])[H])c3[H])c([H])c([H])c2C1([H])[H]

$$$$
33:0:0
     RDKit          3D

 88 96  0  0  1  0  0  0  0  0999 V2000
  -29.9930  -22.8570   19.3840 C   0  0  0  0  0  3  0  0  0  0  0  0
  -28.8190  -23.1080   20.1680 C   0  0  0  0  0  0  0  0  0  0  0  0
  -30.2830  -21.4890   19.3930 C   0  0  0  0  0  0  0  0  0  0  0  0
  -31.4050  -20.7840   18.7080 C   0  0  0  0  0  1  0  0  0  0  0  0
  -28.4770  -21.8140   20.6070 N   0  0  0  0  0  0  0  0  0  0  0  0
  -29.3520  -20.7710   20.1470 N   0  0  0  0  0  0  0  0  0  0  0  0
  -27.9140  -24.5060   20.4180 C   0  0  0  0  0  2  0  0  0  0  0  0
  -28.2830  -26.0420   20.2550 O   0  0  0  0  0  0  0  0  0  0  0  0
  -24.6480  -31.8540   23.1720 C   0  0  0  0  0  0  0  0  0  0  0  0
  -27.2460  -27.0700   20.2040 C   0  0  0  0  0  0  0  0  0  0  0  0
  -23.4600  -30.4350   21.5470 C   0  0  0  0  0  3  0  0  0  0  0  0
  -24.9190  -28.8480   20.1440 C   0  0  0  0  0  0  0  0  0  0  0  0
  -26.0180  -30.6940   21.3930 C   0  0  0  0  0  2  0  0  0  0  0  0
  -26.0990  -29.2900   20.7560 C   0  0  0  0  0  0  0  0  0  0  0  0
  -27.2630  -28.4180   20.7680 C   0  0  0  0  0  3  0  0  0  0  0  0
  -26.0410  -26.7570   19.5340 C   0  0  0  0  0  3  0  0  0  0  0  0
  -24.9060  -27.5970   19.5150 C   0  0  0  0  0  3  0  0  0  0  0  0
  -23.6900  -29.7460   20.1780 C   0  0  0  0  0  2  0  0  0  0  0  0
  -24.7290  -31.0180   22.0920 N   0  0  0  0  0  0  0  0  0  0  0  0
  -23.5580  -32.1400   23.6930 O   0  0  0  0  0  0  0  0  0  0  0  0
  -22.7800  -29.4370   22.5180 C   0  0  0  0  0  0  0  0  0  0  0  0
  -21.4490  -29.2730   22.4040 N   0  0  0  0  0  0  0  0  0  0  0  0
  -23.4530  -28.8100   23.3410 O   0  0  0  0  0  0  0  0  0  0  0  0
  -20.9610  -29.8300   21.7160 H   0  0  0  0  0  0  0  0  0  0  0  0
  -18.0650  -28.0950   22.9490 C   0  0  0  0  0  0  0  0  0  0  0  0
  -20.6290  -28.3450   23.1880 C   0  0  0  0  0  3  0  0  0  0  0  0
  -20.7150  -26.9090   22.6170 C   0  0  0  0  0  2  0  0  0  0  0  0
  -19.6000  -26.5900   21.6150 C   0  0  0  0  0  2  0  0  0  0  0  0
  -18.2270  -26.7440   22.2730 C   0  0  0  0  0  2  0  0  0  0  0  0
  -19.1930  -28.8540   23.3640 C   0  0  0  0  0  0  0  0  0  0  0  0
  -18.9850  -30.1170   23.9590 C   0  0  0  0  0  3  0  0  0  0  0  0
  -17.6850  -30.6240   24.1410 C   0  0  0  0  0  3  0  0  0  0  0  0
  -16.5730  -29.8630   23.7400 C   0  0  0  0  0  3  0  0  0  0  0  0
  -16.7630  -28.6000   23.1510 C   0  0  0  0  0  3  0  0  0  0  0  0
  -25.9190  -32.5060   23.7960 C   0  0  0  0  0  3  0  0  0  0  0  0
  -26.4390  -31.7450   25.0780 C   0  0  1  0  0  0  0  0  0  0  0  0
  -25.3470  -31.5030   26.1450 C   0  0  0  0  0  1  0  0  0  0  0  0
  -27.0350  -30.3700   24.6990 C   0  0  0  0  0  1  0  0  0  0  0  0
  -27.5830  -32.5520   25.7370 C   0  0  0  0  0  1  0  0  0  0  0  0
  -25.5910  -33.9020   24.1280 N   0  0  0  0  0  0  0  0  0  0  0  0
  -25.9130  -34.9630   23.3780 C   0  0  0  0  0  0  0  0  0  0  0  0
  -26.5810  -34.8720   22.3450 O   0  0  0  0  0  0  0  0  0  0  0  0
  -24.9950  -34.0450   24.9300 H   0  0  0  0  0  0  0  0  0  0  0  0
  -24.1700  -36.7480   23.0380 C   0  0  0  0  0  1  0  0  0  0  0  0
  -25.4150  -36.3470   23.8450 C   0  0  0  0  0  3  0  0  0  0  0  0
  -27.5420  -37.2460   24.6810 C   0  0  0  0  0  1  0  0  0  0  0  0
  -26.4400  -37.4090   23.7380 N   0  0  0  0  0  0  0  0  0  0  0  0
  -26.0260  -38.3250   23.8890 H   0  0  0  0  0  0  0  0  0  0  0  0
  -29.2350  -19.2070   20.5310 C   0  0  0  0  0  3  0  0  0  0  0  0
  -30.0760  -17.8240   19.9200 C   0  0  0  0  0  3  0  0  0  0  0  0
  -30.5690  -15.0550   19.9960 C   0  0  0  0  0  0  0  0  0  0  0  0
  -30.4120  -12.7200   18.9480 C   0  0  0  0  0  2  0  0  0  0  0  0
  -29.3950  -12.6770   17.7780 C   0  0  0  0  0  2  0  0  0  0  0  0
  -27.9630  -12.4330   18.2910 C   0  0  0  0  0  2  0  0  0  0  0  0
  -27.6330  -13.3020   19.5320 C   0  0  0  0  0  3  0  0  0  0  0  0
  -28.7630  -13.2360   20.5780 C   0  0  0  0  0  2  0  0  0  0  0  0
  -29.9750  -13.7730   19.9260 N   0  0  0  0  0  0  0  0  0  0  0  0
  -31.7110  -15.1190   19.5190 O   0  0  0  0  0  0  0  0  0  0  0  0
  -29.0170  -16.2240   21.5510 C   0  0  0  0  0  1  0  0  0  0  0  0
  -29.8630  -16.2790   20.3560 N   0  0  0  0  0  0  0  0  0  0  0  0
  -25.3000  -13.8510   20.4220 C   0  0  0  0  0  0  0  0  0  0  0  0
  -24.2640  -13.0640   20.8410 C   0  0  0  0  0  0  0  0  0  0  0  0
  -24.7290  -11.7160   20.7510 C   0  0  0  0  0  0  0  0  0  0  0  0
  -26.3290  -12.9840   20.1010 N   0  0  0  0  0  0  0  0  0  0  0  0
  -25.9990  -11.6920   20.3610 N   0  0  0  0  0  0  0  0  0  0  0  0
  -24.0180  -10.4470   20.9560 C   0  0  0  0  0  0  0  0  0  0  0  0
  -24.4790   -9.4820   21.8790 C   0  0  0  0  0  3  0  0  0  0  0  0
  -23.7650   -8.2800   22.0740 C   0  0  0  0  0  3  0  0  0  0  0  0
  -22.5780   -8.0330   21.3450 C   0  0  0  0  0  0  0  0  0  0  0  0
  -22.1370   -8.9860   20.4100 C   0  0  0  0  0  3  0  0  0  0  0  0
  -22.8510  -10.1800   20.2130 C   0  0  0  0  0  3  0  0  0  0  0  0
  -21.8340   -6.8820   21.4480 O   0  0  0  0  0  0  0  0  0  0  0  0
  -21.7800   -6.1640   22.6150 C   0  0  0  0  0  0  0  0  0  0  0  0
  -21.3340   -6.7420   23.8250 C   0  0  0  0  0  3  0  0  0  0  0  0
  -21.2270   -5.9490   24.9860 C   0  0  0  0  0  3  0  0  0  0  0  0
  -21.5550   -4.5810   24.9370 C   0  0  0  0  0  0  0  0  0  0  0  0
  -21.9940   -4.0040   23.7330 C   0  0  0  0  0  3  0  0  0  0  0  0
  -22.1030   -4.7930   22.5740 C   0  0  0  0  0  0  0  0  0  0  0  0
  -22.5060   -4.2280   21.4110 F   0  0  0  0  0  0  0  0  0  0  0  0
  -21.4440   -3.8170   26.0490 F   0  0  0  0  0  0  0  0  0  0  0  0
  -22.8850  -13.5300   21.2080 C   0  0  0  0  0  0  0  0  0  0  0  0
  -22.2140  -12.8150   22.1060 N   0  0  0  0  0  0  0  0  0  0  0  0
  -22.4130  -14.5630   20.7350 O   0  0  0  0  0  0  0  0  0  0  0  0
  -22.6110  -11.9790   22.5080 H   0  0  0  0  0  0  0  0  0  0  0  0
  -21.2930  -13.1100   22.3960 H   0  0  0  0  0  0  0  0  0  0  0  0
  -25.4430  -15.2260   20.2630 N   0  0  0  0  0  0  0  0  0  0  0  0
  -24.6780  -15.8710   20.4320 H   0  0  0  0  0  0  0  0  0  0  0  0
  -26.2630  -15.6760   19.8750 H   0  0  0  0  0  0  0  0  0  0  0  0
  1  3  2  0
  1  2  1  0
  2  7  1  0
  2  5  2  0
  3  6  1  0
  4  3  1  0
  6 49  1  0
  6  5  1  0
  8  7  1  0
  9 20  2  0
 10  8  1  0
 10 15  1  0
 11 19  1  0
 11 21  1  0
 12 18  1  0
 12 14  1  0
 13 19  1  0
 14 15  2  0
 14 13  1  0
 16 10  2  0
 17 16  1  0
 17 12  2  0
 18 11  1  0
 19  9  1  0
 21 23  2  0
 22 21  1  0
 24 22  1  0
 25 34  2  0
 25 30  1  0
 26 22  1  0
 26 30  1  0
 27 26  1  0
 28 29  1  0
 28 27  1  0
 29 25  1  0
 30 31  2  0
 31 32  1  0
 33 32  2  0
 34 33  1  0
 35  9  1  0
 35 40  1  0
 35 36  1  0
 36 39  1  1
 36 37  1  0
 38 36  1  0
 40 43  1  0
 41 45  1  0
 41 40  1  0
 42 41  2  0
 45 44  1  0
 47 45  1  0
 47 48  1  0
 47 46  1  0
 50 60  1  0
 50 49  2  0
 51 60  1  0
 52 57  1  0
 53 54  1  0
 53 52  1  0
 55 54  1  0
 55 64  1  0
 55 56  1  0
 57 51  1  0
 57 56  1  0
 58 51  2  0
 60 59  1  0
 61 62  2  0
 62 81  1  0
 63 62  1  0
 63 66  1  0
 64 65  1  0
 64 61  1  0
 65 63  2  0
 66 67  1  0
 67 68  2  0
 69 72  1  0
 69 68  1  0
 70 69  2  0
 71 70  1  0
 71 66  2  0
 72 73  1  0
 73 74  1  0
 74 75  2  0
 76 75  1  0
 76 80  1  0
 77 76  2  0
 78 73  2  0
 78 77  1  0
 79 78  1  0
 81 82  1  0
 82 85  1  0
 82 84  1  0
 83 81  2  0
 86 61  1  0
 86 87  1  0
 88 86  1  0
M  ISO  4   7 101   8 101  51 100  60 100
M  END
>  <TORSDO>  (34) 
F 19

>  <SCORE>  (34) 
-14.283

>  <name>  (34) 
33

>  <ligand_id>  (34) 
33

>  <original_smiles>  (34) 
[H]c1c([H])c([H])c2c(c1[H])C([H])([H])C([H])([H])C([H])([H])C2([H])N([H])C(=O)C1([H])N(C(=O)C([H])(N([H])C(=O)C([H])(N([H])C([H])([H])[H])C([H])([H])[H])C(C([H])([H])[H])(C([H])([H])[H])C([H])([H])[H])C([H])([H])c2c([H])c(OC([H])([H])c3nn(C([H])([H])C([H])([H])N(C(=O)N4C([H])([H])C([H])([H])C([H])([H])C([H])(n5nc(-c6c([H])c([H])c(Oc7c([H])c([H])c(F)c([H])c7F)c([H])c6[H])c(C(=O)N([H])[H])c5N([H])[H])C4([H])[H])C([H])([H])[H])c(C([H])([H])[H])c3[H])c([H])c([H])c2C1([H])[H]

>  <smiles>  (34) 
[H]c1c([H])c([H])c2c(c1[H])C([H])([H])C([H])([H])C([H])([H])C2([H])N([H])C(=O)C1([H])N(C(=O)C([H])(N([H])C(=O)C([H])(N([H])C([H])([H])[H])C([H])([H])[H])C(C([H])([H])[H])(C([H])([H])[H])C([H])([H])[H])C([H])([H])c2c([H])c(OC([H])([H])c3nn(C([H])([H])C([H])([H])N(C(=O)N4C([H])([H])C([H])([H])C([H])([H])C([H])(n5nc(-c6c([H])c([H])c(Oc7c([H])c([H])c(F)c([H])c7F)c([H])c6[H])c(C(=O)N([H])[H])c5N([H])[H])C4([H])[H])C([H])([H])[H])c(C([H])([H])[H])c3[H])c([H])c([H])c2C1([H])[H]

$$$$
34:0:0
     RDKit          3D

 92100  0  0  1  0  0  0  0  0999 V2000
  -28.5880  -21.7880   19.4570 C   0  0  0  0  0  2  0  0  0  0  0  0
  -26.9990  -22.7150   21.0890 C   0  0  0  0  0  1  0  0  0  0  0  0
  -28.2970  -22.9190   20.3920 N   0  0  2  0  0  4  0  0  0  0  0  0
  -29.0000  -22.8680   21.1160 H   0  0  0  0  0  0  0  0  0  0  0  0
  -28.4160  -24.2690   19.7520 C   0  0  0  0  0  2  0  0  0  0  0  0
  -28.4000  -25.4580   20.7500 C   0  0  0  0  0  2  0  0  0  0  0  0
  -28.4520  -26.7410   20.1060 O   0  0  0  0  0  0  0  0  0  0  0  0
  -24.6350  -31.8850   23.2270 C   0  0  0  0  0  0  0  0  0  0  0  0
  -27.2760  -27.4600   20.1220 C   0  0  0  0  0  0  0  0  0  0  0  0
  -23.4220  -30.4810   21.5920 C   0  0  0  0  0  3  0  0  0  0  0  0
  -24.8710  -28.9440   20.1640 C   0  0  0  0  0  0  0  0  0  0  0  0
  -25.9440  -30.8480   21.3780 C   0  0  0  0  0  2  0  0  0  0  0  0
  -26.0320  -29.4770   20.7390 C   0  0  0  0  0  0  0  0  0  0  0  0
  -27.2400  -28.7440   20.7080 C   0  0  0  0  0  3  0  0  0  0  0  0
  -26.0990  -26.9370   19.5450 C   0  0  0  0  0  3  0  0  0  0  0  0
  -24.8980  -27.6730   19.5650 C   0  0  0  0  0  3  0  0  0  0  0  0
  -23.6220  -29.7950   20.2150 C   0  0  0  0  0  2  0  0  0  0  0  0
  -24.6850  -31.0840   22.1260 N   0  0  0  0  0  0  0  0  0  0  0  0
  -23.5560  -32.1550   23.7720 O   0  0  0  0  0  0  0  0  0  0  0  0
  -22.7770  -29.4600   22.5580 C   0  0  0  0  0  0  0  0  0  0  0  0
  -21.4520  -29.2770   22.4380 N   0  0  0  0  0  0  0  0  0  0  0  0
  -23.4660  -28.8340   23.3660 O   0  0  0  0  0  0  0  0  0  0  0  0
  -20.9550  -29.8340   21.7570 H   0  0  0  0  0  0  0  0  0  0  0  0
  -18.0870  -28.0730   22.9510 C   0  0  0  0  0  0  0  0  0  0  0  0
  -20.6450  -28.3370   23.2130 C   0  0  0  0  0  3  0  0  0  0  0  0
  -20.7480  -26.9060   22.6370 C   0  0  0  0  0  2  0  0  0  0  0  0
  -19.6430  -26.5790   21.6280 C   0  0  0  0  0  2  0  0  0  0  0  0
  -18.2630  -26.7230   22.2770 C   0  0  0  0  0  2  0  0  0  0  0  0
  -19.2050  -28.8360   23.3770 C   0  0  0  0  0  0  0  0  0  0  0  0
  -18.9870  -30.1000   23.9700 C   0  0  0  0  0  3  0  0  0  0  0  0
  -17.6830  -30.6020   24.1370 C   0  0  0  0  0  3  0  0  0  0  0  0
  -16.5780  -29.8340   23.7290 C   0  0  0  0  0  3  0  0  0  0  0  0
  -16.7810  -28.5720   23.1430 C   0  0  0  0  0  3  0  0  0  0  0  0
  -25.9220  -32.5180   23.8410 C   0  0  0  0  0  3  0  0  0  0  0  0
  -25.6120  -33.9110   24.1860 N   0  0  0  0  0  0  0  0  0  0  0  0
  -25.9280  -34.9700   23.4290 C   0  0  0  0  0  0  0  0  0  0  0  0
  -26.5860  -34.8750   22.3880 O   0  0  0  0  0  0  0  0  0  0  0  0
  -25.0260  -34.0590   24.9950 H   0  0  0  0  0  0  0  0  0  0  0  0
  -24.1830  -36.7510   23.1080 C   0  0  0  0  0  1  0  0  0  0  0  0
  -25.4390  -36.3530   23.9000 C   0  0  0  0  0  3  0  0  0  0  0  0
  -27.5820  -37.2460   24.6980 C   0  0  0  0  0  1  0  0  0  0  0  0
  -26.4630  -37.4120   23.7740 N   0  0  0  0  0  0  0  0  0  0  0  0
  -26.0540  -38.3300   23.9320 H   0  0  0  0  0  0  0  0  0  0  0  0
  -26.4560  -31.7370   25.1030 C   0  0  1  0  0  0  0  0  0  0  0  0
  -25.3760  -31.4830   26.1800 C   0  0  0  0  0  1  0  0  0  0  0  0
  -27.0430  -30.3680   24.6880 C   0  0  0  0  0  1  0  0  0  0  0  0
  -27.6140  -32.5300   25.7570 C   0  0  0  0  0  1  0  0  0  0  0  0
  -30.0300  -21.2440   19.5740 C   0  0  0  0  0  2  0  0  0  0  0  0
  -30.3160  -20.3840   20.8290 C   0  0  0  0  0  2  0  0  0  0  0  0
  -30.8200  -17.8480   21.0680 C   0  0  0  0  0  3  0  0  0  0  0  0
  -28.8570  -17.0990   20.5460 C   0  0  0  0  0  3  0  0  0  0  0  0
  -30.0120  -18.9080   20.7170 C   0  0  0  0  0  0  0  0  0  0  0  0
  -28.7520  -18.4160   20.3760 N   0  0  0  0  0  0  0  0  0  0  0  0
  -30.0480  -16.6840   21.0070 N   0  0  0  0  0  0  0  0  0  0  0  0
  -31.6270  -15.3040   22.3540 C   0  0  0  0  0  1  0  0  0  0  0  0
  -30.4110  -15.3130   21.4060 C   0  0  0  0  0  3  0  0  0  0  0  0
  -30.6770  -14.3650   20.2040 C   0  0  0  0  0  0  0  0  0  0  0  0
  -30.2110  -12.3330   18.8610 C   0  0  0  0  0  2  0  0  0  0  0  0
  -29.2010  -12.6110   17.7310 C   0  0  0  0  0  2  0  0  0  0  0  0
  -27.7570  -12.4570   18.2410 C   0  0  0  0  0  2  0  0  0  0  0  0
  -27.5120  -13.2360   19.5590 C   0  0  0  0  0  3  0  0  0  0  0  0
  -28.6210  -12.9200   20.5880 C   0  0  0  0  0  2  0  0  0  0  0  0
  -29.9200  -13.2510   19.9780 N   0  0  0  0  0  0  0  0  0  0  0  0
  -31.6470  -14.6340   19.4870 O   0  0  0  0  0  0  0  0  0  0  0  0
  -25.1540  -13.8510   20.3940 C   0  0  0  0  0  0  0  0  0  0  0  0
  -24.1050  -13.0810   20.8180 C   0  0  0  0  0  0  0  0  0  0  0  0
  -24.5580  -11.7280   20.7520 C   0  0  0  0  0  0  0  0  0  0  0  0
  -26.1820  -12.9670   20.1030 N   0  0  0  0  0  0  0  0  0  0  0  0
  -25.8280  -11.6850   20.3730 N   0  0  0  0  0  0  0  0  0  0  0  0
  -23.8350  -10.4690   20.9700 C   0  0  0  0  0  0  0  0  0  0  0  0
  -24.3040   -9.5000   21.8840 C   0  0  0  0  0  3  0  0  0  0  0  0
  -23.5830   -8.3030   22.0900 C   0  0  0  0  0  3  0  0  0  0  0  0
  -22.3800   -8.0700   21.3820 C   0  0  0  0  0  0  0  0  0  0  0  0
  -21.9300   -9.0270   20.4570 C   0  0  0  0  0  3  0  0  0  0  0  0
  -22.6520  -10.2160   20.2490 C   0  0  0  0  0  3  0  0  0  0  0  0
  -21.6260   -6.9270   21.4990 O   0  0  0  0  0  0  0  0  0  0  0  0
  -21.6150   -6.1870   22.6540 C   0  0  0  0  0  0  0  0  0  0  0  0
  -21.2510   -6.7510   23.8970 C   0  0  0  0  0  3  0  0  0  0  0  0
  -21.1860   -5.9380   25.0460 C   0  0  0  0  0  3  0  0  0  0  0  0
  -21.4740   -4.5630   24.9550 C   0  0  0  0  0  0  0  0  0  0  0  0
  -21.8300   -3.9990   23.7180 C   0  0  0  0  0  3  0  0  0  0  0  0
  -21.8980   -4.8080   22.5700 C   0  0  0  0  0  0  0  0  0  0  0  0
  -22.2220   -4.2560   21.3760 F   0  0  0  0  0  0  0  0  0  0  0  0
  -21.4030   -3.7810   26.0570 F   0  0  0  0  0  0  0  0  0  0  0  0
  -22.7270  -13.5640   21.1670 C   0  0  0  0  0  0  0  0  0  0  0  0
  -22.0430  -12.8670   22.0690 N   0  0  0  0  0  0  0  0  0  0  0  0
  -22.2660  -14.5930   20.6750 O   0  0  0  0  0  0  0  0  0  0  0  0
  -22.4290  -12.0340   22.4880 H   0  0  0  0  0  0  0  0  0  0  0  0
  -21.1200  -13.1720   22.3440 H   0  0  0  0  0  0  0  0  0  0  0  0
  -25.3080  -15.2220   20.2090 N   0  0  0  0  0  0  0  0  0  0  0  0
  -24.5250  -15.8560   20.3250 H   0  0  0  0  0  0  0  0  0  0  0  0
  -26.0880  -15.6460   19.7260 H   0  0  0  0  0  0  0  0  0  0  0  0
  1 48  1  0
  1  3  1  0
  3  2  1  0
  3  4  1  1
  5  3  1  0
  5  6  1  0
  7  9  1  0
  7  6  1  0
  8 19  2  0
  9 14  1  0
 10 18  1  0
 10 20  1  0
 11 17  1  0
 11 13  1  0
 12 18  1  0
 13 12  1  0
 14 13  2  0
 15 16  1  0
 15  9  2  0
 16 11  2  0
 17 10  1  0
 18  8  1  0
 20 22  2  0
 21 20  1  0
 23 21  1  0
 24 33  2  0
 24 29  1  0
 25 21  1  0
 25 29  1  0
 26 25  1  0
 27 28  1  0
 27 26  1  0
 28 24  1  0
 29 30  2  0
 30 31  1  0
 32 31  2  0
 33 32  1  0
 34  8  1  0
 34 35  1  0
 34 44  1  0
 35 38  1  0
 36 40  1  0
 36 35  1  0
 37 36  2  0
 40 39  1  0
 42 40  1  0
 42 43  1  0
 42 41  1  0
 44 47  1  1
 44 45  1  0
 46 44  1  0
 48 49  1  0
 51 54  1  0
 52 49  1  0
 52 50  2  0
 53 51  2  0
 53 52  1  0
 54 50  1  0
 54 56  1  0
 56 55  1  0
 57 56  1  0
 58 63  1  0
 59 60  1  0
 59 58  1  0
 61 60  1  0
 61 68  1  0
 61 62  1  0
 63 57  1  0
 63 62  1  0
 64 57  2  0
 65 66  2  0
 66 85  1  0
 67 66  1  0
 67 70  1  0
 68 69  1  0
 68 65  1  0
 69 67  2  0
 70 71  1  0
 71 72  2  0
 73 76  1  0
 73 72  1  0
 74 73  2  0
 75 74  1  0
 75 70  2  0
 76 77  1  0
 77 78  1  0
 78 79  2  0
 80 79  1  0
 80 84  1  0
 81 80  2  0
 82 77  2  0
 82 81  1  0
 83 82  1  0
 85 86  1  0
 86 89  1  0
 86 88  1  0
 87 85  2  0
 90 91  1  0
 90 65  1  0
 92 90  1  0
M  ISO  4   6 101   7 101  56 100  57 100
M  END
>  <TORSDO>  (35) 
F 23

>  <SCORE>  (35) 
-11.922

>  <name>  (35) 
34

>  <ligand_id>  (35) 
34

>  <original_smiles>  (35) 
[H]c1c([H])c([H])c2c(c1[H])C([H])([H])C([H])([H])C([H])([H])C2([H])N([H])C(=O)C1([H])N(C(=O)C([H])(N([H])C(=O)C([H])(N([H])C([H])([H])[H])C([H])([H])[H])C(C([H])([H])[H])(C([H])([H])[H])C([H])([H])[H])C([H])([H])c2c([H])c(OC([H])([H])C([H])([H])[N+]([H])(C([H])([H])[H])C([H])([H])C([H])([H])C([H])([H])c3nc([H])n(C([H])(C(=O)N4C([H])([H])C([H])([H])C([H])([H])C([H])(n5nc(-c6c([H])c([H])c(Oc7c([H])c([H])c(F)c([H])c7F)c([H])c6[H])c(C(=O)N([H])[H])c5N([H])[H])C4([H])[H])C([H])([H])[H])c3[H])c([H])c([H])c2C1([H])[H]

>  <smiles>  (35) 
[H]c1c([H])c([H])c2c(c1[H])C([H])([H])C([H])([H])C([H])([H])C2([H])N([H])C(=O)C1([H])N(C(=O)C([H])(N([H])C(=O)C([H])(N([H])C([H])([H])[H])C([H])([H])[H])C(C([H])([H])[H])(C([H])([H])[H])C([H])([H])[H])C([H])([H])c2c([H])c(OC([H])([H])C([H])([H])[N+]([H])(C([H])([H])[H])C([H])([H])C([H])([H])C([H])([H])c3nc([H])n(C([H])(C(=O)N4C([H])([H])C([H])([H])C([H])([H])C([H])(n5nc(-c6c([H])c([H])c(Oc7c([H])c([H])c(F)c([H])c7F)c([H])c6[H])c(C(=O)N([H])[H])c5N([H])[H])C4([H])[H])C([H])([H])[H])c3[H])c([H])c([H])c2C1([H])[H]

$$$$
35:0:0
     RDKit          3D

 91 99  0  0  1  0  0  0  0  0999 V2000
  -28.7690  -21.9390   21.0140 C   0  0  0  0  0  3  0  0  0  0  0  0
  -28.7510  -23.1610   20.2630 C   0  0  0  0  0  0  0  0  0  0  0  0
  -29.5560  -22.6780   19.1720 C   0  0  0  0  0  0  0  0  0  0  0  0
  -30.0280  -21.4010   19.3180 N   0  0  0  0  0  0  0  0  0  0  0  0
  -29.5350  -20.8290   20.4600 N   0  0  0  0  0  0  0  0  0  0  0  0
  -29.6700  -22.7090   16.6130 C   0  0  0  0  0  1  0  0  0  0  0  0
  -29.9260  -23.4670   17.9310 C   0  0  0  0  0  2  0  0  0  0  0  0
  -27.8990  -24.6110   20.4580 C   0  0  0  0  0  2  0  0  0  0  0  0
  -28.2700  -26.1220   20.1560 O   0  0  0  0  0  0  0  0  0  0  0  0
  -24.5870  -31.8710   23.1930 C   0  0  0  0  0  0  0  0  0  0  0  0
  -27.2380  -27.1520   20.1470 C   0  0  0  0  0  0  0  0  0  0  0  0
  -23.4240  -30.4710   21.5330 C   0  0  0  0  0  3  0  0  0  0  0  0
  -24.9060  -28.9190   20.1120 C   0  0  0  0  0  0  0  0  0  0  0  0
  -25.9850  -30.7390   21.4170 C   0  0  0  0  0  2  0  0  0  0  0  0
  -26.0770  -29.3500   20.7520 C   0  0  0  0  0  0  0  0  0  0  0  0
  -27.2440  -28.4840   20.7540 C   0  0  0  0  0  3  0  0  0  0  0  0
  -26.0460  -26.8530   19.4500 C   0  0  0  0  0  3  0  0  0  0  0  0
  -24.9080  -27.6870   19.4440 C   0  0  0  0  0  3  0  0  0  0  0  0
  -23.6710  -29.8060   20.1540 C   0  0  0  0  0  2  0  0  0  0  0  0
  -24.6840  -31.0510   22.1000 N   0  0  0  0  0  0  0  0  0  0  0  0
  -23.4900  -32.1470   23.7040 O   0  0  0  0  0  0  0  0  0  0  0  0
  -22.7380  -29.4550   22.4810 C   0  0  0  0  0  0  0  0  0  0  0  0
  -21.4090  -29.2920   22.3500 N   0  0  0  0  0  0  0  0  0  0  0  0
  -23.4060  -28.8170   23.2980 O   0  0  0  0  0  0  0  0  0  0  0  0
  -20.9250  -29.8630   21.6690 H   0  0  0  0  0  0  0  0  0  0  0  0
  -18.0170  -28.1210   22.8670 C   0  0  0  0  0  0  0  0  0  0  0  0
  -20.5840  -28.3470   23.1070 C   0  0  0  0  0  3  0  0  0  0  0  0
  -20.6600  -26.9290   22.4950 C   0  0  0  0  0  2  0  0  0  0  0  0
  -19.5420  -26.6450   21.4860 C   0  0  0  0  0  2  0  0  0  0  0  0
  -18.1710  -26.7880   22.1510 C   0  0  0  0  0  2  0  0  0  0  0  0
  -19.1510  -28.8610   23.3000 C   0  0  0  0  0  0  0  0  0  0  0  0
  -18.9540  -30.1080   23.9290 C   0  0  0  0  0  3  0  0  0  0  0  0
  -17.6580  -30.6160   24.1330 C   0  0  0  0  0  3  0  0  0  0  0  0
  -16.5390  -29.8750   23.7170 C   0  0  0  0  0  3  0  0  0  0  0  0
  -16.7200  -28.6300   23.0870 C   0  0  0  0  0  3  0  0  0  0  0  0
  -25.8490  -32.5170   23.8390 C   0  0  0  0  0  3  0  0  0  0  0  0
  -25.5210  -33.9130   24.1770 N   0  0  0  0  0  0  0  0  0  0  0  0
  -25.8730  -34.9820   23.4500 C   0  0  0  0  0  0  0  0  0  0  0  0
  -26.5760  -34.8980   22.4390 O   0  0  0  0  0  0  0  0  0  0  0  0
  -24.9080  -34.0510   24.9670 H   0  0  0  0  0  0  0  0  0  0  0  0
  -24.1530  -36.7790   23.0670 C   0  0  0  0  0  1  0  0  0  0  0  0
  -25.3670  -36.3640   23.9150 C   0  0  0  0  0  3  0  0  0  0  0  0
  -27.4640  -37.2380   24.8440 C   0  0  0  0  0  1  0  0  0  0  0  0
  -26.4000  -37.4210   23.8590 N   0  0  0  0  0  0  0  0  0  0  0  0
  -25.9860  -38.3390   24.0060 H   0  0  0  0  0  0  0  0  0  0  0  0
  -26.3500  -31.7460   25.1240 C   0  0  1  0  0  0  0  0  0  0  0  0
  -25.2380  -31.4960   26.1690 C   0  0  0  0  0  1  0  0  0  0  0  0
  -26.9490  -30.3720   24.7500 C   0  0  0  0  0  1  0  0  0  0  0  0
  -27.4840  -32.5420   25.8050 C   0  0  0  0  0  1  0  0  0  0  0  0
  -30.1440  -19.4360   21.0200 C   0  0  0  0  0  2  0  0  0  0  0  0
  -29.6000  -17.8020   20.9770 C   0  0  0  0  0  2  0  0  0  0  0  0
  -30.8740  -15.2450   20.9280 C   0  0  0  0  0  0  0  0  0  0  0  0
  -30.8010  -12.8650   19.9990 C   0  0  0  0  0  2  0  0  0  0  0  0
  -29.9770  -12.7210   18.7020 C   0  0  0  0  0  2  0  0  0  0  0  0
  -28.4920  -12.4980   19.0320 C   0  0  0  0  0  2  0  0  0  0  0  0
  -27.9710  -13.4510   20.1380 C   0  0  0  0  0  3  0  0  0  0  0  0
  -28.9400  -13.5760   21.3290 C   0  0  0  0  0  2  0  0  0  0  0  0
  -30.2220  -14.0120   20.7600 N   0  0  0  0  0  0  0  0  0  0  0  0
  -32.1020  -15.1510   21.0450 O   0  0  0  0  0  0  0  0  0  0  0  0
  -30.3520  -16.4980   20.3880 N   0  0  0  0  0  0  0  0  0  0  0  0
  -25.5450  -13.9990   20.7030 C   0  0  0  0  0  0  0  0  0  0  0  0
  -24.4600  -13.2090   20.9810 C   0  0  0  0  0  0  0  0  0  0  0  0
  -24.9390  -11.8640   20.9910 C   0  0  0  0  0  0  0  0  0  0  0  0
  -26.6090  -13.1290   20.5480 N   0  0  0  0  0  0  0  0  0  0  0  0
  -26.2520  -11.8410   20.7930 N   0  0  0  0  0  0  0  0  0  0  0  0
  -24.2090  -10.5950   21.1190 C   0  0  0  0  0  0  0  0  0  0  0  0
  -24.5970   -9.6060   22.0490 C   0  0  0  0  0  3  0  0  0  0  0  0
  -23.8650   -8.4040   22.1680 C   0  0  0  0  0  3  0  0  0  0  0  0
  -22.7280   -8.1820   21.3540 C   0  0  0  0  0  0  0  0  0  0  0  0
  -22.3590   -9.1600   20.4150 C   0  0  0  0  0  3  0  0  0  0  0  0
  -23.0910  -10.3510   20.2960 C   0  0  0  0  0  3  0  0  0  0  0  0
  -21.9730   -7.0320   21.3810 O   0  0  0  0  0  0  0  0  0  0  0  0
  -21.9010   -6.2450   22.5040 C   0  0  0  0  0  0  0  0  0  0  0  0
  -21.4500   -6.7510   23.7420 C   0  0  0  0  0  3  0  0  0  0  0  0
  -21.3260   -5.8870   24.8500 C   0  0  0  0  0  3  0  0  0  0  0  0
  -21.6440   -4.5230   24.7220 C   0  0  0  0  0  0  0  0  0  0  0  0
  -22.0920   -4.0180   23.4890 C   0  0  0  0  0  3  0  0  0  0  0  0
  -22.2180   -4.8770   22.3820 C   0  0  0  0  0  0  0  0  0  0  0  0
  -22.6280   -4.3820   21.1900 F   0  0  0  0  0  0  0  0  0  0  0  0
  -21.5190   -3.6940   25.7840 F   0  0  0  0  0  0  0  0  0  0  0  0
  -23.0420  -13.6750   21.1250 C   0  0  0  0  0  0  0  0  0  0  0  0
  -22.2550  -12.9800   21.9390 N   0  0  0  0  0  0  0  0  0  0  0  0
  -22.6380  -14.6830   20.5500 O   0  0  0  0  0  0  0  0  0  0  0  0
  -22.6010  -12.1650   22.4240 H   0  0  0  0  0  0  0  0  0  0  0  0
  -21.3000  -13.2670   22.0830 H   0  0  0  0  0  0  0  0  0  0  0  0
  -25.7130  -15.3710   20.5390 N   0  0  0  0  0  0  0  0  0  0  0  0
  -24.9390  -16.0250   20.5770 H   0  0  0  0  0  0  0  0  0  0  0  0
  -26.5850  -15.8140   20.2800 H   0  0  0  0  0  0  0  0  0  0  0  0
  -31.8310  -16.0360   18.2790 C   0  0  0  0  0  1  0  0  0  0  0  0
  -29.5300  -17.0570   18.0780 C   0  0  0  0  0  1  0  0  0  0  0  0
  -30.7630  -16.9050   19.0010 C   0  0  0  0  0  3  0  0  0  0  0  0
  2  8  1  0
  2  1  2  0
  3  4  2  0
  3  2  1  0
  4  5  1  0
  5  1  1  0
  5 50  1  0
  6  7  1  0
  7  3  1  0
  9  8  1  0
 10 21  2  0
 11  9  1  0
 11 16  1  0
 12 20  1  0
 12 22  1  0
 13 19  1  0
 13 15  1  0
 14 20  1  0
 15 16  2  0
 15 14  1  0
 17 11  2  0
 18 17  1  0
 18 13  2  0
 19 12  1  0
 20 10  1  0
 22 24  2  0
 23 22  1  0
 25 23  1  0
 26 35  2  0
 26 31  1  0
 27 23  1  0
 27 31  1  0
 28 27  1  0
 29 30  1  0
 29 28  1  0
 30 26  1  0
 31 32  2  0
 32 33  1  0
 34 33  2  0
 35 34  1  0
 36 10  1  0
 36 37  1  0
 36 46  1  0
 37 40  1  0
 38 42  1  0
 38 37  1  0
 39 38  2  0
 42 41  1  0
 44 42  1  0
 44 45  1  0
 44 43  1  0
 46 49  1  1
 46 47  1  0
 48 46  1  0
 51 50  1  0
 52 59  2  0
 53 58  1  0
 54 55  1  0
 54 53  1  0
 56 55  1  0
 56 64  1  0
 56 57  1  0
 58 52  1  0
 58 57  1  0
 60 52  1  0
 60 51  1  0
 61 62  2  0
 62 63  1  0
 62 81  1  0
 63 66  1  0
 64 61  1  0
 64 65  1  0
 65 63  2  0
 66 67  1  0
 67 68  2  0
 69 72  1  0
 69 68  1  0
 70 69  2  0
 71 70  1  0
 71 66  2  0
 72 73  1  0
 73 74  1  0
 74 75  2  0
 76 75  1  0
 76 80  1  0
 77 76  2  0
 78 73  2  0
 78 77  1  0
 79 78  1  0
 81 82  1  0
 82 85  1  0
 82 84  1  0
 83 81  2  0
 86 87  1  0
 86 61  1  0
 88 86  1  0
 89 91  1  0
 90 91  1  0
 91 60  1  0
M  ISO  4   8 101   9 101  52 100  60 100
M  END
>  <TORSDO>  (36) 
F 21

>  <SCORE>  (36) 
-13.538

>  <name>  (36) 
35

>  <ligand_id>  (36) 
35

>  <original_smiles>  (36) 
[H]c1c([H])c([H])c2c(c1[H])C([H])([H])C([H])([H])C([H])([H])C2([H])N([H])C(=O)C1([H])N(C(=O)C([H])(N([H])C(=O)C([H])(N([H])C([H])([H])[H])C([H])([H])[H])C(C([H])([H])[H])(C([H])([H])[H])C([H])([H])[H])C([H])([H])c2c([H])c(OC([H])([H])c3c(C([H])([H])C([H])([H])[H])nn(C([H])([H])C([H])([H])N(C(=O)N4C([H])([H])C([H])([H])C([H])([H])C([H])(n5nc(-c6c([H])c([H])c(Oc7c([H])c([H])c(F)c([H])c7F)c([H])c6[H])c(C(=O)N([H])[H])c5N([H])[H])C4([H])[H])C([H])(C([H])([H])[H])C([H])([H])[H])c3[H])c([H])c([H])c2C1([H])[H]

>  <smiles>  (36) 
[H]c1c([H])c([H])c2c(c1[H])C([H])([H])C([H])([H])C([H])([H])C2([H])N([H])C(=O)C1([H])N(C(=O)C([H])(N([H])C(=O)C([H])(N([H])C([H])([H])[H])C([H])([H])[H])C(C([H])([H])[H])(C([H])([H])[H])C([H])([H])[H])C([H])([H])c2c([H])c(OC([H])([H])c3c(C([H])([H])C([H])([H])[H])nn(C([H])([H])C([H])([H])N(C(=O)N4C([H])([H])C([H])([H])C([H])([H])C([H])(n5nc(-c6c([H])c([H])c(Oc7c([H])c([H])c(F)c([H])c7F)c([H])c6[H])c(C(=O)N([H])[H])c5N([H])[H])C4([H])[H])C([H])(C([H])([H])[H])C([H])([H])[H])c3[H])c([H])c([H])c2C1([H])[H]

$$$$
36:0:0
     RDKit          3D

 88 96  0  0  1  0  0  0  0  0999 V2000
  -30.1000  -20.8010   20.4480 C   0  0  0  0  0  3  0  0  0  0  0  0
  -27.9980  -21.0820   20.3350 C   0  0  0  0  0  3  0  0  0  0  0  0
  -29.5800  -19.4680   20.3580 C   0  0  0  0  0  0  0  0  0  0  0  0
  -28.2010  -19.7370   20.2670 N   0  0  0  0  0  0  0  0  0  0  0  0
  -29.0940  -21.8620   20.4130 N   0  0  0  0  0  0  0  0  0  0  0  0
  -30.2840  -17.9790   20.0980 C   0  0  0  0  0  2  0  0  0  0  0  0
  -28.4260  -16.4550   20.9220 C   0  0  0  0  0  1  0  0  0  0  0  0
  -30.5260  -16.5240   22.2350 C   0  0  0  0  0  1  0  0  0  0  0  0
  -29.9590  -16.4670   20.8000 C   0  0  2  0  0  0  0  0  0  0  0  0
  -30.5970  -15.0200   20.1820 C   0  0  0  0  0  0  0  0  0  0  0  0
  -30.4430  -12.7230   19.0690 C   0  0  0  0  0  2  0  0  0  0  0  0
  -29.4400  -12.7330   17.8860 C   0  0  0  0  0  2  0  0  0  0  0  0
  -27.9900  -12.5160   18.3640 C   0  0  0  0  0  2  0  0  0  0  0  0
  -27.6600  -13.3590   19.6230 C   0  0  0  0  0  3  0  0  0  0  0  0
  -28.7750  -13.2230   20.6850 C   0  0  0  0  0  2  0  0  0  0  0  0
  -30.0070  -13.7460   20.0730 N   0  0  0  0  0  0  0  0  0  0  0  0
  -31.7480  -15.0830   19.7320 O   0  0  0  0  0  0  0  0  0  0  0  0
  -25.2900  -13.9320   20.4190 C   0  0  0  0  0  0  0  0  0  0  0  0
  -24.2410  -13.1530   20.8160 C   0  0  0  0  0  0  0  0  0  0  0  0
  -24.7080  -11.8040   20.7580 C   0  0  0  0  0  0  0  0  0  0  0  0
  -26.3340  -13.0600   20.1520 N   0  0  0  0  0  0  0  0  0  0  0  0
  -25.9900  -11.7730   20.4140 N   0  0  0  0  0  0  0  0  0  0  0  0
  -23.9880  -10.5410   20.9550 C   0  0  0  0  0  0  0  0  0  0  0  0
  -24.4310   -9.5790   21.8890 C   0  0  0  0  0  3  0  0  0  0  0  0
  -23.7100   -8.3800   22.0750 C   0  0  0  0  0  3  0  0  0  0  0  0
  -22.5310   -8.1370   21.3310 C   0  0  0  0  0  0  0  0  0  0  0  0
  -22.1070   -9.0880   20.3860 C   0  0  0  0  0  3  0  0  0  0  0  0
  -22.8290  -10.2800   20.1970 C   0  0  0  0  0  3  0  0  0  0  0  0
  -21.7800   -6.9900   21.4270 O   0  0  0  0  0  0  0  0  0  0  0  0
  -21.7140   -6.2700   22.5920 C   0  0  0  0  0  0  0  0  0  0  0  0
  -21.2660   -6.8470   23.8000 C   0  0  0  0  0  3  0  0  0  0  0  0
  -21.1500   -6.0530   24.9590 C   0  0  0  0  0  3  0  0  0  0  0  0
  -21.4690   -4.6830   24.9090 C   0  0  0  0  0  0  0  0  0  0  0  0
  -21.9120   -4.1060   23.7040 C   0  0  0  0  0  3  0  0  0  0  0  0
  -22.0300   -4.8970   22.5490 C   0  0  0  0  0  0  0  0  0  0  0  0
  -22.4350   -4.3320   21.3860 F   0  0  0  0  0  0  0  0  0  0  0  0
  -21.3490   -3.9170   26.0190 F   0  0  0  0  0  0  0  0  0  0  0  0
  -22.8540  -13.6280   21.1330 C   0  0  0  0  0  0  0  0  0  0  0  0
  -22.1540  -12.9280   22.0180 N   0  0  0  0  0  0  0  0  0  0  0  0
  -22.3960  -14.6530   20.6290 O   0  0  0  0  0  0  0  0  0  0  0  0
  -22.5380  -12.1000   22.4480 H   0  0  0  0  0  0  0  0  0  0  0  0
  -21.2240  -13.2280   22.2730 H   0  0  0  0  0  0  0  0  0  0  0  0
  -25.4290  -15.3050   20.2420 N   0  0  0  0  0  0  0  0  0  0  0  0
  -24.6600  -15.9470   20.3960 H   0  0  0  0  0  0  0  0  0  0  0  0
  -26.2770  -15.7640   19.9370 H   0  0  0  0  0  0  0  0  0  0  0  0
  -29.2530  -23.4490   20.4720 C   0  0  0  0  0  3  0  0  0  0  0  0
  -28.0740  -24.6390   20.2600 C   0  0  0  0  0  3  0  0  0  0  0  0
  -28.2940  -26.1900   20.3090 O   0  0  0  0  0  0  0  0  0  0  0  0
  -24.6310  -31.8870   23.2190 C   0  0  0  0  0  0  0  0  0  0  0  0
  -27.2180  -27.1510   20.2360 C   0  0  0  0  0  0  0  0  0  0  0  0
  -23.4280  -30.4740   21.5940 C   0  0  0  0  0  3  0  0  0  0  0  0
  -24.8770  -28.8840   20.1860 C   0  0  0  0  0  0  0  0  0  0  0  0
  -25.9800  -30.7490   21.4150 C   0  0  0  0  0  2  0  0  0  0  0  0
  -26.0560  -29.3460   20.7820 C   0  0  0  0  0  0  0  0  0  0  0  0
  -27.2240  -28.4950   20.7910 C   0  0  0  0  0  3  0  0  0  0  0  0
  -26.0080  -26.7890   19.6000 C   0  0  0  0  0  3  0  0  0  0  0  0
  -24.8640  -27.6190   19.5810 C   0  0  0  0  0  3  0  0  0  0  0  0
  -23.6490  -29.7810   20.2240 C   0  0  0  0  0  2  0  0  0  0  0  0
  -24.7000  -31.0570   22.1330 N   0  0  0  0  0  0  0  0  0  0  0  0
  -23.5480  -32.1720   23.7520 O   0  0  0  0  0  0  0  0  0  0  0  0
  -22.7540  -29.4760   22.5690 C   0  0  0  0  0  0  0  0  0  0  0  0
  -21.4250  -29.3050   22.4490 N   0  0  0  0  0  0  0  0  0  0  0  0
  -23.4280  -28.8560   23.3960 O   0  0  0  0  0  0  0  0  0  0  0  0
  -20.9370  -29.8570   21.7570 H   0  0  0  0  0  0  0  0  0  0  0  0
  -18.0480  -28.1110   22.9730 C   0  0  0  0  0  0  0  0  0  0  0  0
  -20.6080  -28.3740   23.2310 C   0  0  0  0  0  3  0  0  0  0  0  0
  -20.7090  -26.9380   22.6690 C   0  0  0  0  0  2  0  0  0  0  0  0
  -19.6040  -26.6070   21.6590 C   0  0  0  0  0  2  0  0  0  0  0  0
  -18.2240  -26.7550   22.3070 C   0  0  0  0  0  2  0  0  0  0  0  0
  -19.1680  -28.8750   23.3940 C   0  0  0  0  0  0  0  0  0  0  0  0
  -18.9520  -30.1410   23.9790 C   0  0  0  0  0  3  0  0  0  0  0  0
  -17.6480  -30.6410   24.1520 C   0  0  0  0  0  3  0  0  0  0  0  0
  -16.5420  -29.8740   23.7500 C   0  0  0  0  0  3  0  0  0  0  0  0
  -16.7420  -28.6110   23.1660 C   0  0  0  0  0  3  0  0  0  0  0  0
  -25.9100  -32.5300   23.8360 C   0  0  0  0  0  3  0  0  0  0  0  0
  -26.4370  -31.7610   25.1090 C   0  0  1  0  0  0  0  0  0  0  0  0
  -25.3500  -31.5200   26.1830 C   0  0  0  0  0  1  0  0  0  0  0  0
  -27.0240  -30.3850   24.7170 C   0  0  0  0  0  1  0  0  0  0  0  0
  -27.5890  -32.5570   25.7670 C   0  0  0  0  0  1  0  0  0  0  0  0
  -25.5920  -33.9270   24.1770 N   0  0  0  0  0  0  0  0  0  0  0  0
  -25.9080  -34.9870   23.4230 C   0  0  0  0  0  0  0  0  0  0  0  0
  -26.5640  -34.8950   22.3810 O   0  0  0  0  0  0  0  0  0  0  0  0
  -25.0090  -34.0740   24.9880 H   0  0  0  0  0  0  0  0  0  0  0  0
  -24.1600  -36.7710   23.1120 C   0  0  0  0  0  1  0  0  0  0  0  0
  -25.4200  -36.3710   23.8960 C   0  0  0  0  0  3  0  0  0  0  0  0
  -27.5620  -37.2680   24.6910 C   0  0  0  0  0  1  0  0  0  0  0  0
  -26.4420  -37.4320   23.7690 N   0  0  0  0  0  0  0  0  0  0  0  0
  -26.0320  -38.3460   23.9390 H   0  0  0  0  0  0  0  0  0  0  0  0
  2  5  1  0
  3  1  2  0
  4  2  2  0
  4  3  1  0
  5  1  1  0
  5 46  1  0
  6  3  1  0
  6  9  1  0
  9  7  1  1
  9  8  1  0
 10  9  1  0
 11 16  1  0
 12 13  1  0
 12 11  1  0
 14 13  1  0
 14 21  1  0
 14 15  1  0
 16 10  1  0
 16 15  1  0
 17 10  2  0
 18 19  2  0
 19 38  1  0
 20 19  1  0
 20 23  1  0
 21 22  1  0
 21 18  1  0
 22 20  2  0
 23 24  1  0
 24 25  2  0
 26 29  1  0
 26 25  1  0
 27 26  2  0
 28 27  1  0
 28 23  2  0
 29 30  1  0
 30 31  1  0
 31 32  2  0
 33 32  1  0
 33 37  1  0
 34 33  2  0
 35 30  2  0
 35 34  1  0
 36 35  1  0
 38 39  1  0
 39 42  1  0
 39 41  1  0
 40 38  2  0
 43 44  1  0
 43 18  1  0
 45 43  1  0
 47 48  1  0
 47 46  2  0
 49 60  2  0
 50 48  1  0
 50 55  1  0
 51 59  1  0
 51 61  1  0
 52 58  1  0
 52 54  1  0
 53 59  1  0
 54 55  2  0
 54 53  1  0
 56 50  2  0
 57 56  1  0
 57 52  2  0
 58 51  1  0
 59 49  1  0
 61 63  2  0
 62 61  1  0
 64 62  1  0
 65 74  2  0
 65 70  1  0
 66 62  1  0
 66 70  1  0
 67 66  1  0
 68 69  1  0
 68 67  1  0
 69 65  1  0
 70 71  2  0
 71 72  1  0
 73 72  2  0
 74 73  1  0
 75 49  1  0
 75 80  1  0
 75 76  1  0
 76 79  1  1
 76 77  1  0
 78 76  1  0
 80 83  1  0
 81 85  1  0
 81 80  1  0
 82 81  2  0
 85 84  1  0
 87 85  1  0
 87 88  1  0
 87 86  1  0
M  ISO  4   9 100  10 100  47 101  48 101
M  END
>  <TORSDO>  (37) 
F 20

>  <SCORE>  (37) 
-14.767

>  <name>  (37) 
36

>  <ligand_id>  (37) 
36

>  <original_smiles>  (37) 
[H]c1c([H])c([H])c2c(c1[H])C([H])([H])C([H])([H])C([H])([H])C2([H])N([H])C(=O)C1([H])N(C(=O)C([H])(N([H])C(=O)C([H])(N([H])C([H])([H])[H])C([H])([H])[H])C(C([H])([H])[H])(C([H])([H])[H])C([H])([H])[H])C([H])([H])c2c([H])c(OC([H])([H])C([H])([H])n3c([H])nc(C([H])([H])C(C(=O)N4C([H])([H])C([H])([H])C([H])([H])C([H])(n5nc(-c6c([H])c([H])c(Oc7c([H])c([H])c(F)c([H])c7F)c([H])c6[H])c(C(=O)N([H])[H])c5N([H])[H])C4([H])[H])(C([H])([H])[H])C([H])([H])[H])c3[H])c([H])c([H])c2C1([H])[H]

>  <smiles>  (37) 
[H]c1c([H])c([H])c2c(c1[H])C([H])([H])C([H])([H])C([H])([H])C2([H])N([H])C(=O)C1([H])N(C(=O)C([H])(N([H])C(=O)C([H])(N([H])C([H])([H])[H])C([H])([H])[H])C(C([H])([H])[H])(C([H])([H])[H])C([H])([H])[H])C([H])([H])c2c([H])c(OC([H])([H])C([H])([H])n3c([H])nc(C([H])([H])C(C(=O)N4C([H])([H])C([H])([H])C([H])([H])C([H])(n5nc(-c6c([H])c([H])c(Oc7c([H])c([H])c(F)c([H])c7F)c([H])c6[H])c(C(=O)N([H])[H])c5N([H])[H])C4([H])[H])(C([H])([H])[H])C([H])([H])[H])c3[H])c([H])c([H])c2C1([H])[H]

$$$$
37:0:0
     RDKit          3D

 91 99  0  0  1  0  0  0  0  0999 V2000
  -29.6650  -20.4350   21.5250 C   0  0  0  0  0  3  0  0  0  0  0  0
  -28.3930  -19.0910   19.5740 C   0  0  0  0  0  3  0  0  0  0  0  0
  -28.7460  -21.1250   20.6760 C   0  0  0  0  0  0  0  0  0  0  0  0
  -29.2530  -18.3830   20.4630 C   0  0  0  0  0  0  0  0  0  0  0  0
  -28.1420  -20.4330   19.6730 N   0  0  0  0  0  0  0  0  0  0  0  0
  -29.9070  -19.0890   21.4320 N   0  0  0  0  0  0  0  0  0  0  0  0
  -28.1850  -22.5570   21.0070 C   0  0  0  0  0  2  0  0  0  0  0  0
  -28.6880  -23.8790   20.2910 C   0  0  0  0  0  2  0  0  0  0  0  0
  -28.0400  -25.2160   20.8680 C   0  0  0  0  0  2  0  0  0  0  0  0
  -28.3240  -26.5290   20.2540 O   0  0  0  0  0  0  0  0  0  0  0  0
  -24.6110  -31.9260   23.2390 C   0  0  0  0  0  0  0  0  0  0  0  0
  -27.2350  -27.3970   20.1900 C   0  0  0  0  0  0  0  0  0  0  0  0
  -23.4150  -30.5180   21.5930 C   0  0  0  0  0  3  0  0  0  0  0  0
  -24.8750  -28.9870   20.1570 C   0  0  0  0  0  0  0  0  0  0  0  0
  -25.9460  -30.8590   21.4110 C   0  0  0  0  0  2  0  0  0  0  0  0
  -26.0350  -29.4830   20.7670 C   0  0  0  0  0  0  0  0  0  0  0  0
  -27.2250  -28.7000   20.7730 C   0  0  0  0  0  3  0  0  0  0  0  0
  -26.0630  -26.9580   19.5380 C   0  0  0  0  0  3  0  0  0  0  0  0
  -24.8900  -27.7340   19.5250 C   0  0  0  0  0  3  0  0  0  0  0  0
  -23.6340  -29.8540   20.2090 C   0  0  0  0  0  2  0  0  0  0  0  0
  -24.6750  -31.1170   22.1410 N   0  0  0  0  0  0  0  0  0  0  0  0
  -23.5280  -32.2050   23.7710 O   0  0  0  0  0  0  0  0  0  0  0  0
  -22.7590  -29.4970   22.5540 C   0  0  0  0  0  0  0  0  0  0  0  0
  -21.4340  -29.3160   22.4250 N   0  0  0  0  0  0  0  0  0  0  0  0
  -23.4390  -28.8720   23.3730 O   0  0  0  0  0  0  0  0  0  0  0  0
  -20.9480  -29.8810   21.7420 H   0  0  0  0  0  0  0  0  0  0  0  0
  -18.0610  -28.0960   22.8890 C   0  0  0  0  0  0  0  0  0  0  0  0
  -20.6130  -28.3760   23.1870 C   0  0  0  0  0  3  0  0  0  0  0  0
  -20.7300  -26.9420   22.6200 C   0  0  0  0  0  2  0  0  0  0  0  0
  -19.6430  -26.6040   21.5940 C   0  0  0  0  0  2  0  0  0  0  0  0
  -18.2540  -26.7450   22.2210 C   0  0  0  0  0  2  0  0  0  0  0  0
  -19.1680  -28.8690   23.3270 C   0  0  0  0  0  0  0  0  0  0  0  0
  -18.9350  -30.1310   23.9170 C   0  0  0  0  0  3  0  0  0  0  0  0
  -17.6270  -30.6230   24.0670 C   0  0  0  0  0  3  0  0  0  0  0  0
  -16.5310  -29.8500   23.6450 C   0  0  0  0  0  3  0  0  0  0  0  0
  -16.7490  -28.5880   23.0630 C   0  0  0  0  0  3  0  0  0  0  0  0
  -25.8910  -32.5620   23.8600 C   0  0  0  0  0  3  0  0  0  0  0  0
  -25.5810  -33.9600   24.1930 N   0  0  0  0  0  0  0  0  0  0  0  0
  -25.9150  -35.0130   23.4330 C   0  0  0  0  0  0  0  0  0  0  0  0
  -26.5880  -34.9090   22.4050 O   0  0  0  0  0  0  0  0  0  0  0  0
  -24.9910  -34.1100   24.9980 H   0  0  0  0  0  0  0  0  0  0  0  0
  -24.1880  -36.8040   23.0650 C   0  0  0  0  0  1  0  0  0  0  0  0
  -25.4220  -36.3990   23.8890 C   0  0  0  0  0  3  0  0  0  0  0  0
  -27.5520  -37.2810   24.7370 C   0  0  0  0  0  1  0  0  0  0  0  0
  -26.4570  -37.4520   23.7860 N   0  0  0  0  0  0  0  0  0  0  0  0
  -26.0520  -38.3730   23.9340 H   0  0  0  0  0  0  0  0  0  0  0  0
  -26.4090  -31.7890   25.1380 C   0  0  1  0  0  0  0  0  0  0  0  0
  -25.3150  -31.5480   26.2040 C   0  0  0  0  0  1  0  0  0  0  0  0
  -26.9920  -30.4110   24.7430 C   0  0  0  0  0  1  0  0  0  0  0  0
  -27.5610  -32.5840   25.8010 C   0  0  0  0  0  1  0  0  0  0  0  0
  -29.2700  -16.8070   20.5120 C   0  0  0  0  0  2  0  0  0  0  0  0
  -30.8050  -14.7580   20.3370 C   0  0  0  0  0  0  0  0  0  0  0  0
  -30.4390  -12.5300   19.3360 C   0  0  0  0  0  2  0  0  0  0  0  0
  -29.5070  -12.5680   18.1110 C   0  0  0  0  0  2  0  0  0  0  0  0
  -28.0470  -12.4000   18.5600 C   0  0  0  0  0  2  0  0  0  0  0  0
  -27.6630  -13.3360   19.7400 C   0  0  0  0  0  3  0  0  0  0  0  0
  -28.7310  -13.3370   20.8590 C   0  0  0  0  0  2  0  0  0  0  0  0
  -30.0180  -13.6370   20.2160 N   0  0  0  0  0  0  0  0  0  0  0  0
  -32.0230  -14.6060   20.3250 O   0  0  0  0  0  0  0  0  0  0  0  0
  -30.3440  -15.9890   19.8600 N   0  0  0  0  0  0  0  0  0  0  0  0
  -25.2600  -13.9110   20.4460 C   0  0  0  0  0  0  0  0  0  0  0  0
  -24.1930  -13.1310   20.8050 C   0  0  0  0  0  0  0  0  0  0  0  0
  -24.6670  -11.7860   20.7980 C   0  0  0  0  0  0  0  0  0  0  0  0
  -26.3170  -13.0420   20.2350 N   0  0  0  0  0  0  0  0  0  0  0  0
  -25.9650  -11.7590   20.5150 N   0  0  0  0  0  0  0  0  0  0  0  0
  -23.9470  -10.5160   20.9890 C   0  0  0  0  0  0  0  0  0  0  0  0
  -24.3680   -9.5630   21.9400 C   0  0  0  0  0  3  0  0  0  0  0  0
  -23.6460   -8.3630   22.1210 C   0  0  0  0  0  3  0  0  0  0  0  0
  -22.4870   -8.1090   21.3490 C   0  0  0  0  0  0  0  0  0  0  0  0
  -22.0820   -9.0560   20.3900 C   0  0  0  0  0  3  0  0  0  0  0  0
  -22.8080  -10.2440   20.2070 C   0  0  0  0  0  3  0  0  0  0  0  0
  -21.7460   -6.9560   21.4380 O   0  0  0  0  0  0  0  0  0  0  0  0
  -21.6820   -6.2230   22.5980 C   0  0  0  0  0  0  0  0  0  0  0  0
  -21.2400   -6.7890   23.8130 C   0  0  0  0  0  3  0  0  0  0  0  0
  -21.1200   -5.9830   24.9640 C   0  0  0  0  0  3  0  0  0  0  0  0
  -21.4380   -4.6130   24.9030 C   0  0  0  0  0  0  0  0  0  0  0  0
  -21.8770   -4.0490   23.6930 C   0  0  0  0  0  3  0  0  0  0  0  0
  -21.9960   -4.8490   22.5450 C   0  0  0  0  0  0  0  0  0  0  0  0
  -22.3960   -4.2910   21.3760 F   0  0  0  0  0  0  0  0  0  0  0  0
  -21.3220   -3.8410   26.0070 F   0  0  0  0  0  0  0  0  0  0  0  0
  -22.7840  -13.6000   21.0420 C   0  0  0  0  0  0  0  0  0  0  0  0
  -22.0400  -12.9160   21.9000 N   0  0  0  0  0  0  0  0  0  0  0  0
  -22.3500  -14.6160   20.5000 O   0  0  0  0  0  0  0  0  0  0  0  0
  -22.4010  -12.1040   22.3800 H   0  0  0  0  0  0  0  0  0  0  0  0
  -21.0950  -13.2140   22.0950 H   0  0  0  0  0  0  0  0  0  0  0  0
  -25.4100  -15.2820   20.2570 N   0  0  0  0  0  0  0  0  0  0  0  0
  -24.6270  -15.9160   20.3670 H   0  0  0  0  0  0  0  0  0  0  0  0
  -26.2430  -15.7340   19.9040 H   0  0  0  0  0  0  0  0  0  0  0  0
  -30.5180  -17.3650   17.6690 C   0  0  0  0  0  1  0  0  0  0  0  0
  -32.2960  -17.6360   19.5670 C   0  0  0  0  0  1  0  0  0  0  0  0
  -31.2320  -16.7260   18.8890 C   0  0  0  0  0  3  0  0  0  0  0  0
  2  5  2  0
  2  4  1  0
  3  7  1  0
  3  1  2  0
  4 51  1  0
  4  6  2  0
  5  3  1  0
  6  1  1  0
  8  9  1  0
  8  7  1  0
 10  9  1  0
 11 22  2  0
 12 10  1  0
 12 17  1  0
 13 21  1  0
 13 23  1  0
 14 20  1  0
 14 16  1  0
 15 21  1  0
 16 17  2  0
 16 15  1  0
 18 12  2  0
 19 18  1  0
 19 14  2  0
 20 13  1  0
 21 11  1  0
 23 25  2  0
 24 23  1  0
 26 24  1  0
 27 36  2  0
 27 32  1  0
 28 24  1  0
 28 32  1  0
 29 28  1  0
 30 31  1  0
 30 29  1  0
 31 27  1  0
 32 33  2  0
 33 34  1  0
 35 34  2  0
 36 35  1  0
 37 11  1  0
 37 38  1  0
 37 47  1  0
 38 41  1  0
 39 43  1  0
 39 38  1  0
 40 39  2  0
 43 42  1  0
 45 43  1  0
 45 46  1  0
 45 44  1  0
 47 50  1  1
 47 48  1  0
 49 47  1  0
 53 58  1  0
 54 55  1  0
 54 53  1  0
 56 55  1  0
 56 64  1  0
 56 57  1  0
 58 52  1  0
 58 57  1  0
 59 52  2  0
 60 52  1  0
 60 51  1  0
 61 62  2  0
 62 81  1  0
 63 62  1  0
 63 66  1  0
 64 61  1  0
 64 65  1  0
 65 63  2  0
 66 67  1  0
 67 68  2  0
 69 72  1  0
 69 68  1  0
 70 69  2  0
 71 70  1  0
 71 66  2  0
 72 73  1  0
 73 74  1  0
 74 75  2  0
 76 75  1  0
 76 80  1  0
 77 76  2  0
 78 73  2  0
 78 77  1  0
 79 78  1  0
 81 82  1  0
 82 85  1  0
 82 84  1  0
 83 81  2  0
 86 87  1  0
 86 61  1  0
 88 86  1  0
 89 91  1  0
 91 90  1  0
 91 60  1  0
M  ISO  4   9 101  10 101  52 100  60 100
M  END
>  <TORSDO>  (38) 
F 21

>  <SCORE>  (38) 
-13.398

>  <name>  (38) 
37

>  <ligand_id>  (38) 
37

>  <original_smiles>  (38) 
[H]c1nc(C([H])([H])C([H])([H])C([H])([H])Oc2c([H])c([H])c3c(c2[H])C([H])([H])N(C(=O)C([H])(N([H])C(=O)C([H])(N([H])C([H])([H])[H])C([H])([H])[H])C(C([H])([H])[H])(C([H])([H])[H])C([H])([H])[H])C([H])(C(=O)N([H])C2([H])c4c([H])c([H])c([H])c([H])c4C([H])([H])C([H])([H])C2([H])[H])C3([H])[H])c([H])nc1C([H])([H])N(C(=O)N1C([H])([H])C([H])([H])C([H])([H])C([H])(n2nc(-c3c([H])c([H])c(Oc4c([H])c([H])c(F)c([H])c4F)c([H])c3[H])c(C(=O)N([H])[H])c2N([H])[H])C1([H])[H])C([H])(C([H])([H])[H])C([H])([H])[H]

>  <smiles>  (38) 
[H]c1nc(C([H])([H])C([H])([H])C([H])([H])Oc2c([H])c([H])c3c(c2[H])C([H])([H])N(C(=O)C([H])(N([H])C(=O)C([H])(N([H])C([H])([H])[H])C([H])([H])[H])C(C([H])([H])[H])(C([H])([H])[H])C([H])([H])[H])C([H])(C(=O)N([H])C2([H])c4c([H])c([H])c([H])c([H])c4C([H])([H])C([H])([H])C2([H])[H])C3([H])[H])c([H])nc1C([H])([H])N(C(=O)N1C([H])([H])C([H])([H])C([H])([H])C([H])(n2nc(-c3c([H])c([H])c(Oc4c([H])c([H])c(F)c([H])c4F)c([H])c3[H])c(C(=O)N([H])[H])c2N([H])[H])C1([H])[H])C([H])(C([H])([H])[H])C([H])([H])[H]

$$$$
38:0:0
     RDKit          3D

 96104  0  0  1  0  0  0  0  0999 V2000
  -26.9350  -23.9930   21.7490 C   0  0  0  0  0  3  0  0  0  0  0  0
  -26.4900  -22.6770   21.8960 C   0  0  0  0  0  0  0  0  0  0  0  0
  -28.1960  -24.2010   21.1730 C   0  0  0  0  0  0  0  0  0  0  0  0
  -28.4260  -21.8540   20.9500 C   0  0  0  0  0  0  0  0  0  0  0  0
  -25.1510  -22.3280   22.5140 C   0  0  0  0  0  1  0  0  0  0  0  0
  -27.2260  -21.6390   21.4800 N   0  0  0  0  0  0  0  0  0  0  0  0
  -28.9430  -23.1050   20.7850 N   0  0  0  0  0  0  0  0  0  0  0  0
  -30.3500  -20.8860   19.5030 C   0  0  0  0  0  1  0  0  0  0  0  0
  -29.1030  -20.5490   20.3460 C   0  0  0  0  0  3  0  0  0  0  0  0
  -28.5690  -19.2500   22.4850 C   0  0  0  0  0  1  0  0  0  0  0  0
  -29.3550  -19.3080   21.2260 N   0  0  1  0  0  4  0  0  0  0  0  0
  -30.2720  -19.4950   21.6000 H   0  0  0  0  0  0  0  0  0  0  0  0
  -29.5400  -17.9710   20.4810 C   0  0  0  0  0  2  0  0  0  0  0  0
  -29.1410  -16.5710   21.1670 C   0  0  0  0  0  2  0  0  0  0  0  0
  -30.6790  -14.5970   20.6060 C   0  0  0  0  0  0  0  0  0  0  0  0
  -30.4190  -12.4070   19.4570 C   0  0  0  0  0  2  0  0  0  0  0  0
  -29.4940  -12.5410   18.2310 C   0  0  0  0  0  2  0  0  0  0  0  0
  -28.0320  -12.3300   18.6590 C   0  0  0  0  0  2  0  0  0  0  0  0
  -27.6480  -13.2080   19.8740 C   0  0  0  0  0  3  0  0  0  0  0  0
  -28.6770  -13.0830   21.0170 C   0  0  0  0  0  2  0  0  0  0  0  0
  -30.0000  -13.4120   20.4650 N   0  0  0  0  0  0  0  0  0  0  0  0
  -31.7650  -14.7500   20.0390 O   0  0  0  0  0  0  0  0  0  0  0  0
  -30.2230  -15.5660   21.4800 N   0  0  0  0  0  0  0  0  0  0  0  0
  -25.2520  -13.8180   20.5670 C   0  0  0  0  0  0  0  0  0  0  0  0
  -24.1820  -13.0480   20.9120 C   0  0  0  0  0  0  0  0  0  0  0  0
  -24.6280  -11.6910   20.8650 C   0  0  0  0  0  0  0  0  0  0  0  0
  -26.2900  -12.9320   20.3300 N   0  0  0  0  0  0  0  0  0  0  0  0
  -25.9210  -11.6490   20.5720 N   0  0  0  0  0  0  0  0  0  0  0  0
  -23.8960  -10.4280   21.0330 C   0  0  0  0  0  0  0  0  0  0  0  0
  -24.3530   -9.4210   21.9120 C   0  0  0  0  0  3  0  0  0  0  0  0
  -23.6230   -8.2240   22.0710 C   0  0  0  0  0  3  0  0  0  0  0  0
  -22.4220   -8.0210   21.3480 C   0  0  0  0  0  0  0  0  0  0  0  0
  -21.9830   -9.0180   20.4610 C   0  0  0  0  0  3  0  0  0  0  0  0
  -22.7130  -10.2080   20.3000 C   0  0  0  0  0  3  0  0  0  0  0  0
  -21.6620   -6.8790   21.4170 O   0  0  0  0  0  0  0  0  0  0  0  0
  -21.6850   -6.0660   22.5220 C   0  0  0  0  0  0  0  0  0  0  0  0
  -21.4040   -6.5610   23.8160 C   0  0  0  0  0  3  0  0  0  0  0  0
  -21.3650   -5.6790   24.9140 C   0  0  0  0  0  3  0  0  0  0  0  0
  -21.6040   -4.3030   24.7230 C   0  0  0  0  0  0  0  0  0  0  0  0
  -21.8840   -3.8110   23.4360 C   0  0  0  0  0  3  0  0  0  0  0  0
  -21.9190   -4.6900   22.3390 C   0  0  0  0  0  0  0  0  0  0  0  0
  -22.1680   -4.2110   21.0970 F   0  0  0  0  0  0  0  0  0  0  0  0
  -21.5590   -3.4520   25.7730 F   0  0  0  0  0  0  0  0  0  0  0  0
  -22.7820  -13.5230   21.1780 C   0  0  0  0  0  0  0  0  0  0  0  0
  -22.0500  -12.8220   22.0370 N   0  0  0  0  0  0  0  0  0  0  0  0
  -22.3550  -14.5530   20.6580 O   0  0  0  0  0  0  0  0  0  0  0  0
  -22.4110  -11.9850   22.4710 H   0  0  0  0  0  0  0  0  0  0  0  0
  -21.1120  -13.1260   22.2640 H   0  0  0  0  0  0  0  0  0  0  0  0
  -25.4390  -15.1910   20.4030 N   0  0  0  0  0  0  0  0  0  0  0  0
  -24.6790  -15.8600   20.4500 H   0  0  0  0  0  0  0  0  0  0  0  0
  -26.3020  -15.5870   20.0590 H   0  0  0  0  0  0  0  0  0  0  0  0
  -31.1990  -16.1950   22.4040 C   0  0  0  0  0  2  0  0  0  0  0  0
  -33.4460  -15.7790   23.5820 C   0  0  0  0  0  1  0  0  0  0  0  0
  -32.0580  -15.2200   23.2550 C   0  0  0  0  0  2  0  0  0  0  0  0
  -28.7590  -25.6660   21.1280 C   0  0  0  0  0  2  0  0  0  0  0  0
  -28.3760  -26.5490   20.0330 O   0  0  0  0  0  0  0  0  0  0  0  0
  -24.6250  -31.8620   23.2050 C   0  0  0  0  0  0  0  0  0  0  0  0
  -27.2440  -27.3530   20.1380 C   0  0  0  0  0  0  0  0  0  0  0  0
  -23.4220  -30.4770   21.5490 C   0  0  0  0  0  3  0  0  0  0  0  0
  -24.8760  -28.9360   20.1120 C   0  0  0  0  0  0  0  0  0  0  0  0
  -25.9600  -30.8070   21.3690 C   0  0  0  0  0  2  0  0  0  0  0  0
  -26.0410  -29.4320   20.7210 C   0  0  0  0  0  0  0  0  0  0  0  0
  -27.2320  -28.6500   20.7270 C   0  0  0  0  0  3  0  0  0  0  0  0
  -26.0680  -26.8950   19.5140 C   0  0  0  0  0  3  0  0  0  0  0  0
  -24.8900  -27.6720   19.4950 C   0  0  0  0  0  3  0  0  0  0  0  0
  -23.6340  -29.8090   20.1650 C   0  0  0  0  0  2  0  0  0  0  0  0
  -24.6870  -31.0630   22.0980 N   0  0  0  0  0  0  0  0  0  0  0  0
  -23.5410  -32.1400   23.7390 O   0  0  0  0  0  0  0  0  0  0  0  0
  -22.7510  -29.4570   22.4990 C   0  0  0  0  0  0  0  0  0  0  0  0
  -21.4230  -29.3010   22.3750 N   0  0  0  0  0  0  0  0  0  0  0  0
  -23.4270  -28.8100   23.3040 O   0  0  0  0  0  0  0  0  0  0  0  0
  -20.9460  -29.8830   21.6990 H   0  0  0  0  0  0  0  0  0  0  0  0
  -18.0240  -28.1260   22.8380 C   0  0  0  0  0  0  0  0  0  0  0  0
  -20.5850  -28.3610   23.1240 C   0  0  0  0  0  3  0  0  0  0  0  0
  -20.6810  -26.9330   22.5370 C   0  0  0  0  0  2  0  0  0  0  0  0
  -19.5810  -26.6270   21.5140 C   0  0  0  0  0  2  0  0  0  0  0  0
  -18.1940  -26.7800   22.1490 C   0  0  0  0  0  2  0  0  0  0  0  0
  -19.1480  -28.8760   23.2780 C   0  0  0  0  0  0  0  0  0  0  0  0
  -18.9420  -30.1330   23.8860 C   0  0  0  0  0  3  0  0  0  0  0  0
  -17.6430  -30.6480   24.0510 C   0  0  0  0  0  3  0  0  0  0  0  0
  -16.5320  -29.9000   23.6270 C   0  0  0  0  0  3  0  0  0  0  0  0
  -16.7220  -28.6400   23.0330 C   0  0  0  0  0  3  0  0  0  0  0  0
  -25.9090  -32.4790   23.8380 C   0  0  0  0  0  3  0  0  0  0  0  0
  -25.5910  -33.8600   24.2300 N   0  0  0  0  0  0  0  0  0  0  0  0
  -25.9030  -34.9440   23.5110 C   0  0  0  0  0  0  0  0  0  0  0  0
  -26.5600  -34.8900   22.4670 O   0  0  0  0  0  0  0  0  0  0  0  0
  -25.0090  -33.9680   25.0480 H   0  0  0  0  0  0  0  0  0  0  0  0
  -24.1510  -36.7320   23.2640 C   0  0  0  0  0  1  0  0  0  0  0  0
  -25.4130  -36.3090   24.0320 C   0  0  0  0  0  3  0  0  0  0  0  0
  -27.5620  -37.1840   24.8460 C   0  0  0  0  0  1  0  0  0  0  0  0
  -26.4330  -37.3750   23.9400 N   0  0  0  0  0  0  0  0  0  0  0  0
  -26.0210  -38.2830   24.1350 H   0  0  0  0  0  0  0  0  0  0  0  0
  -26.4460  -31.6600   25.0760 C   0  0  1  0  0  0  0  0  0  0  0  0
  -25.3600  -31.3740   26.1430 C   0  0  0  0  0  1  0  0  0  0  0  0
  -27.0340  -30.3030   24.6160 C   0  0  0  0  0  1  0  0  0  0  0  0
  -27.6030  -32.4330   25.7510 C   0  0  0  0  0  1  0  0  0  0  0  0
  1  2  2  0
  2  5  1  0
  3  1  1  0
  4  6  2  0
  6  2  1  0
  7  4  1  0
  7  3  2  0
  9  8  1  0
  9  4  1  0
  9 11  1  0
 11 12  1  1
 11 10  1  0
 13 14  1  0
 13 11  1  0
 14 23  1  0
 15 23  1  0
 16 21  1  0
 17 18  1  0
 17 16  1  0
 19 18  1  0
 19 27  1  0
 19 20  1  0
 21 15  1  0
 21 20  1  0
 22 15  2  0
 23 52  1  0
 24 25  2  0
 25 44  1  0
 26 25  1  0
 26 29  1  0
 27 24  1  0
 27 28  1  0
 28 26  2  0
 29 30  1  0
 30 31  2  0
 32 35  1  0
 32 31  1  0
 33 32  2  0
 34 33  1  0
 34 29  2  0
 35 36  1  0
 36 37  1  0
 37 38  2  0
 39 38  1  0
 39 43  1  0
 40 39  2  0
 41 36  2  0
 41 40  1  0
 42 41  1  0
 44 45  1  0
 45 48  1  0
 45 47  1  0
 46 44  2  0
 49 50  1  0
 49 24  1  0
 51 49  1  0
 52 54  1  0
 54 53  1  0
 55  3  1  0
 56 58  1  0
 56 55  1  0
 57 68  2  0
 58 63  1  0
 59 67  1  0
 59 69  1  0
 60 66  1  0
 60 62  1  0
 61 67  1  0
 62 63  2  0
 62 61  1  0
 64 58  2  0
 65 64  1  0
 65 60  2  0
 66 59  1  0
 67 57  1  0
 69 71  2  0
 70 69  1  0
 72 70  1  0
 73 82  2  0
 73 78  1  0
 74 70  1  0
 74 78  1  0
 75 74  1  0
 76 77  1  0
 76 75  1  0
 77 73  1  0
 78 79  2  0
 79 80  1  0
 81 80  2  0
 82 81  1  0
 83 57  1  0
 83 84  1  0
 83 93  1  0
 84 87  1  0
 85 89  1  0
 85 84  1  0
 86 85  2  0
 89 88  1  0
 91 89  1  0
 91 92  1  0
 91 90  1  0
 93 96  1  1
 93 94  1  0
 95 93  1  0
M  ISO  4  15 100  23 100  55 101  56 101
M  END
>  <TORSDO>  (39) 
F 23

>  <SCORE>  (39) 
6.414

>  <name>  (39) 
38

>  <ligand_id>  (39) 
38

>  <original_smiles>  (39) 
[H]c1c(C([H])([H])[H])nc(C([H])(C([H])([H])[H])[N+]([H])(C([H])([H])[H])C([H])([H])C([H])([H])N(C(=O)N2C([H])([H])C([H])([H])C([H])([H])C([H])(n3nc(-c4c([H])c([H])c(Oc5c([H])c([H])c(F)c([H])c5F)c([H])c4[H])c(C(=O)N([H])[H])c3N([H])[H])C2([H])[H])C([H])([H])C([H])([H])C([H])([H])[H])nc1C([H])([H])Oc1c([H])c([H])c2c(c1[H])C([H])([H])N(C(=O)C([H])(N([H])C(=O)C([H])(N([H])C([H])([H])[H])C([H])([H])[H])C(C([H])([H])[H])(C([H])([H])[H])C([H])([H])[H])C([H])(C(=O)N([H])C1([H])c3c([H])c([H])c([H])c([H])c3C([H])([H])C([H])([H])C1([H])[H])C2([H])[H]

>  <smiles>  (39) 
[H]c1c(C([H])([H])[H])nc(C([H])(C([H])([H])[H])[N+]([H])(C([H])([H])[H])C([H])([H])C([H])([H])N(C(=O)N2C([H])([H])C([H])([H])C([H])([H])C([H])(n3nc(-c4c([H])c([H])c(Oc5c([H])c([H])c(F)c([H])c5F)c([H])c4[H])c(C(=O)N([H])[H])c3N([H])[H])C2([H])[H])C([H])([H])C([H])([H])C([H])([H])[H])nc1C([H])([H])Oc1c([H])c([H])c2c(c1[H])C([H])([H])N(C(=O)C([H])(N([H])C(=O)C([H])(N([H])C([H])([H])[H])C([H])([H])[H])C(C([H])([H])[H])(C([H])([H])[H])C([H])([H])[H])C([H])(C(=O)N([H])C1([H])c3c([H])c([H])c([H])c([H])c3C([H])([H])C([H])([H])C1([H])[H])C2([H])[H]

$$$$
39:0:0
     RDKit          3D

 93102  0  0  1  0  0  0  0  0999 V2000
  -29.8540  -20.2780   22.0610 C   0  0  0  0  0  3  0  0  0  0  0  0
  -29.4730  -21.3060   21.1670 C   0  0  0  0  0  0  0  0  0  0  0  0
  -29.2380  -20.8780   19.8570 C   0  0  0  0  0  0  0  0  0  0  0  0
  -29.8540  -18.6680   20.3980 C   0  0  0  0  0  0  0  0  0  0  0  0
  -29.3210  -22.7960   21.6110 C   0  0  0  0  0  2  0  0  0  0  0  0
  -28.8000  -21.9140   18.8160 C   0  0  0  0  0  2  0  0  0  0  0  0
  -28.1550  -23.2160   19.4050 C   0  0  0  0  0  2  0  0  0  0  0  0
  -28.9800  -23.9130   20.5240 C   0  0  0  0  0  3  0  0  0  0  0  0
  -30.0440  -18.9870   21.6780 N   0  0  0  0  0  0  0  0  0  0  0  0
  -29.4390  -19.5740   19.4850 N   0  0  0  0  0  0  0  0  0  0  0  0
  -26.9760  -25.0540   21.7150 C   0  0  0  0  0  1  0  0  0  0  0  0
  -29.2950  -25.8090   22.2370 C   0  0  0  0  0  1  0  0  0  0  0  0
  -28.3780  -25.3190   21.1000 C   0  0  1  0  0  0  0  0  0  0  0  0
  -28.4030  -26.5240   20.2090 O   0  0  0  0  0  0  0  0  0  0  0  0
  -24.6350  -31.9320   23.2260 C   0  0  0  0  0  0  0  0  0  0  0  0
  -27.3110  -27.4100   20.1820 C   0  0  0  0  0  0  0  0  0  0  0  0
  -23.4570  -30.5210   21.5770 C   0  0  0  0  0  3  0  0  0  0  0  0
  -24.9360  -28.9970   20.1490 C   0  0  0  0  0  0  0  0  0  0  0  0
  -25.9920  -30.8730   21.4080 C   0  0  0  0  0  2  0  0  0  0  0  0
  -26.0940  -29.4960   20.7610 C   0  0  0  0  0  0  0  0  0  0  0  0
  -27.2880  -28.7120   20.7720 C   0  0  0  0  0  3  0  0  0  0  0  0
  -26.1460  -26.9800   19.5150 C   0  0  0  0  0  3  0  0  0  0  0  0
  -24.9640  -27.7440   19.5160 C   0  0  0  0  0  3  0  0  0  0  0  0
  -23.6860  -29.8530   20.1960 C   0  0  0  0  0  2  0  0  0  0  0  0
  -24.7130  -31.1260   22.1270 N   0  0  0  0  0  0  0  0  0  0  0  0
  -23.5460  -32.1950   23.7570 O   0  0  0  0  0  0  0  0  0  0  0  0
  -22.8020  -29.4940   22.5320 C   0  0  0  0  0  0  0  0  0  0  0  0
  -21.4760  -29.3150   22.4130 N   0  0  0  0  0  0  0  0  0  0  0  0
  -23.4870  -28.8610   23.3410 O   0  0  0  0  0  0  0  0  0  0  0  0
  -20.9830  -29.8780   21.7340 H   0  0  0  0  0  0  0  0  0  0  0  0
  -18.1020  -28.1220   22.9380 C   0  0  0  0  0  0  0  0  0  0  0  0
  -20.6640  -28.3690   23.1800 C   0  0  0  0  0  3  0  0  0  0  0  0
  -20.7540  -26.9460   22.5830 C   0  0  0  0  0  2  0  0  0  0  0  0
  -19.6380  -26.6410   21.5780 C   0  0  0  0  0  2  0  0  0  0  0  0
  -18.2650  -26.7820   22.2410 C   0  0  0  0  0  2  0  0  0  0  0  0
  -19.2280  -28.8740   23.3660 C   0  0  0  0  0  0  0  0  0  0  0  0
  -19.0220  -30.1290   23.9790 C   0  0  0  0  0  3  0  0  0  0  0  0
  -17.7210  -30.6320   24.1680 C   0  0  0  0  0  3  0  0  0  0  0  0
  -16.6090  -29.8770   23.7580 C   0  0  0  0  0  3  0  0  0  0  0  0
  -16.7990  -28.6230   23.1490 C   0  0  0  0  0  3  0  0  0  0  0  0
  -25.9070  -32.5780   23.8550 C   0  0  0  0  0  3  0  0  0  0  0  0
  -25.5860  -33.9780   24.1680 N   0  0  0  0  0  0  0  0  0  0  0  0
  -25.9160  -35.0260   23.4010 C   0  0  0  0  0  0  0  0  0  0  0  0
  -26.5940  -34.9150   22.3760 O   0  0  0  0  0  0  0  0  0  0  0  0
  -24.9830  -34.1370   24.9630 H   0  0  0  0  0  0  0  0  0  0  0  0
  -24.1820  -36.8060   23.0130 C   0  0  0  0  0  1  0  0  0  0  0  0
  -25.4160  -36.4160   23.8410 C   0  0  0  0  0  3  0  0  0  0  0  0
  -27.5350  -37.3220   24.6900 C   0  0  0  0  0  1  0  0  0  0  0  0
  -26.4450  -37.4730   23.7290 N   0  0  0  0  0  0  0  0  0  0  0  0
  -26.0320  -38.3920   23.8600 H   0  0  0  0  0  0  0  0  0  0  0  0
  -26.4150  -31.8240   25.1450 C   0  0  1  0  0  0  0  0  0  0  0  0
  -25.3100  -31.5840   26.2010 C   0  0  0  0  0  1  0  0  0  0  0  0
  -27.0170  -30.4480   24.7740 C   0  0  0  0  0  1  0  0  0  0  0  0
  -27.5490  -32.6360   25.8150 C   0  0  0  0  0  1  0  0  0  0  0  0
  -30.4170  -17.2890   19.8850 C   0  0  0  0  0  2  0  0  0  0  0  0
  -30.7330  -14.7950   20.2280 C   0  0  0  0  0  0  0  0  0  0  0  0
  -30.4680  -12.5510   19.1990 C   0  0  0  0  0  2  0  0  0  0  0  0
  -29.5220  -12.6740   17.9850 C   0  0  0  0  0  2  0  0  0  0  0  0
  -28.0560  -12.5100   18.4290 C   0  0  0  0  0  2  0  0  0  0  0  0
  -27.7060  -13.3760   19.6690 C   0  0  0  0  0  3  0  0  0  0  0  0
  -28.7780  -13.2630   20.7770 C   0  0  0  0  0  2  0  0  0  0  0  0
  -30.0740  -13.5910   20.1750 N   0  0  0  0  0  0  0  0  0  0  0  0
  -31.9050  -14.8750   19.8520 O   0  0  0  0  0  0  0  0  0  0  0  0
  -30.0100  -15.9430   20.4400 N   0  0  0  0  0  0  0  0  0  0  0  0
  -29.0570  -15.8630   20.7570 H   0  0  0  0  0  0  0  0  0  0  0  0
  -25.3210  -13.9560   20.4160 C   0  0  0  0  0  0  0  0  0  0  0  0
  -24.2630  -13.1770   20.7970 C   0  0  0  0  0  0  0  0  0  0  0  0
  -24.7320  -11.8270   20.7600 C   0  0  0  0  0  0  0  0  0  0  0  0
  -26.3670  -13.0820   20.1710 N   0  0  0  0  0  0  0  0  0  0  0  0
  -26.0200  -11.7970   20.4400 N   0  0  0  0  0  0  0  0  0  0  0  0
  -24.0130  -10.5620   20.9560 C   0  0  0  0  0  0  0  0  0  0  0  0
  -24.4490   -9.6020   21.8950 C   0  0  0  0  0  3  0  0  0  0  0  0
  -23.7280   -8.4020   22.0790 C   0  0  0  0  0  3  0  0  0  0  0  0
  -22.5600   -8.1510   21.3210 C   0  0  0  0  0  0  0  0  0  0  0  0
  -22.1430   -9.1000   20.3710 C   0  0  0  0  0  3  0  0  0  0  0  0
  -22.8640  -10.2910   20.1860 C   0  0  0  0  0  3  0  0  0  0  0  0
  -21.8120   -7.0030   21.4140 O   0  0  0  0  0  0  0  0  0  0  0  0
  -21.7540   -6.2720   22.5740 C   0  0  0  0  0  0  0  0  0  0  0  0
  -21.2900   -6.8320   23.7840 C   0  0  0  0  0  3  0  0  0  0  0  0
  -21.1820   -6.0270   24.9360 C   0  0  0  0  0  3  0  0  0  0  0  0
  -21.5280   -4.6640   24.8790 C   0  0  0  0  0  0  0  0  0  0  0  0
  -21.9840   -4.1040   23.6720 C   0  0  0  0  0  3  0  0  0  0  0  0
  -22.0940   -4.9050   22.5230 C   0  0  0  0  0  0  0  0  0  0  0  0
  -22.5140   -4.3560   21.3580 F   0  0  0  0  0  0  0  0  0  0  0  0
  -21.4160   -3.8880   25.9820 F   0  0  0  0  0  0  0  0  0  0  0  0
  -22.8660  -13.6460   21.0820 C   0  0  0  0  0  0  0  0  0  0  0  0
  -22.1470  -12.9420   21.9500 N   0  0  0  0  0  0  0  0  0  0  0  0
  -22.4200  -14.6730   20.5700 O   0  0  0  0  0  0  0  0  0  0  0  0
  -22.5200  -12.1130   22.3850 H   0  0  0  0  0  0  0  0  0  0  0  0
  -21.2100  -13.2390   22.1830 H   0  0  0  0  0  0  0  0  0  0  0  0
  -25.4760  -15.3280   20.2360 N   0  0  0  0  0  0  0  0  0  0  0  0
  -24.7020  -15.9750   20.3440 H   0  0  0  0  0  0  0  0  0  0  0  0
  -26.3090  -15.7670   19.8670 H   0  0  0  0  0  0  0  0  0  0  0  0
  2  5  1  0
  2  1  2  0
  3  2  1  0
  4  9  2  0
  6  7  1  0
  6  3  1  0
  7  8  1  0
  8 13  1  0
  8  5  1  0
  9  1  1  0
 10  3  2  0
 10  4  1  0
 13 11  1  1
 13 12  1  0
 14 13  1  0
 15 26  2  0
 16 14  1  0
 16 21  1  0
 17 25  1  0
 17 27  1  0
 18 24  1  0
 18 20  1  0
 19 25  1  0
 20 21  2  0
 20 19  1  0
 22 23  1  0
 22 16  2  0
 23 18  2  0
 24 17  1  0
 25 15  1  0
 27 29  2  0
 28 27  1  0
 30 28  1  0
 31 40  2  0
 31 36  1  0
 32 28  1  0
 32 36  1  0
 33 32  1  0
 34 35  1  0
 34 33  1  0
 35 31  1  0
 36 37  2  0
 37 38  1  0
 39 38  2  0
 40 39  1  0
 41 15  1  0
 41 42  1  0
 41 51  1  0
 42 45  1  0
 43 47  1  0
 43 42  1  0
 44 43  2  0
 47 46  1  0
 49 47  1  0
 49 50  1  0
 49 48  1  0
 51 54  1  1
 51 52  1  0
 53 51  1  0
 55  4  1  0
 55 64  1  0
 56 64  1  0
 57 62  1  0
 58 59  1  0
 58 57  1  0
 60 59  1  0
 60 69  1  0
 60 61  1  0
 62 56  1  0
 62 61  1  0
 63 56  2  0
 64 65  1  0
 66 67  2  0
 67 86  1  0
 68 67  1  0
 68 71  1  0
 69 66  1  0
 69 70  1  0
 70 68  2  0
 71 72  1  0
 72 73  2  0
 74 77  1  0
 74 73  1  0
 75 74  2  0
 76 75  1  0
 76 71  2  0
 77 78  1  0
 78 79  1  0
 79 80  2  0
 81 80  1  0
 81 85  1  0
 82 81  2  0
 83 78  2  0
 83 82  1  0
 84 83  1  0
 86 87  1  0
 87 90  1  0
 87 89  1  0
 88 86  2  0
 91 92  1  0
 91 66  1  0
 93 91  1  0
M  ISO  4  13 101  14 101  56 100  64 100
M  END
>  <TORSDO>  (40) 
F 18

>  <SCORE>  (40) 
-14.385

>  <name>  (40) 
39

>  <ligand_id>  (40) 
39

>  <original_smiles>  (40) 
[H]c1nc(C([H])([H])N([H])C(=O)N2C([H])([H])C([H])([H])C([H])([H])C([H])(n3nc(-c4c([H])c([H])c(Oc5c([H])c([H])c(F)c([H])c5F)c([H])c4[H])c(C(=O)N([H])[H])c3N([H])[H])C2([H])[H])nc2c1C([H])([H])C([H])(C(Oc1c([H])c([H])c3c(c1[H])C([H])([H])N(C(=O)C([H])(N([H])C(=O)C([H])(N([H])C([H])([H])[H])C([H])([H])[H])C(C([H])([H])[H])(C([H])([H])[H])C([H])([H])[H])C([H])(C(=O)N([H])C1([H])c4c([H])c([H])c([H])c([H])c4C([H])([H])C([H])([H])C1([H])[H])C3([H])[H])(C([H])([H])[H])C([H])([H])[H])C([H])([H])C2([H])[H]

>  <smiles>  (40) 
[H]c1nc(C([H])([H])N([H])C(=O)N2C([H])([H])C([H])([H])C([H])([H])C([H])(n3nc(-c4c([H])c([H])c(Oc5c([H])c([H])c(F)c([H])c5F)c([H])c4[H])c(C(=O)N([H])[H])c3N([H])[H])C2([H])[H])nc2c1C([H])([H])C([H])(C(Oc1c([H])c([H])c3c(c1[H])C([H])([H])N(C(=O)C([H])(N([H])C(=O)C([H])(N([H])C([H])([H])[H])C([H])([H])[H])C(C([H])([H])[H])(C([H])([H])[H])C([H])([H])[H])C([H])(C(=O)N([H])C1([H])c4c([H])c([H])c([H])c([H])c4C([H])([H])C([H])([H])C1([H])[H])C3([H])[H])(C([H])([H])[H])C([H])([H])[H])C([H])([H])C2([H])[H]

$$$$
40:0:0
     RDKit          3D

 93101  0  0  1  0  0  0  0  0999 V2000
  -30.1550  -20.9830   19.6960 C   0  0  0  0  0  3  0  0  0  0  0  0
  -29.7380  -19.6100   19.7470 C   0  0  0  0  0  0  0  0  0  0  0  0
  -28.0620  -21.0770   19.0580 C   0  0  0  0  0  3  0  0  0  0  0  0
  -29.1290  -21.9120   19.2840 N   0  0  0  0  0  0  0  0  0  0  0  0
  -28.4170  -19.7970   19.3980 N   0  0  0  0  0  0  0  0  0  0  0  0
  -27.7470  -19.0380   19.3490 H   0  0  0  0  0  0  0  0  0  0  0  0
  -25.7250  -21.7570   19.7120 C   0  0  0  0  0  1  0  0  0  0  0  0
  -26.0490  -20.0110   17.9780 C   0  0  0  0  0  1  0  0  0  0  0  0
  -26.5520  -22.3570   17.4050 C   0  0  0  0  0  1  0  0  0  0  0  0
  -26.6390  -21.3270   18.5500 C   0  0  2  0  0  0  0  0  0  0  0  0
  -30.4340  -18.1400   20.1770 C   0  0  0  0  0  2  0  0  0  0  0  0
  -30.6040  -15.3550   19.9980 C   0  0  0  0  0  0  0  0  0  0  0  0
  -30.4490  -12.9670   19.0810 C   0  0  0  0  0  2  0  0  0  0  0  0
  -29.4790  -12.8300   17.8830 C   0  0  0  0  0  2  0  0  0  0  0  0
  -28.0470  -12.5630   18.3800 C   0  0  0  0  0  2  0  0  0  0  0  0
  -27.6390  -13.5180   19.5240 C   0  0  0  0  0  3  0  0  0  0  0  0
  -28.7360  -13.6480   20.6070 C   0  0  0  0  0  2  0  0  0  0  0  0
  -29.9690  -14.0970   19.9360 N   0  0  0  0  0  0  0  0  0  0  0  0
  -31.8290  -15.3230   19.8310 O   0  0  0  0  0  0  0  0  0  0  0  0
  -28.5670  -16.7060   19.4620 C   0  0  0  0  0  1  0  0  0  0  0  0
  -29.9000  -16.6340   20.0410 N   0  0  0  0  0  0  0  0  0  0  0  0
  -25.3100  -14.1410   20.3670 C   0  0  0  0  0  0  0  0  0  0  0  0
  -24.2460  -13.3830   20.7530 C   0  0  0  0  0  0  0  0  0  0  0  0
  -24.6810  -12.0240   20.6720 C   0  0  0  0  0  0  0  0  0  0  0  0
  -26.3250  -13.2440   20.0720 N   0  0  0  0  0  0  0  0  0  0  0  0
  -25.9590  -11.9640   20.3220 N   0  0  0  0  0  0  0  0  0  0  0  0
  -23.9350  -10.7760   20.8450 C   0  0  0  0  0  0  0  0  0  0  0  0
  -24.3930   -9.7580   21.7080 C   0  0  0  0  0  3  0  0  0  0  0  0
  -23.6470   -8.5720   21.8710 C   0  0  0  0  0  3  0  0  0  0  0  0
  -22.4300   -8.4000   21.1700 C   0  0  0  0  0  0  0  0  0  0  0  0
  -21.9920   -9.4070   20.2930 C   0  0  0  0  0  3  0  0  0  0  0  0
  -22.7380  -10.5840   20.1270 C   0  0  0  0  0  3  0  0  0  0  0  0
  -21.6500   -7.2720   21.2510 O   0  0  0  0  0  0  0  0  0  0  0  0
  -21.6800   -6.4570   22.3540 C   0  0  0  0  0  0  0  0  0  0  0  0
  -21.4010   -6.9470   23.6490 C   0  0  0  0  0  3  0  0  0  0  0  0
  -21.3720   -6.0610   24.7450 C   0  0  0  0  0  3  0  0  0  0  0  0
  -21.6120   -4.6890   24.5490 C   0  0  0  0  0  0  0  0  0  0  0  0
  -21.8870   -4.1990   23.2600 C   0  0  0  0  0  3  0  0  0  0  0  0
  -21.9170   -5.0810   22.1660 C   0  0  0  0  0  0  0  0  0  0  0  0
  -22.1620   -4.6020   20.9220 F   0  0  0  0  0  0  0  0  0  0  0  0
  -21.5780   -3.8370   25.6000 F   0  0  0  0  0  0  0  0  0  0  0  0
  -22.8690  -13.8850   21.0740 C   0  0  0  0  0  0  0  0  0  0  0  0
  -22.1590  -13.1980   21.9590 N   0  0  0  0  0  0  0  0  0  0  0  0
  -22.4340  -14.9230   20.5750 O   0  0  0  0  0  0  0  0  0  0  0  0
  -22.5240  -12.3590   22.3840 H   0  0  0  0  0  0  0  0  0  0  0  0
  -21.2370  -13.5170   22.2210 H   0  0  0  0  0  0  0  0  0  0  0  0
  -25.4770  -15.5130   20.2090 N   0  0  0  0  0  0  0  0  0  0  0  0
  -24.7040  -16.1580   20.3250 H   0  0  0  0  0  0  0  0  0  0  0  0
  -26.2840  -15.9330   19.7700 H   0  0  0  0  0  0  0  0  0  0  0  0
  -29.2570  -23.5020   18.8660 C   0  0  0  0  0  2  0  0  0  0  0  0
  -28.1860  -24.8000   21.0390 C   0  0  0  0  0  1  0  0  0  0  0  0
  -28.9120  -24.9610   19.6990 C   0  0  0  0  0  3  0  0  0  0  0  0
  -28.6470  -26.4250   19.1700 O   0  0  0  0  0  0  0  0  0  0  0  0
  -24.6430  -31.5190   22.7760 C   0  0  0  0  0  0  0  0  0  0  0  0
  -27.4780  -27.2670   19.3130 C   0  0  0  0  0  0  0  0  0  0  0  0
  -23.5070  -30.1990   21.0320 C   0  0  0  0  0  3  0  0  0  0  0  0
  -25.0300  -28.8450   19.4580 C   0  0  0  0  0  0  0  0  0  0  0  0
  -26.0320  -30.6520   20.8520 C   0  0  0  0  0  2  0  0  0  0  0  0
  -26.1880  -29.3260   20.0820 C   0  0  0  0  0  0  0  0  0  0  0  0
  -27.4120  -28.5600   19.9790 C   0  0  0  0  0  3  0  0  0  0  0  0
  -26.2830  -26.8800   18.6720 C   0  0  0  0  0  3  0  0  0  0  0  0
  -25.0900  -27.6410   18.7360 C   0  0  0  0  0  3  0  0  0  0  0  0
  -23.7470  -29.6560   19.5960 C   0  0  0  0  0  2  0  0  0  0  0  0
  -24.7480  -30.8100   21.6090 N   0  0  0  0  0  0  0  0  0  0  0  0
  -23.5520  -31.6780   23.3450 O   0  0  0  0  0  0  0  0  0  0  0  0
  -22.9140  -29.0660   21.9100 C   0  0  0  0  0  0  0  0  0  0  0  0
  -21.5930  -28.8390   21.8110 N   0  0  0  0  0  0  0  0  0  0  0  0
  -23.6460  -28.4020   22.6490 O   0  0  0  0  0  0  0  0  0  0  0  0
  -21.0560  -29.4280   21.1900 H   0  0  0  0  0  0  0  0  0  0  0  0
  -18.2970  -27.4340   22.3430 C   0  0  0  0  0  0  0  0  0  0  0  0
  -20.8530  -27.7840   22.5070 C   0  0  0  0  0  3  0  0  0  0  0  0
  -20.9790  -26.4330   21.7660 C   0  0  0  0  0  2  0  0  0  0  0  0
  -19.8360  -26.1750   20.7790 C   0  0  0  0  0  2  0  0  0  0  0  0
  -18.4880  -26.1810   21.5060 C   0  0  0  0  0  2  0  0  0  0  0  0
  -19.4060  -28.1950   22.7990 C   0  0  0  0  0  0  0  0  0  0  0  0
  -19.1690  -29.3700   23.5460 C   0  0  0  0  0  3  0  0  0  0  0  0
  -17.8560  -29.7880   23.8360 C   0  0  0  0  0  3  0  0  0  0  0  0
  -16.7620  -29.0230   23.3930 C   0  0  0  0  0  3  0  0  0  0  0  0
  -16.9840  -27.8490   22.6530 C   0  0  0  0  0  3  0  0  0  0  0  0
  -25.8870  -32.1830   23.4410 C   0  0  0  0  0  3  0  0  0  0  0  0
  -26.4950  -31.3210   24.6150 C   0  0  1  0  0  0  0  0  0  0  0  0
  -25.4560  -30.8880   25.6750 C   0  0  0  0  0  1  0  0  0  0  0  0
  -27.1650  -30.0390   24.0660 C   0  0  0  0  0  1  0  0  0  0  0  0
  -27.6050  -32.1240   25.3340 C   0  0  0  0  0  1  0  0  0  0  0  0
  -25.4770  -33.5070   23.9390 N   0  0  0  0  0  0  0  0  0  0  0  0
  -25.7370  -34.6690   23.3250 C   0  0  0  0  0  0  0  0  0  0  0  0
  -26.4110  -34.7410   22.2950 O   0  0  0  0  0  0  0  0  0  0  0  0
  -24.8700  -33.5160   24.7470 H   0  0  0  0  0  0  0  0  0  0  0  0
  -23.8910  -36.3740   23.1890 C   0  0  0  0  0  1  0  0  0  0  0  0
  -25.1590  -35.9540   23.9510 C   0  0  0  0  0  3  0  0  0  0  0  0
  -27.2310  -36.8710   24.8980 C   0  0  0  0  0  1  0  0  0  0  0  0
  -26.1180  -37.0810   23.9770 N   0  0  0  0  0  0  0  0  0  0  0  0
  -25.6510  -37.9460   24.2340 H   0  0  0  0  0  0  0  0  0  0  0  0
  1  2  2  0
  2 11  1  0
  3 10  1  0
  3  4  1  0
  3  5  1  0
  4  1  1  0
  5  2  1  0
  6  5  1  0
 10  8  1  6
  9 10  1  0
 10  7  1  0
 12 21  1  0
 13 18  1  0
 14 15  1  0
 14 13  1  0
 16 15  1  0
 16 25  1  0
 16 17  1  0
 18 12  1  0
 18 17  1  0
 19 12  2  0
 20 21  1  0
 21 11  1  0
 22 23  2  0
 23 42  1  0
 24 23  1  0
 24 27  1  0
 25 26  1  0
 25 22  1  0
 26 24  2  0
 27 28  1  0
 28 29  2  0
 30 33  1  0
 30 29  1  0
 31 30  2  0
 32 31  1  0
 32 27  2  0
 33 34  1  0
 34 35  1  0
 35 36  2  0
 37 36  1  0
 37 41  1  0
 38 37  2  0
 39 34  2  0
 39 38  1  0
 40 39  1  0
 42 43  1  0
 43 46  1  0
 43 45  1  0
 44 42  2  0
 47 48  1  0
 47 22  1  0
 49 47  1  0
 50  4  1  0
 50 52  1  0
 52 51  1  0
 53 55  1  0
 53 52  1  0
 54 65  2  0
 55 60  1  0
 56 64  1  0
 56 66  1  0
 57 63  1  0
 57 59  1  0
 58 64  1  0
 59 58  1  0
 60 59  2  0
 61 62  1  0
 61 55  2  0
 62 57  2  0
 63 56  1  0
 64 54  1  0
 66 68  2  0
 67 66  1  0
 69 67  1  0
 70 79  2  0
 70 75  1  0
 71 67  1  0
 71 75  1  0
 72 71  1  0
 73 74  1  0
 73 72  1  0
 74 70  1  0
 75 76  2  0
 76 77  1  0
 78 77  2  0
 79 78  1  0
 80 54  1  0
 80 85  1  0
 80 81  1  0
 81 84  1  1
 81 82  1  0
 83 81  1  0
 85 88  1  0
 86 85  1  0
 86 90  1  0
 87 86  2  0
 90 89  1  0
 90 92  1  0
 92 93  1  0
 92 91  1  0
M  ISO  4  12 100  21 100  52 101  53 101
M  END
>  <TORSDO>  (41) 
F 20

>  <SCORE>  (41) 
-11.847

>  <name>  (41) 
40

>  <ligand_id>  (41) 
40

>  <original_smiles>  (41) 
[H]c1c([H])c([H])c2c(c1[H])C([H])([H])C([H])([H])C([H])([H])C2([H])N([H])C(=O)C1([H])N(C(=O)C([H])(N([H])C(=O)C([H])(N([H])C([H])([H])[H])C([H])([H])[H])C(C([H])([H])[H])(C([H])([H])[H])C([H])([H])[H])C([H])([H])c2c([H])c(OC([H])(C([H])([H])[H])C([H])([H])n3c([H])c(C([H])([H])N(C(=O)N4C([H])([H])C([H])([H])C([H])([H])C([H])(n5nc(-c6c([H])c([H])c(Oc7c([H])c([H])c(F)c([H])c7F)c([H])c6[H])c(C(=O)N([H])[H])c5N([H])[H])C4([H])[H])C([H])([H])[H])[n+]([H])c3C(C([H])([H])[H])(C([H])([H])[H])C([H])([H])[H])c([H])c([H])c2C1([H])[H]

>  <smiles>  (41) 
[H]c1c([H])c([H])c2c(c1[H])C([H])([H])C([H])([H])C([H])([H])C2([H])N([H])C(=O)C1([H])N(C(=O)C([H])(N([H])C(=O)C([H])(N([H])C([H])([H])[H])C([H])([H])[H])C(C([H])([H])[H])(C([H])([H])[H])C([H])([H])[H])C([H])([H])c2c([H])c(OC([H])(C([H])([H])[H])C([H])([H])n3c([H])c(C([H])([H])N(C(=O)N4C([H])([H])C([H])([H])C([H])([H])C([H])(n5nc(-c6c([H])c([H])c(Oc7c([H])c([H])c(F)c([H])c7F)c([H])c6[H])c(C(=O)N([H])[H])c5N([H])[H])C4([H])[H])C([H])([H])[H])[n+]([H])c3C(C([H])([H])[H])(C([H])([H])[H])C([H])([H])[H])c([H])c([H])c2C1([H])[H]

$$$$
41:0:0
     RDKit          3D

 90 98  0  0  1  0  0  0  0  0999 V2000
  -28.4460  -22.5610   17.8300 C   0  0  0  0  0  3  0  0  0  0  0  0
  -29.0120  -20.5160   18.0170 C   0  0  0  0  0  3  0  0  0  0  0  0
  -28.9900  -22.4490   19.0980 C   0  0  0  0  0  0  0  0  0  0  0  0
  -28.4630  -21.3520   17.1520 N   0  0  0  0  0  0  0  0  0  0  0  0
  -29.3380  -21.0290   19.2160 N   0  0  0  0  0  0  0  0  0  0  0  0
  -30.6430  -24.0780   20.1740 C   0  0  0  0  0  1  0  0  0  0  0  0
  -29.1590  -23.7120   20.0270 C   0  0  0  0  0  3  0  0  0  0  0  0
  -28.3410  -25.0320   19.5390 C   0  0  0  0  0  2  0  0  0  0  0  0
  -28.3590  -26.3810   20.1980 O   0  0  0  0  0  0  0  0  0  0  0  0
  -24.6470  -31.8340   23.2350 C   0  0  0  0  0  0  0  0  0  0  0  0
  -27.2440  -27.2530   20.1300 C   0  0  0  0  0  0  0  0  0  0  0  0
  -23.4390  -30.4470   21.5900 C   0  0  0  0  0  3  0  0  0  0  0  0
  -24.8810  -28.9040   20.1530 C   0  0  0  0  0  0  0  0  0  0  0  0
  -25.9850  -30.7450   21.4130 C   0  0  0  0  0  2  0  0  0  0  0  0
  -26.0550  -29.3680   20.7540 C   0  0  0  0  0  0  0  0  0  0  0  0
  -27.2320  -28.5520   20.7440 C   0  0  0  0  0  3  0  0  0  0  0  0
  -26.0430  -26.8690   19.4820 C   0  0  0  0  0  3  0  0  0  0  0  0
  -24.8790  -27.6570   19.5150 C   0  0  0  0  0  3  0  0  0  0  0  0
  -23.6500  -29.7840   20.2060 C   0  0  0  0  0  2  0  0  0  0  0  0
  -24.7100  -31.0250   22.1350 N   0  0  0  0  0  0  0  0  0  0  0  0
  -23.5660  -32.1120   23.7720 O   0  0  0  0  0  0  0  0  0  0  0  0
  -22.7730  -29.4280   22.5460 C   0  0  0  0  0  0  0  0  0  0  0  0
  -21.4480  -29.2460   22.4120 N   0  0  0  0  0  0  0  0  0  0  0  0
  -23.4470  -28.8030   23.3700 O   0  0  0  0  0  0  0  0  0  0  0  0
  -20.9600  -29.7990   21.7210 H   0  0  0  0  0  0  0  0  0  0  0  0
  -18.0770  -28.0250   22.8910 C   0  0  0  0  0  0  0  0  0  0  0  0
  -20.6310  -28.3070   23.1840 C   0  0  0  0  0  3  0  0  0  0  0  0
  -20.7510  -26.8730   22.6180 C   0  0  0  0  0  2  0  0  0  0  0  0
  -19.6610  -26.5330   21.5970 C   0  0  0  0  0  2  0  0  0  0  0  0
  -18.2710  -26.6720   22.2260 C   0  0  0  0  0  2  0  0  0  0  0  0
  -19.1860  -28.7960   23.3280 C   0  0  0  0  0  0  0  0  0  0  0  0
  -18.9540  -30.0590   23.9150 C   0  0  0  0  0  3  0  0  0  0  0  0
  -17.6430  -30.5510   24.0680 C   0  0  0  0  0  3  0  0  0  0  0  0
  -16.5480  -29.7760   23.6520 C   0  0  0  0  0  3  0  0  0  0  0  0
  -16.7650  -28.5150   23.0680 C   0  0  0  0  0  3  0  0  0  0  0  0
  -25.9310  -32.4660   23.8560 C   0  0  0  0  0  3  0  0  0  0  0  0
  -25.6200  -33.8620   24.1910 N   0  0  0  0  0  0  0  0  0  0  0  0
  -25.9390  -34.9190   23.4340 C   0  0  0  0  0  0  0  0  0  0  0  0
  -26.5910  -34.8220   22.3880 O   0  0  0  0  0  0  0  0  0  0  0  0
  -25.0430  -34.0150   25.0050 H   0  0  0  0  0  0  0  0  0  0  0  0
  -24.1910  -36.7040   23.1240 C   0  0  0  0  0  1  0  0  0  0  0  0
  -25.4540  -36.3030   23.9040 C   0  0  0  0  0  3  0  0  0  0  0  0
  -27.6010  -37.1980   24.6870 C   0  0  0  0  0  1  0  0  0  0  0  0
  -26.4770  -37.3630   23.7700 N   0  0  0  0  0  0  0  0  0  0  0  0
  -26.0690  -38.2810   23.9290 H   0  0  0  0  0  0  0  0  0  0  0  0
  -26.4500  -31.6920   25.1290 C   0  0  1  0  0  0  0  0  0  0  0  0
  -25.3550  -31.4530   26.1950 C   0  0  0  0  0  1  0  0  0  0  0  0
  -27.0350  -30.3160   24.7350 C   0  0  0  0  0  1  0  0  0  0  0  0
  -27.6000  -32.4840   25.7910 C   0  0  0  0  0  1  0  0  0  0  0  0
  -30.0070  -20.1330   20.2350 C   0  0  0  0  0  2  0  0  0  0  0  0
  -29.5190  -18.5780   20.3640 C   0  0  0  0  0  3  0  0  0  0  0  0
  -30.5420  -17.3330   20.1370 C   0  0  0  0  0  3  0  0  0  0  0  0
  -30.8160  -14.7490   20.0950 C   0  0  0  0  0  0  0  0  0  0  0  0
  -30.5300  -12.5410   18.9430 C   0  0  0  0  0  2  0  0  0  0  0  0
  -29.5240  -12.6360   17.7720 C   0  0  0  0  0  2  0  0  0  0  0  0
  -28.0720  -12.4600   18.2630 C   0  0  0  0  0  2  0  0  0  0  0  0
  -27.7710  -13.2960   19.5330 C   0  0  0  0  0  3  0  0  0  0  0  0
  -28.8790  -13.1150   20.5880 C   0  0  0  0  0  2  0  0  0  0  0  0
  -30.1480  -13.5430   19.9720 N   0  0  0  0  0  0  0  0  0  0  0  0
  -31.9380  -14.8590   19.5860 O   0  0  0  0  0  0  0  0  0  0  0  0
  -29.6370  -15.9050   21.9190 C   0  0  0  0  0  1  0  0  0  0  0  0
  -30.1560  -15.9020   20.5460 N   0  0  0  0  0  0  0  0  0  0  0  0
  -25.4190  -13.8830   20.3820 C   0  0  0  0  0  0  0  0  0  0  0  0
  -24.3700  -13.1060   20.7880 C   0  0  0  0  0  0  0  0  0  0  0  0
  -24.8270  -11.7540   20.7120 C   0  0  0  0  0  0  0  0  0  0  0  0
  -26.4480  -13.0050   20.0800 N   0  0  0  0  0  0  0  0  0  0  0  0
  -26.1010  -11.7180   20.3420 N   0  0  0  0  0  0  0  0  0  0  0  0
  -24.1070  -10.4910   20.9130 C   0  0  0  0  0  0  0  0  0  0  0  0
  -24.5490   -9.5300   21.8480 C   0  0  0  0  0  3  0  0  0  0  0  0
  -23.8290   -8.3300   22.0360 C   0  0  0  0  0  3  0  0  0  0  0  0
  -22.6530   -8.0830   21.2890 C   0  0  0  0  0  0  0  0  0  0  0  0
  -22.2300   -9.0340   20.3430 C   0  0  0  0  0  3  0  0  0  0  0  0
  -22.9490  -10.2260   20.1540 C   0  0  0  0  0  3  0  0  0  0  0  0
  -21.9050   -6.9360   21.3860 O   0  0  0  0  0  0  0  0  0  0  0  0
  -21.8230   -6.2250   22.5570 C   0  0  0  0  0  0  0  0  0  0  0  0
  -21.3550   -6.8120   23.7520 C   0  0  0  0  0  3  0  0  0  0  0  0
  -21.2210   -6.0280   24.9160 C   0  0  0  0  0  3  0  0  0  0  0  0
  -21.5460   -4.6590   24.8850 C   0  0  0  0  0  0  0  0  0  0  0  0
  -22.0050   -4.0720   23.6930 C   0  0  0  0  0  3  0  0  0  0  0  0
  -22.1410   -4.8530   22.5310 C   0  0  0  0  0  0  0  0  0  0  0  0
  -22.5640   -4.2760   21.3820 F   0  0  0  0  0  0  0  0  0  0  0  0
  -21.4100   -3.9050   26.0000 F   0  0  0  0  0  0  0  0  0  0  0  0
  -22.9880  -13.5810   21.1300 C   0  0  0  0  0  0  0  0  0  0  0  0
  -22.3010  -12.8770   22.0210 N   0  0  0  0  0  0  0  0  0  0  0  0
  -22.5270  -14.6110   20.6390 O   0  0  0  0  0  0  0  0  0  0  0  0
  -22.6880  -12.0470   22.4430 H   0  0  0  0  0  0  0  0  0  0  0  0
  -21.3700  -13.1730   22.2820 H   0  0  0  0  0  0  0  0  0  0  0  0
  -25.5830  -15.2560   20.2220 N   0  0  0  0  0  0  0  0  0  0  0  0
  -24.8270  -15.9150   20.3730 H   0  0  0  0  0  0  0  0  0  0  0  0
  -26.4240  -15.6920   19.8630 H   0  0  0  0  0  0  0  0  0  0  0  0
  1  3  2  0
  2  5  1  0
  3  5  1  0
  3  7  1  0
  4  1  1  0
  4  2  2  0
  5 50  1  0
  7  6  1  0
  8  7  1  0
  8  9  1  0
 10 21  2  0
 11  9  1  0
 11 16  1  0
 12 20  1  0
 12 22  1  0
 13 19  1  0
 13 15  1  0
 14 20  1  0
 15 14  1  0
 16 15  2  0
 17 18  1  0
 17 11  2  0
 18 13  2  0
 19 12  1  0
 20 10  1  0
 22 24  2  0
 23 22  1  0
 25 23  1  0
 26 35  2  0
 26 31  1  0
 27 23  1  0
 27 31  1  0
 28 27  1  0
 29 30  1  0
 29 28  1  0
 30 26  1  0
 31 32  2  0
 32 33  1  0
 34 33  2  0
 35 34  1  0
 36 10  1  0
 36 37  1  0
 36 46  1  0
 37 40  1  0
 38 42  1  0
 38 37  1  0
 39 38  2  0
 42 41  1  0
 44 42  1  0
 44 45  1  0
 44 43  1  0
 46 49  1  1
 46 47  1  0
 48 46  1  0
 50 51  1  0
 52 51  2  0
 52 62  1  0
 53 62  1  0
 54 59  1  0
 55 56  1  0
 55 54  1  0
 57 56  1  0
 57 66  1  0
 57 58  1  0
 59 53  1  0
 59 58  1  0
 60 53  2  0
 62 61  1  0
 63 64  2  0
 64 83  1  0
 65 64  1  0
 65 68  1  0
 66 67  1  0
 66 63  1  0
 67 65  2  0
 68 69  1  0
 69 70  2  0
 71 74  1  0
 71 70  1  0
 72 71  2  0
 73 72  1  0
 73 68  2  0
 74 75  1  0
 75 76  1  0
 76 77  2  0
 78 77  1  0
 78 82  1  0
 79 78  2  0
 80 75  2  0
 80 79  1  0
 81 80  1  0
 83 84  1  0
 84 87  1  0
 84 86  1  0
 85 83  2  0
 88 89  1  0
 88 63  1  0
 90 88  1  0
M  ISO  4   8 101   9 101  53 100  62 100
M  END
>  <TORSDO>  (42) 
F 21

>  <SCORE>  (42) 
-12.927

>  <name>  (42) 
41

>  <ligand_id>  (42) 
41

>  <original_smiles>  (42) 
[H]c1nc([H])n(C([H])([H])C([H])([H])C([H])([H])N(C(=O)N2C([H])([H])C([H])([H])C([H])([H])C([H])(n3nc(-c4c([H])c([H])c(Oc5c([H])c([H])c(F)c([H])c5F)c([H])c4[H])c(C(=O)N([H])[H])c3N([H])[H])C2([H])[H])C([H])([H])[H])c1C([H])(C([H])([H])[H])C([H])([H])Oc1c([H])c([H])c2c(c1[H])C([H])([H])N(C(=O)C([H])(N([H])C(=O)C([H])(N([H])C([H])([H])[H])C([H])([H])[H])C(C([H])([H])[H])(C([H])([H])[H])C([H])([H])[H])C([H])(C(=O)N([H])C1([H])c3c([H])c([H])c([H])c([H])c3C([H])([H])C([H])([H])C1([H])[H])C2([H])[H]

>  <smiles>  (42) 
[H]c1nc([H])n(C([H])([H])C([H])([H])C([H])([H])N(C(=O)N2C([H])([H])C([H])([H])C([H])([H])C([H])(n3nc(-c4c([H])c([H])c(Oc5c([H])c([H])c(F)c([H])c5F)c([H])c4[H])c(C(=O)N([H])[H])c3N([H])[H])C2([H])[H])C([H])([H])[H])c1C([H])(C([H])([H])[H])C([H])([H])Oc1c([H])c([H])c2c(c1[H])C([H])([H])N(C(=O)C([H])(N([H])C(=O)C([H])(N([H])C([H])([H])[H])C([H])([H])[H])C(C([H])([H])[H])(C([H])([H])[H])C([H])([H])[H])C([H])(C(=O)N([H])C1([H])c3c([H])c([H])c([H])c([H])c3C([H])([H])C([H])([H])C1([H])[H])C2([H])[H]

$$$$
42:0:0
     RDKit          3D

 90 98  0  0  1  0  0  0  0  0999 V2000
  -28.9150  -23.1770   18.3650 C   0  0  0  0  0  3  0  0  0  0  0  0
  -29.2570  -21.9590   17.7380 C   0  0  0  0  0  0  0  0  0  0  0  0
  -28.6080  -23.1890   19.7340 C   0  0  0  0  0  0  0  0  0  0  0  0
  -29.0660  -20.7160   19.6990 C   0  0  0  0  0  0  0  0  0  0  0  0
  -29.5620  -21.9180   16.2480 C   0  0  0  0  0  1  0  0  0  0  0  0
  -29.3090  -20.7700   18.3910 N   0  0  0  0  0  0  0  0  0  0  0  0
  -28.6970  -21.9060   20.3610 N   0  0  0  0  0  0  0  0  0  0  0  0
  -27.5200  -18.8550   20.6460 C   0  0  0  0  0  1  0  0  0  0  0  0
  -29.0080  -19.1820   20.3750 C   0  0  0  0  0  3  0  0  0  0  0  0
  -29.8240  -17.7290   19.8680 C   0  0  0  0  0  2  0  0  0  0  0  0
  -30.4990  -14.9790   19.8810 C   0  0  0  0  0  0  0  0  0  0  0  0
  -30.3760  -12.6300   18.9240 C   0  0  0  0  0  2  0  0  0  0  0  0
  -29.3660  -12.6210   17.7520 C   0  0  0  0  0  2  0  0  0  0  0  0
  -27.9190  -12.4180   18.2600 C   0  0  0  0  0  2  0  0  0  0  0  0
  -27.6040  -13.2720   19.5160 C   0  0  0  0  0  3  0  0  0  0  0  0
  -28.7400  -13.2300   20.5590 C   0  0  0  0  0  2  0  0  0  0  0  0
  -29.9490  -13.6960   19.8770 N   0  0  0  0  0  0  0  0  0  0  0  0
  -31.6710  -15.0750   19.5090 O   0  0  0  0  0  0  0  0  0  0  0  0
  -29.6820  -16.1380   20.1010 N   0  0  0  0  0  0  0  0  0  0  0  0
  -28.7530  -15.8750   20.3970 H   0  0  0  0  0  0  0  0  0  0  0  0
  -25.2850  -13.7940   20.4530 C   0  0  0  0  0  0  0  0  0  0  0  0
  -24.2530  -12.9960   20.8680 C   0  0  0  0  0  0  0  0  0  0  0  0
  -24.7230  -11.6540   20.7500 C   0  0  0  0  0  0  0  0  0  0  0  0
  -26.3110  -12.9360   20.0990 N   0  0  0  0  0  0  0  0  0  0  0  0
  -25.9890  -11.6400   20.3460 N   0  0  0  0  0  0  0  0  0  0  0  0
  -24.0180  -10.3810   20.9400 C   0  0  0  0  0  0  0  0  0  0  0  0
  -24.4690   -9.4160   21.8670 C   0  0  0  0  0  3  0  0  0  0  0  0
  -23.7590   -8.2080   22.0470 C   0  0  0  0  0  3  0  0  0  0  0  0
  -22.5790   -7.9610   21.3040 C   0  0  0  0  0  0  0  0  0  0  0  0
  -22.1490   -8.9180   20.3660 C   0  0  0  0  0  3  0  0  0  0  0  0
  -22.8600  -10.1160   20.1820 C   0  0  0  0  0  3  0  0  0  0  0  0
  -21.8330   -6.8090   21.4010 O   0  0  0  0  0  0  0  0  0  0  0  0
  -21.7500   -6.1010   22.5740 C   0  0  0  0  0  0  0  0  0  0  0  0
  -21.2410   -6.6770   23.7590 C   0  0  0  0  0  3  0  0  0  0  0  0
  -21.1050   -5.8930   24.9220 C   0  0  0  0  0  3  0  0  0  0  0  0
  -21.4760   -4.5340   24.9030 C   0  0  0  0  0  0  0  0  0  0  0  0
  -21.9780   -3.9590   23.7230 C   0  0  0  0  0  3  0  0  0  0  0  0
  -22.1130   -4.7390   22.5630 C   0  0  0  0  0  0  0  0  0  0  0  0
  -22.5770   -4.1740   21.4210 F   0  0  0  0  0  0  0  0  0  0  0  0
  -21.3420   -3.7760   26.0160 F   0  0  0  0  0  0  0  0  0  0  0  0
  -22.8770  -13.4540   21.2470 C   0  0  0  0  0  0  0  0  0  0  0  0
  -22.2210  -12.7240   22.1420 N   0  0  0  0  0  0  0  0  0  0  0  0
  -22.4000  -14.4920   20.7890 O   0  0  0  0  0  0  0  0  0  0  0  0
  -22.6200  -11.8830   22.5300 H   0  0  0  0  0  0  0  0  0  0  0  0
  -21.3010  -13.0100   22.4390 H   0  0  0  0  0  0  0  0  0  0  0  0
  -25.4190  -15.1720   20.3150 N   0  0  0  0  0  0  0  0  0  0  0  0
  -24.6440  -15.7970   20.5050 H   0  0  0  0  0  0  0  0  0  0  0  0
  -26.1830  -15.6250   19.8320 H   0  0  0  0  0  0  0  0  0  0  0  0
  -27.9630  -24.5740   20.4110 C   0  0  0  0  0  2  0  0  0  0  0  0
  -28.2800  -26.0900   20.1040 O   0  0  0  0  0  0  0  0  0  0  0  0
  -24.6420  -31.8250   23.1610 C   0  0  0  0  0  0  0  0  0  0  0  0
  -27.2420  -27.1030   20.1170 C   0  0  0  0  0  0  0  0  0  0  0  0
  -23.4620  -30.4500   21.4980 C   0  0  0  0  0  3  0  0  0  0  0  0
  -24.9240  -28.8730   20.0850 C   0  0  0  0  0  0  0  0  0  0  0  0
  -26.0200  -30.6950   21.3710 C   0  0  0  0  0  2  0  0  0  0  0  0
  -26.1010  -29.3020   20.7130 C   0  0  0  0  0  0  0  0  0  0  0  0
  -27.2660  -28.4360   20.7130 C   0  0  0  0  0  3  0  0  0  0  0  0
  -26.0420  -26.7890   19.4470 C   0  0  0  0  0  3  0  0  0  0  0  0
  -24.9070  -27.6300   19.4390 C   0  0  0  0  0  3  0  0  0  0  0  0
  -23.7010  -29.7800   20.1210 C   0  0  0  0  0  2  0  0  0  0  0  0
  -24.7280  -31.0110   22.0660 N   0  0  0  0  0  0  0  0  0  0  0  0
  -23.5480  -32.1140   23.6710 O   0  0  0  0  0  0  0  0  0  0  0  0
  -22.7620  -29.4380   22.4400 C   0  0  0  0  0  0  0  0  0  0  0  0
  -21.4330  -29.2820   22.2980 N   0  0  0  0  0  0  0  0  0  0  0  0
  -23.4140  -28.7910   23.2620 O   0  0  0  0  0  0  0  0  0  0  0  0
  -20.9600  -29.8510   21.6090 H   0  0  0  0  0  0  0  0  0  0  0  0
  -18.0320  -28.1280   22.7730 C   0  0  0  0  0  0  0  0  0  0  0  0
  -20.5940  -28.3440   23.0490 C   0  0  0  0  0  3  0  0  0  0  0  0
  -20.6760  -26.9220   22.4480 C   0  0  0  0  0  2  0  0  0  0  0  0
  -19.5730  -26.6360   21.4250 C   0  0  0  0  0  2  0  0  0  0  0  0
  -18.1910  -26.7910   22.0700 C   0  0  0  0  0  2  0  0  0  0  0  0
  -19.1630  -28.8640   23.2180 C   0  0  0  0  0  0  0  0  0  0  0  0
  -18.9630  -30.1190   23.8350 C   0  0  0  0  0  3  0  0  0  0  0  0
  -17.6650  -30.6340   24.0110 C   0  0  0  0  0  3  0  0  0  0  0  0
  -16.5490  -29.8950   23.5790 C   0  0  0  0  0  3  0  0  0  0  0  0
  -16.7350  -28.6420   22.9640 C   0  0  0  0  0  3  0  0  0  0  0  0
  -25.9130  -32.4470   23.8140 C   0  0  0  0  0  3  0  0  0  0  0  0
  -26.4000  -31.6590   25.0940 C   0  0  1  0  0  0  0  0  0  0  0  0
  -25.2850  -31.4100   26.1370 C   0  0  0  0  0  1  0  0  0  0  0  0
  -26.9910  -30.2870   24.7020 C   0  0  0  0  0  1  0  0  0  0  0  0
  -27.5440  -32.4410   25.7820 C   0  0  0  0  0  1  0  0  0  0  0  0
  -25.6010  -33.8420   24.1610 N   0  0  0  0  0  0  0  0  0  0  0  0
  -25.9370  -34.9080   23.4200 C   0  0  0  0  0  0  0  0  0  0  0  0
  -26.6090  -34.8190   22.3890 O   0  0  0  0  0  0  0  0  0  0  0  0
  -25.0020  -33.9830   24.9610 H   0  0  0  0  0  0  0  0  0  0  0  0
  -24.2090  -36.7080   23.0910 C   0  0  0  0  0  1  0  0  0  0  0  0
  -25.4510  -36.2930   23.8970 C   0  0  0  0  0  3  0  0  0  0  0  0
  -27.5820  -37.1720   24.7410 C   0  0  0  0  0  1  0  0  0  0  0  0
  -26.4840  -37.3460   23.7940 N   0  0  0  0  0  0  0  0  0  0  0  0
  -26.0810  -38.2670   23.9460 H   0  0  0  0  0  0  0  0  0  0  0  0
  1  3  1  0
  2  1  2  0
  2  6  1  0
  3  7  2  0
  3 49  1  0
  4  7  1  0
  4  9  1  0
  5  2  1  0
  6  4  2  0
  9  8  1  0
 10 19  1  0
 10  9  1  0
 11 19  1  0
 12 17  1  0
 13 14  1  0
 13 12  1  0
 15 14  1  0
 15 24  1  0
 15 16  1  0
 17 11  1  0
 17 16  1  0
 18 11  2  0
 19 20  1  0
 21 22  2  0
 22 41  1  0
 23 22  1  0
 23 26  1  0
 24 25  1  0
 24 21  1  0
 25 23  2  0
 26 27  1  0
 27 28  2  0
 29 32  1  0
 29 28  1  0
 30 29  2  0
 31 30  1  0
 31 26  2  0
 32 33  1  0
 33 34  1  0
 34 35  2  0
 36 35  1  0
 36 40  1  0
 37 36  2  0
 38 33  2  0
 38 37  1  0
 39 38  1  0
 41 42  1  0
 42 45  1  0
 42 44  1  0
 43 41  2  0
 46 21  1  0
 46 47  1  0
 48 46  1  0
 50 52  1  0
 50 49  1  0
 51 62  2  0
 52 57  1  0
 53 61  1  0
 53 63  1  0
 54 60  1  0
 54 56  1  0
 55 61  1  0
 56 57  2  0
 56 55  1  0
 58 52  2  0
 59 58  1  0
 59 54  2  0
 60 53  1  0
 61 51  1  0
 63 65  2  0
 64 63  1  0
 66 64  1  0
 67 76  2  0
 67 72  1  0
 68 64  1  0
 68 72  1  0
 69 68  1  0
 70 71  1  0
 70 69  1  0
 71 67  1  0
 72 73  2  0
 73 74  1  0
 75 74  2  0
 76 75  1  0
 77 51  1  0
 77 82  1  0
 77 78  1  0
 78 81  1  1
 78 79  1  0
 80 78  1  0
 82 85  1  0
 83 87  1  0
 83 82  1  0
 84 83  2  0
 87 86  1  0
 89 87  1  0
 89 90  1  0
 89 88  1  0
M  ISO  4  11 100  19 100  49 101  50 101
M  END
>  <TORSDO>  (43) 
F 19

>  <SCORE>  (43) 
-14.049

>  <name>  (43) 
42

>  <ligand_id>  (43) 
42

>  <original_smiles>  (43) 
[H]c1c(C([H])([H])[H])nc(C([H])(C([H])([H])[H])C([H])([H])N([H])C(=O)N2C([H])([H])C([H])([H])C([H])([H])C([H])(n3nc(-c4c([H])c([H])c(Oc5c([H])c([H])c(F)c([H])c5F)c([H])c4[H])c(C(=O)N([H])[H])c3N([H])[H])C2([H])[H])nc1C([H])([H])Oc1c([H])c([H])c2c(c1[H])C([H])([H])N(C(=O)C([H])(N([H])C(=O)C([H])(N([H])C([H])([H])[H])C([H])([H])[H])C(C([H])([H])[H])(C([H])([H])[H])C([H])([H])[H])C([H])(C(=O)N([H])C1([H])c3c([H])c([H])c([H])c([H])c3C([H])([H])C([H])([H])C1([H])[H])C2([H])[H]

>  <smiles>  (43) 
[H]c1c(C([H])([H])[H])nc(C([H])(C([H])([H])[H])C([H])([H])N([H])C(=O)N2C([H])([H])C([H])([H])C([H])([H])C([H])(n3nc(-c4c([H])c([H])c(Oc5c([H])c([H])c(F)c([H])c5F)c([H])c4[H])c(C(=O)N([H])[H])c3N([H])[H])C2([H])[H])nc1C([H])([H])Oc1c([H])c([H])c2c(c1[H])C([H])([H])N(C(=O)C([H])(N([H])C(=O)C([H])(N([H])C([H])([H])[H])C([H])([H])[H])C(C([H])([H])[H])(C([H])([H])[H])C([H])([H])[H])C([H])(C(=O)N([H])C1([H])c3c([H])c([H])c([H])c([H])c3C([H])([H])C([H])([H])C1([H])[H])C2([H])[H]

$$$$
43:0:0
     RDKit          3D

 91 99  0  0  1  0  0  0  0  0999 V2000
  -29.5070  -21.6870   21.7180 C   0  0  0  0  0  3  0  0  0  0  0  0
  -29.4960  -21.1640   20.3970 C   0  0  0  0  0  0  0  0  0  0  0  0
  -28.9080  -22.8520   21.7690 N   0  0  0  0  0  0  0  0  0  0  0  0
  -28.8610  -22.0400   19.6290 N   0  0  0  0  0  0  0  0  0  0  0  0
  -28.5350  -23.0670   20.4810 N   0  0  0  0  0  0  0  0  0  0  0  0
  -30.2140  -19.8970   19.8980 C   0  0  0  0  0  2  0  0  0  0  0  0
  -28.7990  -18.4750   21.3570 C   0  0  0  0  0  1  0  0  0  0  0  0
  -29.5140  -18.5660   20.0560 N   0  0  2  0  0  4  0  0  0  0  0  0
  -28.7770  -18.5910   19.3660 H   0  0  0  0  0  0  0  0  0  0  0  0
  -30.4450  -17.1640   18.1540 C   0  0  0  0  0  1  0  0  0  0  0  0
  -30.3760  -17.3500   19.7040 C   0  0  0  0  0  3  0  0  0  0  0  0
  -29.9760  -15.9880   20.4390 C   0  0  0  0  0  2  0  0  0  0  0  0
  -30.7710  -14.6830   20.0850 C   0  0  0  0  0  0  0  0  0  0  0  0
  -30.4930  -12.4780   19.0170 C   0  0  0  0  0  2  0  0  0  0  0  0
  -29.5160  -12.6650   17.8350 C   0  0  0  0  0  2  0  0  0  0  0  0
  -28.0550  -12.5120   18.3030 C   0  0  0  0  0  2  0  0  0  0  0  0
  -27.7410  -13.3530   19.5650 C   0  0  0  0  0  3  0  0  0  0  0  0
  -28.8330  -13.1790   20.6500 C   0  0  0  0  0  2  0  0  0  0  0  0
  -30.1380  -13.4760   20.0420 N   0  0  0  0  0  0  0  0  0  0  0  0
  -31.9380  -14.8060   19.6960 O   0  0  0  0  0  0  0  0  0  0  0  0
  -25.3690  -13.9690   20.3380 C   0  0  0  0  0  0  0  0  0  0  0  0
  -24.3090  -13.2030   20.7350 C   0  0  0  0  0  0  0  0  0  0  0  0
  -24.7650  -11.8490   20.7010 C   0  0  0  0  0  0  0  0  0  0  0  0
  -26.4050  -13.0830   20.0860 N   0  0  0  0  0  0  0  0  0  0  0  0
  -26.0480  -11.8040   20.3640 N   0  0  0  0  0  0  0  0  0  0  0  0
  -24.0400  -10.5900   20.9090 C   0  0  0  0  0  0  0  0  0  0  0  0
  -24.4690   -9.6420   21.8630 C   0  0  0  0  0  3  0  0  0  0  0  0
  -23.7480   -8.4460   22.0590 C   0  0  0  0  0  3  0  0  0  0  0  0
  -22.5780   -8.1910   21.3040 C   0  0  0  0  0  0  0  0  0  0  0  0
  -22.1680   -9.1300   20.3390 C   0  0  0  0  0  3  0  0  0  0  0  0
  -22.8910  -10.3160   20.1420 C   0  0  0  0  0  3  0  0  0  0  0  0
  -21.8280   -7.0460   21.4060 O   0  0  0  0  0  0  0  0  0  0  0  0
  -21.7480   -6.3440   22.5810 C   0  0  0  0  0  0  0  0  0  0  0  0
  -21.2860   -6.9380   23.7760 C   0  0  0  0  0  3  0  0  0  0  0  0
  -21.1520   -6.1600   24.9430 C   0  0  0  0  0  3  0  0  0  0  0  0
  -21.4700   -4.7880   24.9160 C   0  0  0  0  0  0  0  0  0  0  0  0
  -21.9250   -4.1950   23.7270 C   0  0  0  0  0  3  0  0  0  0  0  0
  -22.0590   -4.9690   22.5610 C   0  0  0  0  0  0  0  0  0  0  0  0
  -22.4760   -4.3860   21.4130 F   0  0  0  0  0  0  0  0  0  0  0  0
  -21.3360   -4.0390   26.0360 F   0  0  0  0  0  0  0  0  0  0  0  0
  -22.9180  -13.6850   21.0340 C   0  0  0  0  0  0  0  0  0  0  0  0
  -22.2080  -12.9940   21.9170 N   0  0  0  0  0  0  0  0  0  0  0  0
  -22.4750  -14.7110   20.5190 O   0  0  0  0  0  0  0  0  0  0  0  0
  -22.5780  -12.1600   22.3510 H   0  0  0  0  0  0  0  0  0  0  0  0
  -21.2770  -13.3010   22.1640 H   0  0  0  0  0  0  0  0  0  0  0  0
  -25.5420  -15.3380   20.1470 N   0  0  0  0  0  0  0  0  0  0  0  0
  -24.7800  -16.0000   20.2280 H   0  0  0  0  0  0  0  0  0  0  0  0
  -26.3840  -15.7500   19.7700 H   0  0  0  0  0  0  0  0  0  0  0  0
  -27.7600  -24.2680   20.1070 C   0  0  0  0  0  2  0  0  0  0  0  0
  -28.5700  -25.4490   19.4850 C   0  0  0  0  0  2  0  0  0  0  0  0
  -28.4800  -26.7280   20.1670 O   0  0  0  0  0  0  0  0  0  0  0  0
  -24.6230  -31.9130   23.2560 C   0  0  0  0  0  0  0  0  0  0  0  0
  -27.2990  -27.4580   20.1520 C   0  0  0  0  0  0  0  0  0  0  0  0
  -23.4400  -30.5060   21.6070 C   0  0  0  0  0  3  0  0  0  0  0  0
  -24.9070  -28.9870   20.1780 C   0  0  0  0  0  0  0  0  0  0  0  0
  -25.9710  -30.8610   21.4390 C   0  0  0  0  0  2  0  0  0  0  0  0
  -26.0620  -29.4960   20.7850 C   0  0  0  0  0  0  0  0  0  0  0  0
  -27.2560  -28.7340   20.7790 C   0  0  0  0  0  3  0  0  0  0  0  0
  -26.1180  -26.9780   19.5390 C   0  0  0  0  0  3  0  0  0  0  0  0
  -24.9320  -27.7310   19.5590 C   0  0  0  0  0  3  0  0  0  0  0  0
  -23.6600  -29.8370   20.2270 C   0  0  0  0  0  2  0  0  0  0  0  0
  -24.6970  -31.1120   22.1560 N   0  0  0  0  0  0  0  0  0  0  0  0
  -23.5330  -32.1780   23.7820 O   0  0  0  0  0  0  0  0  0  0  0  0
  -22.7890  -29.4730   22.5590 C   0  0  0  0  0  0  0  0  0  0  0  0
  -21.4680  -29.2740   22.4190 N   0  0  0  0  0  0  0  0  0  0  0  0
  -23.4740  -28.8550   23.3760 O   0  0  0  0  0  0  0  0  0  0  0  0
  -20.9750  -29.8350   21.7380 H   0  0  0  0  0  0  0  0  0  0  0  0
  -18.1080  -28.0440   22.8890 C   0  0  0  0  0  0  0  0  0  0  0  0
  -20.6580  -28.3290   23.1830 C   0  0  0  0  0  3  0  0  0  0  0  0
  -20.7820  -26.8980   22.6060 C   0  0  0  0  0  2  0  0  0  0  0  0
  -19.6900  -26.5620   21.5860 C   0  0  0  0  0  2  0  0  0  0  0  0
  -18.3040  -26.6970   22.2170 C   0  0  0  0  0  2  0  0  0  0  0  0
  -19.2150  -28.8190   23.3290 C   0  0  0  0  0  0  0  0  0  0  0  0
  -18.9750  -30.0830   23.9140 C   0  0  0  0  0  3  0  0  0  0  0  0
  -17.6650  -30.5640   24.0780 C   0  0  0  0  0  3  0  0  0  0  0  0
  -16.5720  -29.7850   23.6590 C   0  0  0  0  0  3  0  0  0  0  0  0
  -16.7970  -28.5290   23.0640 C   0  0  0  0  0  3  0  0  0  0  0  0
  -25.8950  -32.5600   23.8910 C   0  0  0  0  0  3  0  0  0  0  0  0
  -25.5740  -33.9580   24.2090 N   0  0  0  0  0  0  0  0  0  0  0  0
  -25.9040  -35.0080   23.4430 C   0  0  0  0  0  0  0  0  0  0  0  0
  -26.5770  -34.8990   22.4140 O   0  0  0  0  0  0  0  0  0  0  0  0
  -24.9910  -34.1260   25.0170 H   0  0  0  0  0  0  0  0  0  0  0  0
  -24.1560  -36.7710   23.0780 C   0  0  0  0  0  1  0  0  0  0  0  0
  -25.4030  -36.3920   23.8900 C   0  0  0  0  0  3  0  0  0  0  0  0
  -27.5270  -37.2960   24.7180 C   0  0  0  0  0  1  0  0  0  0  0  0
  -26.4250  -37.4540   23.7730 N   0  0  0  0  0  0  0  0  0  0  0  0
  -26.0080  -38.3690   23.9270 H   0  0  0  0  0  0  0  0  0  0  0  0
  -26.4060  -31.8080   25.1810 C   0  0  1  0  0  0  0  0  0  0  0  0
  -25.3030  -31.5700   26.2410 C   0  0  0  0  0  1  0  0  0  0  0  0
  -27.0100  -30.4360   24.8060 C   0  0  0  0  0  1  0  0  0  0  0  0
  -27.5420  -32.6240   25.8460 C   0  0  0  0  0  1  0  0  0  0  0  0
  1  3  2  0
  2  1  1  0
  4  2  2  0
  4  5  1  0
  5  3  1  0
  6  8  1  0
  6  2  1  0
  8  7  1  0
  8  9  1  6
 11 10  1  0
 11  8  1  0
 11 12  1  0
 13 12  1  0
 14 19  1  0
 15 16  1  0
 15 14  1  0
 17 16  1  0
 17 24  1  0
 17 18  1  0
 19 13  1  0
 19 18  1  0
 20 13  2  0
 21 22  2  0
 22 41  1  0
 23 22  1  0
 23 26  1  0
 24 21  1  0
 24 25  1  0
 25 23  2  0
 26 27  1  0
 27 28  2  0
 29 32  1  0
 29 28  1  0
 30 29  2  0
 31 30  1  0
 31 26  2  0
 32 33  1  0
 33 34  1  0
 34 35  2  0
 36 35  1  0
 36 40  1  0
 37 36  2  0
 38 33  2  0
 38 37  1  0
 39 38  1  0
 41 42  1  0
 42 45  1  0
 42 44  1  0
 43 41  2  0
 46 47  1  0
 46 21  1  0
 48 46  1  0
 49  5  1  0
 50 49  1  0
 50 51  1  0
 52 63  2  0
 53 51  1  0
 53 58  1  0
 54 62  1  0
 54 64  1  0
 55 61  1  0
 55 57  1  0
 56 62  1  0
 57 56  1  0
 58 57  2  0
 59 60  1  0
 59 53  2  0
 60 55  2  0
 61 54  1  0
 62 52  1  0
 64 66  2  0
 65 64  1  0
 67 65  1  0
 68 77  2  0
 68 73  1  0
 69 65  1  0
 69 73  1  0
 70 69  1  0
 71 72  1  0
 71 70  1  0
 72 68  1  0
 73 74  2  0
 74 75  1  0
 76 75  2  0
 77 76  1  0
 78 52  1  0
 78 79  1  0
 78 88  1  0
 79 82  1  0
 80 84  1  0
 80 79  1  0
 81 80  2  0
 84 83  1  0
 86 84  1  0
 86 87  1  0
 86 85  1  0
 88 91  1  1
 88 89  1  0
 90 88  1  0
M  ISO  4  12 100  13 100  50 101  51 101
M  END
>  <TORSDO>  (44) 
F 22

>  <SCORE>  (44) 
-12.300

>  <name>  (44) 
43

>  <ligand_id>  (44) 
43

>  <original_smiles>  (44) 
[H]c1nn(C([H])([H])C([H])([H])Oc2c([H])c([H])c3c(c2[H])C([H])([H])N(C(=O)C([H])(N([H])C(=O)C([H])(N([H])C([H])([H])[H])C([H])([H])[H])C(C([H])([H])[H])(C([H])([H])[H])C([H])([H])[H])C([H])(C(=O)N([H])C2([H])c4c([H])c([H])c([H])c([H])c4C([H])([H])C([H])([H])C2([H])[H])C3([H])[H])nc1C([H])([H])[N+]([H])(C([H])([H])[H])C([H])(C([H])([H])[H])C([H])([H])C(=O)N1C([H])([H])C([H])([H])C([H])([H])C([H])(n2nc(-c3c([H])c([H])c(Oc4c([H])c([H])c(F)c([H])c4F)c([H])c3[H])c(C(=O)N([H])[H])c2N([H])[H])C1([H])[H]

>  <smiles>  (44) 
[H]c1nn(C([H])([H])C([H])([H])Oc2c([H])c([H])c3c(c2[H])C([H])([H])N(C(=O)C([H])(N([H])C(=O)C([H])(N([H])C([H])([H])[H])C([H])([H])[H])C(C([H])([H])[H])(C([H])([H])[H])C([H])([H])[H])C([H])(C(=O)N([H])C2([H])c4c([H])c([H])c([H])c([H])c4C([H])([H])C([H])([H])C2([H])[H])C3([H])[H])nc1C([H])([H])[N+]([H])(C([H])([H])[H])C([H])(C([H])([H])[H])C([H])([H])C(=O)N1C([H])([H])C([H])([H])C([H])([H])C([H])(n2nc(-c3c([H])c([H])c(Oc4c([H])c([H])c(F)c([H])c4F)c([H])c3[H])c(C(=O)N([H])[H])c2N([H])[H])C1([H])[H]

$$$$
44:0:0
     RDKit          3D

 88 96  0  0  1  0  0  0  0  0999 V2000
  -28.2580  -21.8200   20.3350 C   0  0  0  0  0  3  0  0  0  0  0  0
  -30.1870  -21.5810   19.5190 C   0  0  0  0  0  3  0  0  0  0  0  0
  -28.7110  -23.1720   20.1580 C   0  0  0  0  0  0  0  0  0  0  0  0
  -29.9900  -22.9340   19.6130 N   0  0  0  0  0  0  0  0  0  0  0  0
  -29.1910  -20.7620   19.9450 N   0  0  0  0  0  0  0  0  0  0  0  0
  -28.2020  -18.7890   21.2040 C   0  0  0  0  0  1  0  0  0  0  0  0
  -28.9980  -19.1570   19.9410 C   0  0  0  0  0  3  0  0  0  0  0  0
  -30.1520  -17.9140   19.7050 C   0  0  0  0  0  2  0  0  0  0  0  0
  -30.6700  -15.1550   19.7800 C   0  0  0  0  0  0  0  0  0  0  0  0
  -30.5710  -12.7510   18.9500 C   0  0  0  0  0  2  0  0  0  0  0  0
  -29.5810  -12.6250   17.7680 C   0  0  0  0  0  2  0  0  0  0  0  0
  -28.1500  -12.3850   18.2850 C   0  0  0  0  0  2  0  0  0  0  0  0
  -27.7750  -13.3380   19.4510 C   0  0  0  0  0  3  0  0  0  0  0  0
  -28.8880  -13.4450   20.5160 C   0  0  0  0  0  2  0  0  0  0  0  0
  -30.1060  -13.8750   19.8170 N   0  0  0  0  0  0  0  0  0  0  0  0
  -31.8530  -15.2240   19.4300 O   0  0  0  0  0  0  0  0  0  0  0  0
  -29.8800  -16.3450   19.9250 N   0  0  0  0  0  0  0  0  0  0  0  0
  -28.9250  -16.1360   20.1700 H   0  0  0  0  0  0  0  0  0  0  0  0
  -25.4540  -13.8830   20.3740 C   0  0  0  0  0  0  0  0  0  0  0  0
  -24.4180  -13.0970   20.7970 C   0  0  0  0  0  0  0  0  0  0  0  0
  -24.8800  -11.7480   20.6950 C   0  0  0  0  0  0  0  0  0  0  0  0
  -26.4780  -13.0150   20.0350 N   0  0  0  0  0  0  0  0  0  0  0  0
  -26.1450  -11.7230   20.2900 N   0  0  0  0  0  0  0  0  0  0  0  0
  -24.1650  -10.4800   20.8990 C   0  0  0  0  0  0  0  0  0  0  0  0
  -24.5440   -9.5720   21.9110 C   0  0  0  0  0  3  0  0  0  0  0  0
  -23.8270   -8.3710   22.1010 C   0  0  0  0  0  3  0  0  0  0  0  0
  -22.7170   -8.0680   21.2760 C   0  0  0  0  0  0  0  0  0  0  0  0
  -22.3580   -8.9650   20.2540 C   0  0  0  0  0  3  0  0  0  0  0  0
  -23.0760  -10.1570   20.0640 C   0  0  0  0  0  3  0  0  0  0  0  0
  -21.9800   -6.9120   21.3690 O   0  0  0  0  0  0  0  0  0  0  0  0
  -21.6970   -6.3340   22.5790 C   0  0  0  0  0  0  0  0  0  0  0  0
  -20.9730   -7.0160   23.5800 C   0  0  0  0  0  3  0  0  0  0  0  0
  -20.6440   -6.3610   24.7840 C   0  0  0  0  0  3  0  0  0  0  0  0
  -21.0280   -5.0220   24.9850 C   0  0  0  0  0  0  0  0  0  0  0  0
  -21.7460   -4.3380   23.9870 C   0  0  0  0  0  3  0  0  0  0  0  0
  -22.0750   -4.9920   22.7870 C   0  0  0  0  0  0  0  0  0  0  0  0
  -22.7480   -4.3210   21.8210 F   0  0  0  0  0  0  0  0  0  0  0  0
  -20.7070   -4.3890   26.1380 F   0  0  0  0  0  0  0  0  0  0  0  0
  -23.0440  -13.5650   21.1770 C   0  0  0  0  0  0  0  0  0  0  0  0
  -22.3760  -12.8460   22.0730 N   0  0  0  0  0  0  0  0  0  0  0  0
  -22.5730  -14.6050   20.7190 O   0  0  0  0  0  0  0  0  0  0  0  0
  -22.7720  -12.0070   22.4700 H   0  0  0  0  0  0  0  0  0  0  0  0
  -21.4570  -13.1420   22.3710 H   0  0  0  0  0  0  0  0  0  0  0  0
  -25.6030  -15.2590   20.2250 N   0  0  0  0  0  0  0  0  0  0  0  0
  -24.8380  -15.9020   20.4030 H   0  0  0  0  0  0  0  0  0  0  0  0
  -26.4060  -15.7090   19.8090 H   0  0  0  0  0  0  0  0  0  0  0  0
  -27.9090  -24.6240   20.4240 C   0  0  0  0  0  2  0  0  0  0  0  0
  -28.3270  -26.1430   20.2690 O   0  0  0  0  0  0  0  0  0  0  0  0
  -24.6570  -31.8990   23.2340 C   0  0  0  0  0  0  0  0  0  0  0  0
  -27.3010  -27.1790   20.2090 C   0  0  0  0  0  0  0  0  0  0  0  0
  -23.4920  -30.5030   21.5740 C   0  0  0  0  0  3  0  0  0  0  0  0
  -24.9720  -28.9500   20.1550 C   0  0  0  0  0  0  0  0  0  0  0  0
  -26.0500  -30.7730   21.4530 C   0  0  0  0  0  2  0  0  0  0  0  0
  -26.1420  -29.3830   20.7920 C   0  0  0  0  0  0  0  0  0  0  0  0
  -27.3070  -28.5130   20.8040 C   0  0  0  0  0  3  0  0  0  0  0  0
  -26.1100  -26.8840   19.5050 C   0  0  0  0  0  3  0  0  0  0  0  0
  -24.9730  -27.7170   19.4930 C   0  0  0  0  0  3  0  0  0  0  0  0
  -23.7390  -29.8420   20.1930 C   0  0  0  0  0  2  0  0  0  0  0  0
  -24.7530  -31.0810   22.1410 N   0  0  0  0  0  0  0  0  0  0  0  0
  -23.5610  -32.1710   23.7480 O   0  0  0  0  0  0  0  0  0  0  0  0
  -22.8080  -29.4830   22.5210 C   0  0  0  0  0  0  0  0  0  0  0  0
  -21.4880  -29.2780   22.3550 N   0  0  0  0  0  0  0  0  0  0  0  0
  -23.4700  -28.8790   23.3680 O   0  0  0  0  0  0  0  0  0  0  0  0
  -21.0110  -29.8160   21.6460 H   0  0  0  0  0  0  0  0  0  0  0  0
  -18.1240  -27.9940   22.7720 C   0  0  0  0  0  0  0  0  0  0  0  0
  -20.6680  -28.3240   23.1090 C   0  0  0  0  0  3  0  0  0  0  0  0
  -20.8220  -26.8920   22.5470 C   0  0  0  0  0  2  0  0  0  0  0  0
  -19.7560  -26.5360   21.5040 C   0  0  0  0  0  2  0  0  0  0  0  0
  -18.3550  -26.6480   22.1080 C   0  0  0  0  0  2  0  0  0  0  0  0
  -19.2110  -28.7890   23.2270 C   0  0  0  0  0  0  0  0  0  0  0  0
  -18.9400  -30.0470   23.8080 C   0  0  0  0  0  3  0  0  0  0  0  0
  -17.6180  -30.5120   23.9390 C   0  0  0  0  0  3  0  0  0  0  0  0
  -16.5460  -29.7150   23.4980 C   0  0  0  0  0  3  0  0  0  0  0  0
  -16.8000  -28.4590   22.9190 C   0  0  0  0  0  3  0  0  0  0  0  0
  -25.9190  -32.5440   23.8820 C   0  0  0  0  0  3  0  0  0  0  0  0
  -26.4080  -31.7830   25.1760 C   0  0  1  0  0  0  0  0  0  0  0  0
  -25.2910  -31.5430   26.2180 C   0  0  0  0  0  1  0  0  0  0  0  0
  -27.0110  -30.4070   24.8120 C   0  0  0  0  0  1  0  0  0  0  0  0
  -27.5340  -32.5910   25.8610 C   0  0  0  0  0  1  0  0  0  0  0  0
  -25.5900  -33.9420   24.2060 N   0  0  0  0  0  0  0  0  0  0  0  0
  -25.8990  -34.9980   23.4410 C   0  0  0  0  0  0  0  0  0  0  0  0
  -26.5570  -34.8990   22.4020 O   0  0  0  0  0  0  0  0  0  0  0  0
  -25.0020  -34.0910   25.0110 H   0  0  0  0  0  0  0  0  0  0  0  0
  -24.1370  -36.7680   23.1170 C   0  0  0  0  0  1  0  0  0  0  0  0
  -25.4040  -36.3840   23.9010 C   0  0  0  0  0  3  0  0  0  0  0  0
  -27.5360  -37.3170   24.6850 C   0  0  0  0  0  1  0  0  0  0  0  0
  -26.4170  -37.4510   23.7550 N   0  0  0  0  0  0  0  0  0  0  0  0
  -25.9980  -38.3680   23.8930 H   0  0  0  0  0  0  0  0  0  0  0  0
  2  4  2  0
  2  5  1  0
  3  1  2  0
  3 47  1  0
  4  3  1  0
  5  1  1  0
  7  5  1  0
  7  6  1  0
  8 17  1  0
  8  7  1  0
  9 15  1  0
  9 17  1  0
 10 15  1  0
 11 12  1  0
 11 10  1  0
 13 12  1  0
 13 22  1  0
 13 14  1  0
 15 14  1  0
 16  9  2  0
 17 18  1  0
 19 20  2  0
 20 39  1  0
 21 20  1  0
 21 24  1  0
 22 23  1  0
 22 19  1  0
 23 21  2  0
 24 25  1  0
 25 26  2  0
 27 30  1  0
 27 26  1  0
 28 27  2  0
 29 28  1  0
 29 24  2  0
 30 31  1  0
 31 36  2  0
 31 32  1  0
 32 33  2  0
 33 34  1  0
 34 38  1  0
 35 34  2  0
 36 35  1  0
 37 36  1  0
 39 40  1  0
 40 43  1  0
 40 42  1  0
 41 39  2  0
 44 19  1  0
 44 45  1  0
 46 44  1  0
 48 47  1  0
 49 60  2  0
 50 48  1  0
 50 55  1  0
 51 59  1  0
 51 61  1  0
 52 58  1  0
 52 54  1  0
 53 59  1  0
 54 55  2  0
 54 53  1  0
 56 50  2  0
 57 56  1  0
 57 52  2  0
 58 51  1  0
 59 49  1  0
 61 63  2  0
 62 61  1  0
 64 62  1  0
 65 74  2  0
 65 70  1  0
 66 62  1  0
 66 70  1  0
 67 66  1  0
 68 69  1  0
 68 67  1  0
 69 65  1  0
 70 71  2  0
 71 72  1  0
 73 72  2  0
 74 73  1  0
 75 49  1  0
 75 80  1  0
 75 76  1  0
 76 79  1  1
 76 77  1  0
 78 76  1  0
 80 83  1  0
 81 85  1  0
 81 80  1  0
 82 81  2  0
 85 84  1  0
 87 88  1  0
 87 85  1  0
 87 86  1  0
M  ISO  4   9 100  17 100  47 101  48 101
M  END
>  <TORSDO>  (45) 
F 19

>  <SCORE>  (45) 
-13.066

>  <name>  (45) 
44

>  <ligand_id>  (45) 
44

>  <original_smiles>  (45) 
[H]c1c([H])c([H])c2c(c1[H])C([H])([H])C([H])([H])C([H])([H])C2([H])N([H])C(=O)C1([H])N(C(=O)C([H])(N([H])C(=O)C([H])(N([H])C([H])([H])[H])C([H])([H])[H])C(C([H])([H])[H])(C([H])([H])[H])C([H])([H])[H])C([H])([H])c2c([H])c(OC([H])([H])c3nc([H])n(C([H])(C([H])([H])[H])C([H])([H])N([H])C(=O)N4C([H])([H])C([H])([H])C([H])([H])C([H])(n5nc(-c6c([H])c([H])c(Oc7c([H])c([H])c(F)c([H])c7F)c([H])c6[H])c(C(=O)N([H])[H])c5N([H])[H])C4([H])[H])c3[H])c([H])c([H])c2C1([H])[H]

>  <smiles>  (45) 
[H]c1c([H])c([H])c2c(c1[H])C([H])([H])C([H])([H])C([H])([H])C2([H])N([H])C(=O)C1([H])N(C(=O)C([H])(N([H])C(=O)C([H])(N([H])C([H])([H])[H])C([H])([H])[H])C(C([H])([H])[H])(C([H])([H])[H])C([H])([H])[H])C([H])([H])c2c([H])c(OC([H])([H])c3nc([H])n(C([H])(C([H])([H])[H])C([H])([H])N([H])C(=O)N4C([H])([H])C([H])([H])C([H])([H])C([H])(n5nc(-c6c([H])c([H])c(Oc7c([H])c([H])c(F)c([H])c7F)c([H])c6[H])c(C(=O)N([H])[H])c5N([H])[H])C4([H])[H])c3[H])c([H])c([H])c2C1([H])[H]

$$$$
45:0:0
     RDKit          3D

 91 99  0  0  1  0  0  0  0  0999 V2000
  -29.0930  -21.2630   19.9950 C   0  0  0  0  0  3  0  0  0  0  0  0
  -29.5360  -20.1250   20.7530 C   0  0  0  0  0  0  0  0  0  0  0  0
  -29.1850  -22.5800   20.5580 C   0  0  0  0  0  0  0  0  0  0  0  0
  -30.0910  -21.5840   22.4370 C   0  0  0  0  0  0  0  0  0  0  0  0
  -30.6710  -21.7710   23.8200 C   0  0  0  0  0  1  0  0  0  0  0  0
  -30.0080  -20.3310   21.9920 N   0  0  0  0  0  0  0  0  0  0  0  0
  -29.7250  -22.6910   21.7890 N   0  0  0  0  0  0  0  0  0  0  0  0
  -29.3900  -18.6230   20.3020 C   0  0  0  0  0  3  0  0  0  0  0  0
  -30.3120  -17.4330   20.9180 C   0  0  0  0  0  3  0  0  0  0  0  0
  -30.8760  -14.8830   20.8160 C   0  0  0  0  0  0  0  0  0  0  0  0
  -30.7830  -12.5080   20.0620 C   0  0  0  0  0  2  0  0  0  0  0  0
  -29.9800  -12.3860   18.7500 C   0  0  0  0  0  2  0  0  0  0  0  0
  -28.4620  -12.3120   19.0290 C   0  0  0  0  0  2  0  0  0  0  0  0
  -27.9510  -13.2930   20.1230 C   0  0  0  0  0  3  0  0  0  0  0  0
  -28.9050  -13.3620   21.3320 C   0  0  0  0  0  2  0  0  0  0  0  0
  -30.2420  -13.6610   20.8090 N   0  0  0  0  0  0  0  0  0  0  0  0
  -32.1060  -14.9410   20.8780 O   0  0  0  0  0  0  0  0  0  0  0  0
  -30.1590  -16.0030   20.3840 N   0  0  0  0  0  0  0  0  0  0  0  0
  -25.5070  -13.8950   20.6180 C   0  0  0  0  0  0  0  0  0  0  0  0
  -24.4130  -13.1250   20.9040 C   0  0  0  0  0  0  0  0  0  0  0  0
  -24.8850  -11.7770   20.9670 C   0  0  0  0  0  0  0  0  0  0  0  0
  -26.5730  -13.0130   20.5110 N   0  0  0  0  0  0  0  0  0  0  0  0
  -26.2000  -11.7390   20.7910 N   0  0  0  0  0  0  0  0  0  0  0  0
  -24.1490  -10.5170   21.1280 C   0  0  0  0  0  0  0  0  0  0  0  0
  -24.5130   -9.5710   22.1100 C   0  0  0  0  0  3  0  0  0  0  0  0
  -23.7810   -8.3730   22.2600 C   0  0  0  0  0  3  0  0  0  0  0  0
  -22.6690   -8.1140   21.4240 C   0  0  0  0  0  0  0  0  0  0  0  0
  -22.3240   -9.0480   20.4310 C   0  0  0  0  0  3  0  0  0  0  0  0
  -23.0570  -10.2370   20.2810 C   0  0  0  0  0  3  0  0  0  0  0  0
  -21.9140   -6.9670   21.4790 O   0  0  0  0  0  0  0  0  0  0  0  0
  -21.7980   -6.2350   22.6340 C   0  0  0  0  0  0  0  0  0  0  0  0
  -21.3140   -6.8050   23.8320 C   0  0  0  0  0  3  0  0  0  0  0  0
  -21.1470   -6.0000   24.9770 C   0  0  0  0  0  3  0  0  0  0  0  0
  -21.4530   -4.6270   24.9240 C   0  0  0  0  0  0  0  0  0  0  0  0
  -21.9240   -4.0560   23.7300 C   0  0  0  0  0  3  0  0  0  0  0  0
  -22.0960   -4.8590   22.5880 C   0  0  0  0  0  0  0  0  0  0  0  0
  -22.5330   -4.2990   21.4340 F   0  0  0  0  0  0  0  0  0  0  0  0
  -21.2820   -3.8530   26.0220 F   0  0  0  0  0  0  0  0  0  0  0  0
  -22.9930  -13.5980   21.0170 C   0  0  0  0  0  0  0  0  0  0  0  0
  -22.1910  -12.9290   21.8370 N   0  0  0  0  0  0  0  0  0  0  0  0
  -22.5990  -14.5950   20.4150 O   0  0  0  0  0  0  0  0  0  0  0  0
  -22.5240  -12.1250   22.3470 H   0  0  0  0  0  0  0  0  0  0  0  0
  -21.2330  -13.2240   21.9600 H   0  0  0  0  0  0  0  0  0  0  0  0
  -25.6820  -15.2610   20.4150 N   0  0  0  0  0  0  0  0  0  0  0  0
  -24.9140  -15.9220   20.4540 H   0  0  0  0  0  0  0  0  0  0  0  0
  -26.5700  -15.6990   20.2080 H   0  0  0  0  0  0  0  0  0  0  0  0
  -31.0970  -16.5710   18.1000 C   0  0  0  0  0  1  0  0  0  0  0  0
  -29.8940  -16.0590   18.9290 C   0  0  0  0  0  2  0  0  0  0  0  0
  -28.8960  -23.9390   19.7970 C   0  0  0  0  0  3  0  0  0  0  0  0
  -28.1280  -25.1400   20.5260 C   0  0  0  0  0  3  0  0  0  0  0  0
  -28.2340  -26.5200   19.9720 O   0  0  0  0  0  0  0  0  0  0  0  0
  -24.5820  -31.8970   23.1370 C   0  0  0  0  0  0  0  0  0  0  0  0
  -27.1060  -27.3520   20.0050 C   0  0  0  0  0  0  0  0  0  0  0  0
  -23.3320  -30.5050   21.5260 C   0  0  0  0  0  3  0  0  0  0  0  0
  -24.7410  -28.9550   20.0560 C   0  0  0  0  0  0  0  0  0  0  0  0
  -25.8640  -30.8280   21.2680 C   0  0  0  0  0  2  0  0  0  0  0  0
  -25.9250  -29.4490   20.6190 C   0  0  0  0  0  0  0  0  0  0  0  0
  -27.1140  -28.6620   20.5750 C   0  0  0  0  0  3  0  0  0  0  0  0
  -25.8990  -26.9000   19.4310 C   0  0  0  0  0  3  0  0  0  0  0  0
  -24.7290  -27.6850   19.4540 C   0  0  0  0  0  3  0  0  0  0  0  0
  -23.5060  -29.8300   20.1390 C   0  0  0  0  0  2  0  0  0  0  0  0
  -24.6130  -31.0930   22.0330 N   0  0  0  0  0  0  0  0  0  0  0  0
  -23.5150  -32.1740   23.7010 O   0  0  0  0  0  0  0  0  0  0  0  0
  -22.6950  -29.4870   22.5000 C   0  0  0  0  0  0  0  0  0  0  0  0
  -21.3660  -29.3080   22.4040 N   0  0  0  0  0  0  0  0  0  0  0  0
  -23.3930  -28.8580   23.2990 O   0  0  0  0  0  0  0  0  0  0  0  0
  -20.8630  -29.8690   21.7300 H   0  0  0  0  0  0  0  0  0  0  0  0
  -18.0040  -28.0950   22.9600 C   0  0  0  0  0  0  0  0  0  0  0  0
  -20.5640  -28.3680   23.1880 C   0  0  0  0  0  3  0  0  0  0  0  0
  -20.6650  -26.9370   22.6110 C   0  0  0  0  0  2  0  0  0  0  0  0
  -19.5480  -26.6060   21.6170 C   0  0  0  0  0  2  0  0  0  0  0  0
  -18.1770  -26.7450   22.2840 C   0  0  0  0  0  2  0  0  0  0  0  0
  -19.1260  -28.8640   23.3690 C   0  0  0  0  0  0  0  0  0  0  0  0
  -18.9110  -30.1270   23.9620 C   0  0  0  0  0  3  0  0  0  0  0  0
  -17.6070  -30.6230   24.1500 C   0  0  0  0  0  3  0  0  0  0  0  0
  -16.4990  -29.8500   23.7590 C   0  0  0  0  0  3  0  0  0  0  0  0
  -16.6990  -28.5890   23.1680 C   0  0  0  0  0  3  0  0  0  0  0  0
  -25.8820  -32.5240   23.7280 C   0  0  0  0  0  3  0  0  0  0  0  0
  -25.5770  -33.9110   24.1070 N   0  0  0  0  0  0  0  0  0  0  0  0
  -25.8910  -34.9870   23.3730 C   0  0  0  0  0  0  0  0  0  0  0  0
  -26.5390  -34.9150   22.3250 O   0  0  0  0  0  0  0  0  0  0  0  0
  -25.0000  -34.0410   24.9250 H   0  0  0  0  0  0  0  0  0  0  0  0
  -24.1580  -36.7870   23.1030 C   0  0  0  0  0  1  0  0  0  0  0  0
  -25.4120  -36.3590   23.8820 C   0  0  0  0  0  3  0  0  0  0  0  0
  -27.5600  -37.2150   24.7060 C   0  0  0  0  0  1  0  0  0  0  0  0
  -26.4430  -37.4160   23.7860 N   0  0  0  0  0  0  0  0  0  0  0  0
  -26.0400  -38.3310   23.9720 H   0  0  0  0  0  0  0  0  0  0  0  0
  -26.4490  -31.7240   24.9660 C   0  0  1  0  0  0  0  0  0  0  0  0
  -25.3950  -31.4580   26.0680 C   0  0  0  0  0  1  0  0  0  0  0  0
  -27.0220  -30.3610   24.5170 C   0  0  0  0  0  1  0  0  0  0  0  0
  -27.6230  -32.5060   25.6010 C   0  0  0  0  0  1  0  0  0  0  0  0
  1  3  1  0
  1  2  2  0
  2  6  1  0
  3  7  2  0
  4  5  1  0
  6  4  2  0
  7  4  1  0
  8  2  1  0
  8  9  2  0
 10 17  2  0
 11 16  1  0
 12 13  1  0
 12 11  1  0
 14 13  1  0
 14 22  1  0
 14 15  1  0
 16 10  1  0
 16 15  1  0
 18 10  1  0
 18  9  1  0
 19 20  2  0
 20 21  1  0
 20 39  1  0
 21 24  1  0
 22 19  1  0
 22 23  1  0
 23 21  2  0
 24 25  1  0
 25 26  2  0
 27 30  1  0
 27 26  1  0
 28 27  2  0
 29 28  1  0
 29 24  2  0
 30 31  1  0
 31 32  1  0
 32 33  2  0
 34 33  1  0
 34 38  1  0
 35 34  2  0
 36 31  2  0
 36 35  1  0
 37 36  1  0
 39 40  1  0
 40 43  1  0
 40 42  1  0
 41 39  2  0
 44 45  1  0
 44 19  1  0
 46 44  1  0
 47 48  1  0
 48 18  1  0
 49 50  2  0
 49  3  1  0
 51 53  1  0
 51 50  1  0
 52 63  2  0
 53 58  1  0
 54 62  1  0
 54 64  1  0
 55 61  1  0
 55 57  1  0
 56 62  1  0
 57 56  1  0
 58 57  2  0
 59 60  1  0
 59 53  2  0
 60 55  2  0
 61 54  1  0
 62 52  1  0
 64 66  2  0
 65 64  1  0
 67 65  1  0
 68 77  2  0
 68 73  1  0
 69 65  1  0
 69 73  1  0
 70 69  1  0
 71 72  1  0
 71 70  1  0
 72 68  1  0
 73 74  2  0
 74 75  1  0
 76 75  2  0
 77 76  1  0
 78 52  1  0
 78 79  1  0
 78 88  1  0
 79 82  1  0
 80 84  1  0
 80 79  1  0
 81 80  2  0
 84 83  1  0
 86 84  1  0
 86 87  1  0
 86 85  1  0
 88 91  1  1
 88 89  1  0
 90 88  1  0
M  ISO  4  10 100  18 100  50 101  51 101
M  END
>  <TORSDO>  (46) 
F 21

>  <SCORE>  (46) 
-13.180

>  <name>  (46) 
45

>  <ligand_id>  (46) 
45

>  <original_smiles>  (46) 
[H]c1c(C([H])([H])C([H])([H])Oc2c([H])c([H])c3c(c2[H])C([H])([H])N(C(=O)C([H])(N([H])C(=O)C([H])(N([H])C([H])([H])[H])C([H])([H])[H])C(C([H])([H])[H])(C([H])([H])[H])C([H])([H])[H])C([H])(C(=O)N([H])C2([H])c4c([H])c([H])c([H])c([H])c4C([H])([H])C([H])([H])C2([H])[H])C3([H])[H])nc(C([H])([H])[H])nc1C([H])([H])C([H])([H])N(C(=O)N1C([H])([H])C([H])([H])C([H])([H])C([H])(n2nc(-c3c([H])c([H])c(Oc4c([H])c([H])c(F)c([H])c4F)c([H])c3[H])c(C(=O)N([H])[H])c2N([H])[H])C1([H])[H])C([H])([H])C([H])([H])[H]

>  <smiles>  (46) 
[H]c1c(C([H])([H])C([H])([H])Oc2c([H])c([H])c3c(c2[H])C([H])([H])N(C(=O)C([H])(N([H])C(=O)C([H])(N([H])C([H])([H])[H])C([H])([H])[H])C(C([H])([H])[H])(C([H])([H])[H])C([H])([H])[H])C([H])(C(=O)N([H])C2([H])c4c([H])c([H])c([H])c([H])c4C([H])([H])C([H])([H])C2([H])[H])C3([H])[H])nc(C([H])([H])[H])nc1C([H])([H])C([H])([H])N(C(=O)N1C([H])([H])C([H])([H])C([H])([H])C([H])(n2nc(-c3c([H])c([H])c(Oc4c([H])c([H])c(F)c([H])c4F)c([H])c3[H])c(C(=O)N([H])[H])c2N([H])[H])C1([H])[H])C([H])([H])C([H])([H])[H]

$$$$
46:0:0
     RDKit          3D

 91 99  0  0  1  0  0  0  0  0999 V2000
  -28.5030  -21.0370   20.3610 C   0  0  0  0  0  3  0  0  0  0  0  0
  -29.1010  -22.3520   20.5370 C   0  0  0  0  0  0  0  0  0  0  0  0
  -29.4990  -20.0550   20.2980 C   0  0  0  0  0  0  0  0  0  0  0  0
  -32.0600  -20.4030   20.5630 C   0  0  0  0  0  1  0  0  0  0  0  0
  -30.4150  -22.1620   20.6090 N   0  0  0  0  0  0  0  0  0  0  0  0
  -30.6660  -20.8190   20.4690 N   0  0  0  0  0  0  0  0  0  0  0  0
  -29.4150  -18.3060   18.4610 C   0  0  0  0  0  1  0  0  0  0  0  0
  -27.9400  -18.0170   20.3990 C   0  0  0  0  0  1  0  0  0  0  0  0
  -29.3620  -18.4870   19.9950 C   0  0  2  0  0  0  0  0  0  0  0  0
  -30.3940  -17.4030   20.6240 C   0  0  0  0  0  2  0  0  0  0  0  0
  -30.6970  -14.7840   20.2770 C   0  0  0  0  0  0  0  0  0  0  0  0
  -30.4230  -12.5350   19.2320 C   0  0  0  0  0  2  0  0  0  0  0  0
  -29.4480  -12.6170   18.0350 C   0  0  0  0  0  2  0  0  0  0  0  0
  -27.9920  -12.4600   18.5050 C   0  0  0  0  0  2  0  0  0  0  0  0
  -27.6560  -13.3490   19.7300 C   0  0  0  0  0  3  0  0  0  0  0  0
  -28.7390  -13.2330   20.8250 C   0  0  0  0  0  2  0  0  0  0  0  0
  -30.0320  -13.5770   20.2090 N   0  0  0  0  0  0  0  0  0  0  0  0
  -31.8580  -14.8760   19.8720 O   0  0  0  0  0  0  0  0  0  0  0  0
  -29.9920  -15.9170   20.6300 N   0  0  0  0  0  0  0  0  0  0  0  0
  -29.0650  -15.7330   20.9850 H   0  0  0  0  0  0  0  0  0  0  0  0
  -25.2770  -13.9450   20.4860 C   0  0  0  0  0  0  0  0  0  0  0  0
  -24.2150  -13.1730   20.8710 C   0  0  0  0  0  0  0  0  0  0  0  0
  -24.6720  -11.8210   20.8260 C   0  0  0  0  0  0  0  0  0  0  0  0
  -26.3160  -13.0640   20.2380 N   0  0  0  0  0  0  0  0  0  0  0  0
  -25.9600  -11.7810   20.5020 N   0  0  0  0  0  0  0  0  0  0  0  0
  -23.9440  -10.5610   21.0180 C   0  0  0  0  0  0  0  0  0  0  0  0
  -24.3770   -9.5880   21.9430 C   0  0  0  0  0  3  0  0  0  0  0  0
  -23.6440   -8.3950   22.1240 C   0  0  0  0  0  3  0  0  0  0  0  0
  -22.4660   -8.1660   21.3750 C   0  0  0  0  0  0  0  0  0  0  0  0
  -22.0510   -9.1280   20.4380 C   0  0  0  0  0  3  0  0  0  0  0  0
  -22.7850  -10.3120   20.2560 C   0  0  0  0  0  3  0  0  0  0  0  0
  -21.7030   -7.0250   21.4680 O   0  0  0  0  0  0  0  0  0  0  0  0
  -21.6520   -6.2820   22.6210 C   0  0  0  0  0  0  0  0  0  0  0  0
  -21.2150   -6.8340   23.8450 C   0  0  0  0  0  3  0  0  0  0  0  0
  -21.1150   -6.0190   24.9890 C   0  0  0  0  0  3  0  0  0  0  0  0
  -21.4430   -4.6530   24.9130 C   0  0  0  0  0  0  0  0  0  0  0  0
  -21.8740   -4.1000   23.6950 C   0  0  0  0  0  3  0  0  0  0  0  0
  -21.9780   -4.9120   22.5520 C   0  0  0  0  0  0  0  0  0  0  0  0
  -22.3730   -4.3690   21.3740 F   0  0  0  0  0  0  0  0  0  0  0  0
  -21.3420   -3.8680   26.0110 F   0  0  0  0  0  0  0  0  0  0  0  0
  -22.8260  -13.6560   21.1690 C   0  0  0  0  0  0  0  0  0  0  0  0
  -22.1120  -12.9500   22.0390 N   0  0  0  0  0  0  0  0  0  0  0  0
  -22.3830  -14.6880   20.6680 O   0  0  0  0  0  0  0  0  0  0  0  0
  -22.4920  -12.1160   22.4640 H   0  0  0  0  0  0  0  0  0  0  0  0
  -21.1780  -13.2440   22.2880 H   0  0  0  0  0  0  0  0  0  0  0  0
  -25.4450  -15.3120   20.3100 N   0  0  0  0  0  0  0  0  0  0  0  0
  -24.6940  -15.9800   20.4380 H   0  0  0  0  0  0  0  0  0  0  0  0
  -26.2950  -15.7290   19.9510 H   0  0  0  0  0  0  0  0  0  0  0  0
  -28.4730  -23.7810   20.8730 C   0  0  0  0  0  2  0  0  0  0  0  0
  -28.4690  -25.0490   19.8680 C   0  0  0  0  0  2  0  0  0  0  0  0
  -28.3230  -26.4600   20.3900 O   0  0  0  0  0  0  0  0  0  0  0  0
  -24.5370  -31.9390   23.2450 C   0  0  0  0  0  0  0  0  0  0  0  0
  -27.1730  -27.2850   20.2890 C   0  0  0  0  0  0  0  0  0  0  0  0
  -23.3460  -30.5200   21.6160 C   0  0  0  0  0  3  0  0  0  0  0  0
  -24.8130  -28.9310   20.2340 C   0  0  0  0  0  0  0  0  0  0  0  0
  -25.8950  -30.8010   21.4750 C   0  0  0  0  0  2  0  0  0  0  0  0
  -25.9750  -29.4150   20.8380 C   0  0  0  0  0  0  0  0  0  0  0  0
  -27.1540  -28.6050   20.8540 C   0  0  0  0  0  3  0  0  0  0  0  0
  -25.9860  -26.8580   19.6560 C   0  0  0  0  0  3  0  0  0  0  0  0
  -24.8220  -27.6610   19.6370 C   0  0  0  0  0  3  0  0  0  0  0  0
  -23.5810  -29.8170   20.2520 C   0  0  0  0  0  2  0  0  0  0  0  0
  -24.6090  -31.1090   22.1630 N   0  0  0  0  0  0  0  0  0  0  0  0
  -23.4480  -32.2320   23.7600 O   0  0  0  0  0  0  0  0  0  0  0  0
  -22.6630  -29.5310   22.5880 C   0  0  0  0  0  0  0  0  0  0  0  0
  -21.3370  -29.3620   22.4480 N   0  0  0  0  0  0  0  0  0  0  0  0
  -23.3290  -28.9150   23.4260 O   0  0  0  0  0  0  0  0  0  0  0  0
  -20.8640  -29.9130   21.7440 H   0  0  0  0  0  0  0  0  0  0  0  0
  -17.9410  -28.2040   22.9550 C   0  0  0  0  0  0  0  0  0  0  0  0
  -20.5050  -28.4460   23.2310 C   0  0  0  0  0  3  0  0  0  0  0  0
  -20.5990  -27.0060   22.6800 C   0  0  0  0  0  2  0  0  0  0  0  0
  -19.4980  -26.6780   21.6670 C   0  0  0  0  0  2  0  0  0  0  0  0
  -18.1120  -26.8420   22.3000 C   0  0  0  0  0  2  0  0  0  0  0  0
  -19.0670  -28.9620   23.3760 C   0  0  0  0  0  0  0  0  0  0  0  0
  -18.8610  -30.2340   23.9540 C   0  0  0  0  0  3  0  0  0  0  0  0
  -17.5610  -30.7450   24.1210 C   0  0  0  0  0  3  0  0  0  0  0  0
  -16.4510  -29.9880   23.7120 C   0  0  0  0  0  3  0  0  0  0  0  0
  -16.6420  -28.7240   23.1320 C   0  0  0  0  0  3  0  0  0  0  0  0
  -25.8160  -32.5770   23.8670 C   0  0  0  0  0  3  0  0  0  0  0  0
  -26.3220  -31.8200   25.1610 C   0  0  1  0  0  0  0  0  0  0  0  0
  -25.2150  -31.5990   26.2200 C   0  0  0  0  0  1  0  0  0  0  0  0
  -26.9240  -30.4350   24.8140 C   0  0  0  0  0  1  0  0  0  0  0  0
  -27.4550  -32.6380   25.8240 C   0  0  0  0  0  1  0  0  0  0  0  0
  -25.4980  -33.9760   24.1830 N   0  0  0  0  0  0  0  0  0  0  0  0
  -25.8400  -35.0280   23.4270 C   0  0  0  0  0  0  0  0  0  0  0  0
  -26.5230  -34.9220   22.4050 O   0  0  0  0  0  0  0  0  0  0  0  0
  -24.8830  -34.1290   24.9690 H   0  0  0  0  0  0  0  0  0  0  0  0
  -24.1310  -36.8400   23.0430 C   0  0  0  0  0  1  0  0  0  0  0  0
  -25.3530  -36.4220   23.8750 C   0  0  0  0  0  3  0  0  0  0  0  0
  -27.4740  -37.2990   24.7480 C   0  0  0  0  0  1  0  0  0  0  0  0
  -26.3930  -37.4710   23.7840 N   0  0  0  0  0  0  0  0  0  0  0  0
  -25.9860  -38.3900   23.9310 H   0  0  0  0  0  0  0  0  0  0  0  0
  1  2  1  0
  2  5  2  0
  2 49  1  0
  3  1  2  0
  3  6  1  0
  6  4  1  0
  6  5  1  0
  9  7  1  6
  9  3  1  0
  9  8  1  0
  9 10  1  0
 10 19  1  0
 11 19  1  0
 12 17  1  0
 13 14  1  0
 13 12  1  0
 15 14  1  0
 15 24  1  0
 15 16  1  0
 17 11  1  0
 17 16  1  0
 18 11  2  0
 19 20  1  0
 21 22  2  0
 22 41  1  0
 23 22  1  0
 23 26  1  0
 24 21  1  0
 24 25  1  0
 25 23  2  0
 26 27  1  0
 27 28  2  0
 29 32  1  0
 29 28  1  0
 30 29  2  0
 31 30  1  0
 31 26  2  0
 32 33  1  0
 33 34  1  0
 34 35  2  0
 36 35  1  0
 36 40  1  0
 37 36  2  0
 38 33  2  0
 38 37  1  0
 39 38  1  0
 41 42  1  0
 42 45  1  0
 42 44  1  0
 43 41  2  0
 46 47  1  0
 46 21  1  0
 48 46  1  0
 50 51  1  0
 50 49  1  0
 52 63  2  0
 53 51  1  0
 53 58  1  0
 54 62  1  0
 54 64  1  0
 55 61  1  0
 55 57  1  0
 56 62  1  0
 57 58  2  0
 57 56  1  0
 59 53  2  0
 60 59  1  0
 60 55  2  0
 61 54  1  0
 62 52  1  0
 64 66  2  0
 65 64  1  0
 67 65  1  0
 68 77  2  0
 68 73  1  0
 69 65  1  0
 69 73  1  0
 70 69  1  0
 71 72  1  0
 71 70  1  0
 72 68  1  0
 73 74  2  0
 74 75  1  0
 76 75  2  0
 77 76  1  0
 78 52  1  0
 78 83  1  0
 78 79  1  0
 79 82  1  1
 79 80  1  0
 81 79  1  0
 83 86  1  0
 84 88  1  0
 84 83  1  0
 85 84  2  0
 88 87  1  0
 90 88  1  0
 90 91  1  0
 90 89  1  0
M  ISO  4  11 100  19 100  50 101  51 101
M  END
>  <TORSDO>  (47) 
F 20

>  <SCORE>  (47) 
-14.095

>  <name>  (47) 
46

>  <ligand_id>  (47) 
46

>  <original_smiles>  (47) 
[H]c1c([H])c([H])c2c(c1[H])C([H])([H])C([H])([H])C([H])([H])C2([H])N([H])C(=O)C1([H])N(C(=O)C([H])(N([H])C(=O)C([H])(N([H])C([H])([H])[H])C([H])([H])[H])C(C([H])([H])[H])(C([H])([H])[H])C([H])([H])[H])C([H])([H])c2c([H])c(OC([H])([H])C([H])([H])c3nn(C([H])([H])[H])c(C(C([H])([H])[H])(C([H])([H])[H])C([H])([H])N([H])C(=O)N4C([H])([H])C([H])([H])C([H])([H])C([H])(n5nc(-c6c([H])c([H])c(Oc7c([H])c([H])c(F)c([H])c7F)c([H])c6[H])c(C(=O)N([H])[H])c5N([H])[H])C4([H])[H])c3[H])c([H])c([H])c2C1([H])[H]

>  <smiles>  (47) 
[H]c1c([H])c([H])c2c(c1[H])C([H])([H])C([H])([H])C([H])([H])C2([H])N([H])C(=O)C1([H])N(C(=O)C([H])(N([H])C(=O)C([H])(N([H])C([H])([H])[H])C([H])([H])[H])C(C([H])([H])[H])(C([H])([H])[H])C([H])([H])[H])C([H])([H])c2c([H])c(OC([H])([H])C([H])([H])c3nn(C([H])([H])[H])c(C(C([H])([H])[H])(C([H])([H])[H])C([H])([H])N([H])C(=O)N4C([H])([H])C([H])([H])C([H])([H])C([H])(n5nc(-c6c([H])c([H])c(Oc7c([H])c([H])c(F)c([H])c7F)c([H])c6[H])c(C(=O)N([H])[H])c5N([H])[H])C4([H])[H])c3[H])c([H])c([H])c2C1([H])[H]

$$$$
47:0:0
     RDKit          3D

 87 95  0  0  1  0  0  0  0  0999 V2000
  -28.4730  -20.5280   19.7070 C   0  0  0  0  0  3  0  0  0  0  0  0
  -28.7900  -22.0300   20.1030 C   0  0  0  0  0  0  0  0  0  0  0  0
  -29.3830  -19.3580   19.9900 C   0  0  0  0  0  0  0  0  0  0  0  0
  -31.5180  -19.8610   21.2670 C   0  0  0  0  0  1  0  0  0  0  0  0
  -29.9870  -21.6800   20.6590 N   0  0  0  0  0  0  0  0  0  0  0  0
  -30.2890  -20.2650   20.6120 N   0  0  0  0  0  0  0  0  0  0  0  0
  -28.3420  -17.2970   18.7590 C   0  0  0  0  0  1  0  0  0  0  0  0
  -28.5830  -17.2230   21.2620 C   0  0  0  0  0  1  0  0  0  0  0  0
  -29.3260  -17.4560   19.9350 C   0  0  2  0  0  0  0  0  0  0  0  0
  -30.3080  -15.8080   19.7680 C   0  0  0  0  0  0  0  0  0  0  0  0
  -30.4950  -13.2450   18.9270 C   0  0  0  0  0  2  0  0  0  0  0  0
  -29.5150  -12.8040   17.7920 C   0  0  0  0  0  2  0  0  0  0  0  0
  -28.1400  -12.3910   18.3440 C   0  0  0  0  0  2  0  0  0  0  0  0
  -27.6890  -13.3520   19.4610 C   0  0  0  0  0  3  0  0  0  0  0  0
  -28.8060  -13.6590   20.4840 C   0  0  0  0  0  2  0  0  0  0  0  0
  -29.8960  -14.3850   19.7690 N   0  0  0  0  0  0  0  0  0  0  0  0
  -31.5210  -15.7990   19.4770 O   0  0  0  0  0  0  0  0  0  0  0  0
  -25.4110  -13.8420   20.4700 C   0  0  0  0  0  0  0  0  0  0  0  0
  -24.3870  -13.0410   20.8880 C   0  0  0  0  0  0  0  0  0  0  0  0
  -24.8520  -11.6970   20.7410 C   0  0  0  0  0  0  0  0  0  0  0  0
  -26.4250  -12.9860   20.0820 N   0  0  0  0  0  0  0  0  0  0  0  0
  -26.1100  -11.6860   20.3090 N   0  0  0  0  0  0  0  0  0  0  0  0
  -24.1440  -10.4230   20.9280 C   0  0  0  0  0  0  0  0  0  0  0  0
  -24.5910   -9.4590   21.8570 C   0  0  0  0  0  3  0  0  0  0  0  0
  -23.8790   -8.2520   22.0340 C   0  0  0  0  0  3  0  0  0  0  0  0
  -22.7080   -8.0010   21.2800 C   0  0  0  0  0  0  0  0  0  0  0  0
  -22.2810   -8.9560   20.3400 C   0  0  0  0  0  3  0  0  0  0  0  0
  -22.9930  -10.1530   20.1620 C   0  0  0  0  0  3  0  0  0  0  0  0
  -21.9680   -6.8470   21.3670 O   0  0  0  0  0  0  0  0  0  0  0  0
  -21.8280   -6.1690   22.5510 C   0  0  0  0  0  0  0  0  0  0  0  0
  -21.2430   -6.7680   23.6880 C   0  0  0  0  0  3  0  0  0  0  0  0
  -21.0550   -6.0130   24.8630 C   0  0  0  0  0  3  0  0  0  0  0  0
  -21.4430   -4.6590   24.9010 C   0  0  0  0  0  0  0  0  0  0  0  0
  -22.0200   -4.0600   23.7680 C   0  0  0  0  0  3  0  0  0  0  0  0
  -22.2090   -4.8120   22.5950 C   0  0  0  0  0  0  0  0  0  0  0  0
  -22.7470   -4.2250   21.4990 F   0  0  0  0  0  0  0  0  0  0  0  0
  -21.2560   -3.9320   26.0270 F   0  0  0  0  0  0  0  0  0  0  0  0
  -23.0200  -13.4960   21.3040 C   0  0  0  0  0  0  0  0  0  0  0  0
  -22.3730  -12.7570   22.1970 N   0  0  0  0  0  0  0  0  0  0  0  0
  -22.5360  -14.5420   20.8730 O   0  0  0  0  0  0  0  0  0  0  0  0
  -22.7790  -11.9110   22.5690 H   0  0  0  0  0  0  0  0  0  0  0  0
  -21.4580  -13.0430   22.5180 H   0  0  0  0  0  0  0  0  0  0  0  0
  -25.5560  -15.2210   20.3570 N   0  0  0  0  0  0  0  0  0  0  0  0
  -24.8040  -15.8640   20.5830 H   0  0  0  0  0  0  0  0  0  0  0  0
  -26.3780  -15.6860   19.9970 H   0  0  0  0  0  0  0  0  0  0  0  0
  -27.9540  -23.7510   20.0430 C   0  0  0  0  0  2  0  0  0  0  0  0
  -28.2000  -25.4860   20.3390 O   0  0  0  0  0  0  0  0  0  0  0  0
  -24.7210  -31.8310   23.2770 C   0  0  0  0  0  0  0  0  0  0  0  0
  -27.2480  -26.7300   20.2730 C   0  0  0  0  0  0  0  0  0  0  0  0
  -23.5410  -30.4540   21.6170 C   0  0  0  0  0  3  0  0  0  0  0  0
  -24.9930  -28.8000   20.2090 C   0  0  0  0  0  0  0  0  0  0  0  0
  -26.1230  -30.5680   21.5280 C   0  0  0  0  0  2  0  0  0  0  0  0
  -26.1860  -29.1370   20.8600 C   0  0  0  0  0  0  0  0  0  0  0  0
  -27.2950  -28.1320   20.8590 C   0  0  0  0  0  3  0  0  0  0  0  0
  -26.0210  -26.6150   19.5670 C   0  0  0  0  0  3  0  0  0  0  0  0
  -24.9520  -27.5640   19.5390 C   0  0  0  0  0  3  0  0  0  0  0  0
  -23.7930  -29.7620   20.2450 C   0  0  0  0  0  2  0  0  0  0  0  0
  -24.8190  -30.9840   22.1930 N   0  0  0  0  0  0  0  0  0  0  0  0
  -23.6240  -32.1380   23.7750 O   0  0  0  0  0  0  0  0  0  0  0  0
  -22.8020  -29.4800   22.5740 C   0  0  0  0  0  0  0  0  0  0  0  0
  -21.4700  -29.3340   22.4260 N   0  0  0  0  0  0  0  0  0  0  0  0
  -23.4390  -28.8540   23.4240 O   0  0  0  0  0  0  0  0  0  0  0  0
  -21.0050  -29.8900   21.7220 H   0  0  0  0  0  0  0  0  0  0  0  0
  -18.0680  -28.1380   22.8870 C   0  0  0  0  0  0  0  0  0  0  0  0
  -20.6260  -28.3980   23.1820 C   0  0  0  0  0  3  0  0  0  0  0  0
  -20.7290  -26.9670   22.6030 C   0  0  0  0  0  2  0  0  0  0  0  0
  -19.6390  -26.6540   21.5720 C   0  0  0  0  0  2  0  0  0  0  0  0
  -18.2490  -26.7960   22.2000 C   0  0  0  0  0  2  0  0  0  0  0  0
  -19.1830  -28.8980   23.3340 C   0  0  0  0  0  0  0  0  0  0  0  0
  -18.9550  -30.1510   23.9420 C   0  0  0  0  0  3  0  0  0  0  0  0
  -17.6480  -30.6480   24.1040 C   0  0  0  0  0  3  0  0  0  0  0  0
  -16.5480  -29.8870   23.6700 C   0  0  0  0  0  3  0  0  0  0  0  0
  -16.7590  -28.6340   23.0680 C   0  0  0  0  0  3  0  0  0  0  0  0
  -25.9800  -32.4670   23.9380 C   0  0  0  0  0  3  0  0  0  0  0  0
  -25.6750  -33.8780   24.2530 N   0  0  0  0  0  0  0  0  0  0  0  0
  -26.0030  -34.9290   23.4890 C   0  0  0  0  0  0  0  0  0  0  0  0
  -26.6510  -34.8140   22.4460 O   0  0  0  0  0  0  0  0  0  0  0  0
  -25.0940  -34.0410   25.0620 H   0  0  0  0  0  0  0  0  0  0  0  0
  -24.2670  -36.7340   23.1990 C   0  0  0  0  0  1  0  0  0  0  0  0
  -25.5450  -36.3300   23.9520 C   0  0  0  0  0  3  0  0  0  0  0  0
  -27.7130  -37.2330   24.6720 C   0  0  0  0  0  1  0  0  0  0  0  0
  -26.5740  -37.3780   23.7720 N   0  0  0  0  0  0  0  0  0  0  0  0
  -26.1740  -38.3030   23.9130 H   0  0  0  0  0  0  0  0  0  0  0  0
  -26.4330  -31.7160   25.2520 C   0  0  1  0  0  0  0  0  0  0  0  0
  -25.2980  -31.5210   26.2850 C   0  0  0  0  0  1  0  0  0  0  0  0
  -27.0060  -30.3190   24.9240 C   0  0  0  0  0  1  0  0  0  0  0  0
  -27.5730  -32.5040   25.9400 C   0  0  0  0  0  1  0  0  0  0  0  0
  1  3  2  0
  1  2  1  0
  2  5  2  0
  3  6  1  0
  6  5  1  0
  6  4  1  0
  9  7  1  6
  9  3  1  0
  9  8  1  0
 10 16  1  0
 10  9  1  0
 11 16  1  0
 12 13  1  0
 12 11  1  0
 14 13  1  0
 14 21  1  0
 14 15  1  0
 16 15  1  0
 17 10  2  0
 18 19  2  0
 19 38  1  0
 20 19  1  0
 20 23  1  0
 21 22  1  0
 21 18  1  0
 22 20  2  0
 23 24  1  0
 24 25  2  0
 26 29  1  0
 26 25  1  0
 27 26  2  0
 28 27  1  0
 28 23  2  0
 29 30  1  0
 30 35  2  0
 30 31  1  0
 31 32  2  0
 32 33  1  0
 33 37  1  0
 34 33  2  0
 35 34  1  0
 36 35  1  0
 38 39  1  0
 39 42  1  0
 39 41  1  0
 40 38  2  0
 43 18  1  0
 43 44  1  0
 45 43  1  0
 46  2  1  0
 46 47  1  0
 48 59  2  0
 49 47  1  0
 49 54  1  0
 50 58  1  0
 50 60  1  0
 51 57  1  0
 51 53  1  0
 52 58  1  0
 53 52  1  0
 54 53  2  0
 55 49  2  0
 56 55  1  0
 56 51  2  0
 57 50  1  0
 58 48  1  0
 60 62  2  0
 61 60  1  0
 63 61  1  0
 64 73  2  0
 64 69  1  0
 65 61  1  0
 65 69  1  0
 66 65  1  0
 67 68  1  0
 67 66  1  0
 68 64  1  0
 69 70  2  0
 70 71  1  0
 72 71  2  0
 73 72  1  0
 74 48  1  0
 74 75  1  0
 74 84  1  0
 75 78  1  0
 76 80  1  0
 76 75  1  0
 77 76  2  0
 80 79  1  0
 82 83  1  0
 82 80  1  0
 82 81  1  0
 84 87  1  1
 84 85  1  0
 86 84  1  0
M  ISO  4   9 100  10 100  46 101  47 101
M  END
>  <TORSDO>  (48) 
F 18

>  <SCORE>  (48) 
-15.803

>  <name>  (48) 
47

>  <ligand_id>  (48) 
47

>  <original_smiles>  (48) 
[H]c1c([H])c([H])c2c(c1[H])C([H])([H])C([H])([H])C([H])([H])C2([H])N([H])C(=O)C1([H])N(C(=O)C([H])(N([H])C(=O)C([H])(N([H])C([H])([H])[H])C([H])([H])[H])C(C([H])([H])[H])(C([H])([H])[H])C([H])([H])[H])C([H])([H])c2c([H])c(OC([H])([H])c3nn(C([H])([H])[H])c(C(C(=O)N4C([H])([H])C([H])([H])C([H])([H])C([H])(n5nc(-c6c([H])c([H])c(Oc7c([H])c([H])c(F)c([H])c7F)c([H])c6[H])c(C(=O)N([H])[H])c5N([H])[H])C4([H])[H])(C([H])([H])[H])C([H])([H])[H])c3[H])c([H])c([H])c2C1([H])[H]

>  <smiles>  (48) 
[H]c1c([H])c([H])c2c(c1[H])C([H])([H])C([H])([H])C([H])([H])C2([H])N([H])C(=O)C1([H])N(C(=O)C([H])(N([H])C(=O)C([H])(N([H])C([H])([H])[H])C([H])([H])[H])C(C([H])([H])[H])(C([H])([H])[H])C([H])([H])[H])C([H])([H])c2c([H])c(OC([H])([H])c3nn(C([H])([H])[H])c(C(C(=O)N4C([H])([H])C([H])([H])C([H])([H])C([H])(n5nc(-c6c([H])c([H])c(Oc7c([H])c([H])c(F)c([H])c7F)c([H])c6[H])c(C(=O)N([H])[H])c5N([H])[H])C4([H])[H])(C([H])([H])[H])C([H])([H])[H])c3[H])c([H])c([H])c2C1([H])[H]

$$$$
48:0:0
     RDKit          3D

 87 95  0  0  1  0  0  0  0  0999 V2000
  -28.3280  -21.8140   19.8580 C   0  0  0  0  0  3  0  0  0  0  0  0
  -29.9930  -21.5350   21.1310 C   0  0  0  0  0  3  0  0  0  0  0  0
  -28.6330  -23.1410   20.3050 C   0  0  0  0  0  0  0  0  0  0  0  0
  -29.7400  -22.8810   21.1410 N   0  0  0  0  0  0  0  0  0  0  0  0
  -29.1840  -20.7500   20.3750 N   0  0  0  0  0  0  0  0  0  0  0  0
  -27.8250  -24.5810   20.0330 C   0  0  0  0  0  2  0  0  0  0  0  0
  -28.2000  -26.0890   20.2880 O   0  0  0  0  0  0  0  0  0  0  0  0
  -24.6440  -31.8740   23.2480 C   0  0  0  0  0  0  0  0  0  0  0  0
  -27.1760  -27.1230   20.2010 C   0  0  0  0  0  0  0  0  0  0  0  0
  -23.4260  -30.4840   21.6210 C   0  0  0  0  0  3  0  0  0  0  0  0
  -24.8590  -28.9090   20.1750 C   0  0  0  0  0  0  0  0  0  0  0  0
  -25.9840  -30.7300   21.4390 C   0  0  0  0  0  2  0  0  0  0  0  0
  -26.0460  -29.3370   20.7820 C   0  0  0  0  0  0  0  0  0  0  0  0
  -27.2040  -28.4630   20.7780 C   0  0  0  0  0  3  0  0  0  0  0  0
  -25.9640  -26.8180   19.5380 C   0  0  0  0  0  3  0  0  0  0  0  0
  -24.8350  -27.6650   19.5310 C   0  0  0  0  0  3  0  0  0  0  0  0
  -23.6350  -29.8110   20.2380 C   0  0  0  0  0  2  0  0  0  0  0  0
  -24.7050  -31.0530   22.1560 N   0  0  0  0  0  0  0  0  0  0  0  0
  -23.5620  -32.1630   23.7850 O   0  0  0  0  0  0  0  0  0  0  0  0
  -22.7510  -29.4770   22.5860 C   0  0  0  0  0  0  0  0  0  0  0  0
  -21.4230  -29.3040   22.4650 N   0  0  0  0  0  0  0  0  0  0  0  0
  -23.4260  -28.8550   23.4110 O   0  0  0  0  0  0  0  0  0  0  0  0
  -20.9330  -29.8550   21.7740 H   0  0  0  0  0  0  0  0  0  0  0  0
  -18.0470  -28.0840   22.9750 C   0  0  0  0  0  0  0  0  0  0  0  0
  -20.6040  -28.3680   23.2430 C   0  0  0  0  0  3  0  0  0  0  0  0
  -20.7160  -26.9310   22.6840 C   0  0  0  0  0  2  0  0  0  0  0  0
  -19.6190  -26.5910   21.6700 C   0  0  0  0  0  2  0  0  0  0  0  0
  -18.2340  -26.7310   22.3100 C   0  0  0  0  0  2  0  0  0  0  0  0
  -19.1600  -28.8590   23.3980 C   0  0  0  0  0  0  0  0  0  0  0  0
  -18.9290  -30.1240   23.9820 C   0  0  0  0  0  3  0  0  0  0  0  0
  -17.6200  -30.6160   24.1430 C   0  0  0  0  0  3  0  0  0  0  0  0
  -16.5220  -29.8400   23.7330 C   0  0  0  0  0  3  0  0  0  0  0  0
  -16.7360  -28.5750   23.1570 C   0  0  0  0  0  3  0  0  0  0  0  0
  -25.9290  -32.5070   23.8630 C   0  0  0  0  0  3  0  0  0  0  0  0
  -26.4450  -31.7370   25.1410 C   0  0  1  0  0  0  0  0  0  0  0  0
  -25.3570  -31.5080   26.2150 C   0  0  0  0  0  1  0  0  0  0  0  0
  -27.0180  -30.3530   24.7570 C   0  0  0  0  0  1  0  0  0  0  0  0
  -27.6040  -32.5270   25.7930 C   0  0  0  0  0  1  0  0  0  0  0  0
  -25.6200  -33.9070   24.1990 N   0  0  0  0  0  0  0  0  0  0  0  0
  -25.9370  -34.9640   23.4370 C   0  0  0  0  0  0  0  0  0  0  0  0
  -26.5860  -34.8620   22.3920 O   0  0  0  0  0  0  0  0  0  0  0  0
  -25.0440  -34.0630   25.0130 H   0  0  0  0  0  0  0  0  0  0  0  0
  -24.1950  -36.7540   23.1340 C   0  0  0  0  0  1  0  0  0  0  0  0
  -25.4610  -36.3520   23.9080 C   0  0  0  0  0  3  0  0  0  0  0  0
  -27.6180  -37.2420   24.6730 C   0  0  0  0  0  1  0  0  0  0  0  0
  -26.4870  -37.4080   23.7650 N   0  0  0  0  0  0  0  0  0  0  0  0
  -26.0830  -38.3280   23.9220 H   0  0  0  0  0  0  0  0  0  0  0  0
  -29.1110  -19.1720   20.0820 C   0  0  0  0  0  3  0  0  0  0  0  0
  -30.0550  -17.8410   20.6220 C   0  0  0  0  0  3  0  0  0  0  0  0
  -30.5070  -15.0680   20.3920 C   0  0  0  0  0  0  0  0  0  0  0  0
  -30.4030  -12.6680   19.5330 C   0  0  0  0  0  2  0  0  0  0  0  0
  -29.4970  -12.5310   18.2880 C   0  0  0  0  0  2  0  0  0  0  0  0
  -28.0260  -12.3220   18.7000 C   0  0  0  0  0  2  0  0  0  0  0  0
  -27.5790  -13.2720   19.8420 C   0  0  0  0  0  3  0  0  0  0  0  0
  -28.6260  -13.3860   20.9730 C   0  0  0  0  0  2  0  0  0  0  0  0
  -29.8890  -13.8070   20.3480 N   0  0  0  0  0  0  0  0  0  0  0  0
  -31.7420  -15.0650   20.3440 O   0  0  0  0  0  0  0  0  0  0  0  0
  -28.9470  -16.3510   19.0120 C   0  0  0  0  0  1  0  0  0  0  0  0
  -29.7700  -16.3070   20.2250 N   0  0  0  0  0  0  0  0  0  0  0  0
  -25.1950  -13.8660   20.5390 C   0  0  0  0  0  0  0  0  0  0  0  0
  -24.1200  -13.1000   20.8860 C   0  0  0  0  0  0  0  0  0  0  0  0
  -24.5830  -11.7480   20.8810 C   0  0  0  0  0  0  0  0  0  0  0  0
  -26.2400  -12.9810   20.3300 N   0  0  0  0  0  0  0  0  0  0  0  0
  -25.8810  -11.7020   20.6050 N   0  0  0  0  0  0  0  0  0  0  0  0
  -23.8480  -10.4900   21.0660 C   0  0  0  0  0  0  0  0  0  0  0  0
  -24.2720   -9.5220   22.0040 C   0  0  0  0  0  3  0  0  0  0  0  0
  -23.5390   -8.3290   22.1800 C   0  0  0  0  0  3  0  0  0  0  0  0
  -22.3690   -8.0960   21.4170 C   0  0  0  0  0  0  0  0  0  0  0  0
  -21.9660   -9.0520   20.4690 C   0  0  0  0  0  3  0  0  0  0  0  0
  -22.6990  -10.2370   20.2920 C   0  0  0  0  0  3  0  0  0  0  0  0
  -21.6100   -6.9540   21.5020 O   0  0  0  0  0  0  0  0  0  0  0  0
  -21.5650   -6.2020   22.6480 C   0  0  0  0  0  0  0  0  0  0  0  0
  -21.1620   -6.7540   23.8830 C   0  0  0  0  0  3  0  0  0  0  0  0
  -21.0640   -5.9310   25.0230 C   0  0  0  0  0  3  0  0  0  0  0  0
  -21.3570   -4.5570   24.9280 C   0  0  0  0  0  0  0  0  0  0  0  0
  -21.7550   -4.0060   23.6960 C   0  0  0  0  0  3  0  0  0  0  0  0
  -21.8550   -4.8260   22.5590 C   0  0  0  0  0  0  0  0  0  0  0  0
  -22.2190   -4.2870   21.3710 F   0  0  0  0  0  0  0  0  0  0  0  0
  -21.2550   -3.7640   26.0190 F   0  0  0  0  0  0  0  0  0  0  0  0
  -22.7190  -13.5850   21.1110 C   0  0  0  0  0  0  0  0  0  0  0  0
  -21.9680  -12.9040   21.9690 N   0  0  0  0  0  0  0  0  0  0  0  0
  -22.2980  -14.6040   20.5650 O   0  0  0  0  0  0  0  0  0  0  0  0
  -22.3250  -12.0840   22.4350 H   0  0  0  0  0  0  0  0  0  0  0  0
  -21.0250  -13.2080   22.1630 H   0  0  0  0  0  0  0  0  0  0  0  0
  -25.3660  -15.2360   20.3560 N   0  0  0  0  0  0  0  0  0  0  0  0
  -24.5950  -15.8900   20.4500 H   0  0  0  0  0  0  0  0  0  0  0  0
  -26.2330  -15.6760   20.0800 H   0  0  0  0  0  0  0  0  0  0  0  0
  1  3  2  0
  1  5  1  0
  2  4  2  0
  3  4  1  0
  5  2  1  0
  6  7  1  0
  6  3  1  0
  8 19  2  0
  9  7  1  0
  9 14  1  0
 10 18  1  0
 10 20  1  0
 11 17  1  0
 11 13  1  0
 12 18  1  0
 13 12  1  0
 14 13  2  0
 15  9  2  0
 16 15  1  0
 16 11  2  0
 17 10  1  0
 18  8  1  0
 20 22  2  0
 21 20  1  0
 23 21  1  0
 24 33  2  0
 24 29  1  0
 25 21  1  0
 25 29  1  0
 26 25  1  0
 27 28  1  0
 27 26  1  0
 28 24  1  0
 29 30  2  0
 30 31  1  0
 32 31  2  0
 33 32  1  0
 34  8  1  0
 34 39  1  0
 34 35  1  0
 35 38  1  1
 35 36  1  0
 37 35  1  0
 39 42  1  0
 40 44  1  0
 40 39  1  0
 41 40  2  0
 44 43  1  0
 46 44  1  0
 46 47  1  0
 46 45  1  0
 48  5  1  0
 48 49  2  0
 51 56  1  0
 52 53  1  0
 52 51  1  0
 54 53  1  0
 54 63  1  0
 54 55  1  0
 56 50  1  0
 56 55  1  0
 57 50  2  0
 58 59  1  0
 59 50  1  0
 59 49  1  0
 60 61  2  0
 61 80  1  0
 62 61  1  0
 62 65  1  0
 63 60  1  0
 63 64  1  0
 64 62  2  0
 65 66  1  0
 66 67  2  0
 68 71  1  0
 68 67  1  0
 69 68  2  0
 70 69  1  0
 70 65  2  0
 71 72  1  0
 72 73  1  0
 73 74  2  0
 75 74  1  0
 75 79  1  0
 76 75  2  0
 77 72  2  0
 77 76  1  0
 78 77  1  0
 80 81  1  0
 81 84  1  0
 81 83  1  0
 82 80  2  0
 85 86  1  0
 85 60  1  0
 87 85  1  0
M  ISO  4   6 101   7 101  50 100  59 100
M  END
>  <TORSDO>  (49) 
F 19

>  <SCORE>  (49) 
-14.764

>  <name>  (49) 
48

>  <ligand_id>  (49) 
48

>  <original_smiles>  (49) 
[H]c1c([H])c([H])c2c(c1[H])C([H])([H])C([H])([H])C([H])([H])C2([H])N([H])C(=O)C1([H])N(C(=O)C([H])(N([H])C(=O)C([H])(N([H])C([H])([H])[H])C([H])([H])[H])C(C([H])([H])[H])(C([H])([H])[H])C([H])([H])[H])C([H])([H])c2c([H])c(OC([H])([H])c3nc([H])n(C([H])([H])C([H])([H])N(C(=O)N4C([H])([H])C([H])([H])C([H])([H])C([H])(n5nc(-c6c([H])c([H])c(Oc7c([H])c([H])c(F)c([H])c7F)c([H])c6[H])c(C(=O)N([H])[H])c5N([H])[H])C4([H])[H])C([H])([H])[H])c3[H])c([H])c([H])c2C1([H])[H]

>  <smiles>  (49) 
[H]c1c([H])c([H])c2c(c1[H])C([H])([H])C([H])([H])C([H])([H])C2([H])N([H])C(=O)C1([H])N(C(=O)C([H])(N([H])C(=O)C([H])(N([H])C([H])([H])[H])C([H])([H])[H])C(C([H])([H])[H])(C([H])([H])[H])C([H])([H])[H])C([H])([H])c2c([H])c(OC([H])([H])c3nc([H])n(C([H])([H])C([H])([H])N(C(=O)N4C([H])([H])C([H])([H])C([H])([H])C([H])(n5nc(-c6c([H])c([H])c(Oc7c([H])c([H])c(F)c([H])c7F)c([H])c6[H])c(C(=O)N([H])[H])c5N([H])[H])C4([H])[H])C([H])([H])[H])c3[H])c([H])c([H])c2C1([H])[H]

$$$$
49:0:0
     RDKit          3D

 88 96  0  0  1  0  0  0  0  0999 V2000
  -29.3980  -19.7430   20.8960 C   0  0  0  0  0  3  0  0  0  0  0  0
  -29.1720  -20.9690   20.1370 C   0  0  0  0  0  0  0  0  0  0  0  0
  -29.3750  -20.3560   18.8650 N   0  0  0  0  0  0  0  0  0  0  0  0
  -29.6100  -19.0140   18.8690 N   0  0  0  0  0  0  0  0  0  0  0  0
  -29.7100  -18.4840   20.1370 N   0  0  0  0  0  0  0  0  0  0  0  0
  -29.0850  -22.7150   20.4560 C   0  0  0  0  0  3  0  0  0  0  0  0
  -28.0390  -24.1540   20.0760 C   0  0  0  0  0  3  0  0  0  0  0  0
  -28.1950  -25.7980   20.3060 O   0  0  0  0  0  0  0  0  0  0  0  0
  -24.5440  -31.7920   23.1420 C   0  0  0  0  0  0  0  0  0  0  0  0
  -27.1720  -26.8880   20.2060 C   0  0  0  0  0  0  0  0  0  0  0  0
  -23.3800  -30.3720   21.5020 C   0  0  0  0  0  3  0  0  0  0  0  0
  -24.8580  -28.7600   20.1120 C   0  0  0  0  0  0  0  0  0  0  0  0
  -25.9460  -30.5960   21.3860 C   0  0  0  0  0  2  0  0  0  0  0  0
  -26.0350  -29.1780   20.7440 C   0  0  0  0  0  0  0  0  0  0  0  0
  -27.1850  -28.2640   20.7640 C   0  0  0  0  0  3  0  0  0  0  0  0
  -25.9640  -26.6240   19.5230 C   0  0  0  0  0  3  0  0  0  0  0  0
  -24.8480  -27.5040   19.4810 C   0  0  0  0  0  3  0  0  0  0  0  0
  -23.6310  -29.6740   20.1360 C   0  0  0  0  0  2  0  0  0  0  0  0
  -24.6440  -30.9480   22.0630 N   0  0  0  0  0  0  0  0  0  0  0  0
  -23.4460  -32.0800   23.6460 O   0  0  0  0  0  0  0  0  0  0  0  0
  -22.6780  -29.3830   22.4700 C   0  0  0  0  0  0  0  0  0  0  0  0
  -21.3540  -29.1980   22.3220 N   0  0  0  0  0  0  0  0  0  0  0  0
  -23.3350  -28.7810   23.3230 O   0  0  0  0  0  0  0  0  0  0  0  0
  -20.8760  -29.7350   21.6110 H   0  0  0  0  0  0  0  0  0  0  0  0
  -17.9830  -27.9270   22.7660 C   0  0  0  0  0  0  0  0  0  0  0  0
  -20.5290  -28.2600   23.0920 C   0  0  0  0  0  3  0  0  0  0  0  0
  -20.6780  -26.8170   22.5520 C   0  0  0  0  0  2  0  0  0  0  0  0
  -19.6120  -26.4470   21.5160 C   0  0  0  0  0  2  0  0  0  0  0  0
  -18.2100  -26.5700   22.1200 C   0  0  0  0  0  2  0  0  0  0  0  0
  -19.0730  -28.7270   23.2070 C   0  0  0  0  0  0  0  0  0  0  0  0
  -18.8050  -29.9920   23.7740 C   0  0  0  0  0  3  0  0  0  0  0  0
  -17.4830  -30.4610   23.9000 C   0  0  0  0  0  3  0  0  0  0  0  0
  -16.4100  -29.6590   23.4730 C   0  0  0  0  0  3  0  0  0  0  0  0
  -16.6600  -28.3950   22.9120 C   0  0  0  0  0  3  0  0  0  0  0  0
  -25.8020  -32.4500   23.7850 C   0  0  0  0  0  3  0  0  0  0  0  0
  -26.3060  -31.6920   25.0750 C   0  0  1  0  0  0  0  0  0  0  0  0
  -25.2000  -31.4470   26.1280 C   0  0  0  0  0  1  0  0  0  0  0  0
  -26.9120  -30.3180   24.7080 C   0  0  0  0  0  1  0  0  0  0  0  0
  -27.4380  -32.5030   25.7510 C   0  0  0  0  0  1  0  0  0  0  0  0
  -25.4630  -33.8460   24.1210 N   0  0  0  0  0  0  0  0  0  0  0  0
  -25.7870  -34.9140   23.3800 C   0  0  0  0  0  0  0  0  0  0  0  0
  -26.4630  -34.8300   22.3520 O   0  0  0  0  0  0  0  0  0  0  0  0
  -24.8610  -33.9820   24.9190 H   0  0  0  0  0  0  0  0  0  0  0  0
  -24.0370  -36.6960   23.0480 C   0  0  0  0  0  1  0  0  0  0  0  0
  -25.2850  -36.2950   23.8530 C   0  0  0  0  0  3  0  0  0  0  0  0
  -27.4080  -37.2010   24.6910 C   0  0  0  0  0  1  0  0  0  0  0  0
  -26.3040  -37.3620   23.7490 N   0  0  0  0  0  0  0  0  0  0  0  0
  -25.8870  -38.2760   23.9020 H   0  0  0  0  0  0  0  0  0  0  0  0
  -29.8090  -16.8220   20.5090 C   0  0  0  0  0  3  0  0  0  0  0  0
  -30.5370  -15.3480   19.8300 C   0  0  0  0  0  0  0  0  0  0  0  0
  -30.3800  -12.9680   18.7430 C   0  0  0  0  0  2  0  0  0  0  0  0
  -29.3340  -12.8980   17.5990 C   0  0  0  0  0  2  0  0  0  0  0  0
  -27.9240  -12.6280   18.1540 C   0  0  0  0  0  2  0  0  0  0  0  0
  -27.6230  -13.4980   19.3980 C   0  0  0  0  0  3  0  0  0  0  0  0
  -28.7800  -13.5010   20.4190 C   0  0  0  0  0  2  0  0  0  0  0  0
  -29.9710  -14.0350   19.7330 N   0  0  0  0  0  0  0  0  0  0  0  0
  -31.6900  -15.3680   19.3660 O   0  0  0  0  0  0  0  0  0  0  0  0
  -25.3380  -14.0600   20.3800 C   0  0  0  0  0  0  0  0  0  0  0  0
  -24.3010  -13.2850   20.8170 C   0  0  0  0  0  0  0  0  0  0  0  0
  -24.7400  -11.9310   20.6970 C   0  0  0  0  0  0  0  0  0  0  0  0
  -26.3400  -13.1800   20.0110 N   0  0  0  0  0  0  0  0  0  0  0  0
  -25.9980  -11.8910   20.2690 N   0  0  0  0  0  0  0  0  0  0  0  0
  -24.0110  -10.6730   20.9080 C   0  0  0  0  0  0  0  0  0  0  0  0
  -24.4690   -9.6950   21.8180 C   0  0  0  0  0  3  0  0  0  0  0  0
  -23.7370   -8.5050   22.0180 C   0  0  0  0  0  3  0  0  0  0  0  0
  -22.5330   -8.2820   21.3090 C   0  0  0  0  0  0  0  0  0  0  0  0
  -22.0930   -9.2490   20.3870 C   0  0  0  0  0  3  0  0  0  0  0  0
  -22.8260  -10.4310   20.1840 C   0  0  0  0  0  3  0  0  0  0  0  0
  -21.7700   -7.1450   21.4190 O   0  0  0  0  0  0  0  0  0  0  0  0
  -21.7040   -6.4340   22.5900 C   0  0  0  0  0  0  0  0  0  0  0  0
  -21.2790   -7.0270   23.7990 C   0  0  0  0  0  3  0  0  0  0  0  0
  -21.1590   -6.2430   24.9640 C   0  0  0  0  0  3  0  0  0  0  0  0
  -21.4530   -4.8680   24.9210 C   0  0  0  0  0  0  0  0  0  0  0  0
  -21.8710   -4.2740   23.7170 C   0  0  0  0  0  3  0  0  0  0  0  0
  -21.9920   -5.0550   22.5540 C   0  0  0  0  0  0  0  0  0  0  0  0
  -22.3750   -4.4730   21.3920 F   0  0  0  0  0  0  0  0  0  0  0  0
  -21.3310   -4.1130   26.0380 F   0  0  0  0  0  0  0  0  0  0  0  0
  -22.9410  -13.7720   21.2250 C   0  0  0  0  0  0  0  0  0  0  0  0
  -22.2890  -13.0700   22.1440 N   0  0  0  0  0  0  0  0  0  0  0  0
  -22.4700  -14.8100   20.7620 O   0  0  0  0  0  0  0  0  0  0  0  0
  -22.6850  -12.2300   22.5390 H   0  0  0  0  0  0  0  0  0  0  0  0
  -21.3800  -13.3770   22.4590 H   0  0  0  0  0  0  0  0  0  0  0  0
  -25.5040  -15.4350   20.2370 N   0  0  0  0  0  0  0  0  0  0  0  0
  -24.7560  -16.0880   20.4390 H   0  0  0  0  0  0  0  0  0  0  0  0
  -26.3100  -15.8770   19.8150 H   0  0  0  0  0  0  0  0  0  0  0  0
  -30.2010  -16.7640   22.0040 C   0  0  0  0  0  3  0  0  0  0  0  0
  -31.4310  -17.2410   22.1990 F   0  0  0  0  0  0  0  0  0  0  0  0
  -29.3330  -17.4200   22.7740 F   0  0  0  0  0  0  0  0  0  0  0  0
  2  6  1  0
  2  1  2  0
  3  4  2  0
  3  2  1  0
  4  5  1  0
  5 49  1  0
  5  1  1  0
  7  8  1  0
  7  6  2  0
  9 20  2  0
 10  8  1  0
 10 15  1  0
 11 19  1  0
 11 21  1  0
 12 18  1  0
 12 14  1  0
 13 19  1  0
 14 15  2  0
 14 13  1  0
 16 10  2  0
 17 16  1  0
 17 12  2  0
 18 11  1  0
 19  9  1  0
 21 23  2  0
 22 21  1  0
 24 22  1  0
 25 34  2  0
 25 30  1  0
 26 22  1  0
 26 30  1  0
 27 26  1  0
 28 29  1  0
 28 27  1  0
 29 25  1  0
 30 31  2  0
 31 32  1  0
 33 32  2  0
 34 33  1  0
 35  9  1  0
 35 40  1  0
 35 36  1  0
 36 39  1  1
 36 37  1  0
 38 36  1  0
 40 43  1  0
 41 45  1  0
 41 40  1  0
 42 41  2  0
 45 44  1  0
 47 45  1  0
 47 48  1  0
 47 46  1  0
 49 50  1  0
 49 86  1  0
 51 56  1  0
 52 53  1  0
 52 51  1  0
 54 53  1  0
 54 61  1  0
 54 55  1  0
 56 50  1  0
 56 55  1  0
 57 50  2  0
 58 59  2  0
 59 78  1  0
 60 59  1  0
 60 63  1  0
 61 62  1  0
 61 58  1  0
 62 60  2  0
 63 64  1  0
 64 65  2  0
 66 69  1  0
 66 65  1  0
 67 66  2  0
 68 67  1  0
 68 63  2  0
 69 70  1  0
 70 71  1  0
 71 72  2  0
 73 72  1  0
 73 77  1  0
 74 73  2  0
 75 70  2  0
 75 74  1  0
 76 75  1  0
 78 79  1  0
 79 82  1  0
 79 81  1  0
 80 78  2  0
 83 58  1  0
 83 84  1  0
 85 83  1  0
 86 87  1  0
 86 88  1  0
M  ISO  4   7 101   8 101  49 100  50 100
M  END
>  <TORSDO>  (50) 
F 20

>  <SCORE>  (50) 
-14.839

>  <name>  (50) 
49

>  <ligand_id>  (50) 
49

>  <original_smiles>  (50) 
[H]c1c([H])c([H])c2c(c1[H])C([H])([H])C([H])([H])C([H])([H])C2([H])N([H])C(=O)C1([H])N(C(=O)C([H])(N([H])C(=O)C([H])(N([H])C([H])([H])[H])C([H])([H])[H])C(C([H])([H])[H])(C([H])([H])[H])C([H])([H])[H])C([H])([H])c2c([H])c(OC([H])([H])C([H])([H])c3nnn(C([H])(C(=O)N4C([H])([H])C([H])([H])C([H])([H])C([H])(n5nc(-c6c([H])c([H])c(Oc7c([H])c([H])c(F)c([H])c7F)c([H])c6[H])c(C(=O)N([H])[H])c5N([H])[H])C4([H])[H])C([H])(F)F)c3[H])c([H])c([H])c2C1([H])[H]

>  <smiles>  (50) 
[H]c1c([H])c([H])c2c(c1[H])C([H])([H])C([H])([H])C([H])([H])C2([H])N([H])C(=O)C1([H])N(C(=O)C([H])(N([H])C(=O)C([H])(N([H])C([H])([H])[H])C([H])([H])[H])C(C([H])([H])[H])(C([H])([H])[H])C([H])([H])[H])C([H])([H])c2c([H])c(OC([H])([H])C([H])([H])c3nnn(C([H])(C(=O)N4C([H])([H])C([H])([H])C([H])([H])C([H])(n5nc(-c6c([H])c([H])c(Oc7c([H])c([H])c(F)c([H])c7F)c([H])c6[H])c(C(=O)N([H])[H])c5N([H])[H])C4([H])[H])C([H])(F)F)c3[H])c([H])c([H])c2C1([H])[H]

$$$$
50:0:0
     RDKit          3D

 92100  0  0  1  0  0  0  0  0999 V2000
  -28.9850  -24.1030   18.1250 C   0  0  0  0  0  3  0  0  0  0  0  0
  -28.7230  -23.5110   19.3250 C   0  0  0  0  0  0  0  0  0  0  0  0
  -29.3570  -21.9460   17.7980 C   0  0  0  0  0  3  0  0  0  0  0  0
  -29.6790  -20.8570   16.8060 C   0  0  0  0  0  1  0  0  0  0  0  0
  -29.0580  -22.0450   19.1450 N   0  0  0  0  0  0  0  0  0  0  0  0
  -29.3670  -23.1570   17.2560 N   0  0  0  0  0  0  0  0  0  0  0  0
  -29.6010  -23.3480   16.2880 H   0  0  0  0  0  0  0  0  0  0  0  0
  -28.1390  -24.5960   20.3860 C   0  0  0  0  0  2  0  0  0  0  0  0
  -28.2880  -26.1520   20.1560 O   0  0  0  0  0  0  0  0  0  0  0  0
  -24.6490  -31.8610   23.1970 C   0  0  0  0  0  0  0  0  0  0  0  0
  -27.2080  -27.1160   20.1660 C   0  0  0  0  0  0  0  0  0  0  0  0
  -23.4390  -30.4500   21.5800 C   0  0  0  0  0  3  0  0  0  0  0  0
  -24.8750  -28.8630   20.1540 C   0  0  0  0  0  0  0  0  0  0  0  0
  -25.9910  -30.7150   21.3890 C   0  0  0  0  0  2  0  0  0  0  0  0
  -26.0610  -29.3170   20.7440 C   0  0  0  0  0  0  0  0  0  0  0  0
  -27.2310  -28.4620   20.7250 C   0  0  0  0  0  3  0  0  0  0  0  0
  -25.9910  -26.7610   19.5510 C   0  0  0  0  0  3  0  0  0  0  0  0
  -24.8540  -27.6000   19.5400 C   0  0  0  0  0  3  0  0  0  0  0  0
  -23.6480  -29.7620   20.2060 C   0  0  0  0  0  2  0  0  0  0  0  0
  -24.7140  -31.0320   22.1090 N   0  0  0  0  0  0  0  0  0  0  0  0
  -23.5660  -32.1460   23.7330 O   0  0  0  0  0  0  0  0  0  0  0  0
  -22.7700  -29.4490   22.5550 C   0  0  0  0  0  0  0  0  0  0  0  0
  -21.4420  -29.2750   22.4430 N   0  0  0  0  0  0  0  0  0  0  0  0
  -23.4520  -28.8280   23.3760 O   0  0  0  0  0  0  0  0  0  0  0  0
  -20.9490  -29.8290   21.7570 H   0  0  0  0  0  0  0  0  0  0  0  0
  -18.0690  -28.0600   22.9740 C   0  0  0  0  0  0  0  0  0  0  0  0
  -20.6290  -28.3400   23.2250 C   0  0  0  0  0  3  0  0  0  0  0  0
  -20.7340  -26.9030   22.6620 C   0  0  0  0  0  2  0  0  0  0  0  0
  -19.6290  -26.5650   21.6560 C   0  0  0  0  0  2  0  0  0  0  0  0
  -18.2500  -26.7070   22.3070 C   0  0  0  0  0  2  0  0  0  0  0  0
  -19.1860  -28.8340   23.3900 C   0  0  0  0  0  0  0  0  0  0  0  0
  -18.9620  -30.0990   23.9730 C   0  0  0  0  0  3  0  0  0  0  0  0
  -17.6540  -30.5920   24.1450 C   0  0  0  0  0  3  0  0  0  0  0  0
  -16.5530  -29.8170   23.7450 C   0  0  0  0  0  3  0  0  0  0  0  0
  -16.7620  -28.5520   23.1660 C   0  0  0  0  0  3  0  0  0  0  0  0
  -25.9290  -32.5060   23.8100 C   0  0  0  0  0  3  0  0  0  0  0  0
  -26.4590  -31.7390   25.0850 C   0  0  1  0  0  0  0  0  0  0  0  0
  -25.3750  -31.5040   26.1650 C   0  0  0  0  0  1  0  0  0  0  0  0
  -27.0390  -30.3600   24.6950 C   0  0  0  0  0  1  0  0  0  0  0  0
  -27.6160  -32.5360   25.7340 C   0  0  0  0  0  1  0  0  0  0  0  0
  -25.6100  -33.9020   24.1490 N   0  0  0  0  0  0  0  0  0  0  0  0
  -25.9340  -34.9640   23.4000 C   0  0  0  0  0  0  0  0  0  0  0  0
  -26.5980  -34.8720   22.3640 O   0  0  0  0  0  0  0  0  0  0  0  0
  -25.0140  -34.0470   24.9510 H   0  0  0  0  0  0  0  0  0  0  0  0
  -24.1960  -36.7570   23.0790 C   0  0  0  0  0  1  0  0  0  0  0  0
  -25.4470  -36.3490   23.8740 C   0  0  0  0  0  3  0  0  0  0  0  0
  -27.5870  -37.2330   24.6890 C   0  0  0  0  0  1  0  0  0  0  0  0
  -26.4730  -37.4070   23.7620 N   0  0  0  0  0  0  0  0  0  0  0  0
  -26.0650  -38.3240   23.9240 H   0  0  0  0  0  0  0  0  0  0  0  0
  -29.1430  -20.6980   20.0990 C   0  0  0  0  0  2  0  0  0  0  0  0
  -30.9350  -19.0710   18.9720 C   0  0  0  0  0  1  0  0  0  0  0  0
  -28.3760  -18.5210   18.8340 C   0  0  0  0  0  1  0  0  0  0  0  0
  -29.5540  -19.0500   19.6860 C   0  0  2  0  0  0  0  0  0  0  0  0
  -29.7960  -17.7340   20.7460 C   0  0  0  0  0  2  0  0  0  0  0  0
  -30.4940  -15.0040   20.3700 C   0  0  0  0  0  0  0  0  0  0  0  0
  -30.4120  -12.6290   19.4480 C   0  0  0  0  0  2  0  0  0  0  0  0
  -29.4910  -12.5610   18.2070 C   0  0  0  0  0  2  0  0  0  0  0  0
  -28.0240  -12.3430   18.6300 C   0  0  0  0  0  2  0  0  0  0  0  0
  -27.5980  -13.2810   19.7900 C   0  0  0  0  0  3  0  0  0  0  0  0
  -28.6430  -13.3130   20.9210 C   0  0  0  0  0  2  0  0  0  0  0  0
  -29.9120  -13.7350   20.3110 N   0  0  0  0  0  0  0  0  0  0  0  0
  -31.7170  -15.0690   20.2040 O   0  0  0  0  0  0  0  0  0  0  0  0
  -29.6740  -16.1730   20.4050 N   0  0  0  0  0  0  0  0  0  0  0  0
  -28.7060  -15.8970   20.3470 H   0  0  0  0  0  0  0  0  0  0  0  0
  -25.2080  -13.8580   20.5060 C   0  0  0  0  0  0  0  0  0  0  0  0
  -24.1410  -13.0850   20.8670 C   0  0  0  0  0  0  0  0  0  0  0  0
  -24.6080  -11.7340   20.8540 C   0  0  0  0  0  0  0  0  0  0  0  0
  -26.2550  -12.9810   20.2830 N   0  0  0  0  0  0  0  0  0  0  0  0
  -25.9030  -11.6980   20.5600 N   0  0  0  0  0  0  0  0  0  0  0  0
  -23.8780  -10.4720   21.0470 C   0  0  0  0  0  0  0  0  0  0  0  0
  -24.3110   -9.5080   21.9830 C   0  0  0  0  0  3  0  0  0  0  0  0
  -23.5860   -8.3100   22.1640 C   0  0  0  0  0  3  0  0  0  0  0  0
  -22.4140   -8.0700   21.4070 C   0  0  0  0  0  0  0  0  0  0  0  0
  -22.0010   -9.0230   20.4610 C   0  0  0  0  0  3  0  0  0  0  0  0
  -22.7260  -10.2120   20.2780 C   0  0  0  0  0  3  0  0  0  0  0  0
  -21.6580   -6.9260   21.4980 O   0  0  0  0  0  0  0  0  0  0  0  0
  -21.6210   -6.1760   22.6460 C   0  0  0  0  0  0  0  0  0  0  0  0
  -21.2220   -6.7280   23.8830 C   0  0  0  0  0  3  0  0  0  0  0  0
  -21.1310   -5.9050   25.0240 C   0  0  0  0  0  3  0  0  0  0  0  0
  -21.4290   -4.5320   24.9280 C   0  0  0  0  0  0  0  0  0  0  0  0
  -21.8220   -3.9800   23.6960 C   0  0  0  0  0  3  0  0  0  0  0  0
  -21.9150   -4.8000   22.5570 C   0  0  0  0  0  0  0  0  0  0  0  0
  -22.2740   -4.2590   21.3680 F   0  0  0  0  0  0  0  0  0  0  0  0
  -21.3330   -3.7420   26.0210 F   0  0  0  0  0  0  0  0  0  0  0  0
  -22.7380  -13.5630   21.1070 C   0  0  0  0  0  0  0  0  0  0  0  0
  -21.9960  -12.8790   21.9700 N   0  0  0  0  0  0  0  0  0  0  0  0
  -22.3090  -14.5800   20.5630 O   0  0  0  0  0  0  0  0  0  0  0  0
  -22.3570  -12.0600   22.4380 H   0  0  0  0  0  0  0  0  0  0  0  0
  -21.0510  -13.1800   22.1690 H   0  0  0  0  0  0  0  0  0  0  0  0
  -25.3690  -15.2270   20.3170 N   0  0  0  0  0  0  0  0  0  0  0  0
  -24.5870  -15.8670   20.3890 H   0  0  0  0  0  0  0  0  0  0  0  0
  -26.2040  -15.6610   19.9430 H   0  0  0  0  0  0  0  0  0  0  0  0
  1  2  2  0
  2  8  1  0
  3  4  1  0
  3  5  1  0
  5  2  1  0
  5 50  1  0
  6  3  1  0
  6  1  1  0
  7  6  1  0
  9 11  1  0
  9  8  1  0
 10 21  2  0
 11 16  1  0
 12 20  1  0
 12 22  1  0
 13 19  1  0
 13 15  1  0
 14 20  1  0
 15 14  1  0
 16 15  2  0
 17 11  2  0
 18 17  1  0
 18 13  2  0
 19 12  1  0
 20 10  1  0
 22 24  2  0
 23 22  1  0
 25 23  1  0
 26 35  2  0
 26 31  1  0
 27 23  1  0
 27 31  1  0
 28 27  1  0
 29 30  1  0
 29 28  1  0
 30 26  1  0
 31 32  2  0
 32 33  1  0
 34 33  2  0
 35 34  1  0
 36 10  1  0
 36 41  1  0
 36 37  1  0
 37 40  1  1
 37 38  1  0
 39 37  1  0
 41 44  1  0
 42 46  1  0
 42 41  1  0
 43 42  2  0
 46 45  1  0
 48 46  1  0
 48 49  1  0
 48 47  1  0
 53 51  1  6
 52 53  1  0
 53 50  1  0
 53 54  1  0
 55 63  1  0
 56 61  1  0
 57 58  1  0
 57 56  1  0
 59 58  1  0
 59 68  1  0
 59 60  1  0
 61 55  1  0
 61 60  1  0
 62 55  2  0
 63 54  1  0
 64 63  1  0
 65 66  2  0
 66 85  1  0
 67 66  1  0
 67 70  1  0
 68 65  1  0
 68 69  1  0
 69 67  2  0
 70 71  1  0
 71 72  2  0
 73 76  1  0
 73 72  1  0
 74 73  2  0
 75 74  1  0
 75 70  2  0
 76 77  1  0
 77 78  1  0
 78 79  2  0
 80 79  1  0
 80 84  1  0
 81 80  2  0
 82 77  2  0
 82 81  1  0
 83 82  1  0
 85 86  1  0
 86 89  1  0
 86 88  1  0
 87 85  2  0
 90 91  1  0
 90 65  1  0
 92 90  1  0
M  ISO  4   8 101   9 101  55 100  63 100
M  END
>  <TORSDO>  (51) 
F 20

>  <SCORE>  (51) 
-15.017

>  <name>  (51) 
50

>  <ligand_id>  (51) 
50

>  <original_smiles>  (51) 
[H]c1c([H])c([H])c2c(c1[H])C([H])([H])C([H])([H])C([H])([H])C2([H])N([H])C(=O)C1([H])N(C(=O)C([H])(N([H])C(=O)C([H])(N([H])C([H])([H])[H])C([H])([H])[H])C(C([H])([H])[H])(C([H])([H])[H])C([H])([H])[H])C([H])([H])c2c([H])c(OC([H])([H])c3c([H])[n+]([H])c(C([H])([H])[H])n3C([H])([H])C(C([H])([H])[H])(C([H])([H])[H])C([H])([H])N([H])C(=O)N3C([H])([H])C([H])([H])C([H])([H])C([H])(n4nc(-c5c([H])c([H])c(Oc6c([H])c([H])c(F)c([H])c6F)c([H])c5[H])c(C(=O)N([H])[H])c4N([H])[H])C3([H])[H])c([H])c([H])c2C1([H])[H]

>  <smiles>  (51) 
[H]c1c([H])c([H])c2c(c1[H])C([H])([H])C([H])([H])C([H])([H])C2([H])N([H])C(=O)C1([H])N(C(=O)C([H])(N([H])C(=O)C([H])(N([H])C([H])([H])[H])C([H])([H])[H])C(C([H])([H])[H])(C([H])([H])[H])C([H])([H])[H])C([H])([H])c2c([H])c(OC([H])([H])c3c([H])[n+]([H])c(C([H])([H])[H])n3C([H])([H])C(C([H])([H])[H])(C([H])([H])[H])C([H])([H])N([H])C(=O)N3C([H])([H])C([H])([H])C([H])([H])C([H])(n4nc(-c5c([H])c([H])c(Oc6c([H])c([H])c(F)c([H])c6F)c([H])c5[H])c(C(=O)N([H])[H])c4N([H])[H])C3([H])[H])c([H])c([H])c2C1([H])[H]

$$$$
51:0:0
     RDKit          3D

 90 98  0  0  1  0  0  0  0  0999 V2000
  -28.5420  -20.7160   21.6660 C   0  0  0  0  0  3  0  0  0  0  0  0
  -29.2960  -19.8880   20.7880 C   0  0  0  0  0  0  0  0  0  0  0  0
  -30.0750  -21.8520   19.7680 C   0  0  0  0  0  0  0  0  0  0  0  0
  -29.3020  -22.6830   20.6390 C   0  0  0  0  0  0  0  0  0  0  0  0
  -31.0130  -22.4360   18.7310 C   0  0  0  0  0  1  0  0  0  0  0  0
  -28.5420  -22.0830   21.5960 N   0  0  0  0  0  0  0  0  0  0  0  0
  -30.0570  -20.4820   19.8280 N   0  0  0  0  0  0  0  0  0  0  0  0
  -29.0440  -18.3450   20.6950 C   0  0  0  0  0  3  0  0  0  0  0  0
  -30.2330  -17.2780   20.7390 C   0  0  0  0  0  3  0  0  0  0  0  0
  -30.6750  -14.7650   20.3630 C   0  0  0  0  0  0  0  0  0  0  0  0
  -30.4840  -12.4690   19.4300 C   0  0  0  0  0  2  0  0  0  0  0  0
  -29.5590  -12.4490   18.1920 C   0  0  0  0  0  2  0  0  0  0  0  0
  -28.0740  -12.3530   18.5990 C   0  0  0  0  0  2  0  0  0  0  0  0
  -27.6800  -13.2810   19.7810 C   0  0  0  0  0  3  0  0  0  0  0  0
  -28.7260  -13.2470   20.9160 C   0  0  0  0  0  2  0  0  0  0  0  0
  -30.0310  -13.5550   20.3200 N   0  0  0  0  0  0  0  0  0  0  0  0
  -31.8990  -14.8370   20.2330 O   0  0  0  0  0  0  0  0  0  0  0  0
  -29.4190  -16.1040   18.8120 C   0  0  0  0  0  1  0  0  0  0  0  0
  -29.8990  -15.9030   20.1930 N   0  0  0  0  0  0  0  0  0  0  0  0
  -25.2850  -13.9010   20.4660 C   0  0  0  0  0  0  0  0  0  0  0  0
  -24.2100  -13.1370   20.8240 C   0  0  0  0  0  0  0  0  0  0  0  0
  -24.6700  -11.7830   20.8240 C   0  0  0  0  0  0  0  0  0  0  0  0
  -26.3300  -13.0140   20.2620 N   0  0  0  0  0  0  0  0  0  0  0  0
  -25.9660  -11.7370   20.5420 N   0  0  0  0  0  0  0  0  0  0  0  0
  -23.9420  -10.5260   21.0150 C   0  0  0  0  0  0  0  0  0  0  0  0
  -24.3640   -9.5660   21.9610 C   0  0  0  0  0  3  0  0  0  0  0  0
  -23.6370   -8.3700   22.1400 C   0  0  0  0  0  3  0  0  0  0  0  0
  -22.4740   -8.1250   21.3710 C   0  0  0  0  0  0  0  0  0  0  0  0
  -22.0730   -9.0720   20.4120 C   0  0  0  0  0  3  0  0  0  0  0  0
  -22.8000  -10.2600   20.2320 C   0  0  0  0  0  3  0  0  0  0  0  0
  -21.7190   -6.9810   21.4580 O   0  0  0  0  0  0  0  0  0  0  0  0
  -21.6570   -6.2470   22.6150 C   0  0  0  0  0  0  0  0  0  0  0  0
  -21.2150   -6.8090   23.8320 C   0  0  0  0  0  3  0  0  0  0  0  0
  -21.1020   -6.0010   24.9810 C   0  0  0  0  0  3  0  0  0  0  0  0
  -21.4210   -4.6310   24.9130 C   0  0  0  0  0  0  0  0  0  0  0  0
  -21.8570   -4.0690   23.7010 C   0  0  0  0  0  3  0  0  0  0  0  0
  -21.9720   -4.8740   22.5550 C   0  0  0  0  0  0  0  0  0  0  0  0
  -22.3730   -4.3230   21.3840 F   0  0  0  0  0  0  0  0  0  0  0  0
  -21.3040   -3.8530   26.0140 F   0  0  0  0  0  0  0  0  0  0  0  0
  -22.8070  -13.6180   21.0590 C   0  0  0  0  0  0  0  0  0  0  0  0
  -22.0630  -12.9380   21.9220 N   0  0  0  0  0  0  0  0  0  0  0  0
  -22.3790  -14.6320   20.5100 O   0  0  0  0  0  0  0  0  0  0  0  0
  -22.4210  -12.1150   22.3860 H   0  0  0  0  0  0  0  0  0  0  0  0
  -21.1210  -13.2400   22.1200 H   0  0  0  0  0  0  0  0  0  0  0  0
  -25.4570  -15.2700   20.2730 N   0  0  0  0  0  0  0  0  0  0  0  0
  -24.6940  -15.9310   20.3660 H   0  0  0  0  0  0  0  0  0  0  0  0
  -26.3260  -15.7040   19.9870 H   0  0  0  0  0  0  0  0  0  0  0  0
  -29.4010  -24.2530   20.6680 C   0  0  0  0  0  3  0  0  0  0  0  0
  -28.2160  -25.1350   20.1080 C   0  0  0  0  0  3  0  0  0  0  0  0
  -28.3880  -26.5990   20.2060 O   0  0  0  0  0  0  0  0  0  0  0  0
  -24.6480  -31.9210   23.2620 C   0  0  0  0  0  0  0  0  0  0  0  0
  -27.2500  -27.4130   20.1570 C   0  0  0  0  0  0  0  0  0  0  0  0
  -23.4310  -30.5310   21.6210 C   0  0  0  0  0  3  0  0  0  0  0  0
  -24.8720  -28.9960   20.1710 C   0  0  0  0  0  0  0  0  0  0  0  0
  -25.9640  -30.8670   21.4120 C   0  0  0  0  0  2  0  0  0  0  0  0
  -26.0420  -29.4940   20.7580 C   0  0  0  0  0  0  0  0  0  0  0  0
  -27.2330  -28.7150   20.7400 C   0  0  0  0  0  3  0  0  0  0  0  0
  -26.0570  -26.9610   19.5460 C   0  0  0  0  0  3  0  0  0  0  0  0
  -24.8810  -27.7350   19.5560 C   0  0  0  0  0  3  0  0  0  0  0  0
  -23.6320  -29.8640   20.2340 C   0  0  0  0  0  2  0  0  0  0  0  0
  -24.7010  -31.1220   22.1560 N   0  0  0  0  0  0  0  0  0  0  0  0
  -23.5720  -32.1910   23.8110 O   0  0  0  0  0  0  0  0  0  0  0  0
  -22.7820  -29.5060   22.5810 C   0  0  0  0  0  0  0  0  0  0  0  0
  -21.4560  -29.3220   22.4610 N   0  0  0  0  0  0  0  0  0  0  0  0
  -23.4690  -28.8800   23.3930 O   0  0  0  0  0  0  0  0  0  0  0  0
  -20.9610  -29.8790   21.7780 H   0  0  0  0  0  0  0  0  0  0  0  0
  -18.0900  -28.1030   22.9640 C   0  0  0  0  0  0  0  0  0  0  0  0
  -20.6460  -28.3790   23.2320 C   0  0  0  0  0  3  0  0  0  0  0  0
  -20.7580  -26.9480   22.6540 C   0  0  0  0  0  2  0  0  0  0  0  0
  -19.6560  -26.6200   21.6410 C   0  0  0  0  0  2  0  0  0  0  0  0
  -18.2740  -26.7560   22.2860 C   0  0  0  0  0  2  0  0  0  0  0  0
  -19.2040  -28.8720   23.3940 C   0  0  0  0  0  0  0  0  0  0  0  0
  -18.9760  -30.1330   23.9870 C   0  0  0  0  0  3  0  0  0  0  0  0
  -17.6680  -30.6250   24.1560 C   0  0  0  0  0  3  0  0  0  0  0  0
  -16.5690  -29.8530   23.7430 C   0  0  0  0  0  3  0  0  0  0  0  0
  -16.7800  -28.5940   23.1510 C   0  0  0  0  0  3  0  0  0  0  0  0
  -25.9380  -32.5500   23.8760 C   0  0  0  0  0  3  0  0  0  0  0  0
  -26.4600  -31.7770   25.1490 C   0  0  1  0  0  0  0  0  0  0  0  0
  -25.3740  -31.5420   26.2260 C   0  0  0  0  0  1  0  0  0  0  0  0
  -27.0350  -30.3980   24.7530 C   0  0  0  0  0  1  0  0  0  0  0  0
  -27.6190  -32.5670   25.8030 C   0  0  0  0  0  1  0  0  0  0  0  0
  -25.6340  -33.9490   24.2090 N   0  0  0  0  0  0  0  0  0  0  0  0
  -25.9560  -35.0000   23.4450 C   0  0  0  0  0  0  0  0  0  0  0  0
  -26.6110  -34.8950   22.4050 O   0  0  0  0  0  0  0  0  0  0  0  0
  -25.0490  -34.1030   25.0180 H   0  0  0  0  0  0  0  0  0  0  0  0
  -24.2200  -36.7910   23.1200 C   0  0  0  0  0  1  0  0  0  0  0  0
  -25.4760  -36.3890   23.9080 C   0  0  0  0  0  3  0  0  0  0  0  0
  -27.6260  -37.2780   24.6960 C   0  0  0  0  0  1  0  0  0  0  0  0
  -26.5060  -37.4430   23.7730 N   0  0  0  0  0  0  0  0  0  0  0  0
  -26.1030  -38.3630   23.9270 H   0  0  0  0  0  0  0  0  0  0  0  0
  2  1  2  0
  3  7  2  0
  3  4  1  0
  4 48  1  0
  4  6  2  0
  5  3  1  0
  6  1  1  0
  7  2  1  0
  8  9  2  0
  8  2  1  0
 11 16  1  0
 12 13  1  0
 12 11  1  0
 14 13  1  0
 14 23  1  0
 14 15  1  0
 16 10  1  0
 16 15  1  0
 17 10  2  0
 18 19  1  0
 19 10  1  0
 19  9  1  0
 20 21  2  0
 21 22  1  0
 21 40  1  0
 22 25  1  0
 23 20  1  0
 23 24  1  0
 24 22  2  0
 25 26  1  0
 26 27  2  0
 28 31  1  0
 28 27  1  0
 29 28  2  0
 30 29  1  0
 30 25  2  0
 31 32  1  0
 32 33  1  0
 33 34  2  0
 35 34  1  0
 35 39  1  0
 36 35  2  0
 37 32  2  0
 37 36  1  0
 38 37  1  0
 40 41  1  0
 41 44  1  0
 41 43  1  0
 42 40  2  0
 45 46  1  0
 45 20  1  0
 47 45  1  0
 49 50  1  0
 49 48  2  0
 51 62  2  0
 52 50  1  0
 52 57  1  0
 53 61  1  0
 53 63  1  0
 54 60  1  0
 54 56  1  0
 55 61  1  0
 56 55  1  0
 57 56  2  0
 58 59  1  0
 58 52  2  0
 59 54  2  0
 60 53  1  0
 61 51  1  0
 63 65  2  0
 64 63  1  0
 66 64  1  0
 67 76  2  0
 67 72  1  0
 68 64  1  0
 68 72  1  0
 69 68  1  0
 70 71  1  0
 70 69  1  0
 71 67  1  0
 72 73  2  0
 73 74  1  0
 75 74  2  0
 76 75  1  0
 77 51  1  0
 77 82  1  0
 77 78  1  0
 78 81  1  1
 78 79  1  0
 80 78  1  0
 82 85  1  0
 83 87  1  0
 83 82  1  0
 84 83  2  0
 87 86  1  0
 89 87  1  0
 89 90  1  0
 89 88  1  0
M  ISO  4  10 100  19 100  49 101  50 101
M  END
>  <TORSDO>  (52) 
F 20

>  <SCORE>  (52) 
-13.096

>  <name>  (52) 
51

>  <ligand_id>  (52) 
51

>  <original_smiles>  (52) 
[H]c1nc(C([H])([H])C([H])([H])Oc2c([H])c([H])c3c(c2[H])C([H])([H])N(C(=O)C([H])(N([H])C(=O)C([H])(N([H])C([H])([H])[H])C([H])([H])[H])C(C([H])([H])[H])(C([H])([H])[H])C([H])([H])[H])C([H])(C(=O)N([H])C2([H])c4c([H])c([H])c([H])c([H])c4C([H])([H])C([H])([H])C2([H])[H])C3([H])[H])c(C([H])([H])[H])nc1C([H])([H])C([H])([H])N(C(=O)N1C([H])([H])C([H])([H])C([H])([H])C([H])(n2nc(-c3c([H])c([H])c(Oc4c([H])c([H])c(F)c([H])c4F)c([H])c3[H])c(C(=O)N([H])[H])c2N([H])[H])C1([H])[H])C([H])([H])[H]

>  <smiles>  (52) 
[H]c1nc(C([H])([H])C([H])([H])Oc2c([H])c([H])c3c(c2[H])C([H])([H])N(C(=O)C([H])(N([H])C(=O)C([H])(N([H])C([H])([H])[H])C([H])([H])[H])C(C([H])([H])[H])(C([H])([H])[H])C([H])([H])[H])C([H])(C(=O)N([H])C2([H])c4c([H])c([H])c([H])c([H])c4C([H])([H])C([H])([H])C2([H])[H])C3([H])[H])c(C([H])([H])[H])nc1C([H])([H])C([H])([H])N(C(=O)N1C([H])([H])C([H])([H])C([H])([H])C([H])(n2nc(-c3c([H])c([H])c(Oc4c([H])c([H])c(F)c([H])c4F)c([H])c3[H])c(C(=O)N([H])[H])c2N([H])[H])C1([H])[H])C([H])([H])[H]

$$$$
52:0:0
     RDKit          3D

 92100  0  0  1  0  0  0  0  0999 V2000
  -30.1820  -21.7700   21.3310 C   0  0  0  0  0  3  0  0  0  0  0  0
  -29.6430  -22.6440   20.3390 C   0  0  0  0  0  0  0  0  0  0  0  0
  -29.8670  -20.8540   18.8280 C   0  0  0  0  0  0  0  0  0  0  0  0
  -30.4550  -19.9890   19.8150 C   0  0  0  0  0  0  0  0  0  0  0  0
  -29.7400  -20.4360   17.3750 C   0  0  0  0  0  1  0  0  0  0  0  0
  -30.5960  -20.4830   21.0770 N   0  0  0  0  0  0  0  0  0  0  0  0
  -29.4780  -22.1470   19.0840 N   0  0  0  0  0  0  0  0  0  0  0  0
  -29.5230  -24.2020   20.5830 C   0  0  0  0  0  3  0  0  0  0  0  0
  -28.2500  -25.0550   20.1600 C   0  0  0  0  0  3  0  0  0  0  0  0
  -28.3600  -26.5220   20.3550 O   0  0  0  0  0  0  0  0  0  0  0  0
  -24.5210  -31.9150   23.2220 C   0  0  0  0  0  0  0  0  0  0  0  0
  -27.2150  -27.3310   20.2780 C   0  0  0  0  0  0  0  0  0  0  0  0
  -23.3550  -30.4940   21.5730 C   0  0  0  0  0  3  0  0  0  0  0  0
  -24.8370  -28.9230   20.2010 C   0  0  0  0  0  0  0  0  0  0  0  0
  -25.8950  -30.8140   21.4410 C   0  0  0  0  0  2  0  0  0  0  0  0
  -25.9900  -29.4290   20.8130 C   0  0  0  0  0  0  0  0  0  0  0  0
  -27.1800  -28.6440   20.8400 C   0  0  0  0  0  3  0  0  0  0  0  0
  -26.0350  -26.8680   19.6530 C   0  0  0  0  0  3  0  0  0  0  0  0
  -24.8620  -27.6480   19.6120 C   0  0  0  0  0  3  0  0  0  0  0  0
  -23.5970  -29.7950   20.2090 C   0  0  0  0  0  2  0  0  0  0  0  0
  -24.6080  -31.0930   22.1360 N   0  0  0  0  0  0  0  0  0  0  0  0
  -23.4270  -32.1970   23.7300 O   0  0  0  0  0  0  0  0  0  0  0  0
  -22.6710  -29.4900   22.5320 C   0  0  0  0  0  0  0  0  0  0  0  0
  -21.3500  -29.3040   22.3690 N   0  0  0  0  0  0  0  0  0  0  0  0
  -23.3300  -28.8810   23.3790 O   0  0  0  0  0  0  0  0  0  0  0  0
  -20.8820  -29.8460   21.6560 H   0  0  0  0  0  0  0  0  0  0  0  0
  -17.9630  -28.1110   22.7940 C   0  0  0  0  0  0  0  0  0  0  0  0
  -20.5130  -28.3750   23.1280 C   0  0  0  0  0  3  0  0  0  0  0  0
  -20.6330  -26.9370   22.5740 C   0  0  0  0  0  2  0  0  0  0  0  0
  -19.5580  -26.6000   21.5350 C   0  0  0  0  0  2  0  0  0  0  0  0
  -18.1600  -26.7530   22.1410 C   0  0  0  0  0  2  0  0  0  0  0  0
  -19.0700  -28.8790   23.2430 C   0  0  0  0  0  0  0  0  0  0  0  0
  -18.8360  -30.1490   23.8130 C   0  0  0  0  0  3  0  0  0  0  0  0
  -17.5270  -30.6520   23.9400 C   0  0  0  0  0  3  0  0  0  0  0  0
  -16.4340  -29.8800   23.5100 C   0  0  0  0  0  3  0  0  0  0  0  0
  -16.6520  -28.6120   22.9430 C   0  0  0  0  0  3  0  0  0  0  0  0
  -25.7900  -32.5550   23.8650 C   0  0  0  0  0  3  0  0  0  0  0  0
  -25.4680  -33.9530   24.1860 N   0  0  0  0  0  0  0  0  0  0  0  0
  -25.8240  -35.0080   23.4400 C   0  0  0  0  0  0  0  0  0  0  0  0
  -26.5260  -34.9050   22.4300 O   0  0  0  0  0  0  0  0  0  0  0  0
  -24.8450  -34.1050   24.9650 H   0  0  0  0  0  0  0  0  0  0  0  0
  -24.1150  -36.8040   23.0280 C   0  0  0  0  0  1  0  0  0  0  0  0
  -25.3230  -36.3950   23.8840 C   0  0  0  0  0  3  0  0  0  0  0  0
  -27.4240  -37.2720   24.8040 C   0  0  0  0  0  1  0  0  0  0  0  0
  -26.3620  -37.4460   23.8160 N   0  0  0  0  0  0  0  0  0  0  0  0
  -25.9530  -38.3670   23.9520 H   0  0  0  0  0  0  0  0  0  0  0  0
  -26.2860  -31.7900   25.1520 C   0  0  1  0  0  0  0  0  0  0  0  0
  -25.1700  -31.5380   26.1940 C   0  0  0  0  0  1  0  0  0  0  0  0
  -26.8940  -30.4210   24.7750 C   0  0  0  0  0  1  0  0  0  0  0  0
  -27.4110  -32.5970   25.8410 C   0  0  0  0  0  1  0  0  0  0  0  0
  -31.2110  -18.6480   19.4220 C   0  0  0  0  0  2  0  0  0  0  0  0
  -31.4380  -17.4130   20.4220 C   0  0  0  0  0  2  0  0  0  0  0  0
  -31.0900  -14.8940   19.9380 C   0  0  0  0  0  0  0  0  0  0  0  0
  -30.7450  -12.6260   18.9230 C   0  0  0  0  0  2  0  0  0  0  0  0
  -29.7400  -12.6470   17.7530 C   0  0  0  0  0  2  0  0  0  0  0  0
  -28.2960  -12.4830   18.2630 C   0  0  0  0  0  2  0  0  0  0  0  0
  -27.9910  -13.3760   19.4940 C   0  0  0  0  0  3  0  0  0  0  0  0
  -29.1290  -13.2880   20.5450 C   0  0  0  0  0  2  0  0  0  0  0  0
  -30.3640  -13.7090   19.8690 N   0  0  0  0  0  0  0  0  0  0  0  0
  -32.2630  -14.8460   19.5510 O   0  0  0  0  0  0  0  0  0  0  0  0
  -30.5660  -16.1680   20.2750 N   0  0  0  0  0  0  0  0  0  0  0  0
  -25.6250  -14.0280   20.2620 C   0  0  0  0  0  0  0  0  0  0  0  0
  -24.5680  -13.2840   20.7000 C   0  0  0  0  0  0  0  0  0  0  0  0
  -25.0030  -11.9260   20.6550 C   0  0  0  0  0  0  0  0  0  0  0  0
  -26.6600  -13.1290   20.0320 N   0  0  0  0  0  0  0  0  0  0  0  0
  -26.2830  -11.8560   20.3100 N   0  0  0  0  0  0  0  0  0  0  0  0
  -24.2520  -10.6850   20.8610 C   0  0  0  0  0  0  0  0  0  0  0  0
  -24.6640   -9.7230   21.8080 C   0  0  0  0  0  3  0  0  0  0  0  0
  -23.9090   -8.5460   22.0020 C   0  0  0  0  0  3  0  0  0  0  0  0
  -22.7330   -8.3250   21.2490 C   0  0  0  0  0  0  0  0  0  0  0  0
  -22.3420   -9.2750   20.2900 C   0  0  0  0  0  3  0  0  0  0  0  0
  -23.0950  -10.4430   20.0940 C   0  0  0  0  0  3  0  0  0  0  0  0
  -21.9510   -7.2000   21.3560 O   0  0  0  0  0  0  0  0  0  0  0  0
  -21.8380   -6.5150   22.5400 C   0  0  0  0  0  0  0  0  0  0  0  0
  -21.3610   -7.1340   23.7160 C   0  0  0  0  0  3  0  0  0  0  0  0
  -21.2030   -6.3780   24.8940 C   0  0  0  0  0  3  0  0  0  0  0  0
  -21.5060   -5.0030   24.8950 C   0  0  0  0  0  0  0  0  0  0  0  0
  -21.9750   -4.3840   23.7230 C   0  0  0  0  0  3  0  0  0  0  0  0
  -22.1390   -5.1390   22.5480 C   0  0  0  0  0  0  0  0  0  0  0  0
  -22.5750   -4.5360   21.4150 F   0  0  0  0  0  0  0  0  0  0  0  0
  -21.3410   -4.2730   26.0220 F   0  0  0  0  0  0  0  0  0  0  0  0
  -23.1980  -13.8030   21.0300 C   0  0  0  0  0  0  0  0  0  0  0  0
  -22.5000  -13.1550   21.9570 N   0  0  0  0  0  0  0  0  0  0  0  0
  -22.7590  -14.8240   20.5030 O   0  0  0  0  0  0  0  0  0  0  0  0
  -22.8650  -12.3320   22.4110 H   0  0  0  0  0  0  0  0  0  0  0  0
  -21.5850  -13.4930   22.2170 H   0  0  0  0  0  0  0  0  0  0  0  0
  -25.7540  -15.3850   20.0160 N   0  0  0  0  0  0  0  0  0  0  0  0
  -24.9660  -16.0200   20.0760 H   0  0  0  0  0  0  0  0  0  0  0  0
  -26.5910  -15.8220   19.6500 H   0  0  0  0  0  0  0  0  0  0  0  0
  -28.5780  -17.0310   18.9980 C   0  0  0  0  0  1  0  0  0  0  0  0
  -28.2750  -16.1620   21.5070 C   0  0  0  0  0  1  0  0  0  0  0  0
  -29.1760  -16.6950   20.3740 C   0  0  0  0  0  3  0  0  0  0  0  0
  2  8  1  0
  2  1  2  0
  3  7  2  0
  3  4  1  0
  4  6  2  0
  5  3  1  0
  6  1  1  0
  7  2  1  0
  9 10  1  0
  9  8  2  0
 11 22  2  0
 12 10  1  0
 12 17  1  0
 13 21  1  0
 13 23  1  0
 14 20  1  0
 14 16  1  0
 15 21  1  0
 16 17  2  0
 16 15  1  0
 18 12  2  0
 19 18  1  0
 19 14  2  0
 20 13  1  0
 21 11  1  0
 23 25  2  0
 24 23  1  0
 26 24  1  0
 27 36  2  0
 27 32  1  0
 28 24  1  0
 28 32  1  0
 29 28  1  0
 30 31  1  0
 30 29  1  0
 31 27  1  0
 32 33  2  0
 33 34  1  0
 35 34  2  0
 36 35  1  0
 37 11  1  0
 37 38  1  0
 37 47  1  0
 38 41  1  0
 39 43  1  0
 39 38  1  0
 40 39  2  0
 43 42  1  0
 45 43  1  0
 45 46  1  0
 45 44  1  0
 47 50  1  1
 47 48  1  0
 49 47  1  0
 51  4  1  0
 51 52  1  0
 53 61  1  0
 54 59  1  0
 55 56  1  0
 55 54  1  0
 57 56  1  0
 57 65  1  0
 57 58  1  0
 59 53  1  0
 59 58  1  0
 60 53  2  0
 61 92  1  0
 61 52  1  0
 62 63  2  0
 63 82  1  0
 64 63  1  0
 64 67  1  0
 65 62  1  0
 65 66  1  0
 66 64  2  0
 67 68  1  0
 68 69  2  0
 70 73  1  0
 70 69  1  0
 71 70  2  0
 72 71  1  0
 72 67  2  0
 73 74  1  0
 74 79  2  0
 74 75  1  0
 75 76  2  0
 76 77  1  0
 77 81  1  0
 78 77  2  0
 79 78  1  0
 80 79  1  0
 82 83  1  0
 83 86  1  0
 83 85  1  0
 84 82  2  0
 87 88  1  0
 87 62  1  0
 89 87  1  0
 90 92  1  0
 92 91  1  0
M  ISO  4   9 101  10 101  53 100  61 100
M  END
>  <TORSDO>  (53) 
F 21

>  <SCORE>  (53) 
-12.427

>  <name>  (53) 
52

>  <ligand_id>  (53) 
52

>  <original_smiles>  (53) 
[H]c1nc(C([H])([H])C([H])([H])N(C(=O)N2C([H])([H])C([H])([H])C([H])([H])C([H])(n3nc(-c4c([H])c([H])c(Oc5c([H])c([H])c(F)c([H])c5F)c([H])c4[H])c(C(=O)N([H])[H])c3N([H])[H])C2([H])[H])C([H])(C([H])([H])[H])C([H])([H])[H])c(C([H])([H])[H])nc1C([H])([H])C([H])([H])Oc1c([H])c([H])c2c(c1[H])C([H])([H])N(C(=O)C([H])(N([H])C(=O)C([H])(N([H])C([H])([H])[H])C([H])([H])[H])C(C([H])([H])[H])(C([H])([H])[H])C([H])([H])[H])C([H])(C(=O)N([H])C1([H])c3c([H])c([H])c([H])c([H])c3C([H])([H])C([H])([H])C1([H])[H])C2([H])[H]

>  <smiles>  (53) 
[H]c1nc(C([H])([H])C([H])([H])N(C(=O)N2C([H])([H])C([H])([H])C([H])([H])C([H])(n3nc(-c4c([H])c([H])c(Oc5c([H])c([H])c(F)c([H])c5F)c([H])c4[H])c(C(=O)N([H])[H])c3N([H])[H])C2([H])[H])C([H])(C([H])([H])[H])C([H])([H])[H])c(C([H])([H])[H])nc1C([H])([H])C([H])([H])Oc1c([H])c([H])c2c(c1[H])C([H])([H])N(C(=O)C([H])(N([H])C(=O)C([H])(N([H])C([H])([H])[H])C([H])([H])[H])C(C([H])([H])[H])(C([H])([H])[H])C([H])([H])[H])C([H])(C(=O)N([H])C1([H])c3c([H])c([H])c([H])c([H])c3C([H])([H])C([H])([H])C1([H])[H])C2([H])[H]

$$$$
53:0:0
     RDKit          3D

 93101  0  0  1  0  0  0  0  0999 V2000
  -28.4770  -23.4880   19.9600 C   0  0  0  0  0  3  0  0  0  0  0  0
  -30.2340  -24.0260   21.1050 C   0  0  0  0  0  3  0  0  0  0  0  0
  -29.4000  -22.4600   19.8770 C   0  0  0  0  0  0  0  0  0  0  0  0
  -30.5310  -22.8220   20.6100 N   0  0  0  0  0  0  0  0  0  0  0  0
  -29.0220  -24.4910   20.7620 N   0  0  0  0  0  0  0  0  0  0  0  0
  -29.3170  -21.1870   19.0470 C   0  0  0  0  0  2  0  0  0  0  0  0
  -29.4680  -19.8030   19.7700 C   0  0  0  0  0  2  0  0  0  0  0  0
  -31.9400  -19.8910   19.1820 C   0  0  0  0  0  1  0  0  0  0  0  0
  -30.8390  -19.1850   19.8910 N   0  0  2  0  0  4  0  0  0  0  0  0
  -31.0750  -19.3310   20.8630 H   0  0  0  0  0  0  0  0  0  0  0  0
  -30.8250  -17.3250   18.1850 C   0  0  0  0  0  1  0  0  0  0  0  0
  -30.9260  -17.6860   19.6910 C   0  0  0  0  0  3  0  0  0  0  0  0
  -29.9200  -16.8670   20.5690 C   0  0  0  0  0  2  0  0  0  0  0  0
  -30.8310  -14.5090   20.1560 C   0  0  0  0  0  0  0  0  0  0  0  0
  -30.4360  -12.3920   18.9340 C   0  0  0  0  0  2  0  0  0  0  0  0
  -29.4440  -12.6200   17.7750 C   0  0  0  0  0  2  0  0  0  0  0  0
  -27.9920  -12.4700   18.2650 C   0  0  0  0  0  2  0  0  0  0  0  0
  -27.7130  -13.2950   19.5500 C   0  0  0  0  0  3  0  0  0  0  0  0
  -28.8090  -13.0520   20.6110 C   0  0  0  0  0  2  0  0  0  0  0  0
  -30.1160  -13.3550   20.0000 N   0  0  0  0  0  0  0  0  0  0  0  0
  -31.8750  -14.7270   19.5370 O   0  0  0  0  0  0  0  0  0  0  0  0
  -30.4990  -15.3190   22.3930 C   0  0  0  0  0  1  0  0  0  0  0  0
  -30.2750  -15.4630   20.9490 N   0  0  0  0  0  0  0  0  0  0  0  0
  -25.3520  -13.9140   20.3680 C   0  0  0  0  0  0  0  0  0  0  0  0
  -24.2940  -13.1470   20.7750 C   0  0  0  0  0  0  0  0  0  0  0  0
  -24.7420  -11.7920   20.7120 C   0  0  0  0  0  0  0  0  0  0  0  0
  -26.3790  -13.0260   20.0830 N   0  0  0  0  0  0  0  0  0  0  0  0
  -26.0170  -11.7450   20.3470 N   0  0  0  0  0  0  0  0  0  0  0  0
  -24.0140  -10.5350   20.9230 C   0  0  0  0  0  0  0  0  0  0  0  0
  -24.4610   -9.5680   21.8500 C   0  0  0  0  0  3  0  0  0  0  0  0
  -23.7330   -8.3740   22.0470 C   0  0  0  0  0  3  0  0  0  0  0  0
  -22.5450   -8.1390   21.3160 C   0  0  0  0  0  0  0  0  0  0  0  0
  -22.1150   -9.0950   20.3780 C   0  0  0  0  0  3  0  0  0  0  0  0
  -22.8430  -10.2800   20.1800 C   0  0  0  0  0  3  0  0  0  0  0  0
  -21.7880   -6.9950   21.4220 O   0  0  0  0  0  0  0  0  0  0  0  0
  -21.7340   -6.2740   22.5860 C   0  0  0  0  0  0  0  0  0  0  0  0
  -21.3230   -6.8570   23.8050 C   0  0  0  0  0  3  0  0  0  0  0  0
  -21.2130   -6.0620   24.9640 C   0  0  0  0  0  3  0  0  0  0  0  0
  -21.5050   -4.6860   24.9050 C   0  0  0  0  0  0  0  0  0  0  0  0
  -21.9110   -4.1030   23.6910 C   0  0  0  0  0  3  0  0  0  0  0  0
  -22.0230   -4.8940   22.5350 C   0  0  0  0  0  0  0  0  0  0  0  0
  -22.3920   -4.3240   21.3630 F   0  0  0  0  0  0  0  0  0  0  0  0
  -21.3920   -3.9210   26.0160 F   0  0  0  0  0  0  0  0  0  0  0  0
  -22.9150  -13.6340   21.1120 C   0  0  0  0  0  0  0  0  0  0  0  0
  -22.2250  -12.9460   22.0150 N   0  0  0  0  0  0  0  0  0  0  0  0
  -22.4590  -14.6630   20.6160 O   0  0  0  0  0  0  0  0  0  0  0  0
  -22.6070  -12.1160   22.4430 H   0  0  0  0  0  0  0  0  0  0  0  0
  -21.3050  -13.2580   22.2890 H   0  0  0  0  0  0  0  0  0  0  0  0
  -25.5240  -15.2850   20.2010 N   0  0  0  0  0  0  0  0  0  0  0  0
  -24.7700  -15.9450   20.3510 H   0  0  0  0  0  0  0  0  0  0  0  0
  -26.3690  -15.7220   19.8580 H   0  0  0  0  0  0  0  0  0  0  0  0
  -28.3920  -25.7380   21.2020 C   0  0  0  0  0  2  0  0  0  0  0  0
  -28.3850  -26.7000   20.1740 O   0  0  0  0  0  0  0  0  0  0  0  0
  -24.5620  -31.9070   23.2100 C   0  0  0  0  0  0  0  0  0  0  0  0
  -27.2470  -27.4730   20.1550 C   0  0  0  0  0  0  0  0  0  0  0  0
  -23.3710  -30.4900   21.5680 C   0  0  0  0  0  3  0  0  0  0  0  0
  -24.8420  -28.9570   20.1520 C   0  0  0  0  0  0  0  0  0  0  0  0
  -25.8940  -30.8680   21.3750 C   0  0  0  0  0  2  0  0  0  0  0  0
  -25.9940  -29.4920   20.7440 C   0  0  0  0  0  0  0  0  0  0  0  0
  -27.2020  -28.7570   20.7480 C   0  0  0  0  0  3  0  0  0  0  0  0
  -26.0840  -26.9520   19.5540 C   0  0  0  0  0  3  0  0  0  0  0  0
  -24.8820  -27.6860   19.5550 C   0  0  0  0  0  3  0  0  0  0  0  0
  -23.5900  -29.8060   20.1920 C   0  0  0  0  0  2  0  0  0  0  0  0
  -24.6260  -31.1020   22.1100 N   0  0  0  0  0  0  0  0  0  0  0  0
  -23.4770  -32.1730   23.7450 O   0  0  0  0  0  0  0  0  0  0  0  0
  -22.7230  -29.4680   22.5310 C   0  0  0  0  0  0  0  0  0  0  0  0
  -21.4000  -29.2760   22.3980 N   0  0  0  0  0  0  0  0  0  0  0  0
  -23.4090  -28.8520   23.3510 O   0  0  0  0  0  0  0  0  0  0  0  0
  -20.9090  -29.8280   21.7080 H   0  0  0  0  0  0  0  0  0  0  0  0
  -18.0360  -28.0450   22.8670 C   0  0  0  0  0  0  0  0  0  0  0  0
  -20.5870  -28.3360   23.1690 C   0  0  0  0  0  3  0  0  0  0  0  0
  -20.7130  -26.9010   22.6070 C   0  0  0  0  0  2  0  0  0  0  0  0
  -19.6260  -26.5560   21.5830 C   0  0  0  0  0  2  0  0  0  0  0  0
  -18.2350  -26.6920   22.2080 C   0  0  0  0  0  2  0  0  0  0  0  0
  -19.1400  -28.8240   23.3030 C   0  0  0  0  0  0  0  0  0  0  0  0
  -18.8990  -30.0920   23.8790 C   0  0  0  0  0  3  0  0  0  0  0  0
  -17.5870  -30.5790   24.0230 C   0  0  0  0  0  3  0  0  0  0  0  0
  -16.4980  -29.7970   23.6030 C   0  0  0  0  0  3  0  0  0  0  0  0
  -16.7230  -28.5330   23.0310 C   0  0  0  0  0  3  0  0  0  0  0  0
  -25.8420  -32.5470   23.8320 C   0  0  0  0  0  3  0  0  0  0  0  0
  -25.5260  -33.9460   24.1500 N   0  0  0  0  0  0  0  0  0  0  0  0
  -25.8550  -34.9930   23.3830 C   0  0  0  0  0  0  0  0  0  0  0  0
  -26.5280  -34.8850   22.3550 O   0  0  0  0  0  0  0  0  0  0  0  0
  -24.9310  -34.1050   24.9510 H   0  0  0  0  0  0  0  0  0  0  0  0
  -24.1160  -36.7700   23.0100 C   0  0  0  0  0  1  0  0  0  0  0  0
  -25.3580  -36.3820   23.8280 C   0  0  0  0  0  3  0  0  0  0  0  0
  -27.4880  -37.2820   24.6510 C   0  0  0  0  0  1  0  0  0  0  0  0
  -26.3840  -37.4400   23.7080 N   0  0  0  0  0  0  0  0  0  0  0  0
  -25.9720  -38.3580   23.8520 H   0  0  0  0  0  0  0  0  0  0  0  0
  -26.3590  -31.7860   25.1130 C   0  0  1  0  0  0  0  0  0  0  0  0
  -25.2660  -31.5510   26.1800 C   0  0  0  0  0  1  0  0  0  0  0  0
  -26.9470  -30.4080   24.7270 C   0  0  0  0  0  1  0  0  0  0  0  0
  -27.5060  -32.5880   25.7720 C   0  0  0  0  0  1  0  0  0  0  0  0
  1  5  1  0
  3  1  2  0
  3  4  1  0
  4  2  2  0
  5  2  1  0
  5 52  1  0
  6  7  1  0
  6  3  1  0
  7  9  1  0
  8  9  1  0
  9 10  1  1
 12 11  1  0
 12  9  1  0
 12 13  1  0
 13 23  1  0
 14 23  1  0
 15 20  1  0
 16 17  1  0
 16 15  1  0
 18 17  1  0
 18 27  1  0
 18 19  1  0
 20 14  1  0
 20 19  1  0
 21 14  2  0
 23 22  1  0
 24 25  2  0
 25 44  1  0
 26 25  1  0
 26 29  1  0
 27 28  1  0
 27 24  1  0
 28 26  2  0
 29 30  1  0
 30 31  2  0
 32 35  1  0
 32 31  1  0
 33 32  2  0
 34 33  1  0
 34 29  2  0
 35 36  1  0
 36 37  1  0
 37 38  2  0
 39 38  1  0
 39 43  1  0
 40 39  2  0
 41 36  2  0
 41 40  1  0
 42 41  1  0
 44 45  1  0
 45 48  1  0
 45 47  1  0
 46 44  2  0
 49 50  1  0
 49 24  1  0
 51 49  1  0
 53 52  1  0
 54 65  2  0
 55 53  1  0
 55 60  1  0
 56 64  1  0
 56 66  1  0
 57 63  1  0
 57 59  1  0
 58 64  1  0
 59 60  2  0
 59 58  1  0
 61 62  1  0
 61 55  2  0
 62 57  2  0
 63 56  1  0
 64 54  1  0
 66 68  2  0
 67 66  1  0
 69 67  1  0
 70 79  2  0
 70 75  1  0
 71 67  1  0
 71 75  1  0
 72 71  1  0
 73 74  1  0
 73 72  1  0
 74 70  1  0
 75 76  2  0
 76 77  1  0
 78 77  2  0
 79 78  1  0
 80 54  1  0
 80 81  1  0
 80 90  1  0
 81 84  1  0
 82 86  1  0
 82 81  1  0
 83 82  2  0
 86 85  1  0
 88 86  1  0
 88 89  1  0
 88 87  1  0
 90 93  1  1
 90 91  1  0
 92 90  1  0
M  ISO  4  14 100  23 100  52 101  53 101
M  END
>  <TORSDO>  (54) 
F 22

>  <SCORE>  (54) 
-12.353

>  <name>  (54) 
53

>  <ligand_id>  (54) 
53

>  <original_smiles>  (54) 
[H]c1c([H])c([H])c2c(c1[H])C([H])([H])C([H])([H])C([H])([H])C2([H])N([H])C(=O)C1([H])N(C(=O)C([H])(N([H])C(=O)C([H])(N([H])C([H])([H])[H])C([H])([H])[H])C(C([H])([H])[H])(C([H])([H])[H])C([H])([H])[H])C([H])([H])c2c([H])c(OC([H])([H])n3c([H])nc(C([H])([H])C([H])([H])[N+]([H])(C([H])([H])[H])C([H])(C([H])([H])[H])C([H])([H])N(C(=O)N4C([H])([H])C([H])([H])C([H])([H])C([H])(n5nc(-c6c([H])c([H])c(Oc7c([H])c([H])c(F)c([H])c7F)c([H])c6[H])c(C(=O)N([H])[H])c5N([H])[H])C4([H])[H])C([H])([H])[H])c3[H])c([H])c([H])c2C1([H])[H]

>  <smiles>  (54) 
[H]c1c([H])c([H])c2c(c1[H])C([H])([H])C([H])([H])C([H])([H])C2([H])N([H])C(=O)C1([H])N(C(=O)C([H])(N([H])C(=O)C([H])(N([H])C([H])([H])[H])C([H])([H])[H])C(C([H])([H])[H])(C([H])([H])[H])C([H])([H])[H])C([H])([H])c2c([H])c(OC([H])([H])n3c([H])nc(C([H])([H])C([H])([H])[N+]([H])(C([H])([H])[H])C([H])(C([H])([H])[H])C([H])([H])N(C(=O)N4C([H])([H])C([H])([H])C([H])([H])C([H])(n5nc(-c6c([H])c([H])c(Oc7c([H])c([H])c(F)c([H])c7F)c([H])c6[H])c(C(=O)N([H])[H])c5N([H])[H])C4([H])[H])C([H])([H])[H])c3[H])c([H])c([H])c2C1([H])[H]

$$$$
54:0:0
     RDKit          3D

 89 97  0  0  1  0  0  0  0  0999 V2000
  -29.4490  -20.8710   20.3730 C   0  0  0  0  0  3  0  0  0  0  0  0
  -27.1070  -18.4830   19.2170 C   0  0  0  0  0  3  0  0  0  0  0  0
  -29.0800  -18.1900   19.8590 C   0  0  0  0  0  0  0  0  0  0  0  0
  -28.0350  -17.5060   19.3870 N   0  0  0  0  0  0  0  0  0  0  0  0
  -27.5010  -19.7070   19.5350 N   0  0  0  0  0  0  0  0  0  0  0  0
  -28.7890  -19.5610   19.9520 N   0  0  0  0  0  0  0  0  0  0  0  0
  -30.3680  -17.3640   20.1550 C   0  0  0  0  0  2  0  0  0  0  0  0
  -30.7670  -14.7850   20.0660 C   0  0  0  0  0  0  0  0  0  0  0  0
  -30.4720  -12.5630   18.9400 C   0  0  0  0  0  2  0  0  0  0  0  0
  -29.4660  -12.6730   17.7700 C   0  0  0  0  0  2  0  0  0  0  0  0
  -28.0180  -12.4990   18.2670 C   0  0  0  0  0  2  0  0  0  0  0  0
  -27.7230  -13.3410   19.5350 C   0  0  0  0  0  3  0  0  0  0  0  0
  -28.8330  -13.1600   20.5870 C   0  0  0  0  0  2  0  0  0  0  0  0
  -30.1040  -13.5730   19.9660 N   0  0  0  0  0  0  0  0  0  0  0  0
  -31.8590  -14.9140   19.5010 O   0  0  0  0  0  0  0  0  0  0  0  0
  -29.6700  -15.8780   21.9890 C   0  0  0  0  0  1  0  0  0  0  0  0
  -30.1270  -15.9090   20.5920 N   0  0  0  0  0  0  0  0  0  0  0  0
  -25.3790  -13.9320   20.3960 C   0  0  0  0  0  0  0  0  0  0  0  0
  -24.3270  -13.1550   20.8040 C   0  0  0  0  0  0  0  0  0  0  0  0
  -24.7800  -11.8020   20.7210 C   0  0  0  0  0  0  0  0  0  0  0  0
  -26.4020  -13.0510   20.0850 N   0  0  0  0  0  0  0  0  0  0  0  0
  -26.0510  -11.7640   20.3420 N   0  0  0  0  0  0  0  0  0  0  0  0
  -24.0570  -10.5400   20.9260 C   0  0  0  0  0  0  0  0  0  0  0  0
  -24.4980   -9.5780   21.8620 C   0  0  0  0  0  3  0  0  0  0  0  0
  -23.7750   -8.3810   22.0540 C   0  0  0  0  0  3  0  0  0  0  0  0
  -22.5950   -8.1380   21.3100 C   0  0  0  0  0  0  0  0  0  0  0  0
  -22.1730   -9.0880   20.3640 C   0  0  0  0  0  3  0  0  0  0  0  0
  -22.8980  -10.2770   20.1700 C   0  0  0  0  0  3  0  0  0  0  0  0
  -21.8430   -6.9930   21.4100 O   0  0  0  0  0  0  0  0  0  0  0  0
  -21.7500   -6.2920   22.5860 C   0  0  0  0  0  0  0  0  0  0  0  0
  -21.2760   -6.8920   23.7740 C   0  0  0  0  0  3  0  0  0  0  0  0
  -21.1320   -6.1180   24.9430 C   0  0  0  0  0  3  0  0  0  0  0  0
  -21.4500   -4.7470   24.9240 C   0  0  0  0  0  0  0  0  0  0  0  0
  -21.9140   -4.1480   23.7400 C   0  0  0  0  0  3  0  0  0  0  0  0
  -22.0600   -4.9180   22.5740 C   0  0  0  0  0  0  0  0  0  0  0  0
  -22.4890   -4.3310   21.4300 F   0  0  0  0  0  0  0  0  0  0  0  0
  -21.3030   -4.0010   26.0440 F   0  0  0  0  0  0  0  0  0  0  0  0
  -22.9510  -13.6340   21.1620 C   0  0  0  0  0  0  0  0  0  0  0  0
  -22.2750  -12.9330   22.0660 N   0  0  0  0  0  0  0  0  0  0  0  0
  -22.4860  -14.6640   20.6760 O   0  0  0  0  0  0  0  0  0  0  0  0
  -22.6660  -12.0990   22.4800 H   0  0  0  0  0  0  0  0  0  0  0  0
  -21.3550  -13.2360   22.3500 H   0  0  0  0  0  0  0  0  0  0  0  0
  -25.5450  -15.3050   20.2450 N   0  0  0  0  0  0  0  0  0  0  0  0
  -24.7980  -15.9640   20.4280 H   0  0  0  0  0  0  0  0  0  0  0  0
  -26.4110  -15.7530   19.9570 H   0  0  0  0  0  0  0  0  0  0  0  0
  -28.5980  -22.2420   20.1040 C   0  0  0  0  0  3  0  0  0  0  0  0
  -29.0770  -23.7480   20.4640 C   0  0  0  0  0  3  0  0  0  0  0  0
  -28.0500  -24.9460   20.1050 C   0  0  0  0  0  3  0  0  0  0  0  0
  -28.3000  -26.4060   20.3650 O   0  0  0  0  0  0  0  0  0  0  0  0
  -24.5770  -31.8960   23.3150 C   0  0  0  0  0  0  0  0  0  0  0  0
  -27.2030  -27.2990   20.2850 C   0  0  0  0  0  0  0  0  0  0  0  0
  -23.3870  -30.5010   21.6660 C   0  0  0  0  0  3  0  0  0  0  0  0
  -24.8490  -28.9500   20.2500 C   0  0  0  0  0  0  0  0  0  0  0  0
  -25.9340  -30.8040   21.5090 C   0  0  0  0  0  2  0  0  0  0  0  0
  -26.0170  -29.4260   20.8580 C   0  0  0  0  0  0  0  0  0  0  0  0
  -27.1970  -28.6140   20.8640 C   0  0  0  0  0  3  0  0  0  0  0  0
  -26.0080  -26.8950   19.6440 C   0  0  0  0  0  3  0  0  0  0  0  0
  -24.8510  -27.6930   19.6320 C   0  0  0  0  0  3  0  0  0  0  0  0
  -23.6140  -29.8270   20.2880 C   0  0  0  0  0  2  0  0  0  0  0  0
  -24.6520  -31.0850   22.2190 N   0  0  0  0  0  0  0  0  0  0  0  0
  -23.4890  -32.1780   23.8380 O   0  0  0  0  0  0  0  0  0  0  0  0
  -22.7110  -29.4860   22.6200 C   0  0  0  0  0  0  0  0  0  0  0  0
  -21.3860  -29.3080   22.4770 N   0  0  0  0  0  0  0  0  0  0  0  0
  -23.3780  -28.8610   23.4470 O   0  0  0  0  0  0  0  0  0  0  0  0
  -20.9060  -29.8640   21.7830 H   0  0  0  0  0  0  0  0  0  0  0  0
  -18.0000  -28.1170   22.9440 C   0  0  0  0  0  0  0  0  0  0  0  0
  -20.5570  -28.3730   23.2410 C   0  0  0  0  0  3  0  0  0  0  0  0
  -20.6630  -26.9410   22.6680 C   0  0  0  0  0  2  0  0  0  0  0  0
  -19.5700  -26.6200   21.6420 C   0  0  0  0  0  2  0  0  0  0  0  0
  -18.1820  -26.7670   22.2710 C   0  0  0  0  0  2  0  0  0  0  0  0
  -19.1160  -28.8780   23.3850 C   0  0  0  0  0  0  0  0  0  0  0  0
  -18.8920  -30.1410   23.9760 C   0  0  0  0  0  3  0  0  0  0  0  0
  -17.5880  -30.6440   24.1280 C   0  0  0  0  0  3  0  0  0  0  0  0
  -16.4850  -29.8800   23.7030 C   0  0  0  0  0  3  0  0  0  0  0  0
  -16.6930  -28.6190   23.1180 C   0  0  0  0  0  3  0  0  0  0  0  0
  -25.8540  -32.5270   23.9510 C   0  0  0  0  0  3  0  0  0  0  0  0
  -25.5510  -33.9340   24.2540 N   0  0  0  0  0  0  0  0  0  0  0  0
  -25.8910  -34.9720   23.4780 C   0  0  0  0  0  0  0  0  0  0  0  0
  -26.5590  -34.8450   22.4480 O   0  0  0  0  0  0  0  0  0  0  0  0
  -24.9550  -34.1070   25.0500 H   0  0  0  0  0  0  0  0  0  0  0  0
  -24.1630  -36.7610   23.1040 C   0  0  0  0  0  1  0  0  0  0  0  0
  -25.4120  -36.3720   23.9100 C   0  0  0  0  0  3  0  0  0  0  0  0
  -27.5570  -37.2660   24.6990 C   0  0  0  0  0  1  0  0  0  0  0  0
  -26.4460  -37.4190   23.7630 N   0  0  0  0  0  0  0  0  0  0  0  0
  -26.0470  -38.3430   23.8960 H   0  0  0  0  0  0  0  0  0  0  0  0
  -26.3380  -31.7730   25.2490 C   0  0  1  0  0  0  0  0  0  0  0  0
  -25.2210  -31.5640   26.2980 C   0  0  0  0  0  1  0  0  0  0  0  0
  -26.9150  -30.3840   24.8910 C   0  0  0  0  0  1  0  0  0  0  0  0
  -27.4840  -32.5680   25.9180 C   0  0  0  0  0  1  0  0  0  0  0  0
  2  4  1  0
  2  5  2  0
  3  6  1  0
  3  7  1  0
  4  3  2  0
  5  6  1  0
  6  1  1  0
  7 17  1  0
  8 17  1  0
  9 14  1  0
 10 11  1  0
 10  9  1  0
 12 11  1  0
 12 21  1  0
 12 13  1  0
 14  8  1  0
 14 13  1  0
 15  8  2  0
 17 16  1  0
 18 19  2  0
 19 38  1  0
 20 19  1  0
 20 23  1  0
 21 22  1  0
 21 18  1  0
 22 20  2  0
 23 24  1  0
 24 25  2  0
 26 29  1  0
 26 25  1  0
 27 26  2  0
 28 27  1  0
 28 23  2  0
 29 30  1  0
 30 31  1  0
 31 32  2  0
 33 32  1  0
 33 37  1  0
 34 33  2  0
 35 30  2  0
 35 34  1  0
 36 35  1  0
 38 39  1  0
 39 42  1  0
 39 41  1  0
 40 38  2  0
 43 18  1  0
 43 44  1  0
 45 43  1  0
 46  1  2  0
 46 47  1  0
 48 49  1  0
 48 47  2  0
 50 61  2  0
 51 49  1  0
 51 56  1  0
 52 60  1  0
 52 62  1  0
 53 59  1  0
 53 55  1  0
 54 60  1  0
 55 56  2  0
 55 54  1  0
 57 51  2  0
 58 57  1  0
 58 53  2  0
 59 52  1  0
 60 50  1  0
 62 64  2  0
 63 62  1  0
 65 63  1  0
 66 75  2  0
 66 71  1  0
 67 63  1  0
 67 71  1  0
 68 67  1  0
 69 70  1  0
 69 68  1  0
 70 66  1  0
 71 72  2  0
 72 73  1  0
 74 73  2  0
 75 74  1  0
 76 50  1  0
 76 77  1  0
 76 86  1  0
 77 80  1  0
 78 82  1  0
 78 77  1  0
 79 78  2  0
 82 81  1  0
 84 85  1  0
 84 82  1  0
 84 83  1  0
 86 89  1  1
 86 87  1  0
 88 86  1  0
M  ISO  4   8 100  17 100  48 101  49 101
M  END
>  <TORSDO>  (55) 
F 21

>  <SCORE>  (55) 
-12.778

>  <name>  (55) 
54

>  <ligand_id>  (55) 
54

>  <original_smiles>  (55) 
[H]c1nc(C([H])([H])N(C(=O)N2C([H])([H])C([H])([H])C([H])([H])C([H])(n3nc(-c4c([H])c([H])c(Oc5c([H])c([H])c(F)c([H])c5F)c([H])c4[H])c(C(=O)N([H])[H])c3N([H])[H])C2([H])[H])C([H])([H])[H])n(C([H])([H])C([H])([H])C([H])([H])C([H])([H])Oc2c([H])c([H])c3c(c2[H])C([H])([H])N(C(=O)C([H])(N([H])C(=O)C([H])(N([H])C([H])([H])[H])C([H])([H])[H])C(C([H])([H])[H])(C([H])([H])[H])C([H])([H])[H])C([H])(C(=O)N([H])C2([H])c4c([H])c([H])c([H])c([H])c4C([H])([H])C([H])([H])C2([H])[H])C3([H])[H])n1

>  <smiles>  (55) 
[H]c1nc(C([H])([H])N(C(=O)N2C([H])([H])C([H])([H])C([H])([H])C([H])(n3nc(-c4c([H])c([H])c(Oc5c([H])c([H])c(F)c([H])c5F)c([H])c4[H])c(C(=O)N([H])[H])c3N([H])[H])C2([H])[H])C([H])([H])[H])n(C([H])([H])C([H])([H])C([H])([H])C([H])([H])Oc2c([H])c([H])c3c(c2[H])C([H])([H])N(C(=O)C([H])(N([H])C(=O)C([H])(N([H])C([H])([H])[H])C([H])([H])[H])C(C([H])([H])[H])(C([H])([H])[H])C([H])([H])[H])C([H])(C(=O)N([H])C2([H])c4c([H])c([H])c([H])c([H])c4C([H])([H])C([H])([H])C2([H])[H])C3([H])[H])n1

$$$$
55:0:0
     RDKit          3D

 90 98  0  0  1  0  0  0  0  0999 V2000
  -28.8360  -19.6460   21.0540 C   0  0  0  0  0  3  0  0  0  0  0  0
  -29.8640  -18.6750   20.7320 C   0  0  0  0  0  0  0  0  0  0  0  0
  -29.2260  -20.9080   20.6020 C   0  0  0  0  0  0  0  0  0  0  0  0
  -30.8220  -19.3260   20.0810 N   0  0  0  0  0  0  0  0  0  0  0  0
  -30.4540  -20.6470   19.9990 N   0  0  0  0  0  0  0  0  0  0  0  0
  -32.3740  -22.1560   20.3800 C   0  0  0  0  0  1  0  0  0  0  0  0
  -31.3850  -21.5640   19.3660 C   0  0  0  0  0  2  0  0  0  0  0  0
  -30.0840  -17.1700   21.1970 C   0  0  0  0  0  2  0  0  0  0  0  0
  -30.6270  -14.7940   20.3210 C   0  0  0  0  0  0  0  0  0  0  0  0
  -30.4250  -12.5070   19.3380 C   0  0  0  0  0  2  0  0  0  0  0  0
  -29.4690  -12.5400   18.1270 C   0  0  0  0  0  2  0  0  0  0  0  0
  -28.0030  -12.3820   18.5780 C   0  0  0  0  0  2  0  0  0  0  0  0
  -27.6350  -13.2730   19.7970 C   0  0  0  0  0  3  0  0  0  0  0  0
  -28.7150  -13.2200   20.8980 C   0  0  0  0  0  2  0  0  0  0  0  0
  -29.9940  -13.5710   20.2690 N   0  0  0  0  0  0  0  0  0  0  0  0
  -31.8400  -14.8680   20.1020 O   0  0  0  0  0  0  0  0  0  0  0  0
  -29.2540  -16.3370   19.0340 C   0  0  0  0  0  1  0  0  0  0  0  0
  -29.8480  -15.9500   20.3180 N   0  0  0  0  0  0  0  0  0  0  0  0
  -25.2630  -13.8550   20.5750 C   0  0  0  0  0  0  0  0  0  0  0  0
  -24.2030  -13.0750   20.9490 C   0  0  0  0  0  0  0  0  0  0  0  0
  -24.6690  -11.7260   20.8980 C   0  0  0  0  0  0  0  0  0  0  0  0
  -26.3040  -12.9790   20.3130 N   0  0  0  0  0  0  0  0  0  0  0  0
  -25.9560  -11.6930   20.5730 N   0  0  0  0  0  0  0  0  0  0  0  0
  -23.9490  -10.4590   21.0820 C   0  0  0  0  0  0  0  0  0  0  0  0
  -24.3950   -9.4850   22.0030 C   0  0  0  0  0  3  0  0  0  0  0  0
  -23.6750   -8.2840   22.1780 C   0  0  0  0  0  3  0  0  0  0  0  0
  -22.4960   -8.0490   21.4310 C   0  0  0  0  0  0  0  0  0  0  0  0
  -22.0710   -9.0120   20.4990 C   0  0  0  0  0  3  0  0  0  0  0  0
  -22.7910  -10.2050   20.3230 C   0  0  0  0  0  3  0  0  0  0  0  0
  -21.7460   -6.9010   21.5150 O   0  0  0  0  0  0  0  0  0  0  0  0
  -21.7050   -6.1520   22.6640 C   0  0  0  0  0  0  0  0  0  0  0  0
  -21.2690   -6.6940   23.8920 C   0  0  0  0  0  3  0  0  0  0  0  0
  -21.1760   -5.8700   25.0320 C   0  0  0  0  0  3  0  0  0  0  0  0
  -21.5090   -4.5050   24.9440 C   0  0  0  0  0  0  0  0  0  0  0  0
  -21.9380   -3.9620   23.7200 C   0  0  0  0  0  3  0  0  0  0  0  0
  -22.0330   -4.7830   22.5830 C   0  0  0  0  0  0  0  0  0  0  0  0
  -22.4270   -4.2500   21.4010 F   0  0  0  0  0  0  0  0  0  0  0  0
  -21.4120   -3.7110   26.0360 F   0  0  0  0  0  0  0  0  0  0  0  0
  -22.8090  -13.5460   21.2450 C   0  0  0  0  0  0  0  0  0  0  0  0
  -22.0920  -12.8340   22.1070 N   0  0  0  0  0  0  0  0  0  0  0  0
  -22.3640  -14.5790   20.7460 O   0  0  0  0  0  0  0  0  0  0  0  0
  -22.4670  -11.9970   22.5280 H   0  0  0  0  0  0  0  0  0  0  0  0
  -21.1570  -13.1290   22.3480 H   0  0  0  0  0  0  0  0  0  0  0  0
  -25.4240  -15.2290   20.4120 N   0  0  0  0  0  0  0  0  0  0  0  0
  -24.6640  -15.8870   20.5460 H   0  0  0  0  0  0  0  0  0  0  0  0
  -26.2840  -15.6700   20.1120 H   0  0  0  0  0  0  0  0  0  0  0  0
  -28.4870  -22.3000   20.7670 C   0  0  0  0  0  2  0  0  0  0  0  0
  -28.9880  -23.7600   20.2820 C   0  0  0  0  0  3  0  0  0  0  0  0
  -28.0270  -25.0080   20.6310 C   0  0  0  0  0  3  0  0  0  0  0  0
  -28.3110  -26.4280   20.2310 O   0  0  0  0  0  0  0  0  0  0  0  0
  -24.6160  -31.9080   23.2280 C   0  0  0  0  0  0  0  0  0  0  0  0
  -27.2180  -27.3200   20.1870 C   0  0  0  0  0  0  0  0  0  0  0  0
  -23.4120  -30.5070   21.5920 C   0  0  0  0  0  3  0  0  0  0  0  0
  -24.8610  -28.9570   20.1640 C   0  0  0  0  0  0  0  0  0  0  0  0
  -25.9530  -30.8200   21.4090 C   0  0  0  0  0  2  0  0  0  0  0  0
  -26.0320  -29.4380   20.7640 C   0  0  0  0  0  0  0  0  0  0  0  0
  -27.2160  -28.6320   20.7650 C   0  0  0  0  0  3  0  0  0  0  0  0
  -26.0300  -26.9150   19.5380 C   0  0  0  0  0  3  0  0  0  0  0  0
  -24.8640  -27.7030   19.5380 C   0  0  0  0  0  3  0  0  0  0  0  0
  -23.6250  -29.8320   20.2120 C   0  0  0  0  0  2  0  0  0  0  0  0
  -24.6800  -31.0970   22.1320 N   0  0  0  0  0  0  0  0  0  0  0  0
  -23.5320  -32.1870   23.7630 O   0  0  0  0  0  0  0  0  0  0  0  0
  -22.7490  -29.4920   22.5540 C   0  0  0  0  0  0  0  0  0  0  0  0
  -21.4230  -29.3110   22.4280 N   0  0  0  0  0  0  0  0  0  0  0  0
  -23.4280  -28.8690   23.3750 O   0  0  0  0  0  0  0  0  0  0  0  0
  -20.9340  -29.8660   21.7390 H   0  0  0  0  0  0  0  0  0  0  0  0
  -18.0450  -28.1260   22.9450 C   0  0  0  0  0  0  0  0  0  0  0  0
  -20.6050  -28.3750   23.2020 C   0  0  0  0  0  3  0  0  0  0  0  0
  -20.6990  -26.9460   22.6220 C   0  0  0  0  0  2  0  0  0  0  0  0
  -19.5910  -26.6280   21.6150 C   0  0  0  0  0  2  0  0  0  0  0  0
  -18.2130  -26.7770   22.2660 C   0  0  0  0  0  2  0  0  0  0  0  0
  -19.1680  -28.8830   23.3700 C   0  0  0  0  0  0  0  0  0  0  0  0
  -18.9570  -30.1460   23.9670 C   0  0  0  0  0  3  0  0  0  0  0  0
  -17.6550  -30.6510   24.1410 C   0  0  0  0  0  3  0  0  0  0  0  0
  -16.5460  -29.8900   23.7320 C   0  0  0  0  0  3  0  0  0  0  0  0
  -16.7420  -28.6290   23.1400 C   0  0  0  0  0  3  0  0  0  0  0  0
  -25.8990  -32.5440   23.8470 C   0  0  0  0  0  3  0  0  0  0  0  0
  -25.5890  -33.9430   24.1730 N   0  0  0  0  0  0  0  0  0  0  0  0
  -25.9260  -34.9950   23.4140 C   0  0  0  0  0  0  0  0  0  0  0  0
  -26.5990  -34.8890   22.3860 O   0  0  0  0  0  0  0  0  0  0  0  0
  -24.9900  -34.1000   24.9710 H   0  0  0  0  0  0  0  0  0  0  0  0
  -24.2110  -36.7980   23.0420 C   0  0  0  0  0  1  0  0  0  0  0  0
  -25.4390  -36.3850   23.8680 C   0  0  0  0  0  3  0  0  0  0  0  0
  -27.5660  -37.2600   24.7310 C   0  0  0  0  0  1  0  0  0  0  0  0
  -26.4780  -37.4330   23.7710 N   0  0  0  0  0  0  0  0  0  0  0  0
  -26.0750  -38.3550   23.9110 H   0  0  0  0  0  0  0  0  0  0  0  0
  -26.4140  -31.7770   25.1270 C   0  0  1  0  0  0  0  0  0  0  0  0
  -25.3200  -31.5430   26.1950 C   0  0  0  0  0  1  0  0  0  0  0  0
  -26.9980  -30.3980   24.7430 C   0  0  0  0  0  1  0  0  0  0  0  0
  -27.5630  -32.5750   25.7870 C   0  0  0  0  0  1  0  0  0  0  0  0
  2  1  1  0
  2  8  1  0
  3 47  1  0
  3  1  2  0
  4  2  2  0
  5  4  1  0
  5  3  1  0
  7  5  1  0
  7  6  1  0
 10 15  1  0
 11 12  1  0
 11 10  1  0
 13 12  1  0
 13 22  1  0
 13 14  1  0
 15  9  1  0
 15 14  1  0
 16  9  2  0
 17 18  1  0
 18  9  1  0
 18  8  1  0
 19 20  2  0
 20 39  1  0
 21 20  1  0
 21 24  1  0
 22 23  1  0
 22 19  1  0
 23 21  2  0
 24 25  1  0
 25 26  2  0
 27 30  1  0
 27 26  1  0
 28 27  2  0
 29 28  1  0
 29 24  2  0
 30 31  1  0
 31 32  1  0
 32 33  2  0
 34 33  1  0
 34 38  1  0
 35 34  2  0
 36 31  2  0
 36 35  1  0
 37 36  1  0
 39 40  1  0
 40 43  1  0
 40 42  1  0
 41 39  2  0
 44 45  1  0
 44 19  1  0
 46 44  1  0
 48 49  2  0
 48 47  1  0
 50 49  1  0
 51 62  2  0
 52 50  1  0
 52 57  1  0
 53 61  1  0
 53 63  1  0
 54 60  1  0
 54 56  1  0
 55 61  1  0
 56 57  2  0
 56 55  1  0
 58 52  2  0
 59 58  1  0
 59 54  2  0
 60 53  1  0
 61 51  1  0
 63 65  2  0
 64 63  1  0
 66 64  1  0
 67 76  2  0
 67 72  1  0
 68 64  1  0
 68 72  1  0
 69 68  1  0
 70 71  1  0
 70 69  1  0
 71 67  1  0
 72 73  2  0
 73 74  1  0
 75 74  2  0
 76 75  1  0
 77 51  1  0
 77 78  1  0
 77 87  1  0
 78 81  1  0
 79 83  1  0
 79 78  1  0
 80 79  2  0
 83 82  1  0
 85 83  1  0
 85 86  1  0
 85 84  1  0
 87 90  1  1
 87 88  1  0
 89 87  1  0
M  ISO  4   9 100  18 100  49 101  50 101
M  END
>  <TORSDO>  (56) 
F 21

>  <SCORE>  (56) 
-13.273

>  <name>  (56) 
55

>  <ligand_id>  (56) 
55

>  <original_smiles>  (56) 
[H]c1c([H])c([H])c2c(c1[H])C([H])([H])C([H])([H])C([H])([H])C2([H])N([H])C(=O)C1([H])N(C(=O)C([H])(N([H])C(=O)C([H])(N([H])C([H])([H])[H])C([H])([H])[H])C(C([H])([H])[H])(C([H])([H])[H])C([H])([H])[H])C([H])([H])c2c([H])c(OC([H])([H])C([H])([H])C([H])([H])c3c([H])c(C([H])([H])N(C(=O)N4C([H])([H])C([H])([H])C([H])([H])C([H])(n5nc(-c6c([H])c([H])c(Oc7c([H])c([H])c(F)c([H])c7F)c([H])c6[H])c(C(=O)N([H])[H])c5N([H])[H])C4([H])[H])C([H])([H])[H])nn3C([H])([H])C([H])([H])[H])c([H])c([H])c2C1([H])[H]

>  <smiles>  (56) 
[H]c1c([H])c([H])c2c(c1[H])C([H])([H])C([H])([H])C([H])([H])C2([H])N([H])C(=O)C1([H])N(C(=O)C([H])(N([H])C(=O)C([H])(N([H])C([H])([H])[H])C([H])([H])[H])C(C([H])([H])[H])(C([H])([H])[H])C([H])([H])[H])C([H])([H])c2c([H])c(OC([H])([H])C([H])([H])C([H])([H])c3c([H])c(C([H])([H])N(C(=O)N4C([H])([H])C([H])([H])C([H])([H])C([H])(n5nc(-c6c([H])c([H])c(Oc7c([H])c([H])c(F)c([H])c7F)c([H])c6[H])c(C(=O)N([H])[H])c5N([H])[H])C4([H])[H])C([H])([H])[H])nn3C([H])([H])C([H])([H])[H])c([H])c([H])c2C1([H])[H]

$$$$
56:0:0
     RDKit          3D

 98106  0  0  1  0  0  0  0  0999 V2000
  -29.9520  -24.0600   17.8570 C   0  0  0  0  0  3  0  0  0  0  0  0
  -29.0700  -24.6040   18.7970 C   0  0  0  0  0  0  0  0  0  0  0  0
  -30.1100  -22.6650   17.8400 C   0  0  0  0  0  0  0  0  0  0  0  0
  -28.6080  -22.4840   19.5610 C   0  0  0  0  0  0  0  0  0  0  0  0
  -28.4050  -23.7990   19.6540 N   0  0  0  0  0  0  0  0  0  0  0  0
  -29.4050  -21.8800   18.6900 N   0  0  0  0  0  0  0  0  0  0  0  0
  -31.0660  -21.9720   16.8630 C   0  0  1  0  0  0  0  0  0  0  0  0
  -31.9430  -21.2300   17.5420 F   0  0  0  0  0  0  0  0  0  0  0  0
  -30.3750  -21.1780   16.0430 F   0  0  0  0  0  0  0  0  0  0  0  0
  -31.7450  -22.8540   16.1250 F   0  0  0  0  0  0  0  0  0  0  0  0
  -28.8100  -26.1140   18.8250 C   0  0  0  0  0  2  0  0  0  0  0  0
  -28.3630  -26.6410   20.0820 O   0  0  0  0  0  0  0  0  0  0  0  0
  -24.5550  -31.7840   23.2010 C   0  0  0  0  0  0  0  0  0  0  0  0
  -27.1880  -27.3610   20.0800 C   0  0  0  0  0  0  0  0  0  0  0  0
  -23.3460  -30.4090   21.5360 C   0  0  0  0  0  3  0  0  0  0  0  0
  -24.7960  -28.8690   20.1080 C   0  0  0  0  0  0  0  0  0  0  0  0
  -25.8750  -30.7470   21.3600 C   0  0  0  0  0  2  0  0  0  0  0  0
  -25.9520  -29.3790   20.7130 C   0  0  0  0  0  0  0  0  0  0  0  0
  -27.1470  -28.6260   20.7090 C   0  0  0  0  0  3  0  0  0  0  0  0
  -26.0100  -26.8520   19.4910 C   0  0  0  0  0  3  0  0  0  0  0  0
  -24.8180  -27.6000   19.5020 C   0  0  0  0  0  3  0  0  0  0  0  0
  -23.5580  -29.7370   20.1530 C   0  0  0  0  0  2  0  0  0  0  0  0
  -24.6090  -30.9930   22.0910 N   0  0  0  0  0  0  0  0  0  0  0  0
  -23.4740  -32.0610   23.7370 O   0  0  0  0  0  0  0  0  0  0  0  0
  -22.6790  -29.3860   22.4840 C   0  0  0  0  0  0  0  0  0  0  0  0
  -21.3510  -29.2290   22.3550 N   0  0  0  0  0  0  0  0  0  0  0  0
  -23.3520  -28.7370   23.2890 O   0  0  0  0  0  0  0  0  0  0  0  0
  -20.8710  -29.8020   21.6760 H   0  0  0  0  0  0  0  0  0  0  0  0
  -17.9560  -28.0980   22.8440 C   0  0  0  0  0  0  0  0  0  0  0  0
  -20.5200  -28.2950   23.1120 C   0  0  0  0  0  3  0  0  0  0  0  0
  -20.5900  -26.8730   22.5100 C   0  0  0  0  0  2  0  0  0  0  0  0
  -19.4780  -26.5930   21.4930 C   0  0  0  0  0  2  0  0  0  0  0  0
  -18.1020  -26.7570   22.1450 C   0  0  0  0  0  2  0  0  0  0  0  0
  -19.0930  -28.8260   23.2850 C   0  0  0  0  0  0  0  0  0  0  0  0
  -18.9040  -30.0860   23.8960 C   0  0  0  0  0  3  0  0  0  0  0  0
  -17.6110  -30.6130   24.0740 C   0  0  0  0  0  3  0  0  0  0  0  0
  -16.4890  -29.8800   23.6520 C   0  0  0  0  0  3  0  0  0  0  0  0
  -16.6630  -28.6240   23.0420 C   0  0  0  0  0  3  0  0  0  0  0  0
  -25.8440  -32.3950   23.8350 C   0  0  0  0  0  3  0  0  0  0  0  0
  -26.3470  -31.6040   25.1050 C   0  0  1  0  0  0  0  0  0  0  0  0
  -25.2460  -31.3670   26.1640 C   0  0  0  0  0  1  0  0  0  0  0  0
  -26.9190  -30.2270   24.6990 C   0  0  0  0  0  1  0  0  0  0  0  0
  -27.5030  -32.3800   25.7810 C   0  0  0  0  0  1  0  0  0  0  0  0
  -25.5490  -33.7930   24.1760 N   0  0  0  0  0  0  0  0  0  0  0  0
  -25.8950  -34.8470   23.4250 C   0  0  0  0  0  0  0  0  0  0  0  0
  -26.5670  -34.7430   22.3940 O   0  0  0  0  0  0  0  0  0  0  0  0
  -24.9570  -33.9480   24.9790 H   0  0  0  0  0  0  0  0  0  0  0  0
  -24.1820  -36.6530   23.0780 C   0  0  0  0  0  1  0  0  0  0  0  0
  -25.4180  -36.2350   23.8900 C   0  0  0  0  0  3  0  0  0  0  0  0
  -27.5560  -37.0980   24.7340 C   0  0  0  0  0  1  0  0  0  0  0  0
  -26.4600  -37.2800   23.7850 N   0  0  0  0  0  0  0  0  0  0  0  0
  -26.0640  -38.2040   23.9330 H   0  0  0  0  0  0  0  0  0  0  0  0
  -27.7430  -21.5890   20.4380 C   0  0  0  0  0  2  0  0  0  0  0  0
  -28.3740  -20.2430   20.9010 C   0  0  0  0  0  2  0  0  0  0  0  0
  -27.4430  -19.0200   18.9290 C   0  0  0  0  0  1  0  0  0  0  0  0
  -28.5970  -19.1990   19.8480 N   0  0  2  0  0  4  0  0  0  0  0  0
  -29.3440  -19.5430   19.2590 H   0  0  0  0  0  0  0  0  0  0  0  0
  -29.0320  -17.8890   20.4260 C   0  0  0  0  0  2  0  0  0  0  0  0
  -30.5640  -17.7410   20.5540 C   0  0  0  0  0  2  0  0  0  0  0  0
  -31.0260  -16.5330   21.4090 C   0  0  0  0  0  2  0  0  0  0  0  0
  -31.0090  -14.3220   20.2100 C   0  0  0  0  0  0  0  0  0  0  0  0
  -30.6210  -12.1930   19.0180 C   0  0  0  0  0  2  0  0  0  0  0  0
  -29.6530  -12.4110   17.8390 C   0  0  0  0  0  2  0  0  0  0  0  0
  -28.1870  -12.3040   18.3040 C   0  0  0  0  0  2  0  0  0  0  0  0
  -27.8990  -13.1600   19.5660 C   0  0  0  0  0  3  0  0  0  0  0  0
  -28.9680  -12.9040   20.6510 C   0  0  0  0  0  2  0  0  0  0  0  0
  -30.2920  -13.1760   20.0610 N   0  0  0  0  0  0  0  0  0  0  0  0
  -32.0730  -14.5380   19.6230 O   0  0  0  0  0  0  0  0  0  0  0  0
  -30.4520  -15.2420   21.0140 N   0  0  0  0  0  0  0  0  0  0  0  0
  -29.5890  -14.9640   21.4600 H   0  0  0  0  0  0  0  0  0  0  0  0
  -25.5290  -13.8360   20.3140 C   0  0  0  0  0  0  0  0  0  0  0  0
  -24.4510  -13.0940   20.7140 C   0  0  0  0  0  0  0  0  0  0  0  0
  -24.8770  -11.7310   20.6850 C   0  0  0  0  0  0  0  0  0  0  0  0
  -26.5470  -12.9260   20.0720 N   0  0  0  0  0  0  0  0  0  0  0  0
  -26.1580  -11.6560   20.3500 N   0  0  0  0  0  0  0  0  0  0  0  0
  -24.1240  -10.4890   20.9030 C   0  0  0  0  0  0  0  0  0  0  0  0
  -24.5480   -9.5250   21.8430 C   0  0  0  0  0  3  0  0  0  0  0  0
  -23.7970   -8.3460   22.0470 C   0  0  0  0  0  3  0  0  0  0  0  0
  -22.6100   -8.1250   21.3090 C   0  0  0  0  0  0  0  0  0  0  0  0
  -22.2060   -9.0770   20.3580 C   0  0  0  0  0  3  0  0  0  0  0  0
  -22.9550  -10.2470   20.1530 C   0  0  0  0  0  3  0  0  0  0  0  0
  -21.8310   -6.9970   21.4210 O   0  0  0  0  0  0  0  0  0  0  0  0
  -21.7750   -6.2750   22.5860 C   0  0  0  0  0  0  0  0  0  0  0  0
  -21.3650   -6.8580   23.8050 C   0  0  0  0  0  3  0  0  0  0  0  0
  -21.2550   -6.0630   24.9630 C   0  0  0  0  0  3  0  0  0  0  0  0
  -21.5430   -4.6860   24.9040 C   0  0  0  0  0  0  0  0  0  0  0  0
  -21.9470   -4.1030   23.6900 C   0  0  0  0  0  3  0  0  0  0  0  0
  -22.0590   -4.8960   22.5330 C   0  0  0  0  0  0  0  0  0  0  0  0
  -22.4270   -4.3250   21.3610 F   0  0  0  0  0  0  0  0  0  0  0  0
  -21.4300   -3.9210   26.0140 F   0  0  0  0  0  0  0  0  0  0  0  0
  -23.0710  -13.6080   21.0120 C   0  0  0  0  0  0  0  0  0  0  0  0
  -22.3450  -12.9380   21.8990 N   0  0  0  0  0  0  0  0  0  0  0  0
  -22.6480  -14.6400   20.4910 O   0  0  0  0  0  0  0  0  0  0  0  0
  -22.7010  -12.1040   22.3410 H   0  0  0  0  0  0  0  0  0  0  0  0
  -21.4210  -13.2660   22.1420 H   0  0  0  0  0  0  0  0  0  0  0  0
  -25.7250  -15.1990   20.1160 N   0  0  0  0  0  0  0  0  0  0  0  0
  -24.9670  -15.8670   20.2080 H   0  0  0  0  0  0  0  0  0  0  0  0
  -26.5600  -15.5930   19.7060 H   0  0  0  0  0  0  0  0  0  0  0  0
  1  2  2  0
  2 11  1  0
  2  5  1  0
  3  1  1  0
  3  6  2  0
  4  5  2  0
  4 53  1  0
  6  4  1  0
  7  8  1  1
  7  3  1  0
  9  7  1  0
 10  7  1  0
 11 12  1  0
 13 24  2  0
 14 12  1  0
 14 19  1  0
 15 23  1  0
 15 25  1  0
 16 22  1  0
 16 18  1  0
 17 23  1  0
 18 17  1  0
 19 18  2  0
 20 21  1  0
 20 14  2  0
 21 16  2  0
 22 15  1  0
 23 13  1  0
 25 27  2  0
 26 25  1  0
 28 26  1  0
 29 38  2  0
 29 34  1  0
 30 26  1  0
 30 34  1  0
 31 30  1  0
 32 33  1  0
 32 31  1  0
 33 29  1  0
 34 35  2  0
 35 36  1  0
 37 36  2  0
 38 37  1  0
 39 13  1  0
 39 44  1  0
 39 40  1  0
 40 43  1  1
 40 41  1  0
 42 40  1  0
 44 47  1  0
 45 49  1  0
 45 44  1  0
 46 45  2  0
 49 48  1  0
 51 49  1  0
 51 52  1  0
 51 50  1  0
 53 54  1  0
 55 56  1  0
 56 58  1  0
 56 54  1  0
 56 57  1  6
 58 59  1  0
 59 60  1  0
 61 69  1  0
 62 67  1  0
 63 64  1  0
 63 62  1  0
 65 64  1  0
 65 74  1  0
 65 66  1  0
 67 61  1  0
 67 66  1  0
 68 61  2  0
 69 60  1  0
 69 70  1  0
 71 72  2  0
 72 91  1  0
 73 72  1  0
 73 76  1  0
 74 71  1  0
 74 75  1  0
 75 73  2  0
 76 77  1  0
 77 78  2  0
 79 82  1  0
 79 78  1  0
 80 79  2  0
 81 80  1  0
 81 76  2  0
 82 83  1  0
 83 84  1  0
 84 85  2  0
 86 85  1  0
 86 90  1  0
 87 86  2  0
 88 83  2  0
 88 87  1  0
 89 88  1  0
 91 92  1  0
 92 95  1  0
 92 94  1  0
 93 91  2  0
 96 97  1  0
 96 71  1  0
 98 96  1  0
M  ISO  4  11 101  12 101  61 100  69 100
M  END
>  <TORSDO>  (57) 
F 24

>  <SCORE>  (57) 
-12.441

>  <name>  (57) 
56

>  <ligand_id>  (57) 
56

>  <original_smiles>  (57) 
[H]c1c(C(F)(F)F)nc(C([H])([H])C([H])([H])[N+]([H])(C([H])([H])[H])C([H])([H])C([H])([H])C([H])([H])N([H])C(=O)N2C([H])([H])C([H])([H])C([H])([H])C([H])(n3nc(-c4c([H])c([H])c(Oc5c([H])c([H])c(F)c([H])c5F)c([H])c4[H])c(C(=O)N([H])[H])c3N([H])[H])C2([H])[H])nc1C([H])([H])Oc1c([H])c([H])c2c(c1[H])C([H])([H])N(C(=O)C([H])(N([H])C(=O)C([H])(N([H])C([H])([H])[H])C([H])([H])[H])C(C([H])([H])[H])(C([H])([H])[H])C([H])([H])[H])C([H])(C(=O)N([H])C1([H])c3c([H])c([H])c([H])c([H])c3C([H])([H])C([H])([H])C1([H])[H])C2([H])[H]

>  <smiles>  (57) 
[H]c1c(C(F)(F)F)nc(C([H])([H])C([H])([H])[N+]([H])(C([H])([H])[H])C([H])([H])C([H])([H])C([H])([H])N([H])C(=O)N2C([H])([H])C([H])([H])C([H])([H])C([H])(n3nc(-c4c([H])c([H])c(Oc5c([H])c([H])c(F)c([H])c5F)c([H])c4[H])c(C(=O)N([H])[H])c3N([H])[H])C2([H])[H])nc1C([H])([H])Oc1c([H])c([H])c2c(c1[H])C([H])([H])N(C(=O)C([H])(N([H])C(=O)C([H])(N([H])C([H])([H])[H])C([H])([H])[H])C(C([H])([H])[H])(C([H])([H])[H])C([H])([H])[H])C([H])(C(=O)N([H])C1([H])c3c([H])c([H])c([H])c([H])c3C([H])([H])C([H])([H])C1([H])[H])C2([H])[H]

$$$$
57:0:0
     RDKit          3D

 93101  0  0  1  0  0  0  0  0999 V2000
  -29.0780  -20.2360   20.2750 C   0  0  0  0  0  3  0  0  0  0  0  0
  -29.1840  -20.5710   16.0500 C   0  0  0  0  0  3  0  0  0  0  0  0
  -30.2730  -20.9430   16.8690 C   0  0  0  0  0  0  0  0  0  0  0  0
  -27.9860  -19.9520   17.9260 C   0  0  0  0  0  0  0  0  0  0  0  0
  -29.0750  -20.3490   18.7520 C   0  0  0  0  0  0  0  0  0  0  0  0
  -31.5590  -21.4780   16.2750 C   0  0  0  0  0  1  0  0  0  0  0  0
  -26.7060  -19.3570   18.4830 C   0  0  0  0  0  1  0  0  0  0  0  0
  -28.0400  -20.0710   16.5750 N   0  0  0  0  0  0  0  0  0  0  0  0
  -30.2240  -20.8290   18.2140 N   0  0  0  0  0  0  0  0  0  0  0  0
  -29.1200  -21.8170   20.8710 C   0  0  0  0  0  2  0  0  0  0  0  0
  -28.6100  -23.2230   20.0740 C   0  0  0  0  0  2  0  0  0  0  0  0
  -28.1660  -24.6820   20.7760 C   0  0  0  0  0  2  0  0  0  0  0  0
  -28.2650  -26.1230   20.2160 O   0  0  0  0  0  0  0  0  0  0  0  0
  -24.6180  -31.7960   23.2000 C   0  0  0  0  0  0  0  0  0  0  0  0
  -27.1820  -27.0630   20.2290 C   0  0  0  0  0  0  0  0  0  0  0  0
  -23.4140  -30.3940   21.5690 C   0  0  0  0  0  3  0  0  0  0  0  0
  -24.8570  -28.7930   20.1700 C   0  0  0  0  0  0  0  0  0  0  0  0
  -25.9660  -30.6510   21.4050 C   0  0  0  0  0  2  0  0  0  0  0  0
  -26.0360  -29.2520   20.7700 C   0  0  0  0  0  0  0  0  0  0  0  0
  -27.2030  -28.4040   20.7780 C   0  0  0  0  0  3  0  0  0  0  0  0
  -25.9770  -26.6860   19.6040 C   0  0  0  0  0  3  0  0  0  0  0  0
  -24.8370  -27.5220   19.5730 C   0  0  0  0  0  3  0  0  0  0  0  0
  -23.6350  -29.6990   20.1990 C   0  0  0  0  0  2  0  0  0  0  0  0
  -24.6870  -30.9690   22.1140 N   0  0  0  0  0  0  0  0  0  0  0  0
  -23.5330  -32.0930   23.7230 O   0  0  0  0  0  0  0  0  0  0  0  0
  -22.7260  -29.4020   22.5380 C   0  0  0  0  0  0  0  0  0  0  0  0
  -21.3960  -29.2460   22.4090 N   0  0  0  0  0  0  0  0  0  0  0  0
  -23.3900  -28.7730   23.3650 O   0  0  0  0  0  0  0  0  0  0  0  0
  -20.9210  -29.8000   21.7130 H   0  0  0  0  0  0  0  0  0  0  0  0
  -17.9960  -28.1170   22.9380 C   0  0  0  0  0  0  0  0  0  0  0  0
  -20.5610  -28.3230   23.1830 C   0  0  0  0  0  3  0  0  0  0  0  0
  -20.6300  -26.8920   22.6010 C   0  0  0  0  0  2  0  0  0  0  0  0
  -19.5120  -26.5970   21.5970 C   0  0  0  0  0  2  0  0  0  0  0  0
  -18.1380  -26.7670   22.2530 C   0  0  0  0  0  2  0  0  0  0  0  0
  -19.1340  -28.8540   23.3590 C   0  0  0  0  0  0  0  0  0  0  0  0
  -18.9470  -30.1180   23.9610 C   0  0  0  0  0  3  0  0  0  0  0  0
  -17.6530  -30.6450   24.1430 C   0  0  0  0  0  3  0  0  0  0  0  0
  -16.5300  -29.9040   23.7370 C   0  0  0  0  0  3  0  0  0  0  0  0
  -16.7020  -28.6410   23.1410 C   0  0  0  0  0  3  0  0  0  0  0  0
  -25.8990  -32.4260   23.8290 C   0  0  0  0  0  3  0  0  0  0  0  0
  -25.5990  -33.8300   24.1470 N   0  0  0  0  0  0  0  0  0  0  0  0
  -25.9730  -34.8790   23.4040 C   0  0  0  0  0  0  0  0  0  0  0  0
  -26.6750  -34.7660   22.3950 O   0  0  0  0  0  0  0  0  0  0  0  0
  -24.9740  -33.9900   24.9250 H   0  0  0  0  0  0  0  0  0  0  0  0
  -24.2980  -36.7130   22.9860 C   0  0  0  0  0  1  0  0  0  0  0  0
  -25.4950  -36.2760   23.8470 C   0  0  0  0  0  3  0  0  0  0  0  0
  -27.6050  -37.1170   24.7810 C   0  0  0  0  0  1  0  0  0  0  0  0
  -26.5540  -37.3070   23.7850 N   0  0  0  0  0  0  0  0  0  0  0  0
  -26.1600  -38.2360   23.9140 H   0  0  0  0  0  0  0  0  0  0  0  0
  -26.3960  -31.6630   25.1190 C   0  0  1  0  0  0  0  0  0  0  0  0
  -25.2890  -31.4430   26.1780 C   0  0  0  0  0  1  0  0  0  0  0  0
  -26.9730  -30.2770   24.7490 C   0  0  0  0  0  1  0  0  0  0  0  0
  -27.5480  -32.4530   25.7820 C   0  0  0  0  0  1  0  0  0  0  0  0
  -30.0930  -18.9270   20.6390 C   0  0  0  0  0  2  0  0  0  0  0  0
  -29.8020  -17.5350   21.5230 C   0  0  0  0  0  2  0  0  0  0  0  0
  -30.6290  -14.9090   21.0390 C   0  0  0  0  0  0  0  0  0  0  0  0
  -30.6590  -12.5630   20.0830 C   0  0  0  0  0  2  0  0  0  0  0  0
  -29.8240  -12.4780   18.7850 C   0  0  0  0  0  2  0  0  0  0  0  0
  -28.3320  -12.2480   19.0990 C   0  0  0  0  0  2  0  0  0  0  0  0
  -27.8100  -13.1800   20.2240 C   0  0  0  0  0  3  0  0  0  0  0  0
  -28.7690  -13.2110   21.4300 C   0  0  0  0  0  2  0  0  0  0  0  0
  -30.0760  -13.6420   20.9200 N   0  0  0  0  0  0  0  0  0  0  0  0
  -31.8560  -15.0220   20.9530 O   0  0  0  0  0  0  0  0  0  0  0  0
  -29.7700  -16.0350   21.0360 N   0  0  0  0  0  0  0  0  0  0  0  0
  -28.8220  -15.7290   20.8820 H   0  0  0  0  0  0  0  0  0  0  0  0
  -25.3630  -13.7240   20.7450 C   0  0  0  0  0  0  0  0  0  0  0  0
  -24.2860  -12.9310   21.0310 C   0  0  0  0  0  0  0  0  0  0  0  0
  -24.7790  -11.5900   21.0620 C   0  0  0  0  0  0  0  0  0  0  0  0
  -26.4400  -12.8640   20.6110 N   0  0  0  0  0  0  0  0  0  0  0  0
  -26.0920  -11.5770   20.8690 N   0  0  0  0  0  0  0  0  0  0  0  0
  -24.0650  -10.3150   21.2030 C   0  0  0  0  0  0  0  0  0  0  0  0
  -24.4320   -9.3660   22.1820 C   0  0  0  0  0  3  0  0  0  0  0  0
  -23.7150   -8.1560   22.3100 C   0  0  0  0  0  3  0  0  0  0  0  0
  -22.6170   -7.8870   21.4580 C   0  0  0  0  0  0  0  0  0  0  0  0
  -22.2710   -8.8260   20.4710 C   0  0  0  0  0  3  0  0  0  0  0  0
  -22.9890  -10.0270   20.3400 C   0  0  0  0  0  3  0  0  0  0  0  0
  -21.8790   -6.7300   21.4940 O   0  0  0  0  0  0  0  0  0  0  0  0
  -21.7450   -5.9960   22.6460 C   0  0  0  0  0  0  0  0  0  0  0  0
  -21.1780   -6.5440   23.8160 C   0  0  0  0  0  3  0  0  0  0  0  0
  -20.9960   -5.7350   24.9560 C   0  0  0  0  0  3  0  0  0  0  0  0
  -21.3710   -4.3790   24.9240 C   0  0  0  0  0  0  0  0  0  0  0  0
  -21.9310   -3.8300   23.7580 C   0  0  0  0  0  3  0  0  0  0  0  0
  -22.1150   -4.6360   22.6210 C   0  0  0  0  0  0  0  0  0  0  0  0
  -22.6360   -4.0970   21.4910 F   0  0  0  0  0  0  0  0  0  0  0  0
  -21.1890   -3.6000   26.0170 F   0  0  0  0  0  0  0  0  0  0  0  0
  -22.8600  -13.3810   21.1670 C   0  0  0  0  0  0  0  0  0  0  0  0
  -22.0720  -12.6840   21.9770 N   0  0  0  0  0  0  0  0  0  0  0  0
  -22.4500  -14.3870   20.5910 O   0  0  0  0  0  0  0  0  0  0  0  0
  -22.4150  -11.8690   22.4650 H   0  0  0  0  0  0  0  0  0  0  0  0
  -21.1130  -12.9680   22.1140 H   0  0  0  0  0  0  0  0  0  0  0  0
  -25.5120  -15.0950   20.5580 N   0  0  0  0  0  0  0  0  0  0  0  0
  -24.7170  -15.7260   20.5810 H   0  0  0  0  0  0  0  0  0  0  0  0
  -26.3640  -15.5470   20.2560 H   0  0  0  0  0  0  0  0  0  0  0  0
  1 54  1  0
  1 10  1  0
  2  8  2  0
  2  3  1  0
  3  9  2  0
  4  7  1  0
  4  5  2  0
  5  1  1  0
  6  3  1  0
  8  4  1  0
  9  5  1  0
 11 12  1  0
 11 10  1  0
 13 15  1  0
 13 12  1  0
 14 25  2  0
 15 20  1  0
 16 24  1  0
 16 26  1  0
 17 23  1  0
 17 19  1  0
 18 24  1  0
 19 20  2  0
 19 18  1  0
 21 15  2  0
 22 21  1  0
 22 17  2  0
 23 16  1  0
 24 14  1  0
 26 28  2  0
 27 26  1  0
 29 27  1  0
 30 39  2  0
 30 35  1  0
 31 27  1  0
 31 35  1  0
 32 31  1  0
 33 34  1  0
 33 32  1  0
 34 30  1  0
 35 36  2  0
 36 37  1  0
 38 37  2  0
 39 38  1  0
 40 14  1  0
 40 41  1  0
 40 50  1  0
 41 44  1  0
 42 46  1  0
 42 41  1  0
 43 42  2  0
 46 45  1  0
 48 46  1  0
 48 49  1  0
 48 47  1  0
 50 53  1  1
 50 51  1  0
 52 50  1  0
 54 55  1  0
 57 62  1  0
 58 59  1  0
 58 57  1  0
 60 59  1  0
 60 69  1  0
 60 61  1  0
 62 56  1  0
 62 61  1  0
 63 56  2  0
 64 56  1  0
 64 55  1  0
 65 64  1  0
 66 67  2  0
 67 68  1  0
 67 86  1  0
 68 71  1  0
 69 66  1  0
 69 70  1  0
 70 68  2  0
 71 72  1  0
 72 73  2  0
 74 77  1  0
 74 73  1  0
 75 74  2  0
 76 75  1  0
 76 71  2  0
 77 78  1  0
 78 79  1  0
 79 80  2  0
 81 80  1  0
 81 85  1  0
 82 81  2  0
 83 78  2  0
 83 82  1  0
 84 83  1  0
 86 87  1  0
 87 90  1  0
 87 89  1  0
 88 86  2  0
 91 92  1  0
 91 66  1  0
 93 91  1  0
M  ISO  4  12 101  13 101  56 100  64 100
M  END
>  <TORSDO>  (58) 
F 22

>  <SCORE>  (58) 
-13.892

>  <name>  (58) 
57

>  <ligand_id>  (58) 
57

>  <original_smiles>  (58) 
[H]c1nc(C([H])([H])[H])c(C([H])(C([H])([H])C([H])([H])N([H])C(=O)N2C([H])([H])C([H])([H])C([H])([H])C([H])(n3nc(-c4c([H])c([H])c(Oc5c([H])c([H])c(F)c([H])c5F)c([H])c4[H])c(C(=O)N([H])[H])c3N([H])[H])C2([H])[H])C([H])([H])C([H])([H])C([H])([H])Oc2c([H])c([H])c3c(c2[H])C([H])([H])N(C(=O)C([H])(N([H])C(=O)C([H])(N([H])C([H])([H])[H])C([H])([H])[H])C(C([H])([H])[H])(C([H])([H])[H])C([H])([H])[H])C([H])(C(=O)N([H])C2([H])c4c([H])c([H])c([H])c([H])c4C([H])([H])C([H])([H])C2([H])[H])C3([H])[H])nc1C([H])([H])[H]

>  <smiles>  (58) 
[H]c1nc(C([H])([H])[H])c(C([H])(C([H])([H])C([H])([H])N([H])C(=O)N2C([H])([H])C([H])([H])C([H])([H])C([H])(n3nc(-c4c([H])c([H])c(Oc5c([H])c([H])c(F)c([H])c5F)c([H])c4[H])c(C(=O)N([H])[H])c3N([H])[H])C2([H])[H])C([H])([H])C([H])([H])C([H])([H])Oc2c([H])c([H])c3c(c2[H])C([H])([H])N(C(=O)C([H])(N([H])C(=O)C([H])(N([H])C([H])([H])[H])C([H])([H])[H])C(C([H])([H])[H])(C([H])([H])[H])C([H])([H])[H])C([H])(C(=O)N([H])C2([H])c4c([H])c([H])c([H])c([H])c4C([H])([H])C([H])([H])C2([H])[H])C3([H])[H])nc1C([H])([H])[H]

$$$$
58:0:0
     RDKit          3D

 91 99  0  0  1  0  0  0  0  0999 V2000
  -29.7360  -20.3350   17.5640 C   0  0  0  0  0  0  0  0  0  0  0  0
  -28.8950  -19.2010   17.6610 C   0  0  0  0  0  0  0  0  0  0  0  0
  -29.7840  -20.4860   19.8730 C   0  0  0  0  0  3  0  0  0  0  0  0
  -29.4420  -19.0120   19.8920 C   0  0  0  0  0  3  0  0  0  0  0  0
  -30.0890  -20.9700   16.2330 C   0  0  0  0  0  1  0  0  0  0  0  0
  -28.2260  -18.5830   16.4480 C   0  0  0  0  0  1  0  0  0  0  0  0
  -30.2060  -20.9540   18.6710 N   0  0  0  0  0  0  0  0  0  0  0  0
  -28.7120  -18.5650   18.8400 N   0  0  0  0  0  0  0  0  0  0  0  0
  -28.8820  -21.7450   20.4430 C   0  0  0  0  0  2  0  0  0  0  0  0
  -29.2460  -23.3950   20.2900 C   0  0  0  0  0  3  0  0  0  0  0  0
  -28.1320  -24.6630   20.3420 C   0  0  0  0  0  3  0  0  0  0  0  0
  -28.3810  -26.2050   20.3450 O   0  0  0  0  0  0  0  0  0  0  0  0
  -24.5550  -31.8570   23.1710 C   0  0  0  0  0  0  0  0  0  0  0  0
  -27.2980  -27.1580   20.2610 C   0  0  0  0  0  0  0  0  0  0  0  0
  -23.4230  -30.4220   21.5170 C   0  0  0  0  0  3  0  0  0  0  0  0
  -24.9360  -28.8590   20.1520 C   0  0  0  0  0  0  0  0  0  0  0  0
  -25.9760  -30.7330   21.4160 C   0  0  0  0  0  2  0  0  0  0  0  0
  -26.0920  -29.3350   20.7820 C   0  0  0  0  0  0  0  0  0  0  0  0
  -27.2750  -28.5030   20.8160 C   0  0  0  0  0  3  0  0  0  0  0  0
  -26.1090  -26.7840   19.5950 C   0  0  0  0  0  3  0  0  0  0  0  0
  -24.9570  -27.5970   19.5430 C   0  0  0  0  0  3  0  0  0  0  0  0
  -23.6910  -29.7320   20.1550 C   0  0  0  0  0  2  0  0  0  0  0  0
  -24.6690  -31.0270   22.0900 N   0  0  0  0  0  0  0  0  0  0  0  0
  -23.4500  -32.1290   23.6660 O   0  0  0  0  0  0  0  0  0  0  0  0
  -22.7360  -29.4150   22.4740 C   0  0  0  0  0  0  0  0  0  0  0  0
  -21.4150  -29.2190   22.3130 N   0  0  0  0  0  0  0  0  0  0  0  0
  -23.3950  -28.8090   23.3220 O   0  0  0  0  0  0  0  0  0  0  0  0
  -20.9390  -29.7590   21.6040 H   0  0  0  0  0  0  0  0  0  0  0  0
  -18.0400  -27.9790   22.7480 C   0  0  0  0  0  0  0  0  0  0  0  0
  -20.5880  -28.2780   23.0730 C   0  0  0  0  0  3  0  0  0  0  0  0
  -20.7220  -26.8420   22.5150 C   0  0  0  0  0  2  0  0  0  0  0  0
  -19.6480  -26.4960   21.4770 C   0  0  0  0  0  2  0  0  0  0  0  0
  -18.2490  -26.6270   22.0880 C   0  0  0  0  0  2  0  0  0  0  0  0
  -19.1370  -28.7610   23.1960 C   0  0  0  0  0  0  0  0  0  0  0  0
  -18.8860  -30.0240   23.7740 C   0  0  0  0  0  3  0  0  0  0  0  0
  -17.5690  -30.5070   23.9070 C   0  0  0  0  0  3  0  0  0  0  0  0
  -16.4860  -29.7220   23.4740 C   0  0  0  0  0  3  0  0  0  0  0  0
  -16.7220  -28.4590   22.9010 C   0  0  0  0  0  3  0  0  0  0  0  0
  -25.8050  -32.5220   23.8250 C   0  0  0  0  0  3  0  0  0  0  0  0
  -26.3130  -31.7560   25.1090 C   0  0  1  0  0  0  0  0  0  0  0  0
  -25.2020  -31.4800   26.1490 C   0  0  0  0  0  1  0  0  0  0  0  0
  -26.9440  -30.3970   24.7260 C   0  0  0  0  0  1  0  0  0  0  0  0
  -27.4250  -32.5780   25.8010 C   0  0  0  0  0  1  0  0  0  0  0  0
  -25.4480  -33.9080   24.1630 N   0  0  0  0  0  0  0  0  0  0  0  0
  -25.7380  -34.9780   23.4100 C   0  0  0  0  0  0  0  0  0  0  0  0
  -26.4010  -34.9030   22.3710 O   0  0  0  0  0  0  0  0  0  0  0  0
  -24.8550  -34.0370   24.9700 H   0  0  0  0  0  0  0  0  0  0  0  0
  -23.9420  -36.7140   23.0990 C   0  0  0  0  0  1  0  0  0  0  0  0
  -25.2140  -36.3480   23.8830 C   0  0  0  0  0  3  0  0  0  0  0  0
  -27.3250  -37.3130   24.6830 C   0  0  0  0  0  1  0  0  0  0  0  0
  -26.2060  -37.4360   23.7530 N   0  0  0  0  0  0  0  0  0  0  0  0
  -25.7690  -38.3420   23.9000 H   0  0  0  0  0  0  0  0  0  0  0  0
  -30.4370  -17.7340   20.1990 C   0  0  0  0  0  2  0  0  0  0  0  0
  -30.6610  -15.0030   20.0300 C   0  0  0  0  0  0  0  0  0  0  0  0
  -30.4440  -12.7110   18.9370 C   0  0  0  0  0  2  0  0  0  0  0  0
  -29.4180  -12.7210   17.7770 C   0  0  0  0  0  2  0  0  0  0  0  0
  -27.9810  -12.5090   18.2930 C   0  0  0  0  0  2  0  0  0  0  0  0
  -27.6790  -13.3610   19.5520 C   0  0  0  0  0  3  0  0  0  0  0  0
  -28.8140  -13.2310   20.5890 C   0  0  0  0  0  2  0  0  0  0  0  0
  -30.0340  -13.7460   19.9370 N   0  0  0  0  0  0  0  0  0  0  0  0
  -31.8160  -15.0550   19.5880 O   0  0  0  0  0  0  0  0  0  0  0  0
  -28.9420  -16.2140   21.4110 C   0  0  0  0  0  1  0  0  0  0  0  0
  -29.9780  -16.2250   20.3740 N   0  0  0  0  0  0  0  0  0  0  0  0
  -25.3480  -13.9460   20.4420 C   0  0  0  0  0  0  0  0  0  0  0  0
  -24.3010  -13.1700   20.8570 C   0  0  0  0  0  0  0  0  0  0  0  0
  -24.7470  -11.8170   20.7520 C   0  0  0  0  0  0  0  0  0  0  0  0
  -26.3680  -13.0650   20.1180 N   0  0  0  0  0  0  0  0  0  0  0  0
  -26.0150  -11.7760   20.3630 N   0  0  0  0  0  0  0  0  0  0  0  0
  -24.0160  -10.5580   20.9430 C   0  0  0  0  0  0  0  0  0  0  0  0
  -24.4450   -9.5880   21.8740 C   0  0  0  0  0  3  0  0  0  0  0  0
  -23.7130   -8.3950   22.0540 C   0  0  0  0  0  3  0  0  0  0  0  0
  -22.5380   -8.1630   21.3000 C   0  0  0  0  0  0  0  0  0  0  0  0
  -22.1280   -9.1210   20.3570 C   0  0  0  0  0  3  0  0  0  0  0  0
  -22.8600  -10.3070   20.1760 C   0  0  0  0  0  3  0  0  0  0  0  0
  -21.7770   -7.0220   21.3890 O   0  0  0  0  0  0  0  0  0  0  0  0
  -21.6660   -6.3210   22.5620 C   0  0  0  0  0  0  0  0  0  0  0  0
  -21.1220   -6.9020   23.7300 C   0  0  0  0  0  3  0  0  0  0  0  0
  -20.9640   -6.1260   24.8940 C   0  0  0  0  0  3  0  0  0  0  0  0
  -21.3370   -4.7680   24.8920 C   0  0  0  0  0  0  0  0  0  0  0  0
  -21.8720   -4.1860   23.7300 C   0  0  0  0  0  3  0  0  0  0  0  0
  -22.0350   -4.9610   22.5680 C   0  0  0  0  0  0  0  0  0  0  0  0
  -22.5320   -4.3890   21.4440 F   0  0  0  0  0  0  0  0  0  0  0  0
  -21.1770   -4.0180   26.0080 F   0  0  0  0  0  0  0  0  0  0  0  0
  -22.9300  -13.6540   21.2290 C   0  0  0  0  0  0  0  0  0  0  0  0
  -22.2520  -12.9430   22.1230 N   0  0  0  0  0  0  0  0  0  0  0  0
  -22.4720  -14.6970   20.7640 O   0  0  0  0  0  0  0  0  0  0  0  0
  -22.6360  -12.1000   22.5210 H   0  0  0  0  0  0  0  0  0  0  0  0
  -21.3350  -13.2500   22.4160 H   0  0  0  0  0  0  0  0  0  0  0  0
  -25.5000  -15.3190   20.2880 N   0  0  0  0  0  0  0  0  0  0  0  0
  -24.7330  -15.9620   20.4510 H   0  0  0  0  0  0  0  0  0  0  0  0
  -26.3180  -15.7730   19.8990 H   0  0  0  0  0  0  0  0  0  0  0  0
  1  2  1  0
  1  7  2  0
  2  8  2  0
  3  4  1  0
  3  9  1  0
  4 53  1  0
  5  1  1  0
  6  2  1  0
  7  3  1  0
  8  4  1  0
 10 11  2  0
 10  9  1  0
 11 12  1  0
 13 24  2  0
 14 12  1  0
 14 19  1  0
 15 23  1  0
 15 25  1  0
 16 22  1  0
 16 18  1  0
 17 23  1  0
 18 19  2  0
 18 17  1  0
 20 14  2  0
 21 20  1  0
 21 16  2  0
 22 15  1  0
 23 13  1  0
 25 27  2  0
 26 25  1  0
 28 26  1  0
 29 38  2  0
 29 34  1  0
 30 26  1  0
 30 34  1  0
 31 30  1  0
 32 33  1  0
 32 31  1  0
 33 29  1  0
 34 35  2  0
 35 36  1  0
 37 36  2  0
 38 37  1  0
 39 13  1  0
 39 44  1  0
 39 40  1  0
 40 43  1  1
 40 41  1  0
 42 40  1  0
 44 47  1  0
 45 49  1  0
 45 44  1  0
 46 45  2  0
 49 48  1  0
 51 49  1  0
 51 52  1  0
 51 50  1  0
 53 63  1  0
 54 63  1  0
 55 60  1  0
 56 57  1  0
 56 55  1  0
 58 57  1  0
 58 67  1  0
 58 59  1  0
 60 54  1  0
 60 59  1  0
 61 54  2  0
 63 62  1  0
 64 65  2  0
 65 84  1  0
 66 65  1  0
 66 69  1  0
 67 68  1  0
 67 64  1  0
 68 66  2  0
 69 70  1  0
 70 71  2  0
 72 75  1  0
 72 71  1  0
 73 72  2  0
 74 73  1  0
 74 69  2  0
 75 76  1  0
 76 81  2  0
 76 77  1  0
 77 78  2  0
 79 78  1  0
 79 83  1  0
 80 79  2  0
 81 80  1  0
 82 81  1  0
 84 85  1  0
 85 88  1  0
 85 87  1  0
 86 84  2  0
 89 64  1  0
 89 90  1  0
 91 89  1  0
M  ISO  4  11 101  12 101  54 100  63 100
M  END
>  <TORSDO>  (59) 
F 20

>  <SCORE>  (59) 
-14.195

>  <name>  (59) 
58

>  <ligand_id>  (59) 
58

>  <original_smiles>  (59) 
[H]c1c([H])c([H])c2c(c1[H])C([H])([H])C([H])([H])C([H])([H])C2([H])N([H])C(=O)C1([H])N(C(=O)C([H])(N([H])C(=O)C([H])(N([H])C([H])([H])[H])C([H])([H])[H])C(C([H])([H])[H])(C([H])([H])[H])C([H])([H])[H])C([H])([H])c2c([H])c(OC([H])([H])C([H])([H])C([H])([H])c3nc(C([H])([H])[H])c(C([H])([H])[H])nc3C([H])([H])N(C(=O)N3C([H])([H])C([H])([H])C([H])([H])C([H])(n4nc(-c5c([H])c([H])c(Oc6c([H])c([H])c(F)c([H])c6F)c([H])c5[H])c(C(=O)N([H])[H])c4N([H])[H])C3([H])[H])C([H])([H])[H])c([H])c([H])c2C1([H])[H]

>  <smiles>  (59) 
[H]c1c([H])c([H])c2c(c1[H])C([H])([H])C([H])([H])C([H])([H])C2([H])N([H])C(=O)C1([H])N(C(=O)C([H])(N([H])C(=O)C([H])(N([H])C([H])([H])[H])C([H])([H])[H])C(C([H])([H])[H])(C([H])([H])[H])C([H])([H])[H])C([H])([H])c2c([H])c(OC([H])([H])C([H])([H])C([H])([H])c3nc(C([H])([H])[H])c(C([H])([H])[H])nc3C([H])([H])N(C(=O)N3C([H])([H])C([H])([H])C([H])([H])C([H])(n4nc(-c5c([H])c([H])c(Oc6c([H])c([H])c(F)c([H])c6F)c([H])c5[H])c(C(=O)N([H])[H])c4N([H])[H])C3([H])[H])C([H])([H])[H])c([H])c([H])c2C1([H])[H]

$$$$
60:0:0
     RDKit          3D

 94102  0  0  1  0  0  0  0  0999 V2000
  -29.2440  -22.5440   20.1040 N   0  0  1  0  0  4  0  0  0  0  0  0
  -28.9260  -22.4350   21.0530 H   0  0  0  0  0  0  0  0  0  0  0  0
  -28.8560  -21.2340   19.4220 C   0  0  0  0  0  2  0  0  0  0  0  0
  -29.5820  -19.3670   21.1450 C   0  0  0  0  0  3  0  0  0  0  0  0
  -30.1240  -17.6690   19.1060 C   0  0  0  0  0  3  0  0  0  0  0  0
  -29.5160  -19.8490   19.8120 C   0  0  0  0  0  0  0  0  0  0  0  0
  -30.1280  -17.1800   20.4400 C   0  0  0  0  0  0  0  0  0  0  0  0
  -29.8280  -18.9780   18.8010 N   0  0  0  0  0  0  0  0  0  0  0  0
  -29.8940  -18.0730   21.4520 N   0  0  0  0  0  0  0  0  0  0  0  0
  -30.1810  -15.6680   20.8760 C   0  0  1  0  0  0  0  0  0  0  0  0
  -30.9390  -15.5810   21.9730 F   0  0  0  0  0  0  0  0  0  0  0  0
  -28.9200  -15.4610   21.2470 F   0  0  0  0  0  0  0  0  0  0  0  0
  -30.6760  -14.5140   19.8950 C   0  0  0  0  0  0  0  0  0  0  0  0
  -30.3050  -12.3880   18.6290 C   0  0  0  0  0  2  0  0  0  0  0  0
  -29.2380  -12.5920   17.5280 C   0  0  0  0  0  2  0  0  0  0  0  0
  -27.8050  -12.4480   18.0810 C   0  0  0  0  0  2  0  0  0  0  0  0
  -27.6000  -13.2270   19.4070 C   0  0  0  0  0  3  0  0  0  0  0  0
  -28.7510  -12.9020   20.3880 C   0  0  0  0  0  2  0  0  0  0  0  0
  -30.0060  -13.3170   19.7400 N   0  0  0  0  0  0  0  0  0  0  0  0
  -31.7250  -14.7050   19.2660 O   0  0  0  0  0  0  0  0  0  0  0  0
  -25.2730  -13.8650   20.3030 C   0  0  0  0  0  0  0  0  0  0  0  0
  -24.2230  -13.1040   20.7390 C   0  0  0  0  0  0  0  0  0  0  0  0
  -24.6550  -11.7450   20.6500 C   0  0  0  0  0  0  0  0  0  0  0  0
  -26.2840  -12.9700   19.9830 N   0  0  0  0  0  0  0  0  0  0  0  0
  -25.9170  -11.6880   20.2420 N   0  0  0  0  0  0  0  0  0  0  0  0
  -23.9240  -10.4930   20.8720 C   0  0  0  0  0  0  0  0  0  0  0  0
  -24.3750   -9.5320   21.8020 C   0  0  0  0  0  3  0  0  0  0  0  0
  -23.6450   -8.3410   22.0140 C   0  0  0  0  0  3  0  0  0  0  0  0
  -22.4500   -8.1070   21.2940 C   0  0  0  0  0  0  0  0  0  0  0  0
  -22.0170   -9.0560   20.3520 C   0  0  0  0  0  3  0  0  0  0  0  0
  -22.7470  -10.2370   20.1390 C   0  0  0  0  0  3  0  0  0  0  0  0
  -21.6890   -6.9700   21.4130 O   0  0  0  0  0  0  0  0  0  0  0  0
  -21.6170   -6.2730   22.5930 C   0  0  0  0  0  0  0  0  0  0  0  0
  -21.1780   -6.8800   23.7910 C   0  0  0  0  0  3  0  0  0  0  0  0
  -21.0460   -6.1070   24.9630 C   0  0  0  0  0  3  0  0  0  0  0  0
  -21.3490   -4.7330   24.9390 C   0  0  0  0  0  0  0  0  0  0  0  0
  -21.7860   -4.1280   23.7470 C   0  0  0  0  0  3  0  0  0  0  0  0
  -21.9140   -4.8960   22.5770 C   0  0  0  0  0  0  0  0  0  0  0  0
  -22.3110   -4.3030   21.4250 F   0  0  0  0  0  0  0  0  0  0  0  0
  -21.2180   -3.9910   26.0620 F   0  0  0  0  0  0  0  0  0  0  0  0
  -22.8600  -13.5990   21.1290 C   0  0  0  0  0  0  0  0  0  0  0  0
  -22.1960  -12.9130   22.0520 N   0  0  0  0  0  0  0  0  0  0  0  0
  -22.3970  -14.6340   20.6500 O   0  0  0  0  0  0  0  0  0  0  0  0
  -22.5810  -12.0730   22.4580 H   0  0  0  0  0  0  0  0  0  0  0  0
  -21.2890  -13.2360   22.3580 H   0  0  0  0  0  0  0  0  0  0  0  0
  -25.4480  -15.2360   20.1360 N   0  0  0  0  0  0  0  0  0  0  0  0
  -24.7040  -15.9000   20.3240 H   0  0  0  0  0  0  0  0  0  0  0  0
  -26.2770  -15.6730   19.7560 H   0  0  0  0  0  0  0  0  0  0  0  0
  -30.7200  -22.7140   20.1710 C   0  0  0  0  0  2  0  0  0  0  0  0
  -32.7550  -21.9340   21.5270 C   0  0  0  0  0  1  0  0  0  0  0  0
  -31.2620  -22.2790   21.5450 C   0  0  0  0  0  2  0  0  0  0  0  0
  -28.5490  -23.8130   19.5790 C   0  0  0  0  0  2  0  0  0  0  0  0
  -28.4670  -25.0750   20.5710 C   0  0  0  0  0  2  0  0  0  0  0  0
  -28.4690  -26.4640   20.0670 O   0  0  0  0  0  0  0  0  0  0  0  0
  -24.5300  -31.7110   23.1560 C   0  0  0  0  0  0  0  0  0  0  0  0
  -27.3020  -27.2310   20.1200 C   0  0  0  0  0  0  0  0  0  0  0  0
  -23.3890  -30.3050   21.4750 C   0  0  0  0  0  3  0  0  0  0  0  0
  -24.8980  -28.7700   20.0910 C   0  0  0  0  0  0  0  0  0  0  0  0
  -25.9260  -30.6650   21.3550 C   0  0  0  0  0  2  0  0  0  0  0  0
  -26.0460  -29.2910   20.7060 C   0  0  0  0  0  0  0  0  0  0  0  0
  -27.2550  -28.5360   20.6990 C   0  0  0  0  0  3  0  0  0  0  0  0
  -26.1280  -26.7410   19.5140 C   0  0  0  0  0  3  0  0  0  0  0  0
  -24.9410  -27.5000   19.4890 C   0  0  0  0  0  3  0  0  0  0  0  0
  -23.6510  -29.6310   20.1000 C   0  0  0  0  0  2  0  0  0  0  0  0
  -24.6320  -30.9110   22.0530 N   0  0  0  0  0  0  0  0  0  0  0  0
  -23.4300  -31.9700   23.6650 O   0  0  0  0  0  0  0  0  0  0  0  0
  -22.7140  -29.2770   22.4140 C   0  0  0  0  0  0  0  0  0  0  0  0
  -21.3880  -29.1040   22.2690 N   0  0  0  0  0  0  0  0  0  0  0  0
  -23.3820  -28.6360   23.2300 O   0  0  0  0  0  0  0  0  0  0  0  0
  -20.9090  -29.6790   21.5910 H   0  0  0  0  0  0  0  0  0  0  0  0
  -18.0030  -27.9070   22.7160 C   0  0  0  0  0  0  0  0  0  0  0  0
  -20.5610  -28.1530   23.0120 C   0  0  0  0  0  3  0  0  0  0  0  0
  -20.6610  -26.7310   22.4100 C   0  0  0  0  0  2  0  0  0  0  0  0
  -19.5670  -26.4330   21.3790 C   0  0  0  0  0  2  0  0  0  0  0  0
  -18.1810  -26.5690   22.0150 C   0  0  0  0  0  2  0  0  0  0  0  0
  -19.1220  -28.6580   23.1690 C   0  0  0  0  0  0  0  0  0  0  0  0
  -18.9040  -29.9090   23.7840 C   0  0  0  0  0  3  0  0  0  0  0  0
  -17.6020  -30.4110   23.9530 C   0  0  0  0  0  3  0  0  0  0  0  0
  -16.4970  -29.6590   23.5160 C   0  0  0  0  0  3  0  0  0  0  0  0
  -16.6990  -28.4100   22.9010 C   0  0  0  0  0  3  0  0  0  0  0  0
  -25.7870  -32.3570   23.8180 C   0  0  0  0  0  3  0  0  0  0  0  0
  -25.4460  -33.7480   24.1540 N   0  0  0  0  0  0  0  0  0  0  0  0
  -25.7770  -34.8150   23.4140 C   0  0  0  0  0  0  0  0  0  0  0  0
  -26.4700  -34.7330   22.3970 O   0  0  0  0  0  0  0  0  0  0  0  0
  -24.8300  -33.8810   24.9430 H   0  0  0  0  0  0  0  0  0  0  0  0
  -24.0340  -36.5940   23.0400 C   0  0  0  0  0  1  0  0  0  0  0  0
  -25.2590  -36.1910   23.8770 C   0  0  0  0  0  3  0  0  0  0  0  0
  -27.3610  -37.0980   24.7700 C   0  0  0  0  0  1  0  0  0  0  0  0
  -26.2800  -37.2600   23.8010 N   0  0  0  0  0  0  0  0  0  0  0  0
  -25.8560  -38.1720   23.9500 H   0  0  0  0  0  0  0  0  0  0  0  0
  -26.2820  -31.5820   25.1020 C   0  0  1  0  0  0  0  0  0  0  0  0
  -25.1640  -31.3240   26.1400 C   0  0  0  0  0  1  0  0  0  0  0  0
  -26.8990  -30.2170   24.7180 C   0  0  0  0  0  1  0  0  0  0  0  0
  -27.4040  -32.3880   25.7990 C   0  0  0  0  0  1  0  0  0  0  0  0
  1 49  1  0
  1  2  1  1
  3  6  1  0
  3  1  1  0
  4  9  1  0
  5  7  1  0
  6  4  2  0
  7 10  1  0
  7  9  2  0
  8  5  2  0
  8  6  1  0
 10 12  1  1
 10 11  1  0
 13 10  1  0
 14 19  1  0
 15 16  1  0
 15 14  1  0
 17 16  1  0
 17 24  1  0
 17 18  1  0
 19 13  1  0
 19 18  1  0
 20 13  2  0
 21 22  2  0
 22 41  1  0
 23 22  1  0
 23 26  1  0
 24 25  1  0
 24 21  1  0
 25 23  2  0
 26 27  1  0
 27 28  2  0
 29 32  1  0
 29 28  1  0
 30 29  2  0
 31 30  1  0
 31 26  2  0
 32 33  1  0
 33 34  1  0
 34 35  2  0
 36 35  1  0
 36 40  1  0
 37 36  2  0
 38 33  2  0
 38 37  1  0
 39 38  1  0
 41 42  1  0
 42 45  1  0
 42 44  1  0
 43 41  2  0
 46 21  1  0
 46 47  1  0
 48 46  1  0
 49 51  1  0
 50 51  1  0
 52  1  1  0
 52 53  1  0
 54 56  1  0
 54 53  1  0
 55 66  2  0
 56 61  1  0
 57 65  1  0
 57 67  1  0
 58 64  1  0
 58 60  1  0
 59 65  1  0
 60 59  1  0
 61 60  2  0
 62 56  2  0
 63 62  1  0
 63 58  2  0
 64 57  1  0
 65 55  1  0
 67 69  2  0
 68 67  1  0
 70 68  1  0
 71 80  2  0
 71 76  1  0
 72 68  1  0
 72 76  1  0
 73 72  1  0
 74 75  1  0
 74 73  1  0
 75 71  1  0
 76 77  2  0
 77 78  1  0
 79 78  2  0
 80 79  1  0
 81 55  1  0
 81 82  1  0
 81 91  1  0
 82 85  1  0
 83 87  1  0
 83 82  1  0
 84 83  2  0
 87 86  1  0
 89 87  1  0
 89 90  1  0
 89 88  1  0
 91 94  1  1
 91 92  1  0
 93 91  1  0
M  ISO  4  10 100  13 100  53 101  54 101
M  END
>  <TORSDO>  (60) 
F 23

>  <SCORE>  (60) 
-12.018

>  <name>  (60) 
60

>  <ligand_id>  (60) 
60

>  <original_smiles>  (60) 
[H]c1nc(C([H])([H])[N+]([H])(C([H])([H])C([H])([H])Oc2c([H])c([H])c3c(c2[H])C([H])([H])N(C(=O)C([H])(N([H])C(=O)C([H])(N([H])C([H])([H])[H])C([H])([H])[H])C(C([H])([H])[H])(C([H])([H])[H])C([H])([H])[H])C([H])(C(=O)N([H])C2([H])c4c([H])c([H])c([H])c([H])c4C([H])([H])C([H])([H])C2([H])[H])C3([H])[H])C([H])([H])C([H])([H])C([H])([H])[H])c([H])nc1C(F)(F)C(=O)N1C([H])([H])C([H])([H])C([H])([H])C([H])(n2nc(-c3c([H])c([H])c(Oc4c([H])c([H])c(F)c([H])c4F)c([H])c3[H])c(C(=O)N([H])[H])c2N([H])[H])C1([H])[H]

>  <smiles>  (60) 
[H]c1nc(C([H])([H])[N+]([H])(C([H])([H])C([H])([H])Oc2c([H])c([H])c3c(c2[H])C([H])([H])N(C(=O)C([H])(N([H])C(=O)C([H])(N([H])C([H])([H])[H])C([H])([H])[H])C(C([H])([H])[H])(C([H])([H])[H])C([H])([H])[H])C([H])(C(=O)N([H])C2([H])c4c([H])c([H])c([H])c([H])c4C([H])([H])C([H])([H])C2([H])[H])C3([H])[H])C([H])([H])C([H])([H])C([H])([H])[H])c([H])nc1C(F)(F)C(=O)N1C([H])([H])C([H])([H])C([H])([H])C([H])(n2nc(-c3c([H])c([H])c(Oc4c([H])c([H])c(F)c([H])c4F)c([H])c3[H])c(C(=O)N([H])[H])c2N([H])[H])C1([H])[H]

$$$$
61:0:0
     RDKit          3D

 97105  0  0  1  0  0  0  0  0999 V2000
  -30.1540  -19.8340   20.4020 C   0  0  0  0  0  3  0  0  0  0  0  0
  -29.6080  -20.8280   19.6230 C   0  0  0  0  0  0  0  0  0  0  0  0
  -28.4000  -18.9600   19.3600 C   0  0  0  0  0  3  0  0  0  0  0  0
  -27.3120  -18.0370   18.9090 C   0  0  0  0  0  1  0  0  0  0  0  0
  -29.3950  -18.6990   20.2270 N   0  0  0  0  0  0  0  0  0  0  0  0
  -28.5580  -20.2310   18.9680 N   0  0  0  0  0  0  0  0  0  0  0  0
  -27.9620  -20.6860   18.2810 H   0  0  0  0  0  0  0  0  0  0  0  0
  -29.9860  -22.2760   19.4300 C   0  0  0  0  0  2  0  0  0  0  0  0
  -29.8230  -23.1050   20.7260 C   0  0  0  0  0  2  0  0  0  0  0  0
  -31.4170  -24.8810   19.9000 C   0  0  0  0  0  1  0  0  0  0  0  0
  -30.1510  -24.5590   20.6050 N   0  0  2  0  0  4  0  0  0  0  0  0
  -29.4120  -24.9720   20.0450 H   0  0  0  0  0  0  0  0  0  0  0  0
  -30.0280  -25.2880   21.8970 C   0  0  0  0  0  2  0  0  0  0  0  0
  -29.2730  -26.6130   21.7120 C   0  0  0  0  0  2  0  0  0  0  0  0
  -28.4100  -26.4610   20.5790 O   0  0  0  0  0  0  0  0  0  0  0  0
  -24.5640  -31.7970   23.2800 C   0  0  0  0  0  0  0  0  0  0  0  0
  -27.2790  -27.2360   20.5260 C   0  0  0  0  0  0  0  0  0  0  0  0
  -23.3830  -30.2980   21.6990 C   0  0  0  0  0  3  0  0  0  0  0  0
  -24.8670  -28.6920   20.3870 C   0  0  0  0  0  0  0  0  0  0  0  0
  -25.9000  -30.6760   21.5080 C   0  0  0  0  0  2  0  0  0  0  0  0
  -26.0040  -29.2700   20.9610 C   0  0  0  0  0  0  0  0  0  0  0  0
  -27.2140  -28.5550   21.0280 C   0  0  0  0  0  3  0  0  0  0  0  0
  -26.1340  -26.6690   19.9340 C   0  0  0  0  0  3  0  0  0  0  0  0
  -24.9260  -27.3870   19.8640 C   0  0  0  0  0  3  0  0  0  0  0  0
  -23.6140  -29.5340   20.3660 C   0  0  0  0  0  2  0  0  0  0  0  0
  -24.6320  -30.9400   22.2210 N   0  0  0  0  0  0  0  0  0  0  0  0
  -23.4770  -32.0960   23.7900 O   0  0  0  0  0  0  0  0  0  0  0  0
  -22.7220  -29.3330   22.7100 C   0  0  0  0  0  0  0  0  0  0  0  0
  -21.4180  -29.0770   22.5230 N   0  0  0  0  0  0  0  0  0  0  0  0
  -23.3840  -28.8120   23.6130 O   0  0  0  0  0  0  0  0  0  0  0  0
  -20.9490  -29.5500   21.7620 H   0  0  0  0  0  0  0  0  0  0  0  0
  -18.0810  -27.7480   22.8950 C   0  0  0  0  0  0  0  0  0  0  0  0
  -20.5940  -28.1700   23.3220 C   0  0  0  0  0  3  0  0  0  0  0  0
  -20.8100  -26.7020   22.8960 C   0  0  0  0  0  2  0  0  0  0  0  0
  -19.8050  -26.2250   21.8420 C   0  0  0  0  0  2  0  0  0  0  0  0
  -18.3730  -26.3530   22.3690 C   0  0  0  0  0  2  0  0  0  0  0  0
  -19.1260  -28.6080   23.3270 C   0  0  0  0  0  0  0  0  0  0  0  0
  -18.8020  -29.9090   23.7720 C   0  0  0  0  0  3  0  0  0  0  0  0
  -17.4660  -30.3510   23.7940 C   0  0  0  0  0  3  0  0  0  0  0  0
  -16.4350  -29.4910   23.3810 C   0  0  0  0  0  3  0  0  0  0  0  0
  -16.7420  -28.1920   22.9380 C   0  0  0  0  0  3  0  0  0  0  0  0
  -25.8420  -32.4620   23.8820 C   0  0  0  0  0  3  0  0  0  0  0  0
  -25.5180  -33.8660   24.1620 N   0  0  0  0  0  0  0  0  0  0  0  0
  -25.8420  -34.8920   23.3620 C   0  0  0  0  0  0  0  0  0  0  0  0
  -26.5140  -34.7580   22.3360 O   0  0  0  0  0  0  0  0  0  0  0  0
  -24.9190  -34.0450   24.9530 H   0  0  0  0  0  0  0  0  0  0  0  0
  -24.0860  -36.6440   22.9470 C   0  0  0  0  0  1  0  0  0  0  0  0
  -25.3380  -36.2900   23.7670 C   0  0  0  0  0  3  0  0  0  0  0  0
  -27.4680  -37.2300   24.5440 C   0  0  0  0  0  1  0  0  0  0  0  0
  -26.3560  -37.3520   23.6060 N   0  0  0  0  0  0  0  0  0  0  0  0
  -25.9390  -38.2720   23.7280 H   0  0  0  0  0  0  0  0  0  0  0  0
  -26.3680  -31.7370   25.1810 C   0  0  1  0  0  0  0  0  0  0  0  0
  -25.2680  -31.4750   26.2350 C   0  0  0  0  0  1  0  0  0  0  0  0
  -27.0110  -30.3760   24.8210 C   0  0  0  0  0  1  0  0  0  0  0  0
  -27.4740  -32.5890   25.8460 C   0  0  0  0  0  1  0  0  0  0  0  0
  -29.5930  -17.3850   20.8850 C   0  0  0  0  0  2  0  0  0  0  0  0
  -30.5200  -16.4390   20.0810 C   0  0  0  0  0  2  0  0  0  0  0  0
  -30.4810  -14.1550   19.3160 C   0  0  0  0  0  0  0  0  0  0  0  0
  -29.6210  -12.2660   17.9780 C   0  0  0  0  0  2  0  0  0  0  0  0
  -28.5120  -12.7380   17.0280 C   0  0  0  0  0  2  0  0  0  0  0  0
  -27.1430  -12.6270   17.7170 C   0  0  0  0  0  2  0  0  0  0  0  0
  -27.1350  -13.2800   19.1240 C   0  0  0  0  0  3  0  0  0  0  0  0
  -28.3680  -12.8780   19.9540 C   0  0  0  0  0  2  0  0  0  0  0  0
  -29.5950  -13.1250   19.1760 N   0  0  0  0  0  0  0  0  0  0  0  0
  -31.3410  -14.3930   18.4610 O   0  0  0  0  0  0  0  0  0  0  0  0
  -30.3580  -14.9900   20.3880 N   0  0  0  0  0  0  0  0  0  0  0  0
  -24.9550  -13.8750   20.3470 C   0  0  0  0  0  0  0  0  0  0  0  0
  -23.9560  -13.1020   20.8770 C   0  0  0  0  0  0  0  0  0  0  0  0
  -24.3520  -11.7490   20.6680 C   0  0  0  0  0  0  0  0  0  0  0  0
  -25.8980  -12.9930   19.8480 N   0  0  0  0  0  0  0  0  0  0  0  0
  -25.5500  -11.7010   20.0990 N   0  0  0  0  0  0  0  0  0  0  0  0
  -23.6240  -10.4990   20.9270 C   0  0  0  0  0  0  0  0  0  0  0  0
  -24.1690   -9.4960   21.7590 C   0  0  0  0  0  3  0  0  0  0  0  0
  -23.4490   -8.3080   22.0100 C   0  0  0  0  0  3  0  0  0  0  0  0
  -22.1740   -8.1120   21.4280 C   0  0  0  0  0  0  0  0  0  0  0  0
  -21.6450   -9.1050   20.5840 C   0  0  0  0  0  3  0  0  0  0  0  0
  -22.3630  -10.2880   20.3350 C   0  0  0  0  0  3  0  0  0  0  0  0
  -21.4200   -6.9730   21.5860 O   0  0  0  0  0  0  0  0  0  0  0  0
  -21.4950   -6.2110   22.7240 C   0  0  0  0  0  0  0  0  0  0  0  0
  -21.2430   -6.7530   24.0040 C   0  0  0  0  0  3  0  0  0  0  0  0
  -21.2630   -5.9180   25.1400 C   0  0  0  0  0  3  0  0  0  0  0  0
  -21.5300   -4.5430   24.9980 C   0  0  0  0  0  0  0  0  0  0  0  0
  -21.7740   -4.0000   23.7240 C   0  0  0  0  0  3  0  0  0  0  0  0
  -21.7540   -4.8320   22.5900 C   0  0  0  0  0  0  0  0  0  0  0  0
  -21.9670   -4.3000   21.3620 F   0  0  0  0  0  0  0  0  0  0  0  0
  -21.5440   -3.7380   26.0860 F   0  0  0  0  0  0  0  0  0  0  0  0
  -22.6630  -13.5970   21.4580 C   0  0  0  0  0  0  0  0  0  0  0  0
  -22.1040  -12.8750   22.4240 N   0  0  0  0  0  0  0  0  0  0  0  0
  -22.1610  -14.6560   21.0850 O   0  0  0  0  0  0  0  0  0  0  0  0
  -22.5220  -12.0170   22.7530 H   0  0  0  0  0  0  0  0  0  0  0  0
  -21.2430  -13.1930   22.8440 H   0  0  0  0  0  0  0  0  0  0  0  0
  -25.1320  -15.2480   20.2260 N   0  0  0  0  0  0  0  0  0  0  0  0
  -24.4230  -15.9230   20.4940 H   0  0  0  0  0  0  0  0  0  0  0  0
  -25.9390  -15.6650   19.7840 H   0  0  0  0  0  0  0  0  0  0  0  0
  -30.3660  -13.4590   22.4160 C   0  0  0  0  0  1  0  0  0  0  0  0
  -32.5380  -14.3800   21.5150 C   0  0  0  0  0  1  0  0  0  0  0  0
  -31.0200  -14.6390   21.6750 C   0  0  0  0  0  3  0  0  0  0  0  0
  2  1  2  0
  3  4  1  0
  3  5  1  0
  5  1  1  0
  5 56  1  0
  6  3  1  0
  6  2  1  0
  7  6  1  0
  8  2  1  0
  8  9  1  0
 10 11  1  0
 11  9  1  0
 11 13  1  0
 11 12  1  6
 14 13  1  0
 15 14  1  0
 16 27  2  0
 17 15  1  0
 17 22  1  0
 18 26  1  0
 18 28  1  0
 19 21  1  0
 20 26  1  0
 21 22  2  0
 21 20  1  0
 23 17  2  0
 24 23  1  0
 24 19  2  0
 25 19  1  0
 25 18  1  0
 26 16  1  0
 28 30  2  0
 29 28  1  0
 31 29  1  0
 32 41  2  0
 32 37  1  0
 33 29  1  0
 33 37  1  0
 34 33  1  0
 35 36  1  0
 35 34  1  0
 36 32  1  0
 37 38  2  0
 38 39  1  0
 40 39  2  0
 41 40  1  0
 42 16  1  0
 42 43  1  0
 42 52  1  0
 43 46  1  0
 44 48  1  0
 44 43  1  0
 45 44  2  0
 48 47  1  0
 50 51  1  0
 50 48  1  0
 50 49  1  0
 52 55  1  1
 52 53  1  0
 54 52  1  0
 57 66  1  0
 57 56  1  0
 58 66  1  0
 59 64  1  0
 60 61  1  0
 60 59  1  0
 62 61  1  0
 62 70  1  0
 62 63  1  0
 64 58  1  0
 64 63  1  0
 65 58  2  0
 66 97  1  0
 67 68  2  0
 68 87  1  0
 69 68  1  0
 69 72  1  0
 70 71  1  0
 70 67  1  0
 71 69  2  0
 72 73  1  0
 73 74  2  0
 75 78  1  0
 75 74  1  0
 76 75  2  0
 77 76  1  0
 77 72  2  0
 78 79  1  0
 79 80  1  0
 80 81  2  0
 82 81  1  0
 82 86  1  0
 83 82  2  0
 84 79  2  0
 84 83  1  0
 85 84  1  0
 87 88  1  0
 88 90  1  0
 88 91  1  0
 89 87  2  0
 92 67  1  0
 92 93  1  0
 94 92  1  0
 96 97  1  0
 97 95  1  0
M  ISO  4  14 101  15 101  58 100  66 100
M  END
>  <TORSDO>  (61) 
F 24

>  <SCORE>  (61) 
-8.418

>  <name>  (61) 
61

>  <ligand_id>  (61) 
61

>  <original_smiles>  (61) 
[H]c1c([H])c([H])c2c(c1[H])C([H])([H])C([H])([H])C([H])([H])C2([H])N([H])C(=O)C1([H])N(C(=O)C([H])(N([H])C(=O)C([H])(N([H])C([H])([H])[H])C([H])([H])[H])C(C([H])([H])[H])(C([H])([H])[H])C([H])([H])[H])C([H])([H])c2c([H])c(OC([H])([H])C([H])([H])[N+]([H])(C([H])([H])[H])C([H])([H])C([H])([H])c3c([H])n(C([H])([H])C([H])([H])N(C(=O)N4C([H])([H])C([H])([H])C([H])([H])C([H])(n5nc(-c6c([H])c([H])c(Oc7c([H])c([H])c(F)c([H])c7F)c([H])c6[H])c(C(=O)N([H])[H])c5N([H])[H])C4([H])[H])C([H])(C([H])([H])[H])C([H])([H])[H])c(C([H])([H])[H])[n+]3[H])c([H])c([H])c2C1([H])[H]

>  <smiles>  (61) 
[H]c1c([H])c([H])c2c(c1[H])C([H])([H])C([H])([H])C([H])([H])C2([H])N([H])C(=O)C1([H])N(C(=O)C([H])(N([H])C(=O)C([H])(N([H])C([H])([H])[H])C([H])([H])[H])C(C([H])([H])[H])(C([H])([H])[H])C([H])([H])[H])C([H])([H])c2c([H])c(OC([H])([H])C([H])([H])[N+]([H])(C([H])([H])[H])C([H])([H])C([H])([H])c3c([H])n(C([H])([H])C([H])([H])N(C(=O)N4C([H])([H])C([H])([H])C([H])([H])C([H])(n5nc(-c6c([H])c([H])c(Oc7c([H])c([H])c(F)c([H])c7F)c([H])c6[H])c(C(=O)N([H])[H])c5N([H])[H])C4([H])[H])C([H])(C([H])([H])[H])C([H])([H])[H])c(C([H])([H])[H])[n+]3[H])c([H])c([H])c2C1([H])[H]

$$$$
62:0:0
     RDKit          3D

 88 96  0  0  1  0  0  0  0  0999 V2000
  -29.5250  -21.6070   22.0480 C   0  0  0  0  0  0  0  0  0  0  0  0
  -29.4280  -20.2770   20.1950 C   0  0  0  0  0  0  0  0  0  0  0  0
  -28.7940  -22.7970   20.2290 C   0  0  0  0  0  0  0  0  0  0  0  0
  -29.8560  -21.6600   23.5250 C   0  0  0  0  0  1  0  0  0  0  0  0
  -29.6820  -20.3930   21.4940 N   0  0  0  0  0  4  0  0  0  0  0  0
  -29.1240  -22.7770   21.5190 N   0  0  0  0  0  0  0  0  0  0  0  0
  -28.9600  -21.5060   19.5440 N   0  0  0  0  0  2  0  0  0  0  0  0
  -29.8970  -18.6820   19.5390 C   0  0  0  0  0  2  0  0  0  0  0  0
  -30.5780  -15.7480   19.8320 C   0  0  0  0  0  0  0  0  0  0  0  0
  -30.6010  -13.2500   19.0280 C   0  0  0  0  0  2  0  0  0  0  0  0
  -29.6350  -12.9490   17.8510 C   0  0  0  0  0  2  0  0  0  0  0  0
  -28.2250  -12.6270   18.3710 C   0  0  0  0  0  2  0  0  0  0  0  0
  -27.7940  -13.6060   19.4900 C   0  0  0  0  0  3  0  0  0  0  0  0
  -28.8890  -13.8450   20.5560 C   0  0  0  0  0  2  0  0  0  0  0  0
  -30.0570  -14.4060   19.8520 N   0  0  0  0  0  0  0  0  0  0  0  0
  -31.7720  -15.7480   19.4920 O   0  0  0  0  0  0  0  0  0  0  0  0
  -29.8090  -17.0360   19.9900 N   0  0  0  0  0  0  0  0  0  0  0  0
  -28.8860  -16.8470   20.3520 H   0  0  0  0  0  0  0  0  0  0  0  0
  -25.4890  -14.1170   20.4410 C   0  0  0  0  0  0  0  0  0  0  0  0
  -24.4520  -13.3230   20.8410 C   0  0  0  0  0  0  0  0  0  0  0  0
  -24.9080  -11.9750   20.7010 C   0  0  0  0  0  0  0  0  0  0  0  0
  -26.5070  -13.2550   20.0750 N   0  0  0  0  0  0  0  0  0  0  0  0
  -26.1750  -11.9560   20.2990 N   0  0  0  0  0  0  0  0  0  0  0  0
  -24.1860  -10.7060   20.8710 C   0  0  0  0  0  0  0  0  0  0  0  0
  -24.6150   -9.7290   21.7950 C   0  0  0  0  0  3  0  0  0  0  0  0
  -23.8900   -8.5280   21.9550 C   0  0  0  0  0  3  0  0  0  0  0  0
  -22.7220   -8.2960   21.1910 C   0  0  0  0  0  0  0  0  0  0  0  0
  -22.3120   -9.2630   20.2560 C   0  0  0  0  0  3  0  0  0  0  0  0
  -23.0380  -10.4550   20.0940 C   0  0  0  0  0  3  0  0  0  0  0  0
  -21.9690   -7.1490   21.2610 O   0  0  0  0  0  0  0  0  0  0  0  0
  -21.8550   -6.4330   22.4260 C   0  0  0  0  0  0  0  0  0  0  0  0
  -21.2970   -6.9940   23.5950 C   0  0  0  0  0  3  0  0  0  0  0  0
  -21.1350   -6.2010   24.7480 C   0  0  0  0  0  3  0  0  0  0  0  0
  -21.5200   -4.8480   24.7330 C   0  0  0  0  0  0  0  0  0  0  0  0
  -22.0720   -4.2860   23.5680 C   0  0  0  0  0  3  0  0  0  0  0  0
  -22.2350   -5.0760   22.4170 C   0  0  0  0  0  0  0  0  0  0  0  0
  -22.7460   -4.5220   21.2910 F   0  0  0  0  0  0  0  0  0  0  0  0
  -21.3590   -4.0840   25.8400 F   0  0  0  0  0  0  0  0  0  0  0  0
  -23.0800  -13.7890   21.2280 C   0  0  0  0  0  0  0  0  0  0  0  0
  -22.4100  -13.0540   22.1080 N   0  0  0  0  0  0  0  0  0  0  0  0
  -22.6150  -14.8390   20.7880 O   0  0  0  0  0  0  0  0  0  0  0  0
  -22.8010  -12.2040   22.4840 H   0  0  0  0  0  0  0  0  0  0  0  0
  -21.4920  -13.3470   22.4110 H   0  0  0  0  0  0  0  0  0  0  0  0
  -25.6460  -15.4950   20.3270 N   0  0  0  0  0  0  0  0  0  0  0  0
  -24.8850  -16.1390   20.5190 H   0  0  0  0  0  0  0  0  0  0  0  0
  -26.4540  -15.9490   19.9210 H   0  0  0  0  0  0  0  0  0  0  0  0
  -28.0380  -24.3440   19.7130 C   0  0  0  0  0  2  0  0  0  0  0  0
  -28.1810  -25.9840   20.1190 O   0  0  0  0  0  0  0  0  0  0  0  0
  -24.6580  -31.9950   23.2030 C   0  0  0  0  0  0  0  0  0  0  0  0
  -27.1870  -27.1270   20.0430 C   0  0  0  0  0  0  0  0  0  0  0  0
  -23.4440  -30.6160   21.5650 C   0  0  0  0  0  3  0  0  0  0  0  0
  -24.8790  -29.0430   20.0780 C   0  0  0  0  0  0  0  0  0  0  0  0
  -26.0100  -30.8310   21.3770 C   0  0  0  0  0  2  0  0  0  0  0  0
  -26.0770  -29.4270   20.6900 C   0  0  0  0  0  0  0  0  0  0  0  0
  -27.2180  -28.4910   20.6520 C   0  0  0  0  0  3  0  0  0  0  0  0
  -25.9600  -26.9240   19.3680 C   0  0  0  0  0  3  0  0  0  0  0  0
  -24.8500  -27.8160   19.3950 C   0  0  0  0  0  3  0  0  0  0  0  0
  -23.6540  -29.9580   20.1720 C   0  0  0  0  0  2  0  0  0  0  0  0
  -24.7270  -31.1760   22.1010 N   0  0  0  0  0  0  0  0  0  0  0  0
  -23.5760  -32.2670   23.7500 O   0  0  0  0  0  0  0  0  0  0  0  0
  -22.7750  -29.6030   22.5280 C   0  0  0  0  0  0  0  0  0  0  0  0
  -21.4590  -29.3630   22.3720 N   0  0  0  0  0  0  0  0  0  0  0  0
  -23.4470  -29.0300   23.3890 O   0  0  0  0  0  0  0  0  0  0  0  0
  -20.9640  -29.8780   21.6560 H   0  0  0  0  0  0  0  0  0  0  0  0
  -18.1580  -27.8980   22.7490 C   0  0  0  0  0  0  0  0  0  0  0  0
  -20.6690  -28.3900   23.1370 C   0  0  0  0  0  3  0  0  0  0  0  0
  -20.9190  -26.9510   22.6300 C   0  0  0  0  0  2  0  0  0  0  0  0
  -19.9080  -26.4980   21.5730 C   0  0  0  0  0  2  0  0  0  0  0  0
  -18.4840  -26.5460   22.1360 C   0  0  0  0  0  2  0  0  0  0  0  0
  -19.1830  -28.7700   23.2040 C   0  0  0  0  0  0  0  0  0  0  0  0
  -18.8230  -30.0260   23.7390 C   0  0  0  0  0  3  0  0  0  0  0  0
  -17.4730  -30.4140   23.8220 C   0  0  0  0  0  3  0  0  0  0  0  0
  -16.4620  -29.5430   23.3810 C   0  0  0  0  0  3  0  0  0  0  0  0
  -16.8050  -28.2860   22.8500 C   0  0  0  0  0  3  0  0  0  0  0  0
  -25.9330  -32.6420   23.8220 C   0  0  0  0  0  3  0  0  0  0  0  0
  -25.6110  -34.0380   24.1740 N   0  0  0  0  0  0  0  0  0  0  0  0
  -25.9300  -35.1100   23.4360 C   0  0  0  0  0  0  0  0  0  0  0  0
  -26.5840  -35.0300   22.3950 O   0  0  0  0  0  0  0  0  0  0  0  0
  -25.0260  -34.1740   24.9850 H   0  0  0  0  0  0  0  0  0  0  0  0
  -24.1880  -36.9090   23.1550 C   0  0  0  0  0  1  0  0  0  0  0  0
  -25.4490  -36.4920   23.9300 C   0  0  0  0  0  3  0  0  0  0  0  0
  -27.5890  -37.3850   24.7420 C   0  0  0  0  0  1  0  0  0  0  0  0
  -26.4750  -37.5510   23.8130 N   0  0  0  0  0  0  0  0  0  0  0  0
  -26.0650  -38.4690   23.9710 H   0  0  0  0  0  0  0  0  0  0  0  0
  -26.4590  -31.8730   25.0980 C   0  0  1  0  0  0  0  0  0  0  0  0
  -25.3660  -31.6070   26.1610 C   0  0  0  0  0  1  0  0  0  0  0  0
  -27.0730  -30.5100   24.7100 C   0  0  0  0  0  1  0  0  0  0  0  0
  -27.5900  -32.6880   25.7700 C   0  0  0  0  0  1  0  0  0  0  0  0
  1  4  1  0
  2  5  2  0
  3  6  2  0
  5  1  2  0
  6  1  1  0
  7  2  1  0
  7  3  1  0
  8 17  1  0
  8  2  1  0
  9 15  1  0
  9 17  1  0
 10 15  1  0
 11 12  1  0
 11 10  1  0
 13 12  1  0
 13 22  1  0
 13 14  1  0
 15 14  1  0
 16  9  2  0
 17 18  1  0
 19 20  2  0
 20 39  1  0
 21 20  1  0
 21 24  1  0
 22 23  1  0
 22 19  1  0
 23 21  2  0
 24 25  1  0
 25 26  2  0
 27 30  1  0
 27 26  1  0
 28 27  2  0
 29 28  1  0
 29 24  2  0
 30 31  1  0
 31 32  1  0
 32 33  2  0
 34 33  1  0
 34 38  1  0
 35 34  2  0
 36 31  2  0
 36 35  1  0
 37 36  1  0
 39 40  1  0
 40 43  1  0
 40 42  1  0
 41 39  2  0
 44 19  1  0
 44 45  1  0
 46 44  1  0
 47 48  1  0
 47  3  1  0
 49 60  2  0
 50 48  1  0
 50 55  1  0
 51 59  1  0
 51 61  1  0
 52 58  1  0
 52 54  1  0
 53 59  1  0
 54 53  1  0
 55 54  2  0
 56 57  1  0
 56 50  2  0
 57 52  2  0
 58 51  1  0
 59 49  1  0
 61 63  2  0
 62 61  1  0
 64 62  1  0
 65 74  2  0
 65 70  1  0
 66 62  1  0
 66 70  1  0
 67 66  1  0
 68 69  1  0
 68 67  1  0
 69 65  1  0
 70 71  2  0
 71 72  1  0
 73 72  2  0
 74 73  1  0
 75 49  1  0
 75 76  1  0
 75 85  1  0
 76 79  1  0
 77 81  1  0
 77 76  1  0
 78 77  2  0
 81 80  1  0
 83 81  1  0
 83 84  1  0
 83 82  1  0
 85 88  1  1
 85 86  1  0
 87 85  1  0
M  ISO  4   9 100  17 100  47 101  48 101
M  END
>  <TORSDO>  (62) 
F 18

>  <SCORE>  (62) 
-16.323

>  <name>  (62) 
62

>  <ligand_id>  (62) 
62

>  <original_smiles>  (62) 
[H]c1c([H])c([H])c2c(c1[H])C([H])([H])C([H])([H])C([H])([H])C2([H])N([H])C(=O)C1([H])N(C(=O)C([H])(N([H])C(=O)C([H])(N([H])C([H])([H])[H])C([H])([H])[H])C(C([H])([H])[H])(C([H])([H])[H])C([H])([H])[H])C([H])([H])c2c([H])c(OC([H])([H])c3nc(C([H])([H])[H])nc(C([H])([H])N([H])C(=O)N4C([H])([H])C([H])([H])C([H])([H])C([H])(n5nc(-c6c([H])c([H])c(Oc7c([H])c([H])c(F)c([H])c7F)c([H])c6[H])c(C(=O)N([H])[H])c5N([H])[H])C4([H])[H])n3)c([H])c([H])c2C1([H])[H]

>  <smiles>  (62) 
[H]c1c([H])c([H])c2c(c1[H])C([H])([H])C([H])([H])C([H])([H])C2([H])N([H])C(=O)C1([H])N(C(=O)C([H])(N([H])C(=O)C([H])(N([H])C([H])([H])[H])C([H])([H])[H])C(C([H])([H])[H])(C([H])([H])[H])C([H])([H])[H])C([H])([H])c2c([H])c(OC([H])([H])c3nc(C([H])([H])[H])nc(C([H])([H])N([H])C(=O)N4C([H])([H])C([H])([H])C([H])([H])C([H])(n5nc(-c6c([H])c([H])c(Oc7c([H])c([H])c(F)c([H])c7F)c([H])c6[H])c(C(=O)N([H])[H])c5N([H])[H])C4([H])[H])n3)c([H])c([H])c2C1([H])[H]

$$$$
63:0:0
     RDKit          3D

 91 99  0  0  1  0  0  0  0  0999 V2000
  -27.6580  -21.8300   20.3500 C   0  0  0  0  0  3  0  0  0  0  0  0
  -26.9580  -20.8890   19.5950 C   0  0  0  0  0  3  0  0  0  0  0  0
  -29.0310  -21.7010   20.6920 C   0  0  0  0  0  0  0  0  0  0  0  0
  -27.6300  -19.7610   19.1490 C   0  0  0  0  0  0  0  0  0  0  0  0
  -29.6390  -20.3640   20.2460 C   0  0  0  0  0  0  0  0  0  0  0  0
  -28.9060  -19.5240   19.4760 N   0  0  0  0  0  0  0  0  0  0  0  0
  -27.3190  -19.0550   16.7410 C   0  0  0  0  0  1  0  0  0  0  0  0
  -26.9520  -18.7840   18.2080 C   0  0  0  0  0  2  0  0  0  0  0  0
  -29.5080  -23.0990   21.4590 C   0  0  0  0  0  2  0  0  0  0  0  0
  -28.5110  -24.5070   21.4840 C   0  0  0  0  0  2  0  0  0  0  0  0
  -28.7520  -26.0420   21.7160 O   0  0  0  0  0  0  0  0  0  0  0  0
  -24.7740  -32.0170   23.5740 C   0  0  0  0  0  0  0  0  0  0  0  0
  -27.7180  -27.0210   21.4380 C   0  0  0  0  0  0  0  0  0  0  0  0
  -23.8020  -30.4420   21.9490 C   0  0  0  0  0  3  0  0  0  0  0  0
  -25.4230  -28.7420   20.9090 C   0  0  0  0  0  0  0  0  0  0  0  0
  -26.3580  -30.7140   22.1000 C   0  0  0  0  0  2  0  0  0  0  0  0
  -26.5150  -29.2600   21.6170 C   0  0  0  0  0  0  0  0  0  0  0  0
  -27.6670  -28.4150   21.8600 C   0  0  0  0  0  3  0  0  0  0  0  0
  -26.6070  -26.6130   20.6660 C   0  0  0  0  0  3  0  0  0  0  0  0
  -25.4850  -27.4330   20.4150 C   0  0  0  0  0  3  0  0  0  0  0  0
  -24.2040  -29.6270   20.6930 C   0  0  0  0  0  2  0  0  0  0  0  0
  -24.9920  -31.0870   22.5950 N   0  0  0  0  0  0  0  0  0  0  0  0
  -23.6280  -32.3420   23.9200 O   0  0  0  0  0  0  0  0  0  0  0  0
  -22.9990  -29.5340   22.9140 C   0  0  0  0  0  0  0  0  0  0  0  0
  -21.6870  -29.3730   22.6600 N   0  0  0  0  0  0  0  0  0  0  0  0
  -23.5630  -28.9720   23.8560 O   0  0  0  0  0  0  0  0  0  0  0  0
  -21.2920  -29.8760   21.8780 H   0  0  0  0  0  0  0  0  0  0  0  0
  -18.2250  -28.3480   22.9580 C   0  0  0  0  0  0  0  0  0  0  0  0
  -20.7640  -28.5220   23.4160 C   0  0  0  0  0  3  0  0  0  0  0  0
  -20.8430  -27.0530   22.9390 C   0  0  0  0  0  2  0  0  0  0  0  0
  -19.8100  -26.7120   21.8590 C   0  0  0  0  0  2  0  0  0  0  0  0
  -18.3910  -26.9530   22.3790 C   0  0  0  0  0  2  0  0  0  0  0  0
  -19.3400  -29.0900   23.4300 C   0  0  0  0  0  0  0  0  0  0  0  0
  -19.1300  -30.3950   23.9310 C   0  0  0  0  0  3  0  0  0  0  0  0
  -17.8390  -30.9550   23.9620 C   0  0  0  0  0  3  0  0  0  0  0  0
  -16.7390  -30.2110   23.5060 C   0  0  0  0  0  3  0  0  0  0  0  0
  -16.9310  -28.9080   23.0110 C   0  0  0  0  0  3  0  0  0  0  0  0
  -25.9570  -32.7340   24.2930 C   0  0  0  0  0  3  0  0  0  0  0  0
  -25.6110  -34.1600   24.4120 N   0  0  0  0  0  0  0  0  0  0  0  0
  -26.0230  -35.1200   23.5740 C   0  0  0  0  0  0  0  0  0  0  0  0
  -26.7980  -34.9030   22.6390 O   0  0  0  0  0  0  0  0  0  0  0  0
  -24.9360  -34.4010   25.1220 H   0  0  0  0  0  0  0  0  0  0  0  0
  -24.3270  -36.8370   22.8470 C   0  0  0  0  0  1  0  0  0  0  0  0
  -25.4920  -36.5500   23.8080 C   0  0  0  0  0  3  0  0  0  0  0  0
  -27.5470  -37.5600   24.6980 C   0  0  0  0  0  1  0  0  0  0  0  0
  -26.5270  -37.5960   23.6540 N   0  0  0  0  0  0  0  0  0  0  0  0
  -26.1060  -38.5210   23.6550 H   0  0  0  0  0  0  0  0  0  0  0  0
  -26.2770  -32.1290   25.7160 C   0  0  1  0  0  0  0  0  0  0  0  0
  -25.0310  -31.9580   26.6180 C   0  0  0  0  0  1  0  0  0  0  0  0
  -26.9510  -30.7440   25.5840 C   0  0  0  0  0  1  0  0  0  0  0  0
  -27.2800  -33.0410   26.4600 C   0  0  0  0  0  1  0  0  0  0  0  0
  -31.0760  -19.5850   20.2780 C   0  0  0  0  0  2  0  0  0  0  0  0
  -31.3800  -18.0760   21.0300 C   0  0  0  0  0  2  0  0  0  0  0  0
  -31.6120  -15.3440   20.5770 C   0  0  0  0  0  0  0  0  0  0  0  0
  -31.3730  -13.0190   19.5830 C   0  0  0  0  0  2  0  0  0  0  0  0
  -30.4970  -13.0440   18.3100 C   0  0  0  0  0  2  0  0  0  0  0  0
  -29.0020  -12.9320   18.6670 C   0  0  0  0  0  2  0  0  0  0  0  0
  -28.6020  -13.8630   19.8410 C   0  0  0  0  0  3  0  0  0  0  0  0
  -29.6050  -13.8010   21.0110 C   0  0  0  0  0  2  0  0  0  0  0  0
  -30.9220  -14.1380   20.4560 N   0  0  0  0  0  0  0  0  0  0  0  0
  -32.8380  -15.3040   20.4230 O   0  0  0  0  0  0  0  0  0  0  0  0
  -30.9260  -16.5930   20.6650 N   0  0  0  0  0  0  0  0  0  0  0  0
  -29.9230  -16.4860   20.6320 H   0  0  0  0  0  0  0  0  0  0  0  0
  -26.2380  -14.5920   20.4850 C   0  0  0  0  0  0  0  0  0  0  0  0
  -25.1060  -13.8920   20.7960 C   0  0  0  0  0  0  0  0  0  0  0  0
  -25.4780  -12.5130   20.7730 C   0  0  0  0  0  0  0  0  0  0  0  0
  -27.2280  -13.6480   20.2800 N   0  0  0  0  0  0  0  0  0  0  0  0
  -26.7770  -12.3890   20.5220 N   0  0  0  0  0  0  0  0  0  0  0  0
  -24.6570  -11.3040   20.9160 C   0  0  0  0  0  0  0  0  0  0  0  0
  -24.9530  -10.3220   21.8860 C   0  0  0  0  0  3  0  0  0  0  0  0
  -24.1360   -9.1780   22.0170 C   0  0  0  0  0  3  0  0  0  0  0  0
  -23.0100   -9.0100   21.1780 C   0  0  0  0  0  0  0  0  0  0  0  0
  -22.7330   -9.9810   20.2000 C   0  0  0  0  0  3  0  0  0  0  0  0
  -23.5490  -11.1160   20.0660 C   0  0  0  0  0  3  0  0  0  0  0  0
  -22.1750   -7.9190   21.2160 O   0  0  0  0  0  0  0  0  0  0  0  0
  -21.9250   -7.2450   22.3850 C   0  0  0  0  0  0  0  0  0  0  0  0
  -21.3940   -7.8940   23.5200 C   0  0  0  0  0  3  0  0  0  0  0  0
  -21.0870   -7.1510   24.6780 C   0  0  0  0  0  3  0  0  0  0  0  0
  -21.3010   -5.7590   24.6990 C   0  0  0  0  0  0  0  0  0  0  0  0
  -21.8230   -5.1100   23.5670 C   0  0  0  0  0  3  0  0  0  0  0  0
  -22.1320   -5.8500   22.4120 C   0  0  0  0  0  0  0  0  0  0  0  0
  -22.6160   -5.2170   21.3160 F   0  0  0  0  0  0  0  0  0  0  0  0
  -20.9980   -5.0440   25.8060 F   0  0  0  0  0  0  0  0  0  0  0  0
  -23.7350  -14.4680   20.9990 C   0  0  0  0  0  0  0  0  0  0  0  0
  -22.9240  -13.8420   21.8440 N   0  0  0  0  0  0  0  0  0  0  0  0
  -23.3900  -15.5090   20.4410 O   0  0  0  0  0  0  0  0  0  0  0  0
  -23.2130  -13.0010   22.3210 H   0  0  0  0  0  0  0  0  0  0  0  0
  -22.0000  -14.2120   22.0170 H   0  0  0  0  0  0  0  0  0  0  0  0
  -26.5040  -15.9450   20.3310 N   0  0  0  0  0  0  0  0  0  0  0  0
  -25.7780  -16.6450   20.4300 H   0  0  0  0  0  0  0  0  0  0  0  0
  -27.3920  -16.3350   20.0450 H   0  0  0  0  0  0  0  0  0  0  0  0
  1  3  1  0
  2  1  2  0
  3  9  1  0
  4  6  2  0
  4  2  1  0
  5 52  1  0
  5  3  2  0
  6  5  1  0
  7  8  1  0
  8  4  1  0
  9 10  1  0
 10 11  1  0
 12 23  2  0
 13 11  1  0
 13 18  1  0
 14 22  1  0
 14 24  1  0
 15 17  1  0
 16 22  1  0
 17 18  2  0
 17 16  1  0
 19 13  2  0
 20 19  1  0
 20 15  2  0
 21 15  1  0
 21 14  1  0
 22 12  1  0
 24 26  2  0
 25 24  1  0
 27 25  1  0
 28 37  2  0
 28 33  1  0
 29 25  1  0
 29 33  1  0
 30 29  1  0
 31 32  1  0
 31 30  1  0
 32 28  1  0
 33 34  2  0
 34 35  1  0
 36 35  2  0
 37 36  1  0
 38 12  1  0
 38 39  1  0
 38 48  1  0
 39 42  1  0
 40 44  1  0
 40 39  1  0
 41 40  2  0
 44 43  1  0
 46 47  1  0
 46 44  1  0
 46 45  1  0
 48 51  1  1
 48 49  1  0
 50 48  1  0
 52 53  1  0
 54 62  1  0
 55 60  1  0
 56 57  1  0
 56 55  1  0
 58 57  1  0
 58 67  1  0
 58 59  1  0
 60 54  1  0
 60 59  1  0
 61 54  2  0
 62 53  1  0
 63 62  1  0
 64 65  2  0
 65 84  1  0
 66 65  1  0
 66 69  1  0
 67 64  1  0
 67 68  1  0
 68 66  2  0
 69 70  1  0
 70 71  2  0
 72 75  1  0
 72 71  1  0
 73 72  2  0
 74 73  1  0
 74 69  2  0
 75 76  1  0
 76 81  2  0
 76 77  1  0
 77 78  2  0
 78 79  1  0
 79 83  1  0
 80 79  2  0
 81 80  1  0
 82 81  1  0
 84 85  1  0
 85 88  1  0
 85 87  1  0
 86 84  2  0
 89 90  1  0
 89 64  1  0
 91 89  1  0
M  ISO  4  10 101  11 101  54 100  62 100
M  END
>  <TORSDO>  (63) 
F 21

>  <SCORE>  (63) 
-11.395

>  <name>  (63) 
63

>  <ligand_id>  (63) 
63

>  <original_smiles>  (63) 
[H]c1c(C([H])([H])C([H])([H])[H])nc(C([H])([H])C([H])([H])N([H])C(=O)N2C([H])([H])C([H])([H])C([H])([H])C([H])(n3nc(-c4c([H])c([H])c(Oc5c([H])c([H])c(F)c([H])c5F)c([H])c4[H])c(C(=O)N([H])[H])c3N([H])[H])C2([H])[H])c(C([H])([H])C([H])([H])Oc2c([H])c([H])c3c(c2[H])C([H])([H])N(C(=O)C([H])(N([H])C(=O)C([H])(N([H])C([H])([H])[H])C([H])([H])[H])C(C([H])([H])[H])(C([H])([H])[H])C([H])([H])[H])C([H])(C(=O)N([H])C2([H])c4c([H])c([H])c([H])c([H])c4C([H])([H])C([H])([H])C2([H])[H])C3([H])[H])c1[H]

>  <smiles>  (63) 
[H]c1c(C([H])([H])C([H])([H])[H])nc(C([H])([H])C([H])([H])N([H])C(=O)N2C([H])([H])C([H])([H])C([H])([H])C([H])(n3nc(-c4c([H])c([H])c(Oc5c([H])c([H])c(F)c([H])c5F)c([H])c4[H])c(C(=O)N([H])[H])c3N([H])[H])C2([H])[H])c(C([H])([H])C([H])([H])Oc2c([H])c([H])c3c(c2[H])C([H])([H])N(C(=O)C([H])(N([H])C(=O)C([H])(N([H])C([H])([H])[H])C([H])([H])[H])C(C([H])([H])[H])(C([H])([H])[H])C([H])([H])[H])C([H])(C(=O)N([H])C2([H])c4c([H])c([H])c([H])c([H])c4C([H])([H])C([H])([H])C2([H])[H])C3([H])[H])c1[H]

$$$$
64:0:0
     RDKit          3D

 89 93  0  0  1  0  0  0  0  0999 V2000
  -25.3250  -16.5320   21.6840 C   0  0  0  0  0  3  0  0  0  0  0  0
  -25.5170  -18.1860   21.5470 C   0  0  0  0  0  3  0  0  0  0  0  0
  -26.0220  -15.0660   21.4450 C   0  0  0  0  0  3  0  0  0  0  0  0
  -26.5600  -19.3240   21.0830 C   0  0  0  0  0  3  0  0  0  0  0  0
  -27.2580  -16.2480   21.1270 C   0  0  0  0  0  0  0  0  0  0  0  0
  -27.3430  -17.9180   20.9210 N   0  0  0  0  0  0  0  0  0  0  0  0
  -28.8930  -15.7690   21.4600 C   0  0  2  0  0  0  0  0  0  0  0  0
  -28.7520  -15.2440   22.6800 F   0  0  0  0  0  0  0  0  0  0  0  0
  -29.5060  -16.9150   21.7610 F   0  0  0  0  0  0  0  0  0  0  0  0
  -30.1460  -14.8380   20.6840 C   0  0  0  0  0  0  0  0  0  0  0  0
  -30.6490  -12.5840   19.4710 C   0  0  0  0  0  2  0  0  0  0  0  0
  -29.7720  -12.4910   18.1710 C   0  0  0  0  0  2  0  0  0  0  0  0
  -28.2610  -12.4340   18.4480 C   0  0  0  0  0  2  0  0  0  0  0  0
  -28.0220  -13.5050   19.4940 C   0  0  0  0  0  3  0  0  0  0  0  0
  -28.7900  -13.0030   20.7560 C   0  0  0  0  0  2  0  0  0  0  0  0
  -30.0320  -13.4920   20.4760 N   0  0  0  0  0  0  0  0  0  0  0  0
  -31.2500  -15.2800   20.2950 O   0  0  0  0  0  0  0  0  0  0  0  0
  -24.9650  -14.6800   19.6020 C   0  0  0  0  0  2  0  0  0  0  0  0
  -24.0090  -13.9690   20.9400 C   0  0  0  0  0  3  0  0  0  0  0  0
  -24.7840  -12.6480   21.7740 C   0  0  0  0  0  3  0  0  0  0  0  0
  -26.7700  -13.7110   19.9230 N   0  0  0  0  0  2  0  0  0  0  0  0
  -26.3670  -12.6860   21.3610 N   0  0  0  0  0  2  0  0  0  0  0  0
  -24.0800  -11.0600   21.5720 C   0  0  0  0  0  0  0  0  0  0  0  0
  -24.4540   -9.8320   22.2560 C   0  0  0  0  0  3  0  0  0  0  0  0
  -23.7730   -8.5480   22.2180 C   0  0  0  0  0  3  0  0  0  0  0  0
  -22.6180   -8.2890   21.4380 C   0  0  0  0  0  0  0  0  0  0  0  0
  -22.2990   -9.3790   20.5840 C   0  0  0  0  0  3  0  0  0  0  0  0
  -23.0050  -10.6520   20.6410 C   0  0  0  0  0  3  0  0  0  0  0  0
  -21.8720   -7.0890   21.4270 O   0  0  0  0  0  0  0  0  0  0  0  0
  -21.7890   -6.1930   22.5020 C   0  0  0  0  0  0  0  0  0  0  0  0
  -21.4750   -6.6360   23.8080 C   0  0  0  0  0  3  0  0  0  0  0  0
  -21.3830   -5.7240   24.8870 C   0  0  0  0  0  3  0  0  0  0  0  0
  -21.5990   -4.3510   24.6790 C   0  0  0  0  0  0  0  0  0  0  0  0
  -21.8650   -3.8860   23.3810 C   0  0  0  0  0  3  0  0  0  0  0  0
  -21.9490   -4.7940   22.3020 C   0  0  0  0  0  0  0  0  0  0  0  0
  -22.1830   -4.2980   21.0630 F   0  0  0  0  0  0  0  0  0  0  0  0
  -21.5430   -3.4820   25.7210 F   0  0  0  0  0  0  0  0  0  0  0  0
  -22.5490  -13.9770   21.1060 C   0  0  0  0  0  0  0  0  0  0  0  0
  -21.9770  -13.1330   21.9740 N   0  0  0  0  0  0  0  0  0  0  0  0
  -21.9100  -14.7820   20.4710 O   0  0  0  0  0  0  0  0  0  0  0  0
  -22.5280  -12.4980   22.5340 H   0  0  0  0  0  0  0  0  0  0  0  0
  -20.9740  -13.1270   22.0850 H   0  0  0  0  0  0  0  0  0  0  0  0
  -24.9220  -15.8280   18.9340 N   0  0  0  0  0  0  0  0  0  0  0  0
  -24.1080  -16.4240   19.0020 H   0  0  0  0  0  0  0  0  0  0  0  0
  -25.7390  -16.3340   18.6110 H   0  0  0  0  0  0  0  0  0  0  0  0
  -25.1850  -12.2880   18.2760 C   0  0  0  0  0  1  0  0  0  0  0  0
  -25.0820  -12.6710   19.6990 O   0  0  0  0  0  1  0  0  0  0  0  0
  -26.5780  -21.6580   20.5960 C   0  0  0  0  0 15  0  0  0  0  0  0
  -27.0800  -23.8670   20.7320 O   0  0  0  0  0  1  0  0  0  0  0  0
  -24.7500  -31.6950   23.0970 C   0  0  0  0  0  0  0  0  0  0  0  0
  -26.6450  -25.6140   20.4910 C   0  0  0  0  0  0  0  0  0  0  0  0
  -23.5840  -30.2900   21.4690 C   0  0  0  0  0  3  0  0  0  0  0  0
  -24.9400  -28.4250   20.1360 C   0  0  0  0  0  0  0  0  0  0  0  0
  -26.1510  -30.0400   21.5370 C   0  0  0  0  0  2  0  0  0  0  0  0
  -26.0840  -28.4990   20.9260 C   0  0  0  0  0  0  0  0  0  0  0  0
  -26.8990  -27.1450   21.0550 C   0  0  0  0  0  3  0  0  0  0  0  0
  -25.6450  -26.0260   19.5260 C   0  0  0  0  0  3  0  0  0  0  0  0
  -24.8340  -27.2300   19.3930 C   0  0  0  0  0  3  0  0  0  0  0  0
  -23.8640  -29.5530   20.1160 C   0  0  0  0  0  2  0  0  0  0  0  0
  -24.8720  -30.7420   22.0800 N   0  0  0  0  0  0  0  0  0  0  0  0
  -23.6410  -32.0590   23.5380 O   0  0  0  0  0  0  0  0  0  0  0  0
  -22.7900  -29.3800   22.4470 C   0  0  0  0  0  0  0  0  0  0  0  0
  -21.4510  -29.2920   22.3230 N   0  0  0  0  0  0  0  0  0  0  0  0
  -23.4020  -28.7500   23.3120 O   0  0  0  0  0  0  0  0  0  0  0  0
  -20.9950  -29.8480   21.6130 H   0  0  0  0  0  0  0  0  0  0  0  0
  -18.0330  -28.1450   22.8400 C   0  0  0  0  0  0  0  0  0  0  0  0
  -20.5990  -28.3820   23.1010 C   0  0  0  0  0  3  0  0  0  0  0  0
  -20.6760  -26.9410   22.5420 C   0  0  0  0  0  2  0  0  0  0  0  0
  -19.5770  -26.6330   21.5210 C   0  0  0  0  0  2  0  0  0  0  0  0
  -18.1950  -26.7960   22.1580 C   0  0  0  0  0  2  0  0  0  0  0  0
  -19.1610  -28.8960   23.2680 C   0  0  0  0  0  0  0  0  0  0  0  0
  -18.9540  -30.1530   23.8760 C   0  0  0  0  0  3  0  0  0  0  0  0
  -17.6530  -30.6620   24.0550 C   0  0  0  0  0  3  0  0  0  0  0  0
  -16.5410  -29.9110   23.6370 C   0  0  0  0  0  3  0  0  0  0  0  0
  -16.7320  -28.6530   23.0370 C   0  0  0  0  0  3  0  0  0  0  0  0
  -25.9750  -32.3920   23.7740 C   0  0  0  0  0  3  0  0  0  0  0  0
  -26.4710  -31.6410   25.0740 C   0  0  1  0  0  0  0  0  0  0  0  0
  -25.3580  -31.3960   26.1220 C   0  0  0  0  0  1  0  0  0  0  0  0
  -27.0840  -30.2690   24.7340 C   0  0  0  0  0  1  0  0  0  0  0  0
  -27.5980  -32.4530   25.7550 C   0  0  0  0  0  1  0  0  0  0  0  0
  -25.6030  -33.7840   24.1490 N   0  0  0  0  0  0  0  0  0  0  0  0
  -25.9220  -34.9010   23.4760 C   0  0  0  0  0  0  0  0  0  0  0  0
  -26.5990  -34.8770   22.4470 O   0  0  0  0  0  0  0  0  0  0  0  0
  -24.9940  -33.8770   24.9490 H   0  0  0  0  0  0  0  0  0  0  0  0
  -24.1480  -36.6910   23.2660 C   0  0  0  0  0  1  0  0  0  0  0  0
  -25.4160  -36.2600   24.0230 C   0  0  0  0  0  3  0  0  0  0  0  0
  -27.5570  -37.1520   24.8410 C   0  0  0  0  0  1  0  0  0  0  0  0
  -26.4160  -37.3500   23.9510 N   0  0  0  0  0  0  0  0  0  0  0  0
  -25.9880  -38.2420   24.1840 H   0  0  0  0  0  0  0  0  0  0  0  0
  2  1  1  0
  3  1  2  0
  4  2  2  0
  5  3  1  0
  5  7  1  0
  6  4  1  0
  6  5  2  0
  7  9  1  1
  7  8  1  0
 10  7  1  0
 11 16  1  0
 12 13  1  0
 12 11  1  0
 13 14  1  0
 14 21  1  0
 14 15  1  0
 16 10  1  0
 16 15  1  0
 17 10  2  0
 19 18  1  0
 19 38  1  0
 19 20  1  0
 20 22  1  0
 21 22  1  0
 23 20  1  0
 23 24  1  0
 25 24  2  0
 26 25  1  0
 27 28  1  0
 27 26  2  0
 28 23  2  0
 29 26  1  0
 29 30  1  0
 30 31  1  0
 31 32  2  0
 33 32  1  0
 33 37  1  0
 34 33  2  0
 35 30  2  0
 35 34  1  0
 36 35  1  0
 38 39  1  0
 39 42  1  0
 39 41  1  0
 40 38  2  0
 43 44  1  0
 43 18  1  0
 45 43  1  0
 46 47  1  0
 50 61  2  0
 51 49  1  0
 51 56  1  0
 52 60  1  0
 52 62  1  0
 53 55  1  0
 54 60  1  0
 55 56  2  0
 55 54  1  0
 57 51  2  0
 58 57  1  0
 58 53  2  0
 59 53  1  0
 59 52  1  0
 60 50  1  0
 62 64  2  0
 63 62  1  0
 65 63  1  0
 66 75  2  0
 66 71  1  0
 67 63  1  0
 67 71  1  0
 68 67  1  0
 69 70  1  0
 69 68  1  0
 70 66  1  0
 71 72  2  0
 72 73  1  0
 74 73  2  0
 75 74  1  0
 76 50  1  0
 76 81  1  0
 76 77  1  0
 77 80  1  1
 77 78  1  0
 79 77  1  0
 81 84  1  0
 82 86  1  0
 82 81  1  0
 83 82  2  0
 86 85  1  0
 88 86  1  0
 88 89  1  0
 88 87  1  0
M  ISO  4   7 100  10 100  48 101  49 101
M  END
>  <TORSDO>  (64) 
F 19

>  <SCORE>  (64) 
10.661

>  <name>  (64) 
64

>  <ligand_id>  (64) 
64

>  <original_smiles>  (64) 
[H]c1c(C([H])([H])Oc2c([H])c([H])c3c(c2[H])C([H])([H])N(C(=O)C([H])(N([H])C(=O)C([H])(N([H])C([H])([H])[H])C([H])([H])[H])C(C([H])([H])[H])(C([H])([H])[H])C([H])([H])[H])C([H])(C(=O)N([H])C2([H])c4c([H])c([H])c([H])c([H])c4C([H])([H])C([H])([H])C2([H])[H])C3([H])[H])nc(C(F)(F)C(=O)N2C([H])([H])C([H])([H])C([H])([H])C([H])(n3nc(-c4c([H])c([H])c(Oc5c([H])c([H])c(F)c([H])c5F)c([H])c4[H])c(C(=O)N([H])[H])c3N([H])[H])C2([H])[H])c(OC([H])([H])[H])c1[H]

>  <smiles>  (64) 
[H]c1c(C([H])([H])Oc2c([H])c([H])c3c(c2[H])C([H])([H])N(C(=O)C([H])(N([H])C(=O)C([H])(N([H])C([H])([H])[H])C([H])([H])[H])C(C([H])([H])[H])(C([H])([H])[H])C([H])([H])[H])C([H])(C(=O)N([H])C2([H])c4c([H])c([H])c([H])c([H])c4C([H])([H])C([H])([H])C2([H])[H])C3([H])[H])nc(C(F)(F)C(=O)N2C([H])([H])C([H])([H])C([H])([H])C([H])(n3nc(-c4c([H])c([H])c(Oc5c([H])c([H])c(F)c([H])c5F)c([H])c4[H])c(C(=O)N([H])[H])c3N([H])[H])C2([H])[H])c(OC([H])([H])[H])c1[H]

$$$$
66:0:0
     RDKit          3D

 95103  0  0  1  0  0  0  0  0999 V2000
  -29.5170  -22.7640   21.1520 C   0  0  0  0  0  0  0  0  0  0  0  0
  -28.3910  -21.6840   19.5560 C   0  0  0  0  0  0  0  0  0  0  0  0
  -28.1230  -23.9190   19.8570 C   0  0  0  0  0  0  0  0  0  0  0  0
  -30.4610  -22.7400   22.3390 C   0  0  0  0  0  1  0  0  0  0  0  0
  -29.2660  -21.5950   20.5550 N   0  0  0  0  0  4  0  0  0  0  0  0
  -28.9880  -23.9480   20.8640 N   0  0  0  0  0  0  0  0  0  0  0  0
  -27.7910  -22.8160   19.1580 N   0  0  0  0  0  2  0  0  0  0  0  0
  -28.0300  -20.3470   18.8530 C   0  0  0  0  0  2  0  0  0  0  0  0
  -28.1600  -19.1760   19.7750 N   0  0  0  0  0  4  0  0  0  0  0  0
  -27.2340  -18.9550   20.0900 H   0  0  0  0  0  0  0  0  0  0  0  0
  -28.6420  -19.6160   20.5520 H   0  0  0  0  0  0  0  0  0  0  0  0
  -28.8810  -17.9110   19.3600 C   0  0  0  0  0  2  0  0  0  0  0  0
  -28.4320  -16.6310   20.1830 C   0  0  0  0  0  2  0  0  0  0  0  0
  -30.0420  -14.6520   20.2090 C   0  0  0  0  0  0  0  0  0  0  0  0
  -30.1050  -12.2010   19.8360 C   0  0  0  0  0  2  0  0  0  0  0  0
  -29.2530  -11.8290   18.6090 C   0  0  0  0  0  2  0  0  0  0  0  0
  -27.7920  -11.5800   19.0270 C   0  0  0  0  0  2  0  0  0  0  0  0
  -27.2310  -12.7140   19.9260 C   0  0  0  0  0  3  0  0  0  0  0  0
  -28.2180  -13.0990   21.0550 C   0  0  0  0  0  2  0  0  0  0  0  0
  -29.5260  -13.4070   20.4550 N   0  0  0  0  0  0  0  0  0  0  0  0
  -31.0730  -14.8100   19.5540 O   0  0  0  0  0  0  0  0  0  0  0  0
  -29.4580  -15.7270   20.8070 N   0  0  0  0  0  0  0  0  0  0  0  0
  -24.8500  -13.2210   20.7520 C   0  0  0  0  0  0  0  0  0  0  0  0
  -23.8180  -12.4040   21.1400 C   0  0  0  0  0  0  0  0  0  0  0  0
  -24.3210  -11.0690   21.0590 C   0  0  0  0  0  0  0  0  0  0  0  0
  -25.9120  -12.3770   20.4550 N   0  0  0  0  0  0  0  0  0  0  0  0
  -25.6010  -11.0770   20.6990 N   0  0  0  0  0  0  0  0  0  0  0  0
  -23.6390   -9.7790   21.2440 C   0  0  0  0  0  0  0  0  0  0  0  0
  -24.1200   -8.8160   22.1570 C   0  0  0  0  0  3  0  0  0  0  0  0
  -23.4400   -7.5910   22.3320 C   0  0  0  0  0  3  0  0  0  0  0  0
  -22.2640   -7.3230   21.5930 C   0  0  0  0  0  0  0  0  0  0  0  0
  -21.7990   -8.2750   20.6690 C   0  0  0  0  0  3  0  0  0  0  0  0
  -22.4820   -9.4900   20.4930 C   0  0  0  0  0  3  0  0  0  0  0  0
  -21.5520   -6.1500   21.6770 O   0  0  0  0  0  0  0  0  0  0  0  0
  -21.6130   -5.3500   22.7910 C   0  0  0  0  0  0  0  0  0  0  0  0
  -21.2190   -5.8140   24.0640 C   0  0  0  0  0  3  0  0  0  0  0  0
  -21.2320   -4.9370   25.1680 C   0  0  0  0  0  3  0  0  0  0  0  0
  -21.6240   -3.5960   24.9980 C   0  0  0  0  0  0  0  0  0  0  0  0
  -22.0130   -3.1310   23.7290 C   0  0  0  0  0  3  0  0  0  0  0  0
  -22.0050   -4.0050   22.6270 C   0  0  0  0  0  0  0  0  0  0  0  0
  -22.3570   -3.5460   21.4040 F   0  0  0  0  0  0  0  0  0  0  0  0
  -21.6340   -2.7530   26.0570 F   0  0  0  0  0  0  0  0  0  0  0  0
  -22.4180  -12.8320   21.4730 C   0  0  0  0  0  0  0  0  0  0  0  0
  -21.7650  -12.1340   22.3970 N   0  0  0  0  0  0  0  0  0  0  0  0
  -21.9060  -13.8200   20.9490 O   0  0  0  0  0  0  0  0  0  0  0  0
  -22.1950  -11.3480   22.8600 H   0  0  0  0  0  0  0  0  0  0  0  0
  -20.8210  -12.3930   22.6450 H   0  0  0  0  0  0  0  0  0  0  0  0
  -24.9710  -14.5980   20.6070 N   0  0  0  0  0  0  0  0  0  0  0  0
  -24.1930  -15.2290   20.7650 H   0  0  0  0  0  0  0  0  0  0  0  0
  -25.8060  -15.0660   20.2780 H   0  0  0  0  0  0  0  0  0  0  0  0
  -30.0620  -16.2030   22.0710 C   0  0  0  0  0  2  0  0  0  0  0  0
  -31.2900  -18.1730   23.2360 C   0  0  0  0  0  1  0  0  0  0  0  0
  -30.9260  -17.4780   21.9130 C   0  0  0  0  0  2  0  0  0  0  0  0
  -27.3040  -25.2060   19.5750 C   0  0  0  0  0  2  0  0  0  0  0  0
  -27.6540  -26.5130   20.1730 O   0  0  0  0  0  0  0  0  0  0  0  0
  -24.4670  -32.0220   23.5380 C   0  0  0  0  0  0  0  0  0  0  0  0
  -26.6090  -27.4490   20.1880 C   0  0  0  0  0  0  0  0  0  0  0  0
  -23.0930  -30.7500   21.9330 C   0  0  0  0  0  3  0  0  0  0  0  0
  -24.3630  -29.2000   20.3620 C   0  0  0  0  0  0  0  0  0  0  0  0
  -25.6380  -30.9360   21.6140 C   0  0  0  0  0  2  0  0  0  0  0  0
  -25.5930  -29.5900   20.9070 C   0  0  0  0  0  0  0  0  0  0  0  0
  -26.7240  -28.7290   20.8080 C   0  0  0  0  0  3  0  0  0  0  0  0
  -25.3530  -27.1260   19.6110 C   0  0  0  0  0  3  0  0  0  0  0  0
  -24.2480  -27.9790   19.7000 C   0  0  0  0  0  3  0  0  0  0  0  0
  -23.1800  -30.1290   20.5180 C   0  0  0  0  0  2  0  0  0  0  0  0
  -24.4210  -31.2510   22.4140 N   0  0  0  0  0  0  0  0  0  0  0  0
  -23.4340  -32.3440   24.1400 O   0  0  0  0  0  0  0  0  0  0  0  0
  -22.4360  -29.7300   22.8960 C   0  0  0  0  0  0  0  0  0  0  0  0
  -21.1450  -29.4300   22.6660 N   0  0  0  0  0  0  0  0  0  0  0  0
  -23.0860  -29.2120   23.8080 O   0  0  0  0  0  0  0  0  0  0  0  0
  -20.6850  -29.8950   21.8970 H   0  0  0  0  0  0  0  0  0  0  0  0
  -17.8850  -27.8700   22.8340 C   0  0  0  0  0  0  0  0  0  0  0  0
  -20.3300  -28.4760   23.4230 C   0  0  0  0  0  3  0  0  0  0  0  0
  -20.6760  -27.0190   23.0350 C   0  0  0  0  0  2  0  0  0  0  0  0
  -19.7790  -26.4610   21.9270 C   0  0  0  0  0  2  0  0  0  0  0  0
  -18.3100  -26.4930   22.3530 C   0  0  0  0  0  2  0  0  0  0  0  0
  -18.8350  -28.8090   23.3190 C   0  0  0  0  0  0  0  0  0  0  0  0
  -18.3870  -30.0890   23.7140 C   0  0  0  0  0  3  0  0  0  0  0  0
  -17.0240  -30.4310   23.6420 C   0  0  0  0  0  3  0  0  0  0  0  0
  -16.0880  -29.4910   23.1760 C   0  0  0  0  0  3  0  0  0  0  0  0
  -16.5180  -28.2140   22.7770 C   0  0  0  0  0  3  0  0  0  0  0  0
  -25.8180  -32.5610   24.0990 C   0  0  0  0  0  3  0  0  0  0  0  0
  -25.6410  -33.9920   24.3810 N   0  0  0  0  0  0  0  0  0  0  0  0
  -25.9470  -34.9790   23.5300 C   0  0  0  0  0  0  0  0  0  0  0  0
  -26.4860  -34.7780   22.4370 O   0  0  0  0  0  0  0  0  0  0  0  0
  -25.1530  -34.2260   25.2320 H   0  0  0  0  0  0  0  0  0  0  0  0
  -24.3020  -36.8640   23.2790 C   0  0  0  0  0  1  0  0  0  0  0  0
  -25.6050  -36.4190   23.9600 C   0  0  0  0  0  3  0  0  0  0  0  0
  -27.8640  -37.2120   24.5030 C   0  0  0  0  0  1  0  0  0  0  0  0
  -26.6800  -37.3910   23.6640 N   0  0  0  0  0  0  0  0  0  0  0  0
  -26.3470  -38.3430   23.7890 H   0  0  0  0  0  0  0  0  0  0  0  0
  -26.3000  -31.7930   25.3880 C   0  0  1  0  0  0  0  0  0  0  0  0
  -25.2040  -31.6310   26.4670 C   0  0  0  0  0  1  0  0  0  0  0  0
  -26.8150  -30.3800   25.0270 C   0  0  0  0  0  1  0  0  0  0  0  0
  -27.4910  -32.5470   26.0270 C   0  0  0  0  0  1  0  0  0  0  0  0
  1  4  1  0
  2  5  2  0
  3  6  2  0
  5  1  2  0
  6  1  1  0
  7  2  1  0
  7  3  1  0
  8  2  1  0
  8  9  1  0
  9 10  1  0
  9 11  1  0
 12  9  1  0
 12 13  1  0
 13 22  1  0
 14 20  1  0
 14 22  1  0
 15 20  1  0
 16 17  1  0
 16 15  1  0
 18 17  1  0
 18 26  1  0
 18 19  1  0
 20 19  1  0
 21 14  2  0
 22 51  1  0
 23 24  2  0
 24 43  1  0
 25 24  1  0
 25 28  1  0
 26 27  1  0
 26 23  1  0
 27 25  2  0
 28 29  1  0
 29 30  2  0
 31 34  1  0
 31 30  1  0
 32 31  2  0
 33 32  1  0
 33 28  2  0
 34 35  1  0
 35 36  1  0
 36 37  2  0
 38 37  1  0
 38 42  1  0
 39 38  2  0
 40 35  2  0
 40 39  1  0
 41 40  1  0
 43 44  1  0
 44 47  1  0
 44 46  1  0
 45 43  2  0
 48 23  1  0
 48 49  1  0
 50 48  1  0
 53 51  1  0
 53 52  1  0
 54  3  1  0
 54 55  1  0
 55 57  1  0
 56 67  2  0
 57 62  1  0
 58 66  1  0
 58 68  1  0
 59 65  1  0
 59 61  1  0
 60 66  1  0
 61 60  1  0
 62 61  2  0
 63 64  1  0
 63 57  2  0
 64 59  2  0
 65 58  1  0
 66 56  1  0
 68 70  2  0
 69 68  1  0
 71 69  1  0
 72 77  1  0
 73 69  1  0
 74 73  1  0
 75 76  1  0
 75 74  1  0
 76 72  1  0
 77 73  1  0
 77 78  2  0
 79 78  1  0
 80 79  2  0
 81 72  2  0
 81 80  1  0
 82 56  1  0
 82 83  1  0
 82 92  1  0
 83 86  1  0
 84 88  1  0
 84 83  1  0
 85 84  2  0
 88 87  1  0
 90 91  1  0
 90 88  1  0
 90 89  1  0
 92 95  1  1
 92 93  1  0
 94 92  1  0
M  ISO  4  14 100  22 100  54 101  55 101
M  END
>  <TORSDO>  (65) 
F 23

>  <SCORE>  (65) 
-10.570

>  <name>  (65) 
66

>  <ligand_id>  (65) 
66

>  <original_smiles>  (65) 
[H]c1c([H])c([H])c2c(c1[H])C([H])([H])C([H])([H])C([H])([H])C2([H])N([H])C(=O)C1([H])N(C(=O)C([H])(N([H])C(=O)C([H])(N([H])C([H])([H])[H])C([H])([H])[H])C(C([H])([H])[H])(C([H])([H])[H])C([H])([H])[H])C([H])([H])c2c([H])c(OC([H])([H])c3nc(C([H])([H])[H])nc(C([H])([H])[N+]([H])([H])C([H])([H])C([H])([H])N(C(=O)N4C([H])([H])C([H])([H])C([H])([H])C([H])(n5nc(-c6c([H])c([H])c(Oc7c([H])c([H])c(F)c([H])c7F)c([H])c6[H])c(C(=O)N([H])[H])c5N([H])[H])C4([H])[H])C([H])([H])C([H])([H])C([H])([H])[H])n3)c([H])c([H])c2C1([H])[H]

>  <smiles>  (65) 
[H]c1c([H])c([H])c2c(c1[H])C([H])([H])C([H])([H])C([H])([H])C2([H])N([H])C(=O)C1([H])N(C(=O)C([H])(N([H])C(=O)C([H])(N([H])C([H])([H])[H])C([H])([H])[H])C(C([H])([H])[H])(C([H])([H])[H])C([H])([H])[H])C([H])([H])c2c([H])c(OC([H])([H])c3nc(C([H])([H])[H])nc(C([H])([H])[N+]([H])([H])C([H])([H])C([H])([H])N(C(=O)N4C([H])([H])C([H])([H])C([H])([H])C([H])(n5nc(-c6c([H])c([H])c(Oc7c([H])c([H])c(F)c([H])c7F)c([H])c6[H])c(C(=O)N([H])[H])c5N([H])[H])C4([H])[H])C([H])([H])C([H])([H])C([H])([H])[H])n3)c([H])c([H])c2C1([H])[H]

$$$$
68:0:0
     RDKit          3D

 92 94  0  0  1  0  0  0  0  0999 V2000
  -23.5260  -12.8250   20.8830 C   0  0  0  0  0  1  0  0  0  0  0  0
  -25.6130  -15.0340   19.7250 C   0  0  0  0  0  1  0  0  0  0  0  0
  -26.5300  -14.0520   20.9050 C   0  0  0  0  0  2  0  0  0  0  0  0
  -25.7130  -11.8150   22.9040 C   0  0  0  0  0  1  0  0  0  0  0  0
  -23.7480  -14.1800   19.5680 N   0  0  0  0  0  1  0  0  0  0  0  0
  -25.3140  -12.7020   21.8240 N   0  0  0  0  0  0  0  0  0  0  0  0
  -26.3690  -16.6260   18.8420 C   0  0  0  0  0 15  0  0  0  0  0  0
  -27.4430  -18.3440   18.9960 C   0  0  0  0  0 15  0  0  0  0  0  0
  -28.5340  -19.7190   17.9590 C   0  0  0  0  0 15  0  0  0  0  0  0
  -29.6110  -21.4430   18.0380 C   0  0  0  0  0  1  0  0  0  0  0  0
  -30.8370  -22.5720   17.2560 O   0  0  0  0  0  0  0  0  0  0  0  0
  -34.0850  -28.7970   20.5330 C   0  0  0  0  0  0  0  0  0  0  0  0
  -31.0980  -24.0970   17.4210 C   0  0  0  0  0  0  0  0  0  0  0  0
  -31.6780  -28.4400   20.3220 C   0  0  0  0  0  3  0  0  0  0  0  0
  -30.8410  -26.8820   18.4390 C   0  0  0  0  0  0  0  0  0  0  0  0
  -33.2170  -27.5630   18.4430 C   0  0  0  0  0  2  0  0  0  0  0  0
  -32.1290  -26.4660   18.0900 C   0  0  0  0  0  0  0  0  0  0  0  0
  -32.2610  -25.0790   17.5490 C   0  0  0  0  0  3  0  0  0  0  0  0
  -29.8980  -24.7890   17.5510 C   0  0  0  0  0  3  0  0  0  0  0  0
  -29.7560  -26.0770   18.0900 C   0  0  0  0  0  3  0  0  0  0  0  0
  -30.6240  -28.1770   19.2160 C   0  0  0  0  0  2  0  0  0  0  0  0
  -33.0600  -28.2810   19.7740 N   0  0  0  0  0  0  0  0  0  0  0  0
  -33.8810  -29.3340   21.6350 O   0  0  0  0  0  0  0  0  0  0  0  0
  -31.4180  -27.5350   21.5580 C   0  0  0  0  0  0  0  0  0  0  0  0
  -30.4740  -27.9230   22.4370 N   0  0  0  0  0  0  0  0  0  0  0  0
  -32.0650  -26.4960   21.7100 O   0  0  0  0  0  0  0  0  0  0  0  0
  -29.9910  -28.7950   22.2640 H   0  0  0  0  0  0  0  0  0  0  0  0
  -28.2920  -27.9860   25.3360 C   0  0  0  0  0  0  0  0  0  0  0  0
  -30.0650  -27.1780   23.6330 C   0  0  0  0  0  3  0  0  0  0  0  0
  -29.0600  -26.0600   23.2750 C   0  0  0  0  0  2  0  0  0  0  0  0
  -27.5980  -26.5000   23.4060 C   0  0  0  0  0  2  0  0  0  0  0  0
  -27.2980  -26.9480   24.8400 C   0  0  0  0  0  2  0  0  0  0  0  0
  -29.5850  -28.1030   24.7600 C   0  0  0  0  0  0  0  0  0  0  0  0
  -30.4590  -29.1030   25.2400 C   0  0  0  0  0  3  0  0  0  0  0  0
  -30.0600  -29.9720   26.2730 C   0  0  0  0  0  3  0  0  0  0  0  0
  -28.7850  -29.8440   26.8480 C   0  0  0  0  0  3  0  0  0  0  0  0
  -27.9060  -28.8500   26.3830 C   0  0  0  0  0  3  0  0  0  0  0  0
  -35.5640  -28.7560   20.0470 C   0  0  0  0  0  3  0  0  0  0  0  0
  -36.1900  -30.0500   20.3890 N   0  0  0  0  0  0  0  0  0  0  0  0
  -36.3800  -31.0690   19.5400 C   0  0  0  0  0  0  0  0  0  0  0  0
  -36.0880  -30.9980   18.3440 O   0  0  0  0  0  0  0  0  0  0  0  0
  -36.4020  -30.1990   21.3640 H   0  0  0  0  0  0  0  0  0  0  0  0
  -35.8840  -33.4090   20.3390 C   0  0  0  0  0  1  0  0  0  0  0  0
  -36.9940  -32.3720   20.1010 C   0  0  0  0  0  3  0  0  0  0  0  0
  -39.2570  -32.1550   19.1680 C   0  0  0  0  0  1  0  0  0  0  0  0
  -38.0390  -32.9590   19.2310 N   0  0  0  0  0  0  0  0  0  0  0  0
  -38.2900  -33.8910   19.5470 H   0  0  0  0  0  0  0  0  0  0  0  0
  -36.3950  -27.5810   20.6980 C   0  0  1  0  0  0  0  0  0  0  0  0
  -36.3010  -27.5290   22.2420 C   0  0  0  0  0  1  0  0  0  0  0  0
  -35.9400  -26.2060   20.1620 C   0  0  0  0  0  1  0  0  0  0  0  0
  -37.8870  -27.7210   20.3160 C   0  0  0  0  0  1  0  0  0  0  0  0
  -28.2340  -14.0530   20.3990 C   0  0  0  0  0  2  0  0  0  0  0  0
  -30.5150  -12.3290   19.4010 C   0  0  0  0  0  0  0  0  0  0  0  0
  -30.8110   -9.8870   18.5250 C   0  0  0  0  0  2  0  0  0  0  0  0
  -29.7240   -9.5160   17.4520 C   0  0  0  0  0  2  0  0  0  0  0  0
  -28.2910   -9.4950   17.9950 C   0  0  0  0  0  2  0  0  0  0  0  0
  -28.2360  -10.6750   18.8990 C   0  0  0  0  0  3  0  0  0  0  0  0
  -29.1730  -10.5240   20.0780 C   0  0  0  0  0  2  0  0  0  0  0  0
  -30.3580  -10.9720   19.4630 N   0  0  0  0  0  0  0  0  0  0  0  0
  -31.4580  -12.6400   18.6080 O   0  0  0  0  0  0  0  0  0  0  0  0
  -29.6550  -13.1180   20.3750 N   0  0  0  0  0  0  0  0  0  0  0  0
  -26.4460  -12.1380   19.1850 C   0  0  0  0  0  3  0  0  0  0  0  0
  -25.6040  -12.1230   20.1750 C   0  0  0  0  0  3  0  0  0  0  0  0
  -25.3130  -10.5740   20.3810 C   0  0  0  0  0  3  0  0  0  0  0  0
  -26.9950  -10.9340   19.3500 N   0  0  0  0  0  0  0  0  0  0  0  0
  -26.3540   -9.9590   19.9960 N   0  0  0  0  0  2  0  0  0  0  0  0
  -24.2880   -9.5820   21.0850 C   0  0  0  0  0  0  0  0  0  0  0  0
  -24.6400   -8.5270   22.0030 C   0  0  0  0  0  3  0  0  0  0  0  0
  -23.7010   -7.5740   22.5210 C   0  0  0  0  0  3  0  0  0  0  0  0
  -22.3340   -7.6190   22.1520 C   0  0  0  0  0  0  0  0  0  0  0  0
  -21.9610   -8.6440   21.2610 C   0  0  0  0  0  3  0  0  0  0  0  0
  -22.9050   -9.5690   20.7380 C   0  0  0  0  0  3  0  0  0  0  0  0
  -21.3540   -6.7030   22.5180 O   0  0  0  0  0  0  0  0  0  0  0  0
  -21.5320   -5.7250   23.4770 C   0  0  0  0  0  0  0  0  0  0  0  0
  -21.8220   -6.0500   24.8200 C   0  0  0  0  0  3  0  0  0  0  0  0
  -21.9290   -5.0330   25.7930 C   0  0  0  0  0  3  0  0  0  0  0  0
  -21.7410   -3.6850   25.4340 C   0  0  0  0  0  0  0  0  0  0  0  0
  -21.4310   -3.3550   24.1050 C   0  0  0  0  0  3  0  0  0  0  0  0
  -21.3190   -4.3690   23.1330 C   0  0  0  0  0  0  0  0  0  0  0  0
  -20.9890   -4.0310   21.8630 F   0  0  0  0  0  0  0  0  0  0  0  0
  -21.8540   -2.7090   26.3670 F   0  0  0  0  0  0  0  0  0  0  0  0
  -24.4300  -14.3390   22.0270 C   0  0  0  0  0  0  0  0  0  0  0  0
  -23.6280  -13.9520   23.0990 N   0  0  0  0  0  0  0  0  0  0  0  0
  -23.8920  -15.3570   21.5950 O   0  0  0  0  0  0  0  0  0  0  0  0
  -23.7650  -13.0650   23.5540 H   0  0  0  0  0  0  0  0  0  0  0  0
  -23.0310  -14.6450   23.5280 H   0  0  0  0  0  0  0  0  0  0  0  0
  -26.9540  -13.1190   18.3630 N   0  0  0  0  0  0  0  0  0  0  0  0
  -26.3750  -13.9300   18.1840 H   0  0  0  0  0  0  0  0  0  0  0  0
  -27.5600  -12.8990   17.5840 H   0  0  0  0  0  0  0  0  0  0  0  0
  -31.8590  -12.8510   21.7790 C   0  0  0  0  0  1  0  0  0  0  0  0
  -30.2890  -14.6830   22.3680 C   0  0  0  0  0  1  0  0  0  0  0  0
  -30.3580  -13.2810   21.7110 C   0  0  0  0  0  3  0  0  0  0  0  0
  2  3  1  0
  5  1  1  0
  6 82  1  0
  6  4  1  0
 11 13  1  0
 11 10  1  0
 12 23  2  0
 13 18  2  0
 13 19  1  0
 14 24  1  0
 15 21  1  0
 16 22  1  0
 17 15  2  0
 17 16  1  0
 18 17  1  0
 19 20  2  0
 20 15  1  0
 21 14  1  0
 22 14  1  0
 22 12  1  0
 24 26  2  0
 24 25  1  0
 27 25  1  0
 28 37  1  0
 29 25  1  0
 29 33  1  0
 30 31  1  0
 30 29  1  0
 31 32  1  0
 32 28  1  0
 33 34  1  0
 33 28  2  0
 34 35  2  0
 35 36  1  0
 37 36  2  0
 38 39  1  0
 38 12  1  0
 38 48  1  0
 39 42  1  0
 40 44  1  0
 40 39  1  0
 41 40  2  0
 44 43  1  0
 45 46  1  0
 46 47  1  0
 46 44  1  0
 48 49  1  1
 50 48  1  0
 51 48  1  0
 52  3  1  0
 53 59  1  0
 53 61  1  0
 54 59  1  0
 55 56  1  0
 55 54  1  0
 57 56  1  0
 57 65  1  0
 57 58  1  0
 59 58  1  0
 60 53  2  0
 61 52  1  0
 61 92  1  0
 62 87  1  0
 62 65  1  0
 62 63  1  0
 63 64  1  0
 63  6  1  0
 64 67  1  0
 65 66  1  0
 66 64  1  0
 67 68  1  0
 68 69  2  0
 70 73  1  0
 70 69  1  0
 71 70  2  0
 72 67  2  0
 72 71  1  0
 73 74  1  0
 74 75  1  0
 75 76  2  0
 77 76  1  0
 77 81  1  0
 78 77  2  0
 79 74  2  0
 79 78  1  0
 80 79  1  0
 82 83  1  0
 83 86  1  0
 83 85  1  0
 84 82  2  0
 88 87  1  0
 89 87  1  0
 92 90  1  0
 92 91  1  0
M  ISO  4  10 101  11 101  53 100  61 100
M  END
>  <TORSDO>  (66) 
F 22

>  <SCORE>  (66) 
9.424

>  <name>  (66) 
68

>  <ligand_id>  (66) 
68

>  <original_smiles>  (66) 
[H]c1c([H])c([H])c2c(c1[H])C([H])([H])C([H])([H])C([H])([H])C2([H])N([H])C(=O)C1([H])N(C(=O)C([H])(N([H])C(=O)C([H])(N([H])C([H])([H])[H])C([H])([H])[H])C(C([H])([H])[H])(C([H])([H])[H])C([H])([H])[H])C([H])([H])c2c([H])c(OC([H])([H])C([H])([H])C([H])([H])C([H])([H])c3nc([H])n(C([H])([H])[H])c3C([H])([H])N(C(=O)N3C([H])([H])C([H])([H])C([H])([H])C([H])(n4nc(-c5c([H])c([H])c(Oc6c([H])c([H])c(F)c([H])c6F)c([H])c5[H])c(C(=O)N([H])[H])c4N([H])[H])C3([H])[H])C([H])(C([H])([H])[H])C([H])([H])[H])c([H])c([H])c2C1([H])[H]

>  <smiles>  (66) 
[H]c1c([H])c([H])c2c(c1[H])C([H])([H])C([H])([H])C([H])([H])C2([H])N([H])C(=O)C1([H])N(C(=O)C([H])(N([H])C(=O)C([H])(N([H])C([H])([H])[H])C([H])([H])[H])C(C([H])([H])[H])(C([H])([H])[H])C([H])([H])[H])C([H])([H])c2c([H])c(OC([H])([H])C([H])([H])C([H])([H])C([H])([H])c3nc([H])n(C([H])([H])[H])c3C([H])([H])N(C(=O)N3C([H])([H])C([H])([H])C([H])([H])C([H])(n4nc(-c5c([H])c([H])c(Oc6c([H])c([H])c(F)c([H])c6F)c([H])c5[H])c(C(=O)N([H])[H])c4N([H])[H])C3([H])[H])C([H])(C([H])([H])[H])C([H])([H])[H])c([H])c([H])c2C1([H])[H]

$$$$
69:0:0
     RDKit          3D

 90 98  0  0  1  0  0  0  0  0999 V2000
  -28.5690  -22.8800   19.5700 C   0  0  0  0  0  3  0  0  0  0  0  0
  -28.4010  -22.6030   21.7070 C   0  0  0  0  0  3  0  0  0  0  0  0
  -28.5650  -24.1280   20.1730 C   0  0  0  0  0  0  0  0  0  0  0  0
  -28.4870  -23.9290   21.5580 N   0  0  0  0  0  0  0  0  0  0  0  0
  -28.3990  -21.9010   20.5580 N   0  0  0  0  0  0  0  0  0  0  0  0
  -27.3540  -20.2020   19.1110 C   0  0  0  0  0  1  0  0  0  0  0  0
  -28.1810  -20.4420   20.3870 C   0  0  0  0  0  3  0  0  0  0  0  0
  -29.4620  -19.5340   20.4430 C   0  0  0  0  0  2  0  0  0  0  0  0
  -29.1730  -17.9900   20.5470 C   0  0  0  0  0  2  0  0  0  0  0  0
  -30.4140  -17.0350   20.5950 C   0  0  0  0  0  2  0  0  0  0  0  0
  -30.8310  -14.5460   20.3360 C   0  0  0  0  0  0  0  0  0  0  0  0
  -30.5880  -12.3370   19.2620 C   0  0  0  0  0  2  0  0  0  0  0  0
  -29.6510  -12.4940   18.0460 C   0  0  0  0  0  2  0  0  0  0  0  0
  -28.1760  -12.3470   18.4700 C   0  0  0  0  0  2  0  0  0  0  0  0
  -27.8210  -13.2050   19.7140 C   0  0  0  0  0  3  0  0  0  0  0  0
  -28.8720  -13.0300   20.8300 C   0  0  0  0  0  2  0  0  0  0  0  0
  -30.1900  -13.3450   20.2590 N   0  0  0  0  0  0  0  0  0  0  0  0
  -31.9730  -14.7170   19.9030 O   0  0  0  0  0  0  0  0  0  0  0  0
  -30.0690  -15.5960   20.7280 N   0  0  0  0  0  0  0  0  0  0  0  0
  -29.1460  -15.3670   21.0660 H   0  0  0  0  0  0  0  0  0  0  0  0
  -25.4240  -13.8080   20.4220 C   0  0  0  0  0  0  0  0  0  0  0  0
  -24.3590  -13.0350   20.7960 C   0  0  0  0  0  0  0  0  0  0  0  0
  -24.8210  -11.6830   20.7680 C   0  0  0  0  0  0  0  0  0  0  0  0
  -26.4700  -12.9270   20.1930 N   0  0  0  0  0  0  0  0  0  0  0  0
  -26.1120  -11.6450   20.4590 N   0  0  0  0  0  0  0  0  0  0  0  0
  -24.0980  -10.4200   20.9640 C   0  0  0  0  0  0  0  0  0  0  0  0
  -24.5070   -9.4790   21.9340 C   0  0  0  0  0  3  0  0  0  0  0  0
  -23.7860   -8.2790   22.1160 C   0  0  0  0  0  3  0  0  0  0  0  0
  -22.6430   -8.0130   21.3260 C   0  0  0  0  0  0  0  0  0  0  0  0
  -22.2520   -8.9430   20.3470 C   0  0  0  0  0  3  0  0  0  0  0  0
  -22.9740  -10.1340   20.1640 C   0  0  0  0  0  3  0  0  0  0  0  0
  -21.8950   -6.8620   21.4140 O   0  0  0  0  0  0  0  0  0  0  0  0
  -21.7770   -6.1690   22.5920 C   0  0  0  0  0  0  0  0  0  0  0  0
  -21.2310   -6.7590   23.7540 C   0  0  0  0  0  3  0  0  0  0  0  0
  -21.0670   -5.9910   24.9240 C   0  0  0  0  0  3  0  0  0  0  0  0
  -21.4360   -4.6320   24.9310 C   0  0  0  0  0  0  0  0  0  0  0  0
  -21.9740   -4.0410   23.7750 C   0  0  0  0  0  3  0  0  0  0  0  0
  -22.1420   -4.8080   22.6090 C   0  0  0  0  0  0  0  0  0  0  0  0
  -22.6410   -4.2290   21.4900 F   0  0  0  0  0  0  0  0  0  0  0  0
  -21.2710   -3.8910   26.0520 F   0  0  0  0  0  0  0  0  0  0  0  0
  -22.9610  -13.5100   21.0690 C   0  0  0  0  0  0  0  0  0  0  0  0
  -22.2350  -12.8140   21.9380 N   0  0  0  0  0  0  0  0  0  0  0  0
  -22.5210  -14.5350   20.5490 O   0  0  0  0  0  0  0  0  0  0  0  0
  -22.6040  -11.9850   22.3820 H   0  0  0  0  0  0  0  0  0  0  0  0
  -21.2970  -13.1130   22.1630 H   0  0  0  0  0  0  0  0  0  0  0  0
  -25.5920  -15.1770   20.2360 N   0  0  0  0  0  0  0  0  0  0  0  0
  -24.8270  -15.8370   20.3330 H   0  0  0  0  0  0  0  0  0  0  0  0
  -26.4410  -15.6020   19.8860 H   0  0  0  0  0  0  0  0  0  0  0  0
  -28.6820  -25.4990   19.4930 C   0  0  0  0  0  2  0  0  0  0  0  0
  -28.4480  -26.6820   20.3030 O   0  0  0  0  0  0  0  0  0  0  0  0
  -24.5760  -31.8870   23.2570 C   0  0  0  0  0  0  0  0  0  0  0  0
  -27.2600  -27.3990   20.2370 C   0  0  0  0  0  0  0  0  0  0  0  0
  -23.3910  -30.4800   21.6030 C   0  0  0  0  0  3  0  0  0  0  0  0
  -24.8640  -28.9360   20.2000 C   0  0  0  0  0  0  0  0  0  0  0  0
  -25.9200  -30.8330   21.4360 C   0  0  0  0  0  2  0  0  0  0  0  0
  -26.0140  -29.4550   20.8040 C   0  0  0  0  0  0  0  0  0  0  0  0
  -27.2100  -28.6940   20.8190 C   0  0  0  0  0  3  0  0  0  0  0  0
  -26.0810  -26.8960   19.6390 C   0  0  0  0  0  3  0  0  0  0  0  0
  -24.8960  -27.6590   19.6130 C   0  0  0  0  0  3  0  0  0  0  0  0
  -23.6180  -29.7950   20.2280 C   0  0  0  0  0  2  0  0  0  0  0  0
  -24.6460  -31.0840   22.1570 N   0  0  0  0  0  0  0  0  0  0  0  0
  -23.4880  -32.1630   23.7820 O   0  0  0  0  0  0  0  0  0  0  0  0
  -22.7270  -29.4640   22.5600 C   0  0  0  0  0  0  0  0  0  0  0  0
  -21.4050  -29.2750   22.4160 N   0  0  0  0  0  0  0  0  0  0  0  0
  -23.4020  -28.8450   23.3870 O   0  0  0  0  0  0  0  0  0  0  0  0
  -20.9220  -29.8280   21.7200 H   0  0  0  0  0  0  0  0  0  0  0  0
  -18.0310  -28.0660   22.8720 C   0  0  0  0  0  0  0  0  0  0  0  0
  -20.5850  -28.3360   23.1800 C   0  0  0  0  0  3  0  0  0  0  0  0
  -20.7010  -26.9030   22.6140 C   0  0  0  0  0  2  0  0  0  0  0  0
  -19.6170  -26.5720   21.5840 C   0  0  0  0  0  2  0  0  0  0  0  0
  -18.2240  -26.7140   22.2050 C   0  0  0  0  0  2  0  0  0  0  0  0
  -19.1410  -28.8340   23.3180 C   0  0  0  0  0  0  0  0  0  0  0  0
  -18.9080  -30.1000   23.8990 C   0  0  0  0  0  3  0  0  0  0  0  0
  -17.5990  -30.5970   24.0410 C   0  0  0  0  0  3  0  0  0  0  0  0
  -16.5050  -29.8260   23.6150 C   0  0  0  0  0  3  0  0  0  0  0  0
  -16.7220  -28.5620   23.0360 C   0  0  0  0  0  3  0  0  0  0  0  0
  -25.8530  -32.5250   23.8880 C   0  0  0  0  0  3  0  0  0  0  0  0
  -25.5470  -33.9320   24.1850 N   0  0  0  0  0  0  0  0  0  0  0  0
  -25.8980  -34.9670   23.4090 C   0  0  0  0  0  0  0  0  0  0  0  0
  -26.5840  -34.8380   22.3920 O   0  0  0  0  0  0  0  0  0  0  0  0
  -24.9370  -34.1030   24.9700 H   0  0  0  0  0  0  0  0  0  0  0  0
  -24.1900  -36.7640   22.9850 C   0  0  0  0  0  1  0  0  0  0  0  0
  -25.4090  -36.3650   23.8310 C   0  0  0  0  0  3  0  0  0  0  0  0
  -27.5260  -37.2560   24.7000 C   0  0  0  0  0  1  0  0  0  0  0  0
  -26.4510  -37.4090   23.7240 N   0  0  0  0  0  0  0  0  0  0  0  0
  -26.0460  -38.3340   23.8410 H   0  0  0  0  0  0  0  0  0  0  0  0
  -26.3440  -31.7760   25.1880 C   0  0  1  0  0  0  0  0  0  0  0  0
  -25.2290  -31.5630   26.2390 C   0  0  0  0  0  1  0  0  0  0  0  0
  -26.9300  -30.3890   24.8310 C   0  0  0  0  0  1  0  0  0  0  0  0
  -27.4820  -32.5790   25.8600 C   0  0  0  0  0  1  0  0  0  0  0  0
  1  3  2  0
  1  5  1  0
  3  4  1  0
  4  2  2  0
  5  2  1  0
  7  6  1  0
  7  8  1  0
  7  5  1  0
  8  9  1  0
  9 10  1  0
 10 19  1  0
 11 19  1  0
 12 17  1  0
 13 14  1  0
 13 12  1  0
 15 14  1  0
 15 24  1  0
 15 16  1  0
 17 11  1  0
 17 16  1  0
 18 11  2  0
 19 20  1  0
 21 22  2  0
 22 41  1  0
 23 22  1  0
 23 26  1  0
 24 21  1  0
 24 25  1  0
 25 23  2  0
 26 27  1  0
 27 28  2  0
 29 32  1  0
 29 28  1  0
 30 29  2  0
 31 30  1  0
 31 26  2  0
 32 33  1  0
 33 38  2  0
 33 34  1  0
 34 35  2  0
 35 36  1  0
 36 40  1  0
 37 36  2  0
 38 37  1  0
 39 38  1  0
 41 42  1  0
 42 45  1  0
 42 44  1  0
 43 41  2  0
 46 47  1  0
 46 21  1  0
 48 46  1  0
 49  3  1  0
 49 50  1  0
 51 62  2  0
 52 50  1  0
 52 57  1  0
 53 61  1  0
 53 63  1  0
 54 60  1  0
 54 56  1  0
 55 61  1  0
 56 57  2  0
 56 55  1  0
 58 52  2  0
 59 58  1  0
 59 54  2  0
 60 53  1  0
 61 51  1  0
 63 65  2  0
 64 63  1  0
 66 64  1  0
 67 76  2  0
 67 72  1  0
 68 64  1  0
 68 72  1  0
 69 68  1  0
 70 71  1  0
 70 69  1  0
 71 67  1  0
 72 73  2  0
 73 74  1  0
 75 74  2  0
 76 75  1  0
 77 51  1  0
 77 78  1  0
 77 87  1  0
 78 81  1  0
 79 83  1  0
 79 78  1  0
 80 79  2  0
 83 82  1  0
 85 83  1  0
 85 86  1  0
 85 84  1  0
 87 90  1  1
 87 88  1  0
 89 87  1  0
M  ISO  4  11 100  19 100  49 101  50 101
M  END
>  <TORSDO>  (67) 
F 21

>  <SCORE>  (67) 
-13.390

>  <name>  (67) 
69

>  <ligand_id>  (67) 
69

>  <original_smiles>  (67) 
[H]c1c([H])c([H])c2c(c1[H])C([H])([H])C([H])([H])C([H])([H])C2([H])N([H])C(=O)C1([H])N(C(=O)C([H])(N([H])C(=O)C([H])(N([H])C([H])([H])[H])C([H])([H])[H])C(C([H])([H])[H])(C([H])([H])[H])C([H])([H])[H])C([H])([H])c2c([H])c(OC([H])([H])c3nc([H])n(C([H])(C([H])([H])[H])C([H])([H])C([H])([H])C([H])([H])N([H])C(=O)N4C([H])([H])C([H])([H])C([H])([H])C([H])(n5nc(-c6c([H])c([H])c(Oc7c([H])c([H])c(F)c([H])c7F)c([H])c6[H])c(C(=O)N([H])[H])c5N([H])[H])C4([H])[H])c3[H])c([H])c([H])c2C1([H])[H]

>  <smiles>  (67) 
[H]c1c([H])c([H])c2c(c1[H])C([H])([H])C([H])([H])C([H])([H])C2([H])N([H])C(=O)C1([H])N(C(=O)C([H])(N([H])C(=O)C([H])(N([H])C([H])([H])[H])C([H])([H])[H])C(C([H])([H])[H])(C([H])([H])[H])C([H])([H])[H])C([H])([H])c2c([H])c(OC([H])([H])c3nc([H])n(C([H])(C([H])([H])[H])C([H])([H])C([H])([H])C([H])([H])N([H])C(=O)N4C([H])([H])C([H])([H])C([H])([H])C([H])(n5nc(-c6c([H])c([H])c(Oc7c([H])c([H])c(F)c([H])c7F)c([H])c6[H])c(C(=O)N([H])[H])c5N([H])[H])C4([H])[H])c3[H])c([H])c([H])c2C1([H])[H]

$$$$
70:0:0
     RDKit          3D

 87 95  0  0  1  0  0  0  0  0999 V2000
  -28.2170  -19.6870   20.6460 C   0  0  0  0  0  3  0  0  0  0  0  0
  -29.9460  -20.6540   19.9040 C   0  0  0  0  0  3  0  0  0  0  0  0
  -29.5110  -19.3140   20.1370 C   0  0  0  0  0  0  0  0  0  0  0  0
  -27.9480  -21.0250   20.7140 N   0  0  0  0  0  0  0  0  0  0  0  0
  -29.0110  -21.7240   20.2210 N   0  0  0  0  0  0  0  0  0  0  0  0
  -30.2570  -17.8200   19.8480 C   0  0  0  0  0  2  0  0  0  0  0  0
  -30.5940  -15.0910   19.9930 C   0  0  0  0  0  0  0  0  0  0  0  0
  -30.3910  -12.7670   18.9420 C   0  0  0  0  0  2  0  0  0  0  0  0
  -29.3770  -12.7370   17.7710 C   0  0  0  0  0  2  0  0  0  0  0  0
  -27.9440  -12.5110   18.2880 C   0  0  0  0  0  2  0  0  0  0  0  0
  -27.6220  -13.3920   19.5210 C   0  0  0  0  0  3  0  0  0  0  0  0
  -28.7460  -13.3360   20.5730 C   0  0  0  0  0  2  0  0  0  0  0  0
  -29.9690  -13.8310   19.9150 N   0  0  0  0  0  0  0  0  0  0  0  0
  -31.7420  -15.1320   19.5310 O   0  0  0  0  0  0  0  0  0  0  0  0
  -29.1230  -16.3820   21.5540 C   0  0  0  0  0  1  0  0  0  0  0  0
  -29.9100  -16.3310   20.3210 N   0  0  0  0  0  0  0  0  0  0  0  0
  -25.2970  -13.9610   20.4220 C   0  0  0  0  0  0  0  0  0  0  0  0
  -24.2530  -13.1800   20.8360 C   0  0  0  0  0  0  0  0  0  0  0  0
  -24.7060  -11.8280   20.7380 C   0  0  0  0  0  0  0  0  0  0  0  0
  -26.3170  -13.0840   20.0930 N   0  0  0  0  0  0  0  0  0  0  0  0
  -25.9760  -11.7950   20.3480 N   0  0  0  0  0  0  0  0  0  0  0  0
  -23.9850  -10.5650   20.9370 C   0  0  0  0  0  0  0  0  0  0  0  0
  -24.4220   -9.6030   21.8750 C   0  0  0  0  0  3  0  0  0  0  0  0
  -23.7000   -8.4060   22.0620 C   0  0  0  0  0  3  0  0  0  0  0  0
  -22.5240   -8.1610   21.3140 C   0  0  0  0  0  0  0  0  0  0  0  0
  -22.1060   -9.1110   20.3650 C   0  0  0  0  0  3  0  0  0  0  0  0
  -22.8290  -10.3000   20.1750 C   0  0  0  0  0  3  0  0  0  0  0  0
  -21.7730   -7.0160   21.4100 O   0  0  0  0  0  0  0  0  0  0  0  0
  -21.6600   -6.3260   22.5900 C   0  0  0  0  0  0  0  0  0  0  0  0
  -21.1520   -6.9290   23.7610 C   0  0  0  0  0  3  0  0  0  0  0  0
  -20.9900   -6.1630   24.9330 C   0  0  0  0  0  3  0  0  0  0  0  0
  -21.3270   -4.7960   24.9340 C   0  0  0  0  0  0  0  0  0  0  0  0
  -21.8290   -4.1940   23.7670 C   0  0  0  0  0  3  0  0  0  0  0  0
  -21.9920   -4.9560   22.5980 C   0  0  0  0  0  0  0  0  0  0  0  0
  -22.4560   -4.3650   21.4700 F   0  0  0  0  0  0  0  0  0  0  0  0
  -21.1630   -4.0580   26.0570 F   0  0  0  0  0  0  0  0  0  0  0  0
  -22.8790  -13.6570   21.2040 C   0  0  0  0  0  0  0  0  0  0  0  0
  -22.2010  -12.9430   22.0960 N   0  0  0  0  0  0  0  0  0  0  0  0
  -22.4170  -14.6960   20.7340 O   0  0  0  0  0  0  0  0  0  0  0  0
  -22.5910  -12.1020   22.4950 H   0  0  0  0  0  0  0  0  0  0  0  0
  -21.2800  -13.2420   22.3870 H   0  0  0  0  0  0  0  0  0  0  0  0
  -25.4600  -15.3350   20.2770 N   0  0  0  0  0  0  0  0  0  0  0  0
  -24.7080  -15.9920   20.4530 H   0  0  0  0  0  0  0  0  0  0  0  0
  -26.2950  -15.7730   19.9070 H   0  0  0  0  0  0  0  0  0  0  0  0
  -29.1650  -23.3280   20.3000 C   0  0  0  0  0  3  0  0  0  0  0  0
  -28.0400  -24.5850   20.0190 C   0  0  0  0  0  3  0  0  0  0  0  0
  -28.2740  -26.1470   20.1510 O   0  0  0  0  0  0  0  0  0  0  0  0
  -24.6710  -31.8690   23.1750 C   0  0  0  0  0  0  0  0  0  0  0  0
  -27.2180  -27.1430   20.0940 C   0  0  0  0  0  0  0  0  0  0  0  0
  -23.4540  -30.4740   21.5490 C   0  0  0  0  0  3  0  0  0  0  0  0
  -24.8870  -28.9040   20.0970 C   0  0  0  0  0  0  0  0  0  0  0  0
  -26.0060  -30.7450   21.3450 C   0  0  0  0  0  2  0  0  0  0  0  0
  -26.0760  -29.3500   20.6860 C   0  0  0  0  0  0  0  0  0  0  0  0
  -27.2420  -28.4880   20.6610 C   0  0  0  0  0  3  0  0  0  0  0  0
  -26.0000  -26.8070   19.4660 C   0  0  0  0  0  3  0  0  0  0  0  0
  -24.8630  -27.6490   19.4690 C   0  0  0  0  0  3  0  0  0  0  0  0
  -23.6570  -29.7980   20.1670 C   0  0  0  0  0  2  0  0  0  0  0  0
  -24.7320  -31.0520   22.0770 N   0  0  0  0  0  0  0  0  0  0  0  0
  -23.5910  -32.1460   23.7200 O   0  0  0  0  0  0  0  0  0  0  0  0
  -22.7910  -29.4650   22.5210 C   0  0  0  0  0  0  0  0  0  0  0  0
  -21.4620  -29.2850   22.4110 N   0  0  0  0  0  0  0  0  0  0  0  0
  -23.4770  -28.8420   23.3350 O   0  0  0  0  0  0  0  0  0  0  0  0
  -20.9650  -29.8390   21.7280 H   0  0  0  0  0  0  0  0  0  0  0  0
  -18.0980  -28.0480   22.9420 C   0  0  0  0  0  0  0  0  0  0  0  0
  -20.6560  -28.3400   23.1880 C   0  0  0  0  0  3  0  0  0  0  0  0
  -20.7690  -26.9100   22.6060 C   0  0  0  0  0  2  0  0  0  0  0  0
  -19.6610  -26.5830   21.6010 C   0  0  0  0  0  2  0  0  0  0  0  0
  -18.2840  -26.7020   22.2610 C   0  0  0  0  0  2  0  0  0  0  0  0
  -19.2110  -28.8240   23.3620 C   0  0  0  0  0  0  0  0  0  0  0  0
  -18.9820  -30.0820   23.9600 C   0  0  0  0  0  3  0  0  0  0  0  0
  -17.6730  -30.5650   24.1410 C   0  0  0  0  0  3  0  0  0  0  0  0
  -16.5730  -29.7890   23.7350 C   0  0  0  0  0  3  0  0  0  0  0  0
  -16.7870  -28.5320   23.1420 C   0  0  0  0  0  3  0  0  0  0  0  0
  -25.9530  -32.5100   23.7860 C   0  0  0  0  0  3  0  0  0  0  0  0
  -26.4910  -31.7330   25.0510 C   0  0  1  0  0  0  0  0  0  0  0  0
  -25.4150  -31.4800   26.1330 C   0  0  0  0  0  1  0  0  0  0  0  0
  -27.0780  -30.3620   24.6440 C   0  0  0  0  0  1  0  0  0  0  0  0
  -27.6470  -32.5300   25.7010 C   0  0  0  0  0  1  0  0  0  0  0  0
  -25.6360  -33.9030   24.1410 N   0  0  0  0  0  0  0  0  0  0  0  0
  -25.9340  -34.9700   23.3870 C   0  0  0  0  0  0  0  0  0  0  0  0
  -26.5710  -34.8870   22.3340 O   0  0  0  0  0  0  0  0  0  0  0  0
  -25.0650  -34.0410   24.9620 H   0  0  0  0  0  0  0  0  0  0  0  0
  -24.1710  -36.7480   23.1290 C   0  0  0  0  0  1  0  0  0  0  0  0
  -25.4530  -36.3500   23.8800 C   0  0  0  0  0  3  0  0  0  0  0  0
  -27.6080  -37.2580   24.6290 C   0  0  0  0  0  1  0  0  0  0  0  0
  -26.4670  -37.4160   23.7310 N   0  0  0  0  0  0  0  0  0  0  0  0
  -26.0570  -38.3320   23.8990 H   0  0  0  0  0  0  0  0  0  0  0  0
  1  4  2  0
  2  3  2  0
  2  5  1  0
  3  1  1  0
  5 45  1  0
  5  4  1  0
  6  3  1  0
  6 16  1  0
  7 16  1  0
  8 13  1  0
  9 10  1  0
  9  8  1  0
 11 10  1  0
 11 20  1  0
 11 12  1  0
 13  7  1  0
 13 12  1  0
 14  7  2  0
 16 15  1  0
 17 18  2  0
 18 37  1  0
 19 18  1  0
 19 22  1  0
 20 21  1  0
 20 17  1  0
 21 19  2  0
 22 23  1  0
 23 24  2  0
 25 28  1  0
 25 24  1  0
 26 25  2  0
 27 26  1  0
 27 22  2  0
 28 29  1  0
 29 34  2  0
 29 30  1  0
 30 31  2  0
 31 32  1  0
 32 36  1  0
 33 32  2  0
 34 33  1  0
 35 34  1  0
 37 38  1  0
 38 41  1  0
 38 40  1  0
 39 37  2  0
 42 17  1  0
 42 43  1  0
 44 42  1  0
 46 47  1  0
 46 45  2  0
 48 59  2  0
 49 47  1  0
 49 54  1  0
 50 58  1  0
 50 60  1  0
 51 57  1  0
 51 53  1  0
 52 58  1  0
 53 52  1  0
 54 53  2  0
 55 56  1  0
 55 49  2  0
 56 51  2  0
 57 50  1  0
 58 48  1  0
 60 62  2  0
 61 60  1  0
 63 61  1  0
 64 73  2  0
 64 69  1  0
 65 61  1  0
 65 69  1  0
 66 65  1  0
 67 68  1  0
 67 66  1  0
 68 64  1  0
 69 70  2  0
 70 71  1  0
 72 71  2  0
 73 72  1  0
 74 48  1  0
 74 79  1  0
 74 75  1  0
 75 78  1  1
 75 76  1  0
 77 75  1  0
 79 82  1  0
 80 84  1  0
 80 79  1  0
 81 80  2  0
 84 83  1  0
 86 84  1  0
 86 87  1  0
 86 85  1  0
M  ISO  4   7 100  16 100  46 101  47 101
M  END
>  <TORSDO>  (68) 
F 19

>  <SCORE>  (68) 
-14.866

>  <name>  (68) 
70

>  <ligand_id>  (68) 
70

>  <original_smiles>  (68) 
[H]c1nn(C([H])([H])C([H])([H])Oc2c([H])c([H])c3c(c2[H])C([H])([H])N(C(=O)C([H])(N([H])C(=O)C([H])(N([H])C([H])([H])[H])C([H])([H])[H])C(C([H])([H])[H])(C([H])([H])[H])C([H])([H])[H])C([H])(C(=O)N([H])C2([H])c4c([H])c([H])c([H])c([H])c4C([H])([H])C([H])([H])C2([H])[H])C3([H])[H])c([H])c1C([H])([H])N(C(=O)N1C([H])([H])C([H])([H])C([H])([H])C([H])(n2nc(-c3c([H])c([H])c(Oc4c([H])c([H])c(F)c([H])c4F)c([H])c3[H])c(C(=O)N([H])[H])c2N([H])[H])C1([H])[H])C([H])([H])[H]

>  <smiles>  (68) 
[H]c1nn(C([H])([H])C([H])([H])Oc2c([H])c([H])c3c(c2[H])C([H])([H])N(C(=O)C([H])(N([H])C(=O)C([H])(N([H])C([H])([H])[H])C([H])([H])[H])C(C([H])([H])[H])(C([H])([H])[H])C([H])([H])[H])C([H])(C(=O)N([H])C2([H])c4c([H])c([H])c([H])c([H])c4C([H])([H])C([H])([H])C2([H])[H])C3([H])[H])c([H])c1C([H])([H])N(C(=O)N1C([H])([H])C([H])([H])C([H])([H])C([H])(n2nc(-c3c([H])c([H])c(Oc4c([H])c([H])c(F)c([H])c4F)c([H])c3[H])c(C(=O)N([H])[H])c2N([H])[H])C1([H])[H])C([H])([H])[H]

$$$$
71:0:0
     RDKit          3D

 92100  0  0  1  0  0  0  0  0999 V2000
  -31.8900  -22.1970   19.5290 C   0  0  0  0  0  3  0  0  0  0  0  0
  -30.7830  -21.5360   20.0060 C   0  0  0  0  0  0  0  0  0  0  0  0
  -32.4930  -20.0820   19.7310 C   0  0  0  0  0  3  0  0  0  0  0  0
  -33.4790  -18.9600   19.7550 C   0  0  0  0  0  1  0  0  0  0  0  0
  -31.1750  -20.1440   20.0820 N   0  0  0  0  0  0  0  0  0  0  0  0
  -32.8890  -21.2990   19.3780 N   0  0  0  0  0  0  0  0  0  0  0  0
  -33.8330  -21.5370   19.0970 H   0  0  0  0  0  0  0  0  0  0  0  0
  -30.7280  -18.8750   22.1480 C   0  0  0  0  0  1  0  0  0  0  0  0
  -30.4630  -18.8690   20.6290 C   0  0  0  0  0  3  0  0  0  0  0  0
  -30.7870  -17.3830   19.9870 C   0  0  0  0  0  2  0  0  0  0  0  0
  -30.6830  -14.8010   20.1760 C   0  0  0  0  0  0  0  0  0  0  0  0
  -30.3780  -12.5800   19.0580 C   0  0  0  0  0  2  0  0  0  0  0  0
  -29.3700  -12.6790   17.8930 C   0  0  0  0  0  2  0  0  0  0  0  0
  -27.9260  -12.4900   18.3910 C   0  0  0  0  0  2  0  0  0  0  0  0
  -27.6250  -13.3170   19.6680 C   0  0  0  0  0  3  0  0  0  0  0  0
  -28.7510  -13.1390   20.7190 C   0  0  0  0  0  2  0  0  0  0  0  0
  -29.9870  -13.6030   20.0660 N   0  0  0  0  0  0  0  0  0  0  0  0
  -31.8680  -14.7860   19.8340 O   0  0  0  0  0  0  0  0  0  0  0  0
  -28.6830  -16.3250   20.7630 C   0  0  0  0  0  1  0  0  0  0  0  0
  -30.0690  -16.0680   20.3540 N   0  0  0  0  0  0  0  0  0  0  0  0
  -25.2510  -13.9240   20.4260 C   0  0  0  0  0  0  0  0  0  0  0  0
  -24.1910  -13.1540   20.8130 C   0  0  0  0  0  0  0  0  0  0  0  0
  -24.6510  -11.8010   20.7770 C   0  0  0  0  0  0  0  0  0  0  0  0
  -26.2920  -13.0400   20.1900 N   0  0  0  0  0  0  0  0  0  0  0  0
  -25.9380  -11.7580   20.4570 N   0  0  0  0  0  0  0  0  0  0  0  0
  -23.9250  -10.5410   20.9760 C   0  0  0  0  0  0  0  0  0  0  0  0
  -24.3660   -9.5800   21.9100 C   0  0  0  0  0  3  0  0  0  0  0  0
  -23.6460   -8.3830   22.0990 C   0  0  0  0  0  3  0  0  0  0  0  0
  -22.4670   -8.1380   21.3540 C   0  0  0  0  0  0  0  0  0  0  0  0
  -22.0420   -9.0900   20.4100 C   0  0  0  0  0  3  0  0  0  0  0  0
  -22.7650  -10.2790   20.2190 C   0  0  0  0  0  3  0  0  0  0  0  0
  -21.7220   -6.9890   21.4570 O   0  0  0  0  0  0  0  0  0  0  0  0
  -21.6820   -6.2560   22.6150 C   0  0  0  0  0  0  0  0  0  0  0  0
  -21.2470   -6.8170   23.8360 C   0  0  0  0  0  3  0  0  0  0  0  0
  -21.1360   -6.0090   24.9850 C   0  0  0  0  0  3  0  0  0  0  0  0
  -21.4690   -4.6420   24.9200 C   0  0  0  0  0  0  0  0  0  0  0  0
  -21.9090   -4.0820   23.7080 C   0  0  0  0  0  3  0  0  0  0  0  0
  -22.0050   -4.8860   22.5580 C   0  0  0  0  0  0  0  0  0  0  0  0
  -22.4010   -4.3320   21.3850 F   0  0  0  0  0  0  0  0  0  0  0  0
  -21.3630   -3.8650   26.0240 F   0  0  0  0  0  0  0  0  0  0  0  0
  -22.7990  -13.6300   21.1090 C   0  0  0  0  0  0  0  0  0  0  0  0
  -22.0900  -12.9320   21.9870 N   0  0  0  0  0  0  0  0  0  0  0  0
  -22.3530  -14.6580   20.6010 O   0  0  0  0  0  0  0  0  0  0  0  0
  -22.4690  -12.0980   22.4150 H   0  0  0  0  0  0  0  0  0  0  0  0
  -21.1570  -13.2280   22.2340 H   0  0  0  0  0  0  0  0  0  0  0  0
  -25.4050  -15.2940   20.2340 N   0  0  0  0  0  0  0  0  0  0  0  0
  -24.6450  -15.9500   20.3770 H   0  0  0  0  0  0  0  0  0  0  0  0
  -26.2450  -15.7310   19.8870 H   0  0  0  0  0  0  0  0  0  0  0  0
  -29.4830  -22.3310   20.3600 C   0  0  0  0  0  2  0  0  0  0  0  0
  -29.5660  -23.9600   20.2270 C   0  0  0  0  0  3  0  0  0  0  0  0
  -28.2800  -24.9240   20.3880 C   0  0  0  0  0  3  0  0  0  0  0  0
  -28.4270  -26.4200   20.3040 O   0  0  0  0  0  0  0  0  0  0  0  0
  -24.5950  -31.8590   23.2530 C   0  0  0  0  0  0  0  0  0  0  0  0
  -27.2830  -27.2560   20.2680 C   0  0  0  0  0  0  0  0  0  0  0  0
  -23.4210  -30.4320   21.6190 C   0  0  0  0  0  3  0  0  0  0  0  0
  -24.8990  -28.8690   20.2230 C   0  0  0  0  0  0  0  0  0  0  0  0
  -25.9600  -30.7590   21.4510 C   0  0  0  0  0  2  0  0  0  0  0  0
  -26.0590  -29.3660   20.8290 C   0  0  0  0  0  0  0  0  0  0  0  0
  -27.2520  -28.5730   20.8360 C   0  0  0  0  0  3  0  0  0  0  0  0
  -26.0940  -26.8220   19.6340 C   0  0  0  0  0  3  0  0  0  0  0  0
  -24.9230  -27.6070   19.6120 C   0  0  0  0  0  3  0  0  0  0  0  0
  -23.6520  -29.7370   20.2500 C   0  0  0  0  0  2  0  0  0  0  0  0
  -24.6790  -31.0340   22.1670 N   0  0  0  0  0  0  0  0  0  0  0  0
  -23.5020  -32.1340   23.7690 O   0  0  0  0  0  0  0  0  0  0  0  0
  -22.7510  -29.4240   22.5840 C   0  0  0  0  0  0  0  0  0  0  0  0
  -21.4260  -29.2460   22.4490 N   0  0  0  0  0  0  0  0  0  0  0  0
  -23.4240  -28.8050   23.4130 O   0  0  0  0  0  0  0  0  0  0  0  0
  -20.9430  -29.7950   21.7520 H   0  0  0  0  0  0  0  0  0  0  0  0
  -18.0440  -28.0590   22.9510 C   0  0  0  0  0  0  0  0  0  0  0  0
  -20.6020  -28.3130   23.2210 C   0  0  0  0  0  3  0  0  0  0  0  0
  -20.7030  -26.8800   22.6480 C   0  0  0  0  0  2  0  0  0  0  0  0
  -19.6010  -26.5580   21.6340 C   0  0  0  0  0  2  0  0  0  0  0  0
  -18.2190  -26.7090   22.2770 C   0  0  0  0  0  2  0  0  0  0  0  0
  -19.1640  -28.8190   23.3800 C   0  0  0  0  0  0  0  0  0  0  0  0
  -18.9480  -30.0820   23.9710 C   0  0  0  0  0  3  0  0  0  0  0  0
  -17.6460  -30.5880   24.1340 C   0  0  0  0  0  3  0  0  0  0  0  0
  -16.5390  -29.8260   23.7210 C   0  0  0  0  0  3  0  0  0  0  0  0
  -16.7390  -28.5620   23.1360 C   0  0  0  0  0  3  0  0  0  0  0  0
  -25.8620  -32.5120   23.8850 C   0  0  0  0  0  3  0  0  0  0  0  0
  -25.5390  -33.9130   24.1970 N   0  0  0  0  0  0  0  0  0  0  0  0
  -25.8780  -34.9600   23.4310 C   0  0  0  0  0  0  0  0  0  0  0  0
  -26.5650  -34.8460   22.4130 O   0  0  0  0  0  0  0  0  0  0  0  0
  -24.9350  -34.0730   24.9910 H   0  0  0  0  0  0  0  0  0  0  0  0
  -24.1590  -36.7460   23.0140 C   0  0  0  0  0  1  0  0  0  0  0  0
  -25.3790  -36.3540   23.8640 C   0  0  0  0  0  3  0  0  0  0  0  0
  -27.4930  -37.2450   24.7430 C   0  0  0  0  0  1  0  0  0  0  0  0
  -26.4170  -37.4040   23.7670 N   0  0  0  0  0  0  0  0  0  0  0  0
  -26.0130  -38.3290   23.8870 H   0  0  0  0  0  0  0  0  0  0  0  0
  -26.3650  -31.7570   25.1760 C   0  0  1  0  0  0  0  0  0  0  0  0
  -25.2570  -31.5170   26.2290 C   0  0  0  0  0  1  0  0  0  0  0  0
  -26.9660  -30.3840   24.8020 C   0  0  0  0  0  1  0  0  0  0  0  0
  -27.5070  -32.5630   25.8410 C   0  0  0  0  0  1  0  0  0  0  0  0
  1  2  2  0
  2  5  1  0
  2 49  1  0
  3  4  1  0
  3  5  1  0
  5  9  1  0
  6  1  1  0
  6  3  1  0
  7  6  1  0
  9  8  1  0
 10 20  1  0
 10  9  1  0
 11 20  1  0
 12 17  1  0
 13 14  1  0
 13 12  1  0
 15 14  1  0
 15 24  1  0
 15 16  1  0
 17 11  1  0
 17 16  1  0
 18 11  2  0
 20 19  1  0
 21 22  2  0
 22 41  1  0
 23 22  1  0
 23 26  1  0
 24 21  1  0
 24 25  1  0
 25 23  2  0
 26 27  1  0
 27 28  2  0
 29 32  1  0
 29 28  1  0
 30 29  2  0
 31 30  1  0
 31 26  2  0
 32 33  1  0
 33 34  1  0
 34 35  2  0
 36 35  1  0
 36 40  1  0
 37 36  2  0
 38 33  2  0
 38 37  1  0
 39 38  1  0
 41 42  1  0
 42 45  1  0
 42 44  1  0
 43 41  2  0
 46 47  1  0
 46 21  1  0
 48 46  1  0
 50 49  1  0
 50 51  2  0
 52 51  1  0
 53 64  2  0
 54 52  1  0
 54 59  1  0
 55 63  1  0
 55 65  1  0
 56 62  1  0
 56 58  1  0
 57 63  1  0
 58 59  2  0
 58 57  1  0
 60 54  2  0
 61 60  1  0
 61 56  2  0
 62 55  1  0
 63 53  1  0
 65 67  2  0
 66 65  1  0
 68 66  1  0
 69 78  2  0
 69 74  1  0
 70 66  1  0
 70 74  1  0
 71 70  1  0
 72 73  1  0
 72 71  1  0
 73 69  1  0
 74 75  2  0
 75 76  1  0
 77 76  2  0
 78 77  1  0
 79 53  1  0
 79 80  1  0
 79 89  1  0
 80 83  1  0
 81 85  1  0
 81 80  1  0
 82 81  2  0
 85 84  1  0
 87 85  1  0
 87 88  1  0
 87 86  1  0
 89 92  1  1
 89 90  1  0
 91 89  1  0
M  ISO  4  11 100  20 100  51 101  52 101
M  END
>  <TORSDO>  (69) 
F 21

>  <SCORE>  (69) 
-13.300

>  <name>  (69) 
71

>  <ligand_id>  (69) 
71

>  <original_smiles>  (69) 
[H]c1c([H])c([H])c2c(c1[H])C([H])([H])C([H])([H])C([H])([H])C2([H])N([H])C(=O)C1([H])N(C(=O)C([H])(N([H])C(=O)C([H])(N([H])C([H])([H])[H])C([H])([H])[H])C(C([H])([H])[H])(C([H])([H])[H])C([H])([H])[H])C([H])([H])c2c([H])c(OC([H])([H])C([H])([H])C([H])([H])c3c([H])[n+]([H])c(C([H])([H])[H])n3C([H])(C([H])([H])[H])C([H])([H])N(C(=O)N3C([H])([H])C([H])([H])C([H])([H])C([H])(n4nc(-c5c([H])c([H])c(Oc6c([H])c([H])c(F)c([H])c6F)c([H])c5[H])c(C(=O)N([H])[H])c4N([H])[H])C3([H])[H])C([H])([H])[H])c([H])c([H])c2C1([H])[H]

>  <smiles>  (69) 
[H]c1c([H])c([H])c2c(c1[H])C([H])([H])C([H])([H])C([H])([H])C2([H])N([H])C(=O)C1([H])N(C(=O)C([H])(N([H])C(=O)C([H])(N([H])C([H])([H])[H])C([H])([H])[H])C(C([H])([H])[H])(C([H])([H])[H])C([H])([H])[H])C([H])([H])c2c([H])c(OC([H])([H])C([H])([H])C([H])([H])c3c([H])[n+]([H])c(C([H])([H])[H])n3C([H])(C([H])([H])[H])C([H])([H])N(C(=O)N3C([H])([H])C([H])([H])C([H])([H])C([H])(n4nc(-c5c([H])c([H])c(Oc6c([H])c([H])c(F)c([H])c6F)c([H])c5[H])c(C(=O)N([H])[H])c4N([H])[H])C3([H])[H])C([H])([H])[H])c([H])c([H])c2C1([H])[H]

$$$$
72:0:0
     RDKit          3D

 91 99  0  0  1  0  0  0  0  0999 V2000
  -28.4360  -21.9800   18.3830 C   0  0  0  0  0  1  0  0  0  0  0  0
  -29.1470  -22.0070   19.7500 C   0  0  2  0  0  0  0  0  0  0  0  0
  -32.6670  -22.1840   20.2490 C   0  0  0  0  0  0  0  0  0  0  0  0
  -30.6540  -22.2110   19.6830 C   0  0  0  0  0  3  0  0  0  0  0  0
  -33.9200  -22.0120   21.0380 C   0  0  0  0  0  1  0  0  0  0  0  0
  -31.1260  -22.6840   17.1840 C   0  0  0  0  0  1  0  0  0  0  0  0
  -31.4150  -22.0220   20.7670 N   0  0  0  0  0  0  0  0  0  0  0  0
  -32.7180  -22.4680   18.9570 N   0  0  0  0  0  2  0  0  0  0  0  0
  -31.4140  -22.4680   18.5900 N   0  0  0  0  0  0  0  0  0  0  0  0
  -29.0380  -20.1360   20.1890 C   0  0  0  0  0  3  0  0  0  0  0  0
  -29.8680  -18.4740   19.6940 C   0  0  0  0  0  3  0  0  0  0  0  0
  -30.3950  -15.3770   19.7780 C   0  0  0  0  0  0  0  0  0  0  0  0
  -30.3590  -12.8560   18.9370 C   0  0  0  0  0  2  0  0  0  0  0  0
  -29.3680  -12.5280   17.7870 C   0  0  0  0  0  2  0  0  0  0  0  0
  -27.9710  -12.2110   18.3420 C   0  0  0  0  0  2  0  0  0  0  0  0
  -27.5740  -13.1920   19.4690 C   0  0  0  0  0  3  0  0  0  0  0  0
  -28.6950  -13.4510   20.5030 C   0  0  0  0  0  2  0  0  0  0  0  0
  -29.8360  -14.0320   19.7630 N   0  0  0  0  0  0  0  0  0  0  0  0
  -31.5990  -15.3090   19.4730 O   0  0  0  0  0  0  0  0  0  0  0  0
  -29.6740  -16.7380   19.9320 N   0  0  0  0  0  0  0  0  0  0  0  0
  -28.7140  -16.5430   20.1800 H   0  0  0  0  0  0  0  0  0  0  0  0
  -25.3030  -13.7460   20.4660 C   0  0  0  0  0  0  0  0  0  0  0  0
  -24.2590  -12.9740   20.8900 C   0  0  0  0  0  0  0  0  0  0  0  0
  -24.6880  -11.6180   20.7560 C   0  0  0  0  0  0  0  0  0  0  0  0
  -26.2980  -12.8640   20.0880 N   0  0  0  0  0  0  0  0  0  0  0  0
  -25.9480  -11.5730   20.3290 N   0  0  0  0  0  0  0  0  0  0  0  0
  -23.9450  -10.3650   20.9520 C   0  0  0  0  0  0  0  0  0  0  0  0
  -24.3790   -9.3820   21.8680 C   0  0  0  0  0  3  0  0  0  0  0  0
  -23.6330   -8.1970   22.0560 C   0  0  0  0  0  3  0  0  0  0  0  0
  -22.4390   -7.9860   21.3280 C   0  0  0  0  0  0  0  0  0  0  0  0
  -22.0230   -8.9570   20.3990 C   0  0  0  0  0  3  0  0  0  0  0  0
  -22.7690  -10.1330   20.2100 C   0  0  0  0  0  3  0  0  0  0  0  0
  -21.6650   -6.8550   21.4240 O   0  0  0  0  0  0  0  0  0  0  0  0
  -21.5780   -6.1410   22.5930 C   0  0  0  0  0  0  0  0  0  0  0  0
  -21.1080   -6.7230   23.7890 C   0  0  0  0  0  3  0  0  0  0  0  0
  -20.9670   -5.9350   24.9480 C   0  0  0  0  0  3  0  0  0  0  0  0
  -21.2870   -4.5640   24.9130 C   0  0  0  0  0  0  0  0  0  0  0  0
  -21.7520   -3.9820   23.7200 C   0  0  0  0  0  3  0  0  0  0  0  0
  -21.8960   -4.7680   22.5630 C   0  0  0  0  0  0  0  0  0  0  0  0
  -22.3220   -4.1960   21.4120 F   0  0  0  0  0  0  0  0  0  0  0  0
  -21.1470   -3.8050   26.0240 F   0  0  0  0  0  0  0  0  0  0  0  0
  -22.9020  -13.4710   21.2950 C   0  0  0  0  0  0  0  0  0  0  0  0
  -22.2330  -12.7590   22.1950 N   0  0  0  0  0  0  0  0  0  0  0  0
  -22.4500  -14.5250   20.8500 O   0  0  0  0  0  0  0  0  0  0  0  0
  -22.6130  -11.9050   22.5740 H   0  0  0  0  0  0  0  0  0  0  0  0
  -21.3260  -13.0740   22.5100 H   0  0  0  0  0  0  0  0  0  0  0  0
  -25.4810  -15.1210   20.3380 N   0  0  0  0  0  0  0  0  0  0  0  0
  -24.7370  -15.7780   20.5460 H   0  0  0  0  0  0  0  0  0  0  0  0
  -26.2900  -15.5610   19.9190 H   0  0  0  0  0  0  0  0  0  0  0  0
  -28.4360  -23.6930   20.3690 C   0  0  0  0  0  2  0  0  0  0  0  0
  -28.5260  -25.4210   20.1040 O   0  0  0  0  0  0  0  0  0  0  0  0
  -24.7910  -31.5400   23.0760 C   0  0  0  0  0  0  0  0  0  0  0  0
  -27.4950  -26.5720   20.0990 C   0  0  0  0  0  0  0  0  0  0  0  0
  -23.6630  -30.1310   21.4050 C   0  0  0  0  0  3  0  0  0  0  0  0
  -25.1730  -28.5250   20.0180 C   0  0  0  0  0  0  0  0  0  0  0  0
  -26.2390  -30.3430   21.3290 C   0  0  0  0  0  2  0  0  0  0  0  0
  -26.3490  -28.9160   20.6670 C   0  0  0  0  0  0  0  0  0  0  0  0
  -27.4980  -27.9690   20.6710 C   0  0  0  0  0  3  0  0  0  0  0  0
  -26.2740  -26.3770   19.4020 C   0  0  0  0  0  3  0  0  0  0  0  0
  -25.1700  -27.2790   19.3660 C   0  0  0  0  0  3  0  0  0  0  0  0
  -23.9460  -29.4470   20.0370 C   0  0  0  0  0  2  0  0  0  0  0  0
  -24.9190  -30.7030   21.9900 N   0  0  0  0  0  0  0  0  0  0  0  0
  -23.6840  -31.8090   23.5720 O   0  0  0  0  0  0  0  0  0  0  0  0
  -22.9520  -29.1300   22.3550 C   0  0  0  0  0  0  0  0  0  0  0  0
  -21.6230  -28.9580   22.2120 N   0  0  0  0  0  0  0  0  0  0  0  0
  -23.6070  -28.5060   23.1940 O   0  0  0  0  0  0  0  0  0  0  0  0
  -21.1450  -29.5100   21.5160 H   0  0  0  0  0  0  0  0  0  0  0  0
  -18.2440  -27.7120   22.6890 C   0  0  0  0  0  0  0  0  0  0  0  0
  -20.8010  -28.0010   22.9630 C   0  0  0  0  0  3  0  0  0  0  0  0
  -20.9170  -26.5790   22.3640 C   0  0  0  0  0  2  0  0  0  0  0  0
  -19.8220  -26.2670   21.3390 C   0  0  0  0  0  2  0  0  0  0  0  0
  -18.4370  -26.3820   21.9810 C   0  0  0  0  0  2  0  0  0  0  0  0
  -19.3530  -28.4800   23.1360 C   0  0  0  0  0  0  0  0  0  0  0  0
  -19.1160  -29.7230   23.7630 C   0  0  0  0  0  3  0  0  0  0  0  0
  -17.8040  -30.1990   23.9450 C   0  0  0  0  0  3  0  0  0  0  0  0
  -16.7100  -29.4310   23.5120 C   0  0  0  0  0  3  0  0  0  0  0  0
  -16.9320  -28.1880   22.8880 C   0  0  0  0  0  3  0  0  0  0  0  0
  -26.0300  -32.2110   23.7430 C   0  0  0  0  0  3  0  0  0  0  0  0
  -26.5340  -31.4380   25.0240 C   0  0  1  0  0  0  0  0  0  0  0  0
  -25.4240  -31.1660   26.0670 C   0  0  0  0  0  1  0  0  0  0  0  0
  -27.1540  -30.0740   24.6420 C   0  0  0  0  0  1  0  0  0  0  0  0
  -27.6520  -32.2480   25.7210 C   0  0  0  0  0  1  0  0  0  0  0  0
  -25.6640  -33.5930   24.1090 N   0  0  0  0  0  0  0  0  0  0  0  0
  -25.9390  -34.6830   23.3780 C   0  0  0  0  0  0  0  0  0  0  0  0
  -26.5880  -34.6320   22.3300 O   0  0  0  0  0  0  0  0  0  0  0  0
  -25.0870  -33.7010   24.9290 H   0  0  0  0  0  0  0  0  0  0  0  0
  -24.1280  -36.4170   23.1370 C   0  0  0  0  0  1  0  0  0  0  0  0
  -25.4160  -36.0430   23.8870 C   0  0  0  0  0  3  0  0  0  0  0  0
  -27.5410  -37.0080   24.6550 C   0  0  0  0  0  1  0  0  0  0  0  0
  -26.3980  -37.1430   23.7560 N   0  0  0  0  0  0  0  0  0  0  0  0
  -25.9580  -38.0410   23.9370 H   0  0  0  0  0  0  0  0  0  0  0  0
  2  1  1  6
  2 10  1  0
  2 50  1  0
  3  7  2  0
  3  5  1  0
  4  2  1  0
  4  7  1  0
  6  9  1  0
  8  3  1  0
  9  8  1  0
  9  4  1  0
 11 20  1  0
 11 10  2  0
 12 20  1  0
 13 18  1  0
 14 15  1  0
 14 13  1  0
 16 15  1  0
 16 25  1  0
 16 17  1  0
 18 12  1  0
 18 17  1  0
 19 12  2  0
 20 21  1  0
 22 23  2  0
 23 42  1  0
 24 23  1  0
 24 27  1  0
 25 26  1  0
 25 22  1  0
 26 24  2  0
 27 28  1  0
 28 29  2  0
 30 33  1  0
 30 29  1  0
 31 30  2  0
 32 31  1  0
 32 27  2  0
 33 34  1  0
 34 35  1  0
 35 36  2  0
 37 36  1  0
 37 41  1  0
 38 37  2  0
 39 34  2  0
 39 38  1  0
 40 39  1  0
 42 43  1  0
 43 46  1  0
 43 45  1  0
 44 42  2  0
 47 22  1  0
 47 48  1  0
 49 47  1  0
 51 50  1  0
 52 63  2  0
 53 51  1  0
 53 58  1  0
 54 62  1  0
 54 64  1  0
 55 61  1  0
 55 57  1  0
 56 62  1  0
 57 58  2  0
 57 56  1  0
 59 53  2  0
 60 59  1  0
 60 55  2  0
 61 54  1  0
 62 52  1  0
 64 66  2  0
 65 64  1  0
 67 65  1  0
 68 77  2  0
 68 73  1  0
 69 65  1  0
 69 73  1  0
 70 69  1  0
 71 72  1  0
 71 70  1  0
 72 68  1  0
 73 74  2  0
 74 75  1  0
 76 75  2  0
 77 76  1  0
 78 52  1  0
 78 83  1  0
 78 79  1  0
 79 82  1  1
 79 80  1  0
 81 79  1  0
 83 86  1  0
 84 88  1  0
 84 83  1  0
 85 84  2  0
 88 87  1  0
 90 88  1  0
 90 91  1  0
 90 89  1  0
M  ISO  4  12 100  20 100  50 101  51 101
M  END
>  <TORSDO>  (70) 
F 20

>  <SCORE>  (70) 
-14.835

>  <name>  (70) 
72

>  <ligand_id>  (70) 
72

>  <original_smiles>  (70) 
[H]c1c([H])c([H])c2c(c1[H])C([H])([H])C([H])([H])C([H])([H])C2([H])N([H])C(=O)C1([H])N(C(=O)C([H])(N([H])C(=O)C([H])(N([H])C([H])([H])[H])C([H])([H])[H])C(C([H])([H])[H])(C([H])([H])[H])C([H])([H])[H])C([H])([H])c2c([H])c(OC([H])([H])C(c3nc(C([H])([H])[H])nn3C([H])([H])[H])(C([H])([H])[H])C([H])([H])C([H])([H])N([H])C(=O)N3C([H])([H])C([H])([H])C([H])([H])C([H])(n4nc(-c5c([H])c([H])c(Oc6c([H])c([H])c(F)c([H])c6F)c([H])c5[H])c(C(=O)N([H])[H])c4N([H])[H])C3([H])[H])c([H])c([H])c2C1([H])[H]

>  <smiles>  (70) 
[H]c1c([H])c([H])c2c(c1[H])C([H])([H])C([H])([H])C([H])([H])C2([H])N([H])C(=O)C1([H])N(C(=O)C([H])(N([H])C(=O)C([H])(N([H])C([H])([H])[H])C([H])([H])[H])C(C([H])([H])[H])(C([H])([H])[H])C([H])([H])[H])C([H])([H])c2c([H])c(OC([H])([H])C(c3nc(C([H])([H])[H])nn3C([H])([H])[H])(C([H])([H])[H])C([H])([H])C([H])([H])N([H])C(=O)N3C([H])([H])C([H])([H])C([H])([H])C([H])(n4nc(-c5c([H])c([H])c(Oc6c([H])c([H])c(F)c([H])c6F)c([H])c5[H])c(C(=O)N([H])[H])c4N([H])[H])C3([H])[H])c([H])c([H])c2C1([H])[H]

$$$$
73:0:0
     RDKit          3D

 96104  0  0  1  0  0  0  0  0999 V2000
  -30.2830  -24.4320   19.0800 C   0  0  0  0  0  3  0  0  0  0  0  0
  -31.1940  -22.1840   19.1130 C   0  0  0  0  0  3  0  0  0  0  0  0
  -31.2200  -23.4960   18.6060 C   0  0  0  0  0  0  0  0  0  0  0  0
  -29.3440  -24.0410   20.0490 C   0  0  0  0  0  0  0  0  0  0  0  0
  -30.2410  -21.8360   20.0910 C   0  0  0  0  0  0  0  0  0  0  0  0
  -32.2690  -23.9040   17.5920 C   0  0  0  0  0  1  0  0  0  0  0  0
  -29.3200  -22.7550   20.5300 N   0  0  0  0  0  0  0  0  0  0  0  0
  -30.1820  -20.5710   22.2800 C   0  0  0  0  0  1  0  0  0  0  0  0
  -30.3210  -20.4180   20.7520 C   0  0  0  0  0  3  0  0  0  0  0  0
  -28.3020  -19.7940   19.3860 C   0  0  0  0  0  1  0  0  0  0  0  0
  -29.4250  -19.3150   20.2330 N   0  0  1  0  0  4  0  0  0  0  0  0
  -28.9530  -18.9990   21.0650 H   0  0  0  0  0  0  0  0  0  0  0  0
  -30.0540  -18.0360   19.6890 C   0  0  0  0  0  2  0  0  0  0  0  0
  -32.0380  -17.2060   21.1180 C   0  0  0  0  0  1  0  0  0  0  0  0
  -29.6740  -17.0890   22.0230 C   0  0  0  0  0  1  0  0  0  0  0  0
  -30.5580  -16.9710   20.7580 C   0  0  1  0  0  0  0  0  0  0  0  0
  -31.1590  -14.5170   19.8950 C   0  0  0  0  0  0  0  0  0  0  0  0
  -30.8270  -12.3050   18.8150 C   0  0  0  0  0  2  0  0  0  0  0  0
  -29.8280  -12.4770   17.6490 C   0  0  0  0  0  2  0  0  0  0  0  0
  -28.3670  -12.4060   18.1420 C   0  0  0  0  0  2  0  0  0  0  0  0
  -28.1120  -13.2860   19.3960 C   0  0  0  0  0  3  0  0  0  0  0  0
  -29.2030  -13.0380   20.4590 C   0  0  0  0  0  2  0  0  0  0  0  0
  -30.5030  -13.3230   19.8270 N   0  0  0  0  0  0  0  0  0  0  0  0
  -32.3020  -14.6710   19.4530 O   0  0  0  0  0  0  0  0  0  0  0  0
  -30.3780  -15.5410   20.3440 N   0  0  0  0  0  0  0  0  0  0  0  0
  -29.4550  -15.1920   20.5590 H   0  0  0  0  0  0  0  0  0  0  0  0
  -25.7910  -14.0300   20.2190 C   0  0  0  0  0  0  0  0  0  0  0  0
  -24.7010  -13.3190   20.6420 C   0  0  0  0  0  0  0  0  0  0  0  0
  -25.0850  -11.9440   20.5940 C   0  0  0  0  0  0  0  0  0  0  0  0
  -26.7710  -13.0900   19.9400 N   0  0  0  0  0  0  0  0  0  0  0  0
  -26.3540  -11.8310   20.2250 N   0  0  0  0  0  0  0  0  0  0  0  0
  -24.3000  -10.7240   20.8200 C   0  0  0  0  0  0  0  0  0  0  0  0
  -24.6930   -9.7610   21.7740 C   0  0  0  0  0  3  0  0  0  0  0  0
  -23.9120   -8.6040   21.9860 C   0  0  0  0  0  3  0  0  0  0  0  0
  -22.7250   -8.4050   21.2430 C   0  0  0  0  0  0  0  0  0  0  0  0
  -22.3520   -9.3550   20.2760 C   0  0  0  0  0  3  0  0  0  0  0  0
  -23.1330  -10.5030   20.0630 C   0  0  0  0  0  3  0  0  0  0  0  0
  -21.9170   -7.3000   21.3640 O   0  0  0  0  0  0  0  0  0  0  0  0
  -21.8020   -6.6180   22.5500 C   0  0  0  0  0  0  0  0  0  0  0  0
  -21.3760   -7.2530   23.7360 C   0  0  0  0  0  3  0  0  0  0  0  0
  -21.2050   -6.4990   24.9150 C   0  0  0  0  0  3  0  0  0  0  0  0
  -21.4500   -5.1130   24.9070 C   0  0  0  0  0  0  0  0  0  0  0  0
  -21.8680   -4.4790   23.7240 C   0  0  0  0  0  3  0  0  0  0  0  0
  -22.0400   -5.2290   22.5480 C   0  0  0  0  0  0  0  0  0  0  0  0
  -22.4240   -4.6100   21.4060 F   0  0  0  0  0  0  0  0  0  0  0  0
  -21.2780   -4.3870   26.0360 F   0  0  0  0  0  0  0  0  0  0  0  0
  -23.3470  -13.8730   20.9760 C   0  0  0  0  0  0  0  0  0  0  0  0
  -22.6260  -13.2230   21.8830 N   0  0  0  0  0  0  0  0  0  0  0  0
  -22.9390  -14.9170   20.4670 O   0  0  0  0  0  0  0  0  0  0  0  0
  -22.9690  -12.3780   22.3140 H   0  0  0  0  0  0  0  0  0  0  0  0
  -21.7160  -13.5740   22.1470 H   0  0  0  0  0  0  0  0  0  0  0  0
  -26.0210  -15.3890   20.0240 N   0  0  0  0  0  0  0  0  0  0  0  0
  -25.2760  -16.0680   20.1310 H   0  0  0  0  0  0  0  0  0  0  0  0
  -26.8390  -15.7670   19.5670 H   0  0  0  0  0  0  0  0  0  0  0  0
  -28.3030  -25.0650   20.5850 C   0  0  0  0  0  2  0  0  0  0  0  0
  -28.4900  -26.4770   20.2240 O   0  0  0  0  0  0  0  0  0  0  0  0
  -24.5580  -31.6910   23.2160 C   0  0  0  0  0  0  0  0  0  0  0  0
  -27.3390  -27.2590   20.1880 C   0  0  0  0  0  0  0  0  0  0  0  0
  -23.4150  -30.2740   21.5450 C   0  0  0  0  0  3  0  0  0  0  0  0
  -24.9260  -28.7690   20.1380 C   0  0  0  0  0  0  0  0  0  0  0  0
  -25.9440  -30.6680   21.4030 C   0  0  0  0  0  2  0  0  0  0  0  0
  -26.0660  -29.2980   20.7570 C   0  0  0  0  0  0  0  0  0  0  0  0
  -27.2800  -28.5550   20.7730 C   0  0  0  0  0  3  0  0  0  0  0  0
  -26.1810  -26.7720   19.5420 C   0  0  0  0  0  3  0  0  0  0  0  0
  -24.9820  -27.5090   19.5250 C   0  0  0  0  0  3  0  0  0  0  0  0
  -23.6650  -29.6080   20.1650 C   0  0  0  0  0  2  0  0  0  0  0  0
  -24.6560  -30.8950   22.1100 N   0  0  0  0  0  0  0  0  0  0  0  0
  -23.4610  -31.9370   23.7370 O   0  0  0  0  0  0  0  0  0  0  0  0
  -22.7650  -29.2350   22.4880 C   0  0  0  0  0  0  0  0  0  0  0  0
  -21.4460  -29.0260   22.3400 N   0  0  0  0  0  0  0  0  0  0  0  0
  -23.4480  -28.6210   23.3120 O   0  0  0  0  0  0  0  0  0  0  0  0
  -20.9570  -29.5750   21.6470 H   0  0  0  0  0  0  0  0  0  0  0  0
  -18.0960  -27.7300   22.7530 C   0  0  0  0  0  0  0  0  0  0  0  0
  -20.6370  -28.0660   23.0920 C   0  0  0  0  0  3  0  0  0  0  0  0
  -20.7990  -26.6370   22.5230 C   0  0  0  0  0  2  0  0  0  0  0  0
  -19.7360  -26.2810   21.4810 C   0  0  0  0  0  2  0  0  0  0  0  0
  -18.3330  -26.3860   22.0840 C   0  0  0  0  0  2  0  0  0  0  0  0
  -19.1790  -28.5270   23.2100 C   0  0  0  0  0  0  0  0  0  0  0  0
  -18.9060  -29.7860   23.7880 C   0  0  0  0  0  3  0  0  0  0  0  0
  -17.5830  -30.2480   23.9160 C   0  0  0  0  0  3  0  0  0  0  0  0
  -16.5120  -29.4480   23.4740 C   0  0  0  0  0  3  0  0  0  0  0  0
  -16.7720  -28.1910   22.8980 C   0  0  0  0  0  3  0  0  0  0  0  0
  -25.8170  -32.3470   23.8620 C   0  0  0  0  0  3  0  0  0  0  0  0
  -25.4790  -33.7430   24.1760 N   0  0  0  0  0  0  0  0  0  0  0  0
  -25.8170  -34.7970   23.4220 C   0  0  0  0  0  0  0  0  0  0  0  0
  -26.5160  -34.6990   22.4100 O   0  0  0  0  0  0  0  0  0  0  0  0
  -24.8630  -33.8920   24.9620 H   0  0  0  0  0  0  0  0  0  0  0  0
  -24.0650  -36.5520   23.0140 C   0  0  0  0  0  1  0  0  0  0  0  0
  -25.2920  -36.1780   23.8590 C   0  0  0  0  0  3  0  0  0  0  0  0
  -27.3890  -37.1040   24.7360 C   0  0  0  0  0  1  0  0  0  0  0  0
  -26.3080  -37.2480   23.7640 N   0  0  0  0  0  0  0  0  0  0  0  0
  -25.8820  -38.1620   23.8970 H   0  0  0  0  0  0  0  0  0  0  0  0
  -26.3170  -31.5930   25.1560 C   0  0  1  0  0  0  0  0  0  0  0  0
  -25.2020  -31.3390   26.1980 C   0  0  0  0  0  1  0  0  0  0  0  0
  -26.9360  -30.2270   24.7840 C   0  0  0  0  0  1  0  0  0  0  0  0
  -27.4350  -32.4130   25.8410 C   0  0  0  0  0  1  0  0  0  0  0  0
  1  4  1  0
  2  5  2  0
  3  1  2  0
  3  2  1  0
  4  7  2  0
  4 55  1  0
  5  7  1  0
  5  9  1  0
  6  3  1  0
  9  8  1  0
 10 11  1  0
 11  9  1  0
 11 12  1  1
 13 11  1  0
 13 16  1  0
 16 14  1  1
 16 15  1  0
 17 25  1  0
 18 23  1  0
 19 20  1  0
 19 18  1  0
 21 20  1  0
 21 30  1  0
 21 22  1  0
 23 17  1  0
 23 22  1  0
 24 17  2  0
 25 26  1  0
 25 16  1  0
 27 28  2  0
 28 47  1  0
 29 28  1  0
 29 32  1  0
 30 27  1  0
 30 31  1  0
 31 29  2  0
 32 33  1  0
 33 34  2  0
 35 38  1  0
 35 34  1  0
 36 35  2  0
 37 36  1  0
 37 32  2  0
 38 39  1  0
 39 40  1  0
 40 41  2  0
 42 41  1  0
 42 46  1  0
 43 42  2  0
 44 39  2  0
 44 43  1  0
 45 44  1  0
 47 48  1  0
 48 51  1  0
 48 50  1  0
 49 47  2  0
 52 53  1  0
 52 27  1  0
 54 52  1  0
 56 55  1  0
 57 68  2  0
 58 56  1  0
 58 63  1  0
 59 67  1  0
 59 69  1  0
 60 66  1  0
 60 62  1  0
 61 67  1  0
 62 63  2  0
 62 61  1  0
 64 58  2  0
 65 64  1  0
 65 60  2  0
 66 59  1  0
 67 57  1  0
 69 71  2  0
 70 69  1  0
 72 70  1  0
 73 82  2  0
 73 78  1  0
 74 70  1  0
 74 78  1  0
 75 74  1  0
 76 77  1  0
 76 75  1  0
 77 73  1  0
 78 79  2  0
 79 80  1  0
 81 80  2  0
 82 81  1  0
 83 57  1  0
 83 84  1  0
 83 93  1  0
 84 87  1  0
 85 89  1  0
 85 84  1  0
 86 85  2  0
 89 88  1  0
 91 89  1  0
 91 92  1  0
 91 90  1  0
 93 96  1  1
 93 94  1  0
 95 93  1  0
M  ISO  4  17 100  25 100  55 101  56 101
M  END
>  <TORSDO>  (71) 
F 21

>  <SCORE>  (71) 
-12.425

>  <name>  (71) 
73

>  <ligand_id>  (71) 
73

>  <original_smiles>  (71) 
[H]c1c([H])c([H])c2c(c1[H])C([H])([H])C([H])([H])C([H])([H])C2([H])N([H])C(=O)C1([H])N(C(=O)C([H])(N([H])C(=O)C([H])(N([H])C([H])([H])[H])C([H])([H])[H])C(C([H])([H])[H])(C([H])([H])[H])C([H])([H])[H])C([H])([H])c2c([H])c(OC([H])([H])c3nc(C([H])(C([H])([H])[H])[N+]([H])(C([H])([H])[H])C([H])([H])C(N([H])C(=O)N4C([H])([H])C([H])([H])C([H])([H])C([H])(n5nc(-c6c([H])c([H])c(Oc7c([H])c([H])c(F)c([H])c7F)c([H])c6[H])c(C(=O)N([H])[H])c5N([H])[H])C4([H])[H])(C([H])([H])[H])C([H])([H])[H])c([H])c(C([H])([H])[H])c3[H])c([H])c([H])c2C1([H])[H]

>  <smiles>  (71) 
[H]c1c([H])c([H])c2c(c1[H])C([H])([H])C([H])([H])C([H])([H])C2([H])N([H])C(=O)C1([H])N(C(=O)C([H])(N([H])C(=O)C([H])(N([H])C([H])([H])[H])C([H])([H])[H])C(C([H])([H])[H])(C([H])([H])[H])C([H])([H])[H])C([H])([H])c2c([H])c(OC([H])([H])c3nc(C([H])(C([H])([H])[H])[N+]([H])(C([H])([H])[H])C([H])([H])C(N([H])C(=O)N4C([H])([H])C([H])([H])C([H])([H])C([H])(n5nc(-c6c([H])c([H])c(Oc7c([H])c([H])c(F)c([H])c7F)c([H])c6[H])c(C(=O)N([H])[H])c5N([H])[H])C4([H])[H])(C([H])([H])[H])C([H])([H])[H])c([H])c(C([H])([H])[H])c3[H])c([H])c([H])c2C1([H])[H]

$$$$
74:0:0
     RDKit          3D

 97105  0  0  1  0  0  0  0  0999 V2000
  -28.4690  -21.0240   21.0720 C   0  0  0  0  0  2  0  0  0  0  0  0
  -27.6690  -22.0040   21.8570 N   0  0  0  0  0  4  0  0  0  0  0  0
  -28.1560  -22.2270   22.7090 H   0  0  0  0  0  0  0  0  0  0  0  0
  -26.8120  -21.5510   22.1300 H   0  0  0  0  0  0  0  0  0  0  0  0
  -27.2880  -23.2660   21.1600 C   0  0  0  0  0  2  0  0  0  0  0  0
  -28.4210  -23.9520   20.3470 C   0  0  0  0  0  2  0  0  0  0  0  0
  -29.3790  -24.8880   21.1220 C   0  0  0  0  0  2  0  0  0  0  0  0
  -28.8810  -26.3340   21.3370 C   0  0  0  0  0  2  0  0  0  0  0  0
  -28.5700  -26.9540   20.0860 O   0  0  0  0  0  0  0  0  0  0  0  0
  -24.6230  -31.9500   23.2770 C   0  0  0  0  0  0  0  0  0  0  0  0
  -27.4070  -27.6830   20.1060 C   0  0  0  0  0  0  0  0  0  0  0  0
  -23.4620  -30.5480   21.6010 C   0  0  0  0  0  3  0  0  0  0  0  0
  -24.9660  -29.0920   20.1430 C   0  0  0  0  0  0  0  0  0  0  0  0
  -25.9720  -30.9970   21.4120 C   0  0  0  0  0  2  0  0  0  0  0  0
  -26.1010  -29.6430   20.7510 C   0  0  0  0  0  0  0  0  0  0  0  0
  -27.3280  -28.9410   20.7380 C   0  0  0  0  0  3  0  0  0  0  0  0
  -26.2660  -27.1450   19.4800 C   0  0  0  0  0  3  0  0  0  0  0  0
  -25.0410  -27.8400   19.5050 C   0  0  0  0  0  3  0  0  0  0  0  0
  -23.6920  -29.9060   20.2050 C   0  0  0  0  0  2  0  0  0  0  0  0
  -24.7040  -31.1790   22.1540 N   0  0  0  0  0  0  0  0  0  0  0  0
  -23.5360  -32.1740   23.8230 O   0  0  0  0  0  0  0  0  0  0  0  0
  -22.8440  -29.4840   22.5370 C   0  0  0  0  0  0  0  0  0  0  0  0
  -21.5360  -29.2280   22.3740 N   0  0  0  0  0  0  0  0  0  0  0  0
  -23.5410  -28.8920   23.3670 O   0  0  0  0  0  0  0  0  0  0  0  0
  -21.0340  -29.7630   21.6820 H   0  0  0  0  0  0  0  0  0  0  0  0
  -18.2280  -27.8250   22.7480 C   0  0  0  0  0  0  0  0  0  0  0  0
  -20.7530  -28.2390   23.1140 C   0  0  0  0  0  3  0  0  0  0  0  0
  -20.9650  -26.8160   22.5430 C   0  0  0  0  0  2  0  0  0  0  0  0
  -19.9240  -26.4300   21.4880 C   0  0  0  0  0  2  0  0  0  0  0  0
  -18.5130  -26.4890   22.0800 C   0  0  0  0  0  2  0  0  0  0  0  0
  -19.2790  -28.6530   23.2190 C   0  0  0  0  0  0  0  0  0  0  0  0
  -18.9610  -29.9030   23.7960 C   0  0  0  0  0  3  0  0  0  0  0  0
  -17.6210  -30.3220   23.9070 C   0  0  0  0  0  3  0  0  0  0  0  0
  -16.5840  -29.4890   23.4540 C   0  0  0  0  0  3  0  0  0  0  0  0
  -16.8880  -28.2430   22.8810 C   0  0  0  0  0  3  0  0  0  0  0  0
  -25.8890  -32.6040   23.9120 C   0  0  0  0  0  3  0  0  0  0  0  0
  -26.3950  -31.8570   25.2070 C   0  0  1  0  0  0  0  0  0  0  0  0
  -25.2830  -31.5990   26.2500 C   0  0  0  0  0  1  0  0  0  0  0  0
  -27.0200  -30.4910   24.8350 C   0  0  0  0  0  1  0  0  0  0  0  0
  -27.5070  -32.6860   25.8930 C   0  0  0  0  0  1  0  0  0  0  0  0
  -25.5600  -34.0030   24.2130 N   0  0  0  0  0  0  0  0  0  0  0  0
  -25.9020  -35.0470   23.4460 C   0  0  0  0  0  0  0  0  0  0  0  0
  -26.5990  -34.9350   22.4330 O   0  0  0  0  0  0  0  0  0  0  0  0
  -24.9400  -34.1630   24.9940 H   0  0  0  0  0  0  0  0  0  0  0  0
  -24.1590  -36.8130   23.0250 C   0  0  0  0  0  1  0  0  0  0  0  0
  -25.3860  -36.4360   23.8690 C   0  0  0  0  0  3  0  0  0  0  0  0
  -27.4930  -37.3630   24.7270 C   0  0  0  0  0  1  0  0  0  0  0  0
  -26.4070  -37.5000   23.7590 N   0  0  0  0  0  0  0  0  0  0  0  0
  -25.9880  -38.4170   23.8820 H   0  0  0  0  0  0  0  0  0  0  0  0
  -27.9630  -19.5600   21.1510 C   0  0  0  0  0  2  0  0  0  0  0  0
  -28.8650  -18.6120   20.3880 C   0  0  0  0  0  0  0  0  0  0  0  0
  -29.1750  -18.5890   19.0520 C   0  0  0  0  0  0  0  0  0  0  0  0
  -30.4890  -17.1540   20.1230 C   0  0  0  0  0  0  0  0  0  0  0  0
  -28.5630  -19.4180   17.9630 C   0  0  0  0  0  1  0  0  0  0  0  0
  -29.6540  -17.6770   21.0320 N   0  0  0  0  0  0  0  0  0  0  0  0
  -30.2860  -17.7360   18.8940 N   0  0  0  0  0  0  0  0  0  0  0  0
  -32.9230  -17.2110   20.4980 C   0  0  0  0  0  1  0  0  0  0  0  0
  -31.5400  -15.9890   22.1550 C   0  0  0  0  0  1  0  0  0  0  0  0
  -31.6690  -16.2970   20.6370 C   0  0  1  0  0  0  0  0  0  0  0  0
  -31.9590  -14.9550   19.8680 C   0  0  0  0  0  0  0  0  0  0  0  0
  -31.4720  -12.6890   19.0000 C   0  0  0  0  0  2  0  0  0  0  0  0
  -30.5400  -12.7420   17.7770 C   0  0  0  0  0  2  0  0  0  0  0  0
  -29.0690  -12.7200   18.2260 C   0  0  0  0  0  2  0  0  0  0  0  0
  -28.7760  -13.7350   19.3630 C   0  0  0  0  0  3  0  0  0  0  0  0
  -29.8370  -13.6810   20.4790 C   0  0  0  0  0  2  0  0  0  0  0  0
  -31.1640  -13.8430   19.8720 N   0  0  0  0  0  0  0  0  0  0  0  0
  -33.0000  -14.9350   19.2040 O   0  0  0  0  0  0  0  0  0  0  0  0
  -26.4960  -14.5410   20.2280 C   0  0  0  0  0  0  0  0  0  0  0  0
  -25.3680  -13.8640   20.6010 C   0  0  0  0  0  0  0  0  0  0  0  0
  -25.6790  -12.4750   20.4710 C   0  0  0  0  0  0  0  0  0  0  0  0
  -27.4280  -13.5720   19.8950 N   0  0  0  0  0  0  0  0  0  0  0  0
  -26.9430  -12.3210   20.0990 N   0  0  0  0  0  0  0  0  0  0  0  0
  -24.8310  -11.2870   20.6240 C   0  0  0  0  0  0  0  0  0  0  0  0
  -25.1680  -10.2460   21.5160 C   0  0  0  0  0  3  0  0  0  0  0  0
  -24.3250   -9.1210   21.6570 C   0  0  0  0  0  3  0  0  0  0  0  0
  -23.1310   -9.0300   20.9020 C   0  0  0  0  0  0  0  0  0  0  0  0
  -22.8130  -10.0590   19.9960 C   0  0  0  0  0  3  0  0  0  0  0  0
  -23.6550  -11.1740   19.8550 C   0  0  0  0  0  3  0  0  0  0  0  0
  -22.2620   -7.9680   20.9550 O   0  0  0  0  0  0  0  0  0  0  0  0
  -22.0850   -7.2380   22.1030 C   0  0  0  0  0  0  0  0  0  0  0  0
  -21.6630   -7.8400   23.3100 C   0  0  0  0  0  3  0  0  0  0  0  0
  -21.4260   -7.0430   24.4480 C   0  0  0  0  0  3  0  0  0  0  0  0
  -21.6020   -5.6470   24.3800 C   0  0  0  0  0  0  0  0  0  0  0  0
  -22.0180   -5.0470   23.1790 C   0  0  0  0  0  3  0  0  0  0  0  0
  -22.2570   -5.8410   22.0430 C   0  0  0  0  0  0  0  0  0  0  0  0
  -22.6370   -5.2550   20.8830 F   0  0  0  0  0  0  0  0  0  0  0  0
  -21.3690   -4.8800   25.4710 F   0  0  0  0  0  0  0  0  0  0  0  0
  -24.0450  -14.4660   20.9740 C   0  0  0  0  0  0  0  0  0  0  0  0
  -23.2960  -13.8070   21.8500 N   0  0  0  0  0  0  0  0  0  0  0  0
  -23.6890  -15.5550   20.5220 O   0  0  0  0  0  0  0  0  0  0  0  0
  -23.5970  -12.9250   22.2350 H   0  0  0  0  0  0  0  0  0  0  0  0
  -22.4080  -14.1920   22.1400 H   0  0  0  0  0  0  0  0  0  0  0  0
  -26.8020  -15.8970   20.1290 N   0  0  0  0  0  0  0  0  0  0  0  0
  -26.1150  -16.6160   20.3270 H   0  0  0  0  0  0  0  0  0  0  0  0
  -27.7110  -16.2740   19.8860 H   0  0  0  0  0  0  0  0  0  0  0  0
  -30.3830  -17.7040   16.3260 C   0  0  0  0  0  1  0  0  0  0  0  0
  -31.1190  -17.6900   17.6780 C   0  0  0  0  0  2  0  0  0  0  0  0
  1 50  1  0
  1  2  1  0
  2  4  1  0
  2  3  1  0
  5  2  1  0
  6  7  1  0
  6  5  1  0
  7  8  1  0
  9 11  1  0
  9  8  1  0
 10 21  2  0
 11 16  1  0
 12 20  1  0
 12 22  1  0
 13 19  1  0
 13 15  1  0
 14 20  1  0
 15 14  1  0
 16 15  2  0
 17 18  1  0
 17 11  2  0
 18 13  2  0
 19 12  1  0
 20 10  1  0
 22 24  2  0
 23 22  1  0
 25 23  1  0
 26 35  2  0
 26 31  1  0
 27 23  1  0
 27 31  1  0
 28 27  1  0
 29 30  1  0
 29 28  1  0
 30 26  1  0
 31 32  2  0
 32 33  1  0
 34 33  2  0
 35 34  1  0
 36 10  1  0
 36 41  1  0
 36 37  1  0
 37 40  1  1
 37 38  1  0
 39 37  1  0
 41 44  1  0
 42 46  1  0
 42 41  1  0
 43 42  2  0
 46 45  1  0
 48 46  1  0
 48 49  1  0
 48 47  1  0
 51 55  1  0
 51 50  1  0
 52 51  2  0
 53 59  1  0
 53 55  2  0
 54 52  1  0
 56 52  1  0
 56 53  1  0
 59 57  1  1
 59 58  1  0
 60 66  1  0
 60 59  1  0
 61 66  1  0
 62 63  1  0
 62 61  1  0
 64 63  1  0
 64 71  1  0
 64 65  1  0
 66 65  1  0
 67 60  2  0
 68 69  2  0
 69 88  1  0
 70 69  1  0
 70 73  1  0
 71 72  1  0
 71 68  1  0
 72 70  2  0
 73 74  1  0
 74 75  2  0
 76 79  1  0
 76 75  1  0
 77 76  2  0
 78 77  1  0
 78 73  2  0
 79 80  1  0
 80 81  1  0
 81 82  2  0
 83 82  1  0
 83 87  1  0
 84 83  2  0
 85 80  2  0
 85 84  1  0
 86 85  1  0
 88 89  1  0
 89 92  1  0
 89 91  1  0
 90 88  2  0
 93 68  1  0
 93 94  1  0
 95 93  1  0
 96 97  1  0
 97 56  1  0
M  ISO  4   8 101   9 101  59 100  60 100
M  END
>  <TORSDO>  (72) 
F 25

>  <SCORE>  (72) 
-9.209

>  <name>  (72) 
74

>  <ligand_id>  (72) 
74

>  <original_smiles>  (72) 
[H]c1c([H])c([H])c2c(c1[H])C([H])([H])C([H])([H])C([H])([H])C2([H])N([H])C(=O)C1([H])N(C(=O)C([H])(N([H])C(=O)C([H])(N([H])C([H])([H])[H])C([H])([H])[H])C(C([H])([H])[H])(C([H])([H])[H])C([H])([H])[H])C([H])([H])c2c([H])c(OC([H])([H])C([H])([H])C([H])([H])C([H])([H])[N+]([H])([H])C([H])([H])C([H])([H])c3nc(C(C(=O)N4C([H])([H])C([H])([H])C([H])([H])C([H])(n5nc(-c6c([H])c([H])c(Oc7c([H])c([H])c(F)c([H])c7F)c([H])c6[H])c(C(=O)N([H])[H])c5N([H])[H])C4([H])[H])(C([H])([H])[H])C([H])([H])[H])n(C([H])([H])C([H])([H])[H])c3C([H])([H])[H])c([H])c([H])c2C1([H])[H]

>  <smiles>  (72) 
[H]c1c([H])c([H])c2c(c1[H])C([H])([H])C([H])([H])C([H])([H])C2([H])N([H])C(=O)C1([H])N(C(=O)C([H])(N([H])C(=O)C([H])(N([H])C([H])([H])[H])C([H])([H])[H])C(C([H])([H])[H])(C([H])([H])[H])C([H])([H])[H])C([H])([H])c2c([H])c(OC([H])([H])C([H])([H])C([H])([H])C([H])([H])[N+]([H])([H])C([H])([H])C([H])([H])c3nc(C(C(=O)N4C([H])([H])C([H])([H])C([H])([H])C([H])(n5nc(-c6c([H])c([H])c(Oc7c([H])c([H])c(F)c([H])c7F)c([H])c6[H])c(C(=O)N([H])[H])c5N([H])[H])C4([H])[H])(C([H])([H])[H])C([H])([H])[H])n(C([H])([H])C([H])([H])[H])c3C([H])([H])[H])c([H])c([H])c2C1([H])[H]

$$$$
75:0:0
     RDKit          3D

 93101  0  0  1  0  0  0  0  0999 V2000
  -30.2280  -18.9910   20.1820 C   0  0  0  0  0  0  0  0  0  0  0  0
  -30.7100  -19.6150   21.3850 C   0  0  0  0  0  0  0  0  0  0  0  0
  -29.6110  -19.9830   19.5110 N   0  0  0  0  0  0  0  0  0  0  0  0
  -30.3120  -20.8790   21.4710 N   0  0  0  0  0  0  0  0  0  0  0  0
  -29.6680  -21.1390   20.3070 N   0  0  0  0  0  0  0  0  0  0  0  0
  -31.6340  -19.0310   22.4260 C   0  0  1  0  0  0  0  0  0  0  0  0
  -32.3200  -17.9920   21.9520 F   0  0  0  0  0  0  0  0  0  0  0  0
  -32.5400  -19.9260   22.8290 F   0  0  0  0  0  0  0  0  0  0  0  0
  -30.9580  -18.6410   23.5070 F   0  0  0  0  0  0  0  0  0  0  0  0
  -30.5580  -17.5290   19.5820 C   0  0  0  0  0  2  0  0  0  0  0  0
  -30.9050  -14.9450   19.7870 C   0  0  0  0  0  0  0  0  0  0  0  0
  -30.6320  -12.7140   18.6420 C   0  0  0  0  0  2  0  0  0  0  0  0
  -29.5800  -12.7900   17.5100 C   0  0  0  0  0  2  0  0  0  0  0  0
  -28.1570  -12.5580   18.0550 C   0  0  0  0  0  2  0  0  0  0  0  0
  -27.8850  -13.3720   19.3450 C   0  0  0  0  0  3  0  0  0  0  0  0
  -29.0430  -13.2060   20.3480 C   0  0  0  0  0  2  0  0  0  0  0  0
  -30.2610  -13.7110   19.6890 N   0  0  0  0  0  0  0  0  0  0  0  0
  -32.0120  -15.0390   19.2450 O   0  0  0  0  0  0  0  0  0  0  0  0
  -30.2550  -16.1350   20.2080 N   0  0  0  0  0  0  0  0  0  0  0  0
  -25.5610  -13.8950   20.2970 C   0  0  0  0  0  0  0  0  0  0  0  0
  -24.5460  -13.0890   20.7350 C   0  0  0  0  0  0  0  0  0  0  0  0
  -25.0250  -11.7490   20.6140 C   0  0  0  0  0  0  0  0  0  0  0  0
  -26.5930  -13.0420   19.9380 N   0  0  0  0  0  0  0  0  0  0  0  0
  -26.2820  -11.7440   20.1880 N   0  0  0  0  0  0  0  0  0  0  0  0
  -24.3380  -10.4660   20.8200 C   0  0  0  0  0  0  0  0  0  0  0  0
  -24.7890   -9.5310   21.7780 C   0  0  0  0  0  3  0  0  0  0  0  0
  -24.1000   -8.3150   21.9710 C   0  0  0  0  0  3  0  0  0  0  0  0
  -22.9450   -8.0250   21.2060 C   0  0  0  0  0  0  0  0  0  0  0  0
  -22.5140   -8.9480   20.2370 C   0  0  0  0  0  3  0  0  0  0  0  0
  -23.2040  -10.1560   20.0430 C   0  0  0  0  0  3  0  0  0  0  0  0
  -22.2250   -6.8590   21.3090 O   0  0  0  0  0  0  0  0  0  0  0  0
  -22.0730   -6.2110   22.5080 C   0  0  0  0  0  0  0  0  0  0  0  0
  -21.4860   -6.8400   23.6280 C   0  0  0  0  0  3  0  0  0  0  0  0
  -21.2850   -6.1130   24.8170 C   0  0  0  0  0  3  0  0  0  0  0  0
  -21.6620   -4.7580   24.8890 C   0  0  0  0  0  0  0  0  0  0  0  0
  -22.2410   -4.1290   23.7730 C   0  0  0  0  0  3  0  0  0  0  0  0
  -22.4440   -4.8530   22.5850 C   0  0  0  0  0  0  0  0  0  0  0  0
  -22.9830   -4.2360   21.5070 F   0  0  0  0  0  0  0  0  0  0  0  0
  -21.4630   -4.0580   26.0300 F   0  0  0  0  0  0  0  0  0  0  0  0
  -23.1700  -13.5290   21.1470 C   0  0  0  0  0  0  0  0  0  0  0  0
  -22.5440  -12.8020   22.0660 N   0  0  0  0  0  0  0  0  0  0  0  0
  -22.6620  -14.5510   20.6890 O   0  0  0  0  0  0  0  0  0  0  0  0
  -22.9710  -11.9750   22.4570 H   0  0  0  0  0  0  0  0  0  0  0  0
  -21.6260  -13.0760   22.3860 H   0  0  0  0  0  0  0  0  0  0  0  0
  -25.6850  -15.2730   20.1520 N   0  0  0  0  0  0  0  0  0  0  0  0
  -24.9260  -15.9110   20.3650 H   0  0  0  0  0  0  0  0  0  0  0  0
  -26.4790  -15.7340   19.7290 H   0  0  0  0  0  0  0  0  0  0  0  0
  -29.9330  -15.6840   22.6940 C   0  0  0  0  0  1  0  0  0  0  0  0
  -29.3350  -16.1950   21.3620 C   0  0  0  0  0  2  0  0  0  0  0  0
  -29.4830  -22.5980   19.8420 C   0  0  0  0  0  2  0  0  0  0  0  0
  -28.2930  -23.5820   20.3680 C   0  0  0  0  0  2  0  0  0  0  0  0
  -28.5020  -25.1200   20.9000 C   0  0  0  0  0  2  0  0  0  0  0  0
  -28.4480  -26.4170   20.1330 O   0  0  0  0  0  0  0  0  0  0  0  0
  -24.5810  -31.8760   23.0820 C   0  0  0  0  0  0  0  0  0  0  0  0
  -27.3110  -27.2580   20.1620 C   0  0  0  0  0  0  0  0  0  0  0  0
  -23.4240  -30.4260   21.4530 C   0  0  0  0  0  3  0  0  0  0  0  0
  -24.9220  -28.8600   20.0830 C   0  0  0  0  0  0  0  0  0  0  0  0
  -25.9630  -30.7730   21.2970 C   0  0  0  0  0  2  0  0  0  0  0  0
  -26.0770  -29.3740   20.6850 C   0  0  0  0  0  0  0  0  0  0  0  0
  -27.2750  -28.5890   20.7080 C   0  0  0  0  0  3  0  0  0  0  0  0
  -26.1320  -26.8030   19.5410 C   0  0  0  0  0  3  0  0  0  0  0  0
  -24.9550  -27.5820   19.4980 C   0  0  0  0  0  3  0  0  0  0  0  0
  -23.6730  -29.7240   20.0900 C   0  0  0  0  0  2  0  0  0  0  0  0
  -24.6750  -31.0440   22.0000 N   0  0  0  0  0  0  0  0  0  0  0  0
  -23.4850  -32.1420   23.5980 O   0  0  0  0  0  0  0  0  0  0  0  0
  -22.7640  -29.4200   22.4240 C   0  0  0  0  0  0  0  0  0  0  0  0
  -21.4460  -29.1990   22.2690 N   0  0  0  0  0  0  0  0  0  0  0  0
  -23.4370  -28.8380   23.2800 O   0  0  0  0  0  0  0  0  0  0  0  0
  -20.9610  -29.7160   21.5490 H   0  0  0  0  0  0  0  0  0  0  0  0
  -18.1010  -27.8850   22.6970 C   0  0  0  0  0  0  0  0  0  0  0  0
  -20.6370  -28.2570   23.0460 C   0  0  0  0  0  3  0  0  0  0  0  0
  -20.8170  -26.8120   22.5270 C   0  0  0  0  0  2  0  0  0  0  0  0
  -19.7650  -26.4080   21.4890 C   0  0  0  0  0  2  0  0  0  0  0  0
  -18.3550  -26.5200   22.0770 C   0  0  0  0  0  2  0  0  0  0  0  0
  -19.1730  -28.7060   23.1380 C   0  0  0  0  0  0  0  0  0  0  0  0
  -18.8840  -29.9780   23.6770 C   0  0  0  0  0  3  0  0  0  0  0  0
  -17.5540  -30.4310   23.7820 C   0  0  0  0  0  3  0  0  0  0  0  0
  -16.4970  -29.6070   23.3560 C   0  0  0  0  0  3  0  0  0  0  0  0
  -16.7710  -28.3370   22.8190 C   0  0  0  0  0  3  0  0  0  0  0  0
  -25.8430  -32.5440   23.7090 C   0  0  0  0  0  3  0  0  0  0  0  0
  -25.4800  -33.9210   24.0760 N   0  0  0  0  0  0  0  0  0  0  0  0
  -25.7680  -35.0060   23.3440 C   0  0  0  0  0  0  0  0  0  0  0  0
  -26.4350  -34.9540   22.3080 O   0  0  0  0  0  0  0  0  0  0  0  0
  -24.8880  -34.0310   24.8860 H   0  0  0  0  0  0  0  0  0  0  0  0
  -23.9700  -36.7420   23.0500 C   0  0  0  0  0  1  0  0  0  0  0  0
  -25.2320  -36.3630   23.8420 C   0  0  0  0  0  3  0  0  0  0  0  0
  -27.3370  -37.3080   24.6810 C   0  0  0  0  0  1  0  0  0  0  0  0
  -26.2220  -37.4580   23.7490 N   0  0  0  0  0  0  0  0  0  0  0  0
  -25.7810  -38.3580   23.9240 H   0  0  0  0  0  0  0  0  0  0  0  0
  -26.3970  -31.7660   24.9660 C   0  0  1  0  0  0  0  0  0  0  0  0
  -25.3160  -31.4400   26.0230 C   0  0  0  0  0  1  0  0  0  0  0  0
  -27.0550  -30.4330   24.5390 C   0  0  0  0  0  1  0  0  0  0  0  0
  -27.5030  -32.6010   25.6530 C   0  0  0  0  0  1  0  0  0  0  0  0
  1  2  1  0
  2  4  2  0
  2  6  1  0
  3  1  2  0
  3  5  1  0
  5  4  1  0
  6  8  1  1
  6  9  1  0
  7  6  1  0
 10  1  1  0
 10 19  1  0
 11 19  1  0
 12 17  1  0
 13 14  1  0
 13 12  1  0
 15 14  1  0
 15 23  1  0
 15 16  1  0
 17 11  1  0
 17 16  1  0
 18 11  2  0
 19 49  1  0
 20 21  2  0
 21 40  1  0
 22 21  1  0
 22 25  1  0
 23 24  1  0
 23 20  1  0
 24 22  2  0
 25 26  1  0
 26 27  2  0
 28 31  1  0
 28 27  1  0
 29 28  2  0
 30 29  1  0
 30 25  2  0
 31 32  1  0
 32 37  2  0
 32 33  1  0
 33 34  2  0
 34 35  1  0
 35 39  1  0
 36 35  2  0
 37 36  1  0
 38 37  1  0
 40 41  1  0
 41 44  1  0
 41 43  1  0
 42 40  2  0
 45 20  1  0
 45 46  1  0
 47 45  1  0
 49 48  1  0
 50  5  1  0
 50 51  1  0
 51 52  1  0
 53 55  1  0
 53 52  1  0
 54 65  2  0
 55 60  1  0
 56 64  1  0
 56 66  1  0
 57 63  1  0
 57 59  1  0
 58 64  1  0
 59 60  2  0
 59 58  1  0
 61 55  2  0
 62 61  1  0
 62 57  2  0
 63 56  1  0
 64 54  1  0
 66 68  2  0
 67 66  1  0
 69 67  1  0
 70 79  2  0
 70 75  1  0
 71 67  1  0
 71 75  1  0
 72 71  1  0
 73 74  1  0
 73 72  1  0
 74 70  1  0
 75 76  2  0
 76 77  1  0
 78 77  2  0
 79 78  1  0
 80 54  1  0
 80 81  1  0
 80 90  1  0
 81 84  1  0
 82 86  1  0
 82 81  1  0
 83 82  2  0
 86 85  1  0
 88 86  1  0
 88 89  1  0
 88 87  1  0
 90 93  1  1
 90 91  1  0
 92 90  1  0
M  ISO  4  11 100  19 100  52 101  53 101
M  END
>  <TORSDO>  (73) 
F 22

>  <SCORE>  (73) 
-10.481

>  <name>  (73) 
75

>  <ligand_id>  (73) 
75

>  <original_smiles>  (73) 
[H]c1c([H])c([H])c2c(c1[H])C([H])([H])C([H])([H])C([H])([H])C2([H])N([H])C(=O)C1([H])N(C(=O)C([H])(N([H])C(=O)C([H])(N([H])C([H])([H])[H])C([H])([H])[H])C(C([H])([H])[H])(C([H])([H])[H])C([H])([H])[H])C([H])([H])c2c([H])c(OC([H])([H])C([H])([H])C([H])([H])n3nc(C(F)(F)F)c(C([H])([H])N(C(=O)N4C([H])([H])C([H])([H])C([H])([H])C([H])(n5nc(-c6c([H])c([H])c(Oc7c([H])c([H])c(F)c([H])c7F)c([H])c6[H])c(C(=O)N([H])[H])c5N([H])[H])C4([H])[H])C([H])([H])C([H])([H])[H])n3)c([H])c([H])c2C1([H])[H]

>  <smiles>  (73) 
[H]c1c([H])c([H])c2c(c1[H])C([H])([H])C([H])([H])C([H])([H])C2([H])N([H])C(=O)C1([H])N(C(=O)C([H])(N([H])C(=O)C([H])(N([H])C([H])([H])[H])C([H])([H])[H])C(C([H])([H])[H])(C([H])([H])[H])C([H])([H])[H])C([H])([H])c2c([H])c(OC([H])([H])C([H])([H])C([H])([H])n3nc(C(F)(F)F)c(C([H])([H])N(C(=O)N4C([H])([H])C([H])([H])C([H])([H])C([H])(n5nc(-c6c([H])c([H])c(Oc7c([H])c([H])c(F)c([H])c7F)c([H])c6[H])c(C(=O)N([H])[H])c5N([H])[H])C4([H])[H])C([H])([H])C([H])([H])[H])n3)c([H])c([H])c2C1([H])[H]

$$$$
76:0:0
     RDKit          3D

 89 97  0  0  1  0  0  0  0  0999 V2000
  -29.5390  -19.9830   22.4350 C   0  0  0  0  0  3  0  0  0  0  0  0
  -29.6810  -20.6070   20.3550 C   0  0  0  0  0  0  0  0  0  0  0  0
  -30.1190  -19.1880   20.4460 C   0  0  0  0  0  0  0  0  0  0  0  0
  -30.4760  -17.7360   22.5650 C   0  0  0  0  0  1  0  0  0  0  0  0
  -29.2840  -20.9910   21.6330 N   0  0  0  0  0  0  0  0  0  0  0  0
  -30.0640  -18.9210   21.8310 N   0  0  0  0  0  0  0  0  0  0  0  0
  -29.3490  -21.8630   19.3540 C   0  0  0  0  0  2  0  0  0  0  0  0
  -29.4040  -23.5010   19.8250 C   0  0  0  0  0  3  0  0  0  0  0  0
  -28.4810  -24.7850   19.2190 C   0  0  0  0  0  3  0  0  0  0  0  0
  -28.5970  -26.3140   19.5310 O   0  0  0  0  0  0  0  0  0  0  0  0
  -24.6500  -31.5180   22.9430 C   0  0  0  0  0  0  0  0  0  0  0  0
  -27.4760  -27.2260   19.5260 C   0  0  0  0  0  0  0  0  0  0  0  0
  -23.5100  -30.1570   21.2330 C   0  0  0  0  0  3  0  0  0  0  0  0
  -25.0300  -28.8000   19.6640 C   0  0  0  0  0  0  0  0  0  0  0  0
  -26.0340  -30.6160   21.0370 C   0  0  0  0  0  2  0  0  0  0  0  0
  -26.1890  -29.2830   20.2840 C   0  0  0  0  0  0  0  0  0  0  0  0
  -27.4090  -28.5120   20.2020 C   0  0  0  0  0  3  0  0  0  0  0  0
  -26.2860  -26.8550   18.8590 C   0  0  0  0  0  3  0  0  0  0  0  0
  -25.0910  -27.6030   18.9350 C   0  0  0  0  0  3  0  0  0  0  0  0
  -23.7430  -29.5980   19.8030 C   0  0  0  0  0  2  0  0  0  0  0  0
  -24.7500  -30.7840   21.7930 N   0  0  0  0  0  0  0  0  0  0  0  0
  -23.5600  -31.6860   23.5120 O   0  0  0  0  0  0  0  0  0  0  0  0
  -22.9310  -29.0380   22.1340 C   0  0  0  0  0  0  0  0  0  0  0  0
  -21.6250  -28.7500   21.9920 N   0  0  0  0  0  0  0  0  0  0  0  0
  -23.6590  -28.4320   22.9240 O   0  0  0  0  0  0  0  0  0  0  0  0
  -21.0890  -29.2960   21.3320 H   0  0  0  0  0  0  0  0  0  0  0  0
  -18.3810  -27.1850   22.3850 C   0  0  0  0  0  0  0  0  0  0  0  0
  -20.8960  -27.6980   22.7060 C   0  0  0  0  0  3  0  0  0  0  0  0
  -21.1520  -26.3120   22.0710 C   0  0  0  0  0  2  0  0  0  0  0  0
  -20.1040  -25.9240   21.0250 C   0  0  0  0  0  2  0  0  0  0  0  0
  -18.7070  -25.8950   21.6510 C   0  0  0  0  0  2  0  0  0  0  0  0
  -19.4080  -28.0400   22.8660 C   0  0  0  0  0  0  0  0  0  0  0  0
  -19.0500  -29.2420   23.5130 C   0  0  0  0  0  3  0  0  0  0  0  0
  -17.6980  -29.5940   23.6820 C   0  0  0  0  0  3  0  0  0  0  0  0
  -16.6850  -28.7390   23.2150 C   0  0  0  0  0  3  0  0  0  0  0  0
  -17.0280  -27.5350   22.5730 C   0  0  0  0  0  3  0  0  0  0  0  0
  -25.8950  -32.2010   23.5870 C   0  0  0  0  0  3  0  0  0  0  0  0
  -26.4590  -31.4120   24.8330 C   0  0  1  0  0  0  0  0  0  0  0  0
  -25.3830  -31.0600   25.8860 C   0  0  0  0  0  1  0  0  0  0  0  0
  -27.1310  -30.0920   24.3900 C   0  0  0  0  0  1  0  0  0  0  0  0
  -27.5560  -32.2500   25.5310 C   0  0  0  0  0  1  0  0  0  0  0  0
  -25.5060  -33.5650   23.9800 N   0  0  0  0  0  0  0  0  0  0  0  0
  -25.7840  -34.6710   23.2790 C   0  0  0  0  0  0  0  0  0  0  0  0
  -26.4620  -34.6560   22.2470 O   0  0  0  0  0  0  0  0  0  0  0  0
  -24.9000  -33.6470   24.7840 H   0  0  0  0  0  0  0  0  0  0  0  0
  -23.9600  -36.3860   23.0110 C   0  0  0  0  0  1  0  0  0  0  0  0
  -25.2230  -36.0090   23.8020 C   0  0  0  0  0  3  0  0  0  0  0  0
  -27.3040  -36.9730   24.6810 C   0  0  0  0  0  1  0  0  0  0  0  0
  -26.1970  -37.1210   23.7410 N   0  0  0  0  0  0  0  0  0  0  0  0
  -25.7400  -38.0110   23.9240 H   0  0  0  0  0  0  0  0  0  0  0  0
  -30.6870  -17.9320   19.5490 C   0  0  0  0  0  2  0  0  0  0  0  0
  -31.1990  -15.1960   19.6200 C   0  0  0  0  0  0  0  0  0  0  0  0
  -30.9560  -12.8530   18.6830 C   0  0  0  0  0  2  0  0  0  0  0  0
  -29.9360  -12.8480   17.5210 C   0  0  0  0  0  2  0  0  0  0  0  0
  -28.5010  -12.6730   18.0560 C   0  0  0  0  0  2  0  0  0  0  0  0
  -28.2070  -13.5950   19.2690 C   0  0  0  0  0  3  0  0  0  0  0  0
  -29.3410  -13.5670   20.3170 C   0  0  0  0  0  2  0  0  0  0  0  0
  -30.5770  -13.9490   19.6220 N   0  0  0  0  0  0  0  0  0  0  0  0
  -32.3670  -15.2420   19.2180 O   0  0  0  0  0  0  0  0  0  0  0  0
  -30.4560  -16.3870   19.8590 N   0  0  0  0  0  0  0  0  0  0  0  0
  -29.5160  -16.1900   20.1660 H   0  0  0  0  0  0  0  0  0  0  0  0
  -25.9100  -14.2290   20.2010 C   0  0  0  0  0  0  0  0  0  0  0  0
  -24.8530  -13.4770   20.6360 C   0  0  0  0  0  0  0  0  0  0  0  0
  -25.2680  -12.1140   20.5370 C   0  0  0  0  0  0  0  0  0  0  0  0
  -26.9010  -13.3240   19.8600 N   0  0  0  0  0  0  0  0  0  0  0  0
  -26.5290  -12.0450   20.1260 N   0  0  0  0  0  0  0  0  0  0  0  0
  -24.5170  -10.8710   20.7500 C   0  0  0  0  0  0  0  0  0  0  0  0
  -24.9100   -9.9270   21.7250 C   0  0  0  0  0  3  0  0  0  0  0  0
  -24.1580   -8.7490   21.9260 C   0  0  0  0  0  3  0  0  0  0  0  0
  -22.9980   -8.5070   21.1520 C   0  0  0  0  0  0  0  0  0  0  0  0
  -22.6240   -9.4390   20.1670 C   0  0  0  0  0  3  0  0  0  0  0  0
  -23.3760  -10.6080   19.9650 C   0  0  0  0  0  3  0  0  0  0  0  0
  -22.2210   -7.3790   21.2590 O   0  0  0  0  0  0  0  0  0  0  0  0
  -22.0160   -6.7570   22.4650 C   0  0  0  0  0  0  0  0  0  0  0  0
  -21.4330   -7.4290   23.5610 C   0  0  0  0  0  3  0  0  0  0  0  0
  -21.1790   -6.7330   24.7600 C   0  0  0  0  0  3  0  0  0  0  0  0
  -21.4980   -5.3660   24.8620 C   0  0  0  0  0  0  0  0  0  0  0  0
  -22.0730   -4.6930   23.7700 C   0  0  0  0  0  3  0  0  0  0  0  0
  -22.3290   -5.3860   22.5730 C   0  0  0  0  0  0  0  0  0  0  0  0
  -22.8640   -4.7290   21.5170 F   0  0  0  0  0  0  0  0  0  0  0  0
  -21.2460   -4.6950   26.0100 F   0  0  0  0  0  0  0  0  0  0  0  0
  -23.4970  -13.9920   21.0230 C   0  0  0  0  0  0  0  0  0  0  0  0
  -22.8190  -13.3050   21.9370 N   0  0  0  0  0  0  0  0  0  0  0  0
  -23.0510  -15.0370   20.5520 O   0  0  0  0  0  0  0  0  0  0  0  0
  -23.1950  -12.4610   22.3400 H   0  0  0  0  0  0  0  0  0  0  0  0
  -21.9110  -13.6310   22.2390 H   0  0  0  0  0  0  0  0  0  0  0  0
  -26.1040  -15.5970   20.0430 N   0  0  0  0  0  0  0  0  0  0  0  0
  -25.3650  -16.2680   20.2250 H   0  0  0  0  0  0  0  0  0  0  0  0
  -26.9200  -16.0170   19.6180 H   0  0  0  0  0  0  0  0  0  0  0  0
  2  3  2  0
  2  5  1  0
  3  6  1  0
  5  1  2  0
  6  1  1  0
  6  4  1  0
  7  8  1  0
  7  2  1  0
  9 10  1  0
  9  8  2  0
 11 22  2  0
 12 10  1  0
 12 17  1  0
 13 21  1  0
 13 23  1  0
 14 20  1  0
 14 16  1  0
 15 21  1  0
 16 15  1  0
 17 16  2  0
 18 19  1  0
 18 12  2  0
 19 14  2  0
 20 13  1  0
 21 11  1  0
 23 25  2  0
 24 23  1  0
 26 24  1  0
 27 36  2  0
 27 32  1  0
 28 24  1  0
 28 32  1  0
 29 28  1  0
 30 31  1  0
 30 29  1  0
 31 27  1  0
 32 33  2  0
 33 34  1  0
 35 34  2  0
 36 35  1  0
 37 11  1  0
 37 42  1  0
 37 38  1  0
 38 41  1  1
 38 39  1  0
 40 38  1  0
 42 45  1  0
 43 47  1  0
 43 42  1  0
 44 43  2  0
 47 46  1  0
 49 47  1  0
 49 50  1  0
 49 48  1  0
 51 60  1  0
 51  3  1  0
 52 58  1  0
 52 60  1  0
 53 58  1  0
 54 55  1  0
 54 53  1  0
 56 55  1  0
 56 65  1  0
 56 57  1  0
 58 57  1  0
 59 52  2  0
 60 61  1  0
 62 63  2  0
 63 82  1  0
 64 63  1  0
 64 67  1  0
 65 66  1  0
 65 62  1  0
 66 64  2  0
 67 68  1  0
 68 69  2  0
 70 73  1  0
 70 69  1  0
 71 70  2  0
 72 71  1  0
 72 67  2  0
 73 74  1  0
 74 79  2  0
 74 75  1  0
 75 76  2  0
 76 77  1  0
 77 81  1  0
 78 77  2  0
 79 78  1  0
 80 79  1  0
 82 83  1  0
 83 86  1  0
 83 85  1  0
 84 82  2  0
 87 62  1  0
 87 88  1  0
 89 87  1  0
M  ISO  4   9 101  10 101  52 100  60 100
M  END
>  <TORSDO>  (74) 
F 20

>  <SCORE>  (74) 
-10.749

>  <name>  (74) 
76

>  <ligand_id>  (74) 
76

>  <original_smiles>  (74) 
[H]c1c([H])c([H])c2c(c1[H])C([H])([H])C([H])([H])C([H])([H])C2([H])N([H])C(=O)C1([H])N(C(=O)C([H])(N([H])C(=O)C([H])(N([H])C([H])([H])[H])C([H])([H])[H])C(C([H])([H])[H])(C([H])([H])[H])C([H])([H])[H])C([H])([H])c2c([H])c(OC([H])([H])C([H])([H])C([H])([H])c3nc([H])n(C([H])([H])[H])c3C([H])([H])N([H])C(=O)N3C([H])([H])C([H])([H])C([H])([H])C([H])(n4nc(-c5c([H])c([H])c(Oc6c([H])c([H])c(F)c([H])c6F)c([H])c5[H])c(C(=O)N([H])[H])c4N([H])[H])C3([H])[H])c([H])c([H])c2C1([H])[H]

>  <smiles>  (74) 
[H]c1c([H])c([H])c2c(c1[H])C([H])([H])C([H])([H])C([H])([H])C2([H])N([H])C(=O)C1([H])N(C(=O)C([H])(N([H])C(=O)C([H])(N([H])C([H])([H])[H])C([H])([H])[H])C(C([H])([H])[H])(C([H])([H])[H])C([H])([H])[H])C([H])([H])c2c([H])c(OC([H])([H])C([H])([H])C([H])([H])c3nc([H])n(C([H])([H])[H])c3C([H])([H])N([H])C(=O)N3C([H])([H])C([H])([H])C([H])([H])C([H])(n4nc(-c5c([H])c([H])c(Oc6c([H])c([H])c(F)c([H])c6F)c([H])c5[H])c(C(=O)N([H])[H])c4N([H])[H])C3([H])[H])c([H])c([H])c2C1([H])[H]

$$$$
77:0:0
     RDKit          3D

 96104  0  0  1  0  0  0  0  0999 V2000
  -29.1660  -22.7630   19.7580 C   0  0  0  0  0  3  0  0  0  0  0  0
  -29.6450  -21.8690   18.7930 C   0  0  0  0  0  0  0  0  0  0  0  0
  -29.9450  -23.9070   20.0090 C   0  0  0  0  0  0  0  0  0  0  0  0
  -31.4720  -23.2090   18.4520 C   0  0  0  0  0  0  0  0  0  0  0  0
  -32.7980  -23.4240   17.7600 C   0  0  0  0  0  1  0  0  0  0  0  0
  -30.8130  -22.0940   18.1530 N   0  0  0  0  0  0  0  0  0  0  0  0
  -31.0990  -24.1130   19.3480 N   0  0  0  0  0  0  0  0  0  0  0  0
  -29.7870  -24.1120   22.4960 C   0  0  0  0  0  1  0  0  0  0  0  0
  -29.6310  -24.8560   21.1600 C   0  0  0  0  0  3  0  0  0  0  0  0
  -28.2730  -25.5750   21.0340 C   0  0  0  0  0  2  0  0  0  0  0  0
  -28.3420  -26.7020   20.1560 O   0  0  0  0  0  0  0  0  0  0  0  0
  -24.5710  -31.8750   23.2490 C   0  0  0  0  0  0  0  0  0  0  0  0
  -27.1890  -27.4420   20.1610 C   0  0  0  0  0  0  0  0  0  0  0  0
  -23.3540  -30.4750   21.6110 C   0  0  0  0  0  3  0  0  0  0  0  0
  -24.7960  -28.9310   20.1870 C   0  0  0  0  0  0  0  0  0  0  0  0
  -25.8780  -30.8320   21.4000 C   0  0  0  0  0  2  0  0  0  0  0  0
  -25.9580  -29.4610   20.7650 C   0  0  0  0  0  0  0  0  0  0  0  0
  -27.1610  -28.7240   20.7490 C   0  0  0  0  0  3  0  0  0  0  0  0
  -26.0150  -26.9160   19.5830 C   0  0  0  0  0  3  0  0  0  0  0  0
  -24.8180  -27.6570   19.5930 C   0  0  0  0  0  3  0  0  0  0  0  0
  -23.5560  -29.7920   20.2330 C   0  0  0  0  0  2  0  0  0  0  0  0
  -24.6200  -31.0760   22.1450 N   0  0  0  0  0  0  0  0  0  0  0  0
  -23.4920  -32.1470   23.7940 O   0  0  0  0  0  0  0  0  0  0  0  0
  -22.7060  -29.4560   22.5750 C   0  0  0  0  0  0  0  0  0  0  0  0
  -21.3820  -29.2750   22.4510 N   0  0  0  0  0  0  0  0  0  0  0  0
  -23.3920  -28.8330   23.3890 O   0  0  0  0  0  0  0  0  0  0  0  0
  -20.8900  -29.8300   21.7650 H   0  0  0  0  0  0  0  0  0  0  0  0
  -18.0080  -28.0810   22.9470 C   0  0  0  0  0  0  0  0  0  0  0  0
  -20.5650  -28.3400   23.2240 C   0  0  0  0  0  3  0  0  0  0  0  0
  -20.6710  -26.9070   22.6550 C   0  0  0  0  0  2  0  0  0  0  0  0
  -19.5700  -26.5780   21.6400 C   0  0  0  0  0  2  0  0  0  0  0  0
  -18.1870  -26.7270   22.2810 C   0  0  0  0  0  2  0  0  0  0  0  0
  -19.1260  -28.8450   23.3760 C   0  0  0  0  0  0  0  0  0  0  0  0
  -18.9060  -30.1120   23.9580 C   0  0  0  0  0  3  0  0  0  0  0  0
  -17.6000  -30.6150   24.1190 C   0  0  0  0  0  3  0  0  0  0  0  0
  -16.4970  -29.8480   23.7060 C   0  0  0  0  0  3  0  0  0  0  0  0
  -16.7020  -28.5830   23.1250 C   0  0  0  0  0  3  0  0  0  0  0  0
  -25.8620  -32.5020   23.8630 C   0  0  0  0  0  3  0  0  0  0  0  0
  -25.5600  -33.9020   24.1900 N   0  0  0  0  0  0  0  0  0  0  0  0
  -25.8990  -34.9510   23.4270 C   0  0  0  0  0  0  0  0  0  0  0  0
  -26.5710  -34.8420   22.3980 O   0  0  0  0  0  0  0  0  0  0  0  0
  -24.9710  -34.0620   24.9940 H   0  0  0  0  0  0  0  0  0  0  0  0
  -24.1830  -36.7520   23.0620 C   0  0  0  0  0  1  0  0  0  0  0  0
  -25.4180  -36.3430   23.8810 C   0  0  0  0  0  3  0  0  0  0  0  0
  -27.5540  -37.2140   24.7220 C   0  0  0  0  0  1  0  0  0  0  0  0
  -26.4560  -37.3910   23.7730 N   0  0  0  0  0  0  0  0  0  0  0  0
  -26.0540  -38.3120   23.9210 H   0  0  0  0  0  0  0  0  0  0  0  0
  -26.3850  -31.7310   25.1350 C   0  0  1  0  0  0  0  0  0  0  0  0
  -25.3010  -31.4980   26.2130 C   0  0  0  0  0  1  0  0  0  0  0  0
  -26.9560  -30.3510   24.7350 C   0  0  0  0  0  1  0  0  0  0  0  0
  -27.5410  -32.5230   25.7900 C   0  0  0  0  0  1  0  0  0  0  0  0
  -29.0040  -20.5170   18.5220 C   0  0  0  0  0  2  0  0  0  0  0  0
  -30.1390  -18.7530   17.1470 C   0  0  0  0  0  1  0  0  0  0  0  0
  -30.1330  -19.5760   18.3770 N   0  0  2  0  0  4  0  0  0  0  0  0
  -30.8210  -20.3120   18.2030 H   0  0  0  0  0  0  0  0  0  0  0  0
  -30.5680  -18.9010   19.6300 C   0  0  0  0  0  2  0  0  0  0  0  0
  -29.9360  -17.5070   19.8470 C   0  0  0  0  0  2  0  0  0  0  0  0
  -30.4060  -16.8170   21.1450 C   0  0  0  0  0  2  0  0  0  0  0  0
  -30.6940  -14.4350   20.5110 C   0  0  0  0  0  0  0  0  0  0  0  0
  -30.3690  -12.3210   19.3020 C   0  0  0  0  0  2  0  0  0  0  0  0
  -29.4350  -12.5830   18.1040 C   0  0  0  0  0  2  0  0  0  0  0  0
  -27.9600  -12.4500   18.5320 C   0  0  0  0  0  2  0  0  0  0  0  0
  -27.6310  -13.2660   19.8100 C   0  0  0  0  0  3  0  0  0  0  0  0
  -28.6740  -12.9890   20.9150 C   0  0  0  0  0  2  0  0  0  0  0  0
  -30.0110  -13.2730   20.3630 N   0  0  0  0  0  0  0  0  0  0  0  0
  -31.7860  -14.6570   19.9790 O   0  0  0  0  0  0  0  0  0  0  0  0
  -30.0280  -15.4040   21.1540 N   0  0  0  0  0  0  0  0  0  0  0  0
  -29.1490  -15.1530   21.5820 H   0  0  0  0  0  0  0  0  0  0  0  0
  -25.2280  -13.8900   20.4960 C   0  0  0  0  0  0  0  0  0  0  0  0
  -24.1570  -13.1250   20.8670 C   0  0  0  0  0  0  0  0  0  0  0  0
  -24.6110  -11.7700   20.8470 C   0  0  0  0  0  0  0  0  0  0  0  0
  -26.2710  -13.0040   20.2770 N   0  0  0  0  0  0  0  0  0  0  0  0
  -25.9020  -11.7240   20.5420 N   0  0  0  0  0  0  0  0  0  0  0  0
  -23.8810  -10.5120   21.0460 C   0  0  0  0  0  0  0  0  0  0  0  0
  -24.3200   -9.5430   21.9750 C   0  0  0  0  0  3  0  0  0  0  0  0
  -23.5920   -8.3470   22.1600 C   0  0  0  0  0  3  0  0  0  0  0  0
  -22.4120   -8.1140   21.4140 C   0  0  0  0  0  0  0  0  0  0  0  0
  -21.9920   -9.0720   20.4750 C   0  0  0  0  0  3  0  0  0  0  0  0
  -22.7190  -10.2590   20.2890 C   0  0  0  0  0  3  0  0  0  0  0  0
  -21.6540   -6.9730   21.5110 O   0  0  0  0  0  0  0  0  0  0  0  0
  -21.6280   -6.2170   22.6560 C   0  0  0  0  0  0  0  0  0  0  0  0
  -21.2420   -6.7660   23.8990 C   0  0  0  0  0  3  0  0  0  0  0  0
  -21.1610   -5.9390   25.0370 C   0  0  0  0  0  3  0  0  0  0  0  0
  -21.4570   -4.5670   24.9350 C   0  0  0  0  0  0  0  0  0  0  0  0
  -21.8340   -4.0180   23.6970 C   0  0  0  0  0  3  0  0  0  0  0  0
  -21.9170   -4.8410   22.5610 C   0  0  0  0  0  0  0  0  0  0  0  0
  -22.2630   -4.3050   21.3650 F   0  0  0  0  0  0  0  0  0  0  0  0
  -21.3720   -3.7700   26.0270 F   0  0  0  0  0  0  0  0  0  0  0  0
  -22.7600  -13.6070   21.1350 C   0  0  0  0  0  0  0  0  0  0  0  0
  -22.0280  -12.9190   22.0030 N   0  0  0  0  0  0  0  0  0  0  0  0
  -22.3250  -14.6310   20.6060 O   0  0  0  0  0  0  0  0  0  0  0  0
  -22.3910  -12.0910   22.4510 H   0  0  0  0  0  0  0  0  0  0  0  0
  -21.0900  -13.2250   22.2220 H   0  0  0  0  0  0  0  0  0  0  0  0
  -25.4000  -15.2590   20.3110 N   0  0  0  0  0  0  0  0  0  0  0  0
  -24.6320  -15.9170   20.3940 H   0  0  0  0  0  0  0  0  0  0  0  0
  -26.2550  -15.6890   19.9850 H   0  0  0  0  0  0  0  0  0  0  0  0
  1  3  1  0
  2  1  2  0
  3  9  1  0
  4  7  1  0
  5  4  1  0
  6  4  2  0
  6  2  1  0
  7  3  2  0
  9  8  1  0
 10  9  1  0
 11 13  1  0
 11 10  1  0
 12 23  2  0
 13 18  1  0
 14 22  1  0
 14 24  1  0
 15 21  1  0
 15 17  1  0
 16 22  1  0
 17 16  1  0
 18 17  2  0
 19 20  1  0
 19 13  2  0
 20 15  2  0
 21 14  1  0
 22 12  1  0
 24 26  2  0
 25 24  1  0
 27 25  1  0
 28 37  2  0
 28 33  1  0
 29 25  1  0
 29 33  1  0
 30 29  1  0
 31 32  1  0
 31 30  1  0
 32 28  1  0
 33 34  2  0
 34 35  1  0
 36 35  2  0
 37 36  1  0
 38 12  1  0
 38 39  1  0
 38 48  1  0
 39 42  1  0
 40 44  1  0
 40 39  1  0
 41 40  2  0
 44 43  1  0
 46 44  1  0
 46 47  1  0
 46 45  1  0
 48 51  1  1
 48 49  1  0
 50 48  1  0
 52  2  1  0
 53 54  1  0
 54 52  1  0
 54 56  1  0
 54 55  1  6
 56 57  1  0
 57 58  1  0
 58 67  1  0
 59 67  1  0
 60 65  1  0
 61 62  1  0
 61 60  1  0
 63 62  1  0
 63 72  1  0
 63 64  1  0
 65 59  1  0
 65 64  1  0
 66 59  2  0
 67 68  1  0
 69 70  2  0
 70 89  1  0
 71 70  1  0
 71 74  1  0
 72 69  1  0
 72 73  1  0
 73 71  2  0
 74 75  1  0
 75 76  2  0
 77 80  1  0
 77 76  1  0
 78 77  2  0
 79 78  1  0
 79 74  2  0
 80 81  1  0
 81 82  1  0
 82 83  2  0
 84 83  1  0
 84 88  1  0
 85 84  2  0
 86 81  2  0
 86 85  1  0
 87 86  1  0
 89 90  1  0
 90 93  1  0
 90 92  1  0
 91 89  2  0
 94 95  1  0
 94 69  1  0
 96 94  1  0
M  ISO  4  10 101  11 101  59 100  67 100
M  END
>  <TORSDO>  (75) 
F 23

>  <SCORE>  (75) 
-12.916

>  <name>  (75) 
77

>  <ligand_id>  (75) 
77

>  <original_smiles>  (75) 
[H]c1c(C([H])(C([H])([H])[H])C([H])([H])Oc2c([H])c([H])c3c(c2[H])C([H])([H])N(C(=O)C([H])(N([H])C(=O)C([H])(N([H])C([H])([H])[H])C([H])([H])[H])C(C([H])([H])[H])(C([H])([H])[H])C([H])([H])[H])C([H])(C(=O)N([H])C2([H])c4c([H])c([H])c([H])c([H])c4C([H])([H])C([H])([H])C2([H])[H])C3([H])[H])nc(C([H])([H])[H])nc1C([H])([H])[N+]([H])(C([H])([H])[H])C([H])([H])C([H])([H])C([H])([H])N([H])C(=O)N1C([H])([H])C([H])([H])C([H])([H])C([H])(n2nc(-c3c([H])c([H])c(Oc4c([H])c([H])c(F)c([H])c4F)c([H])c3[H])c(C(=O)N([H])[H])c2N([H])[H])C1([H])[H]

>  <smiles>  (75) 
[H]c1c(C([H])(C([H])([H])[H])C([H])([H])Oc2c([H])c([H])c3c(c2[H])C([H])([H])N(C(=O)C([H])(N([H])C(=O)C([H])(N([H])C([H])([H])[H])C([H])([H])[H])C(C([H])([H])[H])(C([H])([H])[H])C([H])([H])[H])C([H])(C(=O)N([H])C2([H])c4c([H])c([H])c([H])c([H])c4C([H])([H])C([H])([H])C2([H])[H])C3([H])[H])nc(C([H])([H])[H])nc1C([H])([H])[N+]([H])(C([H])([H])[H])C([H])([H])C([H])([H])C([H])([H])N([H])C(=O)N1C([H])([H])C([H])([H])C([H])([H])C([H])(n2nc(-c3c([H])c([H])c(Oc4c([H])c([H])c(F)c([H])c4F)c([H])c3[H])c(C(=O)N([H])[H])c2N([H])[H])C1([H])[H]

$$$$
78:0:0
     RDKit          3D

 92100  0  0  1  0  0  0  0  0999 V2000
  -29.9420  -19.0990   18.9720 C   0  0  0  0  0  3  0  0  0  0  0  0
  -30.0080  -20.0020   21.5140 C   0  0  0  0  0  3  0  0  0  0  0  0
  -30.3010  -18.2510   20.0490 C   0  0  0  0  0  0  0  0  0  0  0  0
  -29.7000  -20.8720   20.4320 C   0  0  0  0  0  0  0  0  0  0  0  0
  -30.3040  -18.6910   21.3300 N   0  0  0  0  0  0  0  0  0  0  0  0
  -29.6410  -20.4060   19.1610 N   0  0  0  0  0  0  0  0  0  0  0  0
  -29.5040  -22.2480   20.6480 N   0  0  0  0  0  0  0  0  0  0  0  0
  -29.5880  -22.5350   21.6190 H   0  0  0  0  0  0  0  0  0  0  0  0
  -27.0990  -22.6750   20.2350 C   0  0  0  0  0  1  0  0  0  0  0  0
  -28.5420  -22.9730   19.8070 C   0  0  0  0  0  3  0  0  0  0  0  0
  -28.8450  -24.4850   19.6460 C   0  0  0  0  0  2  0  0  0  0  0  0
  -28.4740  -25.4360   20.7960 C   0  0  0  0  0  2  0  0  0  0  0  0
  -28.6260  -26.7980   20.3530 O   0  0  0  0  0  0  0  0  0  0  0  0
  -24.6710  -31.9080   23.2750 C   0  0  0  0  0  0  0  0  0  0  0  0
  -27.4570  -27.5210   20.2650 C   0  0  0  0  0  0  0  0  0  0  0  0
  -23.5290  -30.4780   21.6090 C   0  0  0  0  0  3  0  0  0  0  0  0
  -25.0400  -28.9760   20.2070 C   0  0  0  0  0  0  0  0  0  0  0  0
  -26.0530  -30.8860   21.4710 C   0  0  0  0  0  2  0  0  0  0  0  0
  -26.1740  -29.5230   20.8230 C   0  0  0  0  0  0  0  0  0  0  0  0
  -27.3910  -28.8090   20.8380 C   0  0  0  0  0  3  0  0  0  0  0  0
  -26.3120  -26.9880   19.6310 C   0  0  0  0  0  3  0  0  0  0  0  0
  -25.1070  -27.7120   19.5950 C   0  0  0  0  0  3  0  0  0  0  0  0
  -23.7840  -29.8140   20.2300 C   0  0  0  0  0  2  0  0  0  0  0  0
  -24.7670  -31.1090   22.1750 N   0  0  0  0  0  0  0  0  0  0  0  0
  -23.5740  -32.1570   23.7920 O   0  0  0  0  0  0  0  0  0  0  0  0
  -22.8780  -29.4430   22.5550 C   0  0  0  0  0  0  0  0  0  0  0  0
  -21.5560  -29.2550   22.4110 N   0  0  0  0  0  0  0  0  0  0  0  0
  -23.5590  -28.8160   23.3720 O   0  0  0  0  0  0  0  0  0  0  0  0
  -21.0780  -29.8060   21.7130 H   0  0  0  0  0  0  0  0  0  0  0  0
  -18.1800  -28.0610   22.9110 C   0  0  0  0  0  0  0  0  0  0  0  0
  -20.7370  -28.3050   23.1650 C   0  0  0  0  0  3  0  0  0  0  0  0
  -20.8320  -26.8840   22.5650 C   0  0  0  0  0  2  0  0  0  0  0  0
  -19.7220  -26.5870   21.5510 C   0  0  0  0  0  2  0  0  0  0  0  0
  -18.3470  -26.7230   22.2110 C   0  0  0  0  0  2  0  0  0  0  0  0
  -19.3020  -28.8130   23.3450 C   0  0  0  0  0  0  0  0  0  0  0  0
  -19.0920  -30.0660   23.9610 C   0  0  0  0  0  3  0  0  0  0  0  0
  -17.7900  -30.5680   24.1470 C   0  0  0  0  0  3  0  0  0  0  0  0
  -16.6810  -29.8100   23.7310 C   0  0  0  0  0  3  0  0  0  0  0  0
  -16.8770  -28.5600   23.1190 C   0  0  0  0  0  3  0  0  0  0  0  0
  -25.9290  -32.5690   23.9180 C   0  0  0  0  0  3  0  0  0  0  0  0
  -26.4220  -31.8270   25.2220 C   0  0  1  0  0  0  0  0  0  0  0  0
  -25.3050  -31.5850   26.2630 C   0  0  0  0  0  1  0  0  0  0  0  0
  -27.0360  -30.4530   24.8680 C   0  0  0  0  0  1  0  0  0  0  0  0
  -27.5380  -32.6540   25.9070 C   0  0  0  0  0  1  0  0  0  0  0  0
  -25.5890  -33.9670   24.2160 N   0  0  0  0  0  0  0  0  0  0  0  0
  -25.9220  -35.0110   23.4450 C   0  0  0  0  0  0  0  0  0  0  0  0
  -26.6170  -34.9010   22.4320 O   0  0  0  0  0  0  0  0  0  0  0  0
  -24.9690  -34.1280   24.9970 H   0  0  0  0  0  0  0  0  0  0  0  0
  -24.1850  -36.7780   23.0140 C   0  0  0  0  0  1  0  0  0  0  0  0
  -25.4050  -36.4000   23.8700 C   0  0  0  0  0  3  0  0  0  0  0  0
  -27.4940  -37.3270   24.7660 C   0  0  0  0  0  1  0  0  0  0  0  0
  -26.4290  -37.4630   23.7750 N   0  0  0  0  0  0  0  0  0  0  0  0
  -26.0060  -38.3800   23.8850 H   0  0  0  0  0  0  0  0  0  0  0  0
  -30.9690  -16.9140   19.7690 C   0  0  0  0  0  2  0  0  0  0  0  0
  -30.9800  -14.5180   20.0560 C   0  0  0  0  0  0  0  0  0  0  0  0
  -30.4940  -12.3930   18.9550 C   0  0  0  0  0  2  0  0  0  0  0  0
  -29.5100  -12.6660   17.8010 C   0  0  0  0  0  2  0  0  0  0  0  0
  -28.0600  -12.5620   18.3120 C   0  0  0  0  0  2  0  0  0  0  0  0
  -27.8130  -13.3830   19.6070 C   0  0  0  0  0  3  0  0  0  0  0  0
  -28.9300  -13.1580   20.6530 C   0  0  0  0  0  2  0  0  0  0  0  0
  -30.2210  -13.3960   19.9950 N   0  0  0  0  0  0  0  0  0  0  0  0
  -32.1370  -14.5510   19.6330 O   0  0  0  0  0  0  0  0  0  0  0  0
  -30.3510  -15.6810   20.2880 N   0  0  0  0  0  0  0  0  0  0  0  0
  -29.3910  -15.6990   20.5900 H   0  0  0  0  0  0  0  0  0  0  0  0
  -25.4750  -14.0020   20.4760 C   0  0  0  0  0  0  0  0  0  0  0  0
  -24.4130  -13.2340   20.8770 C   0  0  0  0  0  0  0  0  0  0  0  0
  -24.8460  -11.8780   20.7780 C   0  0  0  0  0  0  0  0  0  0  0  0
  -26.4890  -13.1110   20.1590 N   0  0  0  0  0  0  0  0  0  0  0  0
  -26.1170  -11.8270   20.3990 N   0  0  0  0  0  0  0  0  0  0  0  0
  -24.1060  -10.6220   20.9690 C   0  0  0  0  0  0  0  0  0  0  0  0
  -24.5290   -9.6500   21.9010 C   0  0  0  0  0  3  0  0  0  0  0  0
  -23.7910   -8.4600   22.0800 C   0  0  0  0  0  3  0  0  0  0  0  0
  -22.6160   -8.2350   21.3250 C   0  0  0  0  0  0  0  0  0  0  0  0
  -22.2110   -9.1950   20.3810 C   0  0  0  0  0  3  0  0  0  0  0  0
  -22.9490  -10.3770   20.2010 C   0  0  0  0  0  3  0  0  0  0  0  0
  -21.8460   -7.1000   21.4150 O   0  0  0  0  0  0  0  0  0  0  0  0
  -21.7450   -6.3880   22.5840 C   0  0  0  0  0  0  0  0  0  0  0  0
  -21.2140   -6.9610   23.7590 C   0  0  0  0  0  3  0  0  0  0  0  0
  -21.0600   -6.1730   24.9190 C   0  0  0  0  0  3  0  0  0  0  0  0
  -21.4320   -4.8150   24.9020 C   0  0  0  0  0  0  0  0  0  0  0  0
  -21.9570   -4.2430   23.7310 C   0  0  0  0  0  3  0  0  0  0  0  0
  -22.1110   -5.0270   22.5740 C   0  0  0  0  0  0  0  0  0  0  0  0
  -22.5960   -4.4640   21.4410 F   0  0  0  0  0  0  0  0  0  0  0  0
  -21.2780   -4.0570   26.0130 F   0  0  0  0  0  0  0  0  0  0  0  0
  -23.0430  -13.7280   21.2390 C   0  0  0  0  0  0  0  0  0  0  0  0
  -22.3450  -13.0110   22.1150 N   0  0  0  0  0  0  0  0  0  0  0  0
  -22.6000  -14.7810   20.7830 O   0  0  0  0  0  0  0  0  0  0  0  0
  -22.7200  -12.1600   22.5070 H   0  0  0  0  0  0  0  0  0  0  0  0
  -21.4240  -13.3180   22.3960 H   0  0  0  0  0  0  0  0  0  0  0  0
  -25.6520  -15.3740   20.3310 N   0  0  0  0  0  0  0  0  0  0  0  0
  -24.9030  -16.0360   20.5010 H   0  0  0  0  0  0  0  0  0  0  0  0
  -26.4920  -15.8100   19.9730 H   0  0  0  0  0  0  0  0  0  0  0  0
  1  6  2  0
  1  3  1  0
  3  5  2  0
  4  7  1  0
  4  2  2  0
  5  2  1  0
  6  4  1  0
  7  8  1  0
 10  9  1  0
 10  7  1  0
 11 10  1  0
 11 12  1  0
 13 12  1  0
 14 25  2  0
 15 13  1  0
 15 20  1  0
 16 24  1  0
 16 26  1  0
 17 23  1  0
 17 19  1  0
 18 24  1  0
 19 20  2  0
 19 18  1  0
 21 15  2  0
 22 21  1  0
 22 17  2  0
 23 16  1  0
 24 14  1  0
 26 28  2  0
 27 26  1  0
 29 27  1  0
 30 39  2  0
 30 35  1  0
 31 27  1  0
 31 35  1  0
 32 31  1  0
 33 34  1  0
 33 32  1  0
 34 30  1  0
 35 36  2  0
 36 37  1  0
 38 37  2  0
 39 38  1  0
 40 14  1  0
 40 45  1  0
 40 41  1  0
 41 44  1  1
 41 42  1  0
 43 41  1  0
 45 48  1  0
 46 50  1  0
 46 45  1  0
 47 46  2  0
 50 49  1  0
 52 50  1  0
 52 53  1  0
 52 51  1  0
 54  3  1  0
 54 63  1  0
 55 63  1  0
 56 61  1  0
 57 58  1  0
 57 56  1  0
 59 58  1  0
 59 68  1  0
 59 60  1  0
 61 55  1  0
 61 60  1  0
 62 55  2  0
 63 64  1  0
 65 66  2  0
 66 85  1  0
 67 66  1  0
 67 70  1  0
 68 69  1  0
 68 65  1  0
 69 67  2  0
 70 71  1  0
 71 72  2  0
 73 76  1  0
 73 72  1  0
 74 73  2  0
 75 74  1  0
 75 70  2  0
 76 77  1  0
 77 78  1  0
 78 79  2  0
 80 79  1  0
 80 84  1  0
 81 80  2  0
 82 77  2  0
 82 81  1  0
 83 82  1  0
 85 86  1  0
 86 89  1  0
 86 88  1  0
 87 85  2  0
 90 65  1  0
 90 91  1  0
 92 90  1  0
M  ISO  4  12 101  13 101  55 100  63 100
M  END
>  <TORSDO>  (76) 
F 20

>  <SCORE>  (76) 
-13.543

>  <name>  (76) 
78

>  <ligand_id>  (76) 
78

>  <original_smiles>  (76) 
[H]c1nc(C([H])([H])N([H])C(=O)N2C([H])([H])C([H])([H])C([H])([H])C([H])(n3nc(-c4c([H])c([H])c(Oc5c([H])c([H])c(F)c([H])c5F)c([H])c4[H])c(C(=O)N([H])[H])c3N([H])[H])C2([H])[H])c([H])nc1N([H])C([H])(C([H])([H])[H])C([H])([H])C([H])([H])Oc1c([H])c([H])c2c(c1[H])C([H])([H])N(C(=O)C([H])(N([H])C(=O)C([H])(N([H])C([H])([H])[H])C([H])([H])[H])C(C([H])([H])[H])(C([H])([H])[H])C([H])([H])[H])C([H])(C(=O)N([H])C1([H])c3c([H])c([H])c([H])c([H])c3C([H])([H])C([H])([H])C1([H])[H])C2([H])[H]

>  <smiles>  (76) 
[H]c1nc(C([H])([H])N([H])C(=O)N2C([H])([H])C([H])([H])C([H])([H])C([H])(n3nc(-c4c([H])c([H])c(Oc5c([H])c([H])c(F)c([H])c5F)c([H])c4[H])c(C(=O)N([H])[H])c3N([H])[H])C2([H])[H])c([H])nc1N([H])C([H])(C([H])([H])[H])C([H])([H])C([H])([H])Oc1c([H])c([H])c2c(c1[H])C([H])([H])N(C(=O)C([H])(N([H])C(=O)C([H])(N([H])C([H])([H])[H])C([H])([H])[H])C(C([H])([H])[H])(C([H])([H])[H])C([H])([H])[H])C([H])(C(=O)N([H])C1([H])c3c([H])c([H])c([H])c([H])c3C([H])([H])C([H])([H])C1([H])[H])C2([H])[H]

$$$$
79:0:0
     RDKit          3D

 91 99  0  0  1  0  0  0  0  0999 V2000
  -27.6590  -21.5740   19.4660 C   0  0  0  0  0  3  0  0  0  0  0  0
  -28.5700  -22.4990   19.9750 C   0  0  0  0  0  0  0  0  0  0  0  0
  -29.3130  -20.0360   20.0520 C   0  0  0  0  0  3  0  0  0  0  0  0
  -28.1230  -20.2340   19.4370 N   0  0  0  0  0  0  0  0  0  0  0  0
  -29.5880  -21.4460   20.3190 N   0  0  0  0  0  0  0  0  0  0  0  0
  -30.4940  -21.7150   20.6850 H   0  0  0  0  0  0  0  0  0  0  0  0
  -26.8140  -18.1740   19.8260 C   0  0  0  0  0  1  0  0  0  0  0  0
  -28.1020  -18.5020   17.5830 C   0  0  0  0  0  1  0  0  0  0  0  0
  -27.3700  -19.1480   18.7880 C   0  0  0  0  0  3  0  0  0  0  0  0
  -31.5040  -18.7350   19.4030 C   0  0  0  0  0  1  0  0  0  0  0  0
  -30.2350  -18.5070   20.2420 C   0  0  0  0  0  0  0  0  0  0  0  0
  -30.5340  -15.4880   20.1770 C   0  0  0  0  0  0  0  0  0  0  0  0
  -30.4890  -13.0160   19.3100 C   0  0  0  0  0  2  0  0  0  0  0  0
  -29.5440  -12.7040   18.1180 C   0  0  0  0  0  2  0  0  0  0  0  0
  -28.1120  -12.3970   18.5980 C   0  0  0  0  0  2  0  0  0  0  0  0
  -27.6430  -13.3880   19.6910 C   0  0  0  0  0  3  0  0  0  0  0  0
  -28.7210  -13.6580   20.7760 C   0  0  0  0  0  2  0  0  0  0  0  0
  -29.9250  -14.1850   20.1000 N   0  0  0  0  0  0  0  0  0  0  0  0
  -31.7610  -15.4040   20.0380 O   0  0  0  0  0  0  0  0  0  0  0  0
  -29.8490  -16.8350   20.2160 N   0  0  0  0  0  4  0  0  0  0  0  0
  -28.8540  -16.7060   20.3100 H   0  0  0  0  0  0  0  0  0  0  0  0
  -25.2910  -13.8870   20.5490 C   0  0  0  0  0  0  0  0  0  0  0  0
  -24.2440  -13.0930   20.9270 C   0  0  0  0  0  0  0  0  0  0  0  0
  -24.7280  -11.7510   20.8610 C   0  0  0  0  0  0  0  0  0  0  0  0
  -26.3380  -13.0340   20.2560 N   0  0  0  0  0  0  0  0  0  0  0  0
  -26.0150  -11.7380   20.5180 N   0  0  0  0  0  0  0  0  0  0  0  0
  -24.0120  -10.4800   21.0410 C   0  0  0  0  0  0  0  0  0  0  0  0
  -24.4520   -9.5140   21.9700 C   0  0  0  0  0  3  0  0  0  0  0  0
  -23.7360   -8.3100   22.1430 C   0  0  0  0  0  3  0  0  0  0  0  0
  -22.5650   -8.0660   21.3860 C   0  0  0  0  0  0  0  0  0  0  0  0
  -22.1440   -9.0230   20.4440 C   0  0  0  0  0  3  0  0  0  0  0  0
  -22.8620  -10.2190   20.2680 C   0  0  0  0  0  3  0  0  0  0  0  0
  -21.8170   -6.9170   21.4740 O   0  0  0  0  0  0  0  0  0  0  0  0
  -21.7500   -6.1830   22.6300 C   0  0  0  0  0  0  0  0  0  0  0  0
  -21.2500   -6.7300   23.8320 C   0  0  0  0  0  3  0  0  0  0  0  0
  -21.1340   -5.9200   24.9790 C   0  0  0  0  0  3  0  0  0  0  0  0
  -21.5090   -4.5640   24.9250 C   0  0  0  0  0  0  0  0  0  0  0  0
  -22.0060   -4.0170   23.7300 C   0  0  0  0  0  3  0  0  0  0  0  0
  -22.1230   -4.8240   22.5840 C   0  0  0  0  0  0  0  0  0  0  0  0
  -22.5810   -4.2870   21.4290 F   0  0  0  0  0  0  0  0  0  0  0  0
  -21.3910   -3.7830   26.0260 F   0  0  0  0  0  0  0  0  0  0  0  0
  -22.8460  -13.5510   21.2240 C   0  0  0  0  0  0  0  0  0  0  0  0
  -22.1370  -12.8390   22.0990 N   0  0  0  0  0  0  0  0  0  0  0  0
  -22.3910  -14.5750   20.7200 O   0  0  0  0  0  0  0  0  0  0  0  0
  -22.5070  -12.0040   22.5250 H   0  0  0  0  0  0  0  0  0  0  0  0
  -21.2000  -13.1320   22.3440 H   0  0  0  0  0  0  0  0  0  0  0  0
  -25.4310  -15.2550   20.3960 N   0  0  0  0  0  0  0  0  0  0  0  0
  -24.6580  -15.8980   20.5260 H   0  0  0  0  0  0  0  0  0  0  0  0
  -26.2520  -15.7070   20.0200 H   0  0  0  0  0  0  0  0  0  0  0  0
  -28.3970  -24.2760   19.6990 C   0  0  0  0  0  2  0  0  0  0  0  0
  -28.2050  -25.7550   20.4860 O   0  0  0  0  0  0  0  0  0  0  0  0
  -24.5910  -31.8650   23.2640 C   0  0  0  0  0  0  0  0  0  0  0  0
  -27.2200  -26.9010   20.3280 C   0  0  0  0  0  0  0  0  0  0  0  0
  -23.4300  -30.4530   21.6160 C   0  0  0  0  0  3  0  0  0  0  0  0
  -24.9090  -28.8210   20.2350 C   0  0  0  0  0  0  0  0  0  0  0  0
  -26.0030  -30.6450   21.5210 C   0  0  0  0  0  2  0  0  0  0  0  0
  -26.0860  -29.2200   20.8780 C   0  0  0  0  0  0  0  0  0  0  0  0
  -27.2220  -28.2790   20.9070 C   0  0  0  0  0  3  0  0  0  0  0  0
  -26.0050  -26.6740   19.6350 C   0  0  0  0  0  3  0  0  0  0  0  0
  -24.8980  -27.5690   19.5970 C   0  0  0  0  0  3  0  0  0  0  0  0
  -23.6970  -29.7580   20.2490 C   0  0  0  0  0  2  0  0  0  0  0  0
  -24.6960  -31.0180   22.1880 N   0  0  0  0  0  0  0  0  0  0  0  0
  -23.4910  -32.1580   23.7630 O   0  0  0  0  0  0  0  0  0  0  0  0
  -22.7090  -29.4710   22.5810 C   0  0  0  0  0  0  0  0  0  0  0  0
  -21.3780  -29.3190   22.4440 N   0  0  0  0  0  0  0  0  0  0  0  0
  -23.3600  -28.8450   23.4240 O   0  0  0  0  0  0  0  0  0  0  0  0
  -20.9060  -29.8740   21.7460 H   0  0  0  0  0  0  0  0  0  0  0  0
  -17.9780  -28.1400   22.9390 C   0  0  0  0  0  0  0  0  0  0  0  0
  -20.5410  -28.3900   23.2120 C   0  0  0  0  0  3  0  0  0  0  0  0
  -20.6350  -26.9560   22.6390 C   0  0  0  0  0  2  0  0  0  0  0  0
  -19.5350  -26.6400   21.6210 C   0  0  0  0  0  2  0  0  0  0  0  0
  -18.1510  -26.7910   22.2590 C   0  0  0  0  0  2  0  0  0  0  0  0
  -19.1000  -28.8960   23.3740 C   0  0  0  0  0  0  0  0  0  0  0  0
  -18.8840  -30.1530   23.9780 C   0  0  0  0  0  3  0  0  0  0  0  0
  -17.5800  -30.6570   24.1460 C   0  0  0  0  0  3  0  0  0  0  0  0
  -16.4740  -29.9000   23.7210 C   0  0  0  0  0  3  0  0  0  0  0  0
  -16.6730  -28.6430   23.1250 C   0  0  0  0  0  3  0  0  0  0  0  0
  -25.8450  -32.5220   23.9160 C   0  0  0  0  0  3  0  0  0  0  0  0
  -26.3050  -31.7900   25.2380 C   0  0  1  0  0  0  0  0  0  0  0  0
  -25.1670  -31.5970   26.2700 C   0  0  0  0  0  1  0  0  0  0  0  0
  -26.8970  -30.3990   24.9190 C   0  0  0  0  0  1  0  0  0  0  0  0
  -27.4320  -32.6010   25.9250 C   0  0  0  0  0  1  0  0  0  0  0  0
  -25.5260  -33.9310   24.2100 N   0  0  0  0  0  0  0  0  0  0  0  0
  -25.8780  -34.9740   23.4470 C   0  0  0  0  0  0  0  0  0  0  0  0
  -26.5670  -34.8520   22.4320 O   0  0  0  0  0  0  0  0  0  0  0  0
  -24.9290  -34.0990   25.0050 H   0  0  0  0  0  0  0  0  0  0  0  0
  -24.1740  -36.7850   23.0300 C   0  0  0  0  0  1  0  0  0  0  0  0
  -25.3910  -36.3750   23.8790 C   0  0  0  0  0  3  0  0  0  0  0  0
  -27.5050  -37.2650   24.7570 C   0  0  0  0  0  1  0  0  0  0  0  0
  -26.4330  -37.4190   23.7770 N   0  0  0  0  0  0  0  0  0  0  0  0
  -26.0290  -38.3450   23.8910 H   0  0  0  0  0  0  0  0  0  0  0  0
  1  2  2  0
  2  5  1  0
  3 11  1  0
  3  5  1  0
  4  1  1  0
  4  3  1  0
  5  6  1  0
  8  9  1  0
  9  4  1  0
  9  7  1  0
 10 11  1  0
 12 20  1  0
 13 18  1  0
 14 15  1  0
 14 13  1  0
 16 15  1  0
 16 25  1  0
 16 17  1  0
 18 12  1  0
 18 17  1  0
 19 12  2  0
 20 11  2  0
 20 21  1  0
 22 23  2  0
 23 42  1  0
 24 23  1  0
 24 27  1  0
 25 26  1  0
 25 22  1  0
 26 24  2  0
 27 28  1  0
 28 29  2  0
 30 33  1  0
 30 29  1  0
 31 30  2  0
 32 31  1  0
 32 27  2  0
 33 34  1  0
 34 35  1  0
 35 36  2  0
 37 36  1  0
 37 41  1  0
 38 37  2  0
 39 34  2  0
 39 38  1  0
 40 39  1  0
 42 43  1  0
 43 46  1  0
 43 45  1  0
 44 42  2  0
 47 48  1  0
 47 22  1  0
 49 47  1  0
 50  2  1  0
 50 51  1  0
 52 63  2  0
 53 51  1  0
 53 58  1  0
 54 62  1  0
 54 64  1  0
 55 61  1  0
 55 57  1  0
 56 62  1  0
 57 58  2  0
 57 56  1  0
 59 53  2  0
 60 59  1  0
 60 55  2  0
 61 54  1  0
 62 52  1  0
 64 66  2  0
 65 64  1  0
 67 65  1  0
 68 77  2  0
 68 73  1  0
 69 65  1  0
 69 73  1  0
 70 69  1  0
 71 72  1  0
 71 70  1  0
 72 68  1  0
 73 74  2  0
 74 75  1  0
 76 75  2  0
 77 76  1  0
 78 52  1  0
 78 83  1  0
 78 79  1  0
 79 82  1  1
 79 80  1  0
 81 79  1  0
 83 86  1  0
 84 88  1  0
 84 83  1  0
 85 84  2  0
 88 87  1  0
 90 88  1  0
 90 91  1  0
 90 89  1  0
M  ISO  4  12 100  20 100  50 101  51 101
M  END
>  <TORSDO>  (77) 
F 19

>  <SCORE>  (77) 
-16.402

>  <name>  (77) 
79

>  <ligand_id>  (77) 
79

>  <original_smiles>  (77) 
[H]c1c([H])c([H])c2c(c1[H])C([H])([H])C([H])([H])C([H])([H])C2([H])N([H])C(=O)C1([H])N(C(=O)C([H])(N([H])C(=O)C([H])(N([H])C([H])([H])[H])C([H])([H])[H])C(C([H])([H])[H])(C([H])([H])[H])C([H])([H])[H])C([H])([H])c2c([H])c(OC([H])([H])c3c([H])n(C([H])(C([H])([H])[H])C([H])([H])[H])c(C([H])(N([H])C(=O)N4C([H])([H])C([H])([H])C([H])([H])C([H])(n5nc(-c6c([H])c([H])c(Oc7c([H])c([H])c(F)c([H])c7F)c([H])c6[H])c(C(=O)N([H])[H])c5N([H])[H])C4([H])[H])C([H])([H])[H])[n+]3[H])c([H])c([H])c2C1([H])[H]

>  <smiles>  (77) 
[H]c1c([H])c([H])c2c(c1[H])C([H])([H])C([H])([H])C([H])([H])C2([H])N([H])C(=O)C1([H])N(C(=O)C([H])(N([H])C(=O)C([H])(N([H])C([H])([H])[H])C([H])([H])[H])C(C([H])([H])[H])(C([H])([H])[H])C([H])([H])[H])C([H])([H])c2c([H])c(OC([H])([H])c3c([H])n(C([H])(C([H])([H])[H])C([H])([H])[H])c(C([H])(N([H])C(=O)N4C([H])([H])C([H])([H])C([H])([H])C([H])(n5nc(-c6c([H])c([H])c(Oc7c([H])c([H])c(F)c([H])c7F)c([H])c6[H])c(C(=O)N([H])[H])c5N([H])[H])C4([H])[H])C([H])([H])[H])[n+]3[H])c([H])c([H])c2C1([H])[H]

$$$$
80:0:0
     RDKit          3D

 89 97  0  0  1  0  0  0  0  0999 V2000
  -30.3230  -21.9880   20.5750 C   0  0  0  0  0  3  0  0  0  0  0  0
  -29.4650  -23.0050   20.9250 C   0  0  0  0  0  0  0  0  0  0  0  0
  -28.5010  -22.4490   21.7740 N   0  0  0  0  0  0  0  0  0  0  0  0
  -28.7250  -21.1750   21.9320 N   0  0  0  0  0  0  0  0  0  0  0  0
  -29.8500  -20.8660   21.2420 N   0  0  0  0  0  0  0  0  0  0  0  0
  -29.5740  -24.5070   20.6650 C   0  0  0  0  0  2  0  0  0  0  0  0
  -28.2290  -25.2680   20.4850 C   0  0  0  0  0  2  0  0  0  0  0  0
  -28.3920  -26.6830   20.2090 O   0  0  0  0  0  0  0  0  0  0  0  0
  -24.6020  -31.9040   23.2570 C   0  0  0  0  0  0  0  0  0  0  0  0
  -27.2320  -27.4390   20.1780 C   0  0  0  0  0  0  0  0  0  0  0  0
  -23.3920  -30.5090   21.6120 C   0  0  0  0  0  3  0  0  0  0  0  0
  -24.8410  -28.9740   20.1770 C   0  0  0  0  0  0  0  0  0  0  0  0
  -25.9210  -30.8530   21.4190 C   0  0  0  0  0  2  0  0  0  0  0  0
  -26.0030  -29.4840   20.7760 C   0  0  0  0  0  0  0  0  0  0  0  0
  -27.1960  -28.7230   20.7730 C   0  0  0  0  0  3  0  0  0  0  0  0
  -26.0530  -26.9570   19.5610 C   0  0  0  0  0  3  0  0  0  0  0  0
  -24.8660  -27.7100   19.5640 C   0  0  0  0  0  3  0  0  0  0  0  0
  -23.6030  -29.8430   20.2260 C   0  0  0  0  0  2  0  0  0  0  0  0
  -24.6560  -31.1060   22.1540 N   0  0  0  0  0  0  0  0  0  0  0  0
  -23.5220  -32.1770   23.8010 O   0  0  0  0  0  0  0  0  0  0  0  0
  -22.7420  -29.4840   22.5690 C   0  0  0  0  0  0  0  0  0  0  0  0
  -21.4200  -29.2920   22.4350 N   0  0  0  0  0  0  0  0  0  0  0  0
  -23.4250  -28.8660   23.3920 O   0  0  0  0  0  0  0  0  0  0  0  0
  -20.9320  -29.8360   21.7360 H   0  0  0  0  0  0  0  0  0  0  0  0
  -18.0530  -28.0740   22.9120 C   0  0  0  0  0  0  0  0  0  0  0  0
  -20.6050  -28.3530   23.2050 C   0  0  0  0  0  3  0  0  0  0  0  0
  -20.7300  -26.9230   22.6340 C   0  0  0  0  0  2  0  0  0  0  0  0
  -19.6380  -26.5860   21.6130 C   0  0  0  0  0  2  0  0  0  0  0  0
  -18.2490  -26.7230   22.2430 C   0  0  0  0  0  2  0  0  0  0  0  0
  -19.1620  -28.8460   23.3480 C   0  0  0  0  0  0  0  0  0  0  0  0
  -18.9300  -30.1110   23.9310 C   0  0  0  0  0  3  0  0  0  0  0  0
  -17.6200  -30.6010   24.0900 C   0  0  0  0  0  3  0  0  0  0  0  0
  -16.5250  -29.8240   23.6740 C   0  0  0  0  0  3  0  0  0  0  0  0
  -16.7420  -28.5640   23.0870 C   0  0  0  0  0  3  0  0  0  0  0  0
  -25.8910  -32.5340   23.8720 C   0  0  0  0  0  3  0  0  0  0  0  0
  -25.5860  -33.9320   24.2050 N   0  0  0  0  0  0  0  0  0  0  0  0
  -25.9050  -34.9840   23.4370 C   0  0  0  0  0  0  0  0  0  0  0  0
  -26.5610  -34.8800   22.3970 O   0  0  0  0  0  0  0  0  0  0  0  0
  -25.0140  -34.0890   25.0200 H   0  0  0  0  0  0  0  0  0  0  0  0
  -24.1690  -36.7740   23.0970 C   0  0  0  0  0  1  0  0  0  0  0  0
  -25.4170  -36.3710   23.8970 C   0  0  0  0  0  3  0  0  0  0  0  0
  -27.5560  -37.2650   24.7090 C   0  0  0  0  0  1  0  0  0  0  0  0
  -26.4450  -37.4270   23.7740 N   0  0  0  0  0  0  0  0  0  0  0  0
  -26.0360  -38.3440   23.9270 H   0  0  0  0  0  0  0  0  0  0  0  0
  -26.4180  -31.7590   25.1420 C   0  0  1  0  0  0  0  0  0  0  0  0
  -25.3370  -31.5130   26.2190 C   0  0  0  0  0  1  0  0  0  0  0  0
  -27.0010  -30.3830   24.7440 C   0  0  0  0  0  1  0  0  0  0  0  0
  -27.5680  -32.5550   25.8020 C   0  0  0  0  0  1  0  0  0  0  0  0
  -30.4800  -19.5450   21.4100 C   0  0  0  0  0  2  0  0  0  0  0  0
  -29.8050  -18.3520   20.6830 C   0  0  0  0  0  2  0  0  0  0  0  0
  -30.5780  -17.0020   20.9110 C   0  0  0  0  0  2  0  0  0  0  0  0
  -30.7470  -14.6070   20.3380 C   0  0  0  0  0  0  0  0  0  0  0  0
  -30.4460  -12.3590   19.3740 C   0  0  0  0  0  2  0  0  0  0  0  0
  -29.5250  -12.4280   18.1380 C   0  0  0  0  0  2  0  0  0  0  0  0
  -28.0380  -12.3760   18.5480 C   0  0  0  0  0  2  0  0  0  0  0  0
  -27.6720  -13.2800   19.7600 C   0  0  0  0  0  3  0  0  0  0  0  0
  -28.7250  -13.1890   20.8860 C   0  0  0  0  0  2  0  0  0  0  0  0
  -30.0440  -13.4380   20.2910 N   0  0  0  0  0  0  0  0  0  0  0  0
  -31.9680  -14.6420   20.1660 O   0  0  0  0  0  0  0  0  0  0  0  0
  -29.5320  -16.1080   18.9180 C   0  0  0  0  0  1  0  0  0  0  0  0
  -30.0340  -15.7740   20.2600 N   0  0  0  0  0  0  0  0  0  0  0  0
  -25.2780  -13.8950   20.4620 C   0  0  0  0  0  0  0  0  0  0  0  0
  -24.2030  -13.1270   20.8190 C   0  0  0  0  0  0  0  0  0  0  0  0
  -24.6620  -11.7740   20.8040 C   0  0  0  0  0  0  0  0  0  0  0  0
  -26.3210  -13.0080   20.2460 N   0  0  0  0  0  0  0  0  0  0  0  0
  -25.9560  -11.7290   20.5180 N   0  0  0  0  0  0  0  0  0  0  0  0
  -23.9310  -10.5140   20.9940 C   0  0  0  0  0  0  0  0  0  0  0  0
  -24.3550   -9.5510   21.9330 C   0  0  0  0  0  3  0  0  0  0  0  0
  -23.6270   -8.3530   22.1110 C   0  0  0  0  0  3  0  0  0  0  0  0
  -22.4590   -8.1150   21.3470 C   0  0  0  0  0  0  0  0  0  0  0  0
  -22.0540   -9.0680   20.3970 C   0  0  0  0  0  3  0  0  0  0  0  0
  -22.7830  -10.2550   20.2180 C   0  0  0  0  0  3  0  0  0  0  0  0
  -21.7050   -6.9690   21.4330 O   0  0  0  0  0  0  0  0  0  0  0  0
  -21.6500   -6.2280   22.5870 C   0  0  0  0  0  0  0  0  0  0  0  0
  -21.2190   -6.7850   23.8110 C   0  0  0  0  0  3  0  0  0  0  0  0
  -21.1080   -5.9680   24.9540 C   0  0  0  0  0  3  0  0  0  0  0  0
  -21.4200   -4.5980   24.8750 C   0  0  0  0  0  0  0  0  0  0  0  0
  -21.8440   -4.0410   23.6560 C   0  0  0  0  0  3  0  0  0  0  0  0
  -21.9540   -4.8540   22.5140 C   0  0  0  0  0  0  0  0  0  0  0  0
  -22.3420   -4.3090   21.3350 F   0  0  0  0  0  0  0  0  0  0  0  0
  -21.3040   -3.8120   25.9700 F   0  0  0  0  0  0  0  0  0  0  0  0
  -22.8030  -13.6080   21.0660 C   0  0  0  0  0  0  0  0  0  0  0  0
  -22.0610  -12.9190   21.9270 N   0  0  0  0  0  0  0  0  0  0  0  0
  -22.3720  -14.6290   20.5310 O   0  0  0  0  0  0  0  0  0  0  0  0
  -22.4210  -12.0940   22.3850 H   0  0  0  0  0  0  0  0  0  0  0  0
  -21.1230  -13.2270   22.1370 H   0  0  0  0  0  0  0  0  0  0  0  0
  -25.4540  -15.2630   20.2840 N   0  0  0  0  0  0  0  0  0  0  0  0
  -24.7040  -15.9340   20.4080 H   0  0  0  0  0  0  0  0  0  0  0  0
  -26.3300  -15.6950   20.0130 H   0  0  0  0  0  0  0  0  0  0  0  0
  1  2  2  0
  1  5  1  0
  2  3  1  0
  3  4  2  0
  5 49  1  0
  5  4  1  0
  6  2  1  0
  7  6  1  0
  8  7  1  0
  9 20  2  0
 10  8  1  0
 10 15  1  0
 11 19  1  0
 11 21  1  0
 12 18  1  0
 12 14  1  0
 13 19  1  0
 14 13  1  0
 15 14  2  0
 16 17  1  0
 16 10  2  0
 17 12  2  0
 18 11  1  0
 19  9  1  0
 21 23  2  0
 22 21  1  0
 24 22  1  0
 25 34  2  0
 25 30  1  0
 26 22  1  0
 26 30  1  0
 27 26  1  0
 28 29  1  0
 28 27  1  0
 29 25  1  0
 30 31  2  0
 31 32  1  0
 33 32  2  0
 34 33  1  0
 35  9  1  0
 35 36  1  0
 35 45  1  0
 36 39  1  0
 37 41  1  0
 37 36  1  0
 38 37  2  0
 41 40  1  0
 43 41  1  0
 43 44  1  0
 43 42  1  0
 45 48  1  1
 45 46  1  0
 47 45  1  0
 50 51  1  0
 50 49  1  0
 53 58  1  0
 54 55  1  0
 54 53  1  0
 56 55  1  0
 56 65  1  0
 56 57  1  0
 58 52  1  0
 58 57  1  0
 59 52  2  0
 60 61  1  0
 61 52  1  0
 61 51  1  0
 62 63  2  0
 63 82  1  0
 64 63  1  0
 64 67  1  0
 65 62  1  0
 65 66  1  0
 66 64  2  0
 67 68  1  0
 68 69  2  0
 70 73  1  0
 70 69  1  0
 71 70  2  0
 72 71  1  0
 72 67  2  0
 73 74  1  0
 74 75  1  0
 75 76  2  0
 77 76  1  0
 77 81  1  0
 78 77  2  0
 79 74  2  0
 79 78  1  0
 80 79  1  0
 82 83  1  0
 83 86  1  0
 83 85  1  0
 84 82  2  0
 87 88  1  0
 87 62  1  0
 89 87  1  0
M  ISO  4   7 101   8 101  52 100  61 100
M  END
>  <TORSDO>  (78) 
F 21

>  <SCORE>  (78) 
-13.212

>  <name>  (78) 
80

>  <ligand_id>  (78) 
80

>  <original_smiles>  (78) 
[H]c1c([H])c([H])c2c(c1[H])C([H])([H])C([H])([H])C([H])([H])C2([H])N([H])C(=O)C1([H])N(C(=O)C([H])(N([H])C(=O)C([H])(N([H])C([H])([H])[H])C([H])([H])[H])C(C([H])([H])[H])(C([H])([H])[H])C([H])([H])[H])C([H])([H])c2c([H])c(OC([H])([H])C([H])([H])c3nnn(C([H])([H])C([H])([H])C([H])([H])N(C(=O)N4C([H])([H])C([H])([H])C([H])([H])C([H])(n5nc(-c6c([H])c([H])c(Oc7c([H])c([H])c(F)c([H])c7F)c([H])c6[H])c(C(=O)N([H])[H])c5N([H])[H])C4([H])[H])C([H])([H])[H])c3[H])c([H])c([H])c2C1([H])[H]

>  <smiles>  (78) 
[H]c1c([H])c([H])c2c(c1[H])C([H])([H])C([H])([H])C([H])([H])C2([H])N([H])C(=O)C1([H])N(C(=O)C([H])(N([H])C(=O)C([H])(N([H])C([H])([H])[H])C([H])([H])[H])C(C([H])([H])[H])(C([H])([H])[H])C([H])([H])[H])C([H])([H])c2c([H])c(OC([H])([H])C([H])([H])c3nnn(C([H])([H])C([H])([H])C([H])([H])N(C(=O)N4C([H])([H])C([H])([H])C([H])([H])C([H])(n5nc(-c6c([H])c([H])c(Oc7c([H])c([H])c(F)c([H])c7F)c([H])c6[H])c(C(=O)N([H])[H])c5N([H])[H])C4([H])[H])C([H])([H])[H])c3[H])c([H])c([H])c2C1([H])[H]

$$$$
81:0:0
     RDKit          3D

 94102  0  0  1  0  0  0  0  0999 V2000
  -28.4550  -21.1730   20.7570 C   0  0  0  0  0  0  0  0  0  0  0  0
  -29.8190  -20.7290   20.9210 C   0  0  0  0  0  0  0  0  0  0  0  0
  -30.3600  -23.0540   20.4690 C   0  0  0  0  0  0  0  0  0  0  0  0
  -28.9950  -23.5000   20.3540 C   0  0  0  0  0  0  0  0  0  0  0  0
  -30.7460  -21.7450   20.7890 N   0  0  0  0  0  0  0  0  0  0  0  0
  -28.0830  -22.4840   20.5030 N   0  0  0  0  0  0  0  0  0  0  0  0
  -32.0560  -24.6590   21.4600 C   0  0  0  0  0  1  0  0  0  0  0  0
  -31.5050  -24.0110   20.1870 C   0  0  0  0  0  2  0  0  0  0  0  0
  -26.8040  -19.7500   19.4540 C   0  0  0  0  0  1  0  0  0  0  0  0
  -27.2540  -20.2330   20.8390 C   0  0  0  0  0  2  0  0  0  0  0  0
  -30.2430  -19.2590   21.5260 C   0  0  0  0  0  2  0  0  0  0  0  0
  -30.9960  -17.9640   20.8030 C   0  0  0  0  0  2  0  0  0  0  0  0
  -31.0430  -15.2430   20.6250 C   0  0  0  0  0  0  0  0  0  0  0  0
  -30.8700  -12.9740   19.4990 C   0  0  0  0  0  2  0  0  0  0  0  0
  -29.9640  -12.9850   18.2470 C   0  0  0  0  0  2  0  0  0  0  0  0
  -28.4930  -12.7340   18.6330 C   0  0  0  0  0  2  0  0  0  0  0  0
  -28.0540  -13.5840   19.8470 C   0  0  0  0  0  3  0  0  0  0  0  0
  -29.0950  -13.5610   20.9970 C   0  0  0  0  0  2  0  0  0  0  0  0
  -30.3730  -14.0250   20.4340 N   0  0  0  0  0  0  0  0  0  0  0  0
  -32.2700  -15.2130   20.4880 O   0  0  0  0  0  0  0  0  0  0  0  0
  -30.3820  -16.5200   20.7470 N   0  0  0  0  0  0  0  0  0  0  0  0
  -25.6340  -14.1770   20.4710 C   0  0  0  0  0  0  0  0  0  0  0  0
  -24.5630  -13.3960   20.7960 C   0  0  0  0  0  0  0  0  0  0  0  0
  -25.0480  -12.0540   20.8160 C   0  0  0  0  0  0  0  0  0  0  0  0
  -26.6990  -13.3020   20.2960 N   0  0  0  0  0  0  0  0  0  0  0  0
  -26.3520  -12.0260   20.5750 N   0  0  0  0  0  0  0  0  0  0  0  0
  -24.3350  -10.7880   20.9860 C   0  0  0  0  0  0  0  0  0  0  0  0
  -24.7060   -9.8650   21.9870 C   0  0  0  0  0  3  0  0  0  0  0  0
  -23.9920   -8.6590   22.1450 C   0  0  0  0  0  3  0  0  0  0  0  0
  -22.8960   -8.3690   21.2990 C   0  0  0  0  0  0  0  0  0  0  0  0
  -22.5460   -9.2810   20.2880 C   0  0  0  0  0  3  0  0  0  0  0  0
  -23.2610  -10.4790   20.1290 C   0  0  0  0  0  3  0  0  0  0  0  0
  -22.1580   -7.2140   21.3650 O   0  0  0  0  0  0  0  0  0  0  0  0
  -21.9650   -6.5530   22.5520 C   0  0  0  0  0  0  0  0  0  0  0  0
  -21.3700   -7.1830   23.6670 C   0  0  0  0  0  3  0  0  0  0  0  0
  -21.1270   -6.4460   24.8430 C   0  0  0  0  0  3  0  0  0  0  0  0
  -21.4680   -5.0810   24.9040 C   0  0  0  0  0  0  0  0  0  0  0  0
  -22.0570   -4.4520   23.7930 C   0  0  0  0  0  3  0  0  0  0  0  0
  -22.3030   -5.1870   22.6190 C   0  0  0  0  0  0  0  0  0  0  0  0
  -22.8530   -4.5720   21.5440 F   0  0  0  0  0  0  0  0  0  0  0  0
  -21.2250   -4.3710   26.0310 F   0  0  0  0  0  0  0  0  0  0  0  0
  -23.1480  -13.8620   20.9770 C   0  0  0  0  0  0  0  0  0  0  0  0
  -22.3880  -13.1830   21.8290 N   0  0  0  0  0  0  0  0  0  0  0  0
  -22.7230  -14.8620   20.4000 O   0  0  0  0  0  0  0  0  0  0  0  0
  -22.7440  -12.3740   22.3160 H   0  0  0  0  0  0  0  0  0  0  0  0
  -21.4340  -13.4720   21.9910 H   0  0  0  0  0  0  0  0  0  0  0  0
  -25.7670  -15.5460   20.2850 N   0  0  0  0  0  0  0  0  0  0  0  0
  -24.9670  -16.1670   20.3340 H   0  0  0  0  0  0  0  0  0  0  0  0
  -26.5950  -15.9970   19.9200 H   0  0  0  0  0  0  0  0  0  0  0  0
  -29.0050  -16.7620   20.2930 C   0  0  0  0  0  2  0  0  0  0  0  0
  -27.5470  -17.4520   18.2510 C   0  0  0  0  0  1  0  0  0  0  0  0
  -28.9430  -17.0950   18.7780 C   0  0  0  0  0  2  0  0  0  0  0  0
  -28.4070  -24.8950   19.7130 C   0  0  0  0  0  2  0  0  0  0  0  0
  -28.6240  -26.3710   20.1030 O   0  0  0  0  0  0  0  0  0  0  0  0
  -24.5870  -31.7570   23.0390 C   0  0  0  0  0  0  0  0  0  0  0  0
  -27.5220  -27.2920   19.9880 C   0  0  0  0  0  0  0  0  0  0  0  0
  -23.5080  -30.3080   21.3640 C   0  0  0  0  0  3  0  0  0  0  0  0
  -25.0810  -28.8650   19.9390 C   0  0  0  0  0  0  0  0  0  0  0  0
  -26.0400  -30.7470   21.2480 C   0  0  0  0  0  2  0  0  0  0  0  0
  -26.2150  -29.3760   20.5820 C   0  0  0  0  0  0  0  0  0  0  0  0
  -27.4330  -28.6020   20.6010 C   0  0  0  0  0  3  0  0  0  0  0  0
  -26.3610  -26.8970   19.2770 C   0  0  0  0  0  3  0  0  0  0  0  0
  -25.1640  -27.6380   19.2720 C   0  0  0  0  0  3  0  0  0  0  0  0
  -23.7950  -29.6730   19.9790 C   0  0  0  0  0  2  0  0  0  0  0  0
  -24.7290  -30.9600   21.9380 N   0  0  0  0  0  0  0  0  0  0  0  0
  -23.4770  -31.9630   23.5520 O   0  0  0  0  0  0  0  0  0  0  0  0
  -22.8840  -29.2420   22.2990 C   0  0  0  0  0  0  0  0  0  0  0  0
  -21.5660  -29.0110   22.1710 N   0  0  0  0  0  0  0  0  0  0  0  0
  -23.5890  -28.6280   23.1040 O   0  0  0  0  0  0  0  0  0  0  0  0
  -21.0530  -29.5610   21.4960 H   0  0  0  0  0  0  0  0  0  0  0  0
  -18.2390  -27.6740   22.6830 C   0  0  0  0  0  0  0  0  0  0  0  0
  -20.7910  -28.0190   22.9230 C   0  0  0  0  0  3  0  0  0  0  0  0
  -20.9340  -26.6120   22.2990 C   0  0  0  0  0  2  0  0  0  0  0  0
  -19.8280  -26.2830   21.2910 C   0  0  0  0  0  2  0  0  0  0  0  0
  -18.4530  -26.3560   21.9600 C   0  0  0  0  0  2  0  0  0  0  0  0
  -19.3360  -28.4620   23.1220 C   0  0  0  0  0  0  0  0  0  0  0  0
  -19.0800  -29.6950   23.7620 C   0  0  0  0  0  3  0  0  0  0  0  0
  -17.7600  -30.1390   23.9680 C   0  0  0  0  0  3  0  0  0  0  0  0
  -16.6780  -29.3490   23.5430 C   0  0  0  0  0  3  0  0  0  0  0  0
  -16.9190  -28.1170   22.9070 C   0  0  0  0  0  3  0  0  0  0  0  0
  -25.8120  -32.4660   23.6930 C   0  0  0  0  0  3  0  0  0  0  0  0
  -25.4000  -33.8330   24.0480 N   0  0  0  0  0  0  0  0  0  0  0  0
  -25.7070  -34.9300   23.3440 C   0  0  0  0  0  0  0  0  0  0  0  0
  -26.4350  -34.9010   22.3470 O   0  0  0  0  0  0  0  0  0  0  0  0
  -24.7560  -33.9230   24.8200 H   0  0  0  0  0  0  0  0  0  0  0  0
  -23.9020  -36.6380   22.9520 C   0  0  0  0  0  1  0  0  0  0  0  0
  -25.1170  -36.2720   23.8190 C   0  0  0  0  0  3  0  0  0  0  0  0
  -27.1510  -37.2400   24.7980 C   0  0  0  0  0  1  0  0  0  0  0  0
  -26.0910  -37.3840   23.8030 N   0  0  0  0  0  0  0  0  0  0  0  0
  -25.6250  -38.2740   23.9620 H   0  0  0  0  0  0  0  0  0  0  0  0
  -26.3600  -31.7070   24.9650 C   0  0  1  0  0  0  0  0  0  0  0  0
  -25.2700  -31.3790   26.0120 C   0  0  0  0  0  1  0  0  0  0  0  0
  -27.0390  -30.3770   24.5630 C   0  0  0  0  0  1  0  0  0  0  0  0
  -27.4450  -32.5640   25.6580 C   0  0  0  0  0  1  0  0  0  0  0  0
  1 10  1  0
  1  2  1  0
  2 11  1  0
  3  5  1  0
  4  3  2  0
  4  6  1  0
  5  2  2  0
  6  1  2  0
  8  3  1  0
  8  7  1  0
  9 10  1  0
 12 11  1  0
 13 21  1  0
 14 19  1  0
 15 16  1  0
 15 14  1  0
 17 16  1  0
 17 25  1  0
 17 18  1  0
 19 13  1  0
 19 18  1  0
 20 13  2  0
 21 12  1  0
 22 23  2  0
 23 24  1  0
 23 42  1  0
 24 27  1  0
 25 22  1  0
 25 26  1  0
 26 24  2  0
 27 28  1  0
 28 29  2  0
 30 33  1  0
 30 29  1  0
 31 30  2  0
 32 31  1  0
 32 27  2  0
 33 34  1  0
 34 39  2  0
 34 35  1  0
 35 36  2  0
 36 37  1  0
 37 41  1  0
 38 37  2  0
 39 38  1  0
 40 39  1  0
 42 43  1  0
 43 46  1  0
 43 45  1  0
 44 42  2  0
 47 48  1  0
 47 22  1  0
 49 47  1  0
 50 21  1  0
 51 52  1  0
 52 50  1  0
 53 54  1  0
 53  4  1  0
 55 66  2  0
 56 54  1  0
 56 61  1  0
 57 65  1  0
 57 67  1  0
 58 64  1  0
 58 60  1  0
 59 65  1  0
 60 61  2  0
 60 59  1  0
 62 56  2  0
 63 62  1  0
 63 58  2  0
 64 57  1  0
 65 55  1  0
 67 69  2  0
 68 67  1  0
 70 68  1  0
 71 80  2  0
 71 76  1  0
 72 68  1  0
 72 76  1  0
 73 72  1  0
 74 75  1  0
 74 73  1  0
 75 71  1  0
 76 77  2  0
 77 78  1  0
 79 78  2  0
 80 79  1  0
 81 55  1  0
 81 82  1  0
 81 91  1  0
 82 85  1  0
 83 87  1  0
 83 82  1  0
 84 83  2  0
 87 86  1  0
 89 87  1  0
 89 90  1  0
 89 88  1  0
 91 94  1  1
 91 92  1  0
 93 91  1  0
M  ISO  4  13 100  21 100  53 101  54 101
M  END
>  <TORSDO>  (79) 
F 23

>  <SCORE>  (79) 
-9.908

>  <name>  (79) 
81

>  <ligand_id>  (79) 
81

>  <original_smiles>  (79) 
[H]c1c([H])c([H])c2c(c1[H])C([H])([H])C([H])([H])C([H])([H])C2([H])N([H])C(=O)C1([H])N(C(=O)C([H])(N([H])C(=O)C([H])(N([H])C([H])([H])[H])C([H])([H])[H])C(C([H])([H])[H])(C([H])([H])[H])C([H])([H])[H])C([H])([H])c2c([H])c(OC([H])([H])c3nc(C([H])([H])C([H])([H])[H])c(C([H])([H])C([H])([H])N(C(=O)N4C([H])([H])C([H])([H])C([H])([H])C([H])(n5nc(-c6c([H])c([H])c(Oc7c([H])c([H])c(F)c([H])c7F)c([H])c6[H])c(C(=O)N([H])[H])c5N([H])[H])C4([H])[H])C([H])([H])C([H])([H])C([H])([H])[H])nc3C([H])([H])C([H])([H])[H])c([H])c([H])c2C1([H])[H]

>  <smiles>  (79) 
[H]c1c([H])c([H])c2c(c1[H])C([H])([H])C([H])([H])C([H])([H])C2([H])N([H])C(=O)C1([H])N(C(=O)C([H])(N([H])C(=O)C([H])(N([H])C([H])([H])[H])C([H])([H])[H])C(C([H])([H])[H])(C([H])([H])[H])C([H])([H])[H])C([H])([H])c2c([H])c(OC([H])([H])c3nc(C([H])([H])C([H])([H])[H])c(C([H])([H])C([H])([H])N(C(=O)N4C([H])([H])C([H])([H])C([H])([H])C([H])(n5nc(-c6c([H])c([H])c(Oc7c([H])c([H])c(F)c([H])c7F)c([H])c6[H])c(C(=O)N([H])[H])c5N([H])[H])C4([H])[H])C([H])([H])C([H])([H])C([H])([H])[H])nc3C([H])([H])C([H])([H])[H])c([H])c([H])c2C1([H])[H]

$$$$
82:0:0
     RDKit          3D

 93101  0  0  1  0  0  0  0  0999 V2000
  -28.2100  -19.5780   19.7990 C   0  0  0  0  0  3  0  0  0  0  0  0
  -29.3150  -18.9560   20.4850 C   0  0  0  0  0  0  0  0  0  0  0  0
  -29.8660  -21.2300   21.0990 C   0  0  0  0  0  0  0  0  0  0  0  0
  -28.7430  -21.8570   20.4480 C   0  0  0  0  0  0  0  0  0  0  0  0
  -30.8370  -22.0650   21.9120 C   0  0  0  0  0  1  0  0  0  0  0  0
  -27.9310  -20.9540   19.7880 N   0  0  0  0  0  0  0  0  0  0  0  0
  -30.1280  -19.8640   21.1200 N   0  0  0  0  0  0  0  0  0  0  0  0
  -28.2690  -23.4170   20.7560 C   0  0  0  0  0  2  0  0  0  0  0  0
  -28.2710  -24.7650   19.7820 C   0  0  0  0  0  2  0  0  0  0  0  0
  -28.2640  -26.2420   20.2660 O   0  0  0  0  0  0  0  0  0  0  0  0
  -24.6180  -31.8800   23.2300 C   0  0  0  0  0  0  0  0  0  0  0  0
  -27.1830  -27.1810   20.1880 C   0  0  0  0  0  0  0  0  0  0  0  0
  -23.4130  -30.4830   21.5960 C   0  0  0  0  0  3  0  0  0  0  0  0
  -24.8530  -28.9100   20.1650 C   0  0  0  0  0  0  0  0  0  0  0  0
  -25.9650  -30.7520   21.4250 C   0  0  0  0  0  2  0  0  0  0  0  0
  -26.0320  -29.3620   20.7720 C   0  0  0  0  0  0  0  0  0  0  0  0
  -27.1940  -28.5120   20.7690 C   0  0  0  0  0  3  0  0  0  0  0  0
  -25.9770  -26.8210   19.5510 C   0  0  0  0  0  3  0  0  0  0  0  0
  -24.8380  -27.6540   19.5410 C   0  0  0  0  0  3  0  0  0  0  0  0
  -23.6270  -29.8080   20.2140 C   0  0  0  0  0  2  0  0  0  0  0  0
  -24.6860  -31.0630   22.1370 N   0  0  0  0  0  0  0  0  0  0  0  0
  -23.5330  -32.1620   23.7640 O   0  0  0  0  0  0  0  0  0  0  0  0
  -22.7430  -29.4740   22.5610 C   0  0  0  0  0  0  0  0  0  0  0  0
  -21.4160  -29.3010   22.4420 N   0  0  0  0  0  0  0  0  0  0  0  0
  -23.4220  -28.8500   23.3820 O   0  0  0  0  0  0  0  0  0  0  0  0
  -20.9270  -29.8600   21.7560 H   0  0  0  0  0  0  0  0  0  0  0  0
  -18.0360  -28.0990   22.9590 C   0  0  0  0  0  0  0  0  0  0  0  0
  -20.5960  -28.3630   23.2170 C   0  0  0  0  0  3  0  0  0  0  0  0
  -20.6960  -26.9290   22.6470 C   0  0  0  0  0  2  0  0  0  0  0  0
  -19.5890  -26.6040   21.6380 C   0  0  0  0  0  2  0  0  0  0  0  0
  -18.2090  -26.7480   22.2840 C   0  0  0  0  0  2  0  0  0  0  0  0
  -19.1550  -28.8640   23.3820 C   0  0  0  0  0  0  0  0  0  0  0  0
  -18.9350  -30.1280   23.9730 C   0  0  0  0  0  3  0  0  0  0  0  0
  -17.6290  -30.6240   24.1450 C   0  0  0  0  0  3  0  0  0  0  0  0
  -16.5250  -29.8570   23.7340 C   0  0  0  0  0  3  0  0  0  0  0  0
  -16.7290  -28.5960   23.1460 C   0  0  0  0  0  3  0  0  0  0  0  0
  -25.8990  -32.5190   23.8500 C   0  0  0  0  0  3  0  0  0  0  0  0
  -25.5830  -33.9170   24.1800 N   0  0  0  0  0  0  0  0  0  0  0  0
  -25.9110  -34.9750   23.4220 C   0  0  0  0  0  0  0  0  0  0  0  0
  -26.5780  -34.8730   22.3900 O   0  0  0  0  0  0  0  0  0  0  0  0
  -24.9870  -34.0660   24.9790 H   0  0  0  0  0  0  0  0  0  0  0  0
  -24.1830  -36.7740   23.0770 C   0  0  0  0  0  1  0  0  0  0  0  0
  -25.4230  -36.3620   23.8850 C   0  0  0  0  0  3  0  0  0  0  0  0
  -27.5600  -37.2500   24.7130 C   0  0  0  0  0  1  0  0  0  0  0  0
  -26.4560  -37.4170   23.7710 N   0  0  0  0  0  0  0  0  0  0  0  0
  -26.0490  -38.3370   23.9170 H   0  0  0  0  0  0  0  0  0  0  0  0
  -26.4080  -31.7560   25.1360 C   0  0  1  0  0  0  0  0  0  0  0  0
  -25.3160  -31.5320   26.2080 C   0  0  0  0  0  1  0  0  0  0  0  0
  -26.9920  -30.3720   24.7660 C   0  0  0  0  0  1  0  0  0  0  0  0
  -27.5540  -32.5570   25.7970 C   0  0  0  0  0  1  0  0  0  0  0  0
  -29.4920  -17.3450   20.8190 C   0  0  0  0  0  2  0  0  0  0  0  0
  -30.6750  -14.9400   20.3080 C   0  0  0  0  0  0  0  0  0  0  0  0
  -30.4100  -12.6250   19.3520 C   0  0  0  0  0  2  0  0  0  0  0  0
  -29.4860  -12.5840   18.1220 C   0  0  0  0  0  2  0  0  0  0  0  0
  -28.0270  -12.3880   18.5680 C   0  0  0  0  0  2  0  0  0  0  0  0
  -27.6220  -13.3350   19.7310 C   0  0  0  0  0  3  0  0  0  0  0  0
  -28.6860  -13.3890   20.8490 C   0  0  0  0  0  2  0  0  0  0  0  0
  -29.9490  -13.7600   20.2010 N   0  0  0  0  0  0  0  0  0  0  0  0
  -31.8930  -14.7970   20.1930 O   0  0  0  0  0  0  0  0  0  0  0  0
  -30.1260  -16.2120   19.9480 N   0  0  0  0  0  0  0  0  0  0  0  0
  -25.2410  -13.9160   20.4570 C   0  0  0  0  0  0  0  0  0  0  0  0
  -24.1720  -13.1440   20.8230 C   0  0  0  0  0  0  0  0  0  0  0  0
  -24.6380  -11.7940   20.8160 C   0  0  0  0  0  0  0  0  0  0  0  0
  -26.2870  -13.0370   20.2370 N   0  0  0  0  0  0  0  0  0  0  0  0
  -25.9350  -11.7570   20.5220 N   0  0  0  0  0  0  0  0  0  0  0  0
  -23.9120  -10.5310   21.0080 C   0  0  0  0  0  0  0  0  0  0  0  0
  -24.3370   -9.5690   21.9500 C   0  0  0  0  0  3  0  0  0  0  0  0
  -23.6090   -8.3740   22.1320 C   0  0  0  0  0  3  0  0  0  0  0  0
  -22.4400   -8.1310   21.3720 C   0  0  0  0  0  0  0  0  0  0  0  0
  -22.0330   -9.0820   20.4190 C   0  0  0  0  0  3  0  0  0  0  0  0
  -22.7610  -10.2680   20.2360 C   0  0  0  0  0  3  0  0  0  0  0  0
  -21.6830   -6.9880   21.4620 O   0  0  0  0  0  0  0  0  0  0  0  0
  -21.6260   -6.2500   22.6180 C   0  0  0  0  0  0  0  0  0  0  0  0
  -21.2000   -6.8120   23.8420 C   0  0  0  0  0  3  0  0  0  0  0  0
  -21.0950   -6.0010   24.9880 C   0  0  0  0  0  3  0  0  0  0  0  0
  -21.4010   -4.6290   24.9130 C   0  0  0  0  0  0  0  0  0  0  0  0
  -21.8210   -4.0680   23.6950 C   0  0  0  0  0  3  0  0  0  0  0  0
  -21.9310   -4.8750   22.5500 C   0  0  0  0  0  0  0  0  0  0  0  0
  -22.3140   -4.3240   21.3740 F   0  0  0  0  0  0  0  0  0  0  0  0
  -21.2930   -3.8490   26.0130 F   0  0  0  0  0  0  0  0  0  0  0  0
  -22.7700  -13.6230   21.0630 C   0  0  0  0  0  0  0  0  0  0  0  0
  -22.0260  -12.9430   21.9270 N   0  0  0  0  0  0  0  0  0  0  0  0
  -22.3400  -14.6370   20.5160 O   0  0  0  0  0  0  0  0  0  0  0  0
  -22.3860  -12.1290   22.3990 H   0  0  0  0  0  0  0  0  0  0  0  0
  -21.0840  -13.2470   22.1230 H   0  0  0  0  0  0  0  0  0  0  0  0
  -25.4050  -15.2840   20.2640 N   0  0  0  0  0  0  0  0  0  0  0  0
  -24.6310  -15.9310   20.3580 H   0  0  0  0  0  0  0  0  0  0  0  0
  -26.2520  -15.7190   19.9240 H   0  0  0  0  0  0  0  0  0  0  0  0
  -30.5120  -16.7420   18.6170 C   0  0  0  0  0  2  0  0  0  0  0  0
  -32.6720  -17.8010   19.7550 C   0  0  0  0  0  1  0  0  0  0  0  0
  -32.8250  -16.6360   17.5380 C   0  0  0  0  0  1  0  0  0  0  0  0
  -31.6680  -18.8150   17.7210 C   0  0  0  0  0  1  0  0  0  0  0  0
  -31.9040  -17.4750   18.4470 C   0  0  1  0  0  0  0  0  0  0  0  0
  1  2  1  0
  2 51  1  0
  2  7  2  0
  3  7  1  0
  3  5  1  0
  4  8  1  0
  4  3  2  0
  6  1  2  0
  6  4  1  0
  9 10  1  0
  9  8  1  0
 11 22  2  0
 12 10  1  0
 12 17  1  0
 13 21  1  0
 13 23  1  0
 14 20  1  0
 14 16  1  0
 15 21  1  0
 16 15  1  0
 17 16  2  0
 18 12  2  0
 19 18  1  0
 19 14  2  0
 20 13  1  0
 21 11  1  0
 23 25  2  0
 24 23  1  0
 26 24  1  0
 27 36  2  0
 27 32  1  0
 28 24  1  0
 28 32  1  0
 29 28  1  0
 30 31  1  0
 30 29  1  0
 31 27  1  0
 32 33  2  0
 33 34  1  0
 35 34  2  0
 36 35  1  0
 37 11  1  0
 37 38  1  0
 37 47  1  0
 38 41  1  0
 39 43  1  0
 39 38  1  0
 40 39  2  0
 43 42  1  0
 45 43  1  0
 45 46  1  0
 45 44  1  0
 47 50  1  1
 47 48  1  0
 49 47  1  0
 53 58  1  0
 54 55  1  0
 54 53  1  0
 56 55  1  0
 56 64  1  0
 56 57  1  0
 58 52  1  0
 58 57  1  0
 59 52  2  0
 60 52  1  0
 60 51  1  0
 61 62  2  0
 62 81  1  0
 63 62  1  0
 63 66  1  0
 64 61  1  0
 64 65  1  0
 65 63  2  0
 66 67  1  0
 67 68  2  0
 69 72  1  0
 69 68  1  0
 70 69  2  0
 71 70  1  0
 71 66  2  0
 72 73  1  0
 73 74  1  0
 74 75  2  0
 76 75  1  0
 76 80  1  0
 77 76  2  0
 78 73  2  0
 78 77  1  0
 79 78  1  0
 81 82  1  0
 82 85  1  0
 82 84  1  0
 83 81  2  0
 86 87  1  0
 86 61  1  0
 88 86  1  0
 89 60  1  0
 93 91  1  6
 92 93  1  0
 93 89  1  0
 93 90  1  0
M  ISO  4   9 101  10 101  52 100  60 100
M  END
>  <TORSDO>  (80) 
F 21

>  <SCORE>  (80) 
-13.834

>  <name>  (80) 
82

>  <ligand_id>  (80) 
82

>  <original_smiles>  (80) 
[H]c1nc(C([H])([H])C([H])([H])Oc2c([H])c([H])c3c(c2[H])C([H])([H])N(C(=O)C([H])(N([H])C(=O)C([H])(N([H])C([H])([H])[H])C([H])([H])[H])C(C([H])([H])[H])(C([H])([H])[H])C([H])([H])[H])C([H])(C(=O)N([H])C2([H])c4c([H])c([H])c([H])c([H])c4C([H])([H])C([H])([H])C2([H])[H])C3([H])[H])c(C([H])([H])[H])nc1C([H])([H])N(C(=O)N1C([H])([H])C([H])([H])C([H])([H])C([H])(n2nc(-c3c([H])c([H])c(Oc4c([H])c([H])c(F)c([H])c4F)c([H])c3[H])c(C(=O)N([H])[H])c2N([H])[H])C1([H])[H])C([H])([H])C(C([H])([H])[H])(C([H])([H])[H])C([H])([H])[H]

>  <smiles>  (80) 
[H]c1nc(C([H])([H])C([H])([H])Oc2c([H])c([H])c3c(c2[H])C([H])([H])N(C(=O)C([H])(N([H])C(=O)C([H])(N([H])C([H])([H])[H])C([H])([H])[H])C(C([H])([H])[H])(C([H])([H])[H])C([H])([H])[H])C([H])(C(=O)N([H])C2([H])c4c([H])c([H])c([H])c([H])c4C([H])([H])C([H])([H])C2([H])[H])C3([H])[H])c(C([H])([H])[H])nc1C([H])([H])N(C(=O)N1C([H])([H])C([H])([H])C([H])([H])C([H])(n2nc(-c3c([H])c([H])c(Oc4c([H])c([H])c(F)c([H])c4F)c([H])c3[H])c(C(=O)N([H])[H])c2N([H])[H])C1([H])[H])C([H])([H])C(C([H])([H])[H])(C([H])([H])[H])C([H])([H])[H]

$$$$
83:0:0
     RDKit          3D

 95103  0  0  1  0  0  0  0  0999 V2000
  -29.9570  -21.5340   20.8920 C   0  0  0  0  0  2  0  0  0  0  0  0
  -29.2280  -20.3890   21.6580 C   0  0  0  0  0  2  0  0  0  0  0  0
  -27.9530  -18.9750   19.9950 C   0  0  0  0  0  3  0  0  0  0  0  0
  -27.8440  -17.7850   19.2800 C   0  0  0  0  0  0  0  0  0  0  0  0
  -29.0150  -19.0790   20.8930 C   0  0  0  0  0  0  0  0  0  0  0  0
  -29.7530  -16.9450   20.2890 C   0  0  0  0  0  0  0  0  0  0  0  0
  -26.7950  -17.6320   18.1980 C   0  0  0  0  0  1  0  0  0  0  0  0
  -28.7080  -16.7710   19.4690 N   0  0  0  0  0  0  0  0  0  0  0  0
  -29.8990  -18.0590   21.0400 N   0  0  0  0  0  0  0  0  0  0  0  0
  -32.2600  -17.1000   20.0950 C   0  0  0  0  0  1  0  0  0  0  0  0
  -31.0880  -15.8600   18.4090 C   0  0  0  0  0  1  0  0  0  0  0  0
  -31.0470  -16.1170   19.9420 C   0  0  2  0  0  0  0  0  0  0  0  0
  -31.4170  -14.7400   20.6810 C   0  0  0  0  0  0  0  0  0  0  0  0
  -31.0640  -12.4410   19.8910 C   0  0  0  0  0  2  0  0  0  0  0  0
  -30.2310  -12.4180   18.5950 C   0  0  0  0  0  2  0  0  0  0  0  0
  -28.7240  -12.4230   18.9120 C   0  0  0  0  0  2  0  0  0  0  0  0
  -28.3070  -13.4240   20.0250 C   0  0  0  0  0  3  0  0  0  0  0  0
  -29.2880  -13.4430   21.2100 C   0  0  0  0  0  2  0  0  0  0  0  0
  -30.6390  -13.6140   20.6750 N   0  0  0  0  0  0  0  0  0  0  0  0
  -32.6290  -14.5850   20.8380 O   0  0  0  0  0  0  0  0  0  0  0  0
  -25.9310  -14.1410   20.6670 C   0  0  0  0  0  0  0  0  0  0  0  0
  -24.7980  -13.4320   20.9440 C   0  0  0  0  0  0  0  0  0  0  0  0
  -25.1830  -12.0580   20.9120 C   0  0  0  0  0  0  0  0  0  0  0  0
  -26.9310  -13.2090   20.4570 N   0  0  0  0  0  0  0  0  0  0  0  0
  -26.4850  -11.9470   20.6800 N   0  0  0  0  0  0  0  0  0  0  0  0
  -24.3740  -10.8420   21.0290 C   0  0  0  0  0  0  0  0  0  0  0  0
  -24.6900   -9.8370   21.9710 C   0  0  0  0  0  3  0  0  0  0  0  0
  -23.8860   -8.6820   22.0800 C   0  0  0  0  0  3  0  0  0  0  0  0
  -22.7540   -8.5270   21.2450 C   0  0  0  0  0  0  0  0  0  0  0  0
  -22.4590   -9.5180   20.2920 C   0  0  0  0  0  3  0  0  0  0  0  0
  -23.2620  -10.6650   20.1830 C   0  0  0  0  0  3  0  0  0  0  0  0
  -21.9320   -7.4250   21.2600 O   0  0  0  0  0  0  0  0  0  0  0  0
  -21.7390   -6.6900   22.4010 C   0  0  0  0  0  0  0  0  0  0  0  0
  -21.1990   -7.2610   23.5750 C   0  0  0  0  0  3  0  0  0  0  0  0
  -20.9510   -6.4530   24.7020 C   0  0  0  0  0  3  0  0  0  0  0  0
  -21.2320   -5.0740   24.6550 C   0  0  0  0  0  0  0  0  0  0  0  0
  -21.7650   -4.5020   23.4870 C   0  0  0  0  0  3  0  0  0  0  0  0
  -22.0160   -5.3070   22.3630 C   0  0  0  0  0  0  0  0  0  0  0  0
  -22.5100   -4.7480   21.2330 F   0  0  0  0  0  0  0  0  0  0  0  0
  -20.9880   -4.2970   25.7370 F   0  0  0  0  0  0  0  0  0  0  0  0
  -23.4180  -13.9920   21.1330 C   0  0  0  0  0  0  0  0  0  0  0  0
  -22.5940  -13.3300   21.9350 N   0  0  0  0  0  0  0  0  0  0  0  0
  -23.0780  -15.0500   20.6040 O   0  0  0  0  0  0  0  0  0  0  0  0
  -22.8800  -12.4710   22.3830 H   0  0  0  0  0  0  0  0  0  0  0  0
  -21.6640  -13.6860   22.1030 H   0  0  0  0  0  0  0  0  0  0  0  0
  -26.1850  -15.4960   20.5500 N   0  0  0  0  0  0  0  0  0  0  0  0
  -25.4570  -16.1930   20.6280 H   0  0  0  0  0  0  0  0  0  0  0  0
  -27.0960  -15.8750   20.2860 H   0  0  0  0  0  0  0  0  0  0  0  0
  -29.3280  -22.0420   19.5640 C   0  0  0  0  0  2  0  0  0  0  0  0
  -27.4630  -23.3070   18.6230 C   0  0  0  0  0  1  0  0  0  0  0  0
  -28.5450  -23.3240   19.6410 N   0  0  2  0  0  4  0  0  0  0  0  0
  -28.0610  -23.3270   20.5270 H   0  0  0  0  0  0  0  0  0  0  0  0
  -29.4240  -24.5520   19.6050 C   0  0  0  0  0  2  0  0  0  0  0  0
  -28.8140  -25.9240   19.1560 C   0  0  0  0  0  2  0  0  0  0  0  0
  -28.4940  -26.8330   20.2260 O   0  0  0  0  0  0  0  0  0  0  0  0
  -24.6110  -31.9590   23.3130 C   0  0  0  0  0  0  0  0  0  0  0  0
  -27.3120  -27.5540   20.1960 C   0  0  0  0  0  0  0  0  0  0  0  0
  -23.4240  -30.5510   21.6620 C   0  0  0  0  0  3  0  0  0  0  0  0
  -24.8980  -29.0440   20.2300 C   0  0  0  0  0  0  0  0  0  0  0  0
  -25.9490  -30.9360   21.4740 C   0  0  0  0  0  2  0  0  0  0  0  0
  -26.0510  -29.5700   20.8250 C   0  0  0  0  0  0  0  0  0  0  0  0
  -27.2560  -28.8280   20.8150 C   0  0  0  0  0  3  0  0  0  0  0  0
  -26.1300  -27.0440   19.6130 C   0  0  0  0  0  3  0  0  0  0  0  0
  -24.9320  -27.7790   19.6260 C   0  0  0  0  0  3  0  0  0  0  0  0
  -23.6450  -29.8870   20.2790 C   0  0  0  0  0  2  0  0  0  0  0  0
  -24.6790  -31.1640   22.2070 N   0  0  0  0  0  0  0  0  0  0  0  0
  -23.5250  -32.2150   23.8520 O   0  0  0  0  0  0  0  0  0  0  0  0
  -22.7870  -29.5140   22.6150 C   0  0  0  0  0  0  0  0  0  0  0  0
  -21.4680  -29.3000   22.4730 N   0  0  0  0  0  0  0  0  0  0  0  0
  -23.4760  -28.9040   23.4390 O   0  0  0  0  0  0  0  0  0  0  0  0
  -20.9720  -29.8450   21.7810 H   0  0  0  0  0  0  0  0  0  0  0  0
  -18.1210  -28.0140   22.9170 C   0  0  0  0  0  0  0  0  0  0  0  0
  -20.6650  -28.3450   23.2350 C   0  0  0  0  0  3  0  0  0  0  0  0
  -20.8200  -26.9140   22.6730 C   0  0  0  0  0  2  0  0  0  0  0  0
  -19.7480  -26.5530   21.6400 C   0  0  0  0  0  2  0  0  0  0  0  0
  -18.3500  -26.6650   22.2550 C   0  0  0  0  0  2  0  0  0  0  0  0
  -19.2100  -28.8100   23.3620 C   0  0  0  0  0  0  0  0  0  0  0  0
  -18.9450  -30.0720   23.9370 C   0  0  0  0  0  3  0  0  0  0  0  0
  -17.6240  -30.5380   24.0730 C   0  0  0  0  0  3  0  0  0  0  0  0
  -16.5510  -29.7400   23.6460 C   0  0  0  0  0  3  0  0  0  0  0  0
  -16.8000  -28.4800   23.0730 C   0  0  0  0  0  3  0  0  0  0  0  0
  -25.8870  -32.6030   23.9350 C   0  0  0  0  0  3  0  0  0  0  0  0
  -25.5720  -34.0070   24.2350 N   0  0  0  0  0  0  0  0  0  0  0  0
  -25.9090  -35.0450   23.4590 C   0  0  0  0  0  0  0  0  0  0  0  0
  -26.5900  -34.9240   22.4380 O   0  0  0  0  0  0  0  0  0  0  0  0
  -24.9700  -34.1750   25.0280 H   0  0  0  0  0  0  0  0  0  0  0  0
  -24.1840  -36.8280   23.0460 C   0  0  0  0  0  1  0  0  0  0  0  0
  -25.4110  -36.4390   23.8860 C   0  0  0  0  0  3  0  0  0  0  0  0
  -27.5230  -37.3480   24.7470 C   0  0  0  0  0  1  0  0  0  0  0  0
  -26.4440  -37.4920   23.7740 N   0  0  0  0  0  0  0  0  0  0  0  0
  -26.0300  -38.4130   23.8940 H   0  0  0  0  0  0  0  0  0  0  0  0
  -26.3960  -31.8560   25.2290 C   0  0  1  0  0  0  0  0  0  0  0  0
  -25.2920  -31.6260   26.2880 C   0  0  0  0  0  1  0  0  0  0  0  0
  -26.9930  -30.4770   24.8640 C   0  0  0  0  0  1  0  0  0  0  0  0
  -27.5310  -32.6690   25.8930 C   0  0  0  0  0  1  0  0  0  0  0  0
  1  2  1  0
  3  5  1  0
  4  8  1  0
  4  3  2  0
  5  9  2  0
  5  2  1  0
  6  9  1  0
  7  4  1  0
  8  6  2  0
 12 11  1  6
 12 10  1  0
 12  6  1  0
 12 13  1  0
 13 20  2  0
 14 19  1  0
 15 16  1  0
 15 14  1  0
 17 16  1  0
 17 24  1  0
 17 18  1  0
 19 13  1  0
 19 18  1  0
 21 22  2  0
 22 41  1  0
 23 22  1  0
 23 26  1  0
 24 21  1  0
 24 25  1  0
 25 23  2  0
 26 27  1  0
 27 28  2  0
 29 32  1  0
 29 28  1  0
 30 29  2  0
 31 30  1  0
 31 26  2  0
 32 33  1  0
 33 34  1  0
 34 35  2  0
 36 35  1  0
 36 40  1  0
 37 36  2  0
 38 33  2  0
 38 37  1  0
 39 38  1  0
 41 42  1  0
 42 45  1  0
 42 44  1  0
 43 41  2  0
 46 47  1  0
 46 21  1  0
 48 46  1  0
 49 51  1  0
 49  1  1  0
 50 51  1  0
 51 52  1  1
 53 51  1  0
 54 53  1  0
 54 55  1  0
 56 67  2  0
 57 55  1  0
 57 62  1  0
 58 66  1  0
 58 68  1  0
 59 65  1  0
 59 61  1  0
 60 66  1  0
 61 60  1  0
 62 61  2  0
 63 64  1  0
 63 57  2  0
 64 59  2  0
 65 58  1  0
 66 56  1  0
 68 70  2  0
 69 68  1  0
 71 69  1  0
 72 81  2  0
 72 77  1  0
 73 69  1  0
 73 77  1  0
 74 73  1  0
 75 76  1  0
 75 74  1  0
 76 72  1  0
 77 78  2  0
 78 79  1  0
 80 79  2  0
 81 80  1  0
 82 56  1  0
 82 83  1  0
 82 92  1  0
 83 86  1  0
 84 88  1  0
 84 83  1  0
 85 84  2  0
 88 87  1  0
 90 88  1  0
 90 91  1  0
 90 89  1  0
 92 95  1  1
 92 93  1  0
 94 92  1  0
M  ISO  4  12 100  13 100  54 101  55 101
M  END
>  <TORSDO>  (81) 
F 23

>  <SCORE>  (81) 
-11.051

>  <name>  (81) 
83

>  <ligand_id>  (81) 
83

>  <original_smiles>  (81) 
[H]c1c(C([H])([H])[H])nc(C(C(=O)N2C([H])([H])C([H])([H])C([H])([H])C([H])(n3nc(-c4c([H])c([H])c(Oc5c([H])c([H])c(F)c([H])c5F)c([H])c4[H])c(C(=O)N([H])[H])c3N([H])[H])C2([H])[H])(C([H])([H])[H])C([H])([H])[H])nc1C([H])([H])C([H])([H])C([H])([H])[N+]([H])(C([H])([H])[H])C([H])([H])C([H])([H])Oc1c([H])c([H])c2c(c1[H])C([H])([H])N(C(=O)C([H])(N([H])C(=O)C([H])(N([H])C([H])([H])[H])C([H])([H])[H])C(C([H])([H])[H])(C([H])([H])[H])C([H])([H])[H])C([H])(C(=O)N([H])C1([H])c3c([H])c([H])c([H])c([H])c3C([H])([H])C([H])([H])C1([H])[H])C2([H])[H]

>  <smiles>  (81) 
[H]c1c(C([H])([H])[H])nc(C(C(=O)N2C([H])([H])C([H])([H])C([H])([H])C([H])(n3nc(-c4c([H])c([H])c(Oc5c([H])c([H])c(F)c([H])c5F)c([H])c4[H])c(C(=O)N([H])[H])c3N([H])[H])C2([H])[H])(C([H])([H])[H])C([H])([H])[H])nc1C([H])([H])C([H])([H])C([H])([H])[N+]([H])(C([H])([H])[H])C([H])([H])C([H])([H])Oc1c([H])c([H])c2c(c1[H])C([H])([H])N(C(=O)C([H])(N([H])C(=O)C([H])(N([H])C([H])([H])[H])C([H])([H])[H])C(C([H])([H])[H])(C([H])([H])[H])C([H])([H])[H])C([H])(C(=O)N([H])C1([H])c3c([H])c([H])c([H])c([H])c3C([H])([H])C([H])([H])C1([H])[H])C2([H])[H]

$$$$
84:0:0
     RDKit          3D

 90 98  0  0  1  0  0  0  0  0999 V2000
  -29.4750  -21.2160   18.2000 C   0  0  0  0  0  3  0  0  0  0  0  0
  -27.6340  -20.1240   18.5690 C   0  0  0  0  0  3  0  0  0  0  0  0
  -28.4230  -22.0970   18.2160 C   0  0  0  0  0  0  0  0  0  0  0  0
  -27.2410  -21.3930   18.4590 N   0  0  0  0  0  0  0  0  0  0  0  0
  -28.9580  -19.9490   18.4360 N   0  0  0  0  0  0  0  0  0  0  0  0
  -28.4670  -23.5790   17.9750 C   0  0  0  0  0  2  0  0  0  0  0  0
  -28.3440  -24.4150   19.2620 C   0  0  0  0  0  2  0  0  0  0  0  0
  -28.6580  -25.9040   19.0160 C   0  0  0  0  0  2  0  0  0  0  0  0
  -28.3830  -26.7280   20.1540 O   0  0  0  0  0  0  0  0  0  0  0  0
  -24.5240  -31.8860   23.2030 C   0  0  0  0  0  0  0  0  0  0  0  0
  -27.1890  -27.4160   20.1710 C   0  0  0  0  0  0  0  0  0  0  0  0
  -23.3300  -30.4710   21.5630 C   0  0  0  0  0  3  0  0  0  0  0  0
  -24.7900  -28.9120   20.1760 C   0  0  0  0  0  0  0  0  0  0  0  0
  -25.8600  -30.8170   21.3930 C   0  0  0  0  0  2  0  0  0  0  0  0
  -25.9430  -29.4380   20.7730 C   0  0  0  0  0  0  0  0  0  0  0  0
  -27.1410  -28.6890   20.7830 C   0  0  0  0  0  3  0  0  0  0  0  0
  -26.0090  -26.8970   19.5900 C   0  0  0  0  0  3  0  0  0  0  0  0
  -24.8140  -27.6360   19.5920 C   0  0  0  0  0  3  0  0  0  0  0  0
  -23.5520  -29.7790   20.1930 C   0  0  0  0  0  2  0  0  0  0  0  0
  -24.5890  -31.0730   22.1120 N   0  0  0  0  0  0  0  0  0  0  0  0
  -23.4370  -32.1660   23.7290 O   0  0  0  0  0  0  0  0  0  0  0  0
  -22.6680  -29.4610   22.5240 C   0  0  0  0  0  0  0  0  0  0  0  0
  -21.3460  -29.2760   22.3810 N   0  0  0  0  0  0  0  0  0  0  0  0
  -23.3410  -28.8420   23.3540 O   0  0  0  0  0  0  0  0  0  0  0  0
  -20.8680  -29.8250   21.6800 H   0  0  0  0  0  0  0  0  0  0  0  0
  -17.9620  -28.1000   22.8500 C   0  0  0  0  0  0  0  0  0  0  0  0
  -20.5170  -28.3500   23.1500 C   0  0  0  0  0  3  0  0  0  0  0  0
  -20.6220  -26.9130   22.5900 C   0  0  0  0  0  2  0  0  0  0  0  0
  -19.5310  -26.5840   21.5670 C   0  0  0  0  0  2  0  0  0  0  0  0
  -18.1410  -26.7430   22.1920 C   0  0  0  0  0  2  0  0  0  0  0  0
  -19.0790  -28.8620   23.2870 C   0  0  0  0  0  0  0  0  0  0  0  0
  -18.8610  -30.1320   23.8610 C   0  0  0  0  0  3  0  0  0  0  0  0
  -17.5560  -30.6430   24.0040 C   0  0  0  0  0  3  0  0  0  0  0  0
  -16.4530  -29.8780   23.5850 C   0  0  0  0  0  3  0  0  0  0  0  0
  -16.6580  -28.6090   23.0130 C   0  0  0  0  0  3  0  0  0  0  0  0
  -25.8050  -32.5180   23.8280 C   0  0  0  0  0  3  0  0  0  0  0  0
  -25.4870  -33.9110   24.1700 N   0  0  0  0  0  0  0  0  0  0  0  0
  -25.8090  -34.9700   23.4150 C   0  0  0  0  0  0  0  0  0  0  0  0
  -26.4790  -34.8790   22.3820 O   0  0  0  0  0  0  0  0  0  0  0  0
  -24.8930  -34.0540   24.9730 H   0  0  0  0  0  0  0  0  0  0  0  0
  -24.0640  -36.7480   23.0750 C   0  0  0  0  0  1  0  0  0  0  0  0
  -25.3100  -36.3500   23.8820 C   0  0  0  0  0  3  0  0  0  0  0  0
  -27.4370  -37.2510   24.7150 C   0  0  0  0  0  1  0  0  0  0  0  0
  -26.3340  -37.4140   23.7720 N   0  0  0  0  0  0  0  0  0  0  0  0
  -25.9200  -38.3290   23.9230 H   0  0  0  0  0  0  0  0  0  0  0  0
  -26.3280  -31.7370   25.0970 C   0  0  1  0  0  0  0  0  0  0  0  0
  -25.2370  -31.4800   26.1610 C   0  0  0  0  0  1  0  0  0  0  0  0
  -26.9250  -30.3710   24.6900 C   0  0  0  0  0  1  0  0  0  0  0  0
  -27.4700  -32.5360   25.7690 C   0  0  0  0  0  1  0  0  0  0  0  0
  -29.7310  -18.7200   18.4380 C   0  0  0  0  0  2  0  0  0  0  0  0
  -29.3130  -17.6670   19.4840 C   0  0  0  0  0  2  0  0  0  0  0  0
  -30.4990  -16.7200   19.7460 C   0  0  0  0  0  2  0  0  0  0  0  0
  -30.8500  -14.3600   20.1370 C   0  0  0  0  0  0  0  0  0  0  0  0
  -30.4020  -12.2610   18.9360 C   0  0  0  0  0  2  0  0  0  0  0  0
  -29.4020  -12.5320   17.7940 C   0  0  0  0  0  2  0  0  0  0  0  0
  -27.9490  -12.4260   18.3010 C   0  0  0  0  0  2  0  0  0  0  0  0
  -27.7070  -13.2230   19.6110 C   0  0  0  0  0  3  0  0  0  0  0  0
  -28.8160  -12.9290   20.6410 C   0  0  0  0  0  2  0  0  0  0  0  0
  -30.1100  -13.2240   20.0090 N   0  0  0  0  0  0  0  0  0  0  0  0
  -31.9740  -14.4620   19.6330 O   0  0  0  0  0  0  0  0  0  0  0  0
  -29.8270  -15.7260   21.8910 C   0  0  0  0  0  1  0  0  0  0  0  0
  -30.1730  -15.4850   20.4850 N   0  0  0  0  0  0  0  0  0  0  0  0
  -25.3640  -13.8560   20.4660 C   0  0  0  0  0  0  0  0  0  0  0  0
  -24.3020  -13.0970   20.8750 C   0  0  0  0  0  0  0  0  0  0  0  0
  -24.7330  -11.7370   20.7860 C   0  0  0  0  0  0  0  0  0  0  0  0
  -26.3770  -12.9620   20.1580 N   0  0  0  0  0  0  0  0  0  0  0  0
  -26.0030  -11.6810   20.4050 N   0  0  0  0  0  0  0  0  0  0  0  0
  -23.9950  -10.4850   20.9880 C   0  0  0  0  0  0  0  0  0  0  0  0
  -24.4430   -9.5040   21.9000 C   0  0  0  0  0  3  0  0  0  0  0  0
  -23.7080   -8.3150   22.0890 C   0  0  0  0  0  3  0  0  0  0  0  0
  -22.5090   -8.0990   21.3680 C   0  0  0  0  0  0  0  0  0  0  0  0
  -22.0800   -9.0700   20.4430 C   0  0  0  0  0  3  0  0  0  0  0  0
  -22.8170  -10.2500   20.2530 C   0  0  0  0  0  3  0  0  0  0  0  0
  -21.7430   -6.9630   21.4640 O   0  0  0  0  0  0  0  0  0  0  0  0
  -21.6920   -6.2270   22.6210 C   0  0  0  0  0  0  0  0  0  0  0  0
  -21.2700   -6.7910   23.8450 C   0  0  0  0  0  3  0  0  0  0  0  0
  -21.1650   -5.9820   24.9950 C   0  0  0  0  0  3  0  0  0  0  0  0
  -21.4710   -4.6110   24.9200 C   0  0  0  0  0  0  0  0  0  0  0  0
  -21.8860   -4.0460   23.7030 C   0  0  0  0  0  3  0  0  0  0  0  0
  -21.9930   -4.8520   22.5550 C   0  0  0  0  0  0  0  0  0  0  0  0
  -22.3730   -4.2980   21.3770 F   0  0  0  0  0  0  0  0  0  0  0  0
  -21.3620   -3.8310   26.0220 F   0  0  0  0  0  0  0  0  0  0  0  0
  -22.9330  -13.5950   21.2390 C   0  0  0  0  0  0  0  0  0  0  0  0
  -22.2380  -12.8910   22.1250 N   0  0  0  0  0  0  0  0  0  0  0  0
  -22.4900  -14.6430   20.7720 O   0  0  0  0  0  0  0  0  0  0  0  0
  -22.6090  -12.0460   22.5340 H   0  0  0  0  0  0  0  0  0  0  0  0
  -21.3190  -13.2110   22.3990 H   0  0  0  0  0  0  0  0  0  0  0  0
  -25.5490  -15.2260   20.3130 N   0  0  0  0  0  0  0  0  0  0  0  0
  -24.8130  -15.8970   20.4950 H   0  0  0  0  0  0  0  0  0  0  0  0
  -26.4110  -15.6530   19.9970 H   0  0  0  0  0  0  0  0  0  0  0  0
  1  3  2  0
  1  5  1  0
  3  4  1  0
  4  2  2  0
  5 50  1  0
  5  2  1  0
  6  3  1  0
  6  7  1  0
  8  7  1  0
  8  9  1  0
  9 11  1  0
 10 21  2  0
 11 16  1  0
 12 20  1  0
 12 22  1  0
 13 19  1  0
 13 15  1  0
 14 20  1  0
 15 16  2  0
 15 14  1  0
 17 18  1  0
 17 11  2  0
 18 13  2  0
 19 12  1  0
 20 10  1  0
 22 24  2  0
 23 22  1  0
 25 23  1  0
 26 35  2  0
 26 31  1  0
 27 23  1  0
 27 31  1  0
 28 27  1  0
 29 30  1  0
 29 28  1  0
 30 26  1  0
 31 32  2  0
 32 33  1  0
 34 33  2  0
 35 34  1  0
 36 10  1  0
 36 37  1  0
 36 46  1  0
 37 40  1  0
 38 42  1  0
 38 37  1  0
 39 38  2  0
 42 41  1  0
 44 42  1  0
 44 45  1  0
 44 43  1  0
 46 49  1  1
 46 47  1  0
 48 46  1  0
 50 51  1  0
 51 52  1  0
 52 62  1  0
 53 62  1  0
 54 59  1  0
 55 56  1  0
 55 54  1  0
 57 56  1  0
 57 66  1  0
 57 58  1  0
 59 53  1  0
 59 58  1  0
 60 53  2  0
 62 61  1  0
 63 64  2  0
 64 83  1  0
 65 64  1  0
 65 68  1  0
 66 67  1  0
 66 63  1  0
 67 65  2  0
 68 69  1  0
 69 70  2  0
 71 74  1  0
 71 70  1  0
 72 71  2  0
 73 72  1  0
 73 68  2  0
 74 75  1  0
 75 76  1  0
 76 77  2  0
 78 77  1  0
 78 82  1  0
 79 78  2  0
 80 75  2  0
 80 79  1  0
 81 80  1  0
 83 84  1  0
 84 87  1  0
 84 86  1  0
 85 83  2  0
 88 63  1  0
 88 89  1  0
 90 88  1  0
M  ISO  4   8 101   9 101  53 100  62 100
M  END
>  <TORSDO>  (82) 
F 22

>  <SCORE>  (82) 
-12.748

>  <name>  (82) 
84

>  <ligand_id>  (82) 
84

>  <original_smiles>  (82) 
[H]c1c([H])c([H])c2c(c1[H])C([H])([H])C([H])([H])C([H])([H])C2([H])N([H])C(=O)C1([H])N(C(=O)C([H])(N([H])C(=O)C([H])(N([H])C([H])([H])[H])C([H])([H])[H])C(C([H])([H])[H])(C([H])([H])[H])C([H])([H])[H])C([H])([H])c2c([H])c(OC([H])([H])C([H])([H])C([H])([H])c3nc([H])n(C([H])([H])C([H])([H])C([H])([H])N(C(=O)N4C([H])([H])C([H])([H])C([H])([H])C([H])(n5nc(-c6c([H])c([H])c(Oc7c([H])c([H])c(F)c([H])c7F)c([H])c6[H])c(C(=O)N([H])[H])c5N([H])[H])C4([H])[H])C([H])([H])[H])c3[H])c([H])c([H])c2C1([H])[H]

>  <smiles>  (82) 
[H]c1c([H])c([H])c2c(c1[H])C([H])([H])C([H])([H])C([H])([H])C2([H])N([H])C(=O)C1([H])N(C(=O)C([H])(N([H])C(=O)C([H])(N([H])C([H])([H])[H])C([H])([H])[H])C(C([H])([H])[H])(C([H])([H])[H])C([H])([H])[H])C([H])([H])c2c([H])c(OC([H])([H])C([H])([H])C([H])([H])c3nc([H])n(C([H])([H])C([H])([H])C([H])([H])N(C(=O)N4C([H])([H])C([H])([H])C([H])([H])C([H])(n5nc(-c6c([H])c([H])c(Oc7c([H])c([H])c(F)c([H])c7F)c([H])c6[H])c(C(=O)N([H])[H])c5N([H])[H])C4([H])[H])C([H])([H])[H])c3[H])c([H])c([H])c2C1([H])[H]

$$$$
85:0:0
     RDKit          3D

 90 98  0  0  1  0  0  0  0  0999 V2000
  -29.6610  -20.5180   21.6310 C   0  0  0  0  0  3  0  0  0  0  0  0
  -29.2230  -20.9130   20.3860 C   0  0  0  0  0  0  0  0  0  0  0  0
  -29.9170  -18.6900   20.3250 C   0  0  0  0  0  3  0  0  0  0  0  0
  -30.6490  -18.4050   22.6570 C   0  0  0  0  0  1  0  0  0  0  0  0
  -30.0730  -19.1920   21.5640 N   0  0  0  0  0  0  0  0  0  0  0  0
  -29.3890  -19.7400   19.6270 N   0  0  0  0  0  0  0  0  0  0  0  0
  -29.1690  -19.6800   18.6400 H   0  0  0  0  0  0  0  0  0  0  0  0
  -28.5770  -22.2500   19.8510 C   0  0  0  0  0  2  0  0  0  0  0  0
  -28.9300  -23.7200   20.4290 C   0  0  0  0  0  3  0  0  0  0  0  0
  -27.9980  -24.9420   19.9250 C   0  0  0  0  0  3  0  0  0  0  0  0
  -28.2400  -26.3990   20.2160 O   0  0  0  0  0  0  0  0  0  0  0  0
  -24.5970  -31.9040   23.2210 C   0  0  0  0  0  0  0  0  0  0  0  0
  -27.1510  -27.3020   20.1400 C   0  0  0  0  0  0  0  0  0  0  0  0
  -23.3720  -30.5100   21.5960 C   0  0  0  0  0  3  0  0  0  0  0  0
  -24.8020  -28.9590   20.1480 C   0  0  0  0  0  0  0  0  0  0  0  0
  -25.9140  -30.8090   21.3890 C   0  0  0  0  0  2  0  0  0  0  0  0
  -25.9810  -29.4290   20.7390 C   0  0  0  0  0  0  0  0  0  0  0  0
  -27.1560  -28.6120   20.7280 C   0  0  0  0  0  3  0  0  0  0  0  0
  -25.9500  -26.9120   19.5000 C   0  0  0  0  0  3  0  0  0  0  0  0
  -24.7920  -27.7070   19.5160 C   0  0  0  0  0  3  0  0  0  0  0  0
  -23.5690  -29.8380   20.2120 C   0  0  0  0  0  2  0  0  0  0  0  0
  -24.6470  -31.0920   22.1240 N   0  0  0  0  0  0  0  0  0  0  0  0
  -23.5190  -32.1860   23.7660 O   0  0  0  0  0  0  0  0  0  0  0  0
  -22.7160  -29.4950   22.5630 C   0  0  0  0  0  0  0  0  0  0  0  0
  -21.3930  -29.2980   22.4310 N   0  0  0  0  0  0  0  0  0  0  0  0
  -23.3980  -28.8870   23.3930 O   0  0  0  0  0  0  0  0  0  0  0  0
  -20.9000  -29.8400   21.7350 H   0  0  0  0  0  0  0  0  0  0  0  0
  -18.0290  -28.0550   22.9230 C   0  0  0  0  0  0  0  0  0  0  0  0
  -20.5820  -28.3590   23.2090 C   0  0  0  0  0  3  0  0  0  0  0  0
  -20.7100  -26.9210   22.6550 C   0  0  0  0  0  2  0  0  0  0  0  0
  -19.6210  -26.5670   21.6370 C   0  0  0  0  0  2  0  0  0  0  0  0
  -18.2330  -26.6990   22.2680 C   0  0  0  0  0  2  0  0  0  0  0  0
  -19.1330  -28.8410   23.3500 C   0  0  0  0  0  0  0  0  0  0  0  0
  -18.8890  -30.1080   23.9240 C   0  0  0  0  0  3  0  0  0  0  0  0
  -17.5750  -30.5910   24.0720 C   0  0  0  0  0  3  0  0  0  0  0  0
  -16.4870  -29.8030   23.6600 C   0  0  0  0  0  3  0  0  0  0  0  0
  -16.7140  -28.5360   23.0910 C   0  0  0  0  0  3  0  0  0  0  0  0
  -25.8870  -32.5360   23.8270 C   0  0  0  0  0  3  0  0  0  0  0  0
  -26.4180  -31.7620   25.0970 C   0  0  1  0  0  0  0  0  0  0  0  0
  -25.3330  -31.5090   26.1700 C   0  0  0  0  0  1  0  0  0  0  0  0
  -27.0110  -30.3920   24.6970 C   0  0  0  0  0  1  0  0  0  0  0  0
  -27.5640  -32.5640   25.7560 C   0  0  0  0  0  1  0  0  0  0  0  0
  -25.5820  -33.9330   24.1650 N   0  0  0  0  0  0  0  0  0  0  0  0
  -25.9050  -34.9890   23.4050 C   0  0  0  0  0  0  0  0  0  0  0  0
  -26.5590  -34.8870   22.3640 O   0  0  0  0  0  0  0  0  0  0  0  0
  -24.9990  -34.0860   24.9740 H   0  0  0  0  0  0  0  0  0  0  0  0
  -24.1840  -36.7930   23.0690 C   0  0  0  0  0  1  0  0  0  0  0  0
  -25.4260  -36.3770   23.8740 C   0  0  0  0  0  3  0  0  0  0  0  0
  -27.5620  -37.2520   24.7110 C   0  0  0  0  0  1  0  0  0  0  0  0
  -26.4630  -37.4260   23.7650 N   0  0  0  0  0  0  0  0  0  0  0  0
  -26.0610  -38.3470   23.9120 H   0  0  0  0  0  0  0  0  0  0  0  0
  -30.4540  -17.3240   19.7410 C   0  0  0  0  0  2  0  0  0  0  0  0
  -30.7440  -14.7910   20.0160 C   0  0  0  0  0  0  0  0  0  0  0  0
  -30.4440  -12.5570   18.9550 C   0  0  0  0  0  2  0  0  0  0  0  0
  -29.4560  -12.6880   17.7760 C   0  0  0  0  0  2  0  0  0  0  0  0
  -28.0080  -12.5120   18.2690 C   0  0  0  0  0  2  0  0  0  0  0  0
  -27.6980  -13.3580   19.5330 C   0  0  0  0  0  3  0  0  0  0  0  0
  -28.8090  -13.2370   20.6010 C   0  0  0  0  0  2  0  0  0  0  0  0
  -30.0800  -13.5860   19.9580 N   0  0  0  0  0  0  0  0  0  0  0  0
  -31.9070  -14.8660   19.6140 O   0  0  0  0  0  0  0  0  0  0  0  0
  -30.0360  -15.9530   20.2670 N   0  0  0  0  0  0  0  0  0  0  0  0
  -29.0810  -15.8540   20.5760 H   0  0  0  0  0  0  0  0  0  0  0  0
  -25.3380  -13.9210   20.3640 C   0  0  0  0  0  0  0  0  0  0  0  0
  -24.2960  -13.1340   20.7730 C   0  0  0  0  0  0  0  0  0  0  0  0
  -24.7700  -11.7880   20.7140 C   0  0  0  0  0  0  0  0  0  0  0  0
  -26.3790  -13.0540   20.0780 N   0  0  0  0  0  0  0  0  0  0  0  0
  -26.0470  -11.7650   20.3520 N   0  0  0  0  0  0  0  0  0  0  0  0
  -24.0630  -10.5180   20.9250 C   0  0  0  0  0  0  0  0  0  0  0  0
  -24.5080   -9.5740   21.8780 C   0  0  0  0  0  3  0  0  0  0  0  0
  -23.7990   -8.3690   22.0760 C   0  0  0  0  0  3  0  0  0  0  0  0
  -22.6320   -8.0990   21.3210 C   0  0  0  0  0  0  0  0  0  0  0  0
  -22.2080   -9.0320   20.3580 C   0  0  0  0  0  3  0  0  0  0  0  0
  -22.9170  -10.2280   20.1590 C   0  0  0  0  0  3  0  0  0  0  0  0
  -21.8940   -6.9440   21.4270 O   0  0  0  0  0  0  0  0  0  0  0  0
  -21.8100   -6.2510   22.6080 C   0  0  0  0  0  0  0  0  0  0  0  0
  -21.2830   -6.8360   23.7800 C   0  0  0  0  0  3  0  0  0  0  0  0
  -21.1500   -6.0660   24.9530 C   0  0  0  0  0  3  0  0  0  0  0  0
  -21.5340   -4.7120   24.9540 C   0  0  0  0  0  0  0  0  0  0  0  0
  -22.0530   -4.1260   23.7860 C   0  0  0  0  0  3  0  0  0  0  0  0
  -22.1870   -4.8930   22.6150 C   0  0  0  0  0  0  0  0  0  0  0  0
  -22.6690   -4.3180   21.4870 F   0  0  0  0  0  0  0  0  0  0  0  0
  -21.3990   -3.9690   26.0780 F   0  0  0  0  0  0  0  0  0  0  0  0
  -22.9070  -13.5970   21.1040 C   0  0  0  0  0  0  0  0  0  0  0  0
  -22.2210  -12.8880   21.9930 N   0  0  0  0  0  0  0  0  0  0  0  0
  -22.4400  -14.6220   20.6100 O   0  0  0  0  0  0  0  0  0  0  0  0
  -22.6110  -12.0590   22.4140 H   0  0  0  0  0  0  0  0  0  0  0  0
  -21.2900  -13.1800   22.2570 H   0  0  0  0  0  0  0  0  0  0  0  0
  -25.4800  -15.2940   20.1870 N   0  0  0  0  0  0  0  0  0  0  0  0
  -24.7080  -15.9360   20.3280 H   0  0  0  0  0  0  0  0  0  0  0  0
  -26.2970  -15.7410   19.7910 H   0  0  0  0  0  0  0  0  0  0  0  0
  2  1  2  0
  3 52  1  0
  3  5  1  0
  5  1  1  0
  5  4  1  0
  6  3  1  0
  6  2  1  0
  7  6  1  0
  8  2  1  0
  8  9  1  0
 10 11  1  0
 10  9  2  0
 12 23  2  0
 13 11  1  0
 13 18  1  0
 14 22  1  0
 14 24  1  0
 15 21  1  0
 15 17  1  0
 16 22  1  0
 17 16  1  0
 18 17  2  0
 19 20  1  0
 19 13  2  0
 20 15  2  0
 21 14  1  0
 22 12  1  0
 24 26  2  0
 25 24  1  0
 27 25  1  0
 28 37  2  0
 28 33  1  0
 29 25  1  0
 29 33  1  0
 30 29  1  0
 31 32  1  0
 31 30  1  0
 32 28  1  0
 33 34  2  0
 34 35  1  0
 36 35  2  0
 37 36  1  0
 38 12  1  0
 38 43  1  0
 38 39  1  0
 39 42  1  1
 39 40  1  0
 41 39  1  0
 43 46  1  0
 44 48  1  0
 44 43  1  0
 45 44  2  0
 48 47  1  0
 50 48  1  0
 50 51  1  0
 50 49  1  0
 52 61  1  0
 53 61  1  0
 54 59  1  0
 55 56  1  0
 55 54  1  0
 57 56  1  0
 57 66  1  0
 57 58  1  0
 59 53  1  0
 59 58  1  0
 60 53  2  0
 61 62  1  0
 63 64  2  0
 64 83  1  0
 65 64  1  0
 65 68  1  0
 66 67  1  0
 66 63  1  0
 67 65  2  0
 68 69  1  0
 69 70  2  0
 71 74  1  0
 71 70  1  0
 72 71  2  0
 73 72  1  0
 73 68  2  0
 74 75  1  0
 75 80  2  0
 75 76  1  0
 76 77  2  0
 77 78  1  0
 78 82  1  0
 79 78  2  0
 80 79  1  0
 81 80  1  0
 83 84  1  0
 84 87  1  0
 84 86  1  0
 85 83  2  0
 88 89  1  0
 88 63  1  0
 90 88  1  0
M  ISO  4  10 101  11 101  53 100  61 100
M  END
>  <TORSDO>  (83) 
F 20

>  <SCORE>  (83) 
-13.099

>  <name>  (83) 
85

>  <ligand_id>  (83) 
85

>  <original_smiles>  (83) 
[H]c1c([H])c([H])c2c(c1[H])C([H])([H])C([H])([H])C([H])([H])C2([H])N([H])C(=O)C1([H])N(C(=O)C([H])(N([H])C(=O)C([H])(N([H])C([H])([H])[H])C([H])([H])[H])C(C([H])([H])[H])(C([H])([H])[H])C([H])([H])[H])C([H])([H])c2c([H])c(OC([H])([H])C([H])([H])C([H])([H])c3c([H])n(C([H])([H])[H])c(C([H])([H])N([H])C(=O)N4C([H])([H])C([H])([H])C([H])([H])C([H])(n5nc(-c6c([H])c([H])c(Oc7c([H])c([H])c(F)c([H])c7F)c([H])c6[H])c(C(=O)N([H])[H])c5N([H])[H])C4([H])[H])[n+]3[H])c([H])c([H])c2C1([H])[H]

>  <smiles>  (83) 
[H]c1c([H])c([H])c2c(c1[H])C([H])([H])C([H])([H])C([H])([H])C2([H])N([H])C(=O)C1([H])N(C(=O)C([H])(N([H])C(=O)C([H])(N([H])C([H])([H])[H])C([H])([H])[H])C(C([H])([H])[H])(C([H])([H])[H])C([H])([H])[H])C([H])([H])c2c([H])c(OC([H])([H])C([H])([H])C([H])([H])c3c([H])n(C([H])([H])[H])c(C([H])([H])N([H])C(=O)N4C([H])([H])C([H])([H])C([H])([H])C([H])(n5nc(-c6c([H])c([H])c(Oc7c([H])c([H])c(F)c([H])c7F)c([H])c6[H])c(C(=O)N([H])[H])c5N([H])[H])C4([H])[H])[n+]3[H])c([H])c([H])c2C1([H])[H]

$$$$
86:0:0
     RDKit          3D

 93101  0  0  1  0  0  0  0  0999 V2000
  -29.6630  -24.5940   17.7230 C   0  0  0  0  0  2  0  0  0  0  0  0
  -29.0810  -24.5000   20.3550 C   0  0  0  0  0  2  0  0  0  0  0  0
  -30.0830  -23.5110   18.5370 C   0  0  0  0  0  0  0  0  0  0  0  0
  -28.7450  -25.6220   19.5590 C   0  0  0  0  0  0  0  0  0  0  0  0
  -29.7580  -23.4350   19.8500 N   0  0  0  0  0  0  0  0  0  0  0  0
  -28.9980  -25.6610   18.2300 N   0  0  0  0  0  0  0  0  0  0  0  0
  -28.4540  -26.8210   20.1550 O   0  0  0  0  0  0  0  0  0  0  0  0
  -24.6060  -31.8700   23.2160 C   0  0  0  0  0  0  0  0  0  0  0  0
  -27.2360  -27.4570   20.1090 C   0  0  0  0  0  0  0  0  0  0  0  0
  -23.3790  -30.4660   21.5840 C   0  0  0  0  0  3  0  0  0  0  0  0
  -24.8200  -28.9220   20.1450 C   0  0  0  0  0  0  0  0  0  0  0  0
  -25.8930  -30.8370   21.3530 C   0  0  0  0  0  2  0  0  0  0  0  0
  -25.9740  -29.4640   20.7210 C   0  0  0  0  0  0  0  0  0  0  0  0
  -27.1770  -28.7330   20.7050 C   0  0  0  0  0  3  0  0  0  0  0  0
  -26.0660  -26.9110   19.5340 C   0  0  0  0  0  3  0  0  0  0  0  0
  -24.8580  -27.6440   19.5530 C   0  0  0  0  0  3  0  0  0  0  0  0
  -23.5720  -29.7750   20.2030 C   0  0  0  0  0  2  0  0  0  0  0  0
  -24.6440  -31.0720   22.1110 N   0  0  0  0  0  0  0  0  0  0  0  0
  -23.5320  -32.1420   23.7700 O   0  0  0  0  0  0  0  0  0  0  0  0
  -22.7400  -29.4480   22.5550 C   0  0  0  0  0  0  0  0  0  0  0  0
  -21.4150  -29.2660   22.4410 N   0  0  0  0  0  0  0  0  0  0  0  0
  -23.4340  -28.8250   23.3630 O   0  0  0  0  0  0  0  0  0  0  0  0
  -20.9170  -29.8250   21.7630 H   0  0  0  0  0  0  0  0  0  0  0  0
  -18.0520  -28.0570   22.9520 C   0  0  0  0  0  0  0  0  0  0  0  0
  -20.6090  -28.3290   23.2210 C   0  0  0  0  0  3  0  0  0  0  0  0
  -20.7180  -26.8950   22.6540 C   0  0  0  0  0  2  0  0  0  0  0  0
  -19.6180  -26.5580   21.6440 C   0  0  0  0  0  2  0  0  0  0  0  0
  -18.2360  -26.7030   22.2880 C   0  0  0  0  0  2  0  0  0  0  0  0
  -19.1670  -28.8260   23.3760 C   0  0  0  0  0  0  0  0  0  0  0  0
  -18.9440  -30.0940   23.9560 C   0  0  0  0  0  3  0  0  0  0  0  0
  -17.6370  -30.5920   24.1190 C   0  0  0  0  0  3  0  0  0  0  0  0
  -16.5360  -29.8190   23.7110 C   0  0  0  0  0  3  0  0  0  0  0  0
  -16.7450  -28.5540   23.1310 C   0  0  0  0  0  3  0  0  0  0  0  0
  -25.9010  -32.5000   23.8190 C   0  0  0  0  0  3  0  0  0  0  0  0
  -25.5950  -33.8920   24.1690 N   0  0  0  0  0  0  0  0  0  0  0  0
  -25.9110  -34.9540   23.4170 C   0  0  0  0  0  0  0  0  0  0  0  0
  -26.5660  -34.8640   22.3730 O   0  0  0  0  0  0  0  0  0  0  0  0
  -25.0120  -34.0360   24.9820 H   0  0  0  0  0  0  0  0  0  0  0  0
  -24.1700  -36.7420   23.1070 C   0  0  0  0  0  1  0  0  0  0  0  0
  -25.4250  -36.3350   23.8950 C   0  0  0  0  0  3  0  0  0  0  0  0
  -27.5720  -37.2210   24.6960 C   0  0  0  0  0  1  0  0  0  0  0  0
  -26.4490  -37.3940   23.7760 N   0  0  0  0  0  0  0  0  0  0  0  0
  -26.0410  -38.3090   23.9440 H   0  0  0  0  0  0  0  0  0  0  0  0
  -26.4490  -31.7150   25.0730 C   0  0  1  0  0  0  0  0  0  0  0  0
  -25.3820  -31.4610   26.1630 C   0  0  0  0  0  1  0  0  0  0  0  0
  -27.0270  -30.3440   24.6510 C   0  0  0  0  0  1  0  0  0  0  0  0
  -27.6100  -32.5040   25.7250 C   0  0  0  0  0  1  0  0  0  0  0  0
  -31.0950  -22.5040   18.0090 C   0  0  0  0  0  2  0  0  0  0  0  0
  -30.6740  -21.0190   18.0270 C   0  0  0  0  0  2  0  0  0  0  0  0
  -31.8470  -20.4130   20.1460 C   0  0  0  0  0  1  0  0  0  0  0  0
  -30.5880  -20.3460   19.3610 N   0  0  2  0  0  4  0  0  0  0  0  0
  -29.8960  -20.8520   19.8990 H   0  0  0  0  0  0  0  0  0  0  0  0
  -30.0740  -18.9560   19.1640 C   0  0  0  0  0  2  0  0  0  0  0  0
  -30.2120  -17.9460   20.3340 C   0  0  0  0  0  2  0  0  0  0  0  0
  -29.6060  -16.5980   19.8930 C   0  0  0  0  0  2  0  0  0  0  0  0
  -30.6190  -14.4410   20.4620 C   0  0  0  0  0  0  0  0  0  0  0  0
  -30.3410  -12.2860   19.3300 C   0  0  0  0  0  2  0  0  0  0  0  0
  -29.3950  -12.5230   18.1310 C   0  0  0  0  0  2  0  0  0  0  0  0
  -27.9200  -12.3990   18.5590 C   0  0  0  0  0  2  0  0  0  0  0  0
  -27.5930  -13.2190   19.8360 C   0  0  0  0  0  3  0  0  0  0  0  0
  -28.6470  -12.9580   20.9400 C   0  0  0  0  0  2  0  0  0  0  0  0
  -29.9800  -13.2470   20.3820 N   0  0  0  0  0  0  0  0  0  0  0  0
  -31.7430  -14.6520   19.9970 O   0  0  0  0  0  0  0  0  0  0  0  0
  -29.8070  -15.4580   20.7930 N   0  0  0  0  0  0  0  0  0  0  0  0
  -28.9730  -15.1560   21.2760 H   0  0  0  0  0  0  0  0  0  0  0  0
  -25.1980  -13.8500   20.5380 C   0  0  0  0  0  0  0  0  0  0  0  0
  -24.1220  -13.0860   20.9020 C   0  0  0  0  0  0  0  0  0  0  0  0
  -24.5710  -11.7300   20.8620 C   0  0  0  0  0  0  0  0  0  0  0  0
  -26.2360  -12.9600   20.3070 N   0  0  0  0  0  0  0  0  0  0  0  0
  -25.8610  -11.6800   20.5560 N   0  0  0  0  0  0  0  0  0  0  0  0
  -23.8350  -10.4730   21.0460 C   0  0  0  0  0  0  0  0  0  0  0  0
  -24.2850   -9.4810   21.9460 C   0  0  0  0  0  3  0  0  0  0  0  0
  -23.5520   -8.2870   22.1170 C   0  0  0  0  0  3  0  0  0  0  0  0
  -22.3560   -8.0780   21.3900 C   0  0  0  0  0  0  0  0  0  0  0  0
  -21.9260   -9.0600   20.4780 C   0  0  0  0  0  3  0  0  0  0  0  0
  -22.6590  -10.2460   20.3050 C   0  0  0  0  0  3  0  0  0  0  0  0
  -21.5910   -6.9400   21.4740 O   0  0  0  0  0  0  0  0  0  0  0  0
  -21.5910   -6.1550   22.5980 C   0  0  0  0  0  0  0  0  0  0  0  0
  -21.2580   -6.6730   23.8680 C   0  0  0  0  0  3  0  0  0  0  0  0
  -21.2020   -5.8160   24.9850 C   0  0  0  0  0  3  0  0  0  0  0  0
  -21.4670   -4.4410   24.8340 C   0  0  0  0  0  0  0  0  0  0  0  0
  -21.7930   -3.9230   23.5680 C   0  0  0  0  0  3  0  0  0  0  0  0
  -21.8520   -4.7770   22.4530 C   0  0  0  0  0  0  0  0  0  0  0  0
  -22.1450   -4.2690   21.2320 F   0  0  0  0  0  0  0  0  0  0  0  0
  -21.4060   -3.6160   25.9050 F   0  0  0  0  0  0  0  0  0  0  0  0
  -22.7290  -13.5710   21.1830 C   0  0  0  0  0  0  0  0  0  0  0  0
  -22.0030  -12.8740   22.0490 N   0  0  0  0  0  0  0  0  0  0  0  0
  -22.2950  -14.6030   20.6690 O   0  0  0  0  0  0  0  0  0  0  0  0
  -22.3670  -12.0400   22.4830 H   0  0  0  0  0  0  0  0  0  0  0  0
  -21.0680  -13.1790   22.2810 H   0  0  0  0  0  0  0  0  0  0  0  0
  -25.3750  -15.2210   20.3650 N   0  0  0  0  0  0  0  0  0  0  0  0
  -24.6170  -15.8860   20.4780 H   0  0  0  0  0  0  0  0  0  0  0  0
  -26.2250  -15.6500   20.0270 H   0  0  0  0  0  0  0  0  0  0  0  0
  1  6  1  0
  1  3  1  0
  3  5  2  0
  4  7  1  0
  4  2  1  0
  5  2  1  0
  6  4  2  0
  8 19  2  0
  9  7  1  0
  9 14  1  0
 10 18  1  0
 10 20  1  0
 11 17  1  0
 11 13  1  0
 12 18  1  0
 13 12  1  0
 14 13  2  0
 15 16  1  0
 15  9  2  0
 16 11  2  0
 17 10  1  0
 18  8  1  0
 20 22  2  0
 21 20  1  0
 23 21  1  0
 24 33  2  0
 24 29  1  0
 25 21  1  0
 25 29  1  0
 26 25  1  0
 27 28  1  0
 27 26  1  0
 28 24  1  0
 29 30  2  0
 30 31  1  0
 32 31  2  0
 33 32  1  0
 34  8  1  0
 34 35  1  0
 34 44  1  0
 35 38  1  0
 36 40  1  0
 36 35  1  0
 37 36  2  0
 40 39  1  0
 42 40  1  0
 42 43  1  0
 42 41  1  0
 44 47  1  1
 44 45  1  0
 46 44  1  0
 48 49  1  0
 48  3  1  0
 49 51  1  0
 51 52  1  1
 51 50  1  0
 53 51  1  0
 53 54  1  0
 55 54  1  0
 55 64  1  0
 56 64  1  0
 57 62  1  0
 58 59  1  0
 58 57  1  0
 60 59  1  0
 60 69  1  0
 60 61  1  0
 62 56  1  0
 62 61  1  0
 63 56  2  0
 64 65  1  0
 66 67  2  0
 67 86  1  0
 68 67  1  0
 68 71  1  0
 69 66  1  0
 69 70  1  0
 70 68  2  0
 71 72  1  0
 72 73  2  0
 74 77  1  0
 74 73  1  0
 75 74  2  0
 76 75  1  0
 76 71  2  0
 77 78  1  0
 78 79  1  0
 79 80  2  0
 81 80  1  0
 81 85  1  0
 82 81  2  0
 83 78  2  0
 83 82  1  0
 84 83  1  0
 86 87  1  0
 87 90  1  0
 87 89  1  0
 88 86  2  0
 91 92  1  0
 91 66  1  0
 93 91  1  0
M  ISO  4   4 101   7 101  56 100  64 100
M  END
>  <TORSDO>  (84) 
F 22

>  <SCORE>  (84) 
-12.936

>  <name>  (84) 
86

>  <ligand_id>  (84) 
86

>  <original_smiles>  (84) 
[H]c1nc(C([H])([H])C([H])([H])[N+]([H])(C([H])([H])[H])C([H])([H])C([H])([H])C([H])([H])N([H])C(=O)N2C([H])([H])C([H])([H])C([H])([H])C([H])(n3nc(-c4c([H])c([H])c(Oc5c([H])c([H])c(F)c([H])c5F)c([H])c4[H])c(C(=O)N([H])[H])c3N([H])[H])C2([H])[H])c([H])nc1Oc1c([H])c([H])c2c(c1[H])C([H])([H])N(C(=O)C([H])(N([H])C(=O)C([H])(N([H])C([H])([H])[H])C([H])([H])[H])C(C([H])([H])[H])(C([H])([H])[H])C([H])([H])[H])C([H])(C(=O)N([H])C1([H])c3c([H])c([H])c([H])c([H])c3C([H])([H])C([H])([H])C1([H])[H])C2([H])[H]

>  <smiles>  (84) 
[H]c1nc(C([H])([H])C([H])([H])[N+]([H])(C([H])([H])[H])C([H])([H])C([H])([H])C([H])([H])N([H])C(=O)N2C([H])([H])C([H])([H])C([H])([H])C([H])(n3nc(-c4c([H])c([H])c(Oc5c([H])c([H])c(F)c([H])c5F)c([H])c4[H])c(C(=O)N([H])[H])c3N([H])[H])C2([H])[H])c([H])nc1Oc1c([H])c([H])c2c(c1[H])C([H])([H])N(C(=O)C([H])(N([H])C(=O)C([H])(N([H])C([H])([H])[H])C([H])([H])[H])C(C([H])([H])[H])(C([H])([H])[H])C([H])([H])[H])C([H])(C(=O)N([H])C1([H])c3c([H])c([H])c([H])c([H])c3C([H])([H])C([H])([H])C1([H])[H])C2([H])[H]

$$$$
87:0:0
     RDKit          3D

 88 96  0  0  1  0  0  0  0  0999 V2000
  -29.2550  -19.8980   21.4310 C   0  0  0  0  0  3  0  0  0  0  0  0
  -29.6550  -20.0000   19.1560 C   0  0  0  0  0  3  0  0  0  0  0  0
  -29.6580  -19.1340   20.2940 C   0  0  0  0  0  0  0  0  0  0  0  0
  -29.0630  -22.0060   20.3030 C   0  0  0  0  0  0  0  0  0  0  0  0
  -28.9790  -21.2600   21.4270 N   0  0  0  0  0  0  0  0  0  0  0  0
  -29.3800  -21.3590   19.1650 N   0  0  0  0  0  0  0  0  0  0  0  0
  -30.3920  -17.6550   20.3080 C   0  0  0  0  0  2  0  0  0  0  0  0
  -30.5640  -14.9870   20.2650 C   0  0  0  0  0  0  0  0  0  0  0  0
  -30.3670  -12.6700   19.2920 C   0  0  0  0  0  2  0  0  0  0  0  0
  -29.4100  -12.6740   18.0790 C   0  0  0  0  0  2  0  0  0  0  0  0
  -27.9540  -12.4760   18.5400 C   0  0  0  0  0  2  0  0  0  0  0  0
  -27.5840  -13.3830   19.7450 C   0  0  0  0  0  3  0  0  0  0  0  0
  -28.6640  -13.3650   20.8470 C   0  0  0  0  0  2  0  0  0  0  0  0
  -29.9290  -13.7530   20.2140 N   0  0  0  0  0  0  0  0  0  0  0  0
  -31.7590  -15.0270   19.9570 O   0  0  0  0  0  0  0  0  0  0  0  0
  -29.8440  -16.1930   20.4420 N   0  0  0  0  0  0  0  0  0  0  0  0
  -28.8610  -16.0860   20.6400 H   0  0  0  0  0  0  0  0  0  0  0  0
  -25.2220  -13.9560   20.5500 C   0  0  0  0  0  0  0  0  0  0  0  0
  -24.1650  -13.1770   20.9280 C   0  0  0  0  0  0  0  0  0  0  0  0
  -24.6240  -11.8260   20.8600 C   0  0  0  0  0  0  0  0  0  0  0  0
  -26.2570  -13.0800   20.2680 N   0  0  0  0  0  0  0  0  0  0  0  0
  -25.9060  -11.7920   20.5200 N   0  0  0  0  0  0  0  0  0  0  0  0
  -23.8960  -10.5620   21.0390 C   0  0  0  0  0  0  0  0  0  0  0  0
  -24.3230   -9.5890   21.9680 C   0  0  0  0  0  3  0  0  0  0  0  0
  -23.5950   -8.3910   22.1370 C   0  0  0  0  0  3  0  0  0  0  0  0
  -22.4250   -8.1590   21.3760 C   0  0  0  0  0  0  0  0  0  0  0  0
  -22.0160   -9.1200   20.4360 C   0  0  0  0  0  3  0  0  0  0  0  0
  -22.7470  -10.3090   20.2650 C   0  0  0  0  0  3  0  0  0  0  0  0
  -21.6680   -7.0150   21.4540 O   0  0  0  0  0  0  0  0  0  0  0  0
  -21.5870   -6.2820   22.6110 C   0  0  0  0  0  0  0  0  0  0  0  0
  -21.0860   -6.8370   23.8100 C   0  0  0  0  0  3  0  0  0  0  0  0
  -20.9550   -6.0290   24.9580 C   0  0  0  0  0  3  0  0  0  0  0  0
  -21.3170   -4.6690   24.9090 C   0  0  0  0  0  0  0  0  0  0  0  0
  -21.8110   -4.1150   23.7150 C   0  0  0  0  0  3  0  0  0  0  0  0
  -21.9430   -4.9190   22.5690 C   0  0  0  0  0  0  0  0  0  0  0  0
  -22.4010   -4.3750   21.4160 F   0  0  0  0  0  0  0  0  0  0  0  0
  -21.1840   -3.8920   26.0090 F   0  0  0  0  0  0  0  0  0  0  0  0
  -22.7750  -13.6530   21.2390 C   0  0  0  0  0  0  0  0  0  0  0  0
  -22.0650  -12.9450   22.1080 N   0  0  0  0  0  0  0  0  0  0  0  0
  -22.3300  -14.6890   20.7450 O   0  0  0  0  0  0  0  0  0  0  0  0
  -22.4390  -12.1060   22.5290 H   0  0  0  0  0  0  0  0  0  0  0  0
  -21.1330  -13.2450   22.3600 H   0  0  0  0  0  0  0  0  0  0  0  0
  -25.3860  -15.3300   20.3960 N   0  0  0  0  0  0  0  0  0  0  0  0
  -24.6200  -15.9810   20.5330 H   0  0  0  0  0  0  0  0  0  0  0  0
  -26.2190  -15.7730   20.0280 H   0  0  0  0  0  0  0  0  0  0  0  0
  -29.1750  -23.6460   20.3940 C   0  0  0  0  0  3  0  0  0  0  0  0
  -28.0460  -24.8140   20.0410 C   0  0  0  0  0  3  0  0  0  0  0  0
  -28.2820  -26.3320   20.2220 O   0  0  0  0  0  0  0  0  0  0  0  0
  -24.6440  -31.9280   23.2630 C   0  0  0  0  0  0  0  0  0  0  0  0
  -27.2070  -27.2800   20.1690 C   0  0  0  0  0  0  0  0  0  0  0  0
  -23.4310  -30.5480   21.6190 C   0  0  0  0  0  3  0  0  0  0  0  0
  -24.8690  -28.9930   20.1690 C   0  0  0  0  0  0  0  0  0  0  0  0
  -25.9800  -30.8290   21.4340 C   0  0  0  0  0  2  0  0  0  0  0  0
  -26.0510  -29.4470   20.7690 C   0  0  0  0  0  0  0  0  0  0  0  0
  -27.2220  -28.6060   20.7510 C   0  0  0  0  0  3  0  0  0  0  0  0
  -25.9990  -26.9160   19.5330 C   0  0  0  0  0  3  0  0  0  0  0  0
  -24.8540  -27.7400   19.5360 C   0  0  0  0  0  3  0  0  0  0  0  0
  -23.6400  -29.8830   20.2330 C   0  0  0  0  0  2  0  0  0  0  0  0
  -24.7050  -31.1210   22.1610 N   0  0  0  0  0  0  0  0  0  0  0  0
  -23.5620  -32.2050   23.8030 O   0  0  0  0  0  0  0  0  0  0  0  0
  -22.7640  -29.5290   22.5770 C   0  0  0  0  0  0  0  0  0  0  0  0
  -21.4390  -29.3420   22.4440 N   0  0  0  0  0  0  0  0  0  0  0  0
  -23.4410  -28.9080   23.4020 O   0  0  0  0  0  0  0  0  0  0  0  0
  -20.9490  -29.8950   21.7540 H   0  0  0  0  0  0  0  0  0  0  0  0
  -18.0680  -28.1130   22.9360 C   0  0  0  0  0  0  0  0  0  0  0  0
  -20.6240  -28.3950   23.2090 C   0  0  0  0  0  3  0  0  0  0  0  0
  -20.7380  -26.9660   22.6300 C   0  0  0  0  0  2  0  0  0  0  0  0
  -19.6410  -26.6380   21.6120 C   0  0  0  0  0  2  0  0  0  0  0  0
  -18.2570  -26.7680   22.2540 C   0  0  0  0  0  2  0  0  0  0  0  0
  -19.1800  -28.8840   23.3700 C   0  0  0  0  0  0  0  0  0  0  0  0
  -18.9480  -30.1410   23.9690 C   0  0  0  0  0  3  0  0  0  0  0  0
  -17.6380  -30.6290   24.1360 C   0  0  0  0  0  3  0  0  0  0  0  0
  -16.5420  -29.8560   23.7170 C   0  0  0  0  0  3  0  0  0  0  0  0
  -16.7570  -28.5990   23.1230 C   0  0  0  0  0  3  0  0  0  0  0  0
  -25.9280  -32.5570   23.8860 C   0  0  0  0  0  3  0  0  0  0  0  0
  -26.4440  -31.7800   25.1610 C   0  0  1  0  0  0  0  0  0  0  0  0
  -25.3500  -31.5380   26.2280 C   0  0  0  0  0  1  0  0  0  0  0  0
  -27.0280  -30.4050   24.7670 C   0  0  0  0  0  1  0  0  0  0  0  0
  -27.5930  -32.5730   25.8270 C   0  0  0  0  0  1  0  0  0  0  0  0
  -25.6190  -33.9550   24.2280 N   0  0  0  0  0  0  0  0  0  0  0  0
  -25.9210  -35.0120   23.4630 C   0  0  0  0  0  0  0  0  0  0  0  0
  -26.5550  -34.9140   22.4080 O   0  0  0  0  0  0  0  0  0  0  0  0
  -25.0520  -34.1030   25.0500 H   0  0  0  0  0  0  0  0  0  0  0  0
  -24.1640  -36.7930   23.1900 C   0  0  0  0  0  1  0  0  0  0  0  0
  -25.4450  -36.3980   23.9400 C   0  0  0  0  0  3  0  0  0  0  0  0
  -27.6050  -37.3090   24.6770 C   0  0  0  0  0  1  0  0  0  0  0  0
  -26.4640  -37.4590   23.7780 N   0  0  0  0  0  0  0  0  0  0  0  0
  -26.0560  -38.3770   23.9340 H   0  0  0  0  0  0  0  0  0  0  0  0
  2  6  2  0
  2  3  1  0
  3  7  1  0
  3  1  2  0
  4 46  1  0
  4  5  2  0
  5  1  1  0
  6  4  1  0
  7 16  1  0
  8 16  1  0
  9 14  1  0
 10 11  1  0
 10  9  1  0
 12 11  1  0
 12 21  1  0
 12 13  1  0
 14  8  1  0
 14 13  1  0
 15  8  2  0
 16 17  1  0
 18 19  2  0
 19 38  1  0
 20 19  1  0
 20 23  1  0
 21 22  1  0
 21 18  1  0
 22 20  2  0
 23 24  1  0
 24 25  2  0
 26 29  1  0
 26 25  1  0
 27 26  2  0
 28 27  1  0
 28 23  2  0
 29 30  1  0
 30 31  1  0
 31 32  2  0
 33 32  1  0
 33 37  1  0
 34 33  2  0
 35 30  2  0
 35 34  1  0
 36 35  1  0
 38 39  1  0
 39 42  1  0
 39 41  1  0
 40 38  2  0
 43 44  1  0
 43 18  1  0
 45 43  1  0
 47 48  1  0
 47 46  2  0
 49 60  2  0
 50 48  1  0
 50 55  1  0
 51 59  1  0
 51 61  1  0
 52 58  1  0
 52 54  1  0
 53 59  1  0
 54 53  1  0
 55 54  2  0
 56 57  1  0
 56 50  2  0
 57 52  2  0
 58 51  1  0
 59 49  1  0
 61 63  2  0
 62 61  1  0
 64 62  1  0
 65 74  2  0
 65 70  1  0
 66 62  1  0
 66 70  1  0
 67 66  1  0
 68 69  1  0
 68 67  1  0
 69 65  1  0
 70 71  2  0
 71 72  1  0
 73 72  2  0
 74 73  1  0
 75 49  1  0
 75 80  1  0
 75 76  1  0
 76 79  1  1
 76 77  1  0
 78 76  1  0
 80 83  1  0
 81 85  1  0
 81 80  1  0
 82 81  2  0
 85 84  1  0
 87 88  1  0
 87 85  1  0
 87 86  1  0
M  ISO  4   8 100  16 100  47 101  48 101
M  END
>  <TORSDO>  (85) 
F 19

>  <SCORE>  (85) 
-13.790

>  <name>  (85) 
87

>  <ligand_id>  (85) 
87

>  <original_smiles>  (85) 
[H]c1nc(C([H])([H])C([H])([H])Oc2c([H])c([H])c3c(c2[H])C([H])([H])N(C(=O)C([H])(N([H])C(=O)C([H])(N([H])C([H])([H])[H])C([H])([H])[H])C(C([H])([H])[H])(C([H])([H])[H])C([H])([H])[H])C([H])(C(=O)N([H])C2([H])c4c([H])c([H])c([H])c([H])c4C([H])([H])C([H])([H])C2([H])[H])C3([H])[H])nc([H])c1C([H])([H])N([H])C(=O)N1C([H])([H])C([H])([H])C([H])([H])C([H])(n2nc(-c3c([H])c([H])c(Oc4c([H])c([H])c(F)c([H])c4F)c([H])c3[H])c(C(=O)N([H])[H])c2N([H])[H])C1([H])[H]

>  <smiles>  (85) 
[H]c1nc(C([H])([H])C([H])([H])Oc2c([H])c([H])c3c(c2[H])C([H])([H])N(C(=O)C([H])(N([H])C(=O)C([H])(N([H])C([H])([H])[H])C([H])([H])[H])C(C([H])([H])[H])(C([H])([H])[H])C([H])([H])[H])C([H])(C(=O)N([H])C2([H])c4c([H])c([H])c([H])c([H])c4C([H])([H])C([H])([H])C2([H])[H])C3([H])[H])nc([H])c1C([H])([H])N([H])C(=O)N1C([H])([H])C([H])([H])C([H])([H])C([H])(n2nc(-c3c([H])c([H])c(Oc4c([H])c([H])c(F)c([H])c4F)c([H])c3[H])c(C(=O)N([H])[H])c2N([H])[H])C1([H])[H]

$$$$
88:0:0
     RDKit          3D

 94102  0  0  1  0  0  0  0  0999 V2000
  -26.1290  -22.1310   20.8650 C   0  0  0  0  0  1  0  0  0  0  0  0
  -27.4660  -22.1300   20.0870 C   0  0  0  0  0  3  0  0  0  0  0  0
  -28.1790  -24.5760   20.0810 C   0  0  0  0  0  3  0  0  0  0  0  0
  -27.9460  -25.5760   19.1810 C   0  0  0  0  0  0  0  0  0  0  0  0
  -27.2810  -25.0250   18.0820 N   0  0  0  0  0  0  0  0  0  0  0  0
  -27.0750  -23.7610   18.2910 N   0  0  0  0  0  0  0  0  0  0  0  0
  -27.6270  -23.4540   19.4920 N   0  0  0  0  0  0  0  0  0  0  0  0
  -28.3210  -27.0340   19.2650 C   0  0  0  0  0  2  0  0  0  0  0  0
  -27.6170  -27.8300   18.3140 O   0  0  0  0  0  0  0  0  0  0  0  0
  -24.7890  -31.8540   23.4680 C   0  0  0  0  0  0  0  0  0  0  0  0
  -26.5220  -28.4890   18.8100 C   0  0  0  0  0  0  0  0  0  0  0  0
  -23.2030  -30.9830   21.7770 C   0  0  0  0  0  3  0  0  0  0  0  0
  -24.2610  -29.9040   19.7220 C   0  0  0  0  0  0  0  0  0  0  0  0
  -25.6550  -31.3820   21.1810 C   0  0  0  0  0  2  0  0  0  0  0  0
  -25.5360  -30.2440   20.1910 C   0  0  0  0  0  0  0  0  0  0  0  0
  -26.6720  -29.5390   19.7410 C   0  0  0  0  0  3  0  0  0  0  0  0
  -25.2370  -28.1510   18.3420 C   0  0  0  0  0  3  0  0  0  0  0  0
  -24.1030  -28.8510   18.8010 C   0  0  0  0  0  3  0  0  0  0  0  0
  -23.1020  -30.7180   20.2510 C   0  0  0  0  0  2  0  0  0  0  0  0
  -24.5790  -31.4030   22.1990 N   0  0  0  0  0  0  0  0  0  0  0  0
  -23.8530  -31.9650   24.2700 O   0  0  0  0  0  0  0  0  0  0  0  0
  -22.6890  -29.7340   22.5280 C   0  0  0  0  0  0  0  0  0  0  0  0
  -21.3800  -29.4610   22.4050 N   0  0  0  0  0  0  0  0  0  0  0  0
  -23.4610  -29.0220   23.1760 O   0  0  0  0  0  0  0  0  0  0  0  0
  -20.8130  -30.0970   21.8630 H   0  0  0  0  0  0  0  0  0  0  0  0
  -18.2280  -27.6990   22.4640 C   0  0  0  0  0  0  0  0  0  0  0  0
  -20.6830  -28.3160   22.9890 C   0  0  0  0  0  3  0  0  0  0  0  0
  -21.0610  -27.0050   22.2640 C   0  0  0  0  0  2  0  0  0  0  0  0
  -20.1000  -26.6450   21.1270 C   0  0  0  0  0  2  0  0  0  0  0  0
  -18.6720  -26.4900   21.6590 C   0  0  0  0  0  2  0  0  0  0  0  0
  -19.1720  -28.5650   23.0760 C   0  0  0  0  0  0  0  0  0  0  0  0
  -18.7070  -29.6950   23.7820 C   0  0  0  0  0  3  0  0  0  0  0  0
  -17.3270  -29.9620   23.8850 C   0  0  0  0  0  3  0  0  0  0  0  0
  -16.3980  -29.0920   23.2910 C   0  0  0  0  0  3  0  0  0  0  0  0
  -16.8480  -27.9610   22.5850 C   0  0  0  0  0  3  0  0  0  0  0  0
  -26.2090  -32.2750   23.9630 C   0  0  0  0  0  3  0  0  0  0  0  0
  -26.0930  -33.6160   24.5510 N   0  0  0  0  0  0  0  0  0  0  0  0
  -26.4870  -34.7460   23.9470 C   0  0  0  0  0  0  0  0  0  0  0  0
  -27.0590  -34.7570   22.8530 O   0  0  0  0  0  0  0  0  0  0  0  0
  -25.5850  -33.6870   25.4190 H   0  0  0  0  0  0  0  0  0  0  0  0
  -24.9800  -36.7570   24.0340 C   0  0  0  0  0  1  0  0  0  0  0  0
  -26.1990  -36.0730   24.6730 C   0  0  0  0  0  3  0  0  0  0  0  0
  -28.4660  -36.5440   25.4910 C   0  0  0  0  0  1  0  0  0  0  0  0
  -27.3480  -37.0060   24.6720 N   0  0  0  0  0  0  0  0  0  0  0  0
  -27.0680  -37.9240   25.0060 H   0  0  0  0  0  0  0  0  0  0  0  0
  -26.8320  -31.2610   25.0000 C   0  0  1  0  0  0  0  0  0  0  0  0
  -25.8950  -30.9310   26.1860 C   0  0  0  0  0  1  0  0  0  0  0  0
  -27.2000  -29.9290   24.3040 C   0  0  0  0  0  1  0  0  0  0  0  0
  -28.1450  -31.8390   25.5770 C   0  0  0  0  0  1  0  0  0  0  0  0
  -27.5750  -20.9550   19.0590 C   0  0  0  0  0  2  0  0  0  0  0  0
  -26.9390  -18.9840   20.4950 C   0  0  0  0  0  1  0  0  0  0  0  0
  -27.9660  -19.6200   19.6270 N   0  0  1  0  0  4  0  0  0  0  0  0
  -28.7510  -19.7850   20.2390 H   0  0  0  0  0  0  0  0  0  0  0  0
  -28.4130  -18.6430   18.5910 C   0  0  0  0  0  2  0  0  0  0  0  0
  -29.9360  -18.3760   18.5030 C   0  0  0  0  0  2  0  0  0  0  0  0
  -30.2210  -16.9180   18.9350 C   0  0  0  0  0  2  0  0  0  0  0  0
  -32.2420  -15.3840   19.2100 C   0  0  0  0  0  0  0  0  0  0  0  0
  -32.2950  -13.0210   19.9410 C   0  0  0  0  0  2  0  0  0  0  0  0
  -31.5080  -12.1200   18.9680 C   0  0  0  0  0  2  0  0  0  0  0  0
  -30.0130  -12.0760   19.3450 C   0  0  0  0  0  2  0  0  0  0  0  0
  -29.4270  -13.4920   19.5730 C   0  0  0  0  0  3  0  0  0  0  0  0
  -30.3420  -14.2920   20.5310 C   0  0  0  0  0  2  0  0  0  0  0  0
  -31.6830  -14.3640   19.9290 N   0  0  0  0  0  0  0  0  0  0  0  0
  -33.3530  -15.2790   18.6850 O   0  0  0  0  0  0  0  0  0  0  0  0
  -31.6340  -16.5890   19.1510 N   0  0  0  0  0  0  0  0  0  0  0  0
  -32.2660  -17.3050   18.8190 H   0  0  0  0  0  0  0  0  0  0  0  0
  -27.1660  -14.4780   20.3110 C   0  0  0  0  0  0  0  0  0  0  0  0
  -25.9900  -13.8830   20.6820 C   0  0  0  0  0  0  0  0  0  0  0  0
  -26.2260  -12.4760   20.6250 C   0  0  0  0  0  0  0  0  0  0  0  0
  -28.0510  -13.4410   20.0570 N   0  0  0  0  0  0  0  0  0  0  0  0
  -27.4880  -12.2310   20.3020 N   0  0  0  0  0  0  0  0  0  0  0  0
  -25.3100  -11.3450   20.8030 C   0  0  0  0  0  0  0  0  0  0  0  0
  -25.5260  -10.3730   21.8040 C   0  0  0  0  0  3  0  0  0  0  0  0
  -24.6220   -9.3030   21.9690 C   0  0  0  0  0  3  0  0  0  0  0  0
  -23.4850   -9.1990   21.1320 C   0  0  0  0  0  0  0  0  0  0  0  0
  -23.2870  -10.1570   20.1220 C   0  0  0  0  0  3  0  0  0  0  0  0
  -24.1940  -11.2180   19.9530 C   0  0  0  0  0  3  0  0  0  0  0  0
  -22.5650   -8.1800   21.2020 O   0  0  0  0  0  0  0  0  0  0  0  0
  -22.2540   -7.5740   22.3920 C   0  0  0  0  0  0  0  0  0  0  0  0
  -21.7310   -8.3000   23.4850 C   0  0  0  0  0  3  0  0  0  0  0  0
  -21.3570   -7.6240   24.6640 C   0  0  0  0  0  3  0  0  0  0  0  0
  -21.4950   -6.2270   24.7500 C   0  0  0  0  0  0  0  0  0  0  0  0
  -22.0110   -5.5020   23.6620 C   0  0  0  0  0  3  0  0  0  0  0  0
  -22.3860   -6.1740   22.4850 C   0  0  0  0  0  0  0  0  0  0  0  0
  -22.8620   -5.4670   21.4310 F   0  0  0  0  0  0  0  0  0  0  0  0
  -21.1300   -5.5770   25.8800 F   0  0  0  0  0  0  0  0  0  0  0  0
  -24.6870  -14.5750   20.9650 C   0  0  0  0  0  0  0  0  0  0  0  0
  -23.8710  -14.0010   21.8410 N   0  0  0  0  0  0  0  0  0  0  0  0
  -24.4060  -15.6510   20.4420 O   0  0  0  0  0  0  0  0  0  0  0  0
  -22.9820  -14.4300   22.0600 H   0  0  0  0  0  0  0  0  0  0  0  0
  -24.1150  -13.1290   22.2860 H   0  0  0  0  0  0  0  0  0  0  0  0
  -27.5450  -15.8070   20.1430 N   0  0  0  0  0  0  0  0  0  0  0  0
  -26.8460  -16.5400   20.1720 H   0  0  0  0  0  0  0  0  0  0  0  0
  -28.3830  -16.0790   19.6460 H   0  0  0  0  0  0  0  0  0  0  0  0
  2  1  1  0
  4  8  1  0
  4  3  2  0
  5  6  2  0
  5  4  1  0
  6  7  1  0
  7  3  1  0
  7  2  1  0
  9 11  1  0
  9  8  1  0
 10 21  2  0
 11 16  1  0
 12 20  1  0
 12 22  1  0
 13 15  1  0
 13 19  1  0
 14 20  1  0
 15 14  1  0
 16 15  2  0
 17 18  1  0
 17 11  2  0
 18 13  2  0
 19 12  1  0
 20 10  1  0
 22 24  2  0
 23 22  1  0
 25 23  1  0
 26 35  2  0
 26 31  1  0
 27 23  1  0
 27 31  1  0
 28 27  1  0
 29 30  1  0
 29 28  1  0
 30 26  1  0
 31 32  2  0
 32 33  1  0
 34 33  2  0
 35 34  1  0
 36 10  1  0
 36 37  1  0
 36 46  1  0
 37 40  1  0
 38 37  1  0
 38 42  1  0
 39 38  2  0
 42 41  1  0
 44 42  1  0
 44 45  1  0
 44 43  1  0
 46 49  1  1
 46 47  1  0
 48 46  1  0
 50 52  1  0
 50  2  1  0
 52 53  1  1
 52 51  1  0
 54 52  1  0
 55 54  1  0
 55 56  1  0
 56 65  1  0
 57 63  1  0
 59 60  1  0
 59 58  1  0
 61 60  1  0
 61 70  1  0
 61 62  1  0
 63 58  1  0
 63 62  1  0
 64 57  2  0
 65 57  1  0
 66 65  1  0
 67 68  2  0
 68 87  1  0
 69 68  1  0
 69 72  1  0
 70 71  1  0
 70 67  1  0
 71 69  2  0
 72 73  1  0
 73 74  2  0
 75 78  1  0
 75 74  1  0
 76 75  2  0
 77 76  1  0
 77 72  2  0
 78 79  1  0
 79 84  2  0
 79 80  1  0
 80 81  2  0
 81 82  1  0
 82 86  1  0
 83 82  2  0
 84 83  1  0
 85 84  1  0
 87 88  1  0
 88 90  1  0
 88 91  1  0
 89 87  2  0
 92 93  1  0
 92 67  1  0
 94 92  1  0
M  ISO  4   8 101   9 101  57 100  65 100
M  END
>  <TORSDO>  (86) 
F 23

>  <SCORE>  (86) 
-7.098

>  <name>  (86) 
88

>  <ligand_id>  (86) 
88

>  <original_smiles>  (86) 
[H]c1c([H])c([H])c2c(c1[H])C([H])([H])C([H])([H])C([H])([H])C2([H])N([H])C(=O)C1([H])N(C(=O)C([H])(N([H])C(=O)C([H])(N([H])C([H])([H])[H])C([H])([H])[H])C(C([H])([H])[H])(C([H])([H])[H])C([H])([H])[H])C([H])([H])c2c([H])c(OC([H])([H])c3nnn(C([H])(C([H])([H])[H])C([H])([H])[N+]([H])(C([H])([H])[H])C([H])([H])C([H])([H])C([H])([H])N([H])C(=O)N4C([H])([H])C([H])([H])C([H])([H])C([H])(n5nc(-c6c([H])c([H])c(Oc7c([H])c([H])c(F)c([H])c7F)c([H])c6[H])c(C(=O)N([H])[H])c5N([H])[H])C4([H])[H])c3[H])c([H])c([H])c2C1([H])[H]

>  <smiles>  (86) 
[H]c1c([H])c([H])c2c(c1[H])C([H])([H])C([H])([H])C([H])([H])C2([H])N([H])C(=O)C1([H])N(C(=O)C([H])(N([H])C(=O)C([H])(N([H])C([H])([H])[H])C([H])([H])[H])C(C([H])([H])[H])(C([H])([H])[H])C([H])([H])[H])C([H])([H])c2c([H])c(OC([H])([H])c3nnn(C([H])(C([H])([H])[H])C([H])([H])[N+]([H])(C([H])([H])[H])C([H])([H])C([H])([H])C([H])([H])N([H])C(=O)N4C([H])([H])C([H])([H])C([H])([H])C([H])(n5nc(-c6c([H])c([H])c(Oc7c([H])c([H])c(F)c([H])c7F)c([H])c6[H])c(C(=O)N([H])[H])c5N([H])[H])C4([H])[H])c3[H])c([H])c([H])c2C1([H])[H]

$$$$
89:0:0
     RDKit          3D

 96104  0  0  1  0  0  0  0  0999 V2000
  -31.0380  -21.9670   20.1930 C   0  0  0  0  0  2  0  0  0  0  0  0
  -31.1060  -21.1050   21.4720 C   0  0  0  0  0  2  0  0  0  0  0  0
  -30.9200  -18.5440   21.4780 C   0  0  0  0  0  3  0  0  0  0  0  0
  -31.6650  -19.7070   21.2380 C   0  0  0  0  0  0  0  0  0  0  0  0
  -31.5700  -17.3140   21.2730 C   0  0  0  0  0  0  0  0  0  0  0  0
  -33.4660  -18.4280   20.6400 C   0  0  0  0  0  0  0  0  0  0  0  0
  -34.9020  -18.3850   20.1660 C   0  0  0  0  0  1  0  0  0  0  0  0
  -32.9340  -19.6360   20.8050 N   0  0  0  0  0  0  0  0  0  0  0  0
  -32.8510  -17.2690   20.8600 N   0  0  0  0  0  0  0  0  0  0  0  0
  -30.8560  -15.9830   21.4980 C   0  0  0  0  0  2  0  0  0  0  0  0
  -31.1880  -14.1830   19.8920 C   0  0  0  0  0  0  0  0  0  0  0  0
  -30.7640  -11.9540   18.9270 C   0  0  0  0  0  2  0  0  0  0  0  0
  -29.7780  -12.1010   17.7500 C   0  0  0  0  0  2  0  0  0  0  0  0
  -28.3190  -12.0540   18.2500 C   0  0  0  0  0  2  0  0  0  0  0  0
  -28.0650  -12.9920   19.4600 C   0  0  0  0  0  3  0  0  0  0  0  0
  -29.1620  -12.8180   20.5360 C   0  0  0  0  0  2  0  0  0  0  0  0
  -30.4700  -13.0260   19.8870 N   0  0  0  0  0  0  0  0  0  0  0  0
  -32.2960  -14.2920   19.3620 O   0  0  0  0  0  0  0  0  0  0  0  0
  -29.9690  -16.1320   19.1930 C   0  0  0  0  0  1  0  0  0  0  0  0
  -30.4910  -15.2750   20.2650 N   0  0  0  0  0  0  0  0  0  0  0  0
  -25.7440  -13.7560   20.2650 C   0  0  0  0  0  0  0  0  0  0  0  0
  -24.6510  -13.0540   20.6960 C   0  0  0  0  0  0  0  0  0  0  0  0
  -25.0300  -11.6770   20.6660 C   0  0  0  0  0  0  0  0  0  0  0  0
  -26.7240  -12.8100   20.0070 N   0  0  0  0  0  0  0  0  0  0  0  0
  -26.3000  -11.5550   20.3020 N   0  0  0  0  0  0  0  0  0  0  0  0
  -24.2420  -10.4630   20.9120 C   0  0  0  0  0  0  0  0  0  0  0  0
  -24.6300   -9.5190   21.8870 C   0  0  0  0  0  3  0  0  0  0  0  0
  -23.8480   -8.3670   22.1170 C   0  0  0  0  0  3  0  0  0  0  0  0
  -22.6630   -8.1530   21.3710 C   0  0  0  0  0  0  0  0  0  0  0  0
  -22.2960   -9.0860   20.3860 C   0  0  0  0  0  3  0  0  0  0  0  0
  -23.0780  -10.2300   20.1540 C   0  0  0  0  0  3  0  0  0  0  0  0
  -21.8550   -7.0480   21.5080 O   0  0  0  0  0  0  0  0  0  0  0  0
  -21.7280   -6.3940   22.7050 C   0  0  0  0  0  0  0  0  0  0  0  0
  -21.2780   -7.0530   23.8700 C   0  0  0  0  0  3  0  0  0  0  0  0
  -21.0960   -6.3280   25.0640 C   0  0  0  0  0  3  0  0  0  0  0  0
  -21.3520   -4.9440   25.0930 C   0  0  0  0  0  0  0  0  0  0  0  0
  -21.7940   -4.2840   23.9330 C   0  0  0  0  0  3  0  0  0  0  0  0
  -21.9800   -5.0060   22.7410 C   0  0  0  0  0  0  0  0  0  0  0  0
  -22.3850   -4.3630   21.6210 F   0  0  0  0  0  0  0  0  0  0  0  0
  -21.1690   -4.2440   26.2380 F   0  0  0  0  0  0  0  0  0  0  0  0
  -23.3010  -13.6160   21.0330 C   0  0  0  0  0  0  0  0  0  0  0  0
  -22.5920  -12.9880   21.9640 N   0  0  0  0  0  0  0  0  0  0  0  0
  -22.8900  -14.6500   20.5050 O   0  0  0  0  0  0  0  0  0  0  0  0
  -22.9350  -12.1490   22.4060 H   0  0  0  0  0  0  0  0  0  0  0  0
  -21.6910  -13.3520   22.2380 H   0  0  0  0  0  0  0  0  0  0  0  0
  -25.9860  -15.1110   20.0540 N   0  0  0  0  0  0  0  0  0  0  0  0
  -25.2710  -15.8170   20.1840 H   0  0  0  0  0  0  0  0  0  0  0  0
  -26.8510  -15.4850   19.6870 H   0  0  0  0  0  0  0  0  0  0  0  0
  -29.7980  -21.7210   19.3050 C   0  0  0  0  0  2  0  0  0  0  0  0
  -27.3560  -21.5730   19.2420 C   0  0  0  0  0  1  0  0  0  0  0  0
  -28.5190  -22.2950   19.8200 N   0  0  2  0  0  4  0  0  0  0  0  0
  -28.4640  -22.0930   20.8060 H   0  0  0  0  0  0  0  0  0  0  0  0
  -28.3720  -23.7760   19.6690 C   0  0  0  0  0  2  0  0  0  0  0  0
  -29.0510  -24.6000   20.7910 C   0  0  0  0  0  2  0  0  0  0  0  0
  -28.2980  -25.8850   21.1900 C   0  0  0  0  0  2  0  0  0  0  0  0
  -28.3080  -26.8850   20.1680 O   0  0  0  0  0  0  0  0  0  0  0  0
  -24.5300  -32.0170   23.3350 C   0  0  0  0  0  0  0  0  0  0  0  0
  -27.1670  -27.6460   20.1690 C   0  0  0  0  0  0  0  0  0  0  0  0
  -23.3240  -30.6530   21.6590 C   0  0  0  0  0  3  0  0  0  0  0  0
  -24.7780  -29.1420   20.2070 C   0  0  0  0  0  0  0  0  0  0  0  0
  -25.8500  -31.0110   21.4760 C   0  0  0  0  0  2  0  0  0  0  0  0
  -25.9360  -29.6570   20.8070 C   0  0  0  0  0  0  0  0  0  0  0  0
  -27.1380  -28.9160   20.7870 C   0  0  0  0  0  3  0  0  0  0  0  0
  -25.9970  -27.1400   19.5690 C   0  0  0  0  0  3  0  0  0  0  0  0
  -24.8020  -27.8820   19.5860 C   0  0  0  0  0  3  0  0  0  0  0  0
  -23.5340  -30.0010   20.2670 C   0  0  0  0  0  2  0  0  0  0  0  0
  -24.5850  -31.2410   22.2150 N   0  0  0  0  0  0  0  0  0  0  0  0
  -23.4480  -32.2830   23.8770 O   0  0  0  0  0  0  0  0  0  0  0  0
  -22.6680  -29.6160   22.5970 C   0  0  0  0  0  0  0  0  0  0  0  0
  -21.3540  -29.4010   22.4230 N   0  0  0  0  0  0  0  0  0  0  0  0
  -23.3390  -29.0060   23.4330 O   0  0  0  0  0  0  0  0  0  0  0  0
  -20.8760  -29.9430   21.7160 H   0  0  0  0  0  0  0  0  0  0  0  0
  -18.0050  -28.0900   22.7700 C   0  0  0  0  0  0  0  0  0  0  0  0
  -20.5340  -28.4450   23.1660 C   0  0  0  0  0  3  0  0  0  0  0  0
  -20.7170  -27.0120   22.6150 C   0  0  0  0  0  2  0  0  0  0  0  0
  -19.6800  -26.6370   21.5530 C   0  0  0  0  0  2  0  0  0  0  0  0
  -18.2620  -26.7400   22.1230 C   0  0  0  0  0  2  0  0  0  0  0  0
  -19.0710  -28.8980   23.2450 C   0  0  0  0  0  0  0  0  0  0  0  0
  -18.7780  -30.1610   23.8060 C   0  0  0  0  0  3  0  0  0  0  0  0
  -17.4490  -30.6160   23.8980 C   0  0  0  0  0  3  0  0  0  0  0  0
  -16.3970  -29.8070   23.4380 C   0  0  0  0  0  3  0  0  0  0  0  0
  -16.6740  -28.5460   22.8820 C   0  0  0  0  0  3  0  0  0  0  0  0
  -25.8160  -32.6280   23.9710 C   0  0  0  0  0  3  0  0  0  0  0  0
  -25.5320  -34.0380   24.2750 N   0  0  0  0  0  0  0  0  0  0  0  0
  -25.8990  -35.0710   23.5050 C   0  0  0  0  0  0  0  0  0  0  0  0
  -26.5850  -34.9360   22.4870 O   0  0  0  0  0  0  0  0  0  0  0  0
  -24.9290  -34.2170   25.0650 H   0  0  0  0  0  0  0  0  0  0  0  0
  -24.2060  -36.8850   23.1000 C   0  0  0  0  0  1  0  0  0  0  0  0
  -25.4320  -36.4760   23.9320 C   0  0  0  0  0  3  0  0  0  0  0  0
  -27.5750  -37.3360   24.7670 C   0  0  0  0  0  1  0  0  0  0  0  0
  -26.4840  -37.5090   23.8090 N   0  0  0  0  0  0  0  0  0  0  0  0
  -26.0950  -38.4380   23.9400 H   0  0  0  0  0  0  0  0  0  0  0  0
  -26.2980  -31.8630   25.2650 C   0  0  1  0  0  0  0  0  0  0  0  0
  -25.1750  -31.6320   26.3040 C   0  0  0  0  0  1  0  0  0  0  0  0
  -26.8870  -30.4820   24.8940 C   0  0  0  0  0  1  0  0  0  0  0  0
  -27.4380  -32.6560   25.9490 C   0  0  0  0  0  1  0  0  0  0  0  0
  1  2  1  0
  4  2  1  0
  4  3  2  0
  5  3  1  0
  5 10  1  0
  6  8  2  0
  6  9  1  0
  7  6  1  0
  8  4  1  0
  9  5  2  0
 11 20  1  0
 12 17  1  0
 13 14  1  0
 13 12  1  0
 15 14  1  0
 15 24  1  0
 15 16  1  0
 17 11  1  0
 17 16  1  0
 18 11  2  0
 19 20  1  0
 20 10  1  0
 21 22  2  0
 22 41  1  0
 23 22  1  0
 23 26  1  0
 24 21  1  0
 24 25  1  0
 25 23  2  0
 26 27  1  0
 27 28  2  0
 29 32  1  0
 29 28  1  0
 30 29  2  0
 31 30  1  0
 31 26  2  0
 32 33  1  0
 33 38  2  0
 33 34  1  0
 34 35  2  0
 35 36  1  0
 36 40  1  0
 37 36  2  0
 38 37  1  0
 39 38  1  0
 41 42  1  0
 42 45  1  0
 42 44  1  0
 43 41  2  0
 46 47  1  0
 46 21  1  0
 48 46  1  0
 49 51  1  0
 49  1  1  0
 50 51  1  0
 51 52  1  1
 53 51  1  0
 53 54  1  0
 54 55  1  0
 56 58  1  0
 56 55  1  0
 57 68  2  0
 58 63  1  0
 59 67  1  0
 59 69  1  0
 60 66  1  0
 60 62  1  0
 61 67  1  0
 62 61  1  0
 63 62  2  0
 64 65  1  0
 64 58  2  0
 65 60  2  0
 66 59  1  0
 67 57  1  0
 69 71  2  0
 70 69  1  0
 72 70  1  0
 73 82  2  0
 73 78  1  0
 74 70  1  0
 74 78  1  0
 75 74  1  0
 76 77  1  0
 76 75  1  0
 77 73  1  0
 78 79  2  0
 79 80  1  0
 81 80  2  0
 82 81  1  0
 83 57  1  0
 83 84  1  0
 83 93  1  0
 84 87  1  0
 85 89  1  0
 85 84  1  0
 86 85  2  0
 89 88  1  0
 91 89  1  0
 91 92  1  0
 91 90  1  0
 93 96  1  1
 93 94  1  0
 95 93  1  0
M  ISO  4  11 100  20 100  55 101  56 101
M  END
>  <TORSDO>  (87) 
F 24

>  <SCORE>  (87) 
-11.897

>  <name>  (87) 
89

>  <ligand_id>  (87) 
89

>  <original_smiles>  (87) 
[H]c1c(C([H])([H])N(C(=O)N2C([H])([H])C([H])([H])C([H])([H])C([H])(n3nc(-c4c([H])c([H])c(Oc5c([H])c([H])c(F)c([H])c5F)c([H])c4[H])c(C(=O)N([H])[H])c3N([H])[H])C2([H])[H])C([H])([H])[H])nc(C([H])([H])[H])nc1C([H])([H])C([H])([H])C([H])([H])[N+]([H])(C([H])([H])[H])C([H])([H])C([H])([H])C([H])([H])Oc1c([H])c([H])c2c(c1[H])C([H])([H])N(C(=O)C([H])(N([H])C(=O)C([H])(N([H])C([H])([H])[H])C([H])([H])[H])C(C([H])([H])[H])(C([H])([H])[H])C([H])([H])[H])C([H])(C(=O)N([H])C1([H])c3c([H])c([H])c([H])c([H])c3C([H])([H])C([H])([H])C1([H])[H])C2([H])[H]

>  <smiles>  (87) 
[H]c1c(C([H])([H])N(C(=O)N2C([H])([H])C([H])([H])C([H])([H])C([H])(n3nc(-c4c([H])c([H])c(Oc5c([H])c([H])c(F)c([H])c5F)c([H])c4[H])c(C(=O)N([H])[H])c3N([H])[H])C2([H])[H])C([H])([H])[H])nc(C([H])([H])[H])nc1C([H])([H])C([H])([H])C([H])([H])[N+]([H])(C([H])([H])[H])C([H])([H])C([H])([H])C([H])([H])Oc1c([H])c([H])c2c(c1[H])C([H])([H])N(C(=O)C([H])(N([H])C(=O)C([H])(N([H])C([H])([H])[H])C([H])([H])[H])C(C([H])([H])[H])(C([H])([H])[H])C([H])([H])[H])C([H])(C(=O)N([H])C1([H])c3c([H])c([H])c([H])c([H])c3C([H])([H])C([H])([H])C1([H])[H])C2([H])[H]

$$$$
90:0:0
     RDKit          3D

 97105  0  0  1  0  0  0  0  0999 V2000
  -30.4440  -23.9800   19.0530 C   0  0  0  0  0  3  0  0  0  0  0  0
  -29.4140  -24.1900   19.9940 C   0  0  0  0  0  0  0  0  0  0  0  0
  -31.3560  -22.2640   20.3660 C   0  0  0  0  0  0  0  0  0  0  0  0
  -30.3160  -22.5030   21.3220 C   0  0  0  0  0  0  0  0  0  0  0  0
  -31.4060  -23.0410   19.2440 N   0  0  0  0  0  0  0  0  0  0  0  0
  -29.3560  -23.4460   21.1260 N   0  0  0  0  0  0  0  0  0  0  0  0
  -30.2150  -21.6790   22.8340 Cl  0  0  0  0  0  0  0  0  0  0  0  0
  -33.4130  -21.1450   19.2770 C   0  0  0  0  0  1  0  0  0  0  0  0
  -33.5640  -22.1810   21.5200 C   0  0  0  0  0  1  0  0  0  0  0  0
  -32.6260  -21.3730   20.5990 C   0  0  1  0  0  0  0  0  0  0  0  0
  -32.4440  -19.9420   21.2370 C   0  0  0  0  0  2  0  0  0  0  0  0
  -31.6820  -18.9460   20.4300 N   0  0  0  0  0  4  0  0  0  0  0  0
  -31.9520  -19.0440   19.4630 H   0  0  0  0  0  0  0  0  0  0  0  0
  -30.7040  -19.1820   20.4930 H   0  0  0  0  0  0  0  0  0  0  0  0
  -33.2030  -16.9340   20.3720 C   0  0  0  0  0  1  0  0  0  0  0  0
  -31.8410  -17.5080   20.8240 C   0  0  0  0  0  3  0  0  0  0  0  0
  -30.6170  -16.6650   20.3300 C   0  0  0  0  0  2  0  0  0  0  0  0
  -30.9060  -14.2780   19.7540 C   0  0  0  0  0  0  0  0  0  0  0  0
  -30.2950  -12.2230   18.5200 C   0  0  0  0  0  2  0  0  0  0  0  0
  -29.2730  -12.5160   17.4060 C   0  0  0  0  0  2  0  0  0  0  0  0
  -27.8390  -12.4180   17.9540 C   0  0  0  0  0  2  0  0  0  0  0  0
  -27.6500  -13.2380   19.2560 C   0  0  0  0  0  3  0  0  0  0  0  0
  -28.7830  -12.9590   20.2660 C   0  0  0  0  0  2  0  0  0  0  0  0
  -30.0890  -13.1890   19.6170 N   0  0  0  0  0  0  0  0  0  0  0  0
  -31.8330  -14.4910   18.9680 O   0  0  0  0  0  0  0  0  0  0  0  0
  -30.5440  -14.9140   22.1150 C   0  0  0  0  0  1  0  0  0  0  0  0
  -30.5840  -15.2200   20.6780 N   0  0  0  0  0  0  0  0  0  0  0  0
  -25.3450  -13.9170   20.1780 C   0  0  0  0  0  0  0  0  0  0  0  0
  -24.2880  -13.1770   20.6370 C   0  0  0  0  0  0  0  0  0  0  0  0
  -24.7000  -11.8110   20.5620 C   0  0  0  0  0  0  0  0  0  0  0  0
  -26.3350  -13.0040   19.8500 N   0  0  0  0  0  0  0  0  0  0  0  0
  -25.9540  -11.7320   20.1380 N   0  0  0  0  0  0  0  0  0  0  0  0
  -23.9520  -10.5730   20.8100 C   0  0  0  0  0  0  0  0  0  0  0  0
  -24.4260   -9.5880   21.7050 C   0  0  0  0  0  3  0  0  0  0  0  0
  -23.6760   -8.4140   21.9400 C   0  0  0  0  0  3  0  0  0  0  0  0
  -22.4400   -8.2160   21.2800 C   0  0  0  0  0  0  0  0  0  0  0  0
  -21.9850   -9.1880   20.3720 C   0  0  0  0  0  3  0  0  0  0  0  0
  -22.7350  -10.3530   20.1350 C   0  0  0  0  0  3  0  0  0  0  0  0
  -21.6560   -7.0970   21.4270 O   0  0  0  0  0  0  0  0  0  0  0  0
  -21.6800   -6.3480   22.5760 C   0  0  0  0  0  0  0  0  0  0  0  0
  -21.4010   -6.9140   23.8390 C   0  0  0  0  0  3  0  0  0  0  0  0
  -21.3670   -6.0950   24.9850 C   0  0  0  0  0  3  0  0  0  0  0  0
  -21.6040   -4.7110   24.8710 C   0  0  0  0  0  0  0  0  0  0  0  0
  -21.8750   -4.1460   23.6130 C   0  0  0  0  0  3  0  0  0  0  0  0
  -21.9100   -4.9620   22.4690 C   0  0  0  0  0  0  0  0  0  0  0  0
  -22.1530   -4.4090   21.2550 F   0  0  0  0  0  0  0  0  0  0  0  0
  -21.5630   -3.9220   25.9690 F   0  0  0  0  0  0  0  0  0  0  0  0
  -22.9380  -13.6970   21.0360 C   0  0  0  0  0  0  0  0  0  0  0  0
  -22.2760  -13.0270   21.9730 N   0  0  0  0  0  0  0  0  0  0  0  0
  -22.4830  -14.7330   20.5520 O   0  0  0  0  0  0  0  0  0  0  0  0
  -22.6550  -12.1870   22.3840 H   0  0  0  0  0  0  0  0  0  0  0  0
  -21.3730  -13.3580   22.2850 H   0  0  0  0  0  0  0  0  0  0  0  0
  -25.5420  -15.2830   19.9970 N   0  0  0  0  0  0  0  0  0  0  0  0
  -24.8130  -15.9670   20.1640 H   0  0  0  0  0  0  0  0  0  0  0  0
  -26.3900  -15.6940   19.6270 H   0  0  0  0  0  0  0  0  0  0  0  0
  -28.2340  -25.1260   19.7060 C   0  0  0  0  0  2  0  0  0  0  0  0
  -28.3220  -26.4710   20.2250 O   0  0  0  0  0  0  0  0  0  0  0  0
  -24.5670  -31.7690   23.2110 C   0  0  0  0  0  0  0  0  0  0  0  0
  -27.1670  -27.2430   20.1700 C   0  0  0  0  0  0  0  0  0  0  0  0
  -23.3540  -30.3730   21.5710 C   0  0  0  0  0  3  0  0  0  0  0  0
  -24.7960  -28.8100   20.1630 C   0  0  0  0  0  0  0  0  0  0  0  0
  -25.8910  -30.6830   21.3940 C   0  0  0  0  0  2  0  0  0  0  0  0
  -25.9590  -29.3070   20.7610 C   0  0  0  0  0  0  0  0  0  0  0  0
  -27.1460  -28.5300   20.7640 C   0  0  0  0  0  3  0  0  0  0  0  0
  -25.9780  -26.7830   19.5490 C   0  0  0  0  0  3  0  0  0  0  0  0
  -24.7990  -27.5480   19.5570 C   0  0  0  0  0  3  0  0  0  0  0  0
  -23.5650  -29.6880   20.1960 C   0  0  0  0  0  2  0  0  0  0  0  0
  -24.6230  -30.9580   22.1160 N   0  0  0  0  0  0  0  0  0  0  0  0
  -23.4840  -32.0630   23.7380 O   0  0  0  0  0  0  0  0  0  0  0  0
  -22.6820  -29.3650   22.5320 C   0  0  0  0  0  0  0  0  0  0  0  0
  -21.3590  -29.1890   22.3850 N   0  0  0  0  0  0  0  0  0  0  0  0
  -23.3480  -28.7460   23.3660 O   0  0  0  0  0  0  0  0  0  0  0  0
  -20.8850  -29.7450   21.6880 H   0  0  0  0  0  0  0  0  0  0  0  0
  -17.9710  -28.0010   22.8170 C   0  0  0  0  0  0  0  0  0  0  0  0
  -20.5210  -28.2650   23.1500 C   0  0  0  0  0  3  0  0  0  0  0  0
  -20.6370  -26.8220   22.6050 C   0  0  0  0  0  2  0  0  0  0  0  0
  -19.5600  -26.4800   21.5700 C   0  0  0  0  0  2  0  0  0  0  0  0
  -18.1620  -26.6380   22.1750 C   0  0  0  0  0  2  0  0  0  0  0  0
  -19.0790  -28.7720   23.2610 C   0  0  0  0  0  0  0  0  0  0  0  0
  -18.8450  -30.0480   23.8170 C   0  0  0  0  0  3  0  0  0  0  0  0
  -17.5360  -30.5520   23.9420 C   0  0  0  0  0  3  0  0  0  0  0  0
  -16.4420  -29.7780   23.5150 C   0  0  0  0  0  3  0  0  0  0  0  0
  -16.6610  -28.5060   22.9580 C   0  0  0  0  0  3  0  0  0  0  0  0
  -25.8570  -32.3840   23.8360 C   0  0  0  0  0  3  0  0  0  0  0  0
  -25.5680  -33.7910   24.1510 N   0  0  0  0  0  0  0  0  0  0  0  0
  -25.9130  -34.8270   23.3770 C   0  0  0  0  0  0  0  0  0  0  0  0
  -26.5780  -34.7020   22.3450 O   0  0  0  0  0  0  0  0  0  0  0  0
  -24.9790  -33.9640   24.9510 H   0  0  0  0  0  0  0  0  0  0  0  0
  -24.2010  -36.6330   23.0070 C   0  0  0  0  0  1  0  0  0  0  0  0
  -25.4420  -36.2270   23.8180 C   0  0  0  0  0  3  0  0  0  0  0  0
  -27.5920  -37.0930   24.6260 C   0  0  0  0  0  1  0  0  0  0  0  0
  -26.4860  -37.2660   23.6880 N   0  0  0  0  0  0  0  0  0  0  0  0
  -26.0920  -38.1920   23.8340 H   0  0  0  0  0  0  0  0  0  0  0  0
  -26.3550  -31.6160   25.1220 C   0  0  1  0  0  0  0  0  0  0  0  0
  -25.2520  -31.4030   26.1850 C   0  0  0  0  0  1  0  0  0  0  0  0
  -26.9220  -30.2280   24.7420 C   0  0  0  0  0  1  0  0  0  0  0  0
  -27.5110  -32.4020   25.7860 C   0  0  0  0  0  1  0  0  0  0  0  0
  1  5  2  0
  1  2  1  0
  2  6  2  0
  3 10  1  0
  3  4  2  0
  4  7  1  0
  5  3  1  0
  6  4  1  0
 10  8  1  6
 10 11  1  0
 10  9  1  0
 12 14  1  0
 12 16  1  0
 12 11  1  0
 13 12  1  0
 16 15  1  0
 17 27  1  0
 17 16  1  0
 18 27  1  0
 19 24  1  0
 20 21  1  0
 20 19  1  0
 22 21  1  0
 22 31  1  0
 22 23  1  0
 24 18  1  0
 24 23  1  0
 25 18  2  0
 27 26  1  0
 28 29  2  0
 29 48  1  0
 30 29  1  0
 30 33  1  0
 31 32  1  0
 31 28  1  0
 32 30  2  0
 33 34  1  0
 34 35  2  0
 36 39  1  0
 36 35  1  0
 37 36  2  0
 38 37  1  0
 38 33  2  0
 39 40  1  0
 40 41  1  0
 41 42  2  0
 43 42  1  0
 43 47  1  0
 44 43  2  0
 45 40  2  0
 45 44  1  0
 46 45  1  0
 48 49  1  0
 49 52  1  0
 49 51  1  0
 50 48  2  0
 53 54  1  0
 53 28  1  0
 55 53  1  0
 56  2  1  0
 56 57  1  0
 58 69  2  0
 59 57  1  0
 59 64  1  0
 60 68  1  0
 60 70  1  0
 61 67  1  0
 61 63  1  0
 62 68  1  0
 63 64  2  0
 63 62  1  0
 65 66  1  0
 65 59  2  0
 66 61  2  0
 67 60  1  0
 68 58  1  0
 70 72  2  0
 71 70  1  0
 73 71  1  0
 74 83  2  0
 74 79  1  0
 75 71  1  0
 75 79  1  0
 76 75  1  0
 77 78  1  0
 77 76  1  0
 78 74  1  0
 79 80  2  0
 80 81  1  0
 82 81  2  0
 83 82  1  0
 84 58  1  0
 84 85  1  0
 84 94  1  0
 85 88  1  0
 86 90  1  0
 86 85  1  0
 87 86  2  0
 90 89  1  0
 92 90  1  0
 92 93  1  0
 92 91  1  0
 94 97  1  1
 94 95  1  0
 96 94  1  0
M  ISO  4  18 100  27 100  56 101  57 101
M  END
>  <TORSDO>  (88) 
F 22

>  <SCORE>  (88) 
-10.820

>  <name>  (88) 
90

>  <ligand_id>  (88) 
90

>  <original_smiles>  (88) 
[H]c1nc(C(C([H])([H])[H])(C([H])([H])[H])C([H])([H])[N+]([H])([H])C([H])(C([H])([H])[H])C([H])([H])N(C(=O)N2C([H])([H])C([H])([H])C([H])([H])C([H])(n3nc(-c4c([H])c([H])c(Oc5c([H])c([H])c(F)c([H])c5F)c([H])c4[H])c(C(=O)N([H])[H])c3N([H])[H])C2([H])[H])C([H])([H])[H])c(Cl)nc1C([H])([H])Oc1c([H])c([H])c2c(c1[H])C([H])([H])N(C(=O)C([H])(N([H])C(=O)C([H])(N([H])C([H])([H])[H])C([H])([H])[H])C(C([H])([H])[H])(C([H])([H])[H])C([H])([H])[H])C([H])(C(=O)N([H])C1([H])c3c([H])c([H])c([H])c([H])c3C([H])([H])C([H])([H])C1([H])[H])C2([H])[H]

>  <smiles>  (88) 
[H]c1nc(C(C([H])([H])[H])(C([H])([H])[H])C([H])([H])[N+]([H])([H])C([H])(C([H])([H])[H])C([H])([H])N(C(=O)N2C([H])([H])C([H])([H])C([H])([H])C([H])(n3nc(-c4c([H])c([H])c(Oc5c([H])c([H])c(F)c([H])c5F)c([H])c4[H])c(C(=O)N([H])[H])c3N([H])[H])C2([H])[H])C([H])([H])[H])c(Cl)nc1C([H])([H])Oc1c([H])c([H])c2c(c1[H])C([H])([H])N(C(=O)C([H])(N([H])C(=O)C([H])(N([H])C([H])([H])[H])C([H])([H])[H])C(C([H])([H])[H])(C([H])([H])[H])C([H])([H])[H])C([H])(C(=O)N([H])C1([H])c3c([H])c([H])c([H])c([H])c3C([H])([H])C([H])([H])C1([H])[H])C2([H])[H]

$$$$
91:0:0
     RDKit          3D

 87 95  0  0  1  0  0  0  0  0999 V2000
  -28.7510  -20.6270   21.2530 C   0  0  0  0  0  3  0  0  0  0  0  0
  -29.5100  -20.8190   19.1420 C   0  0  0  0  0  3  0  0  0  0  0  0
  -29.3580  -19.8290   20.1980 C   0  0  0  0  0  0  0  0  0  0  0  0
  -28.5800  -22.8690   20.1760 C   0  0  0  0  0  0  0  0  0  0  0  0
  -28.3780  -22.0010   21.2260 N   0  0  0  0  0  0  0  0  0  0  0  0
  -29.1360  -22.1880   19.1260 N   0  0  0  0  0  0  0  0  0  0  0  0
  -30.1080  -18.2460   20.2320 C   0  0  0  0  0  2  0  0  0  0  0  0
  -30.4400  -15.3670   20.2020 C   0  0  0  0  0  0  0  0  0  0  0  0
  -30.3850  -12.9370   19.3170 C   0  0  0  0  0  2  0  0  0  0  0  0
  -29.4390  -12.7440   18.1060 C   0  0  0  0  0  2  0  0  0  0  0  0
  -28.0000  -12.4740   18.5800 C   0  0  0  0  0  2  0  0  0  0  0  0
  -27.5740  -13.4290   19.7220 C   0  0  0  0  0  3  0  0  0  0  0  0
  -28.6460  -13.5730   20.8210 C   0  0  0  0  0  2  0  0  0  0  0  0
  -29.8620  -14.0710   20.1600 N   0  0  0  0  0  0  0  0  0  0  0  0
  -31.6530  -15.3670   19.9490 O   0  0  0  0  0  0  0  0  0  0  0  0
  -29.6970  -16.6410   20.3200 N   0  0  0  0  0  0  0  0  0  0  0  0
  -28.7120  -16.4840   20.4740 H   0  0  0  0  0  0  0  0  0  0  0  0
  -25.2230  -13.9700   20.5510 C   0  0  0  0  0  0  0  0  0  0  0  0
  -24.1730  -13.1840   20.9310 C   0  0  0  0  0  0  0  0  0  0  0  0
  -24.6400  -11.8350   20.8590 C   0  0  0  0  0  0  0  0  0  0  0  0
  -26.2600  -13.1020   20.2600 N   0  0  0  0  0  0  0  0  0  0  0  0
  -25.9230  -11.8100   20.5130 N   0  0  0  0  0  0  0  0  0  0  0  0
  -23.9190  -10.5680   21.0380 C   0  0  0  0  0  0  0  0  0  0  0  0
  -24.3480   -9.5980   21.9690 C   0  0  0  0  0  3  0  0  0  0  0  0
  -23.6250   -8.3970   22.1380 C   0  0  0  0  0  3  0  0  0  0  0  0
  -22.4570   -8.1590   21.3750 C   0  0  0  0  0  0  0  0  0  0  0  0
  -22.0460   -9.1180   20.4330 C   0  0  0  0  0  3  0  0  0  0  0  0
  -22.7700  -10.3100   20.2630 C   0  0  0  0  0  3  0  0  0  0  0  0
  -21.7050   -7.0120   21.4550 O   0  0  0  0  0  0  0  0  0  0  0  0
  -21.6140   -6.2900   22.6170 C   0  0  0  0  0  0  0  0  0  0  0  0
  -21.0870   -6.8480   23.8030 C   0  0  0  0  0  3  0  0  0  0  0  0
  -20.9480   -6.0490   24.9560 C   0  0  0  0  0  3  0  0  0  0  0  0
  -21.3250   -4.6940   24.9240 C   0  0  0  0  0  0  0  0  0  0  0  0
  -21.8430   -4.1340   23.7420 C   0  0  0  0  0  3  0  0  0  0  0  0
  -21.9840   -4.9300   22.5910 C   0  0  0  0  0  0  0  0  0  0  0  0
  -22.4640   -4.3810   21.4500 F   0  0  0  0  0  0  0  0  0  0  0  0
  -21.1840   -3.9240   26.0280 F   0  0  0  0  0  0  0  0  0  0  0  0
  -22.7820  -13.6530   21.2440 C   0  0  0  0  0  0  0  0  0  0  0  0
  -22.0760  -12.9380   22.1130 N   0  0  0  0  0  0  0  0  0  0  0  0
  -22.3330  -14.6890   20.7550 O   0  0  0  0  0  0  0  0  0  0  0  0
  -22.4540  -12.1010   22.5290 H   0  0  0  0  0  0  0  0  0  0  0  0
  -21.1430  -13.2340   22.3660 H   0  0  0  0  0  0  0  0  0  0  0  0
  -25.3770  -15.3450   20.3970 N   0  0  0  0  0  0  0  0  0  0  0  0
  -24.6060  -15.9890   20.5350 H   0  0  0  0  0  0  0  0  0  0  0  0
  -26.2020  -15.7910   20.0190 H   0  0  0  0  0  0  0  0  0  0  0  0
  -27.7800  -24.4160   20.0070 C   0  0  0  0  0  2  0  0  0  0  0  0
  -28.1520  -25.9940   20.2340 O   0  0  0  0  0  0  0  0  0  0  0  0
  -24.6340  -31.9410   23.2420 C   0  0  0  0  0  0  0  0  0  0  0  0
  -27.1580  -27.0990   20.1740 C   0  0  0  0  0  0  0  0  0  0  0  0
  -23.4250  -30.5590   21.6020 C   0  0  0  0  0  3  0  0  0  0  0  0
  -24.8610  -28.9700   20.1580 C   0  0  0  0  0  0  0  0  0  0  0  0
  -25.9900  -30.7730   21.4390 C   0  0  0  0  0  2  0  0  0  0  0  0
  -26.0540  -29.3710   20.7730 C   0  0  0  0  0  0  0  0  0  0  0  0
  -27.1980  -28.4560   20.7580 C   0  0  0  0  0  3  0  0  0  0  0  0
  -25.9350  -26.8500   19.5090 C   0  0  0  0  0  3  0  0  0  0  0  0
  -24.8260  -27.7300   19.5050 C   0  0  0  0  0  3  0  0  0  0  0  0
  -23.6430  -29.8890   20.2190 C   0  0  0  0  0  2  0  0  0  0  0  0
  -24.7050  -31.1170   22.1480 N   0  0  0  0  0  0  0  0  0  0  0  0
  -23.5480  -32.2280   23.7730 O   0  0  0  0  0  0  0  0  0  0  0  0
  -22.7380  -29.5550   22.5650 C   0  0  0  0  0  0  0  0  0  0  0  0
  -21.4100  -29.3790   22.4350 N   0  0  0  0  0  0  0  0  0  0  0  0
  -23.4070  -28.9370   23.3970 O   0  0  0  0  0  0  0  0  0  0  0  0
  -20.9230  -29.9290   21.7420 H   0  0  0  0  0  0  0  0  0  0  0  0
  -18.0350  -28.1440   22.9350 C   0  0  0  0  0  0  0  0  0  0  0  0
  -20.5930  -28.4350   23.2050 C   0  0  0  0  0  3  0  0  0  0  0  0
  -20.7090  -27.0030   22.6330 C   0  0  0  0  0  2  0  0  0  0  0  0
  -19.6120  -26.6680   21.6160 C   0  0  0  0  0  2  0  0  0  0  0  0
  -18.2270  -26.7970   22.2580 C   0  0  0  0  0  2  0  0  0  0  0  0
  -19.1450  -28.9190   23.3660 C   0  0  0  0  0  0  0  0  0  0  0  0
  -18.9090  -30.1760   23.9640 C   0  0  0  0  0  3  0  0  0  0  0  0
  -17.5980  -30.6600   24.1310 C   0  0  0  0  0  3  0  0  0  0  0  0
  -16.5040  -29.8830   23.7150 C   0  0  0  0  0  3  0  0  0  0  0  0
  -16.7230  -28.6270   23.1230 C   0  0  0  0  0  3  0  0  0  0  0  0
  -25.9110  -32.5780   23.8690 C   0  0  0  0  0  3  0  0  0  0  0  0
  -25.6010  -33.9780   24.2050 N   0  0  0  0  0  0  0  0  0  0  0  0
  -25.9080  -35.0370   23.4430 C   0  0  0  0  0  0  0  0  0  0  0  0
  -26.5450  -34.9370   22.3920 O   0  0  0  0  0  0  0  0  0  0  0  0
  -25.0310  -34.1280   25.0250 H   0  0  0  0  0  0  0  0  0  0  0  0
  -24.1610  -36.8280   23.1630 C   0  0  0  0  0  1  0  0  0  0  0  0
  -25.4360  -36.4250   23.9210 C   0  0  0  0  0  3  0  0  0  0  0  0
  -27.5930  -37.3290   24.6730 C   0  0  0  0  0  1  0  0  0  0  0  0
  -26.4590  -37.4830   23.7650 N   0  0  0  0  0  0  0  0  0  0  0  0
  -26.0530  -38.4030   23.9180 H   0  0  0  0  0  0  0  0  0  0  0  0
  -26.4170  -31.8110   25.1530 C   0  0  1  0  0  0  0  0  0  0  0  0
  -25.3170  -31.5790   26.2160 C   0  0  0  0  0  1  0  0  0  0  0  0
  -27.0010  -30.4300   24.7780 C   0  0  0  0  0  1  0  0  0  0  0  0
  -27.5640  -32.6070   25.8200 C   0  0  0  0  0  1  0  0  0  0  0  0
  2  3  1  0
  3  7  1  0
  3  1  2  0
  4  5  2  0
  5  1  1  0
  6  2  2  0
  6  4  1  0
  7 16  1  0
  8 16  1  0
  9 14  1  0
 10 11  1  0
 10  9  1  0
 12 11  1  0
 12 21  1  0
 12 13  1  0
 14  8  1  0
 14 13  1  0
 15  8  2  0
 16 17  1  0
 18 19  2  0
 19 38  1  0
 20 19  1  0
 20 23  1  0
 21 22  1  0
 21 18  1  0
 22 20  2  0
 23 24  1  0
 24 25  2  0
 26 29  1  0
 26 25  1  0
 27 26  2  0
 28 27  1  0
 28 23  2  0
 29 30  1  0
 30 31  1  0
 31 32  2  0
 33 32  1  0
 33 37  1  0
 34 33  2  0
 35 30  2  0
 35 34  1  0
 36 35  1  0
 38 39  1  0
 39 42  1  0
 39 41  1  0
 40 38  2  0
 43 44  1  0
 43 18  1  0
 45 43  1  0
 46  4  1  0
 46 47  1  0
 48 59  2  0
 49 47  1  0
 49 54  1  0
 50 58  1  0
 50 60  1  0
 51 57  1  0
 51 53  1  0
 52 58  1  0
 53 52  1  0
 54 53  2  0
 55 49  2  0
 56 55  1  0
 56 51  2  0
 57 50  1  0
 58 48  1  0
 60 62  2  0
 61 60  1  0
 63 61  1  0
 64 73  2  0
 64 69  1  0
 65 61  1  0
 65 69  1  0
 66 65  1  0
 67 68  1  0
 67 66  1  0
 68 64  1  0
 69 70  2  0
 70 71  1  0
 72 71  2  0
 73 72  1  0
 74 48  1  0
 74 75  1  0
 74 84  1  0
 75 78  1  0
 76 80  1  0
 76 75  1  0
 77 76  2  0
 80 79  1  0
 82 83  1  0
 82 80  1  0
 82 81  1  0
 84 87  1  1
 84 85  1  0
 86 84  1  0
M  ISO  4   8 100  16 100  46 101  47 101
M  END
>  <TORSDO>  (89) 
F 18

>  <SCORE>  (89) 
-15.740

>  <name>  (89) 
91

>  <ligand_id>  (89) 
91

>  <original_smiles>  (89) 
[H]c1nc(C([H])([H])Oc2c([H])c([H])c3c(c2[H])C([H])([H])N(C(=O)C([H])(N([H])C(=O)C([H])(N([H])C([H])([H])[H])C([H])([H])[H])C(C([H])([H])[H])(C([H])([H])[H])C([H])([H])[H])C([H])(C(=O)N([H])C2([H])c4c([H])c([H])c([H])c([H])c4C([H])([H])C([H])([H])C2([H])[H])C3([H])[H])nc([H])c1C([H])([H])N([H])C(=O)N1C([H])([H])C([H])([H])C([H])([H])C([H])(n2nc(-c3c([H])c([H])c(Oc4c([H])c([H])c(F)c([H])c4F)c([H])c3[H])c(C(=O)N([H])[H])c2N([H])[H])C1([H])[H]

>  <smiles>  (89) 
[H]c1nc(C([H])([H])Oc2c([H])c([H])c3c(c2[H])C([H])([H])N(C(=O)C([H])(N([H])C(=O)C([H])(N([H])C([H])([H])[H])C([H])([H])[H])C(C([H])([H])[H])(C([H])([H])[H])C([H])([H])[H])C([H])(C(=O)N([H])C2([H])c4c([H])c([H])c([H])c([H])c4C([H])([H])C([H])([H])C2([H])[H])C3([H])[H])nc([H])c1C([H])([H])N([H])C(=O)N1C([H])([H])C([H])([H])C([H])([H])C([H])(n2nc(-c3c([H])c([H])c(Oc4c([H])c([H])c(F)c([H])c4F)c([H])c3[H])c(C(=O)N([H])[H])c2N([H])[H])C1([H])[H]

$$$$
92:0:0
     RDKit          3D

 88 96  0  0  1  0  0  0  0  0999 V2000
  -28.6760  -21.0780   20.3480 C   0  0  0  0  0  2  0  0  0  0  0  0
  -31.9840  -19.5520   19.5670 C   0  0  0  0  0  3  0  0  0  0  0  0
  -31.0210  -20.4870   19.7780 C   0  0  0  0  0  3  0  0  0  0  0  0
  -30.1540  -18.4060   20.1080 C   0  0  0  0  0  0  0  0  0  0  0  0
  -31.4450  -18.3050   19.7750 N   0  0  0  0  0  0  0  0  0  0  0  0
  -29.8060  -19.8890   20.1270 N   0  0  0  0  0  0  0  0  0  0  0  0
  -29.5300  -16.8210   20.3630 C   0  0  1  0  0  0  0  0  0  0  0  0
  -29.1420  -16.7670   21.6380 F   0  0  0  0  0  0  0  0  0  0  0  0
  -28.4040  -16.7370   19.6530 F   0  0  0  0  0  0  0  0  0  0  0  0
  -30.3710  -15.2910   20.0750 C   0  0  0  0  0  0  0  0  0  0  0  0
  -30.3230  -12.8710   19.1300 C   0  0  0  0  0  2  0  0  0  0  0  0
  -29.3500  -12.7480   17.9300 C   0  0  0  0  0  2  0  0  0  0  0  0
  -27.9150  -12.4700   18.4120 C   0  0  0  0  0  2  0  0  0  0  0  0
  -27.5200  -13.3810   19.6020 C   0  0  0  0  0  3  0  0  0  0  0  0
  -28.6150  -13.4670   20.6850 C   0  0  0  0  0  2  0  0  0  0  0  0
  -29.8340  -13.9720   20.0370 N   0  0  0  0  0  0  0  0  0  0  0  0
  -31.5740  -15.2820   19.7600 O   0  0  0  0  0  0  0  0  0  0  0  0
  -25.1790  -13.9090   20.4670 C   0  0  0  0  0  0  0  0  0  0  0  0
  -24.1400  -13.1170   20.8650 C   0  0  0  0  0  0  0  0  0  0  0  0
  -24.6140  -11.7710   20.7890 C   0  0  0  0  0  0  0  0  0  0  0  0
  -26.2150  -13.0460   20.1580 N   0  0  0  0  0  0  0  0  0  0  0  0
  -25.8920  -11.7520   20.4220 N   0  0  0  0  0  0  0  0  0  0  0  0
  -23.9050  -10.4990   20.9830 C   0  0  0  0  0  0  0  0  0  0  0  0
  -24.3600   -9.5310   21.9060 C   0  0  0  0  0  3  0  0  0  0  0  0
  -23.6450   -8.3270   22.0910 C   0  0  0  0  0  3  0  0  0  0  0  0
  -22.4630   -8.0820   21.3540 C   0  0  0  0  0  0  0  0  0  0  0  0
  -22.0260   -9.0390   20.4210 C   0  0  0  0  0  3  0  0  0  0  0  0
  -22.7410  -10.2340   20.2330 C   0  0  0  0  0  3  0  0  0  0  0  0
  -21.7190   -6.9300   21.4480 O   0  0  0  0  0  0  0  0  0  0  0  0
  -21.6670   -6.1990   22.6080 C   0  0  0  0  0  0  0  0  0  0  0  0
  -21.2110   -6.7590   23.8220 C   0  0  0  0  0  3  0  0  0  0  0  0
  -21.1090   -5.9530   24.9740 C   0  0  0  0  0  3  0  0  0  0  0  0
  -21.4510   -4.5880   24.9120 C   0  0  0  0  0  0  0  0  0  0  0  0
  -21.9000   -4.0290   23.7030 C   0  0  0  0  0  3  0  0  0  0  0  0
  -22.0040   -4.8330   22.5540 C   0  0  0  0  0  0  0  0  0  0  0  0
  -22.4150   -4.2830   21.3870 F   0  0  0  0  0  0  0  0  0  0  0  0
  -21.3460   -3.8130   26.0160 F   0  0  0  0  0  0  0  0  0  0  0  0
  -22.7500  -13.5770   21.1990 C   0  0  0  0  0  0  0  0  0  0  0  0
  -22.0630  -12.8640   22.0840 N   0  0  0  0  0  0  0  0  0  0  0  0
  -22.2860  -14.6060   20.7100 O   0  0  0  0  0  0  0  0  0  0  0  0
  -22.4530  -12.0330   22.5040 H   0  0  0  0  0  0  0  0  0  0  0  0
  -21.1320  -13.1560   22.3450 H   0  0  0  0  0  0  0  0  0  0  0  0
  -25.3270  -15.2840   20.3110 N   0  0  0  0  0  0  0  0  0  0  0  0
  -24.5680  -15.9340   20.4840 H   0  0  0  0  0  0  0  0  0  0  0  0
  -26.1610  -15.7390   19.9610 H   0  0  0  0  0  0  0  0  0  0  0  0
  -28.9460  -22.8570   20.2480 C   0  0  0  0  0  3  0  0  0  0  0  0
  -27.9040  -24.3140   20.2700 C   0  0  0  0  0  3  0  0  0  0  0  0
  -28.1810  -25.9300   20.2840 O   0  0  0  0  0  0  0  0  0  0  0  0
  -24.6390  -31.8880   23.2420 C   0  0  0  0  0  0  0  0  0  0  0  0
  -27.1670  -27.0140   20.2340 C   0  0  0  0  0  0  0  0  0  0  0  0
  -23.4360  -30.4930   21.6100 C   0  0  0  0  0  3  0  0  0  0  0  0
  -24.8750  -28.8840   20.1890 C   0  0  0  0  0  0  0  0  0  0  0  0
  -26.0010  -30.7030   21.4540 C   0  0  0  0  0  2  0  0  0  0  0  0
  -26.0660  -29.2930   20.8020 C   0  0  0  0  0  0  0  0  0  0  0  0
  -27.2100  -28.3790   20.7980 C   0  0  0  0  0  3  0  0  0  0  0  0
  -25.9480  -26.7510   19.5730 C   0  0  0  0  0  3  0  0  0  0  0  0
  -24.8390  -27.6330   19.5550 C   0  0  0  0  0  3  0  0  0  0  0  0
  -23.6590  -29.8070   20.2330 C   0  0  0  0  0  2  0  0  0  0  0  0
  -24.7150  -31.0540   22.1560 N   0  0  0  0  0  0  0  0  0  0  0  0
  -23.5520  -32.1830   23.7650 O   0  0  0  0  0  0  0  0  0  0  0  0
  -22.7420  -29.5000   22.5790 C   0  0  0  0  0  0  0  0  0  0  0  0
  -21.4120  -29.3380   22.4540 N   0  0  0  0  0  0  0  0  0  0  0  0
  -23.4070  -28.8770   23.4090 O   0  0  0  0  0  0  0  0  0  0  0  0
  -20.9280  -29.8930   21.7620 H   0  0  0  0  0  0  0  0  0  0  0  0
  -18.0280  -28.1310   22.9600 C   0  0  0  0  0  0  0  0  0  0  0  0
  -20.5870  -28.4040   23.2290 C   0  0  0  0  0  3  0  0  0  0  0  0
  -20.6930  -26.9680   22.6660 C   0  0  0  0  0  2  0  0  0  0  0  0
  -19.5940  -26.6350   21.6510 C   0  0  0  0  0  2  0  0  0  0  0  0
  -18.2110  -26.7790   22.2910 C   0  0  0  0  0  2  0  0  0  0  0  0
  -19.1430  -28.9000   23.3870 C   0  0  0  0  0  0  0  0  0  0  0  0
  -18.9160  -30.1630   23.9760 C   0  0  0  0  0  3  0  0  0  0  0  0
  -17.6090  -30.6570   24.1420 C   0  0  0  0  0  3  0  0  0  0  0  0
  -16.5090  -29.8850   23.7300 C   0  0  0  0  0  3  0  0  0  0  0  0
  -16.7190  -28.6230   23.1450 C   0  0  0  0  0  3  0  0  0  0  0  0
  -25.9150  -32.5270   23.8700 C   0  0  0  0  0  3  0  0  0  0  0  0
  -26.4260  -31.7580   25.1510 C   0  0  1  0  0  0  0  0  0  0  0  0
  -25.3320  -31.5270   26.2190 C   0  0  0  0  0  1  0  0  0  0  0  0
  -27.0070  -30.3770   24.7710 C   0  0  0  0  0  1  0  0  0  0  0  0
  -27.5780  -32.5520   25.8130 C   0  0  0  0  0  1  0  0  0  0  0  0
  -25.6000  -33.9260   24.2100 N   0  0  0  0  0  0  0  0  0  0  0  0
  -25.9100  -34.9890   23.4540 C   0  0  0  0  0  0  0  0  0  0  0  0
  -26.5520  -34.8950   22.4060 O   0  0  0  0  0  0  0  0  0  0  0  0
  -25.0230  -34.0720   25.0250 H   0  0  0  0  0  0  0  0  0  0  0  0
  -24.1590  -36.7790   23.1750 C   0  0  0  0  0  1  0  0  0  0  0  0
  -25.4330  -36.3740   23.9350 C   0  0  0  0  0  3  0  0  0  0  0  0
  -27.5890  -37.2760   24.6900 C   0  0  0  0  0  1  0  0  0  0  0  0
  -26.4530  -37.4350   23.7860 N   0  0  0  0  0  0  0  0  0  0  0  0
  -26.0450  -38.3510   23.9480 H   0  0  0  0  0  0  0  0  0  0  0  0
  2  5  1  0
  2  3  2  0
  3  6  1  0
  4  6  1  0
  4  7  1  0
  5  4  2  0
  6  1  1  0
  7  8  1  1
  9  7  1  0
 10  7  1  0
 11 16  1  0
 12 13  1  0
 12 11  1  0
 14 13  1  0
 14 21  1  0
 14 15  1  0
 16 10  1  0
 16 15  1  0
 17 10  2  0
 18 19  2  0
 19 38  1  0
 20 19  1  0
 20 23  1  0
 21 22  1  0
 21 18  1  0
 22 20  2  0
 23 24  1  0
 24 25  2  0
 26 29  1  0
 26 25  1  0
 27 26  2  0
 28 27  1  0
 28 23  2  0
 29 30  1  0
 30 31  1  0
 31 32  2  0
 33 32  1  0
 33 37  1  0
 34 33  2  0
 35 30  2  0
 35 34  1  0
 36 35  1  0
 38 39  1  0
 39 42  1  0
 39 41  1  0
 40 38  2  0
 43 18  1  0
 43 44  1  0
 45 43  1  0
 46 47  2  0
 46  1  1  0
 47 48  1  0
 49 60  2  0
 50 48  1  0
 50 55  1  0
 51 59  1  0
 51 61  1  0
 52 58  1  0
 52 54  1  0
 53 59  1  0
 54 53  1  0
 55 54  2  0
 56 50  2  0
 57 56  1  0
 57 52  2  0
 58 51  1  0
 59 49  1  0
 61 63  2  0
 62 61  1  0
 64 62  1  0
 65 74  2  0
 65 70  1  0
 66 62  1  0
 66 70  1  0
 67 66  1  0
 68 69  1  0
 68 67  1  0
 69 65  1  0
 70 71  2  0
 71 72  1  0
 73 72  2  0
 74 73  1  0
 75 49  1  0
 75 80  1  0
 75 76  1  0
 76 79  1  1
 76 77  1  0
 78 76  1  0
 80 83  1  0
 81 85  1  0
 81 80  1  0
 82 81  2  0
 85 84  1  0
 87 85  1  0
 87 88  1  0
 87 86  1  0
M  ISO  4   7 100  10 100  47 101  48 101
M  END
>  <TORSDO>  (90) 
F 20

>  <SCORE>  (90) 
-16.104

>  <name>  (90) 
92

>  <ligand_id>  (90) 
92

>  <original_smiles>  (90) 
[H]c1nc(C(F)(F)C(=O)N2C([H])([H])C([H])([H])C([H])([H])C([H])(n3nc(-c4c([H])c([H])c(Oc5c([H])c([H])c(F)c([H])c5F)c([H])c4[H])c(C(=O)N([H])[H])c3N([H])[H])C2([H])[H])n(C([H])([H])C([H])([H])C([H])([H])Oc2c([H])c([H])c3c(c2[H])C([H])([H])N(C(=O)C([H])(N([H])C(=O)C([H])(N([H])C([H])([H])[H])C([H])([H])[H])C(C([H])([H])[H])(C([H])([H])[H])C([H])([H])[H])C([H])(C(=O)N([H])C2([H])c4c([H])c([H])c([H])c([H])c4C([H])([H])C([H])([H])C2([H])[H])C3([H])[H])c1[H]

>  <smiles>  (90) 
[H]c1nc(C(F)(F)C(=O)N2C([H])([H])C([H])([H])C([H])([H])C([H])(n3nc(-c4c([H])c([H])c(Oc5c([H])c([H])c(F)c([H])c5F)c([H])c4[H])c(C(=O)N([H])[H])c3N([H])[H])C2([H])[H])n(C([H])([H])C([H])([H])C([H])([H])Oc2c([H])c([H])c3c(c2[H])C([H])([H])N(C(=O)C([H])(N([H])C(=O)C([H])(N([H])C([H])([H])[H])C([H])([H])[H])C(C([H])([H])[H])(C([H])([H])[H])C([H])([H])[H])C([H])(C(=O)N([H])C2([H])c4c([H])c([H])c([H])c([H])c4C([H])([H])C([H])([H])C2([H])[H])C3([H])[H])c1[H]

$$$$
93:0:0
     RDKit          3D

 94102  0  0  1  0  0  0  0  0999 V2000
  -28.8820  -19.7440   20.0280 C   0  0  0  0  0  2  0  0  0  0  0  0
  -30.9720  -20.4830   20.2280 C   0  0  2  0  0  0  0  0  0  0  0  0
  -32.4270  -20.1080   19.8450 C   0  0  0  0  0  1  0  0  0  0  0  0
  -28.8720  -20.7580   19.2330 N   0  0  0  0  0  2  0  0  0  0  0  0
  -30.1100  -19.3150   20.5060 N   0  0  0  0  0  0  0  0  0  0  0  0
  -30.2320  -21.0600   19.0670 N   0  0  1  0  0  4  0  0  0  0  0  0
  -30.4950  -20.4320   18.3210 H   0  0  0  0  0  0  0  0  0  0  0  0
  -32.0090  -22.5060   21.6600 C   0  0  0  0  0  1  0  0  0  0  0  0
  -30.9360  -21.4060   21.4980 C   0  0  0  0  0  2  0  0  0  0  0  0
  -30.5650  -17.9860   20.0760 C   0  0  0  0  0  2  0  0  0  0  0  0
  -29.6810  -16.7560   20.4520 C   0  0  0  0  0  2  0  0  0  0  0  0
  -30.7780  -14.5260   20.6300 C   0  0  0  0  0  0  0  0  0  0  0  0
  -30.5070  -12.2770   19.7290 C   0  0  0  0  0  2  0  0  0  0  0  0
  -29.6070  -12.3180   18.4730 C   0  0  0  0  0  2  0  0  0  0  0  0
  -28.1200  -12.2460   18.8510 C   0  0  0  0  0  2  0  0  0  0  0  0
  -27.7180  -13.2030   20.0070 C   0  0  0  0  0  3  0  0  0  0  0  0
  -28.7340  -13.1370   21.1720 C   0  0  0  0  0  2  0  0  0  0  0  0
  -30.0780  -13.3610   20.6170 N   0  0  0  0  0  0  0  0  0  0  0  0
  -32.0070  -14.5620   20.6570 O   0  0  0  0  0  0  0  0  0  0  0  0
  -30.7390  -15.6540   18.5120 C   0  0  0  0  0  1  0  0  0  0  0  0
  -30.1940  -15.4890   19.8770 N   0  0  0  0  0  0  0  0  0  0  0  0
  -25.2910  -13.8200   20.6030 C   0  0  0  0  0  0  0  0  0  0  0  0
  -24.2040  -13.0490   20.9290 C   0  0  0  0  0  0  0  0  0  0  0  0
  -24.6710  -11.7000   20.9510 C   0  0  0  0  0  0  0  0  0  0  0  0
  -26.3490  -12.9380   20.4450 N   0  0  0  0  0  0  0  0  0  0  0  0
  -25.9770  -11.6610   20.7210 N   0  0  0  0  0  0  0  0  0  0  0  0
  -23.9400  -10.4350   21.1190 C   0  0  0  0  0  0  0  0  0  0  0  0
  -24.3320   -9.4760   22.0800 C   0  0  0  0  0  3  0  0  0  0  0  0
  -23.6000   -8.2790   22.2360 C   0  0  0  0  0  3  0  0  0  0  0  0
  -22.4650   -8.0290   21.4300 C   0  0  0  0  0  0  0  0  0  0  0  0
  -22.0950   -8.9750   20.4590 C   0  0  0  0  0  3  0  0  0  0  0  0
  -22.8260  -10.1640   20.3020 C   0  0  0  0  0  3  0  0  0  0  0  0
  -21.7110   -6.8810   21.4970 O   0  0  0  0  0  0  0  0  0  0  0  0
  -21.6180   -6.1480   22.6530 C   0  0  0  0  0  0  0  0  0  0  0  0
  -21.1350   -6.7100   23.8560 C   0  0  0  0  0  3  0  0  0  0  0  0
  -20.9920   -5.9030   25.0020 C   0  0  0  0  0  3  0  0  0  0  0  0
  -21.3190   -4.5350   24.9470 C   0  0  0  0  0  0  0  0  0  0  0  0
  -21.7950   -3.9720   23.7490 C   0  0  0  0  0  3  0  0  0  0  0  0
  -21.9410   -4.7760   22.6050 C   0  0  0  0  0  0  0  0  0  0  0  0
  -22.3810   -4.2240   21.4480 F   0  0  0  0  0  0  0  0  0  0  0  0
  -21.1730   -3.7580   26.0450 F   0  0  0  0  0  0  0  0  0  0  0  0
  -22.7940  -13.5260   21.1150 C   0  0  0  0  0  0  0  0  0  0  0  0
  -22.0170  -12.8420   21.9520 N   0  0  0  0  0  0  0  0  0  0  0  0
  -22.3830  -14.5400   20.5550 O   0  0  0  0  0  0  0  0  0  0  0  0
  -22.3560  -12.0170   22.4250 H   0  0  0  0  0  0  0  0  0  0  0  0
  -21.0700  -13.1510   22.1220 H   0  0  0  0  0  0  0  0  0  0  0  0
  -25.4710  -15.1850   20.4050 N   0  0  0  0  0  0  0  0  0  0  0  0
  -24.7130  -15.8570   20.4560 H   0  0  0  0  0  0  0  0  0  0  0  0
  -26.3510  -15.5980   20.1260 H   0  0  0  0  0  0  0  0  0  0  0  0
  -30.6370  -22.3740   18.4750 C   0  0  0  0  0  2  0  0  0  0  0  0
  -29.5390  -23.4610   18.2940 C   0  0  0  0  0  2  0  0  0  0  0  0
  -29.5800  -24.6450   19.2890 C   0  0  0  0  0  2  0  0  0  0  0  0
  -28.3150  -25.5070   19.1580 C   0  0  0  0  0  2  0  0  0  0  0  0
  -28.2970  -26.6650   20.0050 O   0  0  0  0  0  0  0  0  0  0  0  0
  -24.5540  -31.8550   23.2070 C   0  0  0  0  0  0  0  0  0  0  0  0
  -27.1190  -27.3950   20.0450 C   0  0  0  0  0  0  0  0  0  0  0  0
  -23.3190  -30.4780   21.5710 C   0  0  0  0  0  3  0  0  0  0  0  0
  -24.7390  -28.9380   20.1260 C   0  0  0  0  0  0  0  0  0  0  0  0
  -25.8530  -30.7970   21.3600 C   0  0  0  0  0  2  0  0  0  0  0  0
  -25.9120  -29.4300   20.7090 C   0  0  0  0  0  0  0  0  0  0  0  0
  -27.1010  -28.6600   20.6800 C   0  0  0  0  0  3  0  0  0  0  0  0
  -25.9130  -26.9260   19.4640 C   0  0  0  0  0  3  0  0  0  0  0  0
  -24.7320  -27.6790   19.5150 C   0  0  0  0  0  3  0  0  0  0  0  0
  -23.5080  -29.8100   20.1870 C   0  0  0  0  0  2  0  0  0  0  0  0
  -24.5930  -31.0610   22.1010 N   0  0  0  0  0  0  0  0  0  0  0  0
  -23.4790  -32.1380   23.7530 O   0  0  0  0  0  0  0  0  0  0  0  0
  -22.6690  -29.4520   22.5260 C   0  0  0  0  0  0  0  0  0  0  0  0
  -21.3410  -29.2860   22.4070 N   0  0  0  0  0  0  0  0  0  0  0  0
  -23.3540  -28.8110   23.3300 O   0  0  0  0  0  0  0  0  0  0  0  0
  -20.8510  -29.8500   21.7260 H   0  0  0  0  0  0  0  0  0  0  0  0
  -17.9560  -28.1340   22.9290 C   0  0  0  0  0  0  0  0  0  0  0  0
  -20.5190  -28.3540   23.1770 C   0  0  0  0  0  3  0  0  0  0  0  0
  -20.5970  -26.9260   22.5910 C   0  0  0  0  0  2  0  0  0  0  0  0
  -19.4790  -26.6260   21.5850 C   0  0  0  0  0  2  0  0  0  0  0  0
  -18.1060  -26.7860   22.2420 C   0  0  0  0  0  2  0  0  0  0  0  0
  -19.0900  -28.8760   23.3530 C   0  0  0  0  0  0  0  0  0  0  0  0
  -18.8960  -30.1400   23.9530 C   0  0  0  0  0  3  0  0  0  0  0  0
  -17.6020  -30.6610   24.1310 C   0  0  0  0  0  3  0  0  0  0  0  0
  -16.4820  -29.9150   23.7230 C   0  0  0  0  0  3  0  0  0  0  0  0
  -16.6600  -28.6530   23.1300 C   0  0  0  0  0  3  0  0  0  0  0  0
  -25.8530  -32.4680   23.8180 C   0  0  0  0  0  3  0  0  0  0  0  0
  -25.5610  -33.8680   24.1560 N   0  0  0  0  0  0  0  0  0  0  0  0
  -25.8960  -34.9200   23.3960 C   0  0  0  0  0  0  0  0  0  0  0  0
  -26.5550  -34.8120   22.3580 O   0  0  0  0  0  0  0  0  0  0  0  0
  -24.9740  -34.0270   24.9610 H   0  0  0  0  0  0  0  0  0  0  0  0
  -24.1830  -36.7290   23.0550 C   0  0  0  0  0  1  0  0  0  0  0  0
  -25.4240  -36.3100   23.8620 C   0  0  0  0  0  3  0  0  0  0  0  0
  -27.5670  -37.1690   24.6940 C   0  0  0  0  0  1  0  0  0  0  0  0
  -26.4660  -37.3520   23.7520 N   0  0  0  0  0  0  0  0  0  0  0  0
  -26.0700  -38.2760   23.9000 H   0  0  0  0  0  0  0  0  0  0  0  0
  -26.3740  -31.6830   25.0840 C   0  0  1  0  0  0  0  0  0  0  0  0
  -25.2880  -31.4530   26.1600 C   0  0  0  0  0  1  0  0  0  0  0  0
  -26.9420  -30.3020   24.6800 C   0  0  0  0  0  1  0  0  0  0  0  0
  -27.5370  -32.4630   25.7400 C   0  0  0  0  0  1  0  0  0  0  0  0
  1  5  1  0
  2  3  1  6
  2  5  1  0
  2  9  1  0
  4  1  1  0
  6  4  1  0
  6  2  1  0
  6  7  1  6
  9  8  1  0
 10 11  1  0
 10  5  1  0
 12 19  2  0
 13 18  1  0
 14 15  1  0
 14 13  1  0
 16 15  1  0
 16 25  1  0
 16 17  1  0
 18 12  1  0
 18 17  1  0
 20 21  1  0
 21 11  1  0
 21 12  1  0
 22 23  2  0
 23 24  1  0
 23 42  1  0
 24 27  1  0
 25 22  1  0
 25 26  1  0
 26 24  2  0
 27 28  1  0
 28 29  2  0
 30 33  1  0
 30 29  1  0
 31 30  2  0
 32 31  1  0
 32 27  2  0
 33 34  1  0
 34 35  1  0
 35 36  2  0
 37 36  1  0
 37 41  1  0
 38 37  2  0
 39 34  2  0
 39 38  1  0
 40 39  1  0
 42 43  1  0
 43 46  1  0
 43 45  1  0
 44 42  2  0
 47 48  1  0
 47 22  1  0
 49 47  1  0
 50  6  1  0
 51 50  1  0
 51 52  1  0
 53 52  1  0
 53 54  1  0
 54 56  1  0
 55 66  2  0
 56 61  1  0
 57 65  1  0
 57 67  1  0
 58 64  1  0
 58 60  1  0
 59 65  1  0
 60 59  1  0
 61 60  2  0
 62 63  1  0
 62 56  2  0
 63 58  2  0
 64 57  1  0
 65 55  1  0
 67 69  2  0
 68 67  1  0
 70 68  1  0
 71 80  2  0
 71 76  1  0
 72 68  1  0
 72 76  1  0
 73 72  1  0
 74 75  1  0
 74 73  1  0
 75 71  1  0
 76 77  2  0
 77 78  1  0
 79 78  2  0
 80 79  1  0
 81 55  1  0
 81 82  1  0
 81 91  1  0
 82 85  1  0
 83 87  1  0
 83 82  1  0
 84 83  2  0
 87 86  1  0
 89 87  1  0
 89 90  1  0
 89 88  1  0
 91 94  1  1
 91 92  1  0
 93 91  1  0
M  ISO  4  12 100  21 100  53 101  54 101
M  END
>  <TORSDO>  (91) 
F 23

>  <SCORE>  (91) 
-12.195

>  <name>  (91) 
93

>  <ligand_id>  (91) 
93

>  <original_smiles>  (91) 
[H]C1=N[N+]([H])(C([H])([H])C([H])([H])C([H])([H])C([H])([H])Oc2c([H])c([H])c3c(c2[H])C([H])([H])N(C(=O)C([H])(N([H])C(=O)C([H])(N([H])C([H])([H])[H])C([H])([H])[H])C(C([H])([H])[H])(C([H])([H])[H])C([H])([H])[H])C([H])(C(=O)N([H])C2([H])c4c([H])c([H])c([H])c([H])c4C([H])([H])C([H])([H])C2([H])[H])C3([H])[H])C(C([H])([H])[H])(C([H])([H])C([H])([H])[H])N1C([H])([H])C([H])([H])N(C(=O)N1C([H])([H])C([H])([H])C([H])([H])C([H])(n2nc(-c3c([H])c([H])c(Oc4c([H])c([H])c(F)c([H])c4F)c([H])c3[H])c(C(=O)N([H])[H])c2N([H])[H])C1([H])[H])C([H])([H])[H]

>  <smiles>  (91) 
[H]C1=N[N+]([H])(C([H])([H])C([H])([H])C([H])([H])C([H])([H])Oc2c([H])c([H])c3c(c2[H])C([H])([H])N(C(=O)C([H])(N([H])C(=O)C([H])(N([H])C([H])([H])[H])C([H])([H])[H])C(C([H])([H])[H])(C([H])([H])[H])C([H])([H])[H])C([H])(C(=O)N([H])C2([H])c4c([H])c([H])c([H])c([H])c4C([H])([H])C([H])([H])C2([H])[H])C3([H])[H])C(C([H])([H])[H])(C([H])([H])C([H])([H])[H])N1C([H])([H])C([H])([H])N(C(=O)N1C([H])([H])C([H])([H])C([H])([H])C([H])(n2nc(-c3c([H])c([H])c(Oc4c([H])c([H])c(F)c([H])c4F)c([H])c3[H])c(C(=O)N([H])[H])c2N([H])[H])C1([H])[H])C([H])([H])[H]

$$$$
