0:0:0
     RDKit          3D

 94102  0  0  1  0  0  0  0  0999 V2000
  -31.1340  -20.7900   21.6470 C   0  0  0  0  0  3  0  0  0  0  0  0
  -30.7330  -23.1780   21.4370 C   0  0  0  0  0  3  0  0  0  0  0  0
  -31.4940  -22.1150   21.9580 C   0  0  0  0  0  0  0  0  0  0  0  0
  -30.0410  -20.5390   20.7850 C   0  0  0  0  0  3  0  0  0  0  0  0
  -29.6450  -22.9160   20.5740 C   0  0  0  0  0  0  0  0  0  0  0  0
  -29.3410  -21.6090   20.2910 N   0  0  0  0  0  0  0  0  0  0  0  0
  -28.5920  -21.4210   19.6220 H   0  0  0  0  0  0  0  0  0  0  0  0
  -32.6230  -22.3730   22.7370 N   0  0  0  0  0  0  0  0  0  0  0  0
  -33.3310  -21.6490   22.7320 H   0  0  0  0  0  0  0  0  0  0  0  0
  -33.0410  -23.2910   22.6220 H   0  0  0  0  0  0  0  0  0  0  0  0
  -29.7620  -19.1040   20.2800 C   0  0  0  0  0  2  0  0  0  0  0  0
  -29.7030  -17.9560   21.3500 C   0  0  0  0  0  2  0  0  0  0  0  0
  -30.5010  -16.6250   21.0540 C   0  0  0  0  0  2  0  0  0  0  0  0
  -30.5700  -14.4040   19.9810 C   0  0  0  0  0  0  0  0  0  0  0  0
  -30.2020  -12.2110   18.9080 C   0  0  0  0  0  2  0  0  0  0  0  0
  -29.1840  -12.3830   17.7610 C   0  0  0  0  0  2  0  0  0  0  0  0
  -27.7470  -12.2180   18.2910 C   0  0  0  0  0  2  0  0  0  0  0  0
  -27.4770  -13.0550   19.5690 C   0  0  0  0  0  3  0  0  0  0  0  0
  -28.6160  -12.9240   20.6050 C   0  0  0  0  0  2  0  0  0  0  0  0
  -29.8820  -13.2260   19.9240 N   0  0  0  0  0  0  0  0  0  0  0  0
  -31.7440  -14.4900   19.6070 O   0  0  0  0  0  0  0  0  0  0  0  0
  -29.0460  -16.0850   19.1530 C   0  0  0  0  0  1  0  0  0  0  0  0
  -29.8600  -15.5450   20.2500 N   0  0  0  0  0  0  0  0  0  0  0  0
  -25.1440  -13.6570   20.4520 C   0  0  0  0  0  0  0  0  0  0  0  0
  -24.1070  -12.8790   20.8870 C   0  0  0  0  0  0  0  0  0  0  0  0
  -24.5690  -11.5310   20.8170 C   0  0  0  0  0  0  0  0  0  0  0  0
  -26.1700  -12.7750   20.1470 N   0  0  0  0  0  0  0  0  0  0  0  0
  -25.8350  -11.4920   20.4250 N   0  0  0  0  0  0  0  0  0  0  0  0
  -23.8630  -10.2650   21.0470 C   0  0  0  0  0  0  0  0  0  0  0  0
  -24.3440   -9.3140   21.9720 C   0  0  0  0  0  3  0  0  0  0  0  0
  -23.6420   -8.1100   22.1870 C   0  0  0  0  0  3  0  0  0  0  0  0
  -22.4450   -7.8500   21.4770 C   0  0  0  0  0  0  0  0  0  0  0  0
  -21.9850   -8.7910   20.5390 C   0  0  0  0  0  3  0  0  0  0  0  0
  -22.6880   -9.9870   20.3230 C   0  0  0  0  0  3  0  0  0  0  0  0
  -21.7090   -6.6980   21.6030 O   0  0  0  0  0  0  0  0  0  0  0  0
  -21.6950   -5.9790   22.7700 C   0  0  0  0  0  0  0  0  0  0  0  0
  -21.2680   -6.5460   23.9910 C   0  0  0  0  0  3  0  0  0  0  0  0
  -21.2050   -5.7490   25.1520 C   0  0  0  0  0  3  0  0  0  0  0  0
  -21.5580   -4.3880   25.0910 C   0  0  0  0  0  0  0  0  0  0  0  0
  -21.9770   -3.8210   23.8750 C   0  0  0  0  0  3  0  0  0  0  0  0
  -22.0440   -4.6150   22.7170 C   0  0  0  0  0  0  0  0  0  0  0  0
  -22.4310   -4.0600   21.5430 F   0  0  0  0  0  0  0  0  0  0  0  0
  -21.4890   -3.6220   26.2060 F   0  0  0  0  0  0  0  0  0  0  0  0
  -22.7300  -13.3510   21.2520 C   0  0  0  0  0  0  0  0  0  0  0  0
  -22.0640  -12.6440   22.1600 N   0  0  0  0  0  0  0  0  0  0  0  0
  -22.2560  -14.3790   20.7700 O   0  0  0  0  0  0  0  0  0  0  0  0
  -22.4610  -11.8120   22.5680 H   0  0  0  0  0  0  0  0  0  0  0  0
  -21.1410  -12.9390   22.4440 H   0  0  0  0  0  0  0  0  0  0  0  0
  -25.2960  -15.0280   20.2720 N   0  0  0  0  0  0  0  0  0  0  0  0
  -24.5440  -15.6890   20.4340 H   0  0  0  0  0  0  0  0  0  0  0  0
  -26.1410  -15.4650   19.9270 H   0  0  0  0  0  0  0  0  0  0  0  0
  -28.9370  -24.0870   19.8490 C   0  0  0  0  0  2  0  0  0  0  0  0
  -28.3240  -25.2220   20.7370 C   0  0  0  0  0  2  0  0  0  0  0  0
  -28.3780  -26.5400   20.1350 O   0  0  0  0  0  0  0  0  0  0  0  0
  -24.5400  -31.7510   23.1980 C   0  0  0  0  0  0  0  0  0  0  0  0
  -27.2190  -27.2950   20.1460 C   0  0  0  0  0  0  0  0  0  0  0  0
  -23.3660  -30.3810   21.5070 C   0  0  0  0  0  3  0  0  0  0  0  0
  -24.8420  -28.8380   20.1080 C   0  0  0  0  0  0  0  0  0  0  0  0
  -25.9020  -30.7100   21.3840 C   0  0  0  0  0  2  0  0  0  0  0  0
  -25.9920  -29.3460   20.7250 C   0  0  0  0  0  0  0  0  0  0  0  0
  -27.1890  -28.5870   20.7270 C   0  0  0  0  0  3  0  0  0  0  0  0
  -26.0510  -26.8030   19.5300 C   0  0  0  0  0  3  0  0  0  0  0  0
  -24.8680  -27.5680   19.5030 C   0  0  0  0  0  3  0  0  0  0  0  0
  -23.6060  -29.7120   20.1270 C   0  0  0  0  0  2  0  0  0  0  0  0
  -24.6190  -30.9620   22.0890 N   0  0  0  0  0  0  0  0  0  0  0  0
  -23.4470  -32.0300   23.7110 O   0  0  0  0  0  0  0  0  0  0  0  0
  -22.6730  -29.3600   22.4380 C   0  0  0  0  0  0  0  0  0  0  0  0
  -21.3490  -29.2040   22.2790 N   0  0  0  0  0  0  0  0  0  0  0  0
  -23.3260  -28.7100   23.2600 O   0  0  0  0  0  0  0  0  0  0  0  0
  -20.8840  -29.7800   21.5900 H   0  0  0  0  0  0  0  0  0  0  0  0
  -17.9420  -28.0710   22.6940 C   0  0  0  0  0  0  0  0  0  0  0  0
  -20.4990  -28.2680   23.0160 C   0  0  0  0  0  3  0  0  0  0  0  0
  -20.5820  -26.8470   22.4110 C   0  0  0  0  0  2  0  0  0  0  0  0
  -19.4940  -26.5690   21.3700 C   0  0  0  0  0  2  0  0  0  0  0  0
  -18.1040  -26.7310   21.9950 C   0  0  0  0  0  2  0  0  0  0  0  0
  -19.0690  -28.7990   23.1590 C   0  0  0  0  0  0  0  0  0  0  0  0
  -18.8680  -30.0550   23.7720 C   0  0  0  0  0  3  0  0  0  0  0  0
  -17.5710  -30.5800   23.9260 C   0  0  0  0  0  3  0  0  0  0  0  0
  -16.4580  -29.8480   23.4780 C   0  0  0  0  0  3  0  0  0  0  0  0
  -16.6450  -28.5940   22.8680 C   0  0  0  0  0  3  0  0  0  0  0  0
  -25.8160  -32.3600   23.8610 C   0  0  0  0  0  3  0  0  0  0  0  0
  -25.5140  -33.7590   24.1940 N   0  0  0  0  0  0  0  0  0  0  0  0
  -25.8850  -34.8130   23.4550 C   0  0  0  0  0  0  0  0  0  0  0  0
  -26.5820  -34.7090   22.4430 O   0  0  0  0  0  0  0  0  0  0  0  0
  -24.8910  -33.9140   24.9720 H   0  0  0  0  0  0  0  0  0  0  0  0
  -24.1890  -36.6300   23.0740 C   0  0  0  0  0  1  0  0  0  0  0  0
  -25.4040  -36.2030   23.9120 C   0  0  0  0  0  3  0  0  0  0  0  0
  -27.5240  -37.0540   24.8120 C   0  0  0  0  0  1  0  0  0  0  0  0
  -26.4530  -37.2430   23.8360 N   0  0  0  0  0  0  0  0  0  0  0  0
  -26.0550  -38.1680   23.9790 H   0  0  0  0  0  0  0  0  0  0  0  0
  -26.2870  -31.5720   25.1450 C   0  0  1  0  0  0  0  0  0  0  0  0
  -25.1600  -31.3380   26.1780 C   0  0  0  0  0  1  0  0  0  0  0  0
  -26.8630  -30.1900   24.7560 C   0  0  0  0  0  1  0  0  0  0  0  0
  -27.4270  -32.3460   25.8470 C   0  0  0  0  0  1  0  0  0  0  0  0
  1  3  2  0
  2  3  1  0
  3  8  1  0
  4 11  1  0
  4  1  1  0
  5  2  2  0
  6  5  1  0
  6  4  1  0
  7  6  1  0
  9  8  1  0
 10  8  1  0
 11 12  1  0
 13 12  1  0
 14 23  1  0
 15 20  1  0
 16 17  1  0
 16 15  1  0
 18 17  1  0
 18 27  1  0
 18 19  1  0
 20 14  1  0
 20 19  1  0
 21 14  2  0
 22 23  1  0
 23 13  1  0
 24 25  2  0
 25 44  1  0
 26 25  1  0
 26 29  1  0
 27 28  1  0
 27 24  1  0
 28 26  2  0
 29 30  1  0
 30 31  2  0
 32 35  1  0
 32 31  1  0
 33 32  2  0
 34 33  1  0
 34 29  2  0
 35 36  1  0
 36 37  1  0
 37 38  2  0
 39 38  1  0
 39 43  1  0
 40 39  2  0
 41 36  2  0
 41 40  1  0
 42 41  1  0
 44 45  1  0
 45 48  1  0
 45 47  1  0
 46 44  2  0
 49 50  1  0
 49 24  1  0
 51 49  1  0
 52  5  1  0
 52 53  1  0
 54 56  1  0
 54 53  1  0
 55 66  2  0
 56 61  1  0
 57 65  1  0
 57 67  1  0
 58 64  1  0
 58 60  1  0
 59 65  1  0
 60 61  2  0
 60 59  1  0
 62 56  2  0
 63 62  1  0
 63 58  2  0
 64 57  1  0
 65 55  1  0
 67 69  2  0
 68 67  1  0
 70 68  1  0
 71 80  2  0
 71 76  1  0
 72 68  1  0
 72 76  1  0
 73 72  1  0
 74 75  1  0
 74 73  1  0
 75 71  1  0
 76 77  2  0
 77 78  1  0
 79 78  2  0
 80 79  1  0
 81 55  1  0
 81 82  1  0
 81 91  1  0
 82 85  1  0
 83 87  1  0
 83 82  1  0
 84 83  2  0
 87 86  1  0
 89 87  1  0
 89 90  1  0
 89 88  1  0
 91 94  1  1
 91 92  1  0
 93 91  1  0
M  ISO  4  14 100  23 100  53 101  54 101
M  END
>  <TORSDO>  (1) 
F 22

>  <SCORE>  (1) 
-11.608

>  <name>  (1) 
0

>  <ligand_id>  (1) 
0

>  <original_smiles>  (1) 
[H]c1c([H])c([H])c2c(c1[H])C([H])([H])C([H])([H])C([H])([H])C2([H])N([H])C(=O)C1([H])N(C(=O)C([H])(N([H])C(=O)C([H])(N([H])C([H])([H])[H])C([H])([H])[H])C(C([H])([H])[H])(C([H])([H])[H])C([H])([H])[H])C([H])([H])c2c([H])c(OC([H])([H])C([H])([H])c3c([H])c(N([H])[H])c([H])c(C([H])([H])C([H])([H])C([H])([H])N(C(=O)N4C([H])([H])C([H])([H])C([H])([H])C([H])(n5nc(-c6c([H])c([H])c(Oc7c([H])c([H])c(F)c([H])c7F)c([H])c6[H])c(C(=O)N([H])[H])c5N([H])[H])C4([H])[H])C([H])([H])[H])[n+]3[H])c([H])c([H])c2C1([H])[H]

>  <smiles>  (1) 
[H]c1c([H])c([H])c2c(c1[H])C([H])([H])C([H])([H])C([H])([H])C2([H])N([H])C(=O)C1([H])N(C(=O)C([H])(N([H])C(=O)C([H])(N([H])C([H])([H])[H])C([H])([H])[H])C(C([H])([H])[H])(C([H])([H])[H])C([H])([H])[H])C([H])([H])c2c([H])c(OC([H])([H])C([H])([H])c3c([H])c(N([H])[H])c([H])c(C([H])([H])C([H])([H])C([H])([H])N(C(=O)N4C([H])([H])C([H])([H])C([H])([H])C([H])(n5nc(-c6c([H])c([H])c(Oc7c([H])c([H])c(F)c([H])c7F)c([H])c6[H])c(C(=O)N([H])[H])c5N([H])[H])C4([H])[H])C([H])([H])[H])[n+]3[H])c([H])c([H])c2C1([H])[H]

$$$$
1:0:0
     RDKit          3D

 91 99  0  0  1  0  0  0  0  0999 V2000
  -30.9420  -19.6350   20.0160 C   0  0  0  0  0  3  0  0  0  0  0  0
  -29.9920  -18.6530   20.3710 C   0  0  0  0  0  0  0  0  0  0  0  0
  -28.6760  -19.1480   20.4310 C   0  0  0  0  0  0  0  0  0  0  0  0
  -29.3350  -21.2820   19.8080 C   0  0  0  0  0  0  0  0  0  0  0  0
  -30.6140  -20.9230   19.7230 N   0  0  0  0  0  0  0  0  0  0  0  0
  -28.3630  -20.4410   20.1540 N   0  0  0  0  0  0  0  0  0  0  0  0
  -27.6730  -18.3100   20.7820 F   0  0  0  0  0  0  0  0  0  0  0  0
  -30.4130  -17.1930   20.7960 C   0  0  0  0  0  2  0  0  0  0  0  0
  -30.6870  -14.7640   20.1490 C   0  0  0  0  0  0  0  0  0  0  0  0
  -30.3810  -12.4970   19.2050 C   0  0  0  0  0  2  0  0  0  0  0  0
  -29.4210  -12.5540   18.0020 C   0  0  0  0  0  2  0  0  0  0  0  0
  -27.9530  -12.4480   18.4680 C   0  0  0  0  0  2  0  0  0  0  0  0
  -27.6080  -13.3350   19.6990 C   0  0  0  0  0  3  0  0  0  0  0  0
  -28.7100  -13.2890   20.7810 C   0  0  0  0  0  2  0  0  0  0  0  0
  -29.9900  -13.5830   20.1190 N   0  0  0  0  0  0  0  0  0  0  0  0
  -31.9110  -14.7770   20.0020 O   0  0  0  0  0  0  0  0  0  0  0  0
  -29.9910  -15.9590   20.0350 N   0  0  0  0  0  0  0  0  0  0  0  0
  -25.2330  -13.9180   20.4710 C   0  0  0  0  0  0  0  0  0  0  0  0
  -24.1790  -13.1360   20.8510 C   0  0  0  0  0  0  0  0  0  0  0  0
  -24.6480  -11.7890   20.8060 C   0  0  0  0  0  0  0  0  0  0  0  0
  -26.2800  -13.0450   20.2240 N   0  0  0  0  0  0  0  0  0  0  0  0
  -25.9380  -11.7590   20.4910 N   0  0  0  0  0  0  0  0  0  0  0  0
  -23.9320  -10.5220   20.9960 C   0  0  0  0  0  0  0  0  0  0  0  0
  -24.3720   -9.5620   21.9320 C   0  0  0  0  0  3  0  0  0  0  0  0
  -23.6570   -8.3600   22.1110 C   0  0  0  0  0  3  0  0  0  0  0  0
  -22.4870   -8.1100   21.3570 C   0  0  0  0  0  0  0  0  0  0  0  0
  -22.0660   -9.0600   20.4100 C   0  0  0  0  0  3  0  0  0  0  0  0
  -22.7830  -10.2540   20.2290 C   0  0  0  0  0  3  0  0  0  0  0  0
  -21.7380   -6.9620   21.4510 O   0  0  0  0  0  0  0  0  0  0  0  0
  -21.6820   -6.2280   22.6100 C   0  0  0  0  0  0  0  0  0  0  0  0
  -21.2220   -6.7870   23.8240 C   0  0  0  0  0  3  0  0  0  0  0  0
  -21.1140   -5.9800   24.9740 C   0  0  0  0  0  3  0  0  0  0  0  0
  -21.4600   -4.6170   24.9110 C   0  0  0  0  0  0  0  0  0  0  0  0
  -21.9150   -4.0570   23.7040 C   0  0  0  0  0  3  0  0  0  0  0  0
  -22.0210   -4.8610   22.5560 C   0  0  0  0  0  0  0  0  0  0  0  0
  -22.4390   -4.3140   21.3880 F   0  0  0  0  0  0  0  0  0  0  0  0
  -21.3470   -3.8380   26.0140 F   0  0  0  0  0  0  0  0  0  0  0  0
  -22.7810  -13.6010   21.1410 C   0  0  0  0  0  0  0  0  0  0  0  0
  -22.0690  -12.9050   22.0190 N   0  0  0  0  0  0  0  0  0  0  0  0
  -22.3290  -14.6200   20.6190 O   0  0  0  0  0  0  0  0  0  0  0  0
  -22.4470  -12.0860   22.4700 H   0  0  0  0  0  0  0  0  0  0  0  0
  -21.1290  -13.1990   22.2460 H   0  0  0  0  0  0  0  0  0  0  0  0
  -25.3760  -15.2940   20.2940 N   0  0  0  0  0  0  0  0  0  0  0  0
  -24.6000  -15.9330   20.4330 H   0  0  0  0  0  0  0  0  0  0  0  0
  -26.2240  -15.7550   19.9880 H   0  0  0  0  0  0  0  0  0  0  0  0
  -30.3310  -16.8600   17.6660 C   0  0  0  0  0  1  0  0  0  0  0  0
  -29.3680  -16.2770   18.7300 C   0  0  0  0  0  2  0  0  0  0  0  0
  -28.9170  -22.6820   19.2610 C   0  0  0  0  0  2  0  0  0  0  0  0
  -29.2250  -24.0270   20.0370 C   0  0  0  0  0  2  0  0  0  0  0  0
  -28.3220  -25.2250   19.5440 C   0  0  0  0  0  2  0  0  0  0  0  0
  -28.4490  -26.5980   20.0720 O   0  0  0  0  0  0  0  0  0  0  0  0
  -24.6160  -31.8820   23.1670 C   0  0  0  0  0  0  0  0  0  0  0  0
  -27.3170  -27.4320   20.0250 C   0  0  0  0  0  0  0  0  0  0  0  0
  -23.4440  -30.5060   21.4840 C   0  0  0  0  0  3  0  0  0  0  0  0
  -24.9270  -29.0060   20.0470 C   0  0  0  0  0  0  0  0  0  0  0  0
  -25.9850  -30.8510   21.3460 C   0  0  0  0  0  2  0  0  0  0  0  0
  -26.0840  -29.4900   20.6700 C   0  0  0  0  0  0  0  0  0  0  0  0
  -27.2780  -28.7100   20.6630 C   0  0  0  0  0  3  0  0  0  0  0  0
  -26.1370  -27.0180   19.3580 C   0  0  0  0  0  3  0  0  0  0  0  0
  -24.9540  -27.7720   19.3870 C   0  0  0  0  0  3  0  0  0  0  0  0
  -23.6810  -29.8630   20.0950 C   0  0  0  0  0  2  0  0  0  0  0  0
  -24.7000  -31.0960   22.0560 N   0  0  0  0  0  0  0  0  0  0  0  0
  -23.5240  -32.1390   23.6950 O   0  0  0  0  0  0  0  0  0  0  0  0
  -22.7840  -29.4620   22.4150 C   0  0  0  0  0  0  0  0  0  0  0  0
  -21.4560  -29.2970   22.2930 N   0  0  0  0  0  0  0  0  0  0  0  0
  -23.4660  -28.8050   23.2070 O   0  0  0  0  0  0  0  0  0  0  0  0
  -20.9650  -29.8820   21.6310 H   0  0  0  0  0  0  0  0  0  0  0  0
  -18.0690  -28.1370   22.8080 C   0  0  0  0  0  0  0  0  0  0  0  0
  -20.6370  -28.3430   23.0410 C   0  0  0  0  0  3  0  0  0  0  0  0
  -20.7050  -26.9320   22.4110 C   0  0  0  0  0  2  0  0  0  0  0  0
  -19.5810  -26.6660   21.4050 C   0  0  0  0  0  2  0  0  0  0  0  0
  -18.2130  -26.8100   22.0790 C   0  0  0  0  0  2  0  0  0  0  0  0
  -19.2090  -28.8630   23.2460 C   0  0  0  0  0  0  0  0  0  0  0  0
  -19.0220  -30.1060   23.8890 C   0  0  0  0  0  3  0  0  0  0  0  0
  -17.7290  -30.6200   24.0990 C   0  0  0  0  0  3  0  0  0  0  0  0
  -16.6040  -29.8900   23.6760 C   0  0  0  0  0  3  0  0  0  0  0  0
  -16.7760  -28.6510   23.0350 C   0  0  0  0  0  3  0  0  0  0  0  0
  -25.8870  -32.5170   23.8120 C   0  0  0  0  0  3  0  0  0  0  0  0
  -25.5620  -33.9100   24.1500 N   0  0  0  0  0  0  0  0  0  0  0  0
  -25.9030  -34.9730   23.4110 C   0  0  0  0  0  0  0  0  0  0  0  0
  -26.5920  -34.8840   22.3900 O   0  0  0  0  0  0  0  0  0  0  0  0
  -24.9510  -34.0530   24.9410 H   0  0  0  0  0  0  0  0  0  0  0  0
  -24.1790  -36.7700   23.0370 C   0  0  0  0  0  1  0  0  0  0  0  0
  -25.3990  -36.3540   23.8750 C   0  0  0  0  0  3  0  0  0  0  0  0
  -27.5000  -37.2370   24.7860 C   0  0  0  0  0  1  0  0  0  0  0  0
  -26.4290  -37.4120   23.8090 N   0  0  0  0  0  0  0  0  0  0  0  0
  -26.0140  -38.3270   23.9550 H   0  0  0  0  0  0  0  0  0  0  0  0
  -26.3900  -31.7380   25.0890 C   0  0  1  0  0  0  0  0  0  0  0  0
  -25.2840  -31.4820   26.1390 C   0  0  0  0  0  1  0  0  0  0  0  0
  -26.9880  -30.3660   24.6960 C   0  0  0  0  0  1  0  0  0  0  0  0
  -27.5240  -32.5330   25.7770 C   0  0  0  0  0  1  0  0  0  0  0  0
  1  2  2  0
  2  3  1  0
  2  8  1  0
  3  7  1  0
  4  6  1  0
  5  4  2  0
  5  1  1  0
  6  3  2  0
 10 15  1  0
 11 12  1  0
 11 10  1  0
 13 12  1  0
 13 21  1  0
 13 14  1  0
 15  9  1  0
 15 14  1  0
 16  9  2  0
 17  9  1  0
 17  8  1  0
 18 19  2  0
 19 38  1  0
 20 19  1  0
 20 23  1  0
 21 18  1  0
 21 22  1  0
 22 20  2  0
 23 24  1  0
 24 25  2  0
 26 29  1  0
 26 25  1  0
 27 26  2  0
 28 27  1  0
 28 23  2  0
 29 30  1  0
 30 31  1  0
 31 32  2  0
 33 32  1  0
 33 37  1  0
 34 33  2  0
 35 30  2  0
 35 34  1  0
 36 35  1  0
 38 39  1  0
 39 42  1  0
 39 41  1  0
 40 38  2  0
 43 44  1  0
 43 18  1  0
 45 43  1  0
 46 47  1  0
 47 17  1  0
 48  4  1  0
 48 49  1  0
 50 49  1  0
 50 51  1  0
 52 63  2  0
 53 51  1  0
 53 58  1  0
 54 62  1  0
 54 64  1  0
 55 61  1  0
 55 57  1  0
 56 62  1  0
 57 56  1  0
 58 57  2  0
 59 60  1  0
 59 53  2  0
 60 55  2  0
 61 54  1  0
 62 52  1  0
 64 66  2  0
 65 64  1  0
 67 65  1  0
 68 77  2  0
 68 73  1  0
 69 65  1  0
 69 73  1  0
 70 69  1  0
 71 72  1  0
 71 70  1  0
 72 68  1  0
 73 74  2  0
 74 75  1  0
 76 75  2  0
 77 76  1  0
 78 52  1  0
 78 79  1  0
 78 88  1  0
 79 82  1  0
 80 84  1  0
 80 79  1  0
 81 80  2  0
 84 83  1  0
 86 84  1  0
 86 87  1  0
 86 85  1  0
 88 91  1  1
 88 89  1  0
 90 88  1  0
M  ISO  4   9 100  17 100  50 101  51 101
M  END
>  <TORSDO>  (2) 
F 21

>  <SCORE>  (2) 
-12.949

>  <name>  (2) 
1

>  <ligand_id>  (2) 
1

>  <original_smiles>  (2) 
[H]c1nc(C([H])([H])C([H])([H])C([H])([H])Oc2c([H])c([H])c3c(c2[H])C([H])([H])N(C(=O)C([H])(N([H])C(=O)C([H])(N([H])C([H])([H])[H])C([H])([H])[H])C(C([H])([H])[H])(C([H])([H])[H])C([H])([H])[H])C([H])(C(=O)N([H])C2([H])c4c([H])c([H])c([H])c([H])c4C([H])([H])C([H])([H])C2([H])[H])C3([H])[H])nc(F)c1C([H])([H])N(C(=O)N1C([H])([H])C([H])([H])C([H])([H])C([H])(n2nc(-c3c([H])c([H])c(Oc4c([H])c([H])c(F)c([H])c4F)c([H])c3[H])c(C(=O)N([H])[H])c2N([H])[H])C1([H])[H])C([H])([H])C([H])([H])[H]

>  <smiles>  (2) 
[H]c1nc(C([H])([H])C([H])([H])C([H])([H])Oc2c([H])c([H])c3c(c2[H])C([H])([H])N(C(=O)C([H])(N([H])C(=O)C([H])(N([H])C([H])([H])[H])C([H])([H])[H])C(C([H])([H])[H])(C([H])([H])[H])C([H])([H])[H])C([H])(C(=O)N([H])C2([H])c4c([H])c([H])c([H])c([H])c4C([H])([H])C([H])([H])C2([H])[H])C3([H])[H])nc(F)c1C([H])([H])N(C(=O)N1C([H])([H])C([H])([H])C([H])([H])C([H])(n2nc(-c3c([H])c([H])c(Oc4c([H])c([H])c(F)c([H])c4F)c([H])c3[H])c(C(=O)N([H])[H])c2N([H])[H])C1([H])[H])C([H])([H])C([H])([H])[H]

$$$$
2:0:0
     RDKit          3D

 97105  0  0  1  0  0  0  0  0999 V2000
  -31.6950  -18.7430   19.8620 C   0  0  0  0  0  3  0  0  0  0  0  0
  -30.7840  -17.6590   19.9110 C   0  0  0  0  0  0  0  0  0  0  0  0
  -29.4490  -17.9330   19.4540 C   0  0  0  0  0  0  0  0  0  0  0  0
  -29.2940  -19.1380   18.6750 C   0  0  0  0  0  0  0  0  0  0  0  0
  -30.2110  -20.2050   18.8670 C   0  0  0  0  0  0  0  0  0  0  0  0
  -31.4010  -19.9920   19.4540 N   0  0  0  0  0  0  0  0  0  0  0  0
  -28.2750  -16.8510   21.4680 C   0  0  0  0  0  1  0  0  0  0  0  0
  -28.1300  -15.7420   19.2100 C   0  0  0  0  0  1  0  0  0  0  0  0
  -26.8330  -17.7840   19.7570 C   0  0  0  0  0  1  0  0  0  0  0  0
  -28.2140  -17.0940   19.9360 C   0  0  2  0  0  0  0  0  0  0  0  0
  -28.3790  -18.1050   16.4990 C   0  0  0  0  0  1  0  0  0  0  0  0
  -28.3050  -19.2700   17.5050 C   0  0  0  0  0  2  0  0  0  0  0  0
  -31.3450  -16.3990   20.6500 C   0  0  0  0  0  2  0  0  0  0  0  0
  -30.7520  -14.2750   19.4540 C   0  0  0  0  0  0  0  0  0  0  0  0
  -29.9950  -12.3000   18.1400 C   0  0  0  0  0  2  0  0  0  0  0  0
  -28.9020  -12.6300   17.1030 C   0  0  0  0  0  2  0  0  0  0  0  0
  -27.5120  -12.5090   17.7480 C   0  0  0  0  0  2  0  0  0  0  0  0
  -27.4320  -13.2570   19.1000 C   0  0  0  0  0  3  0  0  0  0  0  0
  -28.6340  -12.9700   20.0310 C   0  0  0  0  0  2  0  0  0  0  0  0
  -29.8850  -13.2200   19.2940 N   0  0  0  0  0  0  0  0  0  0  0  0
  -31.5620  -14.5450   18.5630 O   0  0  0  0  0  0  0  0  0  0  0  0
  -30.7340  -15.0150   20.6200 N   0  0  0  0  0  0  0  0  0  0  0  0
  -25.1810  -13.8870   20.1700 C   0  0  0  0  0  0  0  0  0  0  0  0
  -24.1730  -13.1360   20.7020 C   0  0  0  0  0  0  0  0  0  0  0  0
  -24.5760  -11.7750   20.5540 C   0  0  0  0  0  0  0  0  0  0  0  0
  -26.1560  -12.9940   19.7670 N   0  0  0  0  0  0  0  0  0  0  0  0
  -25.8050  -11.7130   20.0530 N   0  0  0  0  0  0  0  0  0  0  0  0
  -23.8340  -10.5330   20.8050 C   0  0  0  0  0  0  0  0  0  0  0  0
  -24.3420   -9.5410   21.6680 C   0  0  0  0  0  3  0  0  0  0  0  0
  -23.6120   -8.3620   21.9150 C   0  0  0  0  0  3  0  0  0  0  0  0
  -22.3560   -8.1650   21.2930 C   0  0  0  0  0  0  0  0  0  0  0  0
  -21.8590   -9.1470   20.4160 C   0  0  0  0  0  3  0  0  0  0  0  0
  -22.5920  -10.3190   20.1700 C   0  0  0  0  0  3  0  0  0  0  0  0
  -21.5820   -7.0400   21.4530 O   0  0  0  0  0  0  0  0  0  0  0  0
  -21.6050   -6.3090   22.6130 C   0  0  0  0  0  0  0  0  0  0  0  0
  -21.3050   -6.8870   23.8660 C   0  0  0  0  0  3  0  0  0  0  0  0
  -21.2720   -6.0820   25.0230 C   0  0  0  0  0  3  0  0  0  0  0  0
  -21.5310   -4.7010   24.9290 C   0  0  0  0  0  0  0  0  0  0  0  0
  -21.8220   -4.1230   23.6810 C   0  0  0  0  0  3  0  0  0  0  0  0
  -21.8580   -4.9240   22.5270 C   0  0  0  0  0  0  0  0  0  0  0  0
  -22.1200   -4.3590   21.3240 F   0  0  0  0  0  0  0  0  0  0  0  0
  -21.4910   -3.9270   26.0380 F   0  0  0  0  0  0  0  0  0  0  0  0
  -22.8620  -13.6510   21.2180 C   0  0  0  0  0  0  0  0  0  0  0  0
  -22.2700  -12.9660   22.1860 N   0  0  0  0  0  0  0  0  0  0  0  0
  -22.3790  -14.7030   20.7950 O   0  0  0  0  0  0  0  0  0  0  0  0
  -22.6690  -12.1090   22.5420 H   0  0  0  0  0  0  0  0  0  0  0  0
  -21.3980  -13.2980   22.5720 H   0  0  0  0  0  0  0  0  0  0  0  0
  -25.3300  -15.2510   19.9660 N   0  0  0  0  0  0  0  0  0  0  0  0
  -24.5770  -15.8970   20.1670 H   0  0  0  0  0  0  0  0  0  0  0  0
  -26.0820  -15.6660   19.4330 H   0  0  0  0  0  0  0  0  0  0  0  0
  -32.2480  -14.3550   22.6390 C   0  0  0  0  0  1  0  0  0  0  0  0
  -30.8860  -14.2560   21.9050 C   0  0  0  0  0  2  0  0  0  0  0  0
  -29.9550  -21.6830   18.4510 C   0  0  0  0  0  2  0  0  0  0  0  0
  -28.6800  -22.3650   19.0600 C   0  0  0  0  0  2  0  0  0  0  0  0
  -28.7560  -23.7720   19.7620 C   0  0  0  0  0  2  0  0  0  0  0  0
  -28.5650  -25.0540   18.8920 C   0  0  0  0  0  2  0  0  0  0  0  0
  -28.4270  -26.2770   19.6820 O   0  0  0  0  0  0  0  0  0  0  0  0
  -24.6420  -31.4150   22.9960 C   0  0  0  0  0  0  0  0  0  0  0  0
  -27.2320  -27.0020   19.7320 C   0  0  0  0  0  0  0  0  0  0  0  0
  -23.4250  -30.0690   21.3220 C   0  0  0  0  0  3  0  0  0  0  0  0
  -24.8510  -28.5680   19.8430 C   0  0  0  0  0  0  0  0  0  0  0  0
  -25.9570  -30.3960   21.1270 C   0  0  0  0  0  2  0  0  0  0  0  0
  -26.0230  -29.0400   20.4430 C   0  0  0  0  0  0  0  0  0  0  0  0
  -27.2150  -28.2710   20.3790 C   0  0  0  0  0  3  0  0  0  0  0  0
  -26.0180  -26.5450   19.1730 C   0  0  0  0  0  3  0  0  0  0  0  0
  -24.8440  -27.3180   19.2090 C   0  0  0  0  0  3  0  0  0  0  0  0
  -23.6250  -29.4500   19.9180 C   0  0  0  0  0  2  0  0  0  0  0  0
  -24.6930  -30.6420   21.8730 N   0  0  0  0  0  0  0  0  0  0  0  0
  -23.5600  -31.6810   23.5420 O   0  0  0  0  0  0  0  0  0  0  0  0
  -22.7570  -29.0270   22.2490 C   0  0  0  0  0  0  0  0  0  0  0  0
  -21.4250  -28.8990   22.1440 N   0  0  0  0  0  0  0  0  0  0  0  0
  -23.4340  -28.3430   23.0240 O   0  0  0  0  0  0  0  0  0  0  0  0
  -20.9420  -29.5090   21.5000 H   0  0  0  0  0  0  0  0  0  0  0  0
  -18.0170  -27.8060   22.6690 C   0  0  0  0  0  0  0  0  0  0  0  0
  -20.5900  -27.9480   22.8750 C   0  0  0  0  0  3  0  0  0  0  0  0
  -20.6180  -26.5500   22.2110 C   0  0  0  0  0  2  0  0  0  0  0  0
  -19.4740  -26.3330   21.2150 C   0  0  0  0  0  2  0  0  0  0  0  0
  -18.1190  -26.4890   21.9120 C   0  0  0  0  0  2  0  0  0  0  0  0
  -19.1780  -28.4990   23.1040 C   0  0  0  0  0  0  0  0  0  0  0  0
  -19.0250  -29.7360   23.7700 C   0  0  0  0  0  3  0  0  0  0  0  0
  -17.7450  -30.2750   24.0050 C   0  0  0  0  0  3  0  0  0  0  0  0
  -16.6000  -29.5750   23.5850 C   0  0  0  0  0  3  0  0  0  0  0  0
  -16.7380  -28.3450   22.9180 C   0  0  0  0  0  3  0  0  0  0  0  0
  -25.9270  -32.0170   23.6390 C   0  0  0  0  0  3  0  0  0  0  0  0
  -25.6230  -33.3980   24.0410 N   0  0  0  0  0  0  0  0  0  0  0  0
  -25.9500  -34.4850   23.3280 C   0  0  0  0  0  0  0  0  0  0  0  0
  -26.6110  -34.4320   22.2880 O   0  0  0  0  0  0  0  0  0  0  0  0
  -25.0400  -33.5130   24.8580 H   0  0  0  0  0  0  0  0  0  0  0  0
  -24.2120  -36.2850   23.0800 C   0  0  0  0  0  1  0  0  0  0  0  0
  -25.4660  -35.8510   23.8550 C   0  0  0  0  0  3  0  0  0  0  0  0
  -27.6180  -36.6960   24.6860 C   0  0  0  0  0  1  0  0  0  0  0  0
  -26.4970  -36.9100   23.7740 N   0  0  0  0  0  0  0  0  0  0  0  0
  -26.0950  -37.8240   23.9700 H   0  0  0  0  0  0  0  0  0  0  0  0
  -26.4480  -31.1810   24.8730 C   0  0  1  0  0  0  0  0  0  0  0  0
  -25.3620  -30.8910   25.9370 C   0  0  0  0  0  1  0  0  0  0  0  0
  -27.0200  -29.8240   24.4010 C   0  0  0  0  0  1  0  0  0  0  0  0
  -27.6070  -31.9380   25.5620 C   0  0  0  0  0  1  0  0  0  0  0  0
  1  2  1  0
  2 13  1  0
  3  2  2  0
  3 10  1  0
  4  5  2  0
  4  3  1  0
  5  6  1  0
  6  1  2  0
 10  8  1  6
  9 10  1  0
 10  7  1  0
 11 12  1  0
 12  4  1  0
 14 22  1  0
 15 20  1  0
 16 17  1  0
 16 15  1  0
 18 17  1  0
 18 26  1  0
 18 19  1  0
 20 14  1  0
 20 19  1  0
 21 14  2  0
 22 13  1  0
 22 52  1  0
 23 24  2  0
 24 43  1  0
 25 24  1  0
 25 28  1  0
 26 27  1  0
 26 23  1  0
 27 25  2  0
 28 29  1  0
 29 30  2  0
 31 34  1  0
 31 30  1  0
 32 31  2  0
 33 32  1  0
 33 28  2  0
 34 35  1  0
 35 36  1  0
 36 37  2  0
 38 37  1  0
 38 42  1  0
 39 38  2  0
 40 35  2  0
 40 39  1  0
 41 40  1  0
 43 44  1  0
 44 46  1  0
 44 47  1  0
 45 43  2  0
 48 49  1  0
 48 23  1  0
 50 48  1  0
 52 51  1  0
 53  5  1  0
 53 54  1  0
 54 55  1  0
 56 57  1  0
 56 55  1  0
 57 59  1  0
 58 69  2  0
 59 64  1  0
 60 68  1  0
 60 70  1  0
 61 67  1  0
 61 63  1  0
 62 68  1  0
 63 62  1  0
 64 63  2  0
 65 66  1  0
 65 59  2  0
 66 61  2  0
 67 60  1  0
 68 58  1  0
 70 72  2  0
 71 70  1  0
 73 71  1  0
 74 83  2  0
 74 79  1  0
 75 71  1  0
 75 79  1  0
 76 75  1  0
 77 78  1  0
 77 76  1  0
 78 74  1  0
 79 80  2  0
 80 81  1  0
 82 81  2  0
 83 82  1  0
 84 58  1  0
 84 85  1  0
 84 94  1  0
 85 88  1  0
 86 90  1  0
 86 85  1  0
 87 86  2  0
 90 89  1  0
 92 90  1  0
 92 93  1  0
 92 91  1  0
 94 97  1  1
 94 95  1  0
 96 94  1  0
M  ISO  4  14 100  22 100  56 101  57 101
M  END
>  <TORSDO>  (3) 
F 24

>  <SCORE>  (3) 
-7.381

>  <name>  (3) 
2

>  <ligand_id>  (3) 
2

>  <original_smiles>  (3) 
[H]c1nc(C([H])([H])C([H])([H])C([H])([H])C([H])([H])Oc2c([H])c([H])c3c(c2[H])C([H])([H])N(C(=O)C([H])(N([H])C(=O)C([H])(N([H])C([H])([H])[H])C([H])([H])[H])C(C([H])([H])[H])(C([H])([H])[H])C([H])([H])[H])C([H])(C(=O)N([H])C2([H])c4c([H])c([H])c([H])c([H])c4C([H])([H])C([H])([H])C2([H])[H])C3([H])[H])c(C([H])([H])C([H])([H])[H])c(C(C([H])([H])[H])(C([H])([H])[H])C([H])([H])[H])c1C([H])([H])N(C(=O)N1C([H])([H])C([H])([H])C([H])([H])C([H])(n2nc(-c3c([H])c([H])c(Oc4c([H])c([H])c(F)c([H])c4F)c([H])c3[H])c(C(=O)N([H])[H])c2N([H])[H])C1([H])[H])C([H])([H])C([H])([H])[H]

>  <smiles>  (3) 
[H]c1nc(C([H])([H])C([H])([H])C([H])([H])C([H])([H])Oc2c([H])c([H])c3c(c2[H])C([H])([H])N(C(=O)C([H])(N([H])C(=O)C([H])(N([H])C([H])([H])[H])C([H])([H])[H])C(C([H])([H])[H])(C([H])([H])[H])C([H])([H])[H])C([H])(C(=O)N([H])C2([H])c4c([H])c([H])c([H])c([H])c4C([H])([H])C([H])([H])C2([H])[H])C3([H])[H])c(C([H])([H])C([H])([H])[H])c(C(C([H])([H])[H])(C([H])([H])[H])C([H])([H])[H])c1C([H])([H])N(C(=O)N1C([H])([H])C([H])([H])C([H])([H])C([H])(n2nc(-c3c([H])c([H])c(Oc4c([H])c([H])c(F)c([H])c4F)c([H])c3[H])c(C(=O)N([H])[H])c2N([H])[H])C1([H])[H])C([H])([H])C([H])([H])[H]

$$$$
3:0:0
     RDKit          3D

 92100  0  0  1  0  0  0  0  0999 V2000
  -28.7790  -21.1450   18.8240 C   0  0  0  0  0  0  0  0  0  0  0  0
  -29.7260  -22.6220   20.8550 C   0  0  0  0  0  0  0  0  0  0  0  0
  -28.8770  -23.3110   19.9040 C   0  0  0  0  0  0  0  0  0  0  0  0
  -29.6250  -20.4510   19.7660 C   0  0  0  0  0  0  0  0  0  0  0  0
  -28.1930  -20.4360   17.6080 C   0  0  0  0  0  1  0  0  0  0  0  0
  -28.4350  -22.4870   18.8960 N   0  0  0  0  0  0  0  0  0  0  0  0
  -30.1190  -21.2760   20.7550 N   0  0  0  0  0  0  0  0  0  0  0  0
  -29.4340  -22.8540   23.3690 C   0  0  0  0  0  1  0  0  0  0  0  0
  -30.1950  -23.3220   22.1190 C   0  0  0  0  0  2  0  0  0  0  0  0
  -31.5440  -18.9570   18.8760 C   0  0  0  0  0  1  0  0  0  0  0  0
  -30.1470  -18.9020   19.5050 C   0  0  0  0  0  3  0  0  0  0  0  0
  -30.1620  -17.6350   20.5670 C   0  0  0  0  0  2  0  0  0  0  0  0
  -30.9610  -14.9930   20.1190 C   0  0  0  0  0  0  0  0  0  0  0  0
  -30.8070  -12.6550   19.1750 C   0  0  0  0  0  2  0  0  0  0  0  0
  -29.8420  -12.6230   17.9650 C   0  0  0  0  0  2  0  0  0  0  0  0
  -28.3780  -12.4740   18.4260 C   0  0  0  0  0  2  0  0  0  0  0  0
  -28.0180  -13.4340   19.5900 C   0  0  0  0  0  3  0  0  0  0  0  0
  -29.0860  -13.3870   20.7010 C   0  0  0  0  0  2  0  0  0  0  0  0
  -30.3630  -13.7470   20.0730 N   0  0  0  0  0  0  0  0  0  0  0  0
  -32.1780  -15.0810   19.9220 O   0  0  0  0  0  0  0  0  0  0  0  0
  -30.1140  -16.1160   20.1740 N   0  0  0  0  0  0  0  0  0  0  0  0
  -29.1590  -15.7990   20.0950 H   0  0  0  0  0  0  0  0  0  0  0  0
  -25.6650  -14.1110   20.3510 C   0  0  0  0  0  0  0  0  0  0  0  0
  -24.5790  -13.3730   20.7360 C   0  0  0  0  0  0  0  0  0  0  0  0
  -24.9980  -12.0070   20.7070 C   0  0  0  0  0  0  0  0  0  0  0  0
  -26.6750  -13.1940   20.1050 N   0  0  0  0  0  0  0  0  0  0  0  0
  -26.2830  -11.9260   20.3860 N   0  0  0  0  0  0  0  0  0  0  0  0
  -24.2320  -10.7700   20.9040 C   0  0  0  0  0  0  0  0  0  0  0  0
  -24.6390   -9.7900   21.8340 C   0  0  0  0  0  3  0  0  0  0  0  0
  -23.8740   -8.6180   22.0200 C   0  0  0  0  0  3  0  0  0  0  0  0
  -22.6880   -8.4200   21.2730 C   0  0  0  0  0  0  0  0  0  0  0  0
  -22.3020   -9.3890   20.3290 C   0  0  0  0  0  3  0  0  0  0  0  0
  -23.0670  -10.5520   20.1420 C   0  0  0  0  0  3  0  0  0  0  0  0
  -21.8940   -7.3030   21.3680 O   0  0  0  0  0  0  0  0  0  0  0  0
  -21.8190   -6.5700   22.5250 C   0  0  0  0  0  0  0  0  0  0  0  0
  -21.4100   -7.1470   23.7480 C   0  0  0  0  0  3  0  0  0  0  0  0
  -21.2800   -6.3440   24.8990 C   0  0  0  0  0  3  0  0  0  0  0  0
  -21.5520   -4.9650   24.8280 C   0  0  0  0  0  0  0  0  0  0  0  0
  -21.9520   -4.3870   23.6110 C   0  0  0  0  0  3  0  0  0  0  0  0
  -22.0840   -5.1880   22.4620 C   0  0  0  0  0  0  0  0  0  0  0  0
  -22.4510   -4.6220   21.2870 F   0  0  0  0  0  0  0  0  0  0  0  0
  -21.4180   -4.1900   25.9310 F   0  0  0  0  0  0  0  0  0  0  0  0
  -23.2000  -13.8970   21.0170 C   0  0  0  0  0  0  0  0  0  0  0  0
  -22.4590  -13.2270   21.8910 N   0  0  0  0  0  0  0  0  0  0  0  0
  -22.7900  -14.9320   20.4930 O   0  0  0  0  0  0  0  0  0  0  0  0
  -22.8050  -12.3870   22.3310 H   0  0  0  0  0  0  0  0  0  0  0  0
  -21.5340  -13.5590   22.1260 H   0  0  0  0  0  0  0  0  0  0  0  0
  -25.8670  -15.4740   20.1630 N   0  0  0  0  0  0  0  0  0  0  0  0
  -25.1120  -16.1430   20.2700 H   0  0  0  0  0  0  0  0  0  0  0  0
  -26.6990  -15.8900   19.7650 H   0  0  0  0  0  0  0  0  0  0  0  0
  -28.0500  -24.7240   20.1130 C   0  0  0  0  0  2  0  0  0  0  0  0
  -28.4550  -26.2180   19.9490 O   0  0  0  0  0  0  0  0  0  0  0  0
  -24.6800  -31.7350   23.1100 C   0  0  0  0  0  0  0  0  0  0  0  0
  -27.3940  -27.1990   19.9220 C   0  0  0  0  0  0  0  0  0  0  0  0
  -23.5210  -30.3410   21.4410 C   0  0  0  0  0  3  0  0  0  0  0  0
  -25.0120  -28.8800   19.9630 C   0  0  0  0  0  0  0  0  0  0  0  0
  -26.0640  -30.7050   21.2700 C   0  0  0  0  0  2  0  0  0  0  0  0
  -26.1830  -29.3370   20.5790 C   0  0  0  0  0  0  0  0  0  0  0  0
  -27.3770  -28.5140   20.5450 C   0  0  0  0  0  3  0  0  0  0  0  0
  -26.1930  -26.8650   19.2550 C   0  0  0  0  0  3  0  0  0  0  0  0
  -25.0330  -27.6580   19.2870 C   0  0  0  0  0  3  0  0  0  0  0  0
  -23.7530  -29.7270   20.0420 C   0  0  0  0  0  2  0  0  0  0  0  0
  -24.7750  -30.9480   21.9950 N   0  0  0  0  0  0  0  0  0  0  0  0
  -23.5870  -31.9620   23.6480 O   0  0  0  0  0  0  0  0  0  0  0  0
  -22.8900  -29.2740   22.3740 C   0  0  0  0  0  0  0  0  0  0  0  0
  -21.5700  -29.0480   22.2400 N   0  0  0  0  0  0  0  0  0  0  0  0
  -23.5870  -28.6570   23.1840 O   0  0  0  0  0  0  0  0  0  0  0  0
  -21.0620  -29.6050   21.5690 H   0  0  0  0  0  0  0  0  0  0  0  0
  -18.2420  -27.6870   22.7100 C   0  0  0  0  0  0  0  0  0  0  0  0
  -20.7870  -28.0620   22.9920 C   0  0  0  0  0  3  0  0  0  0  0  0
  -20.9550  -26.6470   22.3930 C   0  0  0  0  0  2  0  0  0  0  0  0
  -19.8690  -26.2920   21.3710 C   0  0  0  0  0  2  0  0  0  0  0  0
  -18.4790  -26.3620   22.0100 C   0  0  0  0  0  2  0  0  0  0  0  0
  -19.3230  -28.4940   23.1570 C   0  0  0  0  0  0  0  0  0  0  0  0
  -19.0450  -29.7330   23.7740 C   0  0  0  0  0  3  0  0  0  0  0  0
  -17.7160  -30.1660   23.9470 C   0  0  0  0  0  3  0  0  0  0  0  0
  -16.6500  -29.3590   23.5150 C   0  0  0  0  0  3  0  0  0  0  0  0
  -16.9130  -28.1230   22.9010 C   0  0  0  0  0  3  0  0  0  0  0  0
  -25.9370  -32.4000   23.7430 C   0  0  0  0  0  3  0  0  0  0  0  0
  -26.4860  -31.6120   24.9950 C   0  0  1  0  0  0  0  0  0  0  0  0
  -25.4080  -31.3020   26.0610 C   0  0  0  0  0  1  0  0  0  0  0  0
  -27.1200  -30.2700   24.5640 C   0  0  0  0  0  1  0  0  0  0  0  0
  -27.6120  -32.4310   25.6690 C   0  0  0  0  0  1  0  0  0  0  0  0
  -25.5680  -33.7730   24.1240 N   0  0  0  0  0  0  0  0  0  0  0  0
  -25.8280  -34.8630   23.3900 C   0  0  0  0  0  0  0  0  0  0  0  0
  -26.4750  -34.8190   22.3390 O   0  0  0  0  0  0  0  0  0  0  0  0
  -24.9960  -33.8780   24.9490 H   0  0  0  0  0  0  0  0  0  0  0  0
  -24.0020  -36.5770   23.1530 C   0  0  0  0  0  1  0  0  0  0  0  0
  -25.2940  -36.2150   23.9020 C   0  0  0  0  0  3  0  0  0  0  0  0
  -27.4160  -37.1830   24.6700 C   0  0  0  0  0  1  0  0  0  0  0  0
  -26.2690  -37.3200   23.7780 N   0  0  0  0  0  0  0  0  0  0  0  0
  -25.8250  -38.2140   23.9670 H   0  0  0  0  0  0  0  0  0  0  0  0
  1  6  2  0
  1  4  1  0
  2  9  1  0
  3 51  1  0
  3  2  2  0
  4  7  2  0
  5  1  1  0
  6  3  1  0
  7  2  1  0
  9  8  1  0
 11 10  1  0
 11  4  1  0
 11 12  1  0
 13 21  1  0
 14 19  1  0
 15 16  1  0
 15 14  1  0
 17 16  1  0
 17 26  1  0
 17 18  1  0
 19 13  1  0
 19 18  1  0
 20 13  2  0
 21 12  1  0
 22 21  1  0
 23 24  2  0
 24 43  1  0
 25 24  1  0
 25 28  1  0
 26 23  1  0
 26 27  1  0
 27 25  2  0
 28 29  1  0
 29 30  2  0
 31 34  1  0
 31 30  1  0
 32 31  2  0
 33 32  1  0
 33 28  2  0
 34 35  1  0
 35 36  1  0
 36 37  2  0
 38 37  1  0
 38 42  1  0
 39 38  2  0
 40 35  2  0
 40 39  1  0
 41 40  1  0
 43 44  1  0
 44 47  1  0
 44 46  1  0
 45 43  2  0
 48 49  1  0
 48 23  1  0
 50 48  1  0
 52 51  1  0
 53 64  2  0
 54 52  1  0
 54 59  1  0
 55 63  1  0
 55 65  1  0
 56 62  1  0
 56 58  1  0
 57 63  1  0
 58 57  1  0
 59 58  2  0
 60 61  1  0
 60 54  2  0
 61 56  2  0
 62 55  1  0
 63 53  1  0
 65 67  2  0
 66 65  1  0
 68 66  1  0
 69 78  2  0
 69 74  1  0
 70 66  1  0
 70 74  1  0
 71 70  1  0
 72 73  1  0
 72 71  1  0
 73 69  1  0
 74 75  2  0
 75 76  1  0
 77 76  2  0
 78 77  1  0
 79 53  1  0
 79 84  1  0
 79 80  1  0
 80 83  1  1
 80 81  1  0
 82 80  1  0
 84 87  1  0
 85 89  1  0
 85 84  1  0
 86 85  2  0
 89 88  1  0
 91 89  1  0
 91 92  1  0
 91 90  1  0
M  ISO  4  13 100  21 100  51 101  52 101
M  END
>  <TORSDO>  (4) 
F 20

>  <SCORE>  (4) 
-13.405

>  <name>  (4) 
3

>  <ligand_id>  (4) 
3

>  <original_smiles>  (4) 
[H]c1c([H])c([H])c2c(c1[H])C([H])([H])C([H])([H])C([H])([H])C2([H])N([H])C(=O)C1([H])N(C(=O)C([H])(N([H])C(=O)C([H])(N([H])C([H])([H])[H])C([H])([H])[H])C(C([H])([H])[H])(C([H])([H])[H])C([H])([H])[H])C([H])([H])c2c([H])c(OC([H])([H])c3nc(C([H])([H])[H])c(C([H])(C([H])([H])[H])C([H])([H])N([H])C(=O)N4C([H])([H])C([H])([H])C([H])([H])C([H])(n5nc(-c6c([H])c([H])c(Oc7c([H])c([H])c(F)c([H])c7F)c([H])c6[H])c(C(=O)N([H])[H])c5N([H])[H])C4([H])[H])nc3C([H])([H])C([H])([H])[H])c([H])c([H])c2C1([H])[H]

>  <smiles>  (4) 
[H]c1c([H])c([H])c2c(c1[H])C([H])([H])C([H])([H])C([H])([H])C2([H])N([H])C(=O)C1([H])N(C(=O)C([H])(N([H])C(=O)C([H])(N([H])C([H])([H])[H])C([H])([H])[H])C(C([H])([H])[H])(C([H])([H])[H])C([H])([H])[H])C([H])([H])c2c([H])c(OC([H])([H])c3nc(C([H])([H])[H])c(C([H])(C([H])([H])[H])C([H])([H])N([H])C(=O)N4C([H])([H])C([H])([H])C([H])([H])C([H])(n5nc(-c6c([H])c([H])c(Oc7c([H])c([H])c(F)c([H])c7F)c([H])c6[H])c(C(=O)N([H])[H])c5N([H])[H])C4([H])[H])nc3C([H])([H])C([H])([H])[H])c([H])c([H])c2C1([H])[H]

$$$$
4:0:0
     RDKit          3D

 97105  0  0  1  0  0  0  0  0999 V2000
  -27.4980  -18.8270   19.0150 C   0  0  0  0  0  3  0  0  0  0  0  0
  -28.7510  -18.5200   19.4730 C   0  0  0  0  0  0  0  0  0  0  0  0
  -28.8740  -20.3740   18.2200 C   0  0  0  0  0  3  0  0  0  0  0  0
  -27.5780  -19.9720   18.2490 N   0  0  0  0  0  0  0  0  0  0  0  0
  -29.5610  -19.5100   18.9830 N   0  0  0  0  0  0  0  0  0  0  0  0
  -30.5610  -19.5680   19.1360 H   0  0  0  0  0  0  0  0  0  0  0  0
  -25.0750  -20.0860   18.0810 C   0  0  0  0  0  1  0  0  0  0  0  0
  -26.4630  -20.1650   16.0210 C   0  0  0  0  0  1  0  0  0  0  0  0
  -26.3860  -22.1210   17.6420 C   0  0  0  0  0  1  0  0  0  0  0  0
  -26.4240  -20.5840   17.5060 C   0  0  2  0  0  0  0  0  0  0  0  0
  -29.2270  -17.3650   20.3130 C   0  0  0  0  0  2  0  0  0  0  0  0
  -30.2280  -16.4590   19.5650 C   0  0  0  0  0  2  0  0  0  0  0  0
  -30.8700  -14.1630   19.3430 C   0  0  0  0  0  0  0  0  0  0  0  0
  -30.1850  -12.1730   18.0580 C   0  0  0  0  0  2  0  0  0  0  0  0
  -29.0490  -12.5500   17.0860 C   0  0  0  0  0  2  0  0  0  0  0  0
  -27.6780  -12.4290   17.7800 C   0  0  0  0  0  2  0  0  0  0  0  0
  -27.6430  -13.1370   19.1610 C   0  0  0  0  0  3  0  0  0  0  0  0
  -28.8750  -12.7650   20.0130 C   0  0  0  0  0  2  0  0  0  0  0  0
  -30.0840  -13.0590   19.2270 N   0  0  0  0  0  0  0  0  0  0  0  0
  -31.8400  -14.3710   18.6030 O   0  0  0  0  0  0  0  0  0  0  0  0
  -30.4460  -15.1330   20.1910 N   0  0  0  0  0  0  0  0  0  0  0  0
  -25.4530  -13.7510   20.3610 C   0  0  0  0  0  0  0  0  0  0  0  0
  -24.4410  -12.9840   20.8720 C   0  0  0  0  0  0  0  0  0  0  0  0
  -24.8260  -11.6250   20.6500 C   0  0  0  0  0  0  0  0  0  0  0  0
  -26.3930  -12.8620   19.8690 N   0  0  0  0  0  0  0  0  0  0  0  0
  -26.0300  -11.5730   20.0940 N   0  0  0  0  0  0  0  0  0  0  0  0
  -24.0940  -10.3740   20.8830 C   0  0  0  0  0  0  0  0  0  0  0  0
  -24.6100   -9.3600   21.7200 C   0  0  0  0  0  3  0  0  0  0  0  0
  -23.8790   -8.1730   21.9430 C   0  0  0  0  0  3  0  0  0  0  0  0
  -22.6170   -7.9930   21.3300 C   0  0  0  0  0  0  0  0  0  0  0  0
  -22.1170   -8.9960   20.4800 C   0  0  0  0  0  3  0  0  0  0  0  0
  -22.8490  -10.1730   20.2540 C   0  0  0  0  0  3  0  0  0  0  0  0
  -21.8480   -6.8630   21.4670 O   0  0  0  0  0  0  0  0  0  0  0  0
  -21.8650   -6.1150   22.6160 C   0  0  0  0  0  0  0  0  0  0  0  0
  -21.5560   -6.6760   23.8760 C   0  0  0  0  0  3  0  0  0  0  0  0
  -21.5200   -5.8560   25.0220 C   0  0  0  0  0  3  0  0  0  0  0  0
  -21.7820   -4.4780   24.9110 C   0  0  0  0  0  0  0  0  0  0  0  0
  -22.0830   -3.9170   23.6560 C   0  0  0  0  0  3  0  0  0  0  0  0
  -22.1230   -4.7340   22.5130 C   0  0  0  0  0  0  0  0  0  0  0  0
  -22.3940   -4.1860   21.3050 F   0  0  0  0  0  0  0  0  0  0  0  0
  -21.7410   -3.6860   26.0080 F   0  0  0  0  0  0  0  0  0  0  0  0
  -23.1460  -13.4800   21.4480 C   0  0  0  0  0  0  0  0  0  0  0  0
  -22.5840  -12.7550   22.4090 N   0  0  0  0  0  0  0  0  0  0  0  0
  -22.6490  -14.5430   21.0790 O   0  0  0  0  0  0  0  0  0  0  0  0
  -23.0080  -11.8960   22.7300 H   0  0  0  0  0  0  0  0  0  0  0  0
  -21.7240  -13.0690   22.8360 H   0  0  0  0  0  0  0  0  0  0  0  0
  -25.6430  -15.1260   20.2550 N   0  0  0  0  0  0  0  0  0  0  0  0
  -24.9330  -15.7900   20.5390 H   0  0  0  0  0  0  0  0  0  0  0  0
  -26.4360  -15.5540   19.7980 H   0  0  0  0  0  0  0  0  0  0  0  0
  -30.1630  -15.2550   22.6930 C   0  0  0  0  0  1  0  0  0  0  0  0
  -31.1330  -15.2190   21.4970 C   0  0  0  0  0  2  0  0  0  0  0  0
  -29.5560  -21.4680   17.4360 C   0  0  0  0  0  2  0  0  0  0  0  0
  -30.1220  -22.6550   18.2510 C   0  0  0  0  0  2  0  0  0  0  0  0
  -29.2120  -23.8990   18.3290 C   0  0  0  0  0  2  0  0  0  0  0  0
  -29.9950  -25.1860   18.6530 C   0  0  0  0  0  2  0  0  0  0  0  0
  -29.1490  -26.4720   18.6090 C   0  0  0  0  0  2  0  0  0  0  0  0
  -28.5840  -26.7150   19.8900 O   0  0  0  0  0  0  0  0  0  0  0  0
  -24.6680  -31.6750   23.1380 C   0  0  0  0  0  0  0  0  0  0  0  0
  -27.4020  -27.4120   19.9030 C   0  0  0  0  0  0  0  0  0  0  0  0
  -23.4820  -30.2890   21.4670 C   0  0  0  0  0  3  0  0  0  0  0  0
  -24.9630  -28.8250   19.9880 C   0  0  0  0  0  0  0  0  0  0  0  0
  -25.9930  -30.7190   21.2590 C   0  0  0  0  0  2  0  0  0  0  0  0
  -26.1070  -29.3680   20.5870 C   0  0  0  0  0  0  0  0  0  0  0  0
  -27.3280  -28.6600   20.5540 C   0  0  0  0  0  3  0  0  0  0  0  0
  -26.2420  -26.8660   19.3150 C   0  0  0  0  0  3  0  0  0  0  0  0
  -25.0210  -27.5700   19.3560 C   0  0  0  0  0  3  0  0  0  0  0  0
  -23.6950  -29.6470   20.0680 C   0  0  0  0  0  2  0  0  0  0  0  0
  -24.7330  -30.9080   22.0140 N   0  0  0  0  0  0  0  0  0  0  0  0
  -23.5870  -31.9060   23.6960 O   0  0  0  0  0  0  0  0  0  0  0  0
  -22.8640  -29.2280   22.4050 C   0  0  0  0  0  0  0  0  0  0  0  0
  -21.5510  -28.9920   22.2570 N   0  0  0  0  0  0  0  0  0  0  0  0
  -23.5640  -28.6200   23.2190 O   0  0  0  0  0  0  0  0  0  0  0  0
  -21.0480  -29.5370   21.5710 H   0  0  0  0  0  0  0  0  0  0  0  0
  -18.2310  -27.6250   22.6570 C   0  0  0  0  0  0  0  0  0  0  0  0
  -20.7630  -28.0100   23.0020 C   0  0  0  0  0  3  0  0  0  0  0  0
  -20.9560  -26.5890   22.4240 C   0  0  0  0  0  2  0  0  0  0  0  0
  -19.9000  -26.2160   21.3770 C   0  0  0  0  0  2  0  0  0  0  0  0
  -18.4960  -26.2890   21.9830 C   0  0  0  0  0  2  0  0  0  0  0  0
  -19.2970  -28.4400   23.1210 C   0  0  0  0  0  0  0  0  0  0  0  0
  -18.9990  -29.6890   23.7070 C   0  0  0  0  0  3  0  0  0  0  0  0
  -17.6670  -30.1230   23.8370 C   0  0  0  0  0  3  0  0  0  0  0  0
  -16.6140  -29.3050   23.3920 C   0  0  0  0  0  3  0  0  0  0  0  0
  -16.8980  -28.0580   22.8080 C   0  0  0  0  0  3  0  0  0  0  0  0
  -25.9460  -32.3180   23.7650 C   0  0  0  0  0  3  0  0  0  0  0  0
  -26.4870  -31.5310   25.0220 C   0  0  1  0  0  0  0  0  0  0  0  0
  -25.4060  -31.2500   26.0910 C   0  0  0  0  0  1  0  0  0  0  0  0
  -27.0950  -30.1740   24.5950 C   0  0  0  0  0  1  0  0  0  0  0  0
  -27.6250  -32.3340   25.6940 C   0  0  0  0  0  1  0  0  0  0  0  0
  -25.6150  -33.7030   24.1220 N   0  0  0  0  0  0  0  0  0  0  0  0
  -25.9270  -34.7740   23.3790 C   0  0  0  0  0  0  0  0  0  0  0  0
  -26.5970  -34.7010   22.3460 O   0  0  0  0  0  0  0  0  0  0  0  0
  -25.0210  -33.8330   24.9280 H   0  0  0  0  0  0  0  0  0  0  0  0
  -24.1660  -36.5400   23.0570 C   0  0  0  0  0  1  0  0  0  0  0  0
  -25.4140  -36.1450   23.8620 C   0  0  0  0  0  3  0  0  0  0  0  0
  -27.5340  -37.0520   24.7070 C   0  0  0  0  0  1  0  0  0  0  0  0
  -26.4280  -37.2180   23.7690 N   0  0  0  0  0  0  0  0  0  0  0  0
  -26.0060  -38.1280   23.9340 H   0  0  0  0  0  0  0  0  0  0  0  0
  1  2  2  0
  2 11  1  0
  3 52  1  0
  3  4  1  0
  3  5  1  0
  4  1  1  0
  5  6  1  0
  5  2  1  0
 10  8  1  6
 10  9  1  0
 10  7  1  0
 10  4  1  0
 12 21  1  0
 12 11  1  0
 13 21  1  0
 14 19  1  0
 15 16  1  0
 15 14  1  0
 17 16  1  0
 17 25  1  0
 17 18  1  0
 19 13  1  0
 19 18  1  0
 20 13  2  0
 21 51  1  0
 22 23  2  0
 23 42  1  0
 24 23  1  0
 24 27  1  0
 25 26  1  0
 25 22  1  0
 26 24  2  0
 27 28  1  0
 28 29  2  0
 30 33  1  0
 30 29  1  0
 31 30  2  0
 32 31  1  0
 32 27  2  0
 33 34  1  0
 34 35  1  0
 35 36  2  0
 37 36  1  0
 37 41  1  0
 38 37  2  0
 39 34  2  0
 39 38  1  0
 40 39  1  0
 42 43  1  0
 43 45  1  0
 43 46  1  0
 44 42  2  0
 47 22  1  0
 47 48  1  0
 49 47  1  0
 51 50  1  0
 52 53  1  0
 53 54  1  0
 54 55  1  0
 56 55  1  0
 56 57  1  0
 57 59  1  0
 58 69  2  0
 59 64  1  0
 60 68  1  0
 60 70  1  0
 61 67  1  0
 61 63  1  0
 62 68  1  0
 63 62  1  0
 64 63  2  0
 65 66  1  0
 65 59  2  0
 66 61  2  0
 67 60  1  0
 68 58  1  0
 70 72  2  0
 71 70  1  0
 73 71  1  0
 74 83  2  0
 74 79  1  0
 75 71  1  0
 75 79  1  0
 76 75  1  0
 77 78  1  0
 77 76  1  0
 78 74  1  0
 79 80  2  0
 80 81  1  0
 82 81  2  0
 83 82  1  0
 84 58  1  0
 84 89  1  0
 84 85  1  0
 85 88  1  1
 85 86  1  0
 87 85  1  0
 89 92  1  0
 90 94  1  0
 90 89  1  0
 91 90  2  0
 94 93  1  0
 96 94  1  0
 96 97  1  0
 96 95  1  0
M  ISO  4  13 100  21 100  56 101  57 101
M  END
>  <TORSDO>  (5) 
F 25

>  <SCORE>  (5) 
-7.295

>  <name>  (5) 
4

>  <ligand_id>  (5) 
4

>  <original_smiles>  (5) 
[H]c1c([H])c([H])c2c(c1[H])C([H])([H])C([H])([H])C([H])([H])C2([H])N([H])C(=O)C1([H])N(C(=O)C([H])(N([H])C(=O)C([H])(N([H])C([H])([H])[H])C([H])([H])[H])C(C([H])([H])[H])(C([H])([H])[H])C([H])([H])[H])C([H])([H])c2c([H])c(OC([H])([H])C([H])([H])C([H])([H])C([H])([H])C([H])([H])c3n(C(C([H])([H])[H])(C([H])([H])[H])C([H])([H])[H])c([H])c(C([H])([H])C([H])([H])N(C(=O)N4C([H])([H])C([H])([H])C([H])([H])C([H])(n5nc(-c6c([H])c([H])c(Oc7c([H])c([H])c(F)c([H])c7F)c([H])c6[H])c(C(=O)N([H])[H])c5N([H])[H])C4([H])[H])C([H])([H])C([H])([H])[H])[n+]3[H])c([H])c([H])c2C1([H])[H]

>  <smiles>  (5) 
[H]c1c([H])c([H])c2c(c1[H])C([H])([H])C([H])([H])C([H])([H])C2([H])N([H])C(=O)C1([H])N(C(=O)C([H])(N([H])C(=O)C([H])(N([H])C([H])([H])[H])C([H])([H])[H])C(C([H])([H])[H])(C([H])([H])[H])C([H])([H])[H])C([H])([H])c2c([H])c(OC([H])([H])C([H])([H])C([H])([H])C([H])([H])C([H])([H])c3n(C(C([H])([H])[H])(C([H])([H])[H])C([H])([H])[H])c([H])c(C([H])([H])C([H])([H])N(C(=O)N4C([H])([H])C([H])([H])C([H])([H])C([H])(n5nc(-c6c([H])c([H])c(Oc7c([H])c([H])c(F)c([H])c7F)c([H])c6[H])c(C(=O)N([H])[H])c5N([H])[H])C4([H])[H])C([H])([H])C([H])([H])[H])[n+]3[H])c([H])c([H])c2C1([H])[H]

$$$$
5:0:0
     RDKit          3D

 98107  0  0  1  0  0  0  0  0999 V2000
  -40.2020  -25.4090   13.6610 C   0  0  0  0  0  3  0  0  0  0  0  0
  -40.7660  -24.9800   12.4510 C   0  0  0  0  0  3  0  0  0  0  0  0
  -40.3990  -26.7410   14.0810 C   0  0  0  0  0  0  0  0  0  0  0  0
  -41.5100  -25.8910   11.6860 C   0  0  0  0  0  0  0  0  0  0  0  0
  -41.1470  -27.5990   13.2360 C   0  0  0  0  0  0  0  0  0  0  0  0
  -41.6610  -27.1830   12.0540 N   0  0  0  0  0  0  0  0  0  0  0  0
  -41.9070  -29.8590   12.3610 C   0  0  0  0  0  1  0  0  0  0  0  0
  -41.4560  -29.0480   13.5820 C   0  0  0  0  0  2  0  0  0  0  0  0
  -42.1080  -25.4510   10.3590 C   0  0  0  0  0  2  0  0  0  0  0  0
  -41.1560  -25.5180    9.1490 C   0  0  0  0  0  2  0  0  0  0  0  0
  -39.9840  -24.7010    9.3040 O   0  0  0  0  0  0  0  0  0  0  0  0
  -35.9890  -30.0930    6.8840 C   0  0  0  0  0  0  0  0  0  0  0  0
  -38.8410  -25.0750    8.6230 C   0  0  0  0  0  0  0  0  0  0  0  0
  -34.9800  -27.8440    6.7200 C   0  0  0  0  0  3  0  0  0  0  0  0
  -36.5470  -25.8920    7.1800 C   0  0  0  0  0  0  0  0  0  0  0  0
  -37.5230  -28.1380    6.6910 C   0  0  0  0  0  3  0  0  0  0  0  0
  -37.6300  -26.7670    7.3240 C   0  0  0  0  0  0  0  0  0  0  0  0
  -38.7780  -26.3630    8.0420 C   0  0  0  0  0  3  0  0  0  0  0  0
  -37.7120  -24.2270    8.5090 C   0  0  0  0  0  3  0  0  0  0  0  0
  -36.5790  -24.6230    7.7780 C   0  0  0  0  0  3  0  0  0  0  0  0
  -35.3630  -26.3820    6.3790 C   0  0  0  0  0  2  0  0  0  0  0  0
  -36.1740  -28.7460    6.7930 N   0  0  0  0  0  0  0  0  0  0  0  0
  -34.8540  -30.5880    6.8660 O   0  0  0  0  0  0  0  0  0  0  0  0
  -34.1320  -27.8430    8.0120 C   0  0  0  0  0  0  0  0  0  0  0  0
  -33.0370  -27.0650    8.0070 N   0  0  0  0  0  0  0  0  0  0  0  0
  -34.4720  -28.5090    8.9930 O   0  0  0  0  0  0  0  0  0  0  0  0
  -32.8260  -26.5510    7.1630 H   0  0  0  0  0  0  0  0  0  0  0  0
  -30.0880  -25.2700    9.0700 C   0  0  0  0  0  0  0  0  0  0  0  0
  -32.1080  -26.8820    9.1220 C   0  0  0  0  0  3  0  0  0  0  0  0
  -32.7040  -25.9370   10.1910 C   0  0  0  0  0  2  0  0  0  0  0  0
  -32.3050  -24.4720    9.9930 C   0  0  0  0  0  2  0  0  0  0  0  0
  -30.7820  -24.3200   10.0310 C   0  0  0  0  0  2  0  0  0  0  0  0
  -30.7170  -26.4640    8.6310 C   0  0  0  0  0  0  0  0  0  0  0  0
  -30.0420  -27.2950    7.7090 C   0  0  0  0  0  3  0  0  0  0  0  0
  -28.7630  -26.9520    7.2330 C   0  0  0  0  0  3  0  0  0  0  0  0
  -28.1380  -25.7770    7.6830 C   0  0  0  0  0  3  0  0  0  0  0  0
  -28.7980  -24.9420    8.6020 C   0  0  0  0  0  3  0  0  0  0  0  0
  -37.1960  -31.0770    6.9900 C   0  0  0  0  0  3  0  0  0  0  0  0
  -38.5960  -30.3620    6.8510 C   0  0  1  0  0  0  0  0  0  0  0  0
  -39.0450  -29.6230    8.1330 C   0  0  0  0  0  1  0  0  0  0  0  0
  -38.5720  -29.3320    5.6970 C   0  0  0  0  0  2  0  0  0  0  0  0
  -39.6830  -31.4020    6.4930 C   0  0  0  0  0  1  0  0  0  0  0  0
  -37.0910  -31.7670    8.2830 N   0  0  0  0  0  0  0  0  0  0  0  0
  -36.2360  -31.4300    9.2560 C   0  0  0  0  0  0  0  0  0  0  0  0
  -35.3930  -30.5390    9.1290 O   0  0  0  0  0  0  0  0  0  0  0  0
  -37.7890  -32.4700    8.4790 H   0  0  0  0  0  0  0  0  0  0  0  0
  -37.8090  -32.4650   10.9230 C   0  0  0  0  0  1  0  0  0  0  0  0
  -36.3330  -32.2050   10.5840 C   0  0  0  0  0  3  0  0  0  0  0  0
  -34.2170  -31.5570   11.6470 C   0  0  0  0  0  1  0  0  0  0  0  0
  -35.6760  -31.5180   11.7170 N   0  0  0  0  0  0  0  0  0  0  0  0
  -35.9610  -31.9280   12.6020 H   0  0  0  0  0  0  0  0  0  0  0  0
  -39.8350  -27.1640   15.4340 C   0  0  0  0  0  2  0  0  0  0  0  0
  -38.9420  -26.0970   16.1050 C   0  0  0  0  0  2  0  0  0  0  0  0
  -37.9760  -26.6840   17.1710 C   0  0  0  0  0  2  0  0  0  0  0  0
  -37.1370  -24.4840   18.1250 C   0  0  0  0  0  1  0  0  0  0  0  0
  -36.8230  -25.8250   17.5780 N   0  0  2  0  0  4  0  0  0  0  0  0
  -36.4830  -26.3160   18.3940 H   0  0  0  0  0  0  0  0  0  0  0  0
  -35.6310  -25.8580   16.6830 C   0  0  0  0  0  2  0  0  0  0  0  0
  -34.2520  -25.6790   17.3720 C   0  0  0  0  0  2  0  0  0  0  0  0
  -33.2220  -24.8500   16.5650 C   0  0  0  0  0  2  0  0  0  0  0  0
  -31.6010  -25.6940   18.2060 C   0  0  0  0  0  0  0  0  0  0  0  0
  -30.1040  -27.5430   18.8700 C   0  0  0  0  0  2  0  0  0  0  0  0
  -28.6490  -27.2050   18.4790 C   0  0  0  0  0  2  0  0  0  0  0  0
  -28.3540  -27.5900   17.0160 C   0  0  0  0  0  2  0  0  0  0  0  0
  -29.4560  -27.1010   16.0350 C   0  0  0  0  0  3  0  0  0  0  0  0
  -30.8610  -27.4590   16.5660 C   0  0  0  0  0  2  0  0  0  0  0  0
  -30.9960  -26.8750   17.9090 N   0  0  0  0  0  0  0  0  0  0  0  0
  -31.6830  -25.2550   19.3590 O   0  0  0  0  0  0  0  0  0  0  0  0
  -31.1850  -23.5870   17.0790 C   0  0  0  0  0  1  0  0  0  0  0  0
  -31.8610  -24.8940   17.1380 N   0  0  0  0  0  0  0  0  0  0  0  0
  -30.1160  -28.3090   13.8620 C   0  0  0  0  0  0  0  0  0  0  0  0
  -29.4490  -28.4920   12.6800 C   0  0  0  0  0  0  0  0  0  0  0  0
  -28.1690  -27.8790   12.8490 C   0  0  0  0  0  0  0  0  0  0  0  0
  -29.2430  -27.6150   14.6840 N   0  0  0  0  0  0  0  0  0  0  0  0
  -28.0430  -27.4080   14.0820 N   0  0  0  0  0  0  0  0  0  0  0  0
  -27.0760  -27.6630   11.8930 C   0  0  0  0  0  0  0  0  0  0  0  0
  -26.9950  -28.3990   10.6910 C   0  0  0  0  0  3  0  0  0  0  0  0
  -25.9410  -28.1700    9.7810 C   0  0  0  0  0  3  0  0  0  0  0  0
  -24.9580  -27.1910   10.0650 C   0  0  0  0  0  0  0  0  0  0  0  0
  -25.0330  -26.4750   11.2730 C   0  0  0  0  0  3  0  0  0  0  0  0
  -26.0800  -26.7080   12.1800 C   0  0  0  0  0  3  0  0  0  0  0  0
  -23.8870  -26.9130    9.2520 O   0  0  0  0  0  0  0  0  0  0  0  0
  -23.7410  -25.6910    8.6460 C   0  0  0  0  0  0  0  0  0  0  0  0
  -23.2950  -24.5550    9.3560 C   0  0  0  0  0  3  0  0  0  0  0  0
  -23.0930  -23.3370    8.6780 C   0  0  0  0  0  3  0  0  0  0  0  0
  -23.3260  -23.2540    7.2920 C   0  0  0  0  0  0  0  0  0  0  0  0
  -23.7610  -24.3870    6.5820 C   0  0  0  0  0  3  0  0  0  0  0  0
  -23.9650  -25.6020    7.2570 C   0  0  0  0  0  0  0  0  0  0  0  0
  -24.3670  -26.6950    6.5660 F   0  0  0  0  0  0  0  0  0  0  0  0
  -23.1200  -22.0860    6.6390 F   0  0  0  0  0  0  0  0  0  0  0  0
  -29.9960  -29.1150   11.4260 C   0  0  0  0  0  0  0  0  0  0  0  0
  -29.3140  -30.1200   10.8920 N   0  0  0  0  0  0  0  0  0  0  0  0
  -31.0640  -28.7410   10.9410 O   0  0  0  0  0  0  0  0  0  0  0  0
  -28.4520  -30.4500   11.3000 H   0  0  0  0  0  0  0  0  0  0  0  0
  -29.6630  -30.5690   10.0580 H   0  0  0  0  0  0  0  0  0  0  0  0
  -31.3900  -28.6550   14.3090 N   0  0  0  0  0  0  0  0  0  0  0  0
  -32.0710  -29.1390   13.7390 H   0  0  0  0  0  0  0  0  0  0  0  0
  -31.7500  -28.4030   15.2210 H   0  0  0  0  0  0  0  0  0  0  0  0
  1  3  1  0
  2  1  2  0
  3 52  1  0
  4  6  2  0
  4  2  1  0
  5  8  1  0
  5  3  2  0
  6  5  1  0
  7  8  1  0
  9  4  1  0
 10 11  1  0
 10  9  1  0
 12 38  1  0
 13 11  1  0
 14 22  1  0
 14 24  1  0
 15 17  2  0
 15 20  1  0
 16 41  1  0
 16 22  1  0
 16 17  1  0
 17 18  1  0
 18 13  2  0
 19 13  1  0
 20 19  2  0
 21 14  1  0
 21 15  1  0
 22 12  1  0
 23 12  2  0
 24 26  2  0
 25 24  1  0
 27 25  1  0
 28 32  1  0
 29 25  1  0
 29 30  1  0
 31 32  1  0
 31 30  1  0
 33 28  1  0
 33 29  1  0
 34 33  2  0
 35 36  2  0
 35 34  1  0
 36 37  1  0
 37 28  2  0
 38 43  1  0
 39 38  1  0
 39 40  1  1
 41 39  1  0
 42 39  1  0
 43 46  1  0
 43 44  1  0
 44 48  1  0
 45 44  2  0
 48 47  1  0
 48 50  1  0
 49 50  1  0
 50 51  1  0
 52 53  1  0
 53 54  1  0
 54 56  1  0
 56 55  1  0
 56 57  1  1
 58 59  1  0
 58 56  1  0
 60 70  1  0
 60 59  1  0
 61 68  2  0
 63 62  1  0
 64 63  1  0
 65 74  1  0
 65 66  1  0
 65 64  1  0
 66 67  1  0
 67 61  1  0
 67 62  1  0
 69 70  1  0
 70 61  1  0
 71 96  1  0
 71 74  1  0
 72 73  1  0
 72 71  2  0
 73 75  2  0
 75 74  1  0
 76 81  1  0
 76 73  1  0
 77 76  2  0
 78 79  2  0
 78 77  1  0
 79 80  1  0
 80 81  2  0
 82 79  1  0
 83 82  1  0
 83 84  1  0
 85 84  2  0
 86 85  1  0
 87 88  1  0
 87 86  2  0
 88 83  2  0
 89 88  1  0
 90 86  1  0
 91 72  1  0
 92 94  1  0
 92 91  1  0
 93 91  2  0
 95 92  1  0
 96 98  1  0
 97 96  1  0
M  ISO  4  10 101  11 101  61 100  70 100
M  END
>  <TORSDO>  (6) 
F 26

>  <SCORE>  (6) 
-2.219

>  <name>  (6) 
5

>  <ligand_id>  (6) 
5

>  <original_smiles>  (6) 
[H]c1c(C([H])([H])C([H])([H])Oc2c([H])c([H])c3c(c2[H])C([H])([H])N(C(=O)C([H])(N([H])C(=O)C([H])(N([H])C([H])([H])[H])C([H])([H])[H])C(C([H])([H])[H])(C([H])([H])[H])C([H])([H])[H])C([H])(C(=O)N([H])C2([H])c4c([H])c([H])c([H])c([H])c4C([H])([H])C([H])([H])C2([H])[H])C3([H])[H])nc(C([H])([H])C([H])([H])[H])c(C([H])([H])C([H])([H])C([H])([H])[N+]([H])(C([H])([H])[H])C([H])([H])C([H])([H])C([H])([H])N(C(=O)N2C([H])([H])C([H])([H])C([H])([H])C([H])(n3nc(-c4c([H])c([H])c(Oc5c([H])c([H])c(F)c([H])c5F)c([H])c4[H])c(C(=O)N([H])[H])c3N([H])[H])C2([H])[H])C([H])([H])[H])c1[H]

>  <smiles>  (6) 
[H]c1c(C([H])([H])C([H])([H])Oc2c([H])c([H])c3c(c2[H])C([H])([H])N(C(=O)C([H])(N([H])C(=O)C([H])(N([H])C([H])([H])[H])C([H])([H])[H])C(C([H])([H])[H])(C([H])([H])[H])C([H])([H])[H])C([H])(C(=O)N([H])C2([H])c4c([H])c([H])c([H])c([H])c4C([H])([H])C([H])([H])C2([H])[H])C3([H])[H])nc(C([H])([H])C([H])([H])[H])c(C([H])([H])C([H])([H])C([H])([H])[N+]([H])(C([H])([H])[H])C([H])([H])C([H])([H])C([H])([H])N(C(=O)N2C([H])([H])C([H])([H])C([H])([H])C([H])(n3nc(-c4c([H])c([H])c(Oc5c([H])c([H])c(F)c([H])c5F)c([H])c4[H])c(C(=O)N([H])[H])c3N([H])[H])C2([H])[H])C([H])([H])[H])c1[H]

$$$$
6:0:0
     RDKit          3D

 96104  0  0  1  0  0  0  0  0999 V2000
  -24.9850  -22.4050   20.6330 C   0  0  0  0  0  3  0  0  0  0  0  0
  -24.5980  -23.7100   20.3290 C   0  0  0  0  0  0  0  0  0  0  0  0
  -26.3540  -22.1790   20.8070 C   0  0  0  0  0  0  0  0  0  0  0  0
  -26.7930  -24.3880   20.3820 C   0  0  0  0  0  0  0  0  0  0  0  0
  -23.1460  -24.0640   20.0930 C   0  0  0  0  0  1  0  0  0  0  0  0
  -25.5060  -24.6920   20.2310 N   0  0  0  0  0  0  0  0  0  0  0  0
  -27.2650  -23.1590   20.6130 N   0  0  0  0  0  0  0  0  0  0  0  0
  -29.0850  -25.3350   21.0380 C   0  0  0  0  0  1  0  0  0  0  0  0
  -27.7810  -25.5540   20.2490 C   0  0  0  0  0  3  0  0  0  0  0  0
  -28.0470  -25.9990   18.7790 C   0  0  0  0  0  2  0  0  0  0  0  0
  -28.0660  -27.4340   18.6180 O   0  0  0  0  0  0  0  0  0  0  0  0
  -24.5090  -31.7970   22.9540 C   0  0  0  0  0  0  0  0  0  0  0  0
  -26.8790  -28.1040   18.8420 C   0  0  0  0  0  0  0  0  0  0  0  0
  -23.1490  -30.6150   21.2640 C   0  0  0  0  0  3  0  0  0  0  0  0
  -24.4530  -29.4410   19.4210 C   0  0  0  0  0  0  0  0  0  0  0  0
  -25.6110  -31.1620   20.8100 C   0  0  0  0  0  2  0  0  0  0  0  0
  -25.6610  -29.9290   19.9330 C   0  0  0  0  0  0  0  0  0  0  0  0
  -26.8790  -29.2750   19.6330 C   0  0  0  0  0  3  0  0  0  0  0  0
  -25.6470  -27.6330   18.3280 C   0  0  0  0  0  3  0  0  0  0  0  0
  -24.4410  -28.2910   18.6160 C   0  0  0  0  0  3  0  0  0  0  0  0
  -23.1950  -30.2010   19.7710 C   0  0  0  0  0  2  0  0  0  0  0  0
  -24.4490  -31.1970   21.7320 N   0  0  0  0  0  0  0  0  0  0  0  0
  -23.5000  -31.9050   23.6660 O   0  0  0  0  0  0  0  0  0  0  0  0
  -22.6790  -29.4020   22.0980 C   0  0  0  0  0  0  0  0  0  0  0  0
  -21.3720  -29.1020   22.0350 N   0  0  0  0  0  0  0  0  0  0  0  0
  -23.4810  -28.7430   22.7650 O   0  0  0  0  0  0  0  0  0  0  0  0
  -20.7760  -29.7000   21.4790 H   0  0  0  0  0  0  0  0  0  0  0  0
  -18.1970  -27.4390   22.4770 C   0  0  0  0  0  0  0  0  0  0  0  0
  -20.7120  -27.9870   22.7120 C   0  0  0  0  0  3  0  0  0  0  0  0
  -20.9640  -26.6540   21.9680 C   0  0  0  0  0  2  0  0  0  0  0  0
  -19.8700  -26.3090   20.9520 C   0  0  0  0  0  2  0  0  0  0  0  0
  -18.5120  -26.2030   21.6490 C   0  0  0  0  0  2  0  0  0  0  0  0
  -19.2290  -28.2840   22.9640 C   0  0  0  0  0  0  0  0  0  0  0  0
  -18.8800  -29.4370   23.7040 C   0  0  0  0  0  3  0  0  0  0  0  0
  -17.5310  -29.7450   23.9600 C   0  0  0  0  0  3  0  0  0  0  0  0
  -16.5130  -28.8990   23.4840 C   0  0  0  0  0  3  0  0  0  0  0  0
  -16.8460  -27.7480   22.7480 C   0  0  0  0  0  3  0  0  0  0  0  0
  -25.8400  -32.3980   23.5050 C   0  0  0  0  0  3  0  0  0  0  0  0
  -25.5350  -33.7340   24.0350 N   0  0  0  0  0  0  0  0  0  0  0  0
  -25.7950  -34.8820   23.3970 C   0  0  0  0  0  0  0  0  0  0  0  0
  -26.3900  -34.9290   22.3170 O   0  0  0  0  0  0  0  0  0  0  0  0
  -25.0060  -33.7700   24.8950 H   0  0  0  0  0  0  0  0  0  0  0  0
  -24.0340  -36.6760   23.3710 C   0  0  0  0  0  1  0  0  0  0  0  0
  -25.3160  -36.1870   24.0620 C   0  0  0  0  0  3  0  0  0  0  0  0
  -27.4820  -36.9830   24.9020 C   0  0  0  0  0  1  0  0  0  0  0  0
  -26.3310  -37.2620   24.0460 N   0  0  0  0  0  0  0  0  0  0  0  0
  -25.9230  -38.1440   24.3420 H   0  0  0  0  0  0  0  0  0  0  0  0
  -26.5190  -31.4970   24.6100 C   0  0  1  0  0  0  0  0  0  0  0  0
  -25.5660  -31.0890   25.7570 C   0  0  0  0  0  1  0  0  0  0  0  0
  -27.0810  -30.1990   23.9860 C   0  0  0  0  0  1  0  0  0  0  0  0
  -27.7200  -32.2470   25.2310 C   0  0  0  0  0  1  0  0  0  0  0  0
  -26.8710  -20.8000   21.1700 C   0  0  0  0  0  2  0  0  0  0  0  0
  -27.6410  -20.2110   18.8990 C   0  0  0  0  0  1  0  0  0  0  0  0
  -28.0210  -20.4200   20.3240 N   0  0  2  0  0  4  0  0  0  0  0  0
  -28.5880  -21.2570   20.3480 H   0  0  0  0  0  0  0  0  0  0  0  0
  -28.7750  -19.2910   20.9450 C   0  0  0  0  0  2  0  0  0  0  0  0
  -29.8180  -18.6400   20.0140 C   0  0  0  0  0  2  0  0  0  0  0  0
  -30.5580  -17.4180   20.6140 C   0  0  0  0  0  2  0  0  0  0  0  0
  -32.0730  -15.5460   19.9840 C   0  0  0  0  0  0  0  0  0  0  0  0
  -31.7050  -13.3390   18.9890 C   0  0  0  0  0  2  0  0  0  0  0  0
  -30.7210  -13.5060   17.8100 C   0  0  0  0  0  2  0  0  0  0  0  0
  -29.2590  -13.4300   18.2980 C   0  0  0  0  0  2  0  0  0  0  0  0
  -28.9820  -14.3220   19.5370 C   0  0  0  0  0  3  0  0  0  0  0  0
  -30.0800  -14.1250   20.6090 C   0  0  0  0  0  2  0  0  0  0  0  0
  -31.3770  -14.3810   19.9680 N   0  0  0  0  0  0  0  0  0  0  0  0
  -33.2760  -15.5940   19.7090 O   0  0  0  0  0  0  0  0  0  0  0  0
  -31.6250  -17.2500   18.3290 C   0  0  0  0  0  1  0  0  0  0  0  0
  -31.3190  -16.6170   19.6280 N   0  0  0  0  0  0  0  0  0  0  0  0
  -26.6670  -15.0180   20.4100 C   0  0  0  0  0  0  0  0  0  0  0  0
  -25.5720  -14.2840   20.7810 C   0  0  0  0  0  0  0  0  0  0  0  0
  -25.9480  -12.9130   20.6370 C   0  0  0  0  0  0  0  0  0  0  0  0
  -27.6430  -14.0940   20.0730 N   0  0  0  0  0  0  0  0  0  0  0  0
  -27.2190  -12.8210   20.2690 N   0  0  0  0  0  0  0  0  0  0  0  0
  -25.1570  -11.6850   20.7750 C   0  0  0  0  0  0  0  0  0  0  0  0
  -25.5160  -10.6800   21.7020 C   0  0  0  0  0  3  0  0  0  0  0  0
  -24.7320   -9.5130   21.8290 C   0  0  0  0  0  3  0  0  0  0  0  0
  -23.5730   -9.3450   21.0330 C   0  0  0  0  0  0  0  0  0  0  0  0
  -23.2340  -10.3380   20.0970 C   0  0  0  0  0  3  0  0  0  0  0  0
  -24.0170  -11.4970   19.9670 C   0  0  0  0  0  3  0  0  0  0  0  0
  -22.7650   -8.2340   21.0750 O   0  0  0  0  0  0  0  0  0  0  0  0
  -22.5480   -7.5450   22.2420 C   0  0  0  0  0  0  0  0  0  0  0  0
  -22.0300   -8.1760   23.3940 C   0  0  0  0  0  3  0  0  0  0  0  0
  -21.7610   -7.4160   24.5510 C   0  0  0  0  0  3  0  0  0  0  0  0
  -21.9960   -6.0280   24.5530 C   0  0  0  0  0  0  0  0  0  0  0  0
  -22.5050   -5.3990   23.4040 C   0  0  0  0  0  3  0  0  0  0  0  0
  -22.7780   -6.1560   22.2500 C   0  0  0  0  0  0  0  0  0  0  0  0
  -23.2500   -5.5410   21.1380 F   0  0  0  0  0  0  0  0  0  0  0  0
  -21.7270   -5.2960   25.6590 F   0  0  0  0  0  0  0  0  0  0  0  0
  -24.2180  -14.8190   21.1450 C   0  0  0  0  0  0  0  0  0  0  0  0
  -23.5020  -14.1250   22.0260 N   0  0  0  0  0  0  0  0  0  0  0  0
  -23.8060  -15.8850   20.6900 O   0  0  0  0  0  0  0  0  0  0  0  0
  -23.8470  -13.2610   22.4150 H   0  0  0  0  0  0  0  0  0  0  0  0
  -22.5940  -14.4640   22.3130 H   0  0  0  0  0  0  0  0  0  0  0  0
  -26.9080  -16.3830   20.3030 N   0  0  0  0  0  0  0  0  0  0  0  0
  -26.1690  -17.0610   20.4370 H   0  0  0  0  0  0  0  0  0  0  0  0
  -27.7360  -16.7660   19.8670 H   0  0  0  0  0  0  0  0  0  0  0  0
  1  3  1  0
  2  1  2  0
  3 52  1  0
  4  7  1  0
  5  2  1  0
  6  2  1  0
  6  4  2  0
  7  3  2  0
  9  4  1  0
  9  8  1  0
 10  9  1  0
 11 10  1  0
 11 13  1  0
 12 23  2  0
 13 18  1  0
 14 22  1  0
 14 24  1  0
 15 21  1  0
 15 17  1  0
 16 22  1  0
 17 16  1  0
 18 17  2  0
 19 20  1  0
 19 13  2  0
 20 15  2  0
 21 14  1  0
 22 12  1  0
 24 26  2  0
 25 24  1  0
 27 25  1  0
 28 37  2  0
 28 33  1  0
 29 25  1  0
 29 33  1  0
 30 29  1  0
 31 32  1  0
 31 30  1  0
 32 28  1  0
 33 34  2  0
 34 35  1  0
 36 35  2  0
 37 36  1  0
 38 12  1  0
 38 39  1  0
 38 48  1  0
 39 42  1  0
 40 39  1  0
 40 44  1  0
 41 40  2  0
 44 43  1  0
 46 44  1  0
 46 47  1  0
 46 45  1  0
 48 51  1  1
 48 49  1  0
 50 48  1  0
 53 54  1  0
 54 55  1  6
 54 56  1  0
 54 52  1  0
 57 58  1  0
 57 56  1  0
 60 65  1  0
 61 62  1  0
 61 60  1  0
 63 62  1  0
 63 72  1  0
 63 64  1  0
 65 59  1  0
 65 64  1  0
 66 59  2  0
 67 68  1  0
 68 59  1  0
 68 58  1  0
 69 70  2  0
 70 89  1  0
 71 74  1  0
 71 70  1  0
 72 73  1  0
 72 69  1  0
 73 71  2  0
 74 75  1  0
 75 76  2  0
 77 80  1  0
 77 76  1  0
 78 77  2  0
 79 78  1  0
 79 74  2  0
 80 81  1  0
 81 86  2  0
 81 82  1  0
 82 83  2  0
 83 84  1  0
 84 88  1  0
 85 84  2  0
 86 85  1  0
 87 86  1  0
 89 90  1  0
 90 93  1  0
 90 92  1  0
 91 89  2  0
 94 69  1  0
 94 95  1  0
 96 94  1  0
M  ISO  4  10 101  11 101  59 100  68 100
M  END
>  <TORSDO>  (7) 
F 23

>  <SCORE>  (7) 
-4.746

>  <name>  (7) 
6

>  <ligand_id>  (7) 
6

>  <original_smiles>  (7) 
[H]c1c(C([H])([H])[H])nc(C([H])(C([H])([H])[H])C([H])([H])Oc2c([H])c([H])c3c(c2[H])C([H])([H])N(C(=O)C([H])(N([H])C(=O)C([H])(N([H])C([H])([H])[H])C([H])([H])[H])C(C([H])([H])[H])(C([H])([H])[H])C([H])([H])[H])C([H])(C(=O)N([H])C2([H])c4c([H])c([H])c([H])c([H])c4C([H])([H])C([H])([H])C2([H])[H])C3([H])[H])nc1C([H])([H])[N+]([H])(C([H])([H])[H])C([H])([H])C([H])([H])C([H])([H])N(C(=O)N1C([H])([H])C([H])([H])C([H])([H])C([H])(n2nc(-c3c([H])c([H])c(Oc4c([H])c([H])c(F)c([H])c4F)c([H])c3[H])c(C(=O)N([H])[H])c2N([H])[H])C1([H])[H])C([H])([H])[H]

>  <smiles>  (7) 
[H]c1c(C([H])([H])[H])nc(C([H])(C([H])([H])[H])C([H])([H])Oc2c([H])c([H])c3c(c2[H])C([H])([H])N(C(=O)C([H])(N([H])C(=O)C([H])(N([H])C([H])([H])[H])C([H])([H])[H])C(C([H])([H])[H])(C([H])([H])[H])C([H])([H])[H])C([H])(C(=O)N([H])C2([H])c4c([H])c([H])c([H])c([H])c4C([H])([H])C([H])([H])C2([H])[H])C3([H])[H])nc1C([H])([H])[N+]([H])(C([H])([H])[H])C([H])([H])C([H])([H])C([H])([H])N(C(=O)N1C([H])([H])C([H])([H])C([H])([H])C([H])(n2nc(-c3c([H])c([H])c(Oc4c([H])c([H])c(F)c([H])c4F)c([H])c3[H])c(C(=O)N([H])[H])c2N([H])[H])C1([H])[H])C([H])([H])[H]

$$$$
8:0:0
     RDKit          3D

 93101  0  0  1  0  0  0  0  0999 V2000
  -27.6280  -23.5870   21.0320 C   0  0  0  0  0  0  0  0  0  0  0  0
  -28.2300  -22.8420   19.9860 C   0  0  0  0  0  0  0  0  0  0  0  0
  -28.4620  -25.4870   20.0900 C   0  0  0  0  0  0  0  0  0  0  0  0
  -26.7830  -22.9620   22.1220 C   0  0  0  0  0  1  0  0  0  0  0  0
  -27.7620  -24.9310   21.0880 N   0  0  0  0  0  0  0  0  0  0  0  0
  -29.0110  -23.4810   19.0760 N   0  0  0  0  0  2  0  0  0  0  0  0
  -29.1240  -24.8210   19.1260 N   0  0  0  0  0  0  0  0  0  0  0  0
  -28.5000  -26.8420   20.0110 O   0  0  0  0  0  0  0  0  0  0  0  0
  -24.5930  -31.9040   23.2180 C   0  0  0  0  0  0  0  0  0  0  0  0
  -27.3000  -27.5310   20.0690 C   0  0  0  0  0  0  0  0  0  0  0  0
  -23.4060  -30.5090   21.5590 C   0  0  0  0  0  3  0  0  0  0  0  0
  -24.8770  -29.0110   20.1100 C   0  0  0  0  0  0  0  0  0  0  0  0
  -25.9340  -30.8850   21.3840 C   0  0  0  0  0  2  0  0  0  0  0  0
  -26.0290  -29.5300   20.7160 C   0  0  0  0  0  0  0  0  0  0  0  0
  -27.2390  -28.8000   20.6950 C   0  0  0  0  0  3  0  0  0  0  0  0
  -26.1280  -27.0320   19.4470 C   0  0  0  0  0  3  0  0  0  0  0  0
  -24.9230  -27.7570   19.4750 C   0  0  0  0  0  3  0  0  0  0  0  0
  -23.6260  -29.8610   20.1660 C   0  0  0  0  0  2  0  0  0  0  0  0
  -24.6620  -31.1150   22.1090 N   0  0  0  0  0  0  0  0  0  0  0  0
  -23.5060  -32.1600   23.7550 O   0  0  0  0  0  0  0  0  0  0  0  0
  -22.7680  -29.4640   22.4990 C   0  0  0  0  0  0  0  0  0  0  0  0
  -21.4450  -29.2790   22.3750 N   0  0  0  0  0  0  0  0  0  0  0  0
  -23.4590  -28.8260   23.2990 O   0  0  0  0  0  0  0  0  0  0  0  0
  -20.9520  -29.8460   21.7000 H   0  0  0  0  0  0  0  0  0  0  0  0
  -18.0760  -28.0800   22.8760 C   0  0  0  0  0  0  0  0  0  0  0  0
  -20.6350  -28.3280   23.1330 C   0  0  0  0  0  3  0  0  0  0  0  0
  -20.7320  -26.9100   22.5240 C   0  0  0  0  0  2  0  0  0  0  0  0
  -19.6200  -26.6080   21.5140 C   0  0  0  0  0  2  0  0  0  0  0  0
  -18.2440  -26.7440   22.1690 C   0  0  0  0  0  2  0  0  0  0  0  0
  -19.1990  -28.8310   23.3120 C   0  0  0  0  0  0  0  0  0  0  0  0
  -18.9850  -30.0820   23.9290 C   0  0  0  0  0  3  0  0  0  0  0  0
  -17.6830  -30.5830   24.1150 C   0  0  0  0  0  3  0  0  0  0  0  0
  -16.5730  -29.8270   23.6960 C   0  0  0  0  0  3  0  0  0  0  0  0
  -16.7720  -28.5770   23.0820 C   0  0  0  0  0  3  0  0  0  0  0  0
  -25.8730  -32.5390   23.8480 C   0  0  0  0  0  3  0  0  0  0  0  0
  -25.5570  -33.9370   24.1670 N   0  0  0  0  0  0  0  0  0  0  0  0
  -25.9080  -34.9880   23.4140 C   0  0  0  0  0  0  0  0  0  0  0  0
  -26.5980  -34.8820   22.3970 O   0  0  0  0  0  0  0  0  0  0  0  0
  -24.9470  -34.0970   24.9550 H   0  0  0  0  0  0  0  0  0  0  0  0
  -24.1900  -36.7810   23.0150 C   0  0  0  0  0  1  0  0  0  0  0  0
  -25.4100  -36.3760   23.8580 C   0  0  0  0  0  3  0  0  0  0  0  0
  -27.5200  -37.2560   24.7520 C   0  0  0  0  0  1  0  0  0  0  0  0
  -26.4460  -37.4270   23.7750 N   0  0  0  0  0  0  0  0  0  0  0  0
  -26.0400  -38.3490   23.9080 H   0  0  0  0  0  0  0  0  0  0  0  0
  -26.3830  -31.7770   25.1330 C   0  0  1  0  0  0  0  0  0  0  0  0
  -25.2820  -31.5370   26.1910 C   0  0  0  0  0  1  0  0  0  0  0  0
  -26.9830  -30.4040   24.7550 C   0  0  0  0  0  1  0  0  0  0  0  0
  -27.5180  -32.5880   25.8060 C   0  0  0  0  0  1  0  0  0  0  0  0
  -27.8710  -21.3830   19.6830 C   0  0  0  0  0  2  0  0  0  0  0  0
  -28.4880  -20.2670   20.5750 C   0  0  0  0  0  2  0  0  0  0  0  0
  -29.5640  -19.3340   19.9360 C   0  0  0  0  0  2  0  0  0  0  0  0
  -30.8850  -18.6890   21.9120 C   0  0  0  0  0  1  0  0  0  0  0  0
  -29.9620  -18.2140   20.8510 N   0  0  2  0  0  4  0  0  0  0  0  0
  -29.1080  -17.9160   21.3000 H   0  0  0  0  0  0  0  0  0  0  0  0
  -30.5060  -17.0050   20.1470 C   0  0  0  0  0  2  0  0  0  0  0  0
  -30.4490  -15.6720   20.9650 C   0  0  0  0  0  3  0  0  0  0  0  0
  -31.1610  -15.7640   22.0930 F   0  0  0  0  0  0  0  0  0  0  0  0
  -31.0250  -14.4900   20.1590 C   0  0  0  0  0  0  0  0  0  0  0  0
  -30.6360  -12.3840   18.9340 C   0  0  0  0  0  2  0  0  0  0  0  0
  -29.6610  -12.6860   17.7750 C   0  0  0  0  0  2  0  0  0  0  0  0
  -28.1930  -12.5690   18.2420 C   0  0  0  0  0  2  0  0  0  0  0  0
  -27.9280  -13.3590   19.5530 C   0  0  0  0  0  3  0  0  0  0  0  0
  -29.0120  -13.0150   20.6010 C   0  0  0  0  0  2  0  0  0  0  0  0
  -30.3240  -13.3300   20.0130 N   0  0  0  0  0  0  0  0  0  0  0  0
  -32.1120  -14.6680   19.5970 O   0  0  0  0  0  0  0  0  0  0  0  0
  -25.5520  -14.0100   20.3040 C   0  0  0  0  0  0  0  0  0  0  0  0
  -24.4780  -13.2550   20.6910 C   0  0  0  0  0  0  0  0  0  0  0  0
  -24.9150  -11.8960   20.6470 C   0  0  0  0  0  0  0  0  0  0  0  0
  -26.5790  -13.1110   20.0570 N   0  0  0  0  0  0  0  0  0  0  0  0
  -26.1970  -11.8340   20.3130 N   0  0  0  0  0  0  0  0  0  0  0  0
  -24.1740  -10.6460   20.8520 C   0  0  0  0  0  0  0  0  0  0  0  0
  -24.5780   -9.7050   21.8250 C   0  0  0  0  0  3  0  0  0  0  0  0
  -23.8390   -8.5180   22.0210 C   0  0  0  0  0  3  0  0  0  0  0  0
  -22.6850   -8.2660   21.2440 C   0  0  0  0  0  0  0  0  0  0  0  0
  -22.3010   -9.1950   20.2620 C   0  0  0  0  0  3  0  0  0  0  0  0
  -23.0390  -10.3740   20.0650 C   0  0  0  0  0  3  0  0  0  0  0  0
  -21.9220   -7.1270   21.3440 O   0  0  0  0  0  0  0  0  0  0  0  0
  -21.7870   -6.4560   22.5300 C   0  0  0  0  0  0  0  0  0  0  0  0
  -21.2800   -7.0850   23.6890 C   0  0  0  0  0  3  0  0  0  0  0  0
  -21.0900   -6.3410   24.8690 C   0  0  0  0  0  3  0  0  0  0  0  0
  -21.3960   -4.9650   24.8930 C   0  0  0  0  0  0  0  0  0  0  0  0
  -21.8970   -4.3360   23.7390 C   0  0  0  0  0  3  0  0  0  0  0  0
  -22.0890   -5.0790   22.5620 C   0  0  0  0  0  0  0  0  0  0  0  0
  -22.5520   -4.4650   21.4460 F   0  0  0  0  0  0  0  0  0  0  0  0
  -21.2060   -4.2470   26.0240 F   0  0  0  0  0  0  0  0  0  0  0  0
  -23.0970  -13.7580   20.9940 C   0  0  0  0  0  0  0  0  0  0  0  0
  -22.3870  -13.0830   21.8910 N   0  0  0  0  0  0  0  0  0  0  0  0
  -22.6570  -14.7830   20.4760 O   0  0  0  0  0  0  0  0  0  0  0  0
  -22.7630  -12.2590   22.3360 H   0  0  0  0  0  0  0  0  0  0  0  0
  -21.4630  -13.3990   22.1460 H   0  0  0  0  0  0  0  0  0  0  0  0
  -25.7300  -15.3780   20.1260 N   0  0  0  0  0  0  0  0  0  0  0  0
  -26.5580  -15.8150   19.7470 H   0  0  0  0  0  0  0  0  0  0  0  0
  -24.9590  -16.0260   20.2490 H   0  0  0  0  0  0  0  0  0  0  0  0
  1  5  1  0
  1  4  1  0
  2  1  2  0
  3  5  2  0
  6  7  1  0
  6  2  1  0
  7  3  2  0
  8 10  1  0
  8  3  1  0
  9 20  2  0
 10 15  1  0
 11 19  1  0
 11 21  1  0
 12 18  1  0
 12 14  1  0
 13 19  1  0
 14 13  1  0
 15 14  2  0
 16 17  1  0
 16 10  2  0
 17 12  2  0
 18 11  1  0
 19  9  1  0
 21 23  2  0
 22 21  1  0
 24 22  1  0
 25 34  2  0
 25 30  1  0
 26 22  1  0
 26 30  1  0
 27 26  1  0
 28 29  1  0
 28 27  1  0
 29 25  1  0
 30 31  2  0
 31 32  1  0
 33 32  2  0
 34 33  1  0
 35  9  1  0
 35 36  1  0
 35 45  1  0
 36 39  1  0
 37 41  1  0
 37 36  1  0
 38 37  2  0
 41 40  1  0
 43 41  1  0
 43 44  1  0
 43 42  1  0
 45 48  1  1
 45 46  1  0
 47 45  1  0
 49  2  1  0
 49 50  1  0
 51 50  1  0
 51 53  1  0
 53 54  1  1
 53 52  1  0
 55 53  1  0
 55 56  1  0
 56 57  1  0
 58 56  1  0
 59 64  1  0
 60 61  1  0
 60 59  1  0
 62 61  1  0
 62 69  1  0
 62 63  1  0
 64 58  1  0
 64 63  1  0
 65 58  2  0
 66 67  2  0
 67 86  1  0
 68 67  1  0
 68 71  1  0
 69 66  1  0
 69 70  1  0
 70 68  2  0
 71 72  1  0
 72 73  2  0
 74 77  1  0
 74 73  1  0
 75 74  2  0
 76 75  1  0
 76 71  2  0
 77 78  1  0
 78 83  2  0
 78 79  1  0
 79 80  2  0
 80 81  1  0
 81 85  1  0
 82 81  2  0
 83 82  1  0
 84 83  1  0
 86 87  1  0
 87 90  1  0
 87 89  1  0
 88 86  2  0
 91 93  1  0
 91 66  1  0
 92 91  1  0
M  ISO  4   3 101   8 101  56 100  58 100
M  END
>  <TORSDO>  (8) 
F 22

>  <SCORE>  (8) 
-12.850

>  <name>  (8) 
8

>  <ligand_id>  (8) 
8

>  <original_smiles>  (8) 
[H]c1c([H])c([H])c2c(c1[H])C([H])([H])C([H])([H])C([H])([H])C2([H])N([H])C(=O)C1([H])N(C(=O)C([H])(N([H])C(=O)C([H])(N([H])C([H])([H])[H])C([H])([H])[H])C(C([H])([H])[H])(C([H])([H])[H])C([H])([H])[H])C([H])([H])c2c([H])c(Oc3nnc(C([H])([H])C([H])([H])C([H])([H])[N+]([H])(C([H])([H])[H])C([H])([H])C([H])(F)C(=O)N4C([H])([H])C([H])([H])C([H])([H])C([H])(n5nc(-c6c([H])c([H])c(Oc7c([H])c([H])c(F)c([H])c7F)c([H])c6[H])c(C(=O)N([H])[H])c5N([H])[H])C4([H])[H])c(C([H])([H])[H])n3)c([H])c([H])c2C1([H])[H]

>  <smiles>  (8) 
[H]c1c([H])c([H])c2c(c1[H])C([H])([H])C([H])([H])C([H])([H])C2([H])N([H])C(=O)C1([H])N(C(=O)C([H])(N([H])C(=O)C([H])(N([H])C([H])([H])[H])C([H])([H])[H])C(C([H])([H])[H])(C([H])([H])[H])C([H])([H])[H])C([H])([H])c2c([H])c(Oc3nnc(C([H])([H])C([H])([H])C([H])([H])[N+]([H])(C([H])([H])[H])C([H])([H])C([H])(F)C(=O)N4C([H])([H])C([H])([H])C([H])([H])C([H])(n5nc(-c6c([H])c([H])c(Oc7c([H])c([H])c(F)c([H])c7F)c([H])c6[H])c(C(=O)N([H])[H])c5N([H])[H])C4([H])[H])c(C([H])([H])[H])n3)c([H])c([H])c2C1([H])[H]

$$$$
9:0:0
     RDKit          3D

 91 99  0  0  1  0  0  0  0  0999 V2000
  -28.2750  -21.3630   20.8360 C   0  0  0  0  0  3  0  0  0  0  0  0
  -30.0960  -21.1660   19.7120 C   0  0  0  0  0  3  0  0  0  0  0  0
  -29.2680  -22.1880   20.2140 C   0  0  0  0  0  0  0  0  0  0  0  0
  -28.4910  -20.0320   20.7350 N   0  0  0  0  0  0  0  0  0  0  0  0
  -29.6300  -19.8530   20.0150 N   0  0  0  0  0  0  0  0  0  0  0  0
  -30.6780  -18.3810   18.2630 C   0  0  0  0  0  1  0  0  0  0  0  0
  -30.2440  -18.4500   19.7410 C   0  0  0  0  0  3  0  0  0  0  0  0
  -29.4180  -17.0880   20.1130 C   0  0  0  0  0  2  0  0  0  0  0  0
  -30.4090  -14.6770   19.4760 C   0  0  0  0  0  0  0  0  0  0  0  0
  -29.9370  -12.4720   18.3380 C   0  0  0  0  0  2  0  0  0  0  0  0
  -28.8530  -12.6090   17.2500 C   0  0  0  0  0  2  0  0  0  0  0  0
  -27.4500  -12.4340   17.8550 C   0  0  0  0  0  2  0  0  0  0  0  0
  -27.2590  -13.2770   19.1410 C   0  0  0  0  0  3  0  0  0  0  0  0
  -28.4520  -13.1580   20.1100 C   0  0  0  0  0  2  0  0  0  0  0  0
  -29.6900  -13.4930   19.3890 N   0  0  0  0  0  0  0  0  0  0  0  0
  -31.3970  -14.8240   18.7460 O   0  0  0  0  0  0  0  0  0  0  0  0
  -30.0480  -15.6830   20.3830 N   0  0  0  0  0  0  0  0  0  0  0  0
  -25.0170  -13.8710   20.2350 C   0  0  0  0  0  0  0  0  0  0  0  0
  -24.0120  -13.1030   20.7540 C   0  0  0  0  0  0  0  0  0  0  0  0
  -24.4490  -11.7470   20.6370 C   0  0  0  0  0  0  0  0  0  0  0  0
  -25.9970  -12.9850   19.8180 N   0  0  0  0  0  0  0  0  0  0  0  0
  -25.6740  -11.7010   20.1240 N   0  0  0  0  0  0  0  0  0  0  0  0
  -23.7420  -10.4910   20.9250 C   0  0  0  0  0  0  0  0  0  0  0  0
  -24.2610   -9.5410   21.8300 C   0  0  0  0  0  3  0  0  0  0  0  0
  -23.5530   -8.3500   22.1040 C   0  0  0  0  0  3  0  0  0  0  0  0
  -22.3130   -8.1000   21.4700 C   0  0  0  0  0  0  0  0  0  0  0  0
  -21.8100   -9.0400   20.5520 C   0  0  0  0  0  3  0  0  0  0  0  0
  -22.5210  -10.2220   20.2780 C   0  0  0  0  0  3  0  0  0  0  0  0
  -21.5690   -6.9590   21.6500 O   0  0  0  0  0  0  0  0  0  0  0  0
  -21.6060   -6.2520   22.8260 C   0  0  0  0  0  0  0  0  0  0  0  0
  -21.2750   -6.8480   24.0610 C   0  0  0  0  0  3  0  0  0  0  0  0
  -21.2560   -6.0690   25.2350 C   0  0  0  0  0  3  0  0  0  0  0  0
  -21.5580   -4.6950   25.1770 C   0  0  0  0  0  0  0  0  0  0  0  0
  -21.8810   -4.0990   23.9450 C   0  0  0  0  0  3  0  0  0  0  0  0
  -21.9010   -4.8740   22.7720 C   0  0  0  0  0  0  0  0  0  0  0  0
  -22.1900   -4.2880   21.5850 F   0  0  0  0  0  0  0  0  0  0  0  0
  -21.5350   -3.9460   26.3030 F   0  0  0  0  0  0  0  0  0  0  0  0
  -22.6760  -13.5880   21.2370 C   0  0  0  0  0  0  0  0  0  0  0  0
  -22.0890  -12.9110   22.2170 N   0  0  0  0  0  0  0  0  0  0  0  0
  -22.1600  -14.6050   20.7730 O   0  0  0  0  0  0  0  0  0  0  0  0
  -22.5170  -12.0860   22.6100 H   0  0  0  0  0  0  0  0  0  0  0  0
  -21.1980  -13.2220   22.5780 H   0  0  0  0  0  0  0  0  0  0  0  0
  -25.1740  -15.2440   20.0580 N   0  0  0  0  0  0  0  0  0  0  0  0
  -24.4640  -15.9210   20.3250 H   0  0  0  0  0  0  0  0  0  0  0  0
  -25.9860  -15.6770   19.6370 H   0  0  0  0  0  0  0  0  0  0  0  0
  -30.4660  -14.1880   22.4580 C   0  0  0  0  0  1  0  0  0  0  0  0
  -32.0150  -16.0790   21.8970 C   0  0  0  0  0  1  0  0  0  0  0  0
  -30.5660  -15.5810   21.7880 C   0  0  0  0  0  3  0  0  0  0  0  0
  -29.4230  -23.7940   20.1240 C   0  0  0  0  0  3  0  0  0  0  0  0
  -28.2000  -24.8500   20.3490 C   0  0  0  0  0  3  0  0  0  0  0  0
  -28.3970  -26.3530   20.2500 O   0  0  0  0  0  0  0  0  0  0  0  0
  -24.7250  -31.9090   23.1920 C   0  0  0  0  0  0  0  0  0  0  0  0
  -27.2840  -27.2390   20.2000 C   0  0  0  0  0  0  0  0  0  0  0  0
  -23.5030  -30.5140   21.5690 C   0  0  0  0  0  3  0  0  0  0  0  0
  -24.9340  -28.9210   20.1570 C   0  0  0  0  0  0  0  0  0  0  0  0
  -26.0540  -30.7870   21.3770 C   0  0  0  0  0  2  0  0  0  0  0  0
  -26.1150  -29.3980   20.7370 C   0  0  0  0  0  0  0  0  0  0  0  0
  -27.2930  -28.5780   20.7320 C   0  0  0  0  0  3  0  0  0  0  0  0
  -26.0660  -26.8220   19.6110 C   0  0  0  0  0  3  0  0  0  0  0  0
  -24.9120  -27.6370   19.5910 C   0  0  0  0  0  3  0  0  0  0  0  0
  -23.7080  -29.8220   20.1970 C   0  0  0  0  0  2  0  0  0  0  0  0
  -24.7810  -31.0890   22.1020 N   0  0  0  0  0  0  0  0  0  0  0  0
  -23.6430  -32.2030   23.7240 O   0  0  0  0  0  0  0  0  0  0  0  0
  -22.8250  -29.5150   22.5370 C   0  0  0  0  0  0  0  0  0  0  0  0
  -21.5000  -29.3230   22.3930 N   0  0  0  0  0  0  0  0  0  0  0  0
  -23.4910  -28.9110   23.3820 O   0  0  0  0  0  0  0  0  0  0  0  0
  -21.0160  -29.8630   21.6870 H   0  0  0  0  0  0  0  0  0  0  0  0
  -18.1350  -28.0760   22.8350 C   0  0  0  0  0  0  0  0  0  0  0  0
  -20.6770  -28.3980   23.1720 C   0  0  0  0  0  3  0  0  0  0  0  0
  -20.8250  -26.9490   22.6570 C   0  0  0  0  0  2  0  0  0  0  0  0
  -19.7650  -26.5670   21.6200 C   0  0  0  0  0  2  0  0  0  0  0  0
  -18.3600  -26.7100   22.2130 C   0  0  0  0  0  2  0  0  0  0  0  0
  -19.2240  -28.8760   23.2690 C   0  0  0  0  0  0  0  0  0  0  0  0
  -18.9620  -30.1530   23.8130 C   0  0  0  0  0  3  0  0  0  0  0  0
  -17.6420  -30.6350   23.9170 C   0  0  0  0  0  3  0  0  0  0  0  0
  -16.5660  -29.8340   23.4960 C   0  0  0  0  0  3  0  0  0  0  0  0
  -16.8120  -28.5550   22.9640 C   0  0  0  0  0  3  0  0  0  0  0  0
  -26.0110  -32.5380   23.8040 C   0  0  0  0  0  3  0  0  0  0  0  0
  -25.7020  -33.9340   24.1480 N   0  0  0  0  0  0  0  0  0  0  0  0
  -26.0430  -34.9970   23.4090 C   0  0  0  0  0  0  0  0  0  0  0  0
  -26.7200  -34.9060   22.3800 O   0  0  0  0  0  0  0  0  0  0  0  0
  -25.1000  -34.0740   24.9470 H   0  0  0  0  0  0  0  0  0  0  0  0
  -24.3360  -36.8150   23.0660 C   0  0  0  0  0  1  0  0  0  0  0  0
  -25.5590  -36.3820   23.8880 C   0  0  0  0  0  3  0  0  0  0  0  0
  -27.6900  -37.2260   24.7730 C   0  0  0  0  0  1  0  0  0  0  0  0
  -26.6040  -37.4250   23.8160 N   0  0  0  0  0  0  0  0  0  0  0  0
  -26.2030  -38.3450   23.9780 H   0  0  0  0  0  0  0  0  0  0  0  0
  -26.5390  -31.7610   25.0720 C   0  0  1  0  0  0  0  0  0  0  0  0
  -25.4520  -31.5010   26.1410 C   0  0  0  0  0  1  0  0  0  0  0  0
  -27.1380  -30.3940   24.6700 C   0  0  0  0  0  1  0  0  0  0  0  0
  -27.6780  -32.5640   25.7450 C   0  0  0  0  0  1  0  0  0  0  0  0
  2  5  1  0
  2  3  2  0
  3  1  1  0
  4  1  2  0
  5  4  1  0
  7  6  1  0
  7  5  1  0
  7  8  1  0
  8 17  1  0
  9 17  1  0
 10 15  1  0
 11 12  1  0
 11 10  1  0
 13 12  1  0
 13 21  1  0
 13 14  1  0
 15  9  1  0
 15 14  1  0
 16  9  2  0
 17 48  1  0
 18 19  2  0
 19 38  1  0
 20 19  1  0
 20 23  1  0
 21 22  1  0
 21 18  1  0
 22 20  2  0
 23 24  1  0
 24 25  2  0
 26 29  1  0
 26 25  1  0
 27 26  2  0
 28 27  1  0
 28 23  2  0
 29 30  1  0
 30 31  1  0
 31 32  2  0
 33 32  1  0
 33 37  1  0
 34 33  2  0
 35 30  2  0
 35 34  1  0
 36 35  1  0
 38 39  1  0
 39 42  1  0
 39 41  1  0
 40 38  2  0
 43 18  1  0
 43 44  1  0
 45 43  1  0
 48 47  1  0
 48 46  1  0
 49  3  1  0
 49 50  2  0
 51 50  1  0
 52 63  2  0
 53 51  1  0
 53 58  1  0
 54 62  1  0
 54 64  1  0
 55 61  1  0
 55 57  1  0
 56 62  1  0
 57 56  1  0
 58 57  2  0
 59 53  2  0
 60 59  1  0
 60 55  2  0
 61 54  1  0
 62 52  1  0
 64 66  2  0
 65 64  1  0
 67 65  1  0
 68 77  2  0
 68 73  1  0
 69 65  1  0
 69 73  1  0
 70 69  1  0
 71 72  1  0
 71 70  1  0
 72 68  1  0
 73 74  2  0
 74 75  1  0
 76 75  2  0
 77 76  1  0
 78 52  1  0
 78 79  1  0
 78 88  1  0
 79 82  1  0
 80 84  1  0
 80 79  1  0
 81 80  2  0
 84 83  1  0
 86 84  1  0
 86 87  1  0
 86 85  1  0
 88 91  1  1
 88 89  1  0
 90 88  1  0
M  ISO  4   9 100  17 100  50 101  51 101
M  END
>  <TORSDO>  (9) 
F 21

>  <SCORE>  (9) 
-9.477

>  <name>  (9) 
9

>  <ligand_id>  (9) 
9

>  <original_smiles>  (9) 
[H]c1nn(C([H])(C([H])([H])[H])C([H])([H])N(C(=O)N2C([H])([H])C([H])([H])C([H])([H])C([H])(n3nc(-c4c([H])c([H])c(Oc5c([H])c([H])c(F)c([H])c5F)c([H])c4[H])c(C(=O)N([H])[H])c3N([H])[H])C2([H])[H])C([H])(C([H])([H])[H])C([H])([H])[H])c([H])c1C([H])([H])C([H])([H])Oc1c([H])c([H])c2c(c1[H])C([H])([H])N(C(=O)C([H])(N([H])C(=O)C([H])(N([H])C([H])([H])[H])C([H])([H])[H])C(C([H])([H])[H])(C([H])([H])[H])C([H])([H])[H])C([H])(C(=O)N([H])C1([H])c3c([H])c([H])c([H])c([H])c3C([H])([H])C([H])([H])C1([H])[H])C2([H])[H]

>  <smiles>  (9) 
[H]c1nn(C([H])(C([H])([H])[H])C([H])([H])N(C(=O)N2C([H])([H])C([H])([H])C([H])([H])C([H])(n3nc(-c4c([H])c([H])c(Oc5c([H])c([H])c(F)c([H])c5F)c([H])c4[H])c(C(=O)N([H])[H])c3N([H])[H])C2([H])[H])C([H])(C([H])([H])[H])C([H])([H])[H])c([H])c1C([H])([H])C([H])([H])Oc1c([H])c([H])c2c(c1[H])C([H])([H])N(C(=O)C([H])(N([H])C(=O)C([H])(N([H])C([H])([H])[H])C([H])([H])[H])C(C([H])([H])[H])(C([H])([H])[H])C([H])([H])[H])C([H])(C(=O)N([H])C1([H])c3c([H])c([H])c([H])c([H])c3C([H])([H])C([H])([H])C1([H])[H])C2([H])[H]

$$$$
10:0:0
     RDKit          3D

 92100  0  0  1  0  0  0  0  0999 V2000
  -28.4470  -19.0660   19.3510 C   0  0  0  0  0  0  0  0  0  0  0  0
  -29.4150  -18.6830   20.2660 C   0  0  0  0  0  0  0  0  0  0  0  0
  -29.0880  -20.9790   20.2490 C   0  0  0  0  0  0  0  0  0  0  0  0
  -30.7320  -20.1160   21.9380 C   0  0  0  0  0  1  0  0  0  0  0  0
  -28.2830  -20.4650   19.3220 N   0  0  0  0  0  0  0  0  0  0  0  0
  -29.7990  -19.9460   20.8350 N   0  0  0  0  0  0  0  0  0  0  0  0
  -26.0900  -18.2620   19.0470 C   0  0  0  0  0  1  0  0  0  0  0  0
  -27.5320  -18.1950   18.5370 C   0  0  0  0  0  2  0  0  0  0  0  0
  -29.8680  -17.2280   20.7560 C   0  0  0  0  0  2  0  0  0  0  0  0
  -31.0260  -14.9290   20.2280 C   0  0  0  0  0  0  0  0  0  0  0  0
  -30.6700  -12.6930   19.1830 C   0  0  0  0  0  2  0  0  0  0  0  0
  -29.7210  -12.7820   17.9740 C   0  0  0  0  0  2  0  0  0  0  0  0
  -28.2600  -12.6280   18.4340 C   0  0  0  0  0  2  0  0  0  0  0  0
  -27.9150  -13.5200   19.6570 C   0  0  0  0  0  3  0  0  0  0  0  0
  -28.9990  -13.4610   20.7540 C   0  0  0  0  0  2  0  0  0  0  0  0
  -30.2750  -13.7810   20.1060 N   0  0  0  0  0  0  0  0  0  0  0  0
  -32.2500  -14.8140   20.1220 O   0  0  0  0  0  0  0  0  0  0  0  0
  -30.4760  -16.1630   19.8400 N   0  0  0  0  0  0  0  0  0  0  0  0
  -25.5420  -14.1160   20.4190 C   0  0  0  0  0  0  0  0  0  0  0  0
  -24.4730  -13.3460   20.7880 C   0  0  0  0  0  0  0  0  0  0  0  0
  -24.9290  -11.9930   20.7520 C   0  0  0  0  0  0  0  0  0  0  0  0
  -26.5800  -13.2320   20.1740 N   0  0  0  0  0  0  0  0  0  0  0  0
  -26.2200  -11.9510   20.4450 N   0  0  0  0  0  0  0  0  0  0  0  0
  -24.1940  -10.7350   20.9380 C   0  0  0  0  0  0  0  0  0  0  0  0
  -24.5880   -9.7850   21.9060 C   0  0  0  0  0  3  0  0  0  0  0  0
  -23.8520   -8.5930   22.0810 C   0  0  0  0  0  3  0  0  0  0  0  0
  -22.7080   -8.3420   21.2860 C   0  0  0  0  0  0  0  0  0  0  0  0
  -22.3330   -9.2800   20.3070 C   0  0  0  0  0  3  0  0  0  0  0  0
  -23.0700  -10.4630   20.1310 C   0  0  0  0  0  3  0  0  0  0  0  0
  -21.9480   -7.2000   21.3680 O   0  0  0  0  0  0  0  0  0  0  0  0
  -21.8050   -6.5130   22.5470 C   0  0  0  0  0  0  0  0  0  0  0  0
  -21.2570   -7.1180   23.6980 C   0  0  0  0  0  3  0  0  0  0  0  0
  -21.0600   -6.3560   24.8680 C   0  0  0  0  0  3  0  0  0  0  0  0
  -21.4040   -4.9910   24.8860 C   0  0  0  0  0  0  0  0  0  0  0  0
  -21.9460   -4.3870   23.7380 C   0  0  0  0  0  3  0  0  0  0  0  0
  -22.1420   -5.1450   22.5700 C   0  0  0  0  0  0  0  0  0  0  0  0
  -22.6440   -4.5520   21.4610 F   0  0  0  0  0  0  0  0  0  0  0  0
  -21.2090   -4.2570   26.0060 F   0  0  0  0  0  0  0  0  0  0  0  0
  -23.0780  -13.8300   21.0590 C   0  0  0  0  0  0  0  0  0  0  0  0
  -22.3470  -13.1460   21.9310 N   0  0  0  0  0  0  0  0  0  0  0  0
  -22.6460  -14.8540   20.5310 O   0  0  0  0  0  0  0  0  0  0  0  0
  -22.7050  -12.3180   22.3850 H   0  0  0  0  0  0  0  0  0  0  0  0
  -21.4110  -13.4580   22.1520 H   0  0  0  0  0  0  0  0  0  0  0  0
  -25.7120  -15.4860   20.2430 N   0  0  0  0  0  0  0  0  0  0  0  0
  -24.9430  -16.1390   20.3440 H   0  0  0  0  0  0  0  0  0  0  0  0
  -26.5550  -15.9160   19.8920 H   0  0  0  0  0  0  0  0  0  0  0  0
  -32.3240  -17.6380   18.8610 C   0  0  0  0  0  1  0  0  0  0  0  0
  -31.0730  -16.7620   18.6180 C   0  0  0  0  0  2  0  0  0  0  0  0
  -28.9800  -22.4590   20.8070 C   0  0  0  0  0  2  0  0  0  0  0  0
  -28.8380  -23.8000   19.9060 C   0  0  0  0  0  3  0  0  0  0  0  0
  -28.3980  -25.1580   20.6750 C   0  0  0  0  0  3  0  0  0  0  0  0
  -28.5440  -26.5450   20.1220 O   0  0  0  0  0  0  0  0  0  0  0  0
  -24.6370  -31.8570   23.1950 C   0  0  0  0  0  0  0  0  0  0  0  0
  -27.4220  -27.3980   20.1170 C   0  0  0  0  0  0  0  0  0  0  0  0
  -23.5050  -30.4670   21.4960 C   0  0  0  0  0  3  0  0  0  0  0  0
  -25.0250  -28.9700   20.0780 C   0  0  0  0  0  0  0  0  0  0  0  0
  -26.0420  -30.8400   21.3810 C   0  0  0  0  0  2  0  0  0  0  0  0
  -26.1710  -29.4720   20.7130 C   0  0  0  0  0  0  0  0  0  0  0  0
  -27.3750  -28.6980   20.7200 C   0  0  0  0  0  3  0  0  0  0  0  0
  -26.2570  -26.9550   19.4610 C   0  0  0  0  0  3  0  0  0  0  0  0
  -25.0730  -27.7180   19.4440 C   0  0  0  0  0  3  0  0  0  0  0  0
  -23.7710  -29.8190   20.1100 C   0  0  0  0  0  2  0  0  0  0  0  0
  -24.7460  -31.0710   22.0820 N   0  0  0  0  0  0  0  0  0  0  0  0
  -23.5360  -32.0990   23.7080 O   0  0  0  0  0  0  0  0  0  0  0  0
  -22.8410  -29.4160   22.4200 C   0  0  0  0  0  0  0  0  0  0  0  0
  -21.5180  -29.2290   22.2720 N   0  0  0  0  0  0  0  0  0  0  0  0
  -23.5150  -28.7740   23.2290 O   0  0  0  0  0  0  0  0  0  0  0  0
  -21.0290  -29.8070   21.6030 H   0  0  0  0  0  0  0  0  0  0  0  0
  -18.1480  -27.9860   22.7030 C   0  0  0  0  0  0  0  0  0  0  0  0
  -20.7000  -28.2590   23.0040 C   0  0  0  0  0  3  0  0  0  0  0  0
  -20.8180  -26.8460   22.3850 C   0  0  0  0  0  2  0  0  0  0  0  0
  -19.7300  -26.5490   21.3510 C   0  0  0  0  0  2  0  0  0  0  0  0
  -18.3410  -26.6620   21.9840 C   0  0  0  0  0  2  0  0  0  0  0  0
  -19.2550  -28.7430   23.1670 C   0  0  0  0  0  0  0  0  0  0  0  0
  -19.0230  -29.9840   23.8000 C   0  0  0  0  0  3  0  0  0  0  0  0
  -17.7130  -30.4700   23.9710 C   0  0  0  0  0  3  0  0  0  0  0  0
  -16.6180  -29.7110   23.5220 C   0  0  0  0  0  3  0  0  0  0  0  0
  -16.8380  -28.4700   22.8960 C   0  0  0  0  0  3  0  0  0  0  0  0
  -25.8900  -32.5030   23.8620 C   0  0  0  0  0  3  0  0  0  0  0  0
  -25.5440  -33.8920   24.2030 N   0  0  0  0  0  0  0  0  0  0  0  0
  -25.8760  -34.9630   23.4680 C   0  0  0  0  0  0  0  0  0  0  0  0
  -26.5750  -34.8870   22.4550 O   0  0  0  0  0  0  0  0  0  0  0  0
  -24.9280  -34.0220   24.9920 H   0  0  0  0  0  0  0  0  0  0  0  0
  -24.1320  -36.7350   23.0830 C   0  0  0  0  0  1  0  0  0  0  0  0
  -25.3510  -36.3360   23.9300 C   0  0  0  0  0  3  0  0  0  0  0  0
  -27.4380  -37.2460   24.8510 C   0  0  0  0  0  1  0  0  0  0  0  0
  -26.3690  -37.4080   23.8690 N   0  0  0  0  0  0  0  0  0  0  0  0
  -25.9430  -38.3200   24.0120 H   0  0  0  0  0  0  0  0  0  0  0  0
  -26.3810  -31.7260   25.1440 C   0  0  1  0  0  0  0  0  0  0  0  0
  -25.2610  -31.4600   26.1760 C   0  0  0  0  0  1  0  0  0  0  0  0
  -27.0000  -30.3630   24.7550 C   0  0  0  0  0  1  0  0  0  0  0  0
  -27.4970  -32.5320   25.8490 C   0  0  0  0  0  1  0  0  0  0  0  0
  1  2  2  0
  2  9  1  0
  2  6  1  0
  3 49  1  0
  3  6  1  0
  5  1  1  0
  5  3  2  0
  6  4  1  0
  8  7  1  0
  8  1  1  0
 11 16  1  0
 12 13  1  0
 12 11  1  0
 14 13  1  0
 14 22  1  0
 14 15  1  0
 16 10  1  0
 16 15  1  0
 17 10  2  0
 18 10  1  0
 18  9  1  0
 19 20  2  0
 20 39  1  0
 21 20  1  0
 21 24  1  0
 22 19  1  0
 22 23  1  0
 23 21  2  0
 24 25  1  0
 25 26  2  0
 27 30  1  0
 27 26  1  0
 28 27  2  0
 29 28  1  0
 29 24  2  0
 30 31  1  0
 31 36  2  0
 31 32  1  0
 32 33  2  0
 33 34  1  0
 34 38  1  0
 35 34  2  0
 36 35  1  0
 37 36  1  0
 39 40  1  0
 40 43  1  0
 40 42  1  0
 41 39  2  0
 44 45  1  0
 44 19  1  0
 46 44  1  0
 48 47  1  0
 48 18  1  0
 50 51  2  0
 50 49  1  0
 52 51  1  0
 53 64  2  0
 54 52  1  0
 54 59  1  0
 55 63  1  0
 55 65  1  0
 56 62  1  0
 56 58  1  0
 57 63  1  0
 58 59  2  0
 58 57  1  0
 60 54  2  0
 61 60  1  0
 61 56  2  0
 62 55  1  0
 63 53  1  0
 65 67  2  0
 66 65  1  0
 68 66  1  0
 69 78  2  0
 69 74  1  0
 70 66  1  0
 70 74  1  0
 71 70  1  0
 72 73  1  0
 72 71  1  0
 73 69  1  0
 74 75  2  0
 75 76  1  0
 77 76  2  0
 78 77  1  0
 79 53  1  0
 79 80  1  0
 79 89  1  0
 80 83  1  0
 81 85  1  0
 81 80  1  0
 82 81  2  0
 85 84  1  0
 87 85  1  0
 87 88  1  0
 87 86  1  0
 89 92  1  1
 89 90  1  0
 91 89  1  0
M  ISO  4  10 100  18 100  51 101  52 101
M  END
>  <TORSDO>  (10) 
F 22

>  <SCORE>  (10) 
-12.821

>  <name>  (10) 
10

>  <ligand_id>  (10) 
10

>  <original_smiles>  (10) 
[H]c1c([H])c([H])c2c(c1[H])C([H])([H])C([H])([H])C([H])([H])C2([H])N([H])C(=O)C1([H])N(C(=O)C([H])(N([H])C(=O)C([H])(N([H])C([H])([H])[H])C([H])([H])[H])C(C([H])([H])[H])(C([H])([H])[H])C([H])([H])[H])C([H])([H])c2c([H])c(OC([H])([H])C([H])([H])C([H])([H])c3nc(C([H])([H])C([H])([H])[H])c(C([H])([H])N(C(=O)N4C([H])([H])C([H])([H])C([H])([H])C([H])(n5nc(-c6c([H])c([H])c(Oc7c([H])c([H])c(F)c([H])c7F)c([H])c6[H])c(C(=O)N([H])[H])c5N([H])[H])C4([H])[H])C([H])([H])C([H])([H])[H])n3C([H])([H])[H])c([H])c([H])c2C1([H])[H]

>  <smiles>  (10) 
[H]c1c([H])c([H])c2c(c1[H])C([H])([H])C([H])([H])C([H])([H])C2([H])N([H])C(=O)C1([H])N(C(=O)C([H])(N([H])C(=O)C([H])(N([H])C([H])([H])[H])C([H])([H])[H])C(C([H])([H])[H])(C([H])([H])[H])C([H])([H])[H])C([H])([H])c2c([H])c(OC([H])([H])C([H])([H])C([H])([H])c3nc(C([H])([H])C([H])([H])[H])c(C([H])([H])N(C(=O)N4C([H])([H])C([H])([H])C([H])([H])C([H])(n5nc(-c6c([H])c([H])c(Oc7c([H])c([H])c(F)c([H])c7F)c([H])c6[H])c(C(=O)N([H])[H])c5N([H])[H])C4([H])[H])C([H])([H])C([H])([H])[H])n3C([H])([H])[H])c([H])c([H])c2C1([H])[H]

$$$$
11:0:0
     RDKit          3D

 94102  0  0  1  0  0  0  0  0999 V2000
  -27.6670  -19.0360   19.0520 C   0  0  0  0  0  3  0  0  0  0  0  0
  -26.8610  -20.0110   18.5320 C   0  0  0  0  0  0  0  0  0  0  0  0
  -28.3140  -21.0020   19.9360 C   0  0  0  0  0  3  0  0  0  0  0  0
  -25.7250  -19.9670   17.5630 C   0  0  0  0  0  1  0  0  0  0  0  0
  -28.5400  -19.6150   19.9440 N   0  0  0  0  0  0  0  0  0  0  0  0
  -27.2860  -21.1770   19.0940 N   0  0  0  0  0  0  0  0  0  0  0  0
  -26.8710  -22.0820   18.9100 H   0  0  0  0  0  0  0  0  0  0  0  0
  -28.8430  -22.2960   20.6660 C   0  0  0  0  0  2  0  0  0  0  0  0
  -28.5820  -23.7690   19.9920 C   0  0  0  0  0  3  0  0  0  0  0  0
  -28.3120  -25.0840   20.8910 C   0  0  0  0  0  3  0  0  0  0  0  0
  -28.4370  -26.4870   20.3680 O   0  0  0  0  0  0  0  0  0  0  0  0
  -24.6260  -31.9300   23.2950 C   0  0  0  0  0  0  0  0  0  0  0  0
  -27.3140  -27.3340   20.3440 C   0  0  0  0  0  0  0  0  0  0  0  0
  -23.4600  -30.5030   21.6530 C   0  0  0  0  0  3  0  0  0  0  0  0
  -24.9400  -28.9410   20.2680 C   0  0  0  0  0  0  0  0  0  0  0  0
  -25.9990  -30.8360   21.5000 C   0  0  0  0  0  2  0  0  0  0  0  0
  -26.0970  -29.4450   20.8780 C   0  0  0  0  0  0  0  0  0  0  0  0
  -27.2880  -28.6570   20.8980 C   0  0  0  0  0  3  0  0  0  0  0  0
  -26.1350  -26.8830   19.7130 C   0  0  0  0  0  3  0  0  0  0  0  0
  -24.9650  -27.6670   19.6740 C   0  0  0  0  0  3  0  0  0  0  0  0
  -23.7000  -29.8090   20.2840 C   0  0  0  0  0  2  0  0  0  0  0  0
  -24.7140  -31.1070   22.2060 N   0  0  0  0  0  0  0  0  0  0  0  0
  -23.5320  -32.2030   23.8090 O   0  0  0  0  0  0  0  0  0  0  0  0
  -22.7900  -29.4950   22.6170 C   0  0  0  0  0  0  0  0  0  0  0  0
  -21.4690  -29.2970   22.4640 N   0  0  0  0  0  0  0  0  0  0  0  0
  -23.4580  -28.8940   23.4630 O   0  0  0  0  0  0  0  0  0  0  0  0
  -20.9910  -29.8290   21.7520 H   0  0  0  0  0  0  0  0  0  0  0  0
  -18.1020  -28.0500   22.9100 C   0  0  0  0  0  0  0  0  0  0  0  0
  -20.6490  -28.3580   23.2340 C   0  0  0  0  0  3  0  0  0  0  0  0
  -20.7920  -26.9180   22.6880 C   0  0  0  0  0  2  0  0  0  0  0  0
  -19.7180  -26.5600   21.6570 C   0  0  0  0  0  2  0  0  0  0  0  0
  -18.3190  -26.6910   22.2630 C   0  0  0  0  0  2  0  0  0  0  0  0
  -19.1970  -28.8380   23.3540 C   0  0  0  0  0  0  0  0  0  0  0  0
  -18.9410  -30.1060   23.9180 C   0  0  0  0  0  3  0  0  0  0  0  0
  -17.6230  -30.5870   24.0470 C   0  0  0  0  0  3  0  0  0  0  0  0
  -16.5450  -29.7950   23.6200 C   0  0  0  0  0  3  0  0  0  0  0  0
  -16.7840  -28.5290   23.0560 C   0  0  0  0  0  3  0  0  0  0  0  0
  -25.8900  -32.5850   23.9290 C   0  0  0  0  0  3  0  0  0  0  0  0
  -25.5590  -33.9870   24.2340 N   0  0  0  0  0  0  0  0  0  0  0  0
  -25.8880  -35.0330   23.4650 C   0  0  0  0  0  0  0  0  0  0  0  0
  -26.5730  -34.9220   22.4450 O   0  0  0  0  0  0  0  0  0  0  0  0
  -24.9530  -34.1480   25.0260 H   0  0  0  0  0  0  0  0  0  0  0  0
  -24.1510  -36.8080   23.0650 C   0  0  0  0  0  1  0  0  0  0  0  0
  -25.3850  -36.4240   23.8980 C   0  0  0  0  0  3  0  0  0  0  0  0
  -27.4980  -37.3430   24.7450 C   0  0  0  0  0  1  0  0  0  0  0  0
  -26.4100  -37.4850   23.7810 N   0  0  0  0  0  0  0  0  0  0  0  0
  -25.9950  -38.4050   23.9020 H   0  0  0  0  0  0  0  0  0  0  0  0
  -26.3890  -31.8390   25.2280 C   0  0  1  0  0  0  0  0  0  0  0  0
  -25.2760  -31.6030   26.2770 C   0  0  0  0  0  1  0  0  0  0  0  0
  -26.9950  -30.4640   24.8680 C   0  0  0  0  0  1  0  0  0  0  0  0
  -27.5160  -32.6570   25.9000 C   0  0  0  0  0  1  0  0  0  0  0  0
  -29.5580  -18.7500   20.6970 C   0  0  0  0  0  2  0  0  0  0  0  0
  -29.4020  -17.1020   20.7930 C   0  0  0  0  0  2  0  0  0  0  0  0
  -30.7150  -14.8470   20.2510 C   0  0  0  0  0  0  0  0  0  0  0  0
  -30.3950  -12.6020   19.1980 C   0  0  0  0  0  2  0  0  0  0  0  0
  -29.4410  -12.6570   17.9910 C   0  0  0  0  0  2  0  0  0  0  0  0
  -27.9890  -12.4720   18.4620 C   0  0  0  0  0  2  0  0  0  0  0  0
  -27.6320  -13.3600   19.6870 C   0  0  0  0  0  3  0  0  0  0  0  0
  -28.7190  -13.3310   20.7790 C   0  0  0  0  0  2  0  0  0  0  0  0
  -29.9770  -13.6900   20.1150 N   0  0  0  0  0  0  0  0  0  0  0  0
  -31.9350  -14.7240   20.1480 O   0  0  0  0  0  0  0  0  0  0  0  0
  -30.1660  -16.1040   19.9070 N   0  0  0  0  0  0  0  0  0  0  0  0
  -25.2610  -13.9210   20.4700 C   0  0  0  0  0  0  0  0  0  0  0  0
  -24.2100  -13.1360   20.8560 C   0  0  0  0  0  0  0  0  0  0  0  0
  -24.6840  -11.7890   20.8140 C   0  0  0  0  0  0  0  0  0  0  0  0
  -26.3080  -13.0520   20.2140 N   0  0  0  0  0  0  0  0  0  0  0  0
  -25.9720  -11.7650   20.4920 N   0  0  0  0  0  0  0  0  0  0  0  0
  -23.9680  -10.5210   21.0080 C   0  0  0  0  0  0  0  0  0  0  0  0
  -24.4130   -9.5590   21.9410 C   0  0  0  0  0  3  0  0  0  0  0  0
  -23.6970   -8.3570   22.1260 C   0  0  0  0  0  3  0  0  0  0  0  0
  -22.5220   -8.1080   21.3780 C   0  0  0  0  0  0  0  0  0  0  0  0
  -22.0980   -9.0580   20.4330 C   0  0  0  0  0  3  0  0  0  0  0  0
  -22.8130  -10.2520   20.2450 C   0  0  0  0  0  3  0  0  0  0  0  0
  -21.7750   -6.9580   21.4720 O   0  0  0  0  0  0  0  0  0  0  0  0
  -21.7300   -6.2240   22.6290 C   0  0  0  0  0  0  0  0  0  0  0  0
  -21.2840   -6.7800   23.8490 C   0  0  0  0  0  3  0  0  0  0  0  0
  -21.1830   -5.9670   24.9970 C   0  0  0  0  0  3  0  0  0  0  0  0
  -21.5230   -4.6030   24.9260 C   0  0  0  0  0  0  0  0  0  0  0  0
  -21.9640   -4.0480   23.7120 C   0  0  0  0  0  3  0  0  0  0  0  0
  -22.0660   -4.8570   22.5670 C   0  0  0  0  0  0  0  0  0  0  0  0
  -22.4670   -4.3120   21.3930 F   0  0  0  0  0  0  0  0  0  0  0  0
  -21.4260   -3.8200   26.0260 F   0  0  0  0  0  0  0  0  0  0  0  0
  -22.8150  -13.6010   21.1450 C   0  0  0  0  0  0  0  0  0  0  0  0
  -22.1040  -12.8930   22.0160 N   0  0  0  0  0  0  0  0  0  0  0  0
  -22.3640  -14.6260   20.6330 O   0  0  0  0  0  0  0  0  0  0  0  0
  -22.4900  -12.0710   22.4570 H   0  0  0  0  0  0  0  0  0  0  0  0
  -21.1620  -13.1750   22.2380 H   0  0  0  0  0  0  0  0  0  0  0  0
  -25.4110  -15.2920   20.2860 N   0  0  0  0  0  0  0  0  0  0  0  0
  -24.6300  -15.9330   20.3870 H   0  0  0  0  0  0  0  0  0  0  0  0
  -26.2480  -15.7370   19.9340 H   0  0  0  0  0  0  0  0  0  0  0  0
  -30.6670  -16.7550   18.6590 C   0  0  0  0  0  2  0  0  0  0  0  0
  -32.7570  -17.9400   19.7680 C   0  0  0  0  0  1  0  0  0  0  0  0
  -32.4940  -17.9130   17.2690 C   0  0  0  0  0  1  0  0  0  0  0  0
  -32.1820  -17.1560   18.5690 C   0  0  0  0  0  3  0  0  0  0  0  0
  1  5  1  0
  2  1  2  0
  2  6  1  0
  3  5  1  0
  3  8  1  0
  4  2  1  0
  5 52  1  0
  6  3  1  0
  7  6  1  0
  9  8  1  0
  9 10  2  0
 11 10  1  0
 12 23  2  0
 13 11  1  0
 13 18  1  0
 14 22  1  0
 14 24  1  0
 15 21  1  0
 15 17  1  0
 16 22  1  0
 17 18  2  0
 17 16  1  0
 19 13  2  0
 20 19  1  0
 20 15  2  0
 21 14  1  0
 22 12  1  0
 24 26  2  0
 25 24  1  0
 27 25  1  0
 28 37  2  0
 28 33  1  0
 29 25  1  0
 29 33  1  0
 30 29  1  0
 31 32  1  0
 31 30  1  0
 32 28  1  0
 33 34  2  0
 34 35  1  0
 36 35  2  0
 37 36  1  0
 38 12  1  0
 38 39  1  0
 38 48  1  0
 39 42  1  0
 40 44  1  0
 40 39  1  0
 41 40  2  0
 44 43  1  0
 46 44  1  0
 46 47  1  0
 46 45  1  0
 48 51  1  1
 48 49  1  0
 50 48  1  0
 52 53  1  0
 55 60  1  0
 56 57  1  0
 56 55  1  0
 58 57  1  0
 58 66  1  0
 58 59  1  0
 60 54  1  0
 60 59  1  0
 61 54  2  0
 62 54  1  0
 62 53  1  0
 63 64  2  0
 64 83  1  0
 65 64  1  0
 65 68  1  0
 66 63  1  0
 66 67  1  0
 67 65  2  0
 68 69  1  0
 69 70  2  0
 71 74  1  0
 71 70  1  0
 72 71  2  0
 73 72  1  0
 73 68  2  0
 74 75  1  0
 75 76  1  0
 76 77  2  0
 78 77  1  0
 78 82  1  0
 79 78  2  0
 80 75  2  0
 80 79  1  0
 81 80  1  0
 83 84  1  0
 84 87  1  0
 84 86  1  0
 85 83  2  0
 88 89  1  0
 88 63  1  0
 90 88  1  0
 91 62  1  0
 93 94  1  0
 94 91  1  0
 94 92  1  0
M  ISO  4  10 101  11 101  54 100  62 100
M  END
>  <TORSDO>  (11) 
F 23

>  <SCORE>  (11) 
-12.993

>  <name>  (11) 
11

>  <ligand_id>  (11) 
11

>  <original_smiles>  (11) 
[H]c1c([H])c([H])c2c(c1[H])C([H])([H])C([H])([H])C([H])([H])C2([H])N([H])C(=O)C1([H])N(C(=O)C([H])(N([H])C(=O)C([H])(N([H])C([H])([H])[H])C([H])([H])[H])C(C([H])([H])[H])(C([H])([H])[H])C([H])([H])[H])C([H])([H])c2c([H])c(OC([H])([H])C([H])([H])C([H])([H])c3n(C([H])([H])C([H])([H])N(C(=O)N4C([H])([H])C([H])([H])C([H])([H])C([H])(n5nc(-c6c([H])c([H])c(Oc7c([H])c([H])c(F)c([H])c7F)c([H])c6[H])c(C(=O)N([H])[H])c5N([H])[H])C4([H])[H])C([H])([H])C([H])(C([H])([H])[H])C([H])([H])[H])c([H])c(C([H])([H])[H])[n+]3[H])c([H])c([H])c2C1([H])[H]

>  <smiles>  (11) 
[H]c1c([H])c([H])c2c(c1[H])C([H])([H])C([H])([H])C([H])([H])C2([H])N([H])C(=O)C1([H])N(C(=O)C([H])(N([H])C(=O)C([H])(N([H])C([H])([H])[H])C([H])([H])[H])C(C([H])([H])[H])(C([H])([H])[H])C([H])([H])[H])C([H])([H])c2c([H])c(OC([H])([H])C([H])([H])C([H])([H])c3n(C([H])([H])C([H])([H])N(C(=O)N4C([H])([H])C([H])([H])C([H])([H])C([H])(n5nc(-c6c([H])c([H])c(Oc7c([H])c([H])c(F)c([H])c7F)c([H])c6[H])c(C(=O)N([H])[H])c5N([H])[H])C4([H])[H])C([H])([H])C([H])(C([H])([H])[H])C([H])([H])[H])c([H])c(C([H])([H])[H])[n+]3[H])c([H])c([H])c2C1([H])[H]

$$$$
12:0:0
     RDKit          3D

 91100  0  0  1  0  0  0  0  0999 V2000
  -29.2140  -20.0680   18.4520 C   0  0  0  0  0  3  0  0  0  0  0  0
  -28.9710  -21.1000   19.3830 C   0  0  0  0  0  0  0  0  0  0  0  0
  -28.9720  -20.6760   20.7180 C   0  0  0  0  0  0  0  0  0  0  0  0
  -29.2810  -18.4070   20.0880 C   0  0  0  0  0  0  0  0  0  0  0  0
  -28.7340  -22.5900   18.9480 C   0  0  0  0  0  2  0  0  0  0  0  0
  -28.7830  -21.7530   21.7990 C   0  0  0  0  0  2  0  0  0  0  0  0
  -29.0800  -23.2380   21.3440 C   0  0  0  0  0  2  0  0  0  0  0  0
  -28.3620  -23.6890   20.0380 C   0  0  0  0  0  3  0  0  0  0  0  0
  -29.3660  -18.7620   18.8050 N   0  0  0  0  0  0  0  0  0  0  0  0
  -29.0970  -19.3410   21.0560 N   0  0  0  0  0  0  0  0  0  0  0  0
  -29.0610  -16.8460   20.3590 C   0  0  0  0  0  2  0  0  0  0  0  0
  -30.6590  -14.7860   20.2840 C   0  0  0  0  0  0  0  0  0  0  0  0
  -30.3740  -12.5460   19.2120 C   0  0  0  0  0  2  0  0  0  0  0  0
  -29.4200  -12.6450   18.0030 C   0  0  0  0  0  2  0  0  0  0  0  0
  -27.9610  -12.4650   18.4600 C   0  0  0  0  0  2  0  0  0  0  0  0
  -27.6120  -13.3320   19.6980 C   0  0  0  0  0  3  0  0  0  0  0  0
  -28.6900  -13.2410   20.7990 C   0  0  0  0  0  2  0  0  0  0  0  0
  -29.9770  -13.5920   20.1870 N   0  0  0  0  0  0  0  0  0  0  0  0
  -31.8120  -14.8540   19.8470 O   0  0  0  0  0  0  0  0  0  0  0  0
  -30.9280  -16.5300   21.9480 C   0  0  0  0  0  1  0  0  0  0  0  0
  -30.1060  -15.8940   20.9150 N   0  0  0  0  0  0  0  0  0  0  0  0
  -25.2340  -13.9040   20.4650 C   0  0  0  0  0  0  0  0  0  0  0  0
  -24.1800  -13.1230   20.8490 C   0  0  0  0  0  0  0  0  0  0  0  0
  -24.6510  -11.7750   20.8080 C   0  0  0  0  0  0  0  0  0  0  0  0
  -26.2800  -13.0320   20.2100 N   0  0  0  0  0  0  0  0  0  0  0  0
  -25.9380  -11.7460   20.4800 N   0  0  0  0  0  0  0  0  0  0  0  0
  -23.9350  -10.5070   21.0030 C   0  0  0  0  0  0  0  0  0  0  0  0
  -24.3790   -9.5450   21.9380 C   0  0  0  0  0  3  0  0  0  0  0  0
  -23.6600   -8.3430   22.1210 C   0  0  0  0  0  3  0  0  0  0  0  0
  -22.4860   -8.0950   21.3710 C   0  0  0  0  0  0  0  0  0  0  0  0
  -22.0630   -9.0460   20.4270 C   0  0  0  0  0  3  0  0  0  0  0  0
  -22.7810  -10.2390   20.2410 C   0  0  0  0  0  3  0  0  0  0  0  0
  -21.7400   -6.9450   21.4660 O   0  0  0  0  0  0  0  0  0  0  0  0
  -21.6870   -6.2140   22.6240 C   0  0  0  0  0  0  0  0  0  0  0  0
  -21.2280   -6.7730   23.8380 C   0  0  0  0  0  3  0  0  0  0  0  0
  -21.1250   -5.9670   24.9890 C   0  0  0  0  0  3  0  0  0  0  0  0
  -21.4700   -4.6030   24.9280 C   0  0  0  0  0  0  0  0  0  0  0  0
  -21.9200   -4.0440   23.7200 C   0  0  0  0  0  3  0  0  0  0  0  0
  -22.0260   -4.8470   22.5710 C   0  0  0  0  0  0  0  0  0  0  0  0
  -22.4410   -4.2990   21.4040 F   0  0  0  0  0  0  0  0  0  0  0  0
  -21.3620   -3.8270   26.0310 F   0  0  0  0  0  0  0  0  0  0  0  0
  -22.7830  -13.5910   21.1400 C   0  0  0  0  0  0  0  0  0  0  0  0
  -22.0700  -12.8860   22.0110 N   0  0  0  0  0  0  0  0  0  0  0  0
  -22.3350  -14.6170   20.6300 O   0  0  0  0  0  0  0  0  0  0  0  0
  -22.4470  -12.0560   22.4460 H   0  0  0  0  0  0  0  0  0  0  0  0
  -21.1330  -13.1820   22.2490 H   0  0  0  0  0  0  0  0  0  0  0  0
  -25.3840  -15.2760   20.2850 N   0  0  0  0  0  0  0  0  0  0  0  0
  -24.6050  -15.9170   20.3940 H   0  0  0  0  0  0  0  0  0  0  0  0
  -26.2030  -15.7140   19.8870 H   0  0  0  0  0  0  0  0  0  0  0  0
  -28.6010  -25.2130   19.5040 C   0  0  0  0  0  2  0  0  0  0  0  0
  -28.4070  -26.4980   20.2430 O   0  0  0  0  0  0  0  0  0  0  0  0
  -24.6230  -31.8780   23.2320 C   0  0  0  0  0  0  0  0  0  0  0  0
  -27.2760  -27.3350   20.1450 C   0  0  0  0  0  0  0  0  0  0  0  0
  -23.4340  -30.4800   21.5800 C   0  0  0  0  0  3  0  0  0  0  0  0
  -24.8980  -28.9450   20.1390 C   0  0  0  0  0  0  0  0  0  0  0  0
  -25.9700  -30.8130   21.4030 C   0  0  0  0  0  2  0  0  0  0  0  0
  -26.0600  -29.4360   20.7440 C   0  0  0  0  0  0  0  0  0  0  0  0
  -27.2460  -28.6390   20.7410 C   0  0  0  0  0  3  0  0  0  0  0  0
  -26.0880  -26.8990   19.5160 C   0  0  0  0  0  3  0  0  0  0  0  0
  -24.9160  -27.6850   19.5160 C   0  0  0  0  0  3  0  0  0  0  0  0
  -23.6530  -29.8120   20.1950 C   0  0  0  0  0  2  0  0  0  0  0  0
  -24.6940  -31.0760   22.1280 N   0  0  0  0  0  0  0  0  0  0  0  0
  -23.5370  -32.1430   23.7680 O   0  0  0  0  0  0  0  0  0  0  0  0
  -22.7770  -29.4540   22.5350 C   0  0  0  0  0  0  0  0  0  0  0  0
  -21.4530  -29.2630   22.4030 N   0  0  0  0  0  0  0  0  0  0  0  0
  -23.4590  -28.8330   23.3540 O   0  0  0  0  0  0  0  0  0  0  0  0
  -20.9610  -29.8180   21.7160 H   0  0  0  0  0  0  0  0  0  0  0  0
  -18.0880  -28.0250   22.8830 C   0  0  0  0  0  0  0  0  0  0  0  0
  -20.6420  -28.3140   23.1670 C   0  0  0  0  0  3  0  0  0  0  0  0
  -20.7630  -26.8860   22.5860 C   0  0  0  0  0  2  0  0  0  0  0  0
  -19.6710  -26.5540   21.5640 C   0  0  0  0  0  2  0  0  0  0  0  0
  -18.2840  -26.6810   22.2010 C   0  0  0  0  0  2  0  0  0  0  0  0
  -19.1950  -28.7990   23.3220 C   0  0  0  0  0  0  0  0  0  0  0  0
  -18.9580  -30.0560   23.9180 C   0  0  0  0  0  3  0  0  0  0  0  0
  -17.6470  -30.5400   24.0800 C   0  0  0  0  0  3  0  0  0  0  0  0
  -16.5530  -29.7640   23.6570 C   0  0  0  0  0  3  0  0  0  0  0  0
  -16.7760  -28.5080   23.0640 C   0  0  0  0  0  3  0  0  0  0  0  0
  -25.8990  -32.5180   23.8600 C   0  0  0  0  0  3  0  0  0  0  0  0
  -25.5810  -33.9160   24.1880 N   0  0  0  0  0  0  0  0  0  0  0  0
  -25.9140  -34.9720   23.4330 C   0  0  0  0  0  0  0  0  0  0  0  0
  -26.5890  -34.8710   22.4050 O   0  0  0  0  0  0  0  0  0  0  0  0
  -24.9830  -34.0670   24.9860 H   0  0  0  0  0  0  0  0  0  0  0  0
  -24.1860  -36.7620   23.0660 C   0  0  0  0  0  1  0  0  0  0  0  0
  -25.4190  -36.3580   23.8890 C   0  0  0  0  0  3  0  0  0  0  0  0
  -27.5430  -37.2470   24.7460 C   0  0  0  0  0  1  0  0  0  0  0  0
  -26.4510  -37.4140   23.7900 N   0  0  0  0  0  0  0  0  0  0  0  0
  -26.0410  -38.3320   23.9340 H   0  0  0  0  0  0  0  0  0  0  0  0
  -26.4120  -31.7530   25.1420 C   0  0  1  0  0  0  0  0  0  0  0  0
  -25.3130  -31.5160   26.2050 C   0  0  0  0  0  1  0  0  0  0  0  0
  -27.0010  -30.3770   24.7590 C   0  0  0  0  0  1  0  0  0  0  0  0
  -27.5560  -32.5540   25.8090 C   0  0  0  0  0  1  0  0  0  0  0  0
  1  9  1  0
  1  2  2  0
  2  3  1  0
  3 10  2  0
  3  6  1  0
  4 11  1  0
  4 10  1  0
  5  2  1  0
  5  8  1  0
  7  6  1  0
  8 50  1  0
  8  7  1  0
  9  4  2  0
 11 21  1  0
 12 21  1  0
 13 18  1  0
 14 15  1  0
 14 13  1  0
 16 15  1  0
 16 25  1  0
 16 17  1  0
 18 12  1  0
 18 17  1  0
 19 12  2  0
 21 20  1  0
 22 23  2  0
 23 42  1  0
 24 23  1  0
 24 27  1  0
 25 22  1  0
 25 26  1  0
 26 24  2  0
 27 28  1  0
 28 29  2  0
 30 33  1  0
 30 29  1  0
 31 30  2  0
 32 31  1  0
 32 27  2  0
 33 34  1  0
 34 35  1  0
 35 36  2  0
 37 36  1  0
 37 41  1  0
 38 37  2  0
 39 34  2  0
 39 38  1  0
 40 39  1  0
 42 43  1  0
 43 46  1  0
 43 45  1  0
 44 42  2  0
 47 48  1  0
 47 22  1  0
 49 47  1  0
 50 51  1  0
 52 63  2  0
 53 51  1  0
 53 58  1  0
 54 62  1  0
 54 64  1  0
 55 61  1  0
 55 57  1  0
 56 62  1  0
 57 56  1  0
 58 57  2  0
 59 53  2  0
 60 59  1  0
 60 55  2  0
 61 54  1  0
 62 52  1  0
 64 66  2  0
 65 64  1  0
 67 65  1  0
 68 77  2  0
 68 73  1  0
 69 65  1  0
 69 73  1  0
 70 69  1  0
 71 72  1  0
 71 70  1  0
 72 68  1  0
 73 74  2  0
 74 75  1  0
 76 75  2  0
 77 76  1  0
 78 52  1  0
 78 79  1  0
 78 88  1  0
 79 82  1  0
 80 84  1  0
 80 79  1  0
 81 80  2  0
 84 83  1  0
 86 84  1  0
 86 87  1  0
 86 85  1  0
 88 91  1  1
 88 89  1  0
 90 88  1  0
M  ISO  4  12 100  21 100  50 101  51 101
M  END
>  <TORSDO>  (12) 
F 18

>  <SCORE>  (12) 
-14.917

>  <name>  (12) 
12

>  <ligand_id>  (12) 
12

>  <original_smiles>  (12) 
[H]c1nc(C([H])([H])N(C(=O)N2C([H])([H])C([H])([H])C([H])([H])C([H])(n3nc(-c4c([H])c([H])c(Oc5c([H])c([H])c(F)c([H])c5F)c([H])c4[H])c(C(=O)N([H])[H])c3N([H])[H])C2([H])[H])C([H])([H])[H])nc2c1C([H])([H])C([H])(C([H])([H])Oc1c([H])c([H])c3c(c1[H])C([H])([H])N(C(=O)C([H])(N([H])C(=O)C([H])(N([H])C([H])([H])[H])C([H])([H])[H])C(C([H])([H])[H])(C([H])([H])[H])C([H])([H])[H])C([H])(C(=O)N([H])C1([H])c4c([H])c([H])c([H])c([H])c4C([H])([H])C([H])([H])C1([H])[H])C3([H])[H])C([H])([H])C2([H])[H]

>  <smiles>  (12) 
[H]c1nc(C([H])([H])N(C(=O)N2C([H])([H])C([H])([H])C([H])([H])C([H])(n3nc(-c4c([H])c([H])c(Oc5c([H])c([H])c(F)c([H])c5F)c([H])c4[H])c(C(=O)N([H])[H])c3N([H])[H])C2([H])[H])C([H])([H])[H])nc2c1C([H])([H])C([H])(C([H])([H])Oc1c([H])c([H])c3c(c1[H])C([H])([H])N(C(=O)C([H])(N([H])C(=O)C([H])(N([H])C([H])([H])[H])C([H])([H])[H])C(C([H])([H])[H])(C([H])([H])[H])C([H])([H])[H])C([H])(C(=O)N([H])C1([H])c4c([H])c([H])c([H])c([H])c4C([H])([H])C([H])([H])C1([H])[H])C3([H])[H])C([H])([H])C2([H])[H]

$$$$
13:0:0
     RDKit          3D

 89 97  0  0  1  0  0  0  0  0999 V2000
  -29.4180  -21.2640   21.0110 C   0  0  0  0  0  3  0  0  0  0  0  0
  -28.4590  -21.7880   19.1650 C   0  0  0  0  0  3  0  0  0  0  0  0
  -29.1710  -20.0550   20.3330 C   0  0  0  0  0  0  0  0  0  0  0  0
  -28.5400  -20.4420   19.1440 N   0  0  0  0  0  0  0  0  0  0  0  0
  -28.9480  -22.3890   20.2660 N   0  0  0  0  0  0  0  0  0  0  0  0
  -29.2740  -18.5480   20.8200 C   0  0  0  0  0  3  0  0  0  0  0  0
  -30.0020  -17.3430   19.9980 C   0  0  0  0  0  3  0  0  0  0  0  0
  -30.6590  -14.8130   19.9350 C   0  0  0  0  0  0  0  0  0  0  0  0
  -30.3390  -12.6140   18.7660 C   0  0  0  0  0  2  0  0  0  0  0  0
  -29.3100  -12.7510   17.6210 C   0  0  0  0  0  2  0  0  0  0  0  0
  -27.8760  -12.5520   18.1470 C   0  0  0  0  0  2  0  0  0  0  0  0
  -27.6070  -13.3730   19.4330 C   0  0  0  0  0  3  0  0  0  0  0  0
  -28.7370  -13.1950   20.4610 C   0  0  0  0  0  2  0  0  0  0  0  0
  -29.9990  -13.6020   19.8220 N   0  0  0  0  0  0  0  0  0  0  0  0
  -31.7210  -14.9730   19.3220 O   0  0  0  0  0  0  0  0  0  0  0  0
  -30.0440  -15.9030   20.5630 N   0  0  0  0  0  0  0  0  0  0  0  0
  -25.2860  -13.9440   20.3650 C   0  0  0  0  0  0  0  0  0  0  0  0
  -24.2510  -13.1600   20.7970 C   0  0  0  0  0  0  0  0  0  0  0  0
  -24.7080  -11.8100   20.6910 C   0  0  0  0  0  0  0  0  0  0  0  0
  -26.3030  -13.0710   20.0150 N   0  0  0  0  0  0  0  0  0  0  0  0
  -25.9680  -11.7810   20.2750 N   0  0  0  0  0  0  0  0  0  0  0  0
  -23.9980  -10.5420   20.9050 C   0  0  0  0  0  0  0  0  0  0  0  0
  -24.4630   -9.5800   21.8280 C   0  0  0  0  0  3  0  0  0  0  0  0
  -23.7520   -8.3780   22.0280 C   0  0  0  0  0  3  0  0  0  0  0  0
  -22.5620   -8.1280   21.3040 C   0  0  0  0  0  0  0  0  0  0  0  0
  -22.1140   -9.0810   20.3710 C   0  0  0  0  0  3  0  0  0  0  0  0
  -22.8250  -10.2750   20.1700 C   0  0  0  0  0  3  0  0  0  0  0  0
  -21.8190   -6.9770   21.4120 O   0  0  0  0  0  0  0  0  0  0  0  0
  -21.7540   -6.2710   22.5870 C   0  0  0  0  0  0  0  0  0  0  0  0
  -21.3000   -6.8610   23.7860 C   0  0  0  0  0  3  0  0  0  0  0  0
  -21.1820   -6.0800   24.9540 C   0  0  0  0  0  3  0  0  0  0  0  0
  -21.5100   -4.7110   24.9240 C   0  0  0  0  0  0  0  0  0  0  0  0
  -21.9570   -4.1210   23.7280 C   0  0  0  0  0  3  0  0  0  0  0  0
  -22.0760   -4.8990   22.5630 C   0  0  0  0  0  0  0  0  0  0  0  0
  -22.4870   -4.3200   21.4080 F   0  0  0  0  0  0  0  0  0  0  0  0
  -21.3900   -3.9600   26.0420 F   0  0  0  0  0  0  0  0  0  0  0  0
  -22.8820  -13.6290   21.1950 C   0  0  0  0  0  0  0  0  0  0  0  0
  -22.2320  -12.9190   22.1100 N   0  0  0  0  0  0  0  0  0  0  0  0
  -22.3970  -14.6580   20.7270 O   0  0  0  0  0  0  0  0  0  0  0  0
  -22.6390  -12.0870   22.5110 H   0  0  0  0  0  0  0  0  0  0  0  0
  -21.3140  -13.2120   22.4140 H   0  0  0  0  0  0  0  0  0  0  0  0
  -25.4430  -15.3200   20.2190 N   0  0  0  0  0  0  0  0  0  0  0  0
  -24.6960  -15.9790   20.4090 H   0  0  0  0  0  0  0  0  0  0  0  0
  -26.2830  -15.7620   19.8650 H   0  0  0  0  0  0  0  0  0  0  0  0
  -31.2430  -16.4500   22.7020 C   0  0  0  0  0  1  0  0  0  0  0  0
  -29.9820  -15.8680   22.0390 C   0  0  0  0  0  2  0  0  0  0  0  0
  -29.0660  -23.8820   20.5960 C   0  0  0  0  0  3  0  0  0  0  0  0
  -28.0270  -24.9740   20.0210 C   0  0  0  0  0  3  0  0  0  0  0  0
  -28.2390  -26.4470   20.2590 O   0  0  0  0  0  0  0  0  0  0  0  0
  -24.5650  -31.9420   23.2340 C   0  0  0  0  0  0  0  0  0  0  0  0
  -27.1410  -27.3360   20.1840 C   0  0  0  0  0  0  0  0  0  0  0  0
  -23.3470  -30.5340   21.6130 C   0  0  0  0  0  3  0  0  0  0  0  0
  -24.7850  -28.9780   20.1770 C   0  0  0  0  0  0  0  0  0  0  0  0
  -25.8850  -30.8490   21.4000 C   0  0  0  0  0  2  0  0  0  0  0  0
  -25.9610  -29.4630   20.7620 C   0  0  0  0  0  0  0  0  0  0  0  0
  -27.1410  -28.6530   20.7560 C   0  0  0  0  0  3  0  0  0  0  0  0
  -25.9440  -26.9250   19.5560 C   0  0  0  0  0  3  0  0  0  0  0  0
  -24.7820  -27.7190   19.5600 C   0  0  0  0  0  3  0  0  0  0  0  0
  -23.5470  -29.8500   20.2360 C   0  0  0  0  0  2  0  0  0  0  0  0
  -24.6190  -31.1260   22.1390 N   0  0  0  0  0  0  0  0  0  0  0  0
  -23.4860  -32.2180   23.7790 O   0  0  0  0  0  0  0  0  0  0  0  0
  -22.6950  -29.5200   22.5870 C   0  0  0  0  0  0  0  0  0  0  0  0
  -21.3690  -29.3320   22.4670 N   0  0  0  0  0  0  0  0  0  0  0  0
  -23.3800  -28.9090   23.4080 O   0  0  0  0  0  0  0  0  0  0  0  0
  -20.8740  -29.8780   21.7770 H   0  0  0  0  0  0  0  0  0  0  0  0
  -18.0040  -28.1130   22.9960 C   0  0  0  0  0  0  0  0  0  0  0  0
  -20.5610  -28.3950   23.2510 C   0  0  0  0  0  3  0  0  0  0  0  0
  -20.6730  -26.9590   22.6870 C   0  0  0  0  0  2  0  0  0  0  0  0
  -19.5680  -26.6200   21.6820 C   0  0  0  0  0  2  0  0  0  0  0  0
  -18.1880  -26.7590   22.3310 C   0  0  0  0  0  2  0  0  0  0  0  0
  -19.1190  -28.8870   23.4140 C   0  0  0  0  0  0  0  0  0  0  0  0
  -18.8920  -30.1520   23.9960 C   0  0  0  0  0  3  0  0  0  0  0  0
  -17.5840  -30.6440   24.1650 C   0  0  0  0  0  3  0  0  0  0  0  0
  -16.4840  -29.8660   23.7640 C   0  0  0  0  0  3  0  0  0  0  0  0
  -16.6950  -28.6020   23.1850 C   0  0  0  0  0  3  0  0  0  0  0  0
  -25.8510  -32.5810   23.8390 C   0  0  0  0  0  3  0  0  0  0  0  0
  -25.5430  -33.9820   24.1650 N   0  0  0  0  0  0  0  0  0  0  0  0
  -25.8530  -35.0310   23.3910 C   0  0  0  0  0  0  0  0  0  0  0  0
  -26.4980  -34.9210   22.3450 O   0  0  0  0  0  0  0  0  0  0  0  0
  -24.9700  -34.1410   24.9810 H   0  0  0  0  0  0  0  0  0  0  0  0
  -24.1040  -36.8110   23.0700 C   0  0  0  0  0  1  0  0  0  0  0  0
  -25.3710  -36.4210   23.8490 C   0  0  0  0  0  3  0  0  0  0  0  0
  -27.5230  -37.3260   24.6090 C   0  0  0  0  0  1  0  0  0  0  0  0
  -26.3930  -37.4790   23.6960 N   0  0  0  0  0  0  0  0  0  0  0  0
  -25.9870  -38.3990   23.8490 H   0  0  0  0  0  0  0  0  0  0  0  0
  -26.3820  -31.8210   25.1160 C   0  0  1  0  0  0  0  0  0  0  0  0
  -25.2980  -31.5860   26.1940 C   0  0  0  0  0  1  0  0  0  0  0  0
  -26.9680  -30.4450   24.7290 C   0  0  0  0  0  1  0  0  0  0  0  0
  -27.5350  -32.6250   25.7630 C   0  0  0  0  0  1  0  0  0  0  0  0
  2  5  1  0
  3  6  1  0
  3  1  2  0
  4  2  2  0
  4  3  1  0
  5 47  1  0
  5  1  1  0
  7 16  1  0
  7  6  2  0
  8 16  1  0
  9 14  1  0
 10 11  1  0
 10  9  1  0
 12 11  1  0
 12 20  1  0
 12 13  1  0
 14  8  1  0
 14 13  1  0
 15  8  2  0
 16 46  1  0
 17 18  2  0
 18 37  1  0
 19 18  1  0
 19 22  1  0
 20 21  1  0
 20 17  1  0
 21 19  2  0
 22 23  1  0
 23 24  2  0
 25 28  1  0
 25 24  1  0
 26 25  2  0
 27 26  1  0
 27 22  2  0
 28 29  1  0
 29 30  1  0
 30 31  2  0
 32 31  1  0
 32 36  1  0
 33 32  2  0
 34 29  2  0
 34 33  1  0
 35 34  1  0
 37 38  1  0
 38 41  1  0
 38 40  1  0
 39 37  2  0
 42 17  1  0
 42 43  1  0
 44 42  1  0
 46 45  1  0
 48 49  1  0
 48 47  2  0
 50 61  2  0
 51 49  1  0
 51 56  1  0
 52 60  1  0
 52 62  1  0
 53 59  1  0
 53 55  1  0
 54 60  1  0
 55 54  1  0
 56 55  2  0
 57 58  1  0
 57 51  2  0
 58 53  2  0
 59 52  1  0
 60 50  1  0
 62 64  2  0
 63 62  1  0
 65 63  1  0
 66 75  2  0
 66 71  1  0
 67 63  1  0
 67 71  1  0
 68 67  1  0
 69 70  1  0
 69 68  1  0
 70 66  1  0
 71 72  2  0
 72 73  1  0
 74 73  2  0
 75 74  1  0
 76 50  1  0
 76 77  1  0
 76 86  1  0
 77 80  1  0
 78 82  1  0
 78 77  1  0
 79 78  2  0
 82 81  1  0
 84 82  1  0
 84 85  1  0
 84 83  1  0
 86 89  1  1
 86 87  1  0
 88 86  1  0
M  ISO  4   8 100  16 100  48 101  49 101
M  END
>  <TORSDO>  (13) 
F 21

>  <SCORE>  (13) 
-12.212

>  <name>  (13) 
13

>  <ligand_id>  (13) 
13

>  <original_smiles>  (13) 
[H]c1c([H])c([H])c2c(c1[H])C([H])([H])C([H])([H])C([H])([H])C2([H])N([H])C(=O)C1([H])N(C(=O)C([H])(N([H])C(=O)C([H])(N([H])C([H])([H])[H])C([H])([H])[H])C(C([H])([H])[H])(C([H])([H])[H])C([H])([H])[H])C([H])([H])c2c([H])c(OC([H])([H])C([H])([H])n3c([H])nc(C([H])([H])C([H])([H])N(C(=O)N4C([H])([H])C([H])([H])C([H])([H])C([H])(n5nc(-c6c([H])c([H])c(Oc7c([H])c([H])c(F)c([H])c7F)c([H])c6[H])c(C(=O)N([H])[H])c5N([H])[H])C4([H])[H])C([H])([H])C([H])([H])[H])c3[H])c([H])c([H])c2C1([H])[H]

>  <smiles>  (13) 
[H]c1c([H])c([H])c2c(c1[H])C([H])([H])C([H])([H])C([H])([H])C2([H])N([H])C(=O)C1([H])N(C(=O)C([H])(N([H])C(=O)C([H])(N([H])C([H])([H])[H])C([H])([H])[H])C(C([H])([H])[H])(C([H])([H])[H])C([H])([H])[H])C([H])([H])c2c([H])c(OC([H])([H])C([H])([H])n3c([H])nc(C([H])([H])C([H])([H])N(C(=O)N4C([H])([H])C([H])([H])C([H])([H])C([H])(n5nc(-c6c([H])c([H])c(Oc7c([H])c([H])c(F)c([H])c7F)c([H])c6[H])c(C(=O)N([H])[H])c5N([H])[H])C4([H])[H])C([H])([H])C([H])([H])[H])c3[H])c([H])c([H])c2C1([H])[H]

$$$$
14:0:0
     RDKit          3D

 94102  0  0  1  0  0  0  0  0999 V2000
  -25.9350  -22.0530   20.1670 C   0  0  0  0  0  3  0  0  0  0  0  0
  -27.0480  -22.0780   21.0550 C   0  0  0  0  0  0  0  0  0  0  0  0
  -25.3910  -23.2370   20.0850 N   0  0  0  0  0  0  0  0  0  0  0  0
  -27.1720  -23.3010   21.5160 N   0  0  0  0  0  0  0  0  0  0  0  0
  -26.1740  -23.9730   20.9070 N   0  0  0  0  0  0  0  0  0  0  0  0
  -28.0130  -21.0050   21.5020 C   0  0  0  0  0  2  0  0  0  0  0  0
  -27.3500  -19.6180   19.5560 C   0  0  0  0  0  1  0  0  0  0  0  0
  -28.4600  -20.0850   20.4260 N   0  0  2  0  0  4  0  0  0  0  0  0
  -29.1060  -20.6310   19.8750 H   0  0  0  0  0  0  0  0  0  0  0  0
  -29.2060  -18.9080   20.9590 C   0  0  0  0  0  2  0  0  0  0  0  0
  -29.8560  -18.0730   19.8340 C   0  0  0  0  0  2  0  0  0  0  0  0
  -30.0580  -16.5990   20.2270 C   0  0  0  0  0  2  0  0  0  0  0  0
  -31.6720  -14.8240   19.2870 C   0  0  0  0  0  0  0  0  0  0  0  0
  -31.2540  -12.5100   18.5790 C   0  0  0  0  0  2  0  0  0  0  0  0
  -30.2070  -12.4860   17.4480 C   0  0  0  0  0  2  0  0  0  0  0  0
  -28.7770  -12.4610   18.0220 C   0  0  0  0  0  2  0  0  0  0  0  0
  -28.5500  -13.5210   19.1340 C   0  0  0  0  0  3  0  0  0  0  0  0
  -29.7030  -13.4690   20.1650 C   0  0  0  0  0  2  0  0  0  0  0  0
  -30.9570  -13.6750   19.4280 N   0  0  0  0  0  0  0  0  0  0  0  0
  -32.7770  -14.8520   18.7460 O   0  0  0  0  0  0  0  0  0  0  0  0
  -31.0300  -15.9950   19.3240 N   0  0  0  0  0  0  0  0  0  0  0  0
  -31.5810  -16.6870   18.8450 H   0  0  0  0  0  0  0  0  0  0  0  0
  -26.3320  -14.3260   20.1650 C   0  0  0  0  0  0  0  0  0  0  0  0
  -25.2430  -13.6500   20.6290 C   0  0  0  0  0  0  0  0  0  0  0  0
  -25.5400  -12.2600   20.4610 C   0  0  0  0  0  0  0  0  0  0  0  0
  -27.2420  -13.3620   19.7620 N   0  0  0  0  0  0  0  0  0  0  0  0
  -26.7690  -12.1100   19.9860 N   0  0  0  0  0  0  0  0  0  0  0  0
  -24.7020  -11.0730   20.6630 C   0  0  0  0  0  0  0  0  0  0  0  0
  -25.0870  -10.0440   21.5510 C   0  0  0  0  0  3  0  0  0  0  0  0
  -24.2570   -8.9190   21.7490 C   0  0  0  0  0  3  0  0  0  0  0  0
  -23.0270   -8.8130   21.0550 C   0  0  0  0  0  0  0  0  0  0  0  0
  -22.6600   -9.8280   20.1540 C   0  0  0  0  0  3  0  0  0  0  0  0
  -23.4890  -10.9450   19.9570 C   0  0  0  0  0  3  0  0  0  0  0  0
  -22.1720   -7.7420   21.1600 O   0  0  0  0  0  0  0  0  0  0  0  0
  -22.0450   -7.0390   22.3310 C   0  0  0  0  0  0  0  0  0  0  0  0
  -21.6830   -7.6630   23.5450 C   0  0  0  0  0  3  0  0  0  0  0  0
  -21.4980   -6.8870   24.7070 C   0  0  0  0  0  3  0  0  0  0  0  0
  -21.6670   -5.4900   24.6570 C   0  0  0  0  0  0  0  0  0  0  0  0
  -22.0220   -4.8670   23.4470 C   0  0  0  0  0  3  0  0  0  0  0  0
  -22.2090   -5.6400   22.2880 C   0  0  0  0  0  0  0  0  0  0  0  0
  -22.5310   -5.0290   21.1230 F   0  0  0  0  0  0  0  0  0  0  0  0
  -21.4800   -4.7470   25.7720 F   0  0  0  0  0  0  0  0  0  0  0  0
  -23.9490  -14.2490   21.1030 C   0  0  0  0  0  0  0  0  0  0  0  0
  -23.2790  -13.6020   22.0470 N   0  0  0  0  0  0  0  0  0  0  0  0
  -23.5490  -15.3310   20.6650 O   0  0  0  0  0  0  0  0  0  0  0  0
  -23.6170  -12.7250   22.4210 H   0  0  0  0  0  0  0  0  0  0  0  0
  -22.4140  -13.9830   22.4060 H   0  0  0  0  0  0  0  0  0  0  0  0
  -26.6240  -15.6820   20.0380 N   0  0  0  0  0  0  0  0  0  0  0  0
  -25.8470  -16.3270   20.1050 H   0  0  0  0  0  0  0  0  0  0  0  0
  -27.3470  -15.9810   19.3990 H   0  0  0  0  0  0  0  0  0  0  0  0
  -25.8710  -25.3520   21.2090 C   0  0  0  0  0  2  0  0  0  0  0  0
  -26.8560  -26.3810   20.6170 C   0  0  0  0  0  2  0  0  0  0  0  0
  -27.4410  -26.1200   19.1750 C   0  0  0  0  0  2  0  0  0  0  0  0
  -27.7220  -27.3150   18.3990 O   0  0  0  0  0  0  0  0  0  0  0  0
  -24.6900  -31.8020   22.8080 C   0  0  0  0  0  0  0  0  0  0  0  0
  -26.6590  -28.1700   18.4660 C   0  0  0  0  0  0  0  0  0  0  0  0
  -23.2020  -30.7400   21.1530 C   0  0  0  0  0  3  0  0  0  0  0  0
  -24.3430  -29.5700   19.1990 C   0  0  0  0  0  0  0  0  0  0  0  0
  -25.6560  -31.1790   20.5960 C   0  0  0  0  0  2  0  0  0  0  0  0
  -25.5970  -29.9890   19.6660 C   0  0  0  0  0  0  0  0  0  0  0  0
  -26.7640  -29.3100   19.2810 C   0  0  0  0  0  3  0  0  0  0  0  0
  -25.3960  -27.7730   17.9640 C   0  0  0  0  0  3  0  0  0  0  0  0
  -24.2340  -28.4600   18.3380 C   0  0  0  0  0  3  0  0  0  0  0  0
  -23.1540  -30.3790   19.6420 C   0  0  0  0  0  2  0  0  0  0  0  0
  -24.5470  -31.2370   21.5780 N   0  0  0  0  0  0  0  0  0  0  0  0
  -23.7140  -31.9420   23.5610 O   0  0  0  0  0  0  0  0  0  0  0  0
  -22.7100  -29.5270   21.9710 C   0  0  0  0  0  0  0  0  0  0  0  0
  -21.3830  -29.3190   21.9880 N   0  0  0  0  0  0  0  0  0  0  0  0
  -23.5050  -28.7930   22.5640 O   0  0  0  0  0  0  0  0  0  0  0  0
  -20.8030  -30.0110   21.5340 H   0  0  0  0  0  0  0  0  0  0  0  0
  -18.1620  -27.7680   22.5520 C   0  0  0  0  0  0  0  0  0  0  0  0
  -20.7040  -28.2090   22.6590 C   0  0  0  0  0  3  0  0  0  0  0  0
  -20.8600  -26.8990   21.8490 C   0  0  0  0  0  2  0  0  0  0  0  0
  -19.6920  -26.6120   20.8920 C   0  0  0  0  0  2  0  0  0  0  0  0
  -18.3810  -26.5430   21.6800 C   0  0  0  0  0  2  0  0  0  0  0  0
  -19.2550  -28.5580   23.0030 C   0  0  0  0  0  0  0  0  0  0  0  0
  -18.9860  -29.7020   23.7800 C   0  0  0  0  0  3  0  0  0  0  0  0
  -17.6620  -30.0590   24.1070 C   0  0  0  0  0  3  0  0  0  0  0  0
  -16.5880  -29.2710   23.6680 C   0  0  0  0  0  3  0  0  0  0  0  0
  -16.8450  -28.1200   22.9040 C   0  0  0  0  0  3  0  0  0  0  0  0
  -26.0710  -32.3290   23.3050 C   0  0  0  0  0  3  0  0  0  0  0  0
  -25.8500  -33.6490   23.9110 N   0  0  0  0  0  0  0  0  0  0  0  0
  -26.1390  -34.8160   23.3170 C   0  0  0  0  0  0  0  0  0  0  0  0
  -26.6950  -34.8850   22.2190 O   0  0  0  0  0  0  0  0  0  0  0  0
  -25.3630  -33.6690   24.7920 H   0  0  0  0  0  0  0  0  0  0  0  0
  -24.4740  -36.6970   23.4410 C   0  0  0  0  0  1  0  0  0  0  0  0
  -25.7520  -36.1090   24.0620 C   0  0  0  0  0  3  0  0  0  0  0  0
  -27.9840  -36.7530   24.8580 C   0  0  0  0  0  1  0  0  0  0  0  0
  -26.8200  -37.1310   24.0610 N   0  0  0  0  0  0  0  0  0  0  0  0
  -26.4690  -38.0160   24.4110 H   0  0  0  0  0  0  0  0  0  0  0  0
  -26.7690  -31.3530   24.3320 C   0  0  1  0  0  0  0  0  0  0  0  0
  -25.8590  -30.9390   25.5120 C   0  0  0  0  0  1  0  0  0  0  0  0
  -27.2430  -30.0630   23.6190 C   0  0  0  0  0  1  0  0  0  0  0  0
  -28.0330  -32.0270   24.9170 C   0  0  0  0  0  1  0  0  0  0  0  0
  1  2  1  0
  2  6  1  0
  2  4  2  0
  3  1  2  0
  3  5  1  0
  5 51  1  0
  5  4  1  0
  7  8  1  0
  8 10  1  0
  8  6  1  0
  8  9  1  6
 11 12  1  0
 11 10  1  0
 13 21  1  0
 13 19  1  0
 14 19  1  0
 15 16  1  0
 15 14  1  0
 17 16  1  0
 17 26  1  0
 17 18  1  0
 19 18  1  0
 20 13  2  0
 21 12  1  0
 22 21  1  0
 23 24  2  0
 24 43  1  0
 25 24  1  0
 25 28  1  0
 26 27  1  0
 26 23  1  0
 27 25  2  0
 28 29  1  0
 29 30  2  0
 31 34  1  0
 31 30  1  0
 32 31  2  0
 33 32  1  0
 33 28  2  0
 34 35  1  0
 35 36  1  0
 36 37  2  0
 38 37  1  0
 38 42  1  0
 39 38  2  0
 40 35  2  0
 40 39  1  0
 41 40  1  0
 43 44  1  0
 44 47  1  0
 44 46  1  0
 45 43  2  0
 48 49  1  0
 48 23  1  0
 50 48  1  0
 52 51  1  0
 53 52  1  0
 54 56  1  0
 54 53  1  0
 55 66  2  0
 56 61  1  0
 57 65  1  0
 57 67  1  0
 58 64  1  0
 58 60  1  0
 59 65  1  0
 60 59  1  0
 61 60  2  0
 62 63  1  0
 62 56  2  0
 63 58  2  0
 64 57  1  0
 65 55  1  0
 67 68  1  0
 67 69  2  0
 70 68  1  0
 71 80  2  0
 71 76  1  0
 72 68  1  0
 72 76  1  0
 73 72  1  0
 74 75  1  0
 74 73  1  0
 75 71  1  0
 76 77  2  0
 77 78  1  0
 79 78  2  0
 80 79  1  0
 81 55  1  0
 81 82  1  0
 81 91  1  0
 82 85  1  0
 83 82  1  0
 83 87  1  0
 84 83  2  0
 87 86  1  0
 89 87  1  0
 89 90  1  0
 89 88  1  0
 91 94  1  1
 91 92  1  0
 93 91  1  0
M  ISO  4  13 100  21 100  53 101  54 101
M  END
>  <TORSDO>  (14) 
F 24

>  <SCORE>  (14) 
-7.038

>  <name>  (14) 
14

>  <ligand_id>  (14) 
14

>  <original_smiles>  (14) 
[H]c1nn(C([H])([H])C([H])([H])C([H])([H])Oc2c([H])c([H])c3c(c2[H])C([H])([H])N(C(=O)C([H])(N([H])C(=O)C([H])(N([H])C([H])([H])[H])C([H])([H])[H])C(C([H])([H])[H])(C([H])([H])[H])C([H])([H])[H])C([H])(C(=O)N([H])C2([H])c4c([H])c([H])c([H])c([H])c4C([H])([H])C([H])([H])C2([H])[H])C3([H])[H])nc1C([H])([H])[N+]([H])(C([H])([H])[H])C([H])([H])C([H])([H])C([H])([H])N([H])C(=O)N1C([H])([H])C([H])([H])C([H])([H])C([H])(n2nc(-c3c([H])c([H])c(Oc4c([H])c([H])c(F)c([H])c4F)c([H])c3[H])c(C(=O)N([H])[H])c2N([H])[H])C1([H])[H]

>  <smiles>  (14) 
[H]c1nn(C([H])([H])C([H])([H])C([H])([H])Oc2c([H])c([H])c3c(c2[H])C([H])([H])N(C(=O)C([H])(N([H])C(=O)C([H])(N([H])C([H])([H])[H])C([H])([H])[H])C(C([H])([H])[H])(C([H])([H])[H])C([H])([H])[H])C([H])(C(=O)N([H])C2([H])c4c([H])c([H])c([H])c([H])c4C([H])([H])C([H])([H])C2([H])[H])C3([H])[H])nc1C([H])([H])[N+]([H])(C([H])([H])[H])C([H])([H])C([H])([H])C([H])([H])N([H])C(=O)N1C([H])([H])C([H])([H])C([H])([H])C([H])(n2nc(-c3c([H])c([H])c(Oc4c([H])c([H])c(F)c([H])c4F)c([H])c3[H])c(C(=O)N([H])[H])c2N([H])[H])C1([H])[H]

$$$$
15:0:0
     RDKit          3D

 88 96  0  0  1  0  0  0  0  0999 V2000
  -29.7420  -21.2740   20.9750 C   0  0  0  0  0  3  0  0  0  0  0  0
  -29.3360  -20.0750   20.3830 C   0  0  0  0  0  0  0  0  0  0  0  0
  -28.4910  -20.4830   19.3340 N   0  0  0  0  0  0  0  0  0  0  0  0
  -28.4100  -21.7990   19.2610 N   0  0  0  0  0  0  0  0  0  0  0  0
  -29.1230  -22.3490   20.2860 N   0  0  0  0  0  0  0  0  0  0  0  0
  -29.4770  -18.5710   20.8790 C   0  0  0  0  0  3  0  0  0  0  0  0
  -30.0850  -17.3280   20.0090 C   0  0  0  0  0  3  0  0  0  0  0  0
  -30.7050  -14.7680   20.0490 C   0  0  0  0  0  0  0  0  0  0  0  0
  -30.3960  -12.5430   18.9240 C   0  0  0  0  0  2  0  0  0  0  0  0
  -29.3970  -12.6870   17.7550 C   0  0  0  0  0  2  0  0  0  0  0  0
  -27.9380  -12.5340   18.2390 C   0  0  0  0  0  2  0  0  0  0  0  0
  -27.6580  -13.3390   19.5380 C   0  0  0  0  0  3  0  0  0  0  0  0
  -28.7730  -13.1500   20.5830 C   0  0  0  0  0  2  0  0  0  0  0  0
  -30.0430  -13.5550   19.9530 N   0  0  0  0  0  0  0  0  0  0  0  0
  -31.8000  -14.8960   19.4880 O   0  0  0  0  0  0  0  0  0  0  0  0
  -29.8270  -15.8730   22.0350 C   0  0  0  0  0  1  0  0  0  0  0  0
  -30.0570  -15.8910   20.5830 N   0  0  0  0  0  0  0  0  0  0  0  0
  -25.3230  -13.9160   20.4190 C   0  0  0  0  0  0  0  0  0  0  0  0
  -24.2750  -13.1370   20.8340 C   0  0  0  0  0  0  0  0  0  0  0  0
  -24.7280  -11.7870   20.7340 C   0  0  0  0  0  0  0  0  0  0  0  0
  -26.3440  -13.0370   20.0990 N   0  0  0  0  0  0  0  0  0  0  0  0
  -25.9950  -11.7480   20.3450 N   0  0  0  0  0  0  0  0  0  0  0  0
  -24.0080  -10.5210   20.9400 C   0  0  0  0  0  0  0  0  0  0  0  0
  -24.4670   -9.5580   21.8640 C   0  0  0  0  0  3  0  0  0  0  0  0
  -23.7560   -8.3550   22.0560 C   0  0  0  0  0  3  0  0  0  0  0  0
  -22.5680   -8.1100   21.3270 C   0  0  0  0  0  0  0  0  0  0  0  0
  -22.1300   -9.0610   20.3890 C   0  0  0  0  0  3  0  0  0  0  0  0
  -22.8410  -10.2560   20.1960 C   0  0  0  0  0  3  0  0  0  0  0  0
  -21.8180   -6.9630   21.4330 O   0  0  0  0  0  0  0  0  0  0  0  0
  -21.7540   -6.2460   22.6020 C   0  0  0  0  0  0  0  0  0  0  0  0
  -21.3160   -6.8270   23.8130 C   0  0  0  0  0  3  0  0  0  0  0  0
  -21.2050   -6.0350   24.9740 C   0  0  0  0  0  3  0  0  0  0  0  0
  -21.5130   -4.6620   24.9200 C   0  0  0  0  0  0  0  0  0  0  0  0
  -21.9430   -4.0820   23.7140 C   0  0  0  0  0  3  0  0  0  0  0  0
  -22.0610   -4.8720   22.5590 C   0  0  0  0  0  0  0  0  0  0  0  0
  -22.4580   -4.3050   21.3940 F   0  0  0  0  0  0  0  0  0  0  0  0
  -21.3970   -3.8980   26.0300 F   0  0  0  0  0  0  0  0  0  0  0  0
  -22.8990  -13.6080   21.2040 C   0  0  0  0  0  0  0  0  0  0  0  0
  -22.2240  -12.8880   22.0970 N   0  0  0  0  0  0  0  0  0  0  0  0
  -22.4310  -14.6430   20.7330 O   0  0  0  0  0  0  0  0  0  0  0  0
  -22.6160  -12.0530   22.5070 H   0  0  0  0  0  0  0  0  0  0  0  0
  -21.2970  -13.1740   22.3690 H   0  0  0  0  0  0  0  0  0  0  0  0
  -25.4870  -15.2880   20.2620 N   0  0  0  0  0  0  0  0  0  0  0  0
  -24.7420  -15.9560   20.4250 H   0  0  0  0  0  0  0  0  0  0  0  0
  -26.3370  -15.7240   19.9320 H   0  0  0  0  0  0  0  0  0  0  0  0
  -29.2990  -23.8680   20.4190 C   0  0  0  0  0  3  0  0  0  0  0  0
  -28.0580  -24.8990   20.2660 C   0  0  0  0  0  3  0  0  0  0  0  0
  -28.3010  -26.3930   20.2430 O   0  0  0  0  0  0  0  0  0  0  0  0
  -24.6100  -31.9070   23.2180 C   0  0  0  0  0  0  0  0  0  0  0  0
  -27.2030  -27.2880   20.1820 C   0  0  0  0  0  0  0  0  0  0  0  0
  -23.4030  -30.4990   21.5930 C   0  0  0  0  0  3  0  0  0  0  0  0
  -24.8460  -28.9440   20.1630 C   0  0  0  0  0  0  0  0  0  0  0  0
  -25.9450  -30.8050   21.4010 C   0  0  0  0  0  2  0  0  0  0  0  0
  -26.0220  -29.4230   20.7540 C   0  0  0  0  0  0  0  0  0  0  0  0
  -27.2030  -28.6090   20.7460 C   0  0  0  0  0  3  0  0  0  0  0  0
  -26.0030  -26.8830   19.5510 C   0  0  0  0  0  3  0  0  0  0  0  0
  -24.8430  -27.6850   19.5480 C   0  0  0  0  0  3  0  0  0  0  0  0
  -23.6110  -29.8250   20.2120 C   0  0  0  0  0  2  0  0  0  0  0  0
  -24.6730  -31.0860   22.1290 N   0  0  0  0  0  0  0  0  0  0  0  0
  -23.5290  -32.1900   23.7550 O   0  0  0  0  0  0  0  0  0  0  0  0
  -22.7440  -29.4830   22.5560 C   0  0  0  0  0  0  0  0  0  0  0  0
  -21.4170  -29.3050   22.4340 N   0  0  0  0  0  0  0  0  0  0  0  0
  -23.4250  -28.8640   23.3760 O   0  0  0  0  0  0  0  0  0  0  0  0
  -20.9290  -29.8530   21.7410 H   0  0  0  0  0  0  0  0  0  0  0  0
  -18.0480  -28.1140   22.9610 C   0  0  0  0  0  0  0  0  0  0  0  0
  -20.6050  -28.3750   23.2160 C   0  0  0  0  0  3  0  0  0  0  0  0
  -20.7050  -26.9380   22.6520 C   0  0  0  0  0  2  0  0  0  0  0  0
  -19.6000  -26.6080   21.6440 C   0  0  0  0  0  2  0  0  0  0  0  0
  -18.2200  -26.7580   22.2920 C   0  0  0  0  0  2  0  0  0  0  0  0
  -19.1670  -28.8790   23.3780 C   0  0  0  0  0  0  0  0  0  0  0  0
  -18.9510  -30.1470   23.9620 C   0  0  0  0  0  3  0  0  0  0  0  0
  -17.6470  -30.6460   24.1370 C   0  0  0  0  0  3  0  0  0  0  0  0
  -16.5420  -29.8790   23.7330 C   0  0  0  0  0  3  0  0  0  0  0  0
  -16.7400  -28.6150   23.1470 C   0  0  0  0  0  3  0  0  0  0  0  0
  -25.8950  -32.5430   23.8260 C   0  0  0  0  0  3  0  0  0  0  0  0
  -26.4270  -31.7760   25.1020 C   0  0  1  0  0  0  0  0  0  0  0  0
  -25.3430  -31.5360   26.1800 C   0  0  0  0  0  1  0  0  0  0  0  0
  -27.0160  -30.3970   24.7160 C   0  0  0  0  0  1  0  0  0  0  0  0
  -27.5710  -32.5850   25.7550 C   0  0  0  0  0  1  0  0  0  0  0  0
  -25.5780  -33.9400   24.1580 N   0  0  0  0  0  0  0  0  0  0  0  0
  -25.9080  -34.9970   23.4000 C   0  0  0  0  0  0  0  0  0  0  0  0
  -26.5790  -34.8980   22.3700 O   0  0  0  0  0  0  0  0  0  0  0  0
  -24.9770  -34.0900   24.9540 H   0  0  0  0  0  0  0  0  0  0  0  0
  -24.1790  -36.7960   23.0430 C   0  0  0  0  0  1  0  0  0  0  0  0
  -25.4140  -36.3820   23.8600 C   0  0  0  0  0  3  0  0  0  0  0  0
  -27.5440  -37.2660   24.7110 C   0  0  0  0  0  1  0  0  0  0  0  0
  -26.4460  -37.4380   23.7640 N   0  0  0  0  0  0  0  0  0  0  0  0
  -26.0360  -38.3540   23.9280 H   0  0  0  0  0  0  0  0  0  0  0  0
  2  6  1  0
  2  1  2  0
  3  2  1  0
  4  3  2  0
  4  5  1  0
  5 46  1  0
  5  1  1  0
  7 17  1  0
  7  6  2  0
  8 17  1  0
  9 14  1  0
 10 11  1  0
 10  9  1  0
 12 11  1  0
 12 21  1  0
 12 13  1  0
 14  8  1  0
 14 13  1  0
 15  8  2  0
 17 16  1  0
 18 19  2  0
 19 38  1  0
 20 19  1  0
 20 23  1  0
 21 22  1  0
 21 18  1  0
 22 20  2  0
 23 24  1  0
 24 25  2  0
 26 29  1  0
 26 25  1  0
 27 26  2  0
 28 27  1  0
 28 23  2  0
 29 30  1  0
 30 31  1  0
 31 32  2  0
 33 32  1  0
 33 37  1  0
 34 33  2  0
 35 30  2  0
 35 34  1  0
 36 35  1  0
 38 39  1  0
 39 42  1  0
 39 41  1  0
 40 38  2  0
 43 18  1  0
 43 44  1  0
 45 43  1  0
 47 46  2  0
 48 47  1  0
 49 60  2  0
 50 48  1  0
 50 55  1  0
 51 59  1  0
 51 61  1  0
 52 58  1  0
 52 54  1  0
 53 59  1  0
 54 53  1  0
 55 54  2  0
 56 50  2  0
 57 56  1  0
 57 52  2  0
 58 51  1  0
 59 49  1  0
 61 63  2  0
 62 61  1  0
 64 62  1  0
 65 74  2  0
 65 70  1  0
 66 62  1  0
 66 70  1  0
 67 66  1  0
 68 69  1  0
 68 67  1  0
 69 65  1  0
 70 71  2  0
 71 72  1  0
 73 72  2  0
 74 73  1  0
 75 49  1  0
 75 80  1  0
 75 76  1  0
 76 79  1  1
 76 77  1  0
 78 76  1  0
 80 83  1  0
 81 85  1  0
 81 80  1  0
 82 81  2  0
 85 84  1  0
 87 85  1  0
 87 88  1  0
 87 86  1  0
M  ISO  4   8 100  17 100  47 101  48 101
M  END
>  <TORSDO>  (15) 
F 20

>  <SCORE>  (15) 
-13.148

>  <name>  (15) 
15

>  <ligand_id>  (15) 
15

>  <original_smiles>  (15) 
[H]c1c([H])c([H])c2c(c1[H])C([H])([H])C([H])([H])C([H])([H])C2([H])N([H])C(=O)C1([H])N(C(=O)C([H])(N([H])C(=O)C([H])(N([H])C([H])([H])[H])C([H])([H])[H])C(C([H])([H])[H])(C([H])([H])[H])C([H])([H])[H])C([H])([H])c2c([H])c(OC([H])([H])C([H])([H])n3nnc(C([H])([H])C([H])([H])N(C(=O)N4C([H])([H])C([H])([H])C([H])([H])C([H])(n5nc(-c6c([H])c([H])c(Oc7c([H])c([H])c(F)c([H])c7F)c([H])c6[H])c(C(=O)N([H])[H])c5N([H])[H])C4([H])[H])C([H])([H])[H])c3[H])c([H])c([H])c2C1([H])[H]

>  <smiles>  (15) 
[H]c1c([H])c([H])c2c(c1[H])C([H])([H])C([H])([H])C([H])([H])C2([H])N([H])C(=O)C1([H])N(C(=O)C([H])(N([H])C(=O)C([H])(N([H])C([H])([H])[H])C([H])([H])[H])C(C([H])([H])[H])(C([H])([H])[H])C([H])([H])[H])C([H])([H])c2c([H])c(OC([H])([H])C([H])([H])n3nnc(C([H])([H])C([H])([H])N(C(=O)N4C([H])([H])C([H])([H])C([H])([H])C([H])(n5nc(-c6c([H])c([H])c(Oc7c([H])c([H])c(F)c([H])c7F)c([H])c6[H])c(C(=O)N([H])[H])c5N([H])[H])C4([H])[H])C([H])([H])[H])c3[H])c([H])c([H])c2C1([H])[H]

$$$$
16:0:0
     RDKit          3D

 95103  0  0  1  0  0  0  0  0999 V2000
  -27.7890  -22.7350   18.6510 C   0  0  0  0  0  0  0  0  0  0  0  0
  -29.9870  -22.6700   18.9690 C   0  0  0  0  0  0  0  0  0  0  0  0
  -28.7880  -24.3910   19.7260 C   0  0  0  0  0  0  0  0  0  0  0  0
  -26.5330  -22.1000   18.1070 C   0  0  0  0  0  1  0  0  0  0  0  0
  -28.9180  -22.0540   18.4810 N   0  0  0  0  0  4  0  0  0  0  0  0
  -27.6500  -23.9000   19.2540 N   0  0  0  0  0  0  0  0  0  0  0  0
  -29.9960  -23.8330   19.6160 N   0  0  0  0  0  2  0  0  0  0  0  0
  -31.3240  -21.9570   18.7540 C   0  0  0  0  0  2  0  0  0  0  0  0
  -31.5380  -20.7220   19.6710 C   0  0  0  0  0  2  0  0  0  0  0  0
  -32.4620  -19.6470   19.0580 C   0  0  0  0  0  2  0  0  0  0  0  0
  -34.5770  -18.9220   20.1080 C   0  0  0  0  0  1  0  0  0  0  0  0
  -33.0940  -18.7560   20.0810 N   0  0  2  0  0  4  0  0  0  0  0  0
  -32.7840  -19.0570   20.9930 H   0  0  0  0  0  0  0  0  0  0  0  0
  -32.6800  -17.3280   19.9900 C   0  0  0  0  0  2  0  0  0  0  0  0
  -31.1330  -17.1110   20.1300 C   0  0  0  0  0  2  0  0  0  0  0  0
  -31.0970  -14.6290   20.0640 C   0  0  0  0  0  0  0  0  0  0  0  0
  -30.5700  -12.4180   19.1180 C   0  0  0  0  0  2  0  0  0  0  0  0
  -29.6630  -12.5250   17.8790 C   0  0  0  0  0  2  0  0  0  0  0  0
  -28.1980  -12.4560   18.3330 C   0  0  0  0  0  2  0  0  0  0  0  0
  -27.8640  -13.4290   19.4970 C   0  0  0  0  0  3  0  0  0  0  0  0
  -28.9250  -13.3830   20.6190 C   0  0  0  0  0  2  0  0  0  0  0  0
  -30.2700  -13.5390   20.0310 N   0  0  0  0  0  0  0  0  0  0  0  0
  -32.1250  -14.6540   19.3900 O   0  0  0  0  0  0  0  0  0  0  0  0
  -30.3270  -15.8750   22.0710 C   0  0  0  0  0  1  0  0  0  0  0  0
  -30.7010  -15.7840   20.6590 N   0  0  0  0  0  0  0  0  0  0  0  0
  -25.5130  -14.0770   20.3270 C   0  0  0  0  0  0  0  0  0  0  0  0
  -24.4470  -13.3350   20.7420 C   0  0  0  0  0  0  0  0  0  0  0  0
  -24.8750  -11.9710   20.6940 C   0  0  0  0  0  0  0  0  0  0  0  0
  -26.5270  -13.1790   20.0370 N   0  0  0  0  0  0  0  0  0  0  0  0
  -26.1470  -11.9040   20.3220 N   0  0  0  0  0  0  0  0  0  0  0  0
  -24.1340  -10.7260   20.9190 C   0  0  0  0  0  0  0  0  0  0  0  0
  -24.5710   -9.7590   21.8540 C   0  0  0  0  0  3  0  0  0  0  0  0
  -23.8320   -8.5740   22.0610 C   0  0  0  0  0  3  0  0  0  0  0  0
  -22.6390   -8.3450   21.3370 C   0  0  0  0  0  0  0  0  0  0  0  0
  -22.2190   -9.2980   20.3920 C   0  0  0  0  0  3  0  0  0  0  0  0
  -22.9570  -10.4740   20.1850 C   0  0  0  0  0  3  0  0  0  0  0  0
  -21.8700   -7.2140   21.4530 O   0  0  0  0  0  0  0  0  0  0  0  0
  -21.8070   -6.5000   22.6250 C   0  0  0  0  0  0  0  0  0  0  0  0
  -21.4210   -7.0980   23.8440 C   0  0  0  0  0  3  0  0  0  0  0  0
  -21.3090   -6.3130   25.0110 C   0  0  0  0  0  3  0  0  0  0  0  0
  -21.5730   -4.9320   24.9560 C   0  0  0  0  0  0  0  0  0  0  0  0
  -21.9470   -4.3340   23.7400 C   0  0  0  0  0  3  0  0  0  0  0  0
  -22.0630   -5.1170   22.5780 C   0  0  0  0  0  0  0  0  0  0  0  0
  -22.4070   -4.5310   21.4060 F   0  0  0  0  0  0  0  0  0  0  0  0
  -21.4570   -4.1740   26.0710 F   0  0  0  0  0  0  0  0  0  0  0  0
  -23.0690  -13.8430   21.0680 C   0  0  0  0  0  0  0  0  0  0  0  0
  -22.3650  -13.1690   21.9670 N   0  0  0  0  0  0  0  0  0  0  0  0
  -22.6310  -14.8750   20.5560 O   0  0  0  0  0  0  0  0  0  0  0  0
  -22.7390  -12.3410   22.4100 H   0  0  0  0  0  0  0  0  0  0  0  0
  -21.4390  -13.4760   22.2240 H   0  0  0  0  0  0  0  0  0  0  0  0
  -25.7050  -15.4500   20.1500 N   0  0  0  0  0  0  0  0  0  0  0  0
  -24.9660  -16.1260   20.3140 H   0  0  0  0  0  0  0  0  0  0  0  0
  -26.5520  -15.8770   19.7920 H   0  0  0  0  0  0  0  0  0  0  0  0
  -28.6310  -25.6200   20.6130 C   0  0  0  0  0  2  0  0  0  0  0  0
  -28.4520  -26.8670   19.9180 O   0  0  0  0  0  0  0  0  0  0  0  0
  -24.5810  -31.8660   23.2060 C   0  0  0  0  0  0  0  0  0  0  0  0
  -27.2310  -27.5040   20.0270 C   0  0  0  0  0  0  0  0  0  0  0  0
  -23.3520  -30.4690   21.5830 C   0  0  0  0  0  3  0  0  0  0  0  0
  -24.7840  -28.9440   20.1190 C   0  0  0  0  0  0  0  0  0  0  0  0
  -25.8620  -30.8620   21.3140 C   0  0  0  0  0  2  0  0  0  0  0  0
  -25.9520  -29.5020   20.6580 C   0  0  0  0  0  0  0  0  0  0  0  0
  -27.1790  -28.8080   20.5700 C   0  0  0  0  0  3  0  0  0  0  0  0
  -26.0460  -26.9400   19.5030 C   0  0  0  0  0  3  0  0  0  0  0  0
  -24.8270  -27.6590   19.5390 C   0  0  0  0  0  3  0  0  0  0  0  0
  -23.5300  -29.7960   20.1970 C   0  0  0  0  0  2  0  0  0  0  0  0
  -24.6220  -31.0730   22.0970 N   0  0  0  0  0  0  0  0  0  0  0  0
  -23.5090  -32.1210   23.7730 O   0  0  0  0  0  0  0  0  0  0  0  0
  -22.7340  -29.4350   22.5440 C   0  0  0  0  0  0  0  0  0  0  0  0
  -21.4110  -29.2480   22.4260 N   0  0  0  0  0  0  0  0  0  0  0  0
  -23.4350  -28.8080   23.3400 O   0  0  0  0  0  0  0  0  0  0  0  0
  -20.9190  -29.7980   21.7370 H   0  0  0  0  0  0  0  0  0  0  0  0
  -18.0500  -28.0170   22.9170 C   0  0  0  0  0  0  0  0  0  0  0  0
  -20.6040  -28.2960   23.1830 C   0  0  0  0  0  3  0  0  0  0  0  0
  -20.7250  -26.8760   22.5920 C   0  0  0  0  0  2  0  0  0  0  0  0
  -19.6240  -26.5450   21.5800 C   0  0  0  0  0  2  0  0  0  0  0  0
  -18.2430  -26.6730   22.2320 C   0  0  0  0  0  2  0  0  0  0  0  0
  -19.1630  -28.7890   23.3460 C   0  0  0  0  0  0  0  0  0  0  0  0
  -18.9410  -30.0470   23.9470 C   0  0  0  0  0  3  0  0  0  0  0  0
  -17.6350  -30.5350   24.1280 C   0  0  0  0  0  3  0  0  0  0  0  0
  -16.5350  -29.7610   23.7230 C   0  0  0  0  0  3  0  0  0  0  0  0
  -16.7420  -28.5040   23.1240 C   0  0  0  0  0  3  0  0  0  0  0  0
  -25.8740  -32.5080   23.8020 C   0  0  0  0  0  3  0  0  0  0  0  0
  -25.5510  -33.8950   24.1610 N   0  0  0  0  0  0  0  0  0  0  0  0
  -25.8560  -34.9670   23.4180 C   0  0  0  0  0  0  0  0  0  0  0  0
  -26.5140  -34.8930   22.3760 O   0  0  0  0  0  0  0  0  0  0  0  0
  -24.9610  -34.0180   24.9700 H   0  0  0  0  0  0  0  0  0  0  0  0
  -24.0870  -36.7400   23.1330 C   0  0  0  0  0  1  0  0  0  0  0  0
  -25.3540  -36.3400   23.9060 C   0  0  0  0  0  3  0  0  0  0  0  0
  -27.4890  -37.2440   24.7120 C   0  0  0  0  0  1  0  0  0  0  0  0
  -26.3670  -37.4150   23.7940 N   0  0  0  0  0  0  0  0  0  0  0  0
  -25.9490  -38.3230   23.9780 H   0  0  0  0  0  0  0  0  0  0  0  0
  -26.4260  -31.7280   25.0600 C   0  0  1  0  0  0  0  0  0  0  0  0
  -25.3550  -31.4550   26.1430 C   0  0  0  0  0  1  0  0  0  0  0  0
  -27.0120  -30.3640   24.6320 C   0  0  0  0  0  1  0  0  0  0  0  0
  -27.5750  -32.5260   25.7270 C   0  0  0  0  0  1  0  0  0  0  0  0
  1  6  1  0
  2  7  1  0
  3 54  1  0
  4  1  1  0
  5  1  2  0
  5  2  2  0
  6  3  2  0
  7  3  1  0
  8  2  1  0
  8  9  1  0
 10  9  1  0
 10 12  1  0
 12 11  1  0
 12 13  1  1
 14 12  1  0
 14 15  1  0
 15 25  1  0
 16 25  1  0
 17 22  1  0
 18 19  1  0
 18 17  1  0
 20 19  1  0
 20 29  1  0
 20 21  1  0
 22 16  1  0
 22 21  1  0
 23 16  2  0
 25 24  1  0
 26 27  2  0
 27 46  1  0
 28 27  1  0
 28 31  1  0
 29 30  1  0
 29 26  1  0
 30 28  2  0
 31 32  1  0
 32 33  2  0
 34 37  1  0
 34 33  1  0
 35 34  2  0
 36 35  1  0
 36 31  2  0
 37 38  1  0
 38 39  1  0
 39 40  2  0
 41 40  1  0
 41 45  1  0
 42 41  2  0
 43 38  2  0
 43 42  1  0
 44 43  1  0
 46 47  1  0
 47 50  1  0
 47 49  1  0
 48 46  2  0
 51 52  1  0
 51 26  1  0
 53 51  1  0
 55 57  1  0
 55 54  1  0
 56 67  2  0
 57 62  1  0
 58 66  1  0
 58 68  1  0
 59 65  1  0
 59 61  1  0
 60 66  1  0
 61 60  1  0
 62 61  2  0
 63 64  1  0
 63 57  2  0
 64 59  2  0
 65 58  1  0
 66 56  1  0
 68 70  2  0
 69 68  1  0
 71 69  1  0
 72 81  2  0
 72 77  1  0
 73 69  1  0
 73 77  1  0
 74 73  1  0
 75 76  1  0
 75 74  1  0
 76 72  1  0
 77 78  2  0
 78 79  1  0
 80 79  2  0
 81 80  1  0
 82 56  1  0
 82 83  1  0
 82 92  1  0
 83 86  1  0
 84 88  1  0
 84 83  1  0
 85 84  2  0
 88 87  1  0
 90 88  1  0
 90 91  1  0
 90 89  1  0
 92 95  1  1
 92 93  1  0
 94 92  1  0
M  ISO  4  16 100  25 100  54 101  55 101
M  END
>  <TORSDO>  (16) 
F 23

>  <SCORE>  (16) 
-12.379

>  <name>  (16) 
16

>  <ligand_id>  (16) 
16

>  <original_smiles>  (16) 
[H]c1c([H])c([H])c2c(c1[H])C([H])([H])C([H])([H])C([H])([H])C2([H])N([H])C(=O)C1([H])N(C(=O)C([H])(N([H])C(=O)C([H])(N([H])C([H])([H])[H])C([H])([H])[H])C(C([H])([H])[H])(C([H])([H])[H])C([H])([H])[H])C([H])([H])c2c([H])c(OC([H])([H])c3nc(C([H])([H])[H])nc(C([H])([H])C([H])([H])C([H])([H])[N+]([H])(C([H])([H])[H])C([H])([H])C([H])([H])N(C(=O)N4C([H])([H])C([H])([H])C([H])([H])C([H])(n5nc(-c6c([H])c([H])c(Oc7c([H])c([H])c(F)c([H])c7F)c([H])c6[H])c(C(=O)N([H])[H])c5N([H])[H])C4([H])[H])C([H])([H])[H])n3)c([H])c([H])c2C1([H])[H]

>  <smiles>  (16) 
[H]c1c([H])c([H])c2c(c1[H])C([H])([H])C([H])([H])C([H])([H])C2([H])N([H])C(=O)C1([H])N(C(=O)C([H])(N([H])C(=O)C([H])(N([H])C([H])([H])[H])C([H])([H])[H])C(C([H])([H])[H])(C([H])([H])[H])C([H])([H])[H])C([H])([H])c2c([H])c(OC([H])([H])c3nc(C([H])([H])[H])nc(C([H])([H])C([H])([H])C([H])([H])[N+]([H])(C([H])([H])[H])C([H])([H])C([H])([H])N(C(=O)N4C([H])([H])C([H])([H])C([H])([H])C([H])(n5nc(-c6c([H])c([H])c(Oc7c([H])c([H])c(F)c([H])c7F)c([H])c6[H])c(C(=O)N([H])[H])c5N([H])[H])C4([H])[H])C([H])([H])[H])n3)c([H])c([H])c2C1([H])[H]

$$$$
17:0:0
     RDKit          3D

 99107  0  0  1  0  0  0  0  0999 V2000
  -27.9170  -20.9140   18.2680 C   0  0  0  0  0  2  0  0  0  0  0  0
  -29.9230  -23.8890   18.1450 C   0  0  0  0  0  3  0  0  0  0  0  0
  -28.4610  -22.3160   18.1870 C   0  0  0  0  0  0  0  0  0  0  0  0
  -27.7900  -23.4980   17.9390 C   0  0  0  0  0  0  0  0  0  0  0  0
  -26.3260  -23.7110   17.6980 C   0  0  0  0  0  1  0  0  0  0  0  0
  -29.8240  -22.5740   18.3000 N   0  0  0  0  0  0  0  0  0  0  0  0
  -28.7550  -24.5130   17.9350 N   0  0  0  0  0  0  0  0  0  0  0  0
  -28.5860  -25.9420   17.6750 C   0  0  0  0  0  2  0  0  0  0  0  0
  -29.0720  -26.8430   18.8260 C   0  0  0  0  0  2  0  0  0  0  0  0
  -28.2990  -26.6760   20.0130 O   0  0  0  0  0  0  0  0  0  0  0  0
  -24.6570  -31.7840   23.3640 C   0  0  0  0  0  0  0  0  0  0  0  0
  -27.1600  -27.4370   20.0660 C   0  0  0  0  0  0  0  0  0  0  0  0
  -23.4010  -30.4960   21.6640 C   0  0  0  0  0  3  0  0  0  0  0  0
  -24.8040  -28.9780   20.1680 C   0  0  0  0  0  0  0  0  0  0  0  0
  -25.9310  -30.7950   21.4660 C   0  0  0  0  0  2  0  0  0  0  0  0
  -25.9760  -29.4510   20.7710 C   0  0  0  0  0  0  0  0  0  0  0  0
  -27.1590  -28.6840   20.7230 C   0  0  0  0  0  3  0  0  0  0  0  0
  -25.9710  -26.9580   19.4820 C   0  0  0  0  0  3  0  0  0  0  0  0
  -24.7940  -27.7290   19.5210 C   0  0  0  0  0  3  0  0  0  0  0  0
  -23.5820  -29.8640   20.2570 C   0  0  0  0  0  2  0  0  0  0  0  0
  -24.6830  -31.0360   22.2240 N   0  0  0  0  0  0  0  0  0  0  0  0
  -23.5860  -32.0640   23.9220 O   0  0  0  0  0  0  0  0  0  0  0  0
  -22.7210  -29.4550   22.5820 C   0  0  0  0  0  0  0  0  0  0  0  0
  -21.3970  -29.2960   22.4260 N   0  0  0  0  0  0  0  0  0  0  0  0
  -23.3830  -28.7930   23.3850 O   0  0  0  0  0  0  0  0  0  0  0  0
  -20.9260  -29.8820   21.7510 H   0  0  0  0  0  0  0  0  0  0  0  0
  -18.0060  -28.1040   22.7950 C   0  0  0  0  0  0  0  0  0  0  0  0
  -20.5560  -28.3440   23.1510 C   0  0  0  0  0  3  0  0  0  0  0  0
  -20.6700  -26.9250   22.5480 C   0  0  0  0  0  2  0  0  0  0  0  0
  -19.5980  -26.6280   21.4940 C   0  0  0  0  0  2  0  0  0  0  0  0
  -18.1980  -26.7680   22.0970 C   0  0  0  0  0  2  0  0  0  0  0  0
  -19.1140  -28.8510   23.2760 C   0  0  0  0  0  0  0  0  0  0  0  0
  -18.8830  -30.1030   23.8850 C   0  0  0  0  0  3  0  0  0  0  0  0
  -17.5770  -30.6100   24.0160 C   0  0  0  0  0  3  0  0  0  0  0  0
  -16.4830  -29.8600   23.5540 C   0  0  0  0  0  3  0  0  0  0  0  0
  -16.6990  -28.6070   22.9510 C   0  0  0  0  0  3  0  0  0  0  0  0
  -25.9660  -32.3420   24.0070 C   0  0  0  0  0  3  0  0  0  0  0  0
  -25.7120  -33.7390   24.3840 N   0  0  0  0  0  0  0  0  0  0  0  0
  -26.1040  -34.8000   23.6680 C   0  0  0  0  0  0  0  0  0  0  0  0
  -26.7870  -34.7040   22.6440 O   0  0  0  0  0  0  0  0  0  0  0  0
  -25.1140  -33.8920   25.1820 H   0  0  0  0  0  0  0  0  0  0  0  0
  -24.4700  -36.6800   23.3370 C   0  0  0  0  0  1  0  0  0  0  0  0
  -25.6680  -36.1910   24.1660 C   0  0  0  0  0  3  0  0  0  0  0  0
  -27.8150  -36.9440   25.0870 C   0  0  0  0  0  1  0  0  0  0  0  0
  -26.7490  -37.1990   24.1220 N   0  0  0  0  0  0  0  0  0  0  0  0
  -26.3810  -38.1300   24.2950 H   0  0  0  0  0  0  0  0  0  0  0  0
  -26.4540  -31.5070   25.2540 C   0  0  1  0  0  0  0  0  0  0  0  0
  -25.3530  -31.2750   26.3160 C   0  0  0  0  0  1  0  0  0  0  0  0
  -26.9820  -30.1240   24.8070 C   0  0  0  0  0  1  0  0  0  0  0  0
  -27.6390  -32.2290   25.9360 C   0  0  0  0  0  1  0  0  0  0  0  0
  -28.2340  -20.1900   19.5910 C   0  0  0  0  0  2  0  0  0  0  0  0
  -29.6440  -19.5600   19.6290 C   0  0  0  0  0  2  0  0  0  0  0  0
  -30.0620  -19.8620   22.0470 C   0  0  0  0  0  1  0  0  0  0  0  0
  -29.9710  -18.9000   20.9210 N   0  0  2  0  0  4  0  0  0  0  0  0
  -29.2070  -18.2810   21.1510 H   0  0  0  0  0  0  0  0  0  0  0  0
  -31.1810  -18.0410   20.8160 C   0  0  0  0  0  2  0  0  0  0  0  0
  -30.8390  -16.5820   20.4450 C   0  0  0  0  0  2  0  0  0  0  0  0
  -32.0810  -15.6680   20.4450 C   0  0  0  0  0  2  0  0  0  0  0  0
  -31.5740  -13.6300   19.1460 C   0  0  0  0  0  0  0  0  0  0  0  0
  -30.6030  -11.6770   17.9850 C   0  0  0  0  0  2  0  0  0  0  0  0
  -29.4860  -12.0290   16.9870 C   0  0  0  0  0  2  0  0  0  0  0  0
  -28.1250  -12.0900   17.6990 C   0  0  0  0  0  2  0  0  0  0  0  0
  -28.1650  -12.9960   18.9530 C   0  0  0  0  0  3  0  0  0  0  0  0
  -29.3630  -12.6430   19.8570 C   0  0  0  0  0  2  0  0  0  0  0  0
  -30.6150  -12.6680   19.0720 N   0  0  0  0  0  0  0  0  0  0  0  0
  -32.3030  -13.9160   18.1890 O   0  0  0  0  0  0  0  0  0  0  0  0
  -31.7180  -14.2460   20.3480 N   0  0  0  0  0  0  0  0  0  0  0  0
  -26.1310  -13.9710   20.2010 C   0  0  0  0  0  0  0  0  0  0  0  0
  -25.0230  -13.3780   20.7480 C   0  0  0  0  0  0  0  0  0  0  0  0
  -25.1810  -11.9740   20.5370 C   0  0  0  0  0  0  0  0  0  0  0  0
  -26.9040  -12.9370   19.6950 N   0  0  0  0  0  0  0  0  0  0  0  0
  -26.3460  -11.7250   19.9520 N   0  0  0  0  0  0  0  0  0  0  0  0
  -24.2650  -10.8580   20.8060 C   0  0  0  0  0  0  0  0  0  0  0  0
  -24.6410   -9.7780   21.6360 C   0  0  0  0  0  3  0  0  0  0  0  0
  -23.7350   -8.7250   21.8920 C   0  0  0  0  0  3  0  0  0  0  0  0
  -22.4410   -8.7460   21.3200 C   0  0  0  0  0  0  0  0  0  0  0  0
  -22.0820   -9.8120   20.4770 C   0  0  0  0  0  3  0  0  0  0  0  0
  -22.9860  -10.8560   20.2180 C   0  0  0  0  0  3  0  0  0  0  0  0
  -21.5060   -7.7540   21.4920 O   0  0  0  0  0  0  0  0  0  0  0  0
  -21.4520   -7.0060   22.6410 C   0  0  0  0  0  0  0  0  0  0  0  0
  -21.2600   -7.5990   23.9070 C   0  0  0  0  0  3  0  0  0  0  0  0
  -21.1410   -6.7870   25.0540 C   0  0  0  0  0  3  0  0  0  0  0  0
  -21.2060   -5.3870   24.9360 C   0  0  0  0  0  0  0  0  0  0  0  0
  -21.3930   -4.7940   23.6740 C   0  0  0  0  0  3  0  0  0  0  0  0
  -21.5130   -5.6020   22.5300 C   0  0  0  0  0  0  0  0  0  0  0  0
  -21.6720   -5.0260   21.3140 F   0  0  0  0  0  0  0  0  0  0  0  0
  -21.0850   -4.6060   26.0350 F   0  0  0  0  0  0  0  0  0  0  0  0
  -23.8370  -14.0790   21.3450 C   0  0  0  0  0  0  0  0  0  0  0  0
  -23.2050  -13.4720   22.3450 N   0  0  0  0  0  0  0  0  0  0  0  0
  -23.4900  -15.1940   20.9570 O   0  0  0  0  0  0  0  0  0  0  0  0
  -23.5020  -12.5650   22.6760 H   0  0  0  0  0  0  0  0  0  0  0  0
  -22.4160  -13.9210   22.7860 H   0  0  0  0  0  0  0  0  0  0  0  0
  -26.5340  -15.2960   20.0730 N   0  0  0  0  0  0  0  0  0  0  0  0
  -25.9450  -16.0680   20.3660 H   0  0  0  0  0  0  0  0  0  0  0  0
  -27.3540  -15.5920   19.5600 H   0  0  0  0  0  0  0  0  0  0  0  0
  -31.8670  -13.5050   21.6200 C   0  0  0  0  0  2  0  0  0  0  0  0
  -33.7730  -12.0140   20.7300 C   0  0  0  0  0  1  0  0  0  0  0  0
  -33.3400  -12.2030   23.2070 C   0  0  0  0  0  1  0  0  0  0  0  0
  -33.2880  -12.9380   21.8600 C   0  0  0  0  0  3  0  0  0  0  0  0
  1 51  1  0
  2  6  2  0
  3  1  1  0
  3  6  1  0
  4  3  2  0
  5  4  1  0
  7  4  1  0
  7  2  1  0
  8  7  1  0
  8  9  1  0
  9 10  1  0
 10 12  1  0
 11 22  2  0
 12 17  1  0
 13 21  1  0
 13 23  1  0
 14 20  1  0
 14 16  1  0
 15 21  1  0
 16 15  1  0
 17 16  2  0
 18 19  1  0
 18 12  2  0
 19 14  2  0
 20 13  1  0
 21 11  1  0
 23 25  2  0
 24 23  1  0
 26 24  1  0
 27 36  2  0
 27 32  1  0
 28 24  1  0
 28 32  1  0
 29 28  1  0
 30 31  1  0
 30 29  1  0
 31 27  1  0
 32 33  2  0
 33 34  1  0
 35 34  2  0
 36 35  1  0
 37 11  1  0
 37 38  1  0
 37 47  1  0
 38 41  1  0
 39 43  1  0
 39 38  1  0
 40 39  2  0
 43 42  1  0
 45 43  1  0
 45 46  1  0
 45 44  1  0
 47 50  1  1
 47 48  1  0
 49 47  1  0
 51 52  1  0
 52 54  1  0
 54 55  1  1
 54 53  1  0
 56 54  1  0
 57 56  1  0
 58 57  1  0
 59 67  1  0
 60 65  1  0
 61 62  1  0
 61 60  1  0
 63 62  1  0
 63 71  1  0
 63 64  1  0
 65 59  1  0
 65 64  1  0
 66 59  2  0
 67 58  1  0
 67 96  1  0
 68 69  2  0
 69 88  1  0
 70 69  1  0
 70 73  1  0
 71 72  1  0
 71 68  1  0
 72 70  2  0
 73 74  1  0
 74 75  2  0
 76 79  1  0
 76 75  1  0
 77 76  2  0
 78 77  1  0
 78 73  2  0
 79 80  1  0
 80 81  1  0
 81 82  2  0
 83 82  1  0
 83 87  1  0
 84 83  2  0
 85 80  2  0
 85 84  1  0
 86 85  1  0
 88 89  1  0
 89 91  1  0
 89 92  1  0
 90 88  2  0
 93 68  1  0
 93 94  1  0
 95 93  1  0
 96 99  1  0
 97 99  1  0
 99 98  1  0
M  ISO  4   9 101  10 101  59 100  67 100
M  END
>  <TORSDO>  (17) 
F 27

>  <SCORE>  (17) 
-8.580

>  <name>  (17) 
17

>  <ligand_id>  (17) 
17

>  <original_smiles>  (17) 
[H]c1c([H])c([H])c2c(c1[H])C([H])([H])C([H])([H])C([H])([H])C2([H])N([H])C(=O)C1([H])N(C(=O)C([H])(N([H])C(=O)C([H])(N([H])C([H])([H])[H])C([H])([H])[H])C(C([H])([H])[H])(C([H])([H])[H])C([H])([H])[H])C([H])([H])c2c([H])c(OC([H])([H])C([H])([H])n3c([H])nc(C([H])([H])C([H])([H])C([H])([H])[N+]([H])(C([H])([H])[H])C([H])([H])C([H])([H])C([H])([H])N(C(=O)N4C([H])([H])C([H])([H])C([H])([H])C([H])(n5nc(-c6c([H])c([H])c(Oc7c([H])c([H])c(F)c([H])c7F)c([H])c6[H])c(C(=O)N([H])[H])c5N([H])[H])C4([H])[H])C([H])([H])C([H])(C([H])([H])[H])C([H])([H])[H])c3C([H])([H])[H])c([H])c([H])c2C1([H])[H]

>  <smiles>  (17) 
[H]c1c([H])c([H])c2c(c1[H])C([H])([H])C([H])([H])C([H])([H])C2([H])N([H])C(=O)C1([H])N(C(=O)C([H])(N([H])C(=O)C([H])(N([H])C([H])([H])[H])C([H])([H])[H])C(C([H])([H])[H])(C([H])([H])[H])C([H])([H])[H])C([H])([H])c2c([H])c(OC([H])([H])C([H])([H])n3c([H])nc(C([H])([H])C([H])([H])C([H])([H])[N+]([H])(C([H])([H])[H])C([H])([H])C([H])([H])C([H])([H])N(C(=O)N4C([H])([H])C([H])([H])C([H])([H])C([H])(n5nc(-c6c([H])c([H])c(Oc7c([H])c([H])c(F)c([H])c7F)c([H])c6[H])c(C(=O)N([H])[H])c5N([H])[H])C4([H])[H])C([H])([H])C([H])(C([H])([H])[H])C([H])([H])[H])c3C([H])([H])[H])c([H])c([H])c2C1([H])[H]

$$$$
18:0:0
     RDKit          3D

100108  0  0  1  0  0  0  0  0999 V2000
  -30.2880  -23.3800   18.8530 C   0  0  0  0  0  2  0  0  0  0  0  0
  -30.6960  -22.7050   20.1870 C   0  0  0  0  0  2  0  0  0  0  0  0
  -29.4790  -20.4820   20.5910 C   0  0  0  0  0  3  0  0  0  0  0  0
  -31.5320  -19.2520   19.2960 C   0  0  0  0  0  3  0  0  0  0  0  0
  -29.3880  -19.0870   20.3890 C   0  0  0  0  0  0  0  0  0  0  0  0
  -30.4360  -18.4280   19.6750 C   0  0  0  0  0  0  0  0  0  0  0  0
  -30.5930  -21.1890   20.1120 C   0  0  0  0  0  0  0  0  0  0  0  0
  -28.1510  -18.3840   20.9300 C   0  0  0  0  0  1  0  0  0  0  0  0
  -31.6170  -20.5760   19.5030 N   0  0  0  0  0  0  0  0  0  0  0  0
  -31.6040  -16.6140   18.2970 C   0  0  0  0  0  1  0  0  0  0  0  0
  -30.4120  -16.9160   19.2600 C   0  0  2  0  0  0  0  0  0  0  0  0
  -28.7090  -17.7280   17.4100 C   0  0  0  0  0  1  0  0  0  0  0  0
  -29.1610  -16.6140   18.3750 C   0  0  0  0  0  2  0  0  0  0  0  0
  -30.4260  -15.9660   20.5400 C   0  0  0  0  0  2  0  0  0  0  0  0
  -31.1090  -14.5720   20.4180 C   0  0  0  0  0  0  0  0  0  0  0  0
  -30.7760  -12.3660   19.4200 C   0  0  0  0  0  2  0  0  0  0  0  0
  -29.8970  -12.5630   18.1670 C   0  0  0  0  0  2  0  0  0  0  0  0
  -28.3990  -12.5020   18.5340 C   0  0  0  0  0  2  0  0  0  0  0  0
  -28.0340  -13.3730   19.7700 C   0  0  0  0  0  3  0  0  0  0  0  0
  -29.0530  -13.1920   20.9150 C   0  0  0  0  0  2  0  0  0  0  0  0
  -30.4000  -13.4150   20.3780 N   0  0  0  0  0  0  0  0  0  0  0  0
  -32.3200  -14.5810   20.1940 O   0  0  0  0  0  0  0  0  0  0  0  0
  -25.6290  -14.0490   20.3760 C   0  0  0  0  0  0  0  0  0  0  0  0
  -24.5290  -13.3120   20.7200 C   0  0  0  0  0  0  0  0  0  0  0  0
  -24.9610  -11.9490   20.7460 C   0  0  0  0  0  0  0  0  0  0  0  0
  -26.6620  -13.1400   20.2100 N   0  0  0  0  0  0  0  0  0  0  0  0
  -26.2610  -11.8740   20.4920 N   0  0  0  0  0  0  0  0  0  0  0  0
  -24.1990  -10.7100   20.9380 C   0  0  0  0  0  0  0  0  0  0  0  0
  -24.5690   -9.7600   21.9170 C   0  0  0  0  0  3  0  0  0  0  0  0
  -23.8100   -8.5850   22.0960 C   0  0  0  0  0  3  0  0  0  0  0  0
  -22.6650   -8.3500   21.2980 C   0  0  0  0  0  0  0  0  0  0  0  0
  -22.3130   -9.2880   20.3110 C   0  0  0  0  0  3  0  0  0  0  0  0
  -23.0730  -10.4550   20.1300 C   0  0  0  0  0  3  0  0  0  0  0  0
  -21.8790   -7.2270   21.3850 O   0  0  0  0  0  0  0  0  0  0  0  0
  -21.7590   -6.5230   22.5560 C   0  0  0  0  0  0  0  0  0  0  0  0
  -21.2900   -7.1270   23.7440 C   0  0  0  0  0  3  0  0  0  0  0  0
  -21.1170   -6.3490   24.9060 C   0  0  0  0  0  3  0  0  0  0  0  0
  -21.4000   -4.9700   24.8830 C   0  0  0  0  0  0  0  0  0  0  0  0
  -21.8650   -4.3690   23.7000 C   0  0  0  0  0  3  0  0  0  0  0  0
  -22.0400   -5.1420   22.5390 C   0  0  0  0  0  0  0  0  0  0  0  0
  -22.4660   -4.5520   21.3970 F   0  0  0  0  0  0  0  0  0  0  0  0
  -21.2260   -4.2220   25.9980 F   0  0  0  0  0  0  0  0  0  0  0  0
  -23.1330  -13.8280   20.9210 C   0  0  0  0  0  0  0  0  0  0  0  0
  -22.3530  -13.1810   21.7810 N   0  0  0  0  0  0  0  0  0  0  0  0
  -22.7390  -14.8440   20.3480 O   0  0  0  0  0  0  0  0  0  0  0  0
  -22.6800  -12.3670   22.2770 H   0  0  0  0  0  0  0  0  0  0  0  0
  -21.4140  -13.5140   21.9540 H   0  0  0  0  0  0  0  0  0  0  0  0
  -25.8280  -15.4110   20.1710 N   0  0  0  0  0  0  0  0  0  0  0  0
  -25.0680  -16.0800   20.2260 H   0  0  0  0  0  0  0  0  0  0  0  0
  -26.6990  -15.8190   19.8610 H   0  0  0  0  0  0  0  0  0  0  0  0
  -31.4430  -24.0590   18.0800 C   0  0  0  0  0  2  0  0  0  0  0  0
  -31.8610  -25.4400   18.6280 C   0  0  0  0  0  2  0  0  0  0  0  0
  -30.7710  -26.4580   18.5680 N   0  0  2  0  0  4  0  0  0  0  0  0
  -29.9410  -26.0130   18.9370 H   0  0  0  0  0  0  0  0  0  0  0  0
  -31.4700  -27.6020   16.3990 C   0  0  0  0  0  1  0  0  0  0  0  0
  -30.3670  -26.8820   17.1970 C   0  0  0  0  0  2  0  0  0  0  0  0
  -30.9770  -27.6080   19.4850 C   0  0  0  0  0  2  0  0  0  0  0  0
  -30.6810  -27.2690   20.9630 C   0  0  0  0  0  2  0  0  0  0  0  0
  -29.2710  -26.7080   21.2530 C   0  0  0  0  0  2  0  0  0  0  0  0
  -28.4190  -26.7210   20.1050 O   0  0  0  0  0  0  0  0  0  0  0  0
  -24.5320  -31.8660   23.1990 C   0  0  0  0  0  0  0  0  0  0  0  0
  -27.2650  -27.4720   20.1600 C   0  0  0  0  0  0  0  0  0  0  0  0
  -23.3540  -30.4520   21.5430 C   0  0  0  0  0  3  0  0  0  0  0  0
  -24.8410  -28.9240   20.1390 C   0  0  0  0  0  0  0  0  0  0  0  0
  -25.8720  -30.8420   21.3690 C   0  0  0  0  0  2  0  0  0  0  0  0
  -25.9810  -29.4660   20.7450 C   0  0  0  0  0  0  0  0  0  0  0  0
  -27.1940  -28.7480   20.7610 C   0  0  0  0  0  3  0  0  0  0  0  0
  -26.1140  -26.9380   19.5430 C   0  0  0  0  0  3  0  0  0  0  0  0
  -24.9000  -27.6530   19.5360 C   0  0  0  0  0  3  0  0  0  0  0  0
  -23.5850  -29.7660   20.1680 C   0  0  0  0  0  2  0  0  0  0  0  0
  -24.6030  -31.0670   22.0970 N   0  0  0  0  0  0  0  0  0  0  0  0
  -23.4440  -32.1330   23.7260 O   0  0  0  0  0  0  0  0  0  0  0  0
  -22.7000  -29.4300   22.4990 C   0  0  0  0  0  0  0  0  0  0  0  0
  -21.3770  -29.2460   22.3610 N   0  0  0  0  0  0  0  0  0  0  0  0
  -23.3790  -28.8050   23.3180 O   0  0  0  0  0  0  0  0  0  0  0  0
  -20.8910  -29.8000   21.6700 H   0  0  0  0  0  0  0  0  0  0  0  0
  -18.0000  -28.0700   22.8480 C   0  0  0  0  0  0  0  0  0  0  0  0
  -20.5580  -28.3060   23.1240 C   0  0  0  0  0  3  0  0  0  0  0  0
  -20.6510  -26.8810   22.5330 C   0  0  0  0  0  2  0  0  0  0  0  0
  -19.5450  -26.5760   21.5160 C   0  0  0  0  0  2  0  0  0  0  0  0
  -18.1650  -26.7260   22.1610 C   0  0  0  0  0  2  0  0  0  0  0  0
  -19.1220  -28.8200   23.2870 C   0  0  0  0  0  0  0  0  0  0  0  0
  -18.9130  -30.0810   23.8850 C   0  0  0  0  0  3  0  0  0  0  0  0
  -17.6110  -30.5890   24.0530 C   0  0  0  0  0  3  0  0  0  0  0  0
  -16.5020  -29.8360   23.6310 C   0  0  0  0  0  3  0  0  0  0  0  0
  -16.6970  -28.5790   23.0350 C   0  0  0  0  0  3  0  0  0  0  0  0
  -25.8090  -32.5030   23.8320 C   0  0  0  0  0  3  0  0  0  0  0  0
  -26.3260  -31.7290   25.1080 C   0  0  1  0  0  0  0  0  0  0  0  0
  -25.2260  -31.4760   26.1640 C   0  0  0  0  0  1  0  0  0  0  0  0
  -26.9280  -30.3620   24.7110 C   0  0  0  0  0  1  0  0  0  0  0  0
  -27.4640  -32.5330   25.7820 C   0  0  0  0  0  1  0  0  0  0  0  0
  -25.4880  -33.8970   24.1600 N   0  0  0  0  0  0  0  0  0  0  0  0
  -25.8310  -34.9520   23.4090 C   0  0  0  0  0  0  0  0  0  0  0  0
  -26.5180  -34.8550   22.3890 O   0  0  0  0  0  0  0  0  0  0  0  0
  -24.8650  -34.0470   24.9400 H   0  0  0  0  0  0  0  0  0  0  0  0
  -24.0990  -36.7370   23.0280 C   0  0  0  0  0  1  0  0  0  0  0  0
  -25.3290  -36.3380   23.8600 C   0  0  0  0  0  3  0  0  0  0  0  0
  -27.4440  -37.2280   24.7320 C   0  0  0  0  0  1  0  0  0  0  0  0
  -26.3580  -37.3960   23.7680 N   0  0  0  0  0  0  0  0  0  0  0  0
  -25.9470  -38.3140   23.9060 H   0  0  0  0  0  0  0  0  0  0  0  0
  1  2  1  0
  4  9  2  0
  4  6  1  0
  5  3  1  0
  5  8  1  0
  6  5  2  0
  7  2  1  0
  7  3  2  0
  9  7  1  0
 11 10  1  6
 11  6  1  0
 11 14  1  0
 12 13  1  0
 13 11  1  0
 15 14  1  0
 16 21  1  0
 17 18  1  0
 17 16  1  0
 19 18  1  0
 19 26  1  0
 19 20  1  0
 21 15  1  0
 21 20  1  0
 22 15  2  0
 23 24  2  0
 24 25  1  0
 24 43  1  0
 25 28  1  0
 26 23  1  0
 26 27  1  0
 27 25  2  0
 28 29  1  0
 29 30  2  0
 31 34  1  0
 31 30  1  0
 32 31  2  0
 33 32  1  0
 33 28  2  0
 34 35  1  0
 35 36  1  0
 36 37  2  0
 38 37  1  0
 38 42  1  0
 39 38  2  0
 40 35  2  0
 40 39  1  0
 41 40  1  0
 43 44  1  0
 44 47  1  0
 44 46  1  0
 45 43  2  0
 48 49  1  0
 48 23  1  0
 50 48  1  0
 51 52  1  0
 51  1  1  0
 53 52  1  0
 53 54  1  1
 53 57  1  0
 55 56  1  0
 56 53  1  0
 57 58  1  0
 58 59  1  0
 60 62  1  0
 60 59  1  0
 61 72  2  0
 62 67  1  0
 63 71  1  0
 63 73  1  0
 64 70  1  0
 64 66  1  0
 65 71  1  0
 66 67  2  0
 66 65  1  0
 68 62  2  0
 69 68  1  0
 69 64  2  0
 70 63  1  0
 71 61  1  0
 73 75  2  0
 74 73  1  0
 76 74  1  0
 77 86  2  0
 77 82  1  0
 78 74  1  0
 78 82  1  0
 79 78  1  0
 80 81  1  0
 80 79  1  0
 81 77  1  0
 82 83  2  0
 83 84  1  0
 85 84  2  0
 86 85  1  0
 87 61  1  0
 87 92  1  0
 87 88  1  0
 88 91  1  1
 88 89  1  0
 90 88  1  0
 92 95  1  0
 93 97  1  0
 93 92  1  0
 94 93  2  0
 97 96  1  0
 99 97  1  0
 99100  1  0
 99 98  1  0
M  ISO  4  14 100  15 100  59 101  60 101
M  END
>  <TORSDO>  (18) 
F 28

>  <SCORE>  (18) 
-10.595

>  <name>  (18) 
18

>  <ligand_id>  (18) 
18

>  <original_smiles>  (18) 
[H]c1nc(C([H])([H])C([H])([H])C([H])([H])C([H])([H])[N+]([H])(C([H])([H])C([H])([H])[H])C([H])([H])C([H])([H])C([H])([H])Oc2c([H])c([H])c3c(c2[H])C([H])([H])N(C(=O)C([H])(N([H])C(=O)C([H])(N([H])C([H])([H])[H])C([H])([H])[H])C(C([H])([H])[H])(C([H])([H])[H])C([H])([H])[H])C([H])(C(=O)N([H])C2([H])c4c([H])c([H])c([H])c([H])c4C([H])([H])C([H])([H])C2([H])[H])C3([H])[H])c([H])c(C([H])([H])[H])c1C(C([H])([H])[H])(C([H])([H])C(=O)N1C([H])([H])C([H])([H])C([H])([H])C([H])(n2nc(-c3c([H])c([H])c(Oc4c([H])c([H])c(F)c([H])c4F)c([H])c3[H])c(C(=O)N([H])[H])c2N([H])[H])C1([H])[H])C([H])([H])C([H])([H])[H]

>  <smiles>  (18) 
[H]c1nc(C([H])([H])C([H])([H])C([H])([H])C([H])([H])[N+]([H])(C([H])([H])C([H])([H])[H])C([H])([H])C([H])([H])C([H])([H])Oc2c([H])c([H])c3c(c2[H])C([H])([H])N(C(=O)C([H])(N([H])C(=O)C([H])(N([H])C([H])([H])[H])C([H])([H])[H])C(C([H])([H])[H])(C([H])([H])[H])C([H])([H])[H])C([H])(C(=O)N([H])C2([H])c4c([H])c([H])c([H])c([H])c4C([H])([H])C([H])([H])C2([H])[H])C3([H])[H])c([H])c(C([H])([H])[H])c1C(C([H])([H])[H])(C([H])([H])C(=O)N1C([H])([H])C([H])([H])C([H])([H])C([H])(n2nc(-c3c([H])c([H])c(Oc4c([H])c([H])c(F)c([H])c4F)c([H])c3[H])c(C(=O)N([H])[H])c2N([H])[H])C1([H])[H])C([H])([H])C([H])([H])[H]

$$$$
19:0:0
     RDKit          3D

 94102  0  0  1  0  0  0  0  0999 V2000
  -29.7860  -21.0450   23.0980 C   0  0  0  0  0  2  0  0  0  0  0  0
  -30.7040  -17.9920   24.8280 C   0  0  0  0  0  3  0  0  0  0  0  0
  -30.5720  -18.9980   25.8230 C   0  0  0  0  0  3  0  0  0  0  0  0
  -30.4170  -18.6320   23.6520 C   0  0  0  0  0  0  0  0  0  0  0  0
  -30.2250  -20.1670   25.3100 N   0  0  0  0  0  0  0  0  0  0  0  0
  -30.1390  -19.9470   23.9800 N   0  0  0  0  0  0  0  0  0  0  0  0
  -30.4100  -18.1490   22.2310 C   0  0  0  0  0  2  0  0  0  0  0  0
  -30.1980  -16.6370   22.0560 C   0  0  0  0  0  2  0  0  0  0  0  0
  -30.7590  -16.1210   20.7190 C   0  0  0  0  0  2  0  0  0  0  0  0
  -31.0880  -13.9750   19.5910 C   0  0  0  0  0  0  0  0  0  0  0  0
  -30.6010  -11.7990   18.5390 C   0  0  0  0  0  2  0  0  0  0  0  0
  -29.5760  -11.9000   17.3980 C   0  0  0  0  0  2  0  0  0  0  0  0
  -28.1440  -11.7970   17.9480 C   0  0  0  0  0  2  0  0  0  0  0  0
  -27.8920  -12.7750   19.1230 C   0  0  0  0  0  3  0  0  0  0  0  0
  -29.0160  -12.6710   20.1830 C   0  0  0  0  0  2  0  0  0  0  0  0
  -30.3240  -12.8540   19.5230 N   0  0  0  0  0  0  0  0  0  0  0  0
  -31.9130  -14.2920   18.7270 O   0  0  0  0  0  0  0  0  0  0  0  0
  -30.9850  -14.6680   20.7450 N   0  0  0  0  0  0  0  0  0  0  0  0
  -25.5620  -13.4820   19.9720 C   0  0  0  0  0  0  0  0  0  0  0  0
  -24.5060  -12.7570   20.4550 C   0  0  0  0  0  0  0  0  0  0  0  0
  -24.9290  -11.3920   20.4520 C   0  0  0  0  0  0  0  0  0  0  0  0
  -26.5680  -12.5630   19.7100 N   0  0  0  0  0  0  0  0  0  0  0  0
  -26.1910  -11.3030   20.0520 N   0  0  0  0  0  0  0  0  0  0  0  0
  -24.1880  -10.1620   20.7550 C   0  0  0  0  0  0  0  0  0  0  0  0
  -24.6110   -9.2760   21.7710 C   0  0  0  0  0  3  0  0  0  0  0  0
  -23.8710   -8.1070   22.0560 C   0  0  0  0  0  3  0  0  0  0  0  0
  -22.6960   -7.8150   21.3260 C   0  0  0  0  0  0  0  0  0  0  0  0
  -22.2920   -8.6870   20.3000 C   0  0  0  0  0  3  0  0  0  0  0  0
  -23.0310   -9.8470   20.0140 C   0  0  0  0  0  3  0  0  0  0  0  0
  -21.9290   -6.6910   21.5160 O   0  0  0  0  0  0  0  0  0  0  0  0
  -21.7810   -6.1210   22.7560 C   0  0  0  0  0  0  0  0  0  0  0  0
  -21.3090   -6.8590   23.8630 C   0  0  0  0  0  3  0  0  0  0  0  0
  -21.1050   -6.2180   25.1010 C   0  0  0  0  0  3  0  0  0  0  0  0
  -21.3640   -4.8410   25.2330 C   0  0  0  0  0  0  0  0  0  0  0  0
  -21.8280   -4.1030   24.1300 C   0  0  0  0  0  3  0  0  0  0  0  0
  -22.0350   -4.7420   22.8950 C   0  0  0  0  0  0  0  0  0  0  0  0
  -22.4620   -4.0210   21.8290 F   0  0  0  0  0  0  0  0  0  0  0  0
  -21.1610   -4.2230   26.4200 F   0  0  0  0  0  0  0  0  0  0  0  0
  -23.1440  -13.2830   20.8070 C   0  0  0  0  0  0  0  0  0  0  0  0
  -22.5090  -12.7110   21.8240 N   0  0  0  0  0  0  0  0  0  0  0  0
  -22.6550  -14.2440   20.2140 O   0  0  0  0  0  0  0  0  0  0  0  0
  -22.9180  -11.9360   22.3270 H   0  0  0  0  0  0  0  0  0  0  0  0
  -21.6010  -13.0520   22.1050 H   0  0  0  0  0  0  0  0  0  0  0  0
  -25.7460  -14.8370   19.7160 N   0  0  0  0  0  0  0  0  0  0  0  0
  -25.0100  -15.5220   19.8490 H   0  0  0  0  0  0  0  0  0  0  0  0
  -26.5850  -15.2340   19.3090 H   0  0  0  0  0  0  0  0  0  0  0  0
  -33.2310  -14.0250   21.6950 C   0  0  0  0  0  1  0  0  0  0  0  0
  -31.7140  -14.1660   21.9250 C   0  0  0  0  0  2  0  0  0  0  0  0
  -28.4150  -20.8330   22.4450 C   0  0  0  0  0  2  0  0  0  0  0  0
  -28.1810  -21.7070   21.2040 C   0  0  0  0  0  2  0  0  0  0  0  0
  -28.9070  -23.0630   21.2250 C   0  0  0  0  0  2  0  0  0  0  0  0
  -28.6540  -23.8430   19.9280 C   0  0  0  0  0  2  0  0  0  0  0  0
  -29.5470  -25.0860   19.7540 C   0  0  0  0  0  2  0  0  0  0  0  0
  -29.0570  -25.9340   18.7140 O   0  0  0  0  0  0  0  0  0  0  0  0
  -25.9720  -29.7010   23.9020 C   0  0  0  0  0  0  0  0  0  0  0  0
  -28.0020  -26.7210   19.0990 C   0  0  0  0  0  0  0  0  0  0  0  0
  -24.5810  -29.2660   21.9030 C   0  0  0  0  0  3  0  0  0  0  0  0
  -25.8140  -28.3180   19.8780 C   0  0  0  0  0  0  0  0  0  0  0  0
  -27.1270  -29.3840   21.7210 C   0  0  0  0  0  2  0  0  0  0  0  0
  -27.0300  -28.4090   20.5680 C   0  0  0  0  0  0  0  0  0  0  0  0
  -28.1270  -27.6070   20.1870 C   0  0  0  0  0  3  0  0  0  0  0  0
  -26.7800  -26.6550   18.3960 C   0  0  0  0  0  3  0  0  0  0  0  0
  -25.6800  -27.4350   18.7940 C   0  0  0  0  0  3  0  0  0  0  0  0
  -24.6900  -29.2090   20.3540 C   0  0  0  0  0  2  0  0  0  0  0  0
  -25.9120  -29.4360   22.5660 N   0  0  0  0  0  0  0  0  0  0  0  0
  -24.9400  -29.8430   24.5710 O   0  0  0  0  0  0  0  0  0  0  0  0
  -23.8130  -28.0150   22.3900 C   0  0  0  0  0  0  0  0  0  0  0  0
  -22.5340  -27.9080   21.9920 N   0  0  0  0  0  0  0  0  0  0  0  0
  -24.3700  -27.1570   23.0790 O   0  0  0  0  0  0  0  0  0  0  0  0
  -22.1530  -28.6570   21.4320 H   0  0  0  0  0  0  0  0  0  0  0  0
  -19.2620  -26.5500   21.2840 C   0  0  0  0  0  0  0  0  0  0  0  0
  -21.6270  -26.8010   22.2950 C   0  0  0  0  0  3  0  0  0  0  0  0
  -22.0000  -25.5400   21.4840 C   0  0  0  0  0  2  0  0  0  0  0  0
  -21.2330  -25.4250   20.1620 C   0  0  0  0  0  2  0  0  0  0  0  0
  -19.7230  -25.3890   20.4170 C   0  0  0  0  0  2  0  0  0  0  0  0
  -20.1610  -27.2220   22.1520 C   0  0  0  0  0  0  0  0  0  0  0  0
  -19.6910  -28.3160   22.9100 C   0  0  0  0  0  3  0  0  0  0  0  0
  -18.3520  -28.7390   22.8130 C   0  0  0  0  0  3  0  0  0  0  0  0
  -17.4630  -28.0580   21.9640 C   0  0  0  0  0  3  0  0  0  0  0  0
  -17.9160  -26.9640   21.2070 C   0  0  0  0  0  3  0  0  0  0  0  0
  -27.3340  -29.8580   24.6460 C   0  0  0  0  0  3  0  0  0  0  0  0
  -27.7720  -28.5580   25.4280 C   0  0  1  0  0  0  0  0  0  0  0  0
  -26.6700  -27.9900   26.3520 C   0  0  0  0  0  1  0  0  0  0  0  0
  -28.1850  -27.4440   24.4400 C   0  0  0  0  0  1  0  0  0  0  0  0
  -29.0170  -28.8630   26.2940 C   0  0  0  0  0  1  0  0  0  0  0  0
  -27.2080  -30.9980   25.5640 N   0  0  0  0  0  0  0  0  0  0  0  0
  -27.8610  -32.1590   25.4270 C   0  0  0  0  0  0  0  0  0  0  0  0
  -28.6990  -32.3570   24.5420 O   0  0  0  0  0  0  0  0  0  0  0  0
  -26.4980  -30.9260   26.2780 H   0  0  0  0  0  0  0  0  0  0  0  0
  -26.6820  -34.3560   25.7360 C   0  0  0  0  0  1  0  0  0  0  0  0
  -27.5310  -33.2800   26.4300 C   0  0  0  0  0  3  0  0  0  0  0  0
  -29.4520  -33.0020   27.9320 C   0  0  0  0  0  1  0  0  0  0  0  0
  -28.7320  -33.8990   27.0330 N   0  0  0  0  0  0  0  0  0  0  0  0
  -28.4840  -34.7370   27.5530 H   0  0  0  0  0  0  0  0  0  0  0  0
  1  6  1  0
  2  3  1  0
  4  6  1  0
  4  2  2  0
  5  3  2  0
  6  5  1  0
  7  4  1  0
  8  7  1  0
  9 18  1  0
  9  8  1  0
 10 18  1  0
 11 16  1  0
 12 13  1  0
 12 11  1  0
 14 13  1  0
 14 22  1  0
 14 15  1  0
 16 10  1  0
 16 15  1  0
 17 10  2  0
 18 48  1  0
 19 20  2  0
 20 39  1  0
 21 20  1  0
 21 24  1  0
 22 19  1  0
 22 23  1  0
 23 21  2  0
 24 25  1  0
 25 26  2  0
 27 30  1  0
 27 26  1  0
 28 27  2  0
 29 28  1  0
 29 24  2  0
 30 31  1  0
 31 36  2  0
 31 32  1  0
 32 33  2  0
 33 34  1  0
 34 38  1  0
 35 34  2  0
 36 35  1  0
 37 36  1  0
 39 40  1  0
 40 43  1  0
 40 42  1  0
 41 39  2  0
 44 45  1  0
 44 19  1  0
 46 44  1  0
 47 48  1  0
 49  1  1  0
 50 51  1  0
 50 49  1  0
 52 51  1  0
 53 52  1  0
 54 56  1  0
 54 53  1  0
 55 66  2  0
 56 61  1  0
 57 67  1  0
 57 65  1  0
 58 64  1  0
 58 60  1  0
 59 65  1  0
 60 59  1  0
 61 60  2  0
 62 63  1  0
 62 56  2  0
 63 58  2  0
 64 57  1  0
 65 55  1  0
 67 69  2  0
 68 67  1  0
 70 68  1  0
 71 76  1  0
 72 68  1  0
 73 72  1  0
 74 75  1  0
 74 73  1  0
 75 71  1  0
 76 72  1  0
 76 77  2  0
 78 77  1  0
 79 78  2  0
 80 71  2  0
 80 79  1  0
 81 55  1  0
 81 82  1  0
 81 86  1  0
 82 85  1  1
 82 83  1  0
 84 82  1  0
 86 89  1  0
 87 86  1  0
 87 91  1  0
 88 87  2  0
 91 90  1  0
 91 93  1  0
 93 94  1  0
 93 92  1  0
M  ISO  4  10 100  18 100  53 101  54 101
M  END
>  <TORSDO>  (19) 
F 26

>  <SCORE>  (19) 
0.639

>  <name>  (19) 
19

>  <ligand_id>  (19) 
19

>  <original_smiles>  (19) 
[H]c1nn(C([H])([H])C([H])([H])C([H])([H])C([H])([H])C([H])([H])C([H])([H])Oc2c([H])c([H])c3c(c2[H])C([H])([H])N(C(=O)C([H])(N([H])C(=O)C([H])(N([H])C([H])([H])[H])C([H])([H])[H])C(C([H])([H])[H])(C([H])([H])[H])C([H])([H])[H])C([H])(C(=O)N([H])C2([H])c4c([H])c([H])c([H])c([H])c4C([H])([H])C([H])([H])C2([H])[H])C3([H])[H])c(C([H])([H])C([H])([H])C([H])([H])N(C(=O)N2C([H])([H])C([H])([H])C([H])([H])C([H])(n3nc(-c4c([H])c([H])c(Oc5c([H])c([H])c(F)c([H])c5F)c([H])c4[H])c(C(=O)N([H])[H])c3N([H])[H])C2([H])[H])C([H])([H])C([H])([H])[H])c1[H]

>  <smiles>  (19) 
[H]c1nn(C([H])([H])C([H])([H])C([H])([H])C([H])([H])C([H])([H])C([H])([H])Oc2c([H])c([H])c3c(c2[H])C([H])([H])N(C(=O)C([H])(N([H])C(=O)C([H])(N([H])C([H])([H])[H])C([H])([H])[H])C(C([H])([H])[H])(C([H])([H])[H])C([H])([H])[H])C([H])(C(=O)N([H])C2([H])c4c([H])c([H])c([H])c([H])c4C([H])([H])C([H])([H])C2([H])[H])C3([H])[H])c(C([H])([H])C([H])([H])C([H])([H])N(C(=O)N2C([H])([H])C([H])([H])C([H])([H])C([H])(n3nc(-c4c([H])c([H])c(Oc5c([H])c([H])c(F)c([H])c5F)c([H])c4[H])c(C(=O)N([H])[H])c3N([H])[H])C2([H])[H])C([H])([H])C([H])([H])[H])c1[H]

$$$$
20:0:0
     RDKit          3D

 96104  0  0  1  0  0  0  0  0999 V2000
  -30.9000  -19.2390   22.6350 C   0  0  0  0  0  2  0  0  0  0  0  0
  -29.8240  -15.9820   21.9600 C   0  0  0  0  0  3  0  0  0  0  0  0
  -31.2160  -15.6840   21.9770 C   0  0  0  0  0  0  0  0  0  0  0  0
  -31.8170  -16.9050   22.1270 C   0  0  0  0  0  0  0  0  0  0  0  0
  -33.2660  -17.2680   22.2200 C   0  0  0  0  0  1  0  0  0  0  0  0
  -29.5830  -17.2680   22.1410 N   0  0  0  0  0  0  0  0  0  0  0  0
  -30.8050  -17.8370   22.2590 N   0  0  0  0  0  0  0  0  0  0  0  0
  -31.8560  -14.3240   21.9080 C   0  0  0  0  0  2  0  0  0  0  0  0
  -31.2240  -13.3830   20.8660 C   0  0  0  0  0  2  0  0  0  0  0  0
  -30.4100  -14.0930   18.5610 C   0  0  0  0  0  0  0  0  0  0  0  0
  -29.5130  -12.1500   17.3930 C   0  0  0  0  0  2  0  0  0  0  0  0
  -28.2360  -12.2970   16.5610 C   0  0  0  0  0  2  0  0  0  0  0  0
  -27.0020  -12.0770   17.4440 C   0  0  0  0  0  2  0  0  0  0  0  0
  -27.0170  -12.9850   18.6960 C   0  0  0  0  0  3  0  0  0  0  0  0
  -28.3640  -12.9110   19.4420 C   0  0  0  0  0  2  0  0  0  0  0  0
  -29.4990  -13.0920   18.5180 N   0  0  0  0  0  0  0  0  0  0  0  0
  -30.6960  -14.7580   17.5560 O   0  0  0  0  0  0  0  0  0  0  0  0
  -31.3970  -13.8280   19.4660 N   0  0  0  0  0  0  0  0  0  0  0  0
  -25.0150  -13.5320   20.2230 C   0  0  0  0  0  0  0  0  0  0  0  0
  -24.1040  -12.7330   20.8620 C   0  0  0  0  0  0  0  0  0  0  0  0
  -24.4820  -11.3870   20.5640 C   0  0  0  0  0  0  0  0  0  0  0  0
  -25.8940  -12.6720   19.5820 N   0  0  0  0  0  0  0  0  0  0  0  0
  -25.5960  -11.3710   19.8410 N   0  0  0  0  0  0  0  0  0  0  0  0
  -23.8150  -10.1150   20.8800 C   0  0  0  0  0  0  0  0  0  0  0  0
  -24.4020   -9.1690   21.7500 C   0  0  0  0  0  3  0  0  0  0  0  0
  -23.7340   -7.9630   22.0520 C   0  0  0  0  0  3  0  0  0  0  0  0
  -22.4650   -7.6940   21.4870 C   0  0  0  0  0  0  0  0  0  0  0  0
  -21.8960   -8.6280   20.6050 C   0  0  0  0  0  3  0  0  0  0  0  0
  -22.5630   -9.8260   20.3010 C   0  0  0  0  0  3  0  0  0  0  0  0
  -21.7530   -6.5370   21.7030 O   0  0  0  0  0  0  0  0  0  0  0  0
  -21.7220   -5.9310   22.9330 C   0  0  0  0  0  0  0  0  0  0  0  0
  -21.3210   -6.6250   24.0950 C   0  0  0  0  0  3  0  0  0  0  0  0
  -21.2350   -5.9450   25.3270 C   0  0  0  0  0  3  0  0  0  0  0  0
  -21.5410   -4.5730   25.3980 C   0  0  0  0  0  0  0  0  0  0  0  0
  -21.9340   -3.8790   24.2400 C   0  0  0  0  0  3  0  0  0  0  0  0
  -22.0210   -4.5560   23.0110 C   0  0  0  0  0  0  0  0  0  0  0  0
  -22.3810   -3.8780   21.8950 F   0  0  0  0  0  0  0  0  0  0  0  0
  -21.4510   -3.9170   26.5790 F   0  0  0  0  0  0  0  0  0  0  0  0
  -22.8930  -13.1870   21.6230 C   0  0  0  0  0  0  0  0  0  0  0  0
  -22.5120  -12.4550   22.6650 N   0  0  0  0  0  0  0  0  0  0  0  0
  -22.3050  -14.2260   21.3280 O   0  0  0  0  0  0  0  0  0  0  0  0
  -23.0070  -11.6130   22.9180 H   0  0  0  0  0  0  0  0  0  0  0  0
  -21.7130  -12.7400   23.2140 H   0  0  0  0  0  0  0  0  0  0  0  0
  -25.1600  -14.9110   20.1170 N   0  0  0  0  0  0  0  0  0  0  0  0
  -24.5030  -15.5610   20.5350 H   0  0  0  0  0  0  0  0  0  0  0  0
  -25.8790  -15.3690   19.5690 H   0  0  0  0  0  0  0  0  0  0  0  0
  -32.8200  -13.9010   19.0800 C   0  0  0  0  0  2  0  0  0  0  0  0
  -33.4600  -12.6570   16.9150 C   0  0  0  0  0  1  0  0  0  0  0  0
  -33.3160  -12.5860   18.4400 C   0  0  0  0  0  2  0  0  0  0  0  0
  -30.5540  -20.2220   21.5040 C   0  0  0  0  0  2  0  0  0  0  0  0
  -30.5860  -21.6670   22.0210 C   0  0  0  0  0  2  0  0  0  0  0  0
  -30.4620  -22.7180   20.9120 C   0  0  0  0  0  2  0  0  0  0  0  0
  -30.1550  -24.1060   21.4900 C   0  0  0  0  0  2  0  0  0  0  0  0
  -29.8590  -25.1560   20.4130 C   0  0  0  0  0  2  0  0  0  0  0  0
  -29.3630  -26.4730   21.0200 C   0  0  0  0  0  2  0  0  0  0  0  0
  -29.0320  -27.3390   19.9460 O   0  0  0  0  0  0  0  0  0  0  0  0
  -24.8090  -31.8290   23.5110 C   0  0  0  0  0  0  0  0  0  0  0  0
  -27.8090  -27.9380   20.0700 C   0  0  0  0  0  0  0  0  0  0  0  0
  -23.7160  -30.4600   21.7610 C   0  0  0  0  0  3  0  0  0  0  0  0
  -25.2900  -29.1810   20.2130 C   0  0  0  0  0  0  0  0  0  0  0  0
  -26.1900  -31.0670   21.5860 C   0  0  0  0  0  2  0  0  0  0  0  0
  -26.3960  -29.7640   20.8460 C   0  0  0  0  0  0  0  0  0  0  0  0
  -27.6610  -29.1440   20.7840 C   0  0  0  0  0  3  0  0  0  0  0  0
  -26.6940  -27.3550   19.4380 C   0  0  0  0  0  3  0  0  0  0  0  0
  -25.4300  -27.9690   19.5120 C   0  0  0  0  0  3  0  0  0  0  0  0
  -23.9740  -29.9170   20.3280 C   0  0  0  0  0  2  0  0  0  0  0  0
  -24.9230  -31.1290   22.3460 N   0  0  0  0  0  0  0  0  0  0  0  0
  -23.7120  -31.9580   24.0710 O   0  0  0  0  0  0  0  0  0  0  0  0
  -23.1700  -29.3090   22.6350 C   0  0  0  0  0  0  0  0  0  0  0  0
  -21.8780  -28.9900   22.4580 N   0  0  0  0  0  0  0  0  0  0  0  0
  -23.9060  -28.7120   23.4270 O   0  0  0  0  0  0  0  0  0  0  0  0
  -21.3450  -29.5350   21.7950 H   0  0  0  0  0  0  0  0  0  0  0  0
  -18.6520  -27.3920   22.7660 C   0  0  0  0  0  0  0  0  0  0  0  0
  -21.1560  -27.9170   23.1400 C   0  0  0  0  0  3  0  0  0  0  0  0
  -21.4370  -26.5470   22.4800 C   0  0  0  0  0  2  0  0  0  0  0  0
  -20.4070  -26.1690   21.4110 C   0  0  0  0  0  2  0  0  0  0  0  0
  -19.0010  -26.1170   22.0170 C   0  0  0  0  0  2  0  0  0  0  0  0
  -19.6650  -28.2460   23.2800 C   0  0  0  0  0  0  0  0  0  0  0  0
  -19.2880  -29.4370   23.9390 C   0  0  0  0  0  3  0  0  0  0  0  0
  -17.9310  -29.7790   24.0880 C   0  0  0  0  0  3  0  0  0  0  0  0
  -16.9320  -28.9220   23.5930 C   0  0  0  0  0  3  0  0  0  0  0  0
  -17.2940  -27.7300   22.9370 C   0  0  0  0  0  3  0  0  0  0  0  0
  -26.0420  -32.5180   24.1770 C   0  0  0  0  0  3  0  0  0  0  0  0
  -26.5470  -31.7700   25.4720 C   0  0  1  0  0  0  0  0  0  0  0  0
  -25.4150  -31.4130   26.4630 C   0  0  0  0  0  1  0  0  0  0  0  0
  -27.2770  -30.4610   25.0920 C   0  0  0  0  0  1  0  0  0  0  0  0
  -27.5790  -32.6500   26.2180 C   0  0  0  0  0  1  0  0  0  0  0  0
  -25.6610  -33.9000   24.4890 N   0  0  0  0  0  0  0  0  0  0  0  0
  -25.9970  -34.9670   23.7500 C   0  0  0  0  0  0  0  0  0  0  0  0
  -26.7330  -34.8910   22.7620 O   0  0  0  0  0  0  0  0  0  0  0  0
  -25.0150  -34.0310   25.2540 H   0  0  0  0  0  0  0  0  0  0  0  0
  -24.2280  -36.6900   23.2810 C   0  0  0  0  0  1  0  0  0  0  0  0
  -25.4280  -36.3340   24.1720 C   0  0  0  0  0  3  0  0  0  0  0  0
  -27.4850  -37.2780   25.1220 C   0  0  0  0  0  1  0  0  0  0  0  0
  -26.4240  -37.4240   24.1290 N   0  0  0  0  0  0  0  0  0  0  0  0
  -25.9770  -38.3240   24.2770 H   0  0  0  0  0  0  0  0  0  0  0  0
  2  3  1  0
  2  6  2  0
  3  4  2  0
  4  5  1  0
  4  7  1  0
  6  7  1  0
  7  1  1  0
  8  3  1  0
  9  8  1  0
 10 18  1  0
 11 16  1  0
 12 11  1  0
 12 13  1  0
 14 13  1  0
 14 15  1  0
 14 22  1  0
 16 10  1  0
 16 15  1  0
 17 10  2  0
 18  9  1  0
 19 20  2  0
 20 39  1  0
 21 20  1  0
 21 24  1  0
 22 23  1  0
 22 19  1  0
 23 21  2  0
 24 25  1  0
 25 26  2  0
 27 30  1  0
 27 26  1  0
 28 27  2  0
 29 28  1  0
 29 24  2  0
 30 31  1  0
 31 36  2  0
 31 32  1  0
 32 33  2  0
 33 34  1  0
 34 38  1  0
 35 34  2  0
 36 35  1  0
 37 36  1  0
 39 40  1  0
 40 42  1  0
 40 43  1  0
 41 39  2  0
 44 19  1  0
 44 45  1  0
 46 44  1  0
 47 18  1  0
 48 49  1  0
 49 47  1  0
 50 51  1  0
 50  1  1  0
 52 53  1  0
 52 51  1  0
 54 55  1  0
 54 53  1  0
 56 58  1  0
 56 55  1  0
 57 68  2  0
 58 63  1  0
 59 67  1  0
 59 69  1  0
 60 66  1  0
 60 62  1  0
 61 67  1  0
 62 61  1  0
 63 62  2  0
 64 65  1  0
 64 58  2  0
 65 60  2  0
 66 59  1  0
 67 57  1  0
 69 71  2  0
 70 69  1  0
 72 70  1  0
 73 82  2  0
 73 78  1  0
 74 70  1  0
 74 78  1  0
 75 74  1  0
 76 77  1  0
 76 75  1  0
 77 73  1  0
 78 79  2  0
 79 80  1  0
 81 80  2  0
 82 81  1  0
 83 57  1  0
 83 88  1  0
 83 84  1  0
 84 87  1  1
 84 85  1  0
 86 84  1  0
 88 91  1  0
 89 93  1  0
 89 88  1  0
 90 89  2  0
 93 92  1  0
 95 93  1  0
 95 96  1  0
 95 94  1  0
M  ISO  4  10 100  18 100  55 101  56 101
M  END
>  <TORSDO>  (20) 
F 27

>  <SCORE>  (20) 
-0.520

>  <name>  (20) 
20

>  <ligand_id>  (20) 
20

>  <original_smiles>  (20) 
[H]c1nn(C([H])([H])C([H])([H])C([H])([H])C([H])([H])C([H])([H])C([H])([H])C([H])([H])Oc2c([H])c([H])c3c(c2[H])C([H])([H])N(C(=O)C([H])(N([H])C(=O)C([H])(N([H])C([H])([H])[H])C([H])([H])[H])C(C([H])([H])[H])(C([H])([H])[H])C([H])([H])[H])C([H])(C(=O)N([H])C2([H])c4c([H])c([H])c([H])c([H])c4C([H])([H])C([H])([H])C2([H])[H])C3([H])[H])c(C([H])([H])[H])c1C([H])([H])C([H])([H])N(C(=O)N1C([H])([H])C([H])([H])C([H])([H])C([H])(n2nc(-c3c([H])c([H])c(Oc4c([H])c([H])c(F)c([H])c4F)c([H])c3[H])c(C(=O)N([H])[H])c2N([H])[H])C1([H])[H])C([H])([H])C([H])([H])C([H])([H])[H]

>  <smiles>  (20) 
[H]c1nn(C([H])([H])C([H])([H])C([H])([H])C([H])([H])C([H])([H])C([H])([H])C([H])([H])Oc2c([H])c([H])c3c(c2[H])C([H])([H])N(C(=O)C([H])(N([H])C(=O)C([H])(N([H])C([H])([H])[H])C([H])([H])[H])C(C([H])([H])[H])(C([H])([H])[H])C([H])([H])[H])C([H])(C(=O)N([H])C2([H])c4c([H])c([H])c([H])c([H])c4C([H])([H])C([H])([H])C2([H])[H])C3([H])[H])c(C([H])([H])[H])c1C([H])([H])C([H])([H])N(C(=O)N1C([H])([H])C([H])([H])C([H])([H])C([H])(n2nc(-c3c([H])c([H])c(Oc4c([H])c([H])c(F)c([H])c4F)c([H])c3[H])c(C(=O)N([H])[H])c2N([H])[H])C1([H])[H])C([H])([H])C([H])([H])C([H])([H])[H]

$$$$
21:0:0
     RDKit          3D

 92100  0  0  1  0  0  0  0  0999 V2000
  -31.5900  -20.6520   19.7800 C   0  0  0  0  0  3  0  0  0  0  0  0
  -30.2490  -20.9510   21.4840 C   0  0  0  0  0  3  0  0  0  0  0  0
  -31.2630  -20.1270   21.0640 C   0  0  0  0  0  0  0  0  0  0  0  0
  -30.8460  -21.6980   19.4430 N   0  0  0  0  0  0  0  0  0  0  0  0
  -30.0110  -21.8830   20.4880 N   0  0  0  0  0  0  0  0  0  0  0  0
  -31.9200  -18.9560   21.7780 C   0  0  0  0  0  2  0  0  0  0  0  0
  -31.7180  -17.5810   21.0940 C   0  0  0  0  0  2  0  0  0  0  0  0
  -30.7500  -16.6240   21.8420 C   0  0  0  0  0  2  0  0  0  0  0  0
  -30.6490  -14.5680   20.4590 C   0  0  0  0  0  0  0  0  0  0  0  0
  -30.3120  -12.3980   19.3170 C   0  0  0  0  0  2  0  0  0  0  0  0
  -29.3620  -12.5680   18.1180 C   0  0  0  0  0  2  0  0  0  0  0  0
  -27.8970  -12.3760   18.5620 C   0  0  0  0  0  2  0  0  0  0  0  0
  -27.5430  -13.2190   19.8110 C   0  0  0  0  0  3  0  0  0  0  0  0
  -28.6250  -13.0870   20.9150 C   0  0  0  0  0  2  0  0  0  0  0  0
  -29.9330  -13.4100   20.3200 N   0  0  0  0  0  0  0  0  0  0  0  0
  -31.8220  -14.6430   20.0830 O   0  0  0  0  0  0  0  0  0  0  0  0
  -30.0310  -15.6780   20.9660 N   0  0  0  0  0  0  0  0  0  0  0  0
  -25.1630  -13.8360   20.5540 C   0  0  0  0  0  0  0  0  0  0  0  0
  -24.1030  -13.0630   20.9360 C   0  0  0  0  0  0  0  0  0  0  0  0
  -24.5710  -11.7140   20.9040 C   0  0  0  0  0  0  0  0  0  0  0  0
  -26.2070  -12.9520   20.3160 N   0  0  0  0  0  0  0  0  0  0  0  0
  -25.8590  -11.6740   20.5930 N   0  0  0  0  0  0  0  0  0  0  0  0
  -23.8550  -10.4510   21.0950 C   0  0  0  0  0  0  0  0  0  0  0  0
  -24.3130   -9.4760   22.0090 C   0  0  0  0  0  3  0  0  0  0  0  0
  -23.5980   -8.2740   22.1890 C   0  0  0  0  0  3  0  0  0  0  0  0
  -22.4130   -8.0390   21.4510 C   0  0  0  0  0  0  0  0  0  0  0  0
  -21.9760   -9.0000   20.5230 C   0  0  0  0  0  3  0  0  0  0  0  0
  -22.6930  -10.1950   20.3420 C   0  0  0  0  0  3  0  0  0  0  0  0
  -21.6660   -6.8910   21.5430 O   0  0  0  0  0  0  0  0  0  0  0  0
  -21.6540   -6.1280   22.6830 C   0  0  0  0  0  0  0  0  0  0  0  0
  -21.2750   -6.6620   23.9330 C   0  0  0  0  0  3  0  0  0  0  0  0
  -21.2120   -5.8270   25.0670 C   0  0  0  0  0  3  0  0  0  0  0  0
  -21.5180   -4.4590   24.9500 C   0  0  0  0  0  0  0  0  0  0  0  0
  -21.8930   -3.9230   23.7050 C   0  0  0  0  0  3  0  0  0  0  0  0
  -21.9580   -4.7560   22.5740 C   0  0  0  0  0  0  0  0  0  0  0  0
  -22.2980   -4.2310   21.3720 F   0  0  0  0  0  0  0  0  0  0  0  0
  -21.4490   -3.6530   26.0350 F   0  0  0  0  0  0  0  0  0  0  0  0
  -22.7060  -13.5330   21.2160 C   0  0  0  0  0  0  0  0  0  0  0  0
  -21.9890  -12.8310   22.0850 N   0  0  0  0  0  0  0  0  0  0  0  0
  -22.2570  -14.5570   20.7000 O   0  0  0  0  0  0  0  0  0  0  0  0
  -22.3630  -11.9990   22.5160 H   0  0  0  0  0  0  0  0  0  0  0  0
  -21.0540  -13.1280   22.3250 H   0  0  0  0  0  0  0  0  0  0  0  0
  -25.3140  -15.2070   20.3660 N   0  0  0  0  0  0  0  0  0  0  0  0
  -24.5410  -15.8540   20.4850 H   0  0  0  0  0  0  0  0  0  0  0  0
  -26.1540  -15.6540   20.0270 H   0  0  0  0  0  0  0  0  0  0  0  0
  -28.7830  -16.2060   20.3660 C   0  0  0  0  0  2  0  0  0  0  0  0
  -27.2050  -18.0900   19.6760 C   0  0  0  0  0  1  0  0  0  0  0  0
  -28.5850  -17.7370   20.2430 C   0  0  0  0  0  2  0  0  0  0  0  0
  -28.9430  -22.8740   20.3920 C   0  0  0  0  0  2  0  0  0  0  0  0
  -29.3840  -24.3630   20.3960 C   0  0  0  0  0  2  0  0  0  0  0  0
  -28.1980  -25.2590   19.9750 C   0  0  0  0  0  2  0  0  0  0  0  0
  -28.3620  -26.6780   20.1640 O   0  0  0  0  0  0  0  0  0  0  0  0
  -24.5880  -31.8930   23.2290 C   0  0  0  0  0  0  0  0  0  0  0  0
  -27.1970  -27.4320   20.1330 C   0  0  0  0  0  0  0  0  0  0  0  0
  -23.3680  -30.5000   21.5910 C   0  0  0  0  0  3  0  0  0  0  0  0
  -24.8080  -28.9620   20.1580 C   0  0  0  0  0  0  0  0  0  0  0  0
  -25.8960  -30.8470   21.3800 C   0  0  0  0  0  2  0  0  0  0  0  0
  -25.9740  -29.4760   20.7390 C   0  0  0  0  0  0  0  0  0  0  0  0
  -27.1710  -28.7200   20.7210 C   0  0  0  0  0  3  0  0  0  0  0  0
  -26.0050  -26.9450   19.5410 C   0  0  0  0  0  3  0  0  0  0  0  0
  -24.8180  -27.6960   19.5590 C   0  0  0  0  0  3  0  0  0  0  0  0
  -23.5690  -29.8250   20.2090 C   0  0  0  0  0  2  0  0  0  0  0  0
  -24.6360  -31.0940   22.1260 N   0  0  0  0  0  0  0  0  0  0  0  0
  -23.5100  -32.1690   23.7740 O   0  0  0  0  0  0  0  0  0  0  0  0
  -22.7140  -29.4780   22.5510 C   0  0  0  0  0  0  0  0  0  0  0  0
  -21.3880  -29.3050   22.4310 N   0  0  0  0  0  0  0  0  0  0  0  0
  -23.3980  -28.8460   23.3610 O   0  0  0  0  0  0  0  0  0  0  0  0
  -20.8980  -29.8720   21.7530 H   0  0  0  0  0  0  0  0  0  0  0  0
  -18.0090  -28.1310   22.9360 C   0  0  0  0  0  0  0  0  0  0  0  0
  -20.5680  -28.3710   23.2010 C   0  0  0  0  0  3  0  0  0  0  0  0
  -20.6580  -26.9390   22.6230 C   0  0  0  0  0  2  0  0  0  0  0  0
  -19.5520  -26.6250   21.6120 C   0  0  0  0  0  2  0  0  0  0  0  0
  -18.1730  -26.7790   22.2590 C   0  0  0  0  0  2  0  0  0  0  0  0
  -19.1330  -28.8850   23.3630 C   0  0  0  0  0  0  0  0  0  0  0  0
  -18.9240  -30.1490   23.9540 C   0  0  0  0  0  3  0  0  0  0  0  0
  -17.6230  -30.6600   24.1210 C   0  0  0  0  0  3  0  0  0  0  0  0
  -16.5120  -29.9030   23.7100 C   0  0  0  0  0  3  0  0  0  0  0  0
  -16.7060  -28.6390   23.1230 C   0  0  0  0  0  3  0  0  0  0  0  0
  -25.8780  -32.5160   23.8450 C   0  0  0  0  0  3  0  0  0  0  0  0
  -25.5760  -33.9120   24.1860 N   0  0  0  0  0  0  0  0  0  0  0  0
  -25.9060  -34.9670   23.4280 C   0  0  0  0  0  0  0  0  0  0  0  0
  -26.5660  -34.8660   22.3910 O   0  0  0  0  0  0  0  0  0  0  0  0
  -24.9880  -34.0640   24.9920 H   0  0  0  0  0  0  0  0  0  0  0  0
  -24.1760  -36.7620   23.0970 C   0  0  0  0  0  1  0  0  0  0  0  0
  -25.4250  -36.3540   23.8960 C   0  0  0  0  0  3  0  0  0  0  0  0
  -27.5710  -37.2280   24.7070 C   0  0  0  0  0  1  0  0  0  0  0  0
  -26.4580  -37.4050   23.7780 N   0  0  0  0  0  0  0  0  0  0  0  0
  -26.0570  -38.3250   23.9360 H   0  0  0  0  0  0  0  0  0  0  0  0
  -26.4050  -31.7320   25.1090 C   0  0  1  0  0  0  0  0  0  0  0  0
  -25.3210  -31.4880   26.1860 C   0  0  0  0  0  1  0  0  0  0  0  0
  -26.9780  -30.3570   24.6960 C   0  0  0  0  0  1  0  0  0  0  0  0
  -27.5640  -32.5160   25.7660 C   0  0  0  0  0  1  0  0  0  0  0  0
  1  3  1  0
  3  2  2  0
  3  6  1  0
  4  1  2  0
  4  5  1  0
  5  2  1  0
  7  6  1  0
  7  8  1  0
  9 17  1  0
 10 15  1  0
 11 12  1  0
 11 10  1  0
 13 12  1  0
 13 21  1  0
 13 14  1  0
 15  9  1  0
 15 14  1  0
 16  9  2  0
 17  8  1  0
 18 19  2  0
 19 38  1  0
 20 19  1  0
 20 23  1  0
 21 18  1  0
 21 22  1  0
 22 20  2  0
 23 24  1  0
 24 25  2  0
 26 29  1  0
 26 25  1  0
 27 26  2  0
 28 27  1  0
 28 23  2  0
 29 30  1  0
 30 31  1  0
 31 32  2  0
 33 32  1  0
 33 37  1  0
 34 33  2  0
 35 30  2  0
 35 34  1  0
 36 35  1  0
 38 39  1  0
 39 42  1  0
 39 41  1  0
 40 38  2  0
 43 44  1  0
 43 18  1  0
 45 43  1  0
 46 17  1  0
 47 48  1  0
 48 46  1  0
 49 50  1  0
 49  5  1  0
 51 52  1  0
 51 50  1  0
 53 64  2  0
 54 52  1  0
 54 59  1  0
 55 63  1  0
 55 65  1  0
 56 62  1  0
 56 58  1  0
 57 63  1  0
 58 57  1  0
 59 58  2  0
 60 61  1  0
 60 54  2  0
 61 56  2  0
 62 55  1  0
 63 53  1  0
 65 67  2  0
 66 65  1  0
 68 66  1  0
 69 78  2  0
 69 74  1  0
 70 66  1  0
 70 74  1  0
 71 70  1  0
 72 73  1  0
 72 71  1  0
 73 69  1  0
 74 75  2  0
 75 76  1  0
 77 76  2  0
 78 77  1  0
 79 53  1  0
 79 80  1  0
 79 89  1  0
 80 83  1  0
 81 85  1  0
 81 80  1  0
 82 81  2  0
 85 84  1  0
 87 85  1  0
 87 88  1  0
 87 86  1  0
 89 92  1  1
 89 90  1  0
 91 89  1  0
M  ISO  4   9 100  17 100  51 101  52 101
M  END
>  <TORSDO>  (21) 
F 24

>  <SCORE>  (21) 
-12.996

>  <name>  (21) 
21

>  <ligand_id>  (21) 
21

>  <original_smiles>  (21) 
[H]c1nn(C([H])([H])C([H])([H])C([H])([H])Oc2c([H])c([H])c3c(c2[H])C([H])([H])N(C(=O)C([H])(N([H])C(=O)C([H])(N([H])C([H])([H])[H])C([H])([H])[H])C(C([H])([H])[H])(C([H])([H])[H])C([H])([H])[H])C([H])(C(=O)N([H])C2([H])c4c([H])c([H])c([H])c([H])c4C([H])([H])C([H])([H])C2([H])[H])C3([H])[H])c([H])c1C([H])([H])C([H])([H])C([H])([H])N(C(=O)N1C([H])([H])C([H])([H])C([H])([H])C([H])(n2nc(-c3c([H])c([H])c(Oc4c([H])c([H])c(F)c([H])c4F)c([H])c3[H])c(C(=O)N([H])[H])c2N([H])[H])C1([H])[H])C([H])([H])C([H])([H])C([H])([H])[H]

>  <smiles>  (21) 
[H]c1nn(C([H])([H])C([H])([H])C([H])([H])Oc2c([H])c([H])c3c(c2[H])C([H])([H])N(C(=O)C([H])(N([H])C(=O)C([H])(N([H])C([H])([H])[H])C([H])([H])[H])C(C([H])([H])[H])(C([H])([H])[H])C([H])([H])[H])C([H])(C(=O)N([H])C2([H])c4c([H])c([H])c([H])c([H])c4C([H])([H])C([H])([H])C2([H])[H])C3([H])[H])c([H])c1C([H])([H])C([H])([H])C([H])([H])N(C(=O)N1C([H])([H])C([H])([H])C([H])([H])C([H])(n2nc(-c3c([H])c([H])c(Oc4c([H])c([H])c(F)c([H])c4F)c([H])c3[H])c(C(=O)N([H])[H])c2N([H])[H])C1([H])[H])C([H])([H])C([H])([H])C([H])([H])[H]

$$$$
22:0:0
     RDKit          3D

 93101  0  0  1  0  0  0  0  0999 V2000
  -28.6710  -21.8600   20.7910 C   0  0  0  0  0  3  0  0  0  0  0  0
  -28.6410  -23.1760   20.1090 C   0  0  0  0  0  0  0  0  0  0  0  0
  -29.1310  -20.7770   19.9850 C   0  0  0  0  0  0  0  0  0  0  0  0
  -29.1060  -22.8820   18.8970 N   0  0  0  0  0  0  0  0  0  0  0  0
  -29.3700  -21.5070   18.7840 N   0  0  0  0  0  0  0  0  0  0  0  0
  -28.9460  -19.9580   16.8700 C   0  0  0  0  0  1  0  0  0  0  0  0
  -31.3080  -20.5150   17.6380 C   0  0  0  0  0  1  0  0  0  0  0  0
  -29.9130  -22.1630   16.4010 C   0  0  0  0  0  1  0  0  0  0  0  0
  -29.8690  -21.0340   17.4660 C   0  0  2  0  0  0  0  0  0  0  0  0
  -27.6620  -18.6670   20.1380 C   0  0  0  0  0  1  0  0  0  0  0  0
  -29.4360  -19.0060   21.8180 C   0  0  0  0  0  1  0  0  0  0  0  0
  -29.1270  -19.1180   20.3110 C   0  0  2  0  0  0  0  0  0  0  0  0
  -30.0710  -17.8210   19.6960 C   0  0  0  0  0  2  0  0  0  0  0  0
  -30.6080  -15.0730   19.8600 C   0  0  0  0  0  0  0  0  0  0  0  0
  -30.4470  -12.7070   18.9410 C   0  0  0  0  0  2  0  0  0  0  0  0
  -29.4340  -12.6660   17.7710 C   0  0  0  0  0  2  0  0  0  0  0  0
  -28.0110  -12.4220   18.3040 C   0  0  0  0  0  2  0  0  0  0  0  0
  -27.6750  -13.3330   19.5140 C   0  0  0  0  0  3  0  0  0  0  0  0
  -28.8080  -13.3660   20.5650 C   0  0  0  0  0  2  0  0  0  0  0  0
  -30.0250  -13.8010   19.8680 N   0  0  0  0  0  0  0  0  0  0  0  0
  -31.7900  -15.1310   19.5080 O   0  0  0  0  0  0  0  0  0  0  0  0
  -29.8280  -16.2670   20.0170 N   0  0  0  0  0  0  0  0  0  0  0  0
  -28.8770  -16.0690   20.2880 H   0  0  0  0  0  0  0  0  0  0  0  0
  -25.3570  -13.8790   20.4430 C   0  0  0  0  0  0  0  0  0  0  0  0
  -24.3200  -13.0880   20.8580 C   0  0  0  0  0  0  0  0  0  0  0  0
  -24.7810  -11.7400   20.7460 C   0  0  0  0  0  0  0  0  0  0  0  0
  -26.3790  -13.0100   20.0990 N   0  0  0  0  0  0  0  0  0  0  0  0
  -26.0480  -11.7170   20.3480 N   0  0  0  0  0  0  0  0  0  0  0  0
  -24.0640  -10.4690   20.9340 C   0  0  0  0  0  0  0  0  0  0  0  0
  -24.5110   -9.4960   21.8520 C   0  0  0  0  0  3  0  0  0  0  0  0
  -23.7900   -8.2960   22.0330 C   0  0  0  0  0  3  0  0  0  0  0  0
  -22.6060   -8.0590   21.2920 C   0  0  0  0  0  0  0  0  0  0  0  0
  -22.1800   -9.0210   20.3590 C   0  0  0  0  0  3  0  0  0  0  0  0
  -22.9020  -10.2130   20.1770 C   0  0  0  0  0  3  0  0  0  0  0  0
  -21.8610   -6.9100   21.3800 O   0  0  0  0  0  0  0  0  0  0  0  0
  -21.7830   -6.1880   22.5430 C   0  0  0  0  0  0  0  0  0  0  0  0
  -21.2950   -6.7600   23.7400 C   0  0  0  0  0  3  0  0  0  0  0  0
  -21.1660   -5.9650   24.8960 C   0  0  0  0  0  3  0  0  0  0  0  0
  -21.5170   -4.6010   24.8590 C   0  0  0  0  0  0  0  0  0  0  0  0
  -22.0000   -4.0300   23.6670 C   0  0  0  0  0  3  0  0  0  0  0  0
  -22.1290   -4.8220   22.5120 C   0  0  0  0  0  0  0  0  0  0  0  0
  -22.5750   -4.2640   21.3610 F   0  0  0  0  0  0  0  0  0  0  0  0
  -21.3860   -3.8340   25.9670 F   0  0  0  0  0  0  0  0  0  0  0  0
  -22.9470  -13.5550   21.2370 C   0  0  0  0  0  0  0  0  0  0  0  0
  -22.2840  -12.8240   22.1250 N   0  0  0  0  0  0  0  0  0  0  0  0
  -22.4760  -14.5970   20.7820 O   0  0  0  0  0  0  0  0  0  0  0  0
  -22.6810  -11.9790   22.5050 H   0  0  0  0  0  0  0  0  0  0  0  0
  -21.3660  -13.1140   22.4310 H   0  0  0  0  0  0  0  0  0  0  0  0
  -25.5030  -15.2560   20.3000 N   0  0  0  0  0  0  0  0  0  0  0  0
  -24.7210  -15.8850   20.4390 H   0  0  0  0  0  0  0  0  0  0  0  0
  -26.2880  -15.7000   19.8410 H   0  0  0  0  0  0  0  0  0  0  0  0
  -27.9430  -24.6380   20.5460 C   0  0  0  0  0  2  0  0  0  0  0  0
  -28.3060  -26.1310   20.1990 O   0  0  0  0  0  0  0  0  0  0  0  0
  -24.6910  -31.8980   23.2050 C   0  0  0  0  0  0  0  0  0  0  0  0
  -27.2700  -27.1500   20.1900 C   0  0  0  0  0  0  0  0  0  0  0  0
  -23.4920  -30.4850   21.5860 C   0  0  0  0  0  3  0  0  0  0  0  0
  -24.9410  -28.9080   20.1640 C   0  0  0  0  0  0  0  0  0  0  0  0
  -26.0490  -30.7540   21.4070 C   0  0  0  0  0  2  0  0  0  0  0  0
  -26.1260  -29.3560   20.7640 C   0  0  0  0  0  0  0  0  0  0  0  0
  -27.2950  -28.4940   20.7560 C   0  0  0  0  0  3  0  0  0  0  0  0
  -26.0610  -26.8220   19.5410 C   0  0  0  0  0  3  0  0  0  0  0  0
  -24.9230  -27.6540   19.5360 C   0  0  0  0  0  3  0  0  0  0  0  0
  -23.7100  -29.8000   20.2120 C   0  0  0  0  0  2  0  0  0  0  0  0
  -24.7650  -31.0700   22.1190 N   0  0  0  0  0  0  0  0  0  0  0  0
  -23.6050  -32.1790   23.7370 O   0  0  0  0  0  0  0  0  0  0  0  0
  -22.8240  -29.4800   22.5580 C   0  0  0  0  0  0  0  0  0  0  0  0
  -21.4960  -29.3040   22.4430 N   0  0  0  0  0  0  0  0  0  0  0  0
  -23.5060  -28.8570   23.3760 O   0  0  0  0  0  0  0  0  0  0  0  0
  -21.0020  -29.8560   21.7550 H   0  0  0  0  0  0  0  0  0  0  0  0
  -18.1230  -28.0940   22.9720 C   0  0  0  0  0  0  0  0  0  0  0  0
  -20.6810  -28.3720   23.2270 C   0  0  0  0  0  3  0  0  0  0  0  0
  -20.7880  -26.9350   22.6670 C   0  0  0  0  0  2  0  0  0  0  0  0
  -19.6860  -26.5990   21.6570 C   0  0  0  0  0  2  0  0  0  0  0  0
  -18.3040  -26.7440   22.3000 C   0  0  0  0  0  2  0  0  0  0  0  0
  -19.2380  -28.8680   23.3910 C   0  0  0  0  0  0  0  0  0  0  0  0
  -19.0110  -30.1320   23.9730 C   0  0  0  0  0  3  0  0  0  0  0  0
  -17.7030  -30.6220   24.1500 C   0  0  0  0  0  3  0  0  0  0  0  0
  -16.6030  -29.8450   23.7480 C   0  0  0  0  0  3  0  0  0  0  0  0
  -16.8130  -28.5850   23.1630 C   0  0  0  0  0  3  0  0  0  0  0  0
  -25.9670  -32.5520   23.8190 C   0  0  0  0  0  3  0  0  0  0  0  0
  -26.4870  -31.8000   25.1060 C   0  0  1  0  0  0  0  0  0  0  0  0
  -25.3900  -31.5610   26.1710 C   0  0  0  0  0  1  0  0  0  0  0  0
  -27.0880  -30.4240   24.7370 C   0  0  0  0  0  1  0  0  0  0  0  0
  -27.6260  -32.6160   25.7610 C   0  0  0  0  0  1  0  0  0  0  0  0
  -25.6430  -33.9500   24.1430 N   0  0  0  0  0  0  0  0  0  0  0  0
  -25.9690  -35.0080   23.3860 C   0  0  0  0  0  0  0  0  0  0  0  0
  -26.6410  -34.9070   22.3570 O   0  0  0  0  0  0  0  0  0  0  0  0
  -25.0480  -34.0980   24.9440 H   0  0  0  0  0  0  0  0  0  0  0  0
  -24.2370  -36.8000   23.0300 C   0  0  0  0  0  1  0  0  0  0  0  0
  -25.4740  -36.3930   23.8460 C   0  0  0  0  0  3  0  0  0  0  0  0
  -27.6000  -37.2860   24.6930 C   0  0  0  0  0  1  0  0  0  0  0  0
  -26.5020  -37.4510   23.7450 N   0  0  0  0  0  0  0  0  0  0  0  0
  -26.0890  -38.3660   23.8990 H   0  0  0  0  0  0  0  0  0  0  0  0
  2 52  1  0
  2  1  1  0
  3 12  1  0
  3  1  2  0
  4  2  2  0
  5  4  1  0
  5  3  1  0
  9  6  1  6
  8  9  1  0
  9  7  1  0
  9  5  1  0
 12 10  1  1
 12 11  1  0
 13 22  1  0
 13 12  1  0
 14 20  1  0
 14 22  1  0
 15 20  1  0
 16 17  1  0
 16 15  1  0
 18 17  1  0
 18 27  1  0
 18 19  1  0
 20 19  1  0
 21 14  2  0
 22 23  1  0
 24 25  2  0
 25 44  1  0
 26 25  1  0
 26 29  1  0
 27 28  1  0
 27 24  1  0
 28 26  2  0
 29 30  1  0
 30 31  2  0
 32 35  1  0
 32 31  1  0
 33 32  2  0
 34 33  1  0
 34 29  2  0
 35 36  1  0
 36 37  1  0
 37 38  2  0
 39 38  1  0
 39 43  1  0
 40 39  2  0
 41 36  2  0
 41 40  1  0
 42 41  1  0
 44 45  1  0
 45 48  1  0
 45 47  1  0
 46 44  2  0
 49 50  1  0
 49 24  1  0
 51 49  1  0
 53 52  1  0
 54 65  2  0
 55 53  1  0
 55 60  1  0
 56 64  1  0
 56 66  1  0
 57 63  1  0
 57 59  1  0
 58 64  1  0
 59 58  1  0
 60 59  2  0
 61 55  2  0
 62 61  1  0
 62 57  2  0
 63 56  1  0
 64 54  1  0
 66 68  2  0
 67 66  1  0
 69 67  1  0
 70 79  2  0
 70 75  1  0
 71 67  1  0
 71 75  1  0
 72 71  1  0
 73 74  1  0
 73 72  1  0
 74 70  1  0
 75 76  2  0
 76 77  1  0
 78 77  2  0
 79 78  1  0
 80 54  1  0
 80 85  1  0
 80 81  1  0
 81 84  1  1
 81 82  1  0
 83 81  1  0
 85 88  1  0
 86 90  1  0
 86 85  1  0
 87 86  2  0
 90 89  1  0
 92 90  1  0
 92 93  1  0
 92 91  1  0
M  ISO  4  14 100  22 100  52 101  53 101
M  END
>  <TORSDO>  (22) 
F 20

>  <SCORE>  (22) 
-13.556

>  <name>  (22) 
22

>  <ligand_id>  (22) 
22

>  <original_smiles>  (22) 
[H]c1c([H])c([H])c2c(c1[H])C([H])([H])C([H])([H])C([H])([H])C2([H])N([H])C(=O)C1([H])N(C(=O)C([H])(N([H])C(=O)C([H])(N([H])C([H])([H])[H])C([H])([H])[H])C(C([H])([H])[H])(C([H])([H])[H])C([H])([H])[H])C([H])([H])c2c([H])c(OC([H])([H])c3nn(C(C([H])([H])[H])(C([H])([H])[H])C([H])([H])[H])c(C(C([H])([H])[H])(C([H])([H])[H])C([H])([H])N([H])C(=O)N4C([H])([H])C([H])([H])C([H])([H])C([H])(n5nc(-c6c([H])c([H])c(Oc7c([H])c([H])c(F)c([H])c7F)c([H])c6[H])c(C(=O)N([H])[H])c5N([H])[H])C4([H])[H])c3[H])c([H])c([H])c2C1([H])[H]

>  <smiles>  (22) 
[H]c1c([H])c([H])c2c(c1[H])C([H])([H])C([H])([H])C([H])([H])C2([H])N([H])C(=O)C1([H])N(C(=O)C([H])(N([H])C(=O)C([H])(N([H])C([H])([H])[H])C([H])([H])[H])C(C([H])([H])[H])(C([H])([H])[H])C([H])([H])[H])C([H])([H])c2c([H])c(OC([H])([H])c3nn(C(C([H])([H])[H])(C([H])([H])[H])C([H])([H])[H])c(C(C([H])([H])[H])(C([H])([H])[H])C([H])([H])N([H])C(=O)N4C([H])([H])C([H])([H])C([H])([H])C([H])(n5nc(-c6c([H])c([H])c(Oc7c([H])c([H])c(F)c([H])c7F)c([H])c6[H])c(C(=O)N([H])[H])c5N([H])[H])C4([H])[H])c3[H])c([H])c([H])c2C1([H])[H]

$$$$
23:0:0
     RDKit          3D

 89 97  0  0  1  0  0  0  0  0999 V2000
  -28.3660  -19.9840   20.9210 C   0  0  0  0  0  3  0  0  0  0  0  0
  -30.5960  -19.5910   19.4880 C   0  0  0  0  0  3  0  0  0  0  0  0
  -29.0310  -21.1010   20.3300 C   0  0  0  0  0  0  0  0  0  0  0  0
  -29.9070  -18.4690   20.0380 C   0  0  0  0  0  0  0  0  0  0  0  0
  -30.1670  -20.8840   19.6150 N   0  0  0  0  0  0  0  0  0  0  0  0
  -28.7860  -18.6900   20.7740 N   0  0  0  0  0  0  0  0  0  0  0  0
  -28.3000  -22.4780   20.1960 C   0  0  0  0  0  2  0  0  0  0  0  0
  -28.9770  -23.8930   20.4550 C   0  0  0  0  0  2  0  0  0  0  0  0
  -27.9590  -25.0660   20.1390 C   0  0  0  0  0  2  0  0  0  0  0  0
  -28.2700  -26.5090   20.2190 O   0  0  0  0  0  0  0  0  0  0  0  0
  -24.5960  -31.9210   23.2230 C   0  0  0  0  0  0  0  0  0  0  0  0
  -27.1610  -27.3740   20.1450 C   0  0  0  0  0  0  0  0  0  0  0  0
  -23.3670  -30.5250   21.6040 C   0  0  0  0  0  3  0  0  0  0  0  0
  -24.7960  -28.9870   20.1560 C   0  0  0  0  0  0  0  0  0  0  0  0
  -25.9050  -30.8520   21.3800 C   0  0  0  0  0  2  0  0  0  0  0  0
  -25.9780  -29.4780   20.7270 C   0  0  0  0  0  0  0  0  0  0  0  0
  -27.1650  -28.6880   20.7050 C   0  0  0  0  0  3  0  0  0  0  0  0
  -25.9530  -26.9400   19.5460 C   0  0  0  0  0  3  0  0  0  0  0  0
  -24.7850  -27.7210   19.5570 C   0  0  0  0  0  3  0  0  0  0  0  0
  -23.5630  -29.8620   20.2170 C   0  0  0  0  0  2  0  0  0  0  0  0
  -24.6420  -31.1130   22.1250 N   0  0  0  0  0  0  0  0  0  0  0  0
  -23.5200  -32.1980   23.7720 O   0  0  0  0  0  0  0  0  0  0  0  0
  -22.7210  -29.5010   22.5690 C   0  0  0  0  0  0  0  0  0  0  0  0
  -21.3980  -29.3070   22.4450 N   0  0  0  0  0  0  0  0  0  0  0  0
  -23.4080  -28.8900   23.3920 O   0  0  0  0  0  0  0  0  0  0  0  0
  -20.9070  -29.8480   21.7490 H   0  0  0  0  0  0  0  0  0  0  0  0
  -18.0360  -28.0690   22.9550 C   0  0  0  0  0  0  0  0  0  0  0  0
  -20.5890  -28.3710   23.2250 C   0  0  0  0  0  3  0  0  0  0  0  0
  -20.7150  -26.9320   22.6730 C   0  0  0  0  0  2  0  0  0  0  0  0
  -19.6200  -26.5750   21.6630 C   0  0  0  0  0  2  0  0  0  0  0  0
  -18.2330  -26.7120   22.2990 C   0  0  0  0  0  2  0  0  0  0  0  0
  -19.1420  -28.8540   23.3750 C   0  0  0  0  0  0  0  0  0  0  0  0
  -18.9070  -30.1220   23.9510 C   0  0  0  0  0  3  0  0  0  0  0  0
  -17.5950  -30.6080   24.1030 C   0  0  0  0  0  3  0  0  0  0  0  0
  -16.5030  -29.8240   23.6970 C   0  0  0  0  0  3  0  0  0  0  0  0
  -16.7220  -28.5540   23.1320 C   0  0  0  0  0  3  0  0  0  0  0  0
  -25.8890  -32.5530   23.8240 C   0  0  0  0  0  3  0  0  0  0  0  0
  -26.4280  -31.7770   25.0870 C   0  0  1  0  0  0  0  0  0  0  0  0
  -25.3470  -31.5350   26.1660 C   0  0  0  0  0  1  0  0  0  0  0  0
  -27.0130  -30.4020   24.6850 C   0  0  0  0  0  1  0  0  0  0  0  0
  -27.5860  -32.5740   25.7350 C   0  0  0  0  0  1  0  0  0  0  0  0
  -25.5750  -33.9450   24.1650 N   0  0  0  0  0  0  0  0  0  0  0  0
  -25.8950  -35.0040   23.4090 C   0  0  0  0  0  0  0  0  0  0  0  0
  -26.5550  -34.9110   22.3700 O   0  0  0  0  0  0  0  0  0  0  0  0
  -24.9760  -34.0880   24.9660 H   0  0  0  0  0  0  0  0  0  0  0  0
  -24.1590  -36.7980   23.0870 C   0  0  0  0  0  1  0  0  0  0  0  0
  -25.4090  -36.3870   23.8810 C   0  0  0  0  0  3  0  0  0  0  0  0
  -27.5520  -37.2660   24.7010 C   0  0  0  0  0  1  0  0  0  0  0  0
  -26.4410  -37.4420   23.7690 N   0  0  0  0  0  0  0  0  0  0  0  0
  -26.0340  -38.3580   23.9340 H   0  0  0  0  0  0  0  0  0  0  0  0
  -30.2830  -17.0160   19.5910 C   0  0  0  0  0  2  0  0  0  0  0  0
  -30.8180  -14.6430   20.0440 C   0  0  0  0  0  0  0  0  0  0  0  0
  -30.3950  -12.4940   18.8820 C   0  0  0  0  0  2  0  0  0  0  0  0
  -29.3810  -12.7010   17.7380 C   0  0  0  0  0  2  0  0  0  0  0  0
  -27.9350  -12.5670   18.2560 C   0  0  0  0  0  2  0  0  0  0  0  0
  -27.6870  -13.3690   19.5630 C   0  0  0  0  0  3  0  0  0  0  0  0
  -28.8190  -13.1550   20.5910 C   0  0  0  0  0  2  0  0  0  0  0  0
  -30.0910  -13.4850   19.9350 N   0  0  0  0  0  0  0  0  0  0  0  0
  -31.9310  -14.7360   19.5170 O   0  0  0  0  0  0  0  0  0  0  0  0
  -30.0830  -16.0000   21.9110 C   0  0  0  0  0  1  0  0  0  0  0  0
  -30.1790  -15.7840   20.4630 N   0  0  0  0  0  0  0  0  0  0  0  0
  -25.3410  -13.9460   20.4370 C   0  0  0  0  0  0  0  0  0  0  0  0
  -24.3010  -13.1670   20.8540 C   0  0  0  0  0  0  0  0  0  0  0  0
  -24.7590  -11.8150   20.7740 C   0  0  0  0  0  0  0  0  0  0  0  0
  -26.3730  -13.0750   20.1260 N   0  0  0  0  0  0  0  0  0  0  0  0
  -26.0290  -11.7850   20.3860 N   0  0  0  0  0  0  0  0  0  0  0  0
  -24.0440  -10.5490   20.9870 C   0  0  0  0  0  0  0  0  0  0  0  0
  -24.5000   -9.5890   21.9150 C   0  0  0  0  0  3  0  0  0  0  0  0
  -23.7850   -8.3890   22.1160 C   0  0  0  0  0  3  0  0  0  0  0  0
  -22.5960   -8.1410   21.3890 C   0  0  0  0  0  0  0  0  0  0  0  0
  -22.1570   -9.0910   20.4490 C   0  0  0  0  0  3  0  0  0  0  0  0
  -22.8730  -10.2830   20.2480 C   0  0  0  0  0  3  0  0  0  0  0  0
  -21.8510   -6.9920   21.4980 O   0  0  0  0  0  0  0  0  0  0  0  0
  -21.7920   -6.2830   22.6710 C   0  0  0  0  0  0  0  0  0  0  0  0
  -21.3480   -6.8720   23.8750 C   0  0  0  0  0  3  0  0  0  0  0  0
  -21.2390   -6.0900   25.0430 C   0  0  0  0  0  3  0  0  0  0  0  0
  -21.5600   -4.7200   25.0050 C   0  0  0  0  0  0  0  0  0  0  0  0
  -21.9960   -4.1310   23.8050 C   0  0  0  0  0  3  0  0  0  0  0  0
  -22.1080   -4.9100   22.6410 C   0  0  0  0  0  0  0  0  0  0  0  0
  -22.5100   -4.3340   21.4830 F   0  0  0  0  0  0  0  0  0  0  0  0
  -21.4460   -3.9660   26.1230 F   0  0  0  0  0  0  0  0  0  0  0  0
  -22.9210  -13.6370   21.2190 C   0  0  0  0  0  0  0  0  0  0  0  0
  -22.2520  -12.9350   22.1250 N   0  0  0  0  0  0  0  0  0  0  0  0
  -22.4480  -14.6640   20.7320 O   0  0  0  0  0  0  0  0  0  0  0  0
  -22.6490  -12.1030   22.5400 H   0  0  0  0  0  0  0  0  0  0  0  0
  -21.3300  -13.2300   22.4100 H   0  0  0  0  0  0  0  0  0  0  0  0
  -25.4970  -15.3210   20.2750 N   0  0  0  0  0  0  0  0  0  0  0  0
  -24.7430  -15.9750   20.4570 H   0  0  0  0  0  0  0  0  0  0  0  0
  -26.3440  -15.7730   19.9580 H   0  0  0  0  0  0  0  0  0  0  0  0
  2  5  2  0
  2  4  1  0
  3  1  2  0
  4  6  2  0
  5  3  1  0
  6  1  1  0
  7  3  1  0
  7  8  1  0
  9 10  1  0
  9  8  1  0
 11 22  2  0
 12 10  1  0
 12 17  1  0
 13 21  1  0
 13 23  1  0
 14 20  1  0
 14 16  1  0
 15 21  1  0
 16 15  1  0
 17 16  2  0
 18 19  1  0
 18 12  2  0
 19 14  2  0
 20 13  1  0
 21 11  1  0
 23 25  2  0
 24 23  1  0
 26 24  1  0
 27 36  2  0
 27 32  1  0
 28 24  1  0
 28 32  1  0
 29 28  1  0
 30 31  1  0
 30 29  1  0
 31 27  1  0
 32 33  2  0
 33 34  1  0
 35 34  2  0
 36 35  1  0
 37 11  1  0
 37 42  1  0
 37 38  1  0
 38 41  1  1
 38 39  1  0
 40 38  1  0
 42 45  1  0
 43 47  1  0
 43 42  1  0
 44 43  2  0
 47 46  1  0
 49 47  1  0
 49 50  1  0
 49 48  1  0
 51  4  1  0
 51 61  1  0
 52 61  1  0
 53 58  1  0
 54 55  1  0
 54 53  1  0
 56 55  1  0
 56 65  1  0
 56 57  1  0
 58 52  1  0
 58 57  1  0
 59 52  2  0
 61 60  1  0
 62 63  2  0
 63 82  1  0
 64 63  1  0
 64 67  1  0
 65 66  1  0
 65 62  1  0
 66 64  2  0
 67 68  1  0
 68 69  2  0
 70 73  1  0
 70 69  1  0
 71 70  2  0
 72 71  1  0
 72 67  2  0
 73 74  1  0
 74 75  1  0
 75 76  2  0
 77 76  1  0
 77 81  1  0
 78 77  2  0
 79 74  2  0
 79 78  1  0
 80 79  1  0
 82 83  1  0
 83 86  1  0
 83 85  1  0
 84 82  2  0
 87 62  1  0
 87 88  1  0
 89 87  1  0
M  ISO  4   9 101  10 101  52 100  61 100
M  END
>  <TORSDO>  (23) 
F 20

>  <SCORE>  (23) 
-13.254

>  <name>  (23) 
23

>  <ligand_id>  (23) 
23

>  <original_smiles>  (23) 
[H]c1nc(C([H])([H])C([H])([H])C([H])([H])Oc2c([H])c([H])c3c(c2[H])C([H])([H])N(C(=O)C([H])(N([H])C(=O)C([H])(N([H])C([H])([H])[H])C([H])([H])[H])C(C([H])([H])[H])(C([H])([H])[H])C([H])([H])[H])C([H])(C(=O)N([H])C2([H])c4c([H])c([H])c([H])c([H])c4C([H])([H])C([H])([H])C2([H])[H])C3([H])[H])c([H])nc1C([H])([H])N(C(=O)N1C([H])([H])C([H])([H])C([H])([H])C([H])(n2nc(-c3c([H])c([H])c(Oc4c([H])c([H])c(F)c([H])c4F)c([H])c3[H])c(C(=O)N([H])[H])c2N([H])[H])C1([H])[H])C([H])([H])[H]

>  <smiles>  (23) 
[H]c1nc(C([H])([H])C([H])([H])C([H])([H])Oc2c([H])c([H])c3c(c2[H])C([H])([H])N(C(=O)C([H])(N([H])C(=O)C([H])(N([H])C([H])([H])[H])C([H])([H])[H])C(C([H])([H])[H])(C([H])([H])[H])C([H])([H])[H])C([H])(C(=O)N([H])C2([H])c4c([H])c([H])c([H])c([H])c4C([H])([H])C([H])([H])C2([H])[H])C3([H])[H])c([H])nc1C([H])([H])N(C(=O)N1C([H])([H])C([H])([H])C([H])([H])C([H])(n2nc(-c3c([H])c([H])c(Oc4c([H])c([H])c(F)c([H])c4F)c([H])c3[H])c(C(=O)N([H])[H])c2N([H])[H])C1([H])[H])C([H])([H])[H]

$$$$
24:0:0
     RDKit          3D

 97105  0  0  1  0  0  0  0  0999 V2000
  -29.1310  -20.7050   22.1320 C   0  0  0  0  0  2  0  0  0  0  0  0
  -28.6770  -20.8650   20.6640 C   0  0  0  0  0  2  0  0  0  0  0  0
  -26.9630  -21.9210   19.2440 C   0  0  0  0  0  1  0  0  0  0  0  0
  -27.8430  -22.0800   20.4300 N   0  0  2  0  0  4  0  0  0  0  0  0
  -27.2120  -22.1320   21.2170 H   0  0  0  0  0  0  0  0  0  0  0  0
  -28.6210  -23.3550   20.4280 C   0  0  0  0  0  2  0  0  0  0  0  0
  -27.7650  -24.6360   20.2150 C   0  0  0  0  0  2  0  0  0  0  0  0
  -28.5410  -25.9370   20.5300 C   0  0  0  0  0  2  0  0  0  0  0  0
  -28.2860  -27.0130   19.6240 O   0  0  0  0  0  0  0  0  0  0  0  0
  -24.7900  -31.9300   23.4200 C   0  0  0  0  0  0  0  0  0  0  0  0
  -27.1300  -27.7240   19.8290 C   0  0  0  0  0  0  0  0  0  0  0  0
  -23.4510  -30.6990   21.7430 C   0  0  0  0  0  3  0  0  0  0  0  0
  -24.7760  -29.2510   20.1160 C   0  0  0  0  0  0  0  0  0  0  0  0
  -25.9650  -31.0210   21.4200 C   0  0  0  0  0  2  0  0  0  0  0  0
  -25.9770  -29.7040   20.6750 C   0  0  0  0  0  0  0  0  0  0  0  0
  -27.1610  -28.9490   20.5280 C   0  0  0  0  0  3  0  0  0  0  0  0
  -25.9150  -27.2730   19.2710 C   0  0  0  0  0  3  0  0  0  0  0  0
  -24.7380  -28.0310   19.4130 C   0  0  0  0  0  3  0  0  0  0  0  0
  -23.5610  -30.1310   20.3020 C   0  0  0  0  0  2  0  0  0  0  0  0
  -24.7570  -31.2270   22.2530 N   0  0  0  0  0  0  0  0  0  0  0  0
  -23.7510  -32.1790   24.0480 O   0  0  0  0  0  0  0  0  0  0  0  0
  -22.8330  -29.6140   22.6540 C   0  0  0  0  0  0  0  0  0  0  0  0
  -21.5180  -29.3860   22.5040 N   0  0  0  0  0  0  0  0  0  0  0  0
  -23.5340  -28.9810   23.4470 O   0  0  0  0  0  0  0  0  0  0  0  0
  -21.0090  -29.9560   21.8430 H   0  0  0  0  0  0  0  0  0  0  0  0
  -18.2150  -27.9590   22.8180 C   0  0  0  0  0  0  0  0  0  0  0  0
  -20.7320  -28.3860   23.2260 C   0  0  0  0  0  3  0  0  0  0  0  0
  -20.9610  -26.9710   22.6430 C   0  0  0  0  0  2  0  0  0  0  0  0
  -19.9370  -26.5880   21.5700 C   0  0  0  0  0  2  0  0  0  0  0  0
  -18.5190  -26.6320   22.1430 C   0  0  0  0  0  2  0  0  0  0  0  0
  -19.2570  -28.7900   23.3120 C   0  0  0  0  0  0  0  0  0  0  0  0
  -18.9220  -30.0300   23.8940 C   0  0  0  0  0  3  0  0  0  0  0  0
  -17.5800  -30.4410   24.0000 C   0  0  0  0  0  3  0  0  0  0  0  0
  -16.5530  -29.6060   23.5250 C   0  0  0  0  0  3  0  0  0  0  0  0
  -16.8720  -28.3710   22.9370 C   0  0  0  0  0  3  0  0  0  0  0  0
  -26.1290  -32.4760   24.0090 C   0  0  0  0  0  3  0  0  0  0  0  0
  -26.6810  -31.6100   25.2090 C   0  0  1  0  0  0  0  0  0  0  0  0
  -25.6280  -31.3200   26.3030 C   0  0  0  0  0  1  0  0  0  0  0  0
  -27.2170  -30.2520   24.6960 C   0  0  0  0  0  1  0  0  0  0  0  0
  -27.8720  -32.3330   25.8780 C   0  0  0  0  0  1  0  0  0  0  0  0
  -25.8900  -33.8610   24.4380 N   0  0  0  0  0  0  0  0  0  0  0  0
  -26.2360  -34.9470   23.7310 C   0  0  0  0  0  0  0  0  0  0  0  0
  -26.8690  -34.8820   22.6720 O   0  0  0  0  0  0  0  0  0  0  0  0
  -25.3350  -33.9870   25.2710 H   0  0  0  0  0  0  0  0  0  0  0  0
  -24.5800  -36.8260   23.5340 C   0  0  0  0  0  1  0  0  0  0  0  0
  -25.8180  -36.3200   24.2870 C   0  0  0  0  0  3  0  0  0  0  0  0
  -28.0070  -37.0620   25.1180 C   0  0  0  0  0  1  0  0  0  0  0  0
  -26.8910  -37.3350   24.2160 N   0  0  0  0  0  0  0  0  0  0  0  0
  -26.5280  -38.2600   24.4310 H   0  0  0  0  0  0  0  0  0  0  0  0
  -29.8130  -19.3530   22.4610 C   0  0  0  0  0  2  0  0  0  0  0  0
  -32.1160  -19.9870   21.5010 C   0  0  0  0  0  3  0  0  0  0  0  0
  -32.8710  -18.0120   20.7880 C   0  0  0  0  0  3  0  0  0  0  0  0
  -31.1330  -19.0710   21.7610 C   0  0  0  0  0  0  0  0  0  0  0  0
  -31.6130  -17.8030   21.2830 C   0  0  0  0  0  0  0  0  0  0  0  0
  -34.4310  -19.9540   20.4760 C   0  0  0  0  0  1  0  0  0  0  0  0
  -33.1850  -19.3450   20.9050 N   0  0  0  0  0  0  0  0  0  0  0  0
  -30.8990  -16.4600   21.2620 C   0  0  0  0  0  2  0  0  0  0  0  0
  -31.4590  -14.8010   19.5610 C   0  0  0  0  0  0  0  0  0  0  0  0
  -31.0690  -12.5120   18.7140 C   0  0  0  0  0  2  0  0  0  0  0  0
  -30.0440  -12.5840   17.5630 C   0  0  0  0  0  2  0  0  0  0  0  0
  -28.6090  -12.4920   18.1200 C   0  0  0  0  0  2  0  0  0  0  0  0
  -28.3690  -13.4770   19.2920 C   0  0  0  0  0  3  0  0  0  0  0  0
  -29.5010  -13.4090   20.3360 C   0  0  0  0  0  2  0  0  0  0  0  0
  -30.7790  -13.6220   19.6330 N   0  0  0  0  0  0  0  0  0  0  0  0
  -32.5460  -14.8970   18.9760 O   0  0  0  0  0  0  0  0  0  0  0  0
  -30.7450  -15.9040   19.8980 N   0  0  0  0  0  0  0  0  0  0  0  0
  -26.1470  -14.2530   20.3270 C   0  0  0  0  0  0  0  0  0  0  0  0
  -25.0520  -13.5550   20.7600 C   0  0  0  0  0  0  0  0  0  0  0  0
  -25.3690  -12.1760   20.5720 C   0  0  0  0  0  0  0  0  0  0  0  0
  -27.0610  -13.2990   19.9050 N   0  0  0  0  0  0  0  0  0  0  0  0
  -26.6030  -12.0400   20.1080 N   0  0  0  0  0  0  0  0  0  0  0  0
  -24.5470  -10.9740   20.7550 C   0  0  0  0  0  0  0  0  0  0  0  0
  -24.9310   -9.9460   21.6430 C   0  0  0  0  0  3  0  0  0  0  0  0
  -24.1160   -8.8060   21.8120 C   0  0  0  0  0  3  0  0  0  0  0  0
  -22.9030   -8.6890   21.0930 C   0  0  0  0  0  0  0  0  0  0  0  0
  -22.5390   -9.7040   20.1930 C   0  0  0  0  0  3  0  0  0  0  0  0
  -23.3540  -10.8340   20.0200 C   0  0  0  0  0  3  0  0  0  0  0  0
  -22.0610   -7.6070   21.1750 O   0  0  0  0  0  0  0  0  0  0  0  0
  -21.9130   -6.8990   22.3410 C   0  0  0  0  0  0  0  0  0  0  0  0
  -21.5000   -7.5170   23.5420 C   0  0  0  0  0  3  0  0  0  0  0  0
  -21.2910   -6.7370   24.6960 C   0  0  0  0  0  3  0  0  0  0  0  0
  -21.4860   -5.3450   24.6510 C   0  0  0  0  0  0  0  0  0  0  0  0
  -21.8950   -4.7280   23.4550 C   0  0  0  0  0  3  0  0  0  0  0  0
  -22.1050   -5.5050   22.3010 C   0  0  0  0  0  0  0  0  0  0  0  0
  -22.4800   -4.9040   21.1460 F   0  0  0  0  0  0  0  0  0  0  0  0
  -21.2760   -4.5940   25.7590 F   0  0  0  0  0  0  0  0  0  0  0  0
  -23.7510  -14.1350   21.2330 C   0  0  0  0  0  0  0  0  0  0  0  0
  -23.0720  -13.4500   22.1460 N   0  0  0  0  0  0  0  0  0  0  0  0
  -23.3540  -15.2280   20.8310 O   0  0  0  0  0  0  0  0  0  0  0  0
  -23.4060  -12.5600   22.4840 H   0  0  0  0  0  0  0  0  0  0  0  0
  -22.2100  -13.8250   22.5150 H   0  0  0  0  0  0  0  0  0  0  0  0
  -26.4310  -15.6130   20.2410 N   0  0  0  0  0  0  0  0  0  0  0  0
  -25.7530  -16.3220   20.4920 H   0  0  0  0  0  0  0  0  0  0  0  0
  -27.2960  -15.9950   19.8830 H   0  0  0  0  0  0  0  0  0  0  0  0
  -30.5110  -16.9570   18.8820 C   0  0  0  0  0  2  0  0  0  0  0  0
  -29.2090  -17.7830   16.8470 C   0  0  0  0  0  1  0  0  0  0  0  0
  -29.3860  -16.6610   17.8730 C   0  0  0  0  0  2  0  0  0  0  0  0
  1 50  1  0
  2  1  1  0
  3  4  1  0
  4  2  1  0
  4  5  1  1
  6  4  1  0
  7  6  1  0
  7  8  1  0
  9 11  1  0
  9  8  1  0
 10 21  2  0
 11 16  1  0
 12 20  1  0
 12 22  1  0
 13 19  1  0
 13 15  1  0
 14 20  1  0
 15 14  1  0
 16 15  2  0
 17 18  1  0
 17 11  2  0
 18 13  2  0
 19 12  1  0
 20 10  1  0
 22 24  2  0
 23 22  1  0
 25 23  1  0
 26 35  2  0
 26 31  1  0
 27 23  1  0
 27 31  1  0
 28 27  1  0
 29 30  1  0
 29 28  1  0
 30 26  1  0
 31 32  2  0
 32 33  1  0
 34 33  2  0
 35 34  1  0
 36 10  1  0
 36 41  1  0
 36 37  1  0
 37 40  1  1
 37 38  1  0
 39 37  1  0
 41 44  1  0
 42 46  1  0
 42 41  1  0
 43 42  2  0
 46 45  1  0
 48 46  1  0
 48 49  1  0
 48 47  1  0
 51 53  2  0
 52 56  1  0
 52 54  2  0
 53 50  1  0
 54 53  1  0
 55 56  1  0
 56 51  1  0
 57 54  1  0
 58 64  1  0
 58 66  1  0
 59 64  1  0
 60 61  1  0
 60 59  1  0
 62 61  1  0
 62 70  1  0
 62 63  1  0
 64 63  1  0
 65 58  2  0
 66 57  1  0
 67 68  2  0
 68 87  1  0
 69 72  1  0
 69 68  1  0
 70 71  1  0
 70 67  1  0
 71 69  2  0
 72 73  1  0
 73 74  2  0
 75 78  1  0
 75 74  1  0
 76 75  2  0
 77 76  1  0
 77 72  2  0
 78 79  1  0
 79 80  1  0
 80 81  2  0
 82 81  1  0
 82 86  1  0
 83 82  2  0
 84 79  2  0
 84 83  1  0
 85 84  1  0
 87 88  1  0
 88 90  1  0
 88 91  1  0
 89 87  2  0
 92 67  1  0
 92 93  1  0
 94 92  1  0
 95 66  1  0
 96 97  1  0
 97 95  1  0
M  ISO  4   8 101   9 101  58 100  66 100
M  END
>  <TORSDO>  (24) 
F 26

>  <SCORE>  (24) 
-8.193

>  <name>  (24) 
24

>  <ligand_id>  (24) 
24

>  <original_smiles>  (24) 
[H]c1c([H])c([H])c2c(c1[H])C([H])([H])C([H])([H])C([H])([H])C2([H])N([H])C(=O)C1([H])N(C(=O)C([H])(N([H])C(=O)C([H])(N([H])C([H])([H])[H])C([H])([H])[H])C(C([H])([H])[H])(C([H])([H])[H])C([H])([H])[H])C([H])([H])c2c([H])c(OC([H])([H])C([H])([H])C([H])([H])[N+]([H])(C([H])([H])[H])C([H])([H])C([H])([H])C([H])([H])c3c(C([H])([H])N(C(=O)N4C([H])([H])C([H])([H])C([H])([H])C([H])(n5nc(-c6c([H])c([H])c(Oc7c([H])c([H])c(F)c([H])c7F)c([H])c6[H])c(C(=O)N([H])[H])c5N([H])[H])C4([H])[H])C([H])([H])C([H])([H])C([H])([H])[H])c([H])n(C([H])([H])[H])c3[H])c([H])c([H])c2C1([H])[H]

>  <smiles>  (24) 
[H]c1c([H])c([H])c2c(c1[H])C([H])([H])C([H])([H])C([H])([H])C2([H])N([H])C(=O)C1([H])N(C(=O)C([H])(N([H])C(=O)C([H])(N([H])C([H])([H])[H])C([H])([H])[H])C(C([H])([H])[H])(C([H])([H])[H])C([H])([H])[H])C([H])([H])c2c([H])c(OC([H])([H])C([H])([H])C([H])([H])[N+]([H])(C([H])([H])[H])C([H])([H])C([H])([H])C([H])([H])c3c(C([H])([H])N(C(=O)N4C([H])([H])C([H])([H])C([H])([H])C([H])(n5nc(-c6c([H])c([H])c(Oc7c([H])c([H])c(F)c([H])c7F)c([H])c6[H])c(C(=O)N([H])[H])c5N([H])[H])C4([H])[H])C([H])([H])C([H])([H])C([H])([H])[H])c([H])n(C([H])([H])[H])c3[H])c([H])c([H])c2C1([H])[H]

$$$$
25:0:0
     RDKit          3D

 95103  0  0  1  0  0  0  0  0999 V2000
  -31.8630  -21.2400   22.7730 C   0  0  0  0  0  3  0  0  0  0  0  0
  -29.9980  -20.9740   20.8310 C   0  0  0  0  0  3  0  0  0  0  0  0
  -31.1190  -20.0460   22.6180 C   0  0  0  0  0  0  0  0  0  0  0  0
  -30.7210  -22.1800   20.9970 C   0  0  0  0  0  0  0  0  0  0  0  0
  -30.1920  -19.9000   21.6370 N   0  0  0  0  0  0  0  0  0  0  0  0
  -31.6670  -22.3090   21.9640 N   0  0  0  0  0  0  0  0  0  0  0  0
  -31.3000  -18.8740   23.5700 C   0  0  0  0  0  2  0  0  0  0  0  0
  -30.2150  -16.7550   24.1800 C   0  0  0  0  0  1  0  0  0  0  0  0
  -30.5980  -17.6650   23.0720 N   0  0  2  0  0  4  0  0  0  0  0  0
  -29.7420  -18.0520   22.6950 H   0  0  0  0  0  0  0  0  0  0  0  0
  -31.3310  -16.9990   21.9560 C   0  0  0  0  0  2  0  0  0  0  0  0
  -30.6170  -15.7480   21.3780 C   0  0  0  0  0  2  0  0  0  0  0  0
  -31.1520  -14.5670   19.2470 C   0  0  0  0  0  0  0  0  0  0  0  0
  -30.5270  -12.4650   18.1110 C   0  0  0  0  0  2  0  0  0  0  0  0
  -29.4020  -12.6110   17.0740 C   0  0  0  0  0  2  0  0  0  0  0  0
  -28.0240  -12.4960   17.7470 C   0  0  0  0  0  2  0  0  0  0  0  0
  -27.8950  -13.4200   18.9830 C   0  0  0  0  0  3  0  0  0  0  0  0
  -29.1040  -13.2410   19.9260 C   0  0  0  0  0  2  0  0  0  0  0  0
  -30.3490  -13.4720   19.1690 N   0  0  0  0  0  0  0  0  0  0  0  0
  -31.8970  -14.9120   18.3220 O   0  0  0  0  0  0  0  0  0  0  0  0
  -32.8640  -14.7460   20.9540 C   0  0  0  0  0  1  0  0  0  0  0  0
  -31.4730  -14.9100   20.5160 N   0  0  0  0  0  0  0  0  0  0  0  0
  -25.7150  -14.1220   20.1650 C   0  0  0  0  0  0  0  0  0  0  0  0
  -24.6730  -13.3910   20.6720 C   0  0  0  0  0  0  0  0  0  0  0  0
  -25.0120  -12.0200   20.4560 C   0  0  0  0  0  0  0  0  0  0  0  0
  -26.6290  -13.1980   19.6820 N   0  0  0  0  0  0  0  0  0  0  0  0
  -26.2160  -11.9240   19.9080 N   0  0  0  0  0  0  0  0  0  0  0  0
  -24.2350  -10.7960   20.6890 C   0  0  0  0  0  0  0  0  0  0  0  0
  -24.6850   -9.7930   21.5770 C   0  0  0  0  0  3  0  0  0  0  0  0
  -23.9130   -8.6330   21.7980 C   0  0  0  0  0  3  0  0  0  0  0  0
  -22.6740   -8.4670   21.1330 C   0  0  0  0  0  0  0  0  0  0  0  0
  -22.2410   -9.4580   20.2340 C   0  0  0  0  0  3  0  0  0  0  0  0
  -23.0150  -10.6090   20.0100 C   0  0  0  0  0  3  0  0  0  0  0  0
  -21.8680   -7.3620   21.2670 O   0  0  0  0  0  0  0  0  0  0  0  0
  -21.7680   -6.6840   22.4560 C   0  0  0  0  0  0  0  0  0  0  0  0
  -21.3740   -7.3260   23.6490 C   0  0  0  0  0  3  0  0  0  0  0  0
  -21.2160   -6.5770   24.8320 C   0  0  0  0  0  3  0  0  0  0  0  0
  -21.4430   -5.1870   24.8230 C   0  0  0  0  0  0  0  0  0  0  0  0
  -21.8310   -4.5460   23.6330 C   0  0  0  0  0  3  0  0  0  0  0  0
  -21.9900   -5.2910   22.4520 C   0  0  0  0  0  0  0  0  0  0  0  0
  -22.3430   -4.6650   21.3040 F   0  0  0  0  0  0  0  0  0  0  0  0
  -21.2840   -4.4670   25.9570 F   0  0  0  0  0  0  0  0  0  0  0  0
  -23.3910  -13.9310   21.2380 C   0  0  0  0  0  0  0  0  0  0  0  0
  -22.8050  -13.2330   22.2040 N   0  0  0  0  0  0  0  0  0  0  0  0
  -22.9280  -15.0060   20.8580 O   0  0  0  0  0  0  0  0  0  0  0  0
  -23.1940  -12.3610   22.5280 H   0  0  0  0  0  0  0  0  0  0  0  0
  -21.9520  -13.5760   22.6240 H   0  0  0  0  0  0  0  0  0  0  0  0
  -25.9520  -15.4890   20.0590 N   0  0  0  0  0  0  0  0  0  0  0  0
  -25.2700  -16.1810   20.3490 H   0  0  0  0  0  0  0  0  0  0  0  0
  -26.7600  -15.8980   19.6050 H   0  0  0  0  0  0  0  0  0  0  0  0
  -30.4510  -23.2560   20.1750 O   0  0  0  0  0  0  0  0  0  0  0  0
  -31.2410  -24.4320   20.3300 C   0  0  0  0  0  2  0  0  0  0  0  0
  -30.6510  -25.5870   19.5130 C   0  0  0  0  0  2  0  0  0  0  0  0
  -29.2190  -25.9660   19.9260 C   0  0  0  0  0  2  0  0  0  0  0  0
  -29.0580  -27.3550   19.6670 O   0  0  0  0  0  0  0  0  0  0  0  0
  -24.7420  -31.6400   23.3350 C   0  0  0  0  0  0  0  0  0  0  0  0
  -27.8000  -27.8880   19.7840 C   0  0  0  0  0  0  0  0  0  0  0  0
  -23.6790  -30.3610   21.5030 C   0  0  0  0  0  3  0  0  0  0  0  0
  -25.2760  -29.1410   19.9350 C   0  0  0  0  0  0  0  0  0  0  0  0
  -26.1630  -30.9600   21.4060 C   0  0  0  0  0  2  0  0  0  0  0  0
  -26.3730  -29.6940   20.6060 C   0  0  0  0  0  0  0  0  0  0  0  0
  -27.6380  -29.0770   20.5260 C   0  0  0  0  0  3  0  0  0  0  0  0
  -26.6850  -27.3320   19.1180 C   0  0  0  0  0  3  0  0  0  0  0  0
  -25.4240  -27.9570   19.1920 C   0  0  0  0  0  3  0  0  0  0  0  0
  -23.9620  -29.8810   20.0550 C   0  0  0  0  0  2  0  0  0  0  0  0
  -24.8780  -30.9960   22.1420 N   0  0  0  0  0  0  0  0  0  0  0  0
  -23.6370  -31.7500   23.8830 O   0  0  0  0  0  0  0  0  0  0  0  0
  -23.1110  -29.1740   22.3120 C   0  0  0  0  0  0  0  0  0  0  0  0
  -21.8250  -28.8600   22.0860 N   0  0  0  0  0  0  0  0  0  0  0  0
  -23.8250  -28.5420   23.0960 O   0  0  0  0  0  0  0  0  0  0  0  0
  -21.3040  -29.4310   21.4350 H   0  0  0  0  0  0  0  0  0  0  0  0
  -18.6120  -27.2170   22.2040 C   0  0  0  0  0  0  0  0  0  0  0  0
  -21.0890  -27.7580   22.7050 C   0  0  0  0  0  3  0  0  0  0  0  0
  -21.4170  -26.4120   22.0170 C   0  0  0  0  0  2  0  0  0  0  0  0
  -20.4390  -26.0570   20.8910 C   0  0  0  0  0  2  0  0  0  0  0  0
  -19.0080  -25.9700   21.4310 C   0  0  0  0  0  2  0  0  0  0  0  0
  -19.5890  -28.0650   22.7880 C   0  0  0  0  0  0  0  0  0  0  0  0
  -19.1700  -29.2320   23.4630 C   0  0  0  0  0  3  0  0  0  0  0  0
  -17.8040  -29.5520   23.5640 C   0  0  0  0  0  3  0  0  0  0  0  0
  -16.8390  -28.7010   23.0000 C   0  0  0  0  0  3  0  0  0  0  0  0
  -17.2430  -27.5360   22.3230 C   0  0  0  0  0  3  0  0  0  0  0  0
  -25.9620  -32.2910   24.0580 C   0  0  0  0  0  3  0  0  0  0  0  0
  -25.5870  -33.6670   24.4070 N   0  0  0  0  0  0  0  0  0  0  0  0
  -25.9620  -34.7550   23.7210 C   0  0  0  0  0  0  0  0  0  0  0  0
  -26.7290  -34.7060   22.7550 O   0  0  0  0  0  0  0  0  0  0  0  0
  -24.9170  -33.7770   25.1540 H   0  0  0  0  0  0  0  0  0  0  0  0
  -24.2280  -36.5160   23.2590 C   0  0  0  0  0  1  0  0  0  0  0  0
  -25.3920  -36.1100   24.1770 C   0  0  0  0  0  3  0  0  0  0  0  0
  -27.4140  -37.0050   25.2450 C   0  0  0  0  0  1  0  0  0  0  0  0
  -26.3990  -37.1940   24.2120 N   0  0  0  0  0  0  0  0  0  0  0  0
  -25.9520  -38.0930   24.3700 H   0  0  0  0  0  0  0  0  0  0  0  0
  -26.4260  -31.4950   25.3390 C   0  0  1  0  0  0  0  0  0  0  0  0
  -25.2710  -31.1570   26.3120 C   0  0  0  0  0  1  0  0  0  0  0  0
  -27.1100  -30.1680   24.9370 C   0  0  0  0  0  1  0  0  0  0  0  0
  -27.4790  -32.3190   26.1170 C   0  0  0  0  0  1  0  0  0  0  0  0
  2  4  1  0
  2  5  2  0
  3  1  2  0
  3  7  1  0
  4  6  2  0
  5  3  1  0
  6  1  1  0
  9  7  1  0
  9  8  1  0
  9 10  1  6
 11  9  1  0
 12 11  1  0
 13 22  1  0
 14 19  1  0
 15 16  1  0
 15 14  1  0
 17 16  1  0
 17 26  1  0
 17 18  1  0
 19 13  1  0
 19 18  1  0
 20 13  2  0
 22 21  1  0
 22 12  1  0
 23 24  2  0
 24 43  1  0
 25 24  1  0
 25 28  1  0
 26 27  1  0
 26 23  1  0
 27 25  2  0
 28 29  1  0
 29 30  2  0
 31 34  1  0
 31 30  1  0
 32 31  2  0
 33 32  1  0
 33 28  2  0
 34 35  1  0
 35 36  1  0
 36 37  2  0
 38 37  1  0
 38 42  1  0
 39 38  2  0
 40 35  2  0
 40 39  1  0
 41 40  1  0
 43 44  1  0
 44 46  1  0
 44 47  1  0
 45 43  2  0
 48 23  1  0
 48 49  1  0
 50 48  1  0
 51 52  1  0
 51  4  1  0
 53 54  1  0
 53 52  1  0
 55 57  1  0
 55 54  1  0
 56 67  2  0
 57 62  1  0
 58 66  1  0
 58 68  1  0
 59 65  1  0
 59 61  1  0
 60 66  1  0
 61 60  1  0
 62 61  2  0
 63 64  1  0
 63 57  2  0
 64 59  2  0
 65 58  1  0
 66 56  1  0
 68 70  2  0
 69 68  1  0
 71 69  1  0
 72 81  2  0
 72 77  1  0
 73 69  1  0
 73 77  1  0
 74 73  1  0
 75 76  1  0
 75 74  1  0
 76 72  1  0
 77 78  2  0
 78 79  1  0
 80 79  2  0
 81 80  1  0
 82 56  1  0
 82 83  1  0
 82 92  1  0
 83 86  1  0
 84 88  1  0
 84 83  1  0
 85 84  2  0
 88 87  1  0
 88 90  1  0
 90 91  1  0
 90 89  1  0
 92 95  1  1
 92 93  1  0
 94 92  1  0
M  ISO  4  13 100  22 100  54 101  55 101
M  END
>  <TORSDO>  (25) 
F 24

>  <SCORE>  (25) 
-5.790

>  <name>  (25) 
25

>  <ligand_id>  (25) 
25

>  <original_smiles>  (25) 
[H]c1nc(C([H])([H])[N+]([H])(C([H])([H])[H])C([H])([H])C([H])([H])N(C(=O)N2C([H])([H])C([H])([H])C([H])([H])C([H])(n3nc(-c4c([H])c([H])c(Oc5c([H])c([H])c(F)c([H])c5F)c([H])c4[H])c(C(=O)N([H])[H])c3N([H])[H])C2([H])[H])C([H])([H])[H])c([H])nc1OC([H])([H])C([H])([H])C([H])([H])Oc1c([H])c([H])c2c(c1[H])C([H])([H])N(C(=O)C([H])(N([H])C(=O)C([H])(N([H])C([H])([H])[H])C([H])([H])[H])C(C([H])([H])[H])(C([H])([H])[H])C([H])([H])[H])C([H])(C(=O)N([H])C1([H])c3c([H])c([H])c([H])c([H])c3C([H])([H])C([H])([H])C1([H])[H])C2([H])[H]

>  <smiles>  (25) 
[H]c1nc(C([H])([H])[N+]([H])(C([H])([H])[H])C([H])([H])C([H])([H])N(C(=O)N2C([H])([H])C([H])([H])C([H])([H])C([H])(n3nc(-c4c([H])c([H])c(Oc5c([H])c([H])c(F)c([H])c5F)c([H])c4[H])c(C(=O)N([H])[H])c3N([H])[H])C2([H])[H])C([H])([H])[H])c([H])nc1OC([H])([H])C([H])([H])C([H])([H])Oc1c([H])c([H])c2c(c1[H])C([H])([H])N(C(=O)C([H])(N([H])C(=O)C([H])(N([H])C([H])([H])[H])C([H])([H])[H])C(C([H])([H])[H])(C([H])([H])[H])C([H])([H])[H])C([H])(C(=O)N([H])C1([H])c3c([H])c([H])c([H])c([H])c3C([H])([H])C([H])([H])C1([H])[H])C2([H])[H]

$$$$
26:0:0
     RDKit          3D

 91 99  0  0  1  0  0  0  0  0999 V2000
  -29.4180  -20.3990   20.1370 C   0  0  0  0  0  3  0  0  0  0  0  0
  -27.5330  -21.0460   19.2790 C   0  0  0  0  0  3  0  0  0  0  0  0
  -28.5980  -19.2850   19.9960 C   0  0  0  0  0  0  0  0  0  0  0  0
  -27.3990  -19.7270   19.4270 N   0  0  0  0  0  0  0  0  0  0  0  0
  -28.7160  -21.5330   19.6820 N   0  0  0  0  0  0  0  0  0  0  0  0
  -28.7380  -17.8150   20.4340 C   0  0  0  0  0  3  0  0  0  0  0  0
  -29.8520  -16.9100   19.7980 C   0  0  0  0  0  3  0  0  0  0  0  0
  -30.5840  -14.5110   19.7230 C   0  0  0  0  0  0  0  0  0  0  0  0
  -30.2080  -12.2970   18.6620 C   0  0  0  0  0  2  0  0  0  0  0  0
  -29.1770  -12.4270   17.5230 C   0  0  0  0  0  2  0  0  0  0  0  0
  -27.7430  -12.2810   18.0670 C   0  0  0  0  0  2  0  0  0  0  0  0
  -27.4920  -13.1620   19.3200 C   0  0  0  0  0  3  0  0  0  0  0  0
  -28.6310  -13.0120   20.3520 C   0  0  0  0  0  2  0  0  0  0  0  0
  -29.9040  -13.3230   19.6800 N   0  0  0  0  0  0  0  0  0  0  0  0
  -31.6030  -14.6950   19.0470 O   0  0  0  0  0  0  0  0  0  0  0  0
  -30.0210  -15.5480   20.4190 N   0  0  0  0  0  0  0  0  0  0  0  0
  -25.1600  -13.7720   20.2110 C   0  0  0  0  0  0  0  0  0  0  0  0
  -24.1300  -13.0050   20.6820 C   0  0  0  0  0  0  0  0  0  0  0  0
  -24.5930  -11.6540   20.6400 C   0  0  0  0  0  0  0  0  0  0  0  0
  -26.1860  -12.8900   19.9130 N   0  0  0  0  0  0  0  0  0  0  0  0
  -25.8540  -11.6110   20.2290 N   0  0  0  0  0  0  0  0  0  0  0  0
  -23.8890  -10.3940   20.9180 C   0  0  0  0  0  0  0  0  0  0  0  0
  -24.3390   -9.5040   21.9180 C   0  0  0  0  0  3  0  0  0  0  0  0
  -23.6350   -8.3080   22.1800 C   0  0  0  0  0  3  0  0  0  0  0  0
  -22.4700   -7.9950   21.4400 C   0  0  0  0  0  0  0  0  0  0  0  0
  -22.0410   -8.8730   20.4290 C   0  0  0  0  0  3  0  0  0  0  0  0
  -22.7450  -10.0610   20.1680 C   0  0  0  0  0  3  0  0  0  0  0  0
  -21.7380   -6.8430   21.6050 O   0  0  0  0  0  0  0  0  0  0  0  0
  -21.6230   -6.2320   22.8280 C   0  0  0  0  0  0  0  0  0  0  0  0
  -21.0860   -6.9040   23.9480 C   0  0  0  0  0  3  0  0  0  0  0  0
  -20.9210   -6.2170   25.1670 C   0  0  0  0  0  3  0  0  0  0  0  0
  -21.2830   -4.8610   25.2660 C   0  0  0  0  0  0  0  0  0  0  0  0
  -21.8110   -4.1880   24.1510 C   0  0  0  0  0  3  0  0  0  0  0  0
  -21.9780   -4.8720   22.9350 C   0  0  0  0  0  0  0  0  0  0  0  0
  -22.4690   -4.2140   21.8560 F   0  0  0  0  0  0  0  0  0  0  0  0
  -21.1170   -4.1980   26.4370 F   0  0  0  0  0  0  0  0  0  0  0  0
  -22.7580  -13.4840   21.0570 C   0  0  0  0  0  0  0  0  0  0  0  0
  -22.1050  -12.8010   21.9910 N   0  0  0  0  0  0  0  0  0  0  0  0
  -22.2730  -14.4990   20.5580 O   0  0  0  0  0  0  0  0  0  0  0  0
  -22.5150  -11.9820   22.4150 H   0  0  0  0  0  0  0  0  0  0  0  0
  -21.1880  -13.1030   22.2890 H   0  0  0  0  0  0  0  0  0  0  0  0
  -25.3010  -15.1390   19.9910 N   0  0  0  0  0  0  0  0  0  0  0  0
  -24.5390  -15.7890   20.1500 H   0  0  0  0  0  0  0  0  0  0  0  0
  -26.1140  -15.5760   19.5770 H   0  0  0  0  0  0  0  0  0  0  0  0
  -31.6130  -16.2610   22.2450 C   0  0  0  0  0  1  0  0  0  0  0  0
  -30.2870  -15.5700   21.8730 C   0  0  0  0  0  2  0  0  0  0  0  0
  -29.1950  -22.9310   19.5290 C   0  0  0  0  0  2  0  0  0  0  0  0
  -28.6910  -24.0710   21.7690 C   0  0  0  0  0  1  0  0  0  0  0  0
  -28.4200  -24.0970   20.2540 C   0  0  0  0  0  3  0  0  0  0  0  0
  -28.7860  -25.4950   19.6230 C   0  0  0  0  0  2  0  0  0  0  0  0
  -28.5340  -26.7170   20.3710 O   0  0  0  0  0  0  0  0  0  0  0  0
  -24.5290  -31.9100   23.1970 C   0  0  0  0  0  0  0  0  0  0  0  0
  -27.3460  -27.4270   20.2730 C   0  0  0  0  0  0  0  0  0  0  0  0
  -23.4010  -30.4520   21.5510 C   0  0  0  0  0  3  0  0  0  0  0  0
  -24.9260  -28.9210   20.1860 C   0  0  0  0  0  0  0  0  0  0  0  0
  -25.9250  -30.8530   21.4150 C   0  0  0  0  0  2  0  0  0  0  0  0
  -26.0560  -29.4690   20.7980 C   0  0  0  0  0  0  0  0  0  0  0  0
  -27.2650  -28.7300   20.8390 C   0  0  0  0  0  3  0  0  0  0  0  0
  -26.1900  -26.9010   19.6540 C   0  0  0  0  0  3  0  0  0  0  0  0
  -24.9890  -27.6380   19.6120 C   0  0  0  0  0  3  0  0  0  0  0  0
  -23.6640  -29.7580   20.1860 C   0  0  0  0  0  2  0  0  0  0  0  0
  -24.6350  -31.0880   22.1120 N   0  0  0  0  0  0  0  0  0  0  0  0
  -23.4280  -32.1660   23.7040 O   0  0  0  0  0  0  0  0  0  0  0  0
  -22.7480  -29.4320   22.5120 C   0  0  0  0  0  0  0  0  0  0  0  0
  -21.4300  -29.2200   22.3630 N   0  0  0  0  0  0  0  0  0  0  0  0
  -23.4260  -28.8330   23.3510 O   0  0  0  0  0  0  0  0  0  0  0  0
  -20.9430  -29.7620   21.6630 H   0  0  0  0  0  0  0  0  0  0  0  0
  -18.0670  -27.9700   22.8110 C   0  0  0  0  0  0  0  0  0  0  0  0
  -20.6150  -28.2730   23.1270 C   0  0  0  0  0  3  0  0  0  0  0  0
  -20.7520  -26.8390   22.5640 C   0  0  0  0  0  2  0  0  0  0  0  0
  -19.6730  -26.4900   21.5350 C   0  0  0  0  0  2  0  0  0  0  0  0
  -18.2760  -26.6170   22.1530 C   0  0  0  0  0  2  0  0  0  0  0  0
  -19.1650  -28.7540   23.2520 C   0  0  0  0  0  0  0  0  0  0  0  0
  -18.9160  -30.0200   23.8260 C   0  0  0  0  0  3  0  0  0  0  0  0
  -17.6020  -30.5010   23.9670 C   0  0  0  0  0  3  0  0  0  0  0  0
  -16.5160  -29.7130   23.5430 C   0  0  0  0  0  3  0  0  0  0  0  0
  -16.7500  -28.4510   22.9700 C   0  0  0  0  0  3  0  0  0  0  0  0
  -25.7810  -32.5850   23.8380 C   0  0  0  0  0  3  0  0  0  0  0  0
  -25.4270  -33.9760   24.1490 N   0  0  0  0  0  0  0  0  0  0  0  0
  -25.7390  -35.0310   23.3810 C   0  0  0  0  0  0  0  0  0  0  0  0
  -26.4230  -34.9340   22.3590 O   0  0  0  0  0  0  0  0  0  0  0  0
  -24.8230  -34.1210   24.9440 H   0  0  0  0  0  0  0  0  0  0  0  0
  -23.9590  -36.7630   22.9870 C   0  0  0  0  0  1  0  0  0  0  0  0
  -25.2040  -36.4100   23.8140 C   0  0  0  0  0  3  0  0  0  0  0  0
  -27.2990  -37.3720   24.6560 C   0  0  0  0  0  1  0  0  0  0  0  0
  -26.2040  -37.4920   23.6960 N   0  0  0  0  0  0  0  0  0  0  0  0
  -25.7690  -38.4020   23.8270 H   0  0  0  0  0  0  0  0  0  0  0  0
  -26.2910  -31.8400   25.1330 C   0  0  1  0  0  0  0  0  0  0  0  0
  -25.1800  -31.5560   26.1720 C   0  0  0  0  0  1  0  0  0  0  0  0
  -26.9470  -30.4910   24.7570 C   0  0  0  0  0  1  0  0  0  0  0  0
  -27.3840  -32.6890   25.8280 C   0  0  0  0  0  1  0  0  0  0  0  0
  2  4  2  0
  2  5  1  0
  3  1  2  0
  3  6  1  0
  4  3  1  0
  5  1  1  0
  7 16  1  0
  7  6  2  0
  8 16  1  0
  9 14  1  0
 10 11  1  0
 10  9  1  0
 12 11  1  0
 12 20  1  0
 12 13  1  0
 14  8  1  0
 14 13  1  0
 15  8  2  0
 16 46  1  0
 17 18  2  0
 18 37  1  0
 19 18  1  0
 19 22  1  0
 20 17  1  0
 20 21  1  0
 21 19  2  0
 22 23  1  0
 23 24  2  0
 25 28  1  0
 25 24  1  0
 26 25  2  0
 27 26  1  0
 27 22  2  0
 28 29  1  0
 29 34  2  0
 29 30  1  0
 30 31  2  0
 31 32  1  0
 32 36  1  0
 33 32  2  0
 34 33  1  0
 35 34  1  0
 37 38  1  0
 38 41  1  0
 38 40  1  0
 39 37  2  0
 42 43  1  0
 42 17  1  0
 44 42  1  0
 46 45  1  0
 47  5  1  0
 47 49  1  0
 49 48  1  0
 50 49  1  0
 50 51  1  0
 52 63  2  0
 53 51  1  0
 53 58  1  0
 54 62  1  0
 54 64  1  0
 55 61  1  0
 55 57  1  0
 56 62  1  0
 57 58  2  0
 57 56  1  0
 59 53  2  0
 60 59  1  0
 60 55  2  0
 61 54  1  0
 62 52  1  0
 64 66  2  0
 65 64  1  0
 67 65  1  0
 68 77  2  0
 68 73  1  0
 69 65  1  0
 69 73  1  0
 70 69  1  0
 71 72  1  0
 71 70  1  0
 72 68  1  0
 73 74  2  0
 74 75  1  0
 76 75  2  0
 77 76  1  0
 78 52  1  0
 78 79  1  0
 78 88  1  0
 79 82  1  0
 80 84  1  0
 80 79  1  0
 81 80  2  0
 84 83  1  0
 86 84  1  0
 86 87  1  0
 86 85  1  0
 88 91  1  1
 88 89  1  0
 90 88  1  0
M  ISO  4   8 100  16 100  50 101  51 101
M  END
>  <TORSDO>  (26) 
F 22

>  <SCORE>  (26) 
-11.457

>  <name>  (26) 
26

>  <ligand_id>  (26) 
26

>  <original_smiles>  (26) 
[H]c1c([H])c([H])c2c(c1[H])C([H])([H])C([H])([H])C([H])([H])C2([H])N([H])C(=O)C1([H])N(C(=O)C([H])(N([H])C(=O)C([H])(N([H])C([H])([H])[H])C([H])([H])[H])C(C([H])([H])[H])(C([H])([H])[H])C([H])([H])[H])C([H])([H])c2c([H])c(OC([H])([H])C([H])(C([H])([H])[H])C([H])([H])n3c([H])nc(C([H])([H])C([H])([H])N(C(=O)N4C([H])([H])C([H])([H])C([H])([H])C([H])(n5nc(-c6c([H])c([H])c(Oc7c([H])c([H])c(F)c([H])c7F)c([H])c6[H])c(C(=O)N([H])[H])c5N([H])[H])C4([H])[H])C([H])([H])C([H])([H])[H])c3[H])c([H])c([H])c2C1([H])[H]

>  <smiles>  (26) 
[H]c1c([H])c([H])c2c(c1[H])C([H])([H])C([H])([H])C([H])([H])C2([H])N([H])C(=O)C1([H])N(C(=O)C([H])(N([H])C(=O)C([H])(N([H])C([H])([H])[H])C([H])([H])[H])C(C([H])([H])[H])(C([H])([H])[H])C([H])([H])[H])C([H])([H])c2c([H])c(OC([H])([H])C([H])(C([H])([H])[H])C([H])([H])n3c([H])nc(C([H])([H])C([H])([H])N(C(=O)N4C([H])([H])C([H])([H])C([H])([H])C([H])(n5nc(-c6c([H])c([H])c(Oc7c([H])c([H])c(F)c([H])c7F)c([H])c6[H])c(C(=O)N([H])[H])c5N([H])[H])C4([H])[H])C([H])([H])C([H])([H])[H])c3[H])c([H])c([H])c2C1([H])[H]

$$$$
27:0:0
     RDKit          3D

 92100  0  0  1  0  0  0  0  0999 V2000
  -27.2270  -21.3700   19.7990 C   0  0  0  0  0  3  0  0  0  0  0  0
  -28.1200  -20.9570   18.7720 C   0  0  0  0  0  0  0  0  0  0  0  0
  -28.7390  -22.1160   18.3860 C   0  0  0  0  0  0  0  0  0  0  0  0
  -29.7550  -22.3620   17.3170 C   0  0  0  0  0  1  0  0  0  0  0  0
  -27.2860  -22.6730   20.0200 N   0  0  0  0  0  0  0  0  0  0  0  0
  -28.2220  -23.1410   19.1600 N   0  0  0  0  0  0  0  0  0  0  0  0
  -28.2750  -19.5760   18.1790 C   0  0  0  0  0  2  0  0  0  0  0  0
  -29.6060  -18.8700   18.5230 C   0  0  0  0  0  2  0  0  0  0  0  0
  -30.0300  -18.9710   20.9560 C   0  0  0  0  0  1  0  0  0  0  0  0
  -29.5830  -18.1290   19.8210 N   0  0  2  0  0  4  0  0  0  0  0  0
  -28.6190  -17.8860   19.9870 H   0  0  0  0  0  0  0  0  0  0  0  0
  -30.3420  -16.8480   19.7210 C   0  0  0  0  0  2  0  0  0  0  0  0
  -30.0620  -15.7870   20.8250 C   0  0  0  0  0  2  0  0  0  0  0  0
  -30.7540  -14.4720   20.4140 C   0  0  0  0  0  0  0  0  0  0  0  0
  -30.4090  -12.3260   19.2750 C   0  0  0  0  0  2  0  0  0  0  0  0
  -29.4780  -12.5730   18.0700 C   0  0  0  0  0  2  0  0  0  0  0  0
  -27.9990  -12.4620   18.4880 C   0  0  0  0  0  2  0  0  0  0  0  0
  -27.6720  -13.2900   19.7590 C   0  0  0  0  0  3  0  0  0  0  0  0
  -28.7210  -13.0510   20.8690 C   0  0  0  0  0  2  0  0  0  0  0  0
  -30.0550  -13.3100   20.3090 N   0  0  0  0  0  0  0  0  0  0  0  0
  -31.9120  -14.5720   20.0010 O   0  0  0  0  0  0  0  0  0  0  0  0
  -25.2740  -13.9180   20.4500 C   0  0  0  0  0  0  0  0  0  0  0  0
  -24.2000  -13.1560   20.8220 C   0  0  0  0  0  0  0  0  0  0  0  0
  -24.6530  -11.8020   20.8070 C   0  0  0  0  0  0  0  0  0  0  0  0
  -26.3150  -13.0290   20.2340 N   0  0  0  0  0  0  0  0  0  0  0  0
  -25.9450  -11.7510   20.5050 N   0  0  0  0  0  0  0  0  0  0  0  0
  -23.9190  -10.5460   21.0070 C   0  0  0  0  0  0  0  0  0  0  0  0
  -24.3540   -9.5800   21.9420 C   0  0  0  0  0  3  0  0  0  0  0  0
  -23.6230   -8.3880   22.1300 C   0  0  0  0  0  3  0  0  0  0  0  0
  -22.4420   -8.1530   21.3880 C   0  0  0  0  0  0  0  0  0  0  0  0
  -22.0280   -9.1070   20.4420 C   0  0  0  0  0  3  0  0  0  0  0  0
  -22.7580  -10.2910   20.2490 C   0  0  0  0  0  3  0  0  0  0  0  0
  -21.6820   -7.0120   21.4840 O   0  0  0  0  0  0  0  0  0  0  0  0
  -21.6490   -6.2660   22.6350 C   0  0  0  0  0  0  0  0  0  0  0  0
  -21.2670   -6.8240   23.8750 C   0  0  0  0  0  3  0  0  0  0  0  0
  -21.1790   -6.0040   25.0180 C   0  0  0  0  0  3  0  0  0  0  0  0
  -21.4610   -4.6280   24.9220 C   0  0  0  0  0  0  0  0  0  0  0  0
  -21.8390   -4.0700   23.6870 C   0  0  0  0  0  3  0  0  0  0  0  0
  -21.9290   -4.8870   22.5470 C   0  0  0  0  0  0  0  0  0  0  0  0
  -22.2710   -4.3410   21.3550 F   0  0  0  0  0  0  0  0  0  0  0  0
  -21.3710   -3.8390   26.0190 F   0  0  0  0  0  0  0  0  0  0  0  0
  -22.8040  -13.6430   21.0810 C   0  0  0  0  0  0  0  0  0  0  0  0
  -22.0690  -12.9580   21.9500 N   0  0  0  0  0  0  0  0  0  0  0  0
  -22.3730  -14.6640   20.5460 O   0  0  0  0  0  0  0  0  0  0  0  0
  -22.4340  -12.1320   22.4030 H   0  0  0  0  0  0  0  0  0  0  0  0
  -21.1300  -13.2600   22.1640 H   0  0  0  0  0  0  0  0  0  0  0  0
  -25.4490  -15.2860   20.2540 N   0  0  0  0  0  0  0  0  0  0  0  0
  -24.6820  -15.9460   20.3360 H   0  0  0  0  0  0  0  0  0  0  0  0
  -26.2960  -15.7030   19.8960 H   0  0  0  0  0  0  0  0  0  0  0  0
  -28.4740  -24.5780   19.0480 C   0  0  0  0  0  2  0  0  0  0  0  0
  -28.3130  -25.3600   20.3650 C   0  0  0  0  0  2  0  0  0  0  0  0
  -28.4040  -26.7710   20.1480 O   0  0  0  0  0  0  0  0  0  0  0  0
  -24.5890  -31.8870   23.2400 C   0  0  0  0  0  0  0  0  0  0  0  0
  -27.2170  -27.4690   20.1380 C   0  0  0  0  0  0  0  0  0  0  0  0
  -23.3710  -30.4900   21.6030 C   0  0  0  0  0  3  0  0  0  0  0  0
  -24.8160  -28.9580   20.1680 C   0  0  0  0  0  0  0  0  0  0  0  0
  -25.8930  -30.8570   21.3870 C   0  0  0  0  0  2  0  0  0  0  0  0
  -25.9760  -29.4880   20.7440 C   0  0  0  0  0  0  0  0  0  0  0  0
  -27.1800  -28.7530   20.7210 C   0  0  0  0  0  3  0  0  0  0  0  0
  -26.0360  -26.9470   19.5600 C   0  0  0  0  0  3  0  0  0  0  0  0
  -24.8380  -27.6860   19.5730 C   0  0  0  0  0  3  0  0  0  0  0  0
  -23.5700  -29.8140   20.2210 C   0  0  0  0  0  2  0  0  0  0  0  0
  -24.6360  -31.0910   22.1360 N   0  0  0  0  0  0  0  0  0  0  0  0
  -23.5110  -32.1600   23.7870 O   0  0  0  0  0  0  0  0  0  0  0  0
  -22.7260  -29.4660   22.5640 C   0  0  0  0  0  0  0  0  0  0  0  0
  -21.4010  -29.2830   22.4420 N   0  0  0  0  0  0  0  0  0  0  0  0
  -23.4140  -28.8380   23.3720 O   0  0  0  0  0  0  0  0  0  0  0  0
  -20.9060  -29.8400   21.7610 H   0  0  0  0  0  0  0  0  0  0  0  0
  -18.0300  -28.0890   22.9480 C   0  0  0  0  0  0  0  0  0  0  0  0
  -20.5890  -28.3450   23.2160 C   0  0  0  0  0  3  0  0  0  0  0  0
  -20.6910  -26.9140   22.6380 C   0  0  0  0  0  2  0  0  0  0  0  0
  -19.5870  -26.5920   21.6250 C   0  0  0  0  0  2  0  0  0  0  0  0
  -18.2070  -26.7390   22.2720 C   0  0  0  0  0  2  0  0  0  0  0  0
  -19.1500  -28.8490   23.3770 C   0  0  0  0  0  0  0  0  0  0  0  0
  -18.9340  -30.1140   23.9670 C   0  0  0  0  0  3  0  0  0  0  0  0
  -17.6310  -30.6200   24.1290 C   0  0  0  0  0  3  0  0  0  0  0  0
  -16.5250  -29.8550   23.7190 C   0  0  0  0  0  3  0  0  0  0  0  0
  -16.7250  -28.5910   23.1360 C   0  0  0  0  0  3  0  0  0  0  0  0
  -25.8800  -32.5140   23.8540 C   0  0  0  0  0  3  0  0  0  0  0  0
  -25.5760  -33.9100   24.1920 N   0  0  0  0  0  0  0  0  0  0  0  0
  -25.9090  -34.9630   23.4320 C   0  0  0  0  0  0  0  0  0  0  0  0
  -26.5760  -34.8610   22.3990 O   0  0  0  0  0  0  0  0  0  0  0  0
  -24.9830  -34.0650   24.9940 H   0  0  0  0  0  0  0  0  0  0  0  0
  -24.1830  -36.7580   23.0850 C   0  0  0  0  0  1  0  0  0  0  0  0
  -25.4240  -36.3500   23.8930 C   0  0  0  0  0  3  0  0  0  0  0  0
  -27.5650  -37.2270   24.7170 C   0  0  0  0  0  1  0  0  0  0  0  0
  -26.4590  -37.4010   23.7790 N   0  0  0  0  0  0  0  0  0  0  0  0
  -26.0560  -38.3220   23.9310 H   0  0  0  0  0  0  0  0  0  0  0  0
  -26.4090  -31.7340   25.1200 C   0  0  1  0  0  0  0  0  0  0  0  0
  -25.3260  -31.4900   26.1970 C   0  0  0  0  0  1  0  0  0  0  0  0
  -26.9870  -30.3590   24.7110 C   0  0  0  0  0  1  0  0  0  0  0  0
  -27.5680  -32.5220   25.7740 C   0  0  0  0  0  1  0  0  0  0  0  0
  1  5  2  0
  2  1  1  0
  3  2  2  0
  3  6  1  0
  4  3  1  0
  6  5  1  0
  7  8  1  0
  7  2  1  0
  8 10  1  0
 10 11  1  1
 10  9  1  0
 12 10  1  0
 12 13  1  0
 14 13  1  0
 15 20  1  0
 16 17  1  0
 16 15  1  0
 18 17  1  0
 18 25  1  0
 18 19  1  0
 20 14  1  0
 20 19  1  0
 21 14  2  0
 22 23  2  0
 23 42  1  0
 24 23  1  0
 24 27  1  0
 25 22  1  0
 25 26  1  0
 26 24  2  0
 27 28  1  0
 28 29  2  0
 30 33  1  0
 30 29  1  0
 31 30  2  0
 32 31  1  0
 32 27  2  0
 33 34  1  0
 34 35  1  0
 35 36  2  0
 37 36  1  0
 37 41  1  0
 38 37  2  0
 39 34  2  0
 39 38  1  0
 40 39  1  0
 42 43  1  0
 43 46  1  0
 43 45  1  0
 44 42  2  0
 47 48  1  0
 47 22  1  0
 49 47  1  0
 50  6  1  0
 50 51  1  0
 52 51  1  0
 53 64  2  0
 54 52  1  0
 54 59  1  0
 55 63  1  0
 55 65  1  0
 56 62  1  0
 56 58  1  0
 57 63  1  0
 58 57  1  0
 59 58  2  0
 60 61  1  0
 60 54  2  0
 61 56  2  0
 62 55  1  0
 63 53  1  0
 65 67  2  0
 66 65  1  0
 68 66  1  0
 69 78  2  0
 69 74  1  0
 70 66  1  0
 70 74  1  0
 71 70  1  0
 72 73  1  0
 72 71  1  0
 73 69  1  0
 74 75  2  0
 75 76  1  0
 77 76  2  0
 78 77  1  0
 79 53  1  0
 79 80  1  0
 79 89  1  0
 80 83  1  0
 81 85  1  0
 81 80  1  0
 82 81  2  0
 85 84  1  0
 87 85  1  0
 87 88  1  0
 87 86  1  0
 89 92  1  1
 89 90  1  0
 91 89  1  0
M  ISO  4  13 100  14 100  51 101  52 101
M  END
>  <TORSDO>  (27) 
F 23

>  <SCORE>  (27) 
-12.691

>  <name>  (27) 
27

>  <ligand_id>  (27) 
27

>  <original_smiles>  (27) 
[H]c1nn(C([H])([H])C([H])([H])Oc2c([H])c([H])c3c(c2[H])C([H])([H])N(C(=O)C([H])(N([H])C(=O)C([H])(N([H])C([H])([H])[H])C([H])([H])[H])C(C([H])([H])[H])(C([H])([H])[H])C([H])([H])[H])C([H])(C(=O)N([H])C2([H])c4c([H])c([H])c([H])c([H])c4C([H])([H])C([H])([H])C2([H])[H])C3([H])[H])c(C([H])([H])[H])c1C([H])([H])C([H])([H])[N+]([H])(C([H])([H])[H])C([H])([H])C([H])([H])C(=O)N1C([H])([H])C([H])([H])C([H])([H])C([H])(n2nc(-c3c([H])c([H])c(Oc4c([H])c([H])c(F)c([H])c4F)c([H])c3[H])c(C(=O)N([H])[H])c2N([H])[H])C1([H])[H]

>  <smiles>  (27) 
[H]c1nn(C([H])([H])C([H])([H])Oc2c([H])c([H])c3c(c2[H])C([H])([H])N(C(=O)C([H])(N([H])C(=O)C([H])(N([H])C([H])([H])[H])C([H])([H])[H])C(C([H])([H])[H])(C([H])([H])[H])C([H])([H])[H])C([H])(C(=O)N([H])C2([H])c4c([H])c([H])c([H])c([H])c4C([H])([H])C([H])([H])C2([H])[H])C3([H])[H])c(C([H])([H])[H])c1C([H])([H])C([H])([H])[N+]([H])(C([H])([H])[H])C([H])([H])C([H])([H])C(=O)N1C([H])([H])C([H])([H])C([H])([H])C([H])(n2nc(-c3c([H])c([H])c(Oc4c([H])c([H])c(F)c([H])c4F)c([H])c3[H])c(C(=O)N([H])[H])c2N([H])[H])C1([H])[H]

$$$$
28:0:0
     RDKit          3D

 92100  0  0  1  0  0  0  0  0999 V2000
  -30.8070  -21.9780   18.9250 C   0  0  0  0  0  3  0  0  0  0  0  0
  -29.6170  -22.7650   18.8860 C   0  0  0  0  0  0  0  0  0  0  0  0
  -29.6550  -20.0390   19.5810 C   0  0  0  0  0  0  0  0  0  0  0  0
  -28.4600  -20.8450   19.5870 C   0  0  0  0  0  0  0  0  0  0  0  0
  -30.8320  -20.6480   19.2660 N   0  0  0  0  0  0  0  0  0  0  0  0
  -28.4440  -22.1620   19.2000 N   0  0  0  0  0  0  0  0  0  0  0  0
  -26.2610  -19.7330   18.9600 C   0  0  0  0  0  1  0  0  0  0  0  0
  -26.3400  -21.4310   20.8550 C   0  0  0  0  0  1  0  0  0  0  0  0
  -27.1060  -20.3340   20.0930 C   0  0  0  0  0  3  0  0  0  0  0  0
  -29.5980  -24.2400   18.3300 C   0  0  0  0  0  3  0  0  0  0  0  0
  -28.8910  -25.4080   19.1410 C   0  0  0  0  0  3  0  0  0  0  0  0
  -28.7520  -26.7340   18.4940 O   0  0  0  0  0  0  0  0  0  0  0  0
  -24.7660  -31.0360   22.6940 C   0  0  0  0  0  0  0  0  0  0  0  0
  -27.5740  -27.4610   18.6810 C   0  0  0  0  0  0  0  0  0  0  0  0
  -23.6130  -29.9880   20.7760 C   0  0  0  0  0  3  0  0  0  0  0  0
  -25.1240  -28.8800   19.0340 C   0  0  0  0  0  0  0  0  0  0  0  0
  -26.1260  -30.4840   20.6650 C   0  0  0  0  0  2  0  0  0  0  0  0
  -26.2710  -29.2960   19.7240 C   0  0  0  0  0  0  0  0  0  0  0  0
  -27.5000  -28.6020   19.5350 C   0  0  0  0  0  3  0  0  0  0  0  0
  -26.4050  -27.0860   17.9870 C   0  0  0  0  0  3  0  0  0  0  0  0
  -25.1920  -27.7820   18.1590 C   0  0  0  0  0  3  0  0  0  0  0  0
  -23.8440  -29.6530   19.2770 C   0  0  0  0  0  2  0  0  0  0  0  0
  -24.8540  -30.5070   21.4380 N   0  0  0  0  0  0  0  0  0  0  0  0
  -23.6770  -31.1260   23.2810 O   0  0  0  0  0  0  0  0  0  0  0  0
  -23.0160  -28.7470   21.4800 C   0  0  0  0  0  0  0  0  0  0  0  0
  -21.6880  -28.5700   21.3700 N   0  0  0  0  0  0  0  0  0  0  0  0
  -23.7440  -27.9540   22.0830 O   0  0  0  0  0  0  0  0  0  0  0  0
  -21.1590  -29.2670   20.8650 H   0  0  0  0  0  0  0  0  0  0  0  0
  -18.3560  -27.2130   21.7310 C   0  0  0  0  0  0  0  0  0  0  0  0
  -20.9250  -27.4480   21.9150 C   0  0  0  0  0  3  0  0  0  0  0  0
  -21.0010  -26.2170   20.9810 C   0  0  0  0  0  2  0  0  0  0  0  0
  -19.8430  -26.1440   19.9810 C   0  0  0  0  0  2  0  0  0  0  0  0
  -18.5000  -26.0900   20.7170 C   0  0  0  0  0  2  0  0  0  0  0  0
  -19.4940  -27.8600   22.2810 C   0  0  0  0  0  0  0  0  0  0  0  0
  -19.3040  -28.9220   23.1920 C   0  0  0  0  0  3  0  0  0  0  0  0
  -18.0090  -29.3350   23.5550 C   0  0  0  0  0  3  0  0  0  0  0  0
  -16.8860  -28.6810   23.0200 C   0  0  0  0  0  3  0  0  0  0  0  0
  -17.0610  -27.6190   22.1140 C   0  0  0  0  0  3  0  0  0  0  0  0
  -26.0230  -31.5740   23.4450 C   0  0  0  0  0  3  0  0  0  0  0  0
  -25.6500  -32.8440   24.0840 N   0  0  0  0  0  0  0  0  0  0  0  0
  -26.0040  -34.0550   23.6350 C   0  0  0  0  0  0  0  0  0  0  0  0
  -26.7470  -34.2180   22.6630 O   0  0  0  0  0  0  0  0  0  0  0  0
  -24.9960  -32.7880   24.8510 H   0  0  0  0  0  0  0  0  0  0  0  0
  -24.2690  -35.8770   23.5880 C   0  0  0  0  0  1  0  0  0  0  0  0
  -25.4440  -35.2820   24.3810 C   0  0  0  0  0  3  0  0  0  0  0  0
  -27.4740  -35.9310   25.6020 C   0  0  0  0  0  1  0  0  0  0  0  0
  -26.4570  -36.3300   24.6310 N   0  0  0  0  0  0  0  0  0  0  0  0
  -26.0170  -37.1830   24.9670 H   0  0  0  0  0  0  0  0  0  0  0  0
  -26.5920  -30.5600   24.5120 C   0  0  1  0  0  0  0  0  0  0  0  0
  -25.5250  -30.0380   25.5030 C   0  0  0  0  0  1  0  0  0  0  0  0
  -27.2310  -29.3350   23.8180 C   0  0  0  0  0  1  0  0  0  0  0  0
  -27.7160  -31.2370   25.3320 C   0  0  0  0  0  1  0  0  0  0  0  0
  -29.6600  -18.5380   20.0790 C   0  0  0  0  0  3  0  0  0  0  0  0
  -30.7170  -17.4270   19.6170 C   0  0  0  0  0  3  0  0  0  0  0  0
  -31.4060  -14.9760   19.9530 C   0  0  0  0  0  0  0  0  0  0  0  0
  -31.2200  -12.6190   19.1500 C   0  0  0  0  0  2  0  0  0  0  0  0
  -30.2780  -12.5450   17.9280 C   0  0  0  0  0  2  0  0  0  0  0  0
  -28.8090  -12.4000   18.3730 C   0  0  0  0  0  2  0  0  0  0  0  0
  -28.4240  -13.4120   19.4840 C   0  0  0  0  0  3  0  0  0  0  0  0
  -29.4780  -13.4330   20.6090 C   0  0  0  0  0  2  0  0  0  0  0  0
  -30.7830  -13.7480   20.0020 N   0  0  0  0  0  0  0  0  0  0  0  0
  -32.4990  -15.0960   19.3890 O   0  0  0  0  0  0  0  0  0  0  0  0
  -30.5450  -16.2580   21.8170 C   0  0  0  0  0  1  0  0  0  0  0  0
  -30.7080  -16.0970   20.3650 N   0  0  0  0  0  0  0  0  0  0  0  0
  -26.0670  -14.0680   20.2690 C   0  0  0  0  0  0  0  0  0  0  0  0
  -24.9930  -13.3190   20.6700 C   0  0  0  0  0  0  0  0  0  0  0  0
  -25.4220  -11.9570   20.6290 C   0  0  0  0  0  0  0  0  0  0  0  0
  -27.0830  -13.1620   20.0050 N   0  0  0  0  0  0  0  0  0  0  0  0
  -26.7020  -11.8880   20.2830 N   0  0  0  0  0  0  0  0  0  0  0  0
  -24.6730  -10.7120   20.8450 C   0  0  0  0  0  0  0  0  0  0  0  0
  -25.0260   -9.8060   21.8680 C   0  0  0  0  0  3  0  0  0  0  0  0
  -24.2790   -8.6250   22.0680 C   0  0  0  0  0  3  0  0  0  0  0  0
  -23.1670   -8.3410   21.2410 C   0  0  0  0  0  0  0  0  0  0  0  0
  -22.8320   -9.2360   20.2090 C   0  0  0  0  0  3  0  0  0  0  0  0
  -23.5790  -10.4090   20.0100 C   0  0  0  0  0  3  0  0  0  0  0  0
  -22.3990   -7.2050   21.3430 O   0  0  0  0  0  0  0  0  0  0  0  0
  -22.0480   -6.6800   22.5600 C   0  0  0  0  0  0  0  0  0  0  0  0
  -21.3010   -7.4200   23.5030 C   0  0  0  0  0  3  0  0  0  0  0  0
  -20.9010   -6.8190   24.7130 C   0  0  0  0  0  3  0  0  0  0  0  0
  -21.2410   -5.4780   24.9790 C   0  0  0  0  0  0  0  0  0  0  0  0
  -21.9800   -4.7390   24.0400 C   0  0  0  0  0  3  0  0  0  0  0  0
  -22.3800   -5.3380   22.8330 C   0  0  0  0  0  0  0  0  0  0  0  0
  -23.0750   -4.6150   21.9220 F   0  0  0  0  0  0  0  0  0  0  0  0
  -20.8500   -4.8970   26.1390 F   0  0  0  0  0  0  0  0  0  0  0  0
  -23.6160  -13.8290   20.9800 C   0  0  0  0  0  0  0  0  0  0  0  0
  -22.9140  -13.1770   21.9010 N   0  0  0  0  0  0  0  0  0  0  0  0
  -23.1720  -14.8420   20.4420 O   0  0  0  0  0  0  0  0  0  0  0  0
  -23.2860  -12.3590   22.3600 H   0  0  0  0  0  0  0  0  0  0  0  0
  -21.9920  -13.5040   22.1530 H   0  0  0  0  0  0  0  0  0  0  0  0
  -26.2600  -15.4340   20.0870 N   0  0  0  0  0  0  0  0  0  0  0  0
  -25.5180  -16.1090   20.2230 H   0  0  0  0  0  0  0  0  0  0  0  0
  -27.1190  -15.8480   19.7450 H   0  0  0  0  0  0  0  0  0  0  0  0
  1  5  1  0
  2  1  2  0
  2  6  1  0
  3  4  1  0
  3 53  1  0
  4  9  1  0
  5  3  2  0
  6  4  2  0
  7  9  1  0
  9  8  1  0
 10  2  1  0
 10 11  2  0
 12 14  1  0
 12 11  1  0
 13 24  2  0
 14 19  1  0
 15 23  1  0
 15 25  1  0
 16 22  1  0
 16 18  1  0
 17 23  1  0
 18 17  1  0
 19 18  2  0
 20 21  1  0
 20 14  2  0
 21 16  2  0
 22 15  1  0
 23 13  1  0
 25 27  2  0
 26 25  1  0
 28 26  1  0
 29 38  2  0
 29 34  1  0
 30 26  1  0
 30 34  1  0
 31 30  1  0
 32 33  1  0
 32 31  1  0
 33 29  1  0
 34 35  2  0
 35 36  1  0
 37 36  2  0
 38 37  1  0
 39 13  1  0
 39 40  1  0
 39 49  1  0
 40 43  1  0
 41 40  1  0
 41 45  1  0
 42 41  2  0
 45 44  1  0
 45 47  1  0
 47 48  1  0
 47 46  1  0
 49 52  1  1
 49 50  1  0
 51 49  1  0
 54 53  2  0
 54 64  1  0
 55 61  1  0
 55 64  1  0
 56 61  1  0
 57 58  1  0
 57 56  1  0
 59 58  1  0
 59 68  1  0
 59 60  1  0
 61 60  1  0
 62 55  2  0
 64 63  1  0
 65 66  2  0
 66 85  1  0
 67 66  1  0
 67 70  1  0
 68 65  1  0
 68 69  1  0
 69 67  2  0
 70 71  1  0
 71 72  2  0
 73 76  1  0
 73 72  1  0
 74 73  2  0
 75 74  1  0
 75 70  2  0
 76 77  1  0
 77 82  2  0
 77 78  1  0
 78 79  2  0
 79 80  1  0
 80 84  1  0
 81 80  2  0
 82 81  1  0
 83 82  1  0
 85 86  1  0
 86 89  1  0
 86 88  1  0
 87 85  2  0
 90 91  1  0
 90 65  1  0
 92 90  1  0
M  ISO  4  11 101  12 101  55 100  64 100
M  END
>  <TORSDO>  (28) 
F 21

>  <SCORE>  (28) 
-7.149

>  <name>  (28) 
28

>  <ligand_id>  (28) 
28

>  <original_smiles>  (28) 
[H]c1nc(C([H])([H])C([H])([H])N(C(=O)N2C([H])([H])C([H])([H])C([H])([H])C([H])(n3nc(-c4c([H])c([H])c(Oc5c([H])c([H])c(F)c([H])c5F)c([H])c4[H])c(C(=O)N([H])[H])c3N([H])[H])C2([H])[H])C([H])([H])[H])c(C([H])(C([H])([H])[H])C([H])([H])[H])nc1C([H])([H])C([H])([H])Oc1c([H])c([H])c2c(c1[H])C([H])([H])N(C(=O)C([H])(N([H])C(=O)C([H])(N([H])C([H])([H])[H])C([H])([H])[H])C(C([H])([H])[H])(C([H])([H])[H])C([H])([H])[H])C([H])(C(=O)N([H])C1([H])c3c([H])c([H])c([H])c([H])c3C([H])([H])C([H])([H])C1([H])[H])C2([H])[H]

>  <smiles>  (28) 
[H]c1nc(C([H])([H])C([H])([H])N(C(=O)N2C([H])([H])C([H])([H])C([H])([H])C([H])(n3nc(-c4c([H])c([H])c(Oc5c([H])c([H])c(F)c([H])c5F)c([H])c4[H])c(C(=O)N([H])[H])c3N([H])[H])C2([H])[H])C([H])([H])[H])c(C([H])(C([H])([H])[H])C([H])([H])[H])nc1C([H])([H])C([H])([H])Oc1c([H])c([H])c2c(c1[H])C([H])([H])N(C(=O)C([H])(N([H])C(=O)C([H])(N([H])C([H])([H])[H])C([H])([H])[H])C(C([H])([H])[H])(C([H])([H])[H])C([H])([H])[H])C([H])(C(=O)N([H])C1([H])c3c([H])c([H])c([H])c([H])c3C([H])([H])C([H])([H])C1([H])[H])C2([H])[H]

$$$$
29:0:0
     RDKit          3D

 92100  0  0  1  0  0  0  0  0999 V2000
  -29.2110  -21.9040   19.5710 C   0  0  0  0  0  3  0  0  0  0  0  0
  -29.7480  -20.6520   19.8120 C   0  0  0  0  0  0  0  0  0  0  0  0
  -30.6830  -20.8080   20.8360 N   0  0  0  0  0  0  0  0  0  0  0  0
  -30.7260  -22.0540   21.2160 N   0  0  0  0  0  0  0  0  0  0  0  0
  -29.8220  -22.7620   20.4870 N   0  0  0  0  0  0  0  0  0  0  0  0
  -29.7620  -24.2360   20.7020 C   0  0  0  0  0  2  0  0  0  0  0  0
  -28.4050  -24.9780   20.4790 C   0  0  0  0  0  2  0  0  0  0  0  0
  -28.5080  -26.4320   20.6160 O   0  0  0  0  0  0  0  0  0  0  0  0
  -24.5140  -31.7540   23.2870 C   0  0  0  0  0  0  0  0  0  0  0  0
  -27.3450  -27.1900   20.5060 C   0  0  0  0  0  0  0  0  0  0  0  0
  -23.4090  -30.2890   21.6310 C   0  0  0  0  0  3  0  0  0  0  0  0
  -24.9480  -28.7180   20.3340 C   0  0  0  0  0  0  0  0  0  0  0  0
  -25.9450  -30.6530   21.5580 C   0  0  0  0  0  2  0  0  0  0  0  0
  -26.0760  -29.2610   20.9640 C   0  0  0  0  0  0  0  0  0  0  0  0
  -27.2780  -28.5070   21.0360 C   0  0  0  0  0  3  0  0  0  0  0  0
  -26.1920  -26.6790   19.8650 C   0  0  0  0  0  3  0  0  0  0  0  0
  -25.0050  -27.4300   19.7790 C   0  0  0  0  0  3  0  0  0  0  0  0
  -23.6980  -29.5710   20.2860 C   0  0  0  0  0  2  0  0  0  0  0  0
  -24.6380  -30.9170   22.2170 N   0  0  0  0  0  0  0  0  0  0  0  0
  -23.4010  -32.0310   23.7590 O   0  0  0  0  0  0  0  0  0  0  0  0
  -22.7140  -29.2920   22.5880 C   0  0  0  0  0  0  0  0  0  0  0  0
  -21.4010  -29.0900   22.3960 N   0  0  0  0  0  0  0  0  0  0  0  0
  -23.3580  -28.7020   23.4590 O   0  0  0  0  0  0  0  0  0  0  0  0
  -20.9420  -29.6190   21.6670 H   0  0  0  0  0  0  0  0  0  0  0  0
  -18.0120  -27.8840   22.7640 C   0  0  0  0  0  0  0  0  0  0  0  0
  -20.5530  -28.1680   23.1520 C   0  0  0  0  0  3  0  0  0  0  0  0
  -20.6910  -26.7220   22.6200 C   0  0  0  0  0  2  0  0  0  0  0  0
  -19.6420  -26.3640   21.5640 C   0  0  0  0  0  2  0  0  0  0  0  0
  -18.2300  -26.5180   22.1350 C   0  0  0  0  0  2  0  0  0  0  0  0
  -19.1040  -28.6650   23.2270 C   0  0  0  0  0  0  0  0  0  0  0  0
  -18.8490  -29.9430   23.7710 C   0  0  0  0  0  3  0  0  0  0  0  0
  -17.5350  -30.4390   23.8590 C   0  0  0  0  0  3  0  0  0  0  0  0
  -16.4570  -29.6550   23.4140 C   0  0  0  0  0  3  0  0  0  0  0  0
  -16.6960  -28.3800   22.8720 C   0  0  0  0  0  3  0  0  0  0  0  0
  -25.7570  -32.4190   23.9530 C   0  0  0  0  0  3  0  0  0  0  0  0
  -25.4180  -33.8230   24.2210 N   0  0  0  0  0  0  0  0  0  0  0  0
  -25.7960  -34.8560   23.4570 C   0  0  0  0  0  0  0  0  0  0  0  0
  -26.5370  -34.7290   22.4780 O   0  0  0  0  0  0  0  0  0  0  0  0
  -24.7690  -33.9950   24.9750 H   0  0  0  0  0  0  0  0  0  0  0  0
  -24.0940  -36.6290   22.9260 C   0  0  0  0  0  1  0  0  0  0  0  0
  -25.2710  -36.2530   23.8410 C   0  0  0  0  0  3  0  0  0  0  0  0
  -27.3310  -37.1710   24.8090 C   0  0  0  0  0  1  0  0  0  0  0  0
  -26.3050  -37.3090   23.7800 N   0  0  0  0  0  0  0  0  0  0  0  0
  -25.8860  -38.2300   23.8700 H   0  0  0  0  0  0  0  0  0  0  0  0
  -26.2150  -31.6940   25.2780 C   0  0  1  0  0  0  0  0  0  0  0  0
  -25.0650  -31.4480   26.2820 C   0  0  0  0  0  1  0  0  0  0  0  0
  -26.8600  -30.3250   24.9560 C   0  0  0  0  0  1  0  0  0  0  0  0
  -27.3000  -32.5360   25.9880 C   0  0  0  0  0  1  0  0  0  0  0  0
  -29.4060  -19.2720   19.1990 C   0  0  0  0  0  3  0  0  0  0  0  0
  -31.6570  -18.8880   18.1740 C   0  0  0  0  0  1  0  0  0  0  0  0
  -30.5440  -18.2960   18.9560 N   0  0  1  0  0  4  0  0  0  0  0  0
  -30.1330  -17.6460   18.3040 H   0  0  0  0  0  0  0  0  0  0  0  0
  -31.0340  -17.4130   20.0870 C   0  0  0  0  0  2  0  0  0  0  0  0
  -30.2990  -16.0190   20.2700 C   0  0  0  0  0  2  0  0  0  0  0  0
  -31.0340  -14.7020   19.8340 C   0  0  0  0  0  0  0  0  0  0  0  0
  -30.7700  -12.3500   19.0780 C   0  0  0  0  0  2  0  0  0  0  0  0
  -29.7890  -12.3220   17.8870 C   0  0  0  0  0  2  0  0  0  0  0  0
  -28.3290  -12.2340   18.3810 C   0  0  0  0  0  2  0  0  0  0  0  0
  -28.0120  -13.2710   19.4890 C   0  0  0  0  0  3  0  0  0  0  0  0
  -29.1040  -13.2680   20.5830 C   0  0  0  0  0  2  0  0  0  0  0  0
  -30.4020  -13.4940   19.9310 N   0  0  0  0  0  0  0  0  0  0  0  0
  -32.1460  -14.7930   19.3070 O   0  0  0  0  0  0  0  0  0  0  0  0
  -25.7310  -14.0210   20.4100 C   0  0  0  0  0  0  0  0  0  0  0  0
  -24.6280  -13.3150   20.8110 C   0  0  0  0  0  0  0  0  0  0  0  0
  -24.9690  -11.9360   20.6650 C   0  0  0  0  0  0  0  0  0  0  0  0
  -26.6780  -13.0750   20.0510 N   0  0  0  0  0  0  0  0  0  0  0  0
  -26.2280  -11.8110   20.2620 N   0  0  0  0  0  0  0  0  0  0  0  0
  -24.1520  -10.7270   20.8320 C   0  0  0  0  0  0  0  0  0  0  0  0
  -24.5330   -9.6950   21.7170 C   0  0  0  0  0  3  0  0  0  0  0  0
  -23.7220   -8.5500   21.8730 C   0  0  0  0  0  3  0  0  0  0  0  0
  -22.5150   -8.4310   21.1440 C   0  0  0  0  0  0  0  0  0  0  0  0
  -22.1520   -9.4510   20.2470 C   0  0  0  0  0  3  0  0  0  0  0  0
  -22.9630  -10.5880   20.0890 C   0  0  0  0  0  3  0  0  0  0  0  0
  -21.6760   -7.3440   21.2120 O   0  0  0  0  0  0  0  0  0  0  0  0
  -21.5670   -6.5910   22.3540 C   0  0  0  0  0  0  0  0  0  0  0  0
  -21.1550   -7.1530   23.5820 C   0  0  0  0  0  3  0  0  0  0  0  0
  -20.9890   -6.3290   24.7130 C   0  0  0  0  0  3  0  0  0  0  0  0
  -21.2250   -4.9440   24.6170 C   0  0  0  0  0  0  0  0  0  0  0  0
  -21.6300   -4.3830   23.3940 C   0  0  0  0  0  3  0  0  0  0  0  0
  -21.7980   -5.2040   22.2650 C   0  0  0  0  0  0  0  0  0  0  0  0
  -22.1690   -4.6530   21.0840 F   0  0  0  0  0  0  0  0  0  0  0  0
  -21.0590   -4.1520   25.7020 F   0  0  0  0  0  0  0  0  0  0  0  0
  -23.2980  -13.8850   21.2110 C   0  0  0  0  0  0  0  0  0  0  0  0
  -22.5750  -13.1980   22.0880 N   0  0  0  0  0  0  0  0  0  0  0  0
  -22.9140  -14.9730   20.7820 O   0  0  0  0  0  0  0  0  0  0  0  0
  -22.8980  -12.3160   22.4560 H   0  0  0  0  0  0  0  0  0  0  0  0
  -21.6820  -13.5600   22.3970 H   0  0  0  0  0  0  0  0  0  0  0  0
  -25.9970  -15.3820   20.2990 N   0  0  0  0  0  0  0  0  0  0  0  0
  -25.2850  -16.0800   20.4830 H   0  0  0  0  0  0  0  0  0  0  0  0
  -26.8360  -15.7680   19.8880 H   0  0  0  0  0  0  0  0  0  0  0  0
  -26.8770  -19.4610   19.7430 C   0  0  0  0  0  1  0  0  0  0  0  0
  -28.1650  -18.6320   19.8760 C   0  0  0  0  0  2  0  0  0  0  0  0
  1  2  2  0
  1  5  1  0
  2  3  1  0
  3  4  2  0
  5  6  1  0
  5  4  1  0
  7  8  1  0
  7  6  1  0
  9 20  2  0
 10  8  1  0
 10 15  1  0
 11 19  1  0
 11 21  1  0
 12 14  1  0
 13 19  1  0
 14 15  2  0
 14 13  1  0
 16 10  2  0
 17 16  1  0
 17 12  2  0
 18 12  1  0
 18 11  1  0
 19  9  1  0
 21 23  2  0
 22 21  1  0
 24 22  1  0
 25 34  2  0
 25 30  1  0
 26 22  1  0
 26 30  1  0
 27 26  1  0
 28 29  1  0
 28 27  1  0
 29 25  1  0
 30 31  2  0
 31 32  1  0
 33 32  2  0
 34 33  1  0
 35  9  1  0
 35 36  1  0
 35 45  1  0
 36 39  1  0
 37 41  1  0
 37 36  1  0
 38 37  2  0
 41 40  1  0
 43 41  1  0
 43 44  1  0
 43 42  1  0
 45 48  1  1
 45 46  1  0
 47 45  1  0
 49  2  1  0
 49 92  1  0
 50 51  1  0
 51 49  1  0
 51 53  1  0
 51 52  1  6
 53 54  1  0
 55 61  1  0
 55 54  1  0
 56 61  1  0
 57 58  1  0
 57 56  1  0
 59 58  1  0
 59 66  1  0
 59 60  1  0
 61 60  1  0
 62 55  2  0
 63 64  2  0
 64 83  1  0
 65 64  1  0
 65 68  1  0
 66 67  1  0
 66 63  1  0
 67 65  2  0
 68 69  1  0
 69 70  2  0
 71 74  1  0
 71 70  1  0
 72 71  2  0
 73 72  1  0
 73 68  2  0
 74 75  1  0
 75 76  1  0
 76 77  2  0
 78 77  1  0
 78 82  1  0
 79 78  2  0
 80 75  2  0
 80 79  1  0
 81 80  1  0
 83 84  1  0
 84 87  1  0
 84 86  1  0
 85 83  2  0
 88 63  1  0
 88 89  1  0
 90 88  1  0
 91 92  1  0
M  ISO  4   7 101   8 101  54 100  55 100
M  END
>  <TORSDO>  (29) 
F 23

>  <SCORE>  (29) 
-12.080

>  <name>  (29) 
29

>  <ligand_id>  (29) 
29

>  <original_smiles>  (29) 
[H]c1c([H])c([H])c2c(c1[H])C([H])([H])C([H])([H])C([H])([H])C2([H])N([H])C(=O)C1([H])N(C(=O)C([H])(N([H])C(=O)C([H])(N([H])C([H])([H])[H])C([H])([H])[H])C(C([H])([H])[H])(C([H])([H])[H])C([H])([H])[H])C([H])([H])c2c([H])c(OC([H])([H])C([H])([H])n3nnc(C([H])(C([H])([H])C([H])([H])[H])[N+]([H])(C([H])([H])[H])C([H])([H])C([H])([H])C(=O)N4C([H])([H])C([H])([H])C([H])([H])C([H])(n5nc(-c6c([H])c([H])c(Oc7c([H])c([H])c(F)c([H])c7F)c([H])c6[H])c(C(=O)N([H])[H])c5N([H])[H])C4([H])[H])c3[H])c([H])c([H])c2C1([H])[H]

>  <smiles>  (29) 
[H]c1c([H])c([H])c2c(c1[H])C([H])([H])C([H])([H])C([H])([H])C2([H])N([H])C(=O)C1([H])N(C(=O)C([H])(N([H])C(=O)C([H])(N([H])C([H])([H])[H])C([H])([H])[H])C(C([H])([H])[H])(C([H])([H])[H])C([H])([H])[H])C([H])([H])c2c([H])c(OC([H])([H])C([H])([H])n3nnc(C([H])(C([H])([H])C([H])([H])[H])[N+]([H])(C([H])([H])[H])C([H])([H])C([H])([H])C(=O)N4C([H])([H])C([H])([H])C([H])([H])C([H])(n5nc(-c6c([H])c([H])c(Oc7c([H])c([H])c(F)c([H])c7F)c([H])c6[H])c(C(=O)N([H])[H])c5N([H])[H])C4([H])[H])c3[H])c([H])c([H])c2C1([H])[H]

$$$$
30:0:0
     RDKit          3D

 90 98  0  0  1  0  0  0  0  0999 V2000
  -28.9610  -21.1200   19.0970 C   0  0  0  0  0  0  0  0  0  0  0  0
  -29.2920  -21.8120   20.2510 C   0  0  0  0  0  0  0  0  0  0  0  0
  -29.7850  -19.4320   20.3670 C   0  0  0  0  0  0  0  0  0  0  0  0
  -30.4190  -20.8400   22.3510 C   0  0  0  0  0  1  0  0  0  0  0  0
  -29.2370  -19.7240   19.1800 N   0  0  0  0  0  0  0  0  0  0  0  0
  -29.8320  -20.6830   21.0330 N   0  0  0  0  0  0  0  0  0  0  0  0
  -27.0740  -21.2580   17.4240 C   0  0  0  0  0  1  0  0  0  0  0  0
  -28.4880  -21.7060   17.7990 C   0  0  0  0  0  2  0  0  0  0  0  0
  -29.3180  -23.4560   20.5630 C   0  0  0  0  0  3  0  0  0  0  0  0
  -28.2700  -24.7210   20.0860 C   0  0  0  0  0  3  0  0  0  0  0  0
  -28.4610  -26.2720   20.2920 O   0  0  0  0  0  0  0  0  0  0  0  0
  -24.7490  -31.9220   23.2810 C   0  0  0  0  0  0  0  0  0  0  0  0
  -27.3940  -27.2510   20.2090 C   0  0  0  0  0  0  0  0  0  0  0  0
  -23.5690  -30.5290   21.6220 C   0  0  0  0  0  3  0  0  0  0  0  0
  -25.0430  -28.9830   20.1820 C   0  0  0  0  0  0  0  0  0  0  0  0
  -26.1200  -30.8240   21.4660 C   0  0  0  0  0  2  0  0  0  0  0  0
  -26.2150  -29.4360   20.7990 C   0  0  0  0  0  0  0  0  0  0  0  0
  -27.3900  -28.5890   20.7900 C   0  0  0  0  0  3  0  0  0  0  0  0
  -26.1910  -26.9060   19.5510 C   0  0  0  0  0  3  0  0  0  0  0  0
  -25.0490  -27.7370   19.5340 C   0  0  0  0  0  3  0  0  0  0  0  0
  -23.8060  -29.8680   20.2350 C   0  0  0  0  0  2  0  0  0  0  0  0
  -24.8320  -31.1130   22.1790 N   0  0  0  0  0  0  0  0  0  0  0  0
  -23.6580  -32.1860   23.8100 O   0  0  0  0  0  0  0  0  0  0  0  0
  -22.8970  -29.5070   22.5750 C   0  0  0  0  0  0  0  0  0  0  0  0
  -21.5770  -29.3030   22.4270 N   0  0  0  0  0  0  0  0  0  0  0  0
  -23.5700  -28.9000   23.4120 O   0  0  0  0  0  0  0  0  0  0  0  0
  -21.0910  -29.8460   21.7260 H   0  0  0  0  0  0  0  0  0  0  0  0
  -18.2290  -27.9840   22.8550 C   0  0  0  0  0  0  0  0  0  0  0  0
  -20.7680  -28.3450   23.1880 C   0  0  0  0  0  3  0  0  0  0  0  0
  -20.9370  -26.9110   22.6330 C   0  0  0  0  0  2  0  0  0  0  0  0
  -19.8760  -26.5360   21.5930 C   0  0  0  0  0  2  0  0  0  0  0  0
  -18.4730  -26.6360   22.1980 C   0  0  0  0  0  2  0  0  0  0  0  0
  -19.3060  -28.7920   23.3080 C   0  0  0  0  0  0  0  0  0  0  0  0
  -19.0220  -30.0480   23.8860 C   0  0  0  0  0  3  0  0  0  0  0  0
  -17.6940  -30.4980   24.0190 C   0  0  0  0  0  3  0  0  0  0  0  0
  -16.6320  -29.6870   23.5820 C   0  0  0  0  0  3  0  0  0  0  0  0
  -16.8990  -28.4340   23.0040 C   0  0  0  0  0  3  0  0  0  0  0  0
  -26.0160  -32.5690   23.9190 C   0  0  0  0  0  3  0  0  0  0  0  0
  -26.5050  -31.8290   25.2250 C   0  0  1  0  0  0  0  0  0  0  0  0
  -25.3900  -31.6160   26.2760 C   0  0  0  0  0  1  0  0  0  0  0  0
  -27.0950  -30.4410   24.8810 C   0  0  0  0  0  1  0  0  0  0  0  0
  -27.6420  -32.6380   25.8910 C   0  0  0  0  0  1  0  0  0  0  0  0
  -25.7040  -33.9750   24.2180 N   0  0  0  0  0  0  0  0  0  0  0  0
  -26.0470  -35.0170   23.4480 C   0  0  0  0  0  0  0  0  0  0  0  0
  -26.7260  -34.8930   22.4250 O   0  0  0  0  0  0  0  0  0  0  0  0
  -25.1110  -34.1470   25.0150 H   0  0  0  0  0  0  0  0  0  0  0  0
  -24.3440  -36.8270   23.0350 C   0  0  0  0  0  1  0  0  0  0  0  0
  -25.5610  -36.4150   23.8790 C   0  0  0  0  0  3  0  0  0  0  0  0
  -27.6730  -37.3080   24.7620 C   0  0  0  0  0  1  0  0  0  0  0  0
  -26.6040  -37.4590   23.7790 N   0  0  0  0  0  0  0  0  0  0  0  0
  -26.2000  -38.3850   23.8900 H   0  0  0  0  0  0  0  0  0  0  0  0
  -30.4360  -17.9640   20.8560 C   0  0  0  0  0  2  0  0  0  0  0  0
  -30.8880  -15.2430   20.4750 C   0  0  0  0  0  0  0  0  0  0  0  0
  -30.8080  -12.8300   19.6440 C   0  0  0  0  0  2  0  0  0  0  0  0
  -29.9340  -12.6740   18.3790 C   0  0  0  0  0  2  0  0  0  0  0  0
  -28.4540  -12.4650   18.7560 C   0  0  0  0  0  2  0  0  0  0  0  0
  -27.9770  -13.4420   19.8660 C   0  0  0  0  0  3  0  0  0  0  0  0
  -28.9890  -13.5710   21.0230 C   0  0  0  0  0  2  0  0  0  0  0  0
  -30.2690  -13.9830   20.4260 N   0  0  0  0  0  0  0  0  0  0  0  0
  -32.1240  -15.2360   20.4470 O   0  0  0  0  0  0  0  0  0  0  0  0
  -29.4800  -16.6050   19.0030 C   0  0  0  0  0  1  0  0  0  0  0  0
  -30.1600  -16.4860   20.2950 N   0  0  0  0  0  0  0  0  0  0  0  0
  -25.5870  -14.0470   20.5250 C   0  0  0  0  0  0  0  0  0  0  0  0
  -24.5000  -13.2850   20.8550 C   0  0  0  0  0  0  0  0  0  0  0  0
  -24.9540  -11.9300   20.8550 C   0  0  0  0  0  0  0  0  0  0  0  0
  -26.6290  -13.1550   20.3300 N   0  0  0  0  0  0  0  0  0  0  0  0
  -26.2570  -11.8780   20.5960 N   0  0  0  0  0  0  0  0  0  0  0  0
  -24.2080  -10.6760   21.0250 C   0  0  0  0  0  0  0  0  0  0  0  0
  -24.5740   -9.7250   22.0040 C   0  0  0  0  0  3  0  0  0  0  0  0
  -23.8260   -8.5380   22.1600 C   0  0  0  0  0  3  0  0  0  0  0  0
  -22.7000   -8.2940   21.3400 C   0  0  0  0  0  0  0  0  0  0  0  0
  -22.3550   -9.2320   20.3520 C   0  0  0  0  0  3  0  0  0  0  0  0
  -23.1020  -10.4110   20.1920 C   0  0  0  0  0  3  0  0  0  0  0  0
  -21.9310   -7.1560   21.4050 O   0  0  0  0  0  0  0  0  0  0  0  0
  -21.7790   -6.4570   22.5750 C   0  0  0  0  0  0  0  0  0  0  0  0
  -21.1940   -7.0400   23.7200 C   0  0  0  0  0  3  0  0  0  0  0  0
  -20.9950   -6.2640   24.8800 C   0  0  0  0  0  3  0  0  0  0  0  0
  -21.3690   -4.9070   24.8930 C   0  0  0  0  0  0  0  0  0  0  0  0
  -21.9440   -4.3230   23.7520 C   0  0  0  0  0  3  0  0  0  0  0  0
  -22.1470   -5.0970   22.5950 C   0  0  0  0  0  0  0  0  0  0  0  0
  -22.6850   -4.5260   21.4900 F   0  0  0  0  0  0  0  0  0  0  0  0
  -21.1680   -4.1580   26.0040 F   0  0  0  0  0  0  0  0  0  0  0  0
  -23.0990  -13.7800   21.0600 C   0  0  0  0  0  0  0  0  0  0  0  0
  -22.3290  -13.1010   21.9050 N   0  0  0  0  0  0  0  0  0  0  0  0
  -22.6950  -14.8020   20.5080 O   0  0  0  0  0  0  0  0  0  0  0  0
  -22.6730  -12.2790   22.3750 H   0  0  0  0  0  0  0  0  0  0  0  0
  -21.3840  -13.4100   22.0810 H   0  0  0  0  0  0  0  0  0  0  0  0
  -25.7730  -15.4140   20.3470 N   0  0  0  0  0  0  0  0  0  0  0  0
  -25.0130  -16.0810   20.4240 H   0  0  0  0  0  0  0  0  0  0  0  0
  -26.6520  -15.8390   20.0810 H   0  0  0  0  0  0  0  0  0  0  0  0
  1  5  1  0
  1  2  2  0
  2  9  1  0
  2  6  1  0
  3 52  1  0
  3  6  1  0
  5  3  2  0
  6  4  1  0
  7  8  1  0
  8  1  1  0
 10 11  1  0
 10  9  2  0
 12 23  2  0
 13 11  1  0
 13 18  1  0
 14 22  1  0
 14 24  1  0
 15 21  1  0
 15 17  1  0
 16 22  1  0
 17 16  1  0
 18 17  2  0
 19 13  2  0
 20 19  1  0
 20 15  2  0
 21 14  1  0
 22 12  1  0
 24 26  2  0
 25 24  1  0
 27 25  1  0
 28 37  2  0
 28 33  1  0
 29 25  1  0
 29 33  1  0
 30 29  1  0
 31 32  1  0
 31 30  1  0
 32 28  1  0
 33 34  2  0
 34 35  1  0
 36 35  2  0
 37 36  1  0
 38 12  1  0
 38 43  1  0
 38 39  1  0
 39 42  1  1
 39 40  1  0
 41 39  1  0
 43 46  1  0
 44 48  1  0
 44 43  1  0
 45 44  2  0
 48 47  1  0
 50 48  1  0
 50 51  1  0
 50 49  1  0
 54 59  1  0
 55 56  1  0
 55 54  1  0
 57 56  1  0
 57 66  1  0
 57 58  1  0
 59 53  1  0
 59 58  1  0
 60 53  2  0
 61 62  1  0
 62 53  1  0
 62 52  1  0
 63 64  2  0
 64 65  1  0
 64 83  1  0
 65 68  1  0
 66 63  1  0
 66 67  1  0
 67 65  2  0
 68 69  1  0
 69 70  2  0
 71 74  1  0
 71 70  1  0
 72 71  2  0
 73 72  1  0
 73 68  2  0
 74 75  1  0
 75 80  2  0
 75 76  1  0
 76 77  2  0
 77 78  1  0
 78 82  1  0
 79 78  2  0
 80 79  1  0
 81 80  1  0
 83 84  1  0
 84 87  1  0
 84 86  1  0
 85 83  2  0
 88 89  1  0
 88 63  1  0
 90 88  1  0
M  ISO  4  10 101  11 101  53 100  62 100
M  END
>  <TORSDO>  (30) 
F 20

>  <SCORE>  (30) 
-14.153

>  <name>  (30) 
30

>  <ligand_id>  (30) 
30

>  <original_smiles>  (30) 
[H]c1c([H])c([H])c2c(c1[H])C([H])([H])C([H])([H])C([H])([H])C2([H])N([H])C(=O)C1([H])N(C(=O)C([H])(N([H])C(=O)C([H])(N([H])C([H])([H])[H])C([H])([H])[H])C(C([H])([H])[H])(C([H])([H])[H])C([H])([H])[H])C([H])([H])c2c([H])c(OC([H])([H])C([H])([H])c3c(C([H])([H])C([H])([H])[H])nc(C([H])([H])N(C(=O)N4C([H])([H])C([H])([H])C([H])([H])C([H])(n5nc(-c6c([H])c([H])c(Oc7c([H])c([H])c(F)c([H])c7F)c([H])c6[H])c(C(=O)N([H])[H])c5N([H])[H])C4([H])[H])C([H])([H])[H])n3C([H])([H])[H])c([H])c([H])c2C1([H])[H]

>  <smiles>  (30) 
[H]c1c([H])c([H])c2c(c1[H])C([H])([H])C([H])([H])C([H])([H])C2([H])N([H])C(=O)C1([H])N(C(=O)C([H])(N([H])C(=O)C([H])(N([H])C([H])([H])[H])C([H])([H])[H])C(C([H])([H])[H])(C([H])([H])[H])C([H])([H])[H])C([H])([H])c2c([H])c(OC([H])([H])C([H])([H])c3c(C([H])([H])C([H])([H])[H])nc(C([H])([H])N(C(=O)N4C([H])([H])C([H])([H])C([H])([H])C([H])(n5nc(-c6c([H])c([H])c(Oc7c([H])c([H])c(F)c([H])c7F)c([H])c6[H])c(C(=O)N([H])[H])c5N([H])[H])C4([H])[H])C([H])([H])[H])n3C([H])([H])[H])c([H])c([H])c2C1([H])[H]

$$$$
31:0:0
     RDKit          3D

 92100  0  0  1  0  0  0  0  0999 V2000
  -29.8220  -21.1070   21.1490 C   0  0  0  0  0  3  0  0  0  0  0  0
  -28.9500  -21.3740   20.0540 C   0  0  0  0  0  0  0  0  0  0  0  0
  -28.5150  -20.0990   19.7150 C   0  0  0  0  0  0  0  0  0  0  0  0
  -27.5630  -19.6710   18.6460 C   0  0  0  0  0  1  0  0  0  0  0  0
  -29.9030  -19.8170   21.4560 N   0  0  0  0  0  0  0  0  0  0  0  0
  -29.1160  -19.1610   20.5700 N   0  0  0  0  0  0  0  0  0  0  0  0
  -28.6630  -22.7500   19.3910 C   0  0  0  0  0  2  0  0  0  0  0  0
  -28.5820  -24.0480   20.2890 C   0  0  0  0  0  2  0  0  0  0  0  0
  -28.7560  -25.4040   19.5000 C   0  0  0  0  0  2  0  0  0  0  0  0
  -28.5980  -26.6690   20.2220 O   0  0  0  0  0  0  0  0  0  0  0  0
  -24.6520  -31.8430   23.2300 C   0  0  0  0  0  0  0  0  0  0  0  0
  -27.4190  -27.4120   20.1670 C   0  0  0  0  0  0  0  0  0  0  0  0
  -23.5090  -30.4420   21.5480 C   0  0  0  0  0  3  0  0  0  0  0  0
  -25.0130  -28.9420   20.1360 C   0  0  0  0  0  0  0  0  0  0  0  0
  -26.0390  -30.8250   21.4150 C   0  0  0  0  0  2  0  0  0  0  0  0
  -26.1560  -29.4590   20.7590 C   0  0  0  0  0  0  0  0  0  0  0  0
  -27.3600  -28.7030   20.7650 C   0  0  0  0  0  3  0  0  0  0  0  0
  -26.2450  -26.9250   19.5470 C   0  0  0  0  0  3  0  0  0  0  0  0
  -25.0590  -27.6790   19.5250 C   0  0  0  0  0  3  0  0  0  0  0  0
  -23.7590  -29.7870   20.1650 C   0  0  0  0  0  2  0  0  0  0  0  0
  -24.7510  -31.0520   22.1240 N   0  0  0  0  0  0  0  0  0  0  0  0
  -23.5510  -32.0910   23.7460 O   0  0  0  0  0  0  0  0  0  0  0  0
  -22.8490  -29.3970   22.4800 C   0  0  0  0  0  0  0  0  0  0  0  0
  -21.5330  -29.1880   22.3140 N   0  0  0  0  0  0  0  0  0  0  0  0
  -23.5220  -28.7800   23.3100 O   0  0  0  0  0  0  0  0  0  0  0  0
  -21.0500  -29.7410   21.6200 H   0  0  0  0  0  0  0  0  0  0  0  0
  -18.1740  -27.9150   22.7090 C   0  0  0  0  0  0  0  0  0  0  0  0
  -20.7170  -28.2250   23.0530 C   0  0  0  0  0  3  0  0  0  0  0  0
  -20.8660  -26.8010   22.4670 C   0  0  0  0  0  2  0  0  0  0  0  0
  -19.8000  -26.4650   21.4200 C   0  0  0  0  0  2  0  0  0  0  0  0
  -18.3990  -26.5760   22.0280 C   0  0  0  0  0  2  0  0  0  0  0  0
  -19.2630  -28.6960   23.1770 C   0  0  0  0  0  0  0  0  0  0  0  0
  -19.0000  -29.9500   23.7720 C   0  0  0  0  0  3  0  0  0  0  0  0
  -17.6810  -30.4200   23.9060 C   0  0  0  0  0  3  0  0  0  0  0  0
  -16.6050  -29.6340   23.4550 C   0  0  0  0  0  3  0  0  0  0  0  0
  -16.8530  -28.3840   22.8630 C   0  0  0  0  0  3  0  0  0  0  0  0
  -25.9080  -32.4930   23.8880 C   0  0  0  0  0  3  0  0  0  0  0  0
  -25.5750  -33.8890   24.1990 N   0  0  0  0  0  0  0  0  0  0  0  0
  -25.9200  -34.9400   23.4430 C   0  0  0  0  0  0  0  0  0  0  0  0
  -26.6220  -34.8370   22.4340 O   0  0  0  0  0  0  0  0  0  0  0  0
  -24.9610  -34.0440   24.9840 H   0  0  0  0  0  0  0  0  0  0  0  0
  -24.1910  -36.7150   23.0160 C   0  0  0  0  0  1  0  0  0  0  0  0
  -25.4040  -36.3270   23.8750 C   0  0  0  0  0  3  0  0  0  0  0  0
  -27.4970  -37.2360   24.7830 C   0  0  0  0  0  1  0  0  0  0  0  0
  -26.4320  -37.3880   23.7950 N   0  0  0  0  0  0  0  0  0  0  0  0
  -26.0120  -38.3060   23.9190 H   0  0  0  0  0  0  0  0  0  0  0  0
  -26.3920  -31.7350   25.1850 C   0  0  1  0  0  0  0  0  0  0  0  0
  -25.2660  -31.4860   26.2160 C   0  0  0  0  0  1  0  0  0  0  0  0
  -27.0070  -30.3660   24.8170 C   0  0  0  0  0  1  0  0  0  0  0  0
  -27.5090  -32.5480   25.8810 C   0  0  0  0  0  1  0  0  0  0  0  0
  -28.9050  -17.6900   20.7700 C   0  0  0  0  0  2  0  0  0  0  0  0
  -29.2030  -16.6440   19.6170 C   0  0  0  0  0  2  0  0  0  0  0  0
  -31.0710  -14.7680   19.7580 C   0  0  0  0  0  0  0  0  0  0  0  0
  -30.6760  -12.4550   18.9680 C   0  0  0  0  0  2  0  0  0  0  0  0
  -29.7100  -12.3970   17.7730 C   0  0  0  0  0  2  0  0  0  0  0  0
  -28.2620  -12.2690   18.2820 C   0  0  0  0  0  2  0  0  0  0  0  0
  -27.9250  -13.2970   19.3940 C   0  0  0  0  0  3  0  0  0  0  0  0
  -29.0320  -13.3710   20.4730 C   0  0  0  0  0  2  0  0  0  0  0  0
  -30.2850  -13.6410   19.7640 N   0  0  0  0  0  0  0  0  0  0  0  0
  -32.2780  -14.6020   19.6030 O   0  0  0  0  0  0  0  0  0  0  0  0
  -30.5790  -16.0570   19.5210 N   0  0  0  0  0  0  0  0  0  0  0  0
  -25.6100  -13.9810   20.2590 C   0  0  0  0  0  0  0  0  0  0  0  0
  -24.5380  -13.2460   20.6840 C   0  0  0  0  0  0  0  0  0  0  0  0
  -24.9500  -11.8780   20.6290 C   0  0  0  0  0  0  0  0  0  0  0  0
  -26.6060  -13.0640   19.9670 N   0  0  0  0  0  0  0  0  0  0  0  0
  -26.2210  -11.7940   20.2570 N   0  0  0  0  0  0  0  0  0  0  0  0
  -24.1910  -10.6420   20.8490 C   0  0  0  0  0  0  0  0  0  0  0  0
  -24.6030   -9.6810   21.7960 C   0  0  0  0  0  3  0  0  0  0  0  0
  -23.8440   -8.5090   22.0040 C   0  0  0  0  0  3  0  0  0  0  0  0
  -22.6590   -8.2900   21.2620 C   0  0  0  0  0  0  0  0  0  0  0  0
  -22.2680   -9.2390   20.3000 C   0  0  0  0  0  3  0  0  0  0  0  0
  -23.0270  -10.4020   20.0910 C   0  0  0  0  0  3  0  0  0  0  0  0
  -21.8740   -7.1690   21.3780 O   0  0  0  0  0  0  0  0  0  0  0  0
  -21.7730   -6.4790   22.5580 C   0  0  0  0  0  0  0  0  0  0  0  0
  -21.3090   -7.0910   23.7420 C   0  0  0  0  0  3  0  0  0  0  0  0
  -21.1570   -6.3300   24.9180 C   0  0  0  0  0  3  0  0  0  0  0  0
  -21.4590   -4.9550   24.9100 C   0  0  0  0  0  0  0  0  0  0  0  0
  -21.9150   -4.3400   23.7310 C   0  0  0  0  0  3  0  0  0  0  0  0
  -22.0690   -5.1000   22.5580 C   0  0  0  0  0  0  0  0  0  0  0  0
  -22.4890   -4.5000   21.4190 F   0  0  0  0  0  0  0  0  0  0  0  0
  -21.3060   -4.2200   26.0360 F   0  0  0  0  0  0  0  0  0  0  0  0
  -23.1730  -13.7710   21.0210 C   0  0  0  0  0  0  0  0  0  0  0  0
  -22.4640  -13.1010   21.9230 N   0  0  0  0  0  0  0  0  0  0  0  0
  -22.7460  -14.8110   20.5190 O   0  0  0  0  0  0  0  0  0  0  0  0
  -22.8220  -12.2600   22.3510 H   0  0  0  0  0  0  0  0  0  0  0  0
  -21.5490  -13.4360   22.1920 H   0  0  0  0  0  0  0  0  0  0  0  0
  -25.8100  -15.3460   20.0690 N   0  0  0  0  0  0  0  0  0  0  0  0
  -25.0630  -16.0180   20.2060 H   0  0  0  0  0  0  0  0  0  0  0  0
  -26.6320  -15.7500   19.6450 H   0  0  0  0  0  0  0  0  0  0  0  0
  -32.5350  -17.6060   19.9730 C   0  0  0  0  0  1  0  0  0  0  0  0
  -32.1110  -16.7440   17.5860 C   0  0  0  0  0  1  0  0  0  0  0  0
  -31.4890  -17.1050   18.9550 C   0  0  0  0  0  3  0  0  0  0  0  0
  1  5  2  0
  2  1  1  0
  3  2  2  0
  3  6  1  0
  4  3  1  0
  6 51  1  0
  6  5  1  0
  7  2  1  0
  7  8  1  0
  9 10  1  0
  9  8  1  0
 11 22  2  0
 12 10  1  0
 12 17  1  0
 13 21  1  0
 13 23  1  0
 14 20  1  0
 14 16  1  0
 15 21  1  0
 16 17  2  0
 16 15  1  0
 18 12  2  0
 19 18  1  0
 19 14  2  0
 20 13  1  0
 21 11  1  0
 23 25  2  0
 24 23  1  0
 26 24  1  0
 27 36  2  0
 27 32  1  0
 28 24  1  0
 28 32  1  0
 29 28  1  0
 30 31  1  0
 30 29  1  0
 31 27  1  0
 32 33  2  0
 33 34  1  0
 35 34  2  0
 36 35  1  0
 37 11  1  0
 37 38  1  0
 37 47  1  0
 38 41  1  0
 39 43  1  0
 39 38  1  0
 40 39  2  0
 43 42  1  0
 45 43  1  0
 45 46  1  0
 45 44  1  0
 47 50  1  1
 47 48  1  0
 49 47  1  0
 52 51  1  0
 53 59  1  0
 54 59  1  0
 55 56  1  0
 55 54  1  0
 57 56  1  0
 57 65  1  0
 57 58  1  0
 59 58  1  0
 60 53  2  0
 61 52  1  0
 61 53  1  0
 62 63  2  0
 63 82  1  0
 64 63  1  0
 64 67  1  0
 65 66  1  0
 65 62  1  0
 66 64  2  0
 67 68  1  0
 68 69  2  0
 70 73  1  0
 70 69  1  0
 71 70  2  0
 72 71  1  0
 72 67  2  0
 73 74  1  0
 74 79  2  0
 74 75  1  0
 75 76  2  0
 77 76  1  0
 77 81  1  0
 78 77  2  0
 79 78  1  0
 80 79  1  0
 82 83  1  0
 83 86  1  0
 83 85  1  0
 84 82  2  0
 87 88  1  0
 87 62  1  0
 89 87  1  0
 91 92  1  0
 92 61  1  0
 92 90  1  0
M  ISO  4   9 101  10 101  53 100  61 100
M  END
>  <TORSDO>  (31) 
F 22

>  <SCORE>  (31) 
-13.172

>  <name>  (31) 
31

>  <ligand_id>  (31) 
31

>  <original_smiles>  (31) 
[H]c1nn(C([H])([H])C([H])([H])N(C(=O)N2C([H])([H])C([H])([H])C([H])([H])C([H])(n3nc(-c4c([H])c([H])c(Oc5c([H])c([H])c(F)c([H])c5F)c([H])c4[H])c(C(=O)N([H])[H])c3N([H])[H])C2([H])[H])C([H])(C([H])([H])[H])C([H])([H])[H])c(C([H])([H])[H])c1C([H])([H])C([H])([H])C([H])([H])Oc1c([H])c([H])c2c(c1[H])C([H])([H])N(C(=O)C([H])(N([H])C(=O)C([H])(N([H])C([H])([H])[H])C([H])([H])[H])C(C([H])([H])[H])(C([H])([H])[H])C([H])([H])[H])C([H])(C(=O)N([H])C1([H])c3c([H])c([H])c([H])c([H])c3C([H])([H])C([H])([H])C1([H])[H])C2([H])[H]

>  <smiles>  (31) 
[H]c1nn(C([H])([H])C([H])([H])N(C(=O)N2C([H])([H])C([H])([H])C([H])([H])C([H])(n3nc(-c4c([H])c([H])c(Oc5c([H])c([H])c(F)c([H])c5F)c([H])c4[H])c(C(=O)N([H])[H])c3N([H])[H])C2([H])[H])C([H])(C([H])([H])[H])C([H])([H])[H])c(C([H])([H])[H])c1C([H])([H])C([H])([H])C([H])([H])Oc1c([H])c([H])c2c(c1[H])C([H])([H])N(C(=O)C([H])(N([H])C(=O)C([H])(N([H])C([H])([H])[H])C([H])([H])[H])C(C([H])([H])[H])(C([H])([H])[H])C([H])([H])[H])C([H])(C(=O)N([H])C1([H])c3c([H])c([H])c([H])c([H])c3C([H])([H])C([H])([H])C1([H])[H])C2([H])[H]

$$$$
32:0:0
     RDKit          3D

 89 97  0  0  1  0  0  0  0  0999 V2000
  -29.6990  -21.9110   19.9360 C   0  0  0  0  0  3  0  0  0  0  0  0
  -28.5290  -20.9520   21.4890 C   0  0  0  0  0  3  0  0  0  0  0  0
  -29.1880  -22.8870   20.7700 C   0  0  0  0  0  0  0  0  0  0  0  0
  -28.4400  -22.2540   21.7660 N   0  0  0  0  0  0  0  0  0  0  0  0
  -29.2750  -20.6630   20.4120 N   0  0  0  0  0  0  0  0  0  0  0  0
  -29.3790  -24.3990   20.7330 C   0  0  0  0  0  2  0  0  0  0  0  0
  -28.1770  -25.1950   20.1680 C   0  0  0  0  0  2  0  0  0  0  0  0
  -28.3560  -26.6330   20.2100 O   0  0  0  0  0  0  0  0  0  0  0  0
  -24.5720  -31.8820   23.2190 C   0  0  0  0  0  0  0  0  0  0  0  0
  -27.2010  -27.4000   20.1590 C   0  0  0  0  0  0  0  0  0  0  0  0
  -23.3650  -30.4730   21.5860 C   0  0  0  0  0  3  0  0  0  0  0  0
  -24.8140  -28.9340   20.1590 C   0  0  0  0  0  0  0  0  0  0  0  0
  -25.8930  -30.8240   21.3840 C   0  0  0  0  0  2  0  0  0  0  0  0
  -25.9770  -29.4510   20.7450 C   0  0  0  0  0  0  0  0  0  0  0  0
  -27.1740  -28.6930   20.7380 C   0  0  0  0  0  3  0  0  0  0  0  0
  -26.0190  -26.9130   19.5510 C   0  0  0  0  0  3  0  0  0  0  0  0
  -24.8310  -27.6670   19.5560 C   0  0  0  0  0  3  0  0  0  0  0  0
  -23.5720  -29.7950   20.2070 C   0  0  0  0  0  2  0  0  0  0  0  0
  -24.6290  -31.0740   22.1210 N   0  0  0  0  0  0  0  0  0  0  0  0
  -23.4900  -32.1580   23.7550 O   0  0  0  0  0  0  0  0  0  0  0  0
  -22.7160  -29.4530   22.5490 C   0  0  0  0  0  0  0  0  0  0  0  0
  -21.3920  -29.2700   22.4230 N   0  0  0  0  0  0  0  0  0  0  0  0
  -23.4000  -28.8310   23.3670 O   0  0  0  0  0  0  0  0  0  0  0  0
  -20.9020  -29.8240   21.7330 H   0  0  0  0  0  0  0  0  0  0  0  0
  -18.0170  -28.0740   22.9200 C   0  0  0  0  0  0  0  0  0  0  0  0
  -20.5730  -28.3360   23.1960 C   0  0  0  0  0  3  0  0  0  0  0  0
  -20.6790  -26.9010   22.6280 C   0  0  0  0  0  2  0  0  0  0  0  0
  -19.5790  -26.5730   21.6140 C   0  0  0  0  0  2  0  0  0  0  0  0
  -18.1960  -26.7210   22.2540 C   0  0  0  0  0  2  0  0  0  0  0  0
  -19.1340  -28.8400   23.3480 C   0  0  0  0  0  0  0  0  0  0  0  0
  -18.9130  -30.1070   23.9280 C   0  0  0  0  0  3  0  0  0  0  0  0
  -17.6080  -30.6080   24.0920 C   0  0  0  0  0  3  0  0  0  0  0  0
  -16.5050  -29.8400   23.6810 C   0  0  0  0  0  3  0  0  0  0  0  0
  -16.7110  -28.5760   23.0990 C   0  0  0  0  0  3  0  0  0  0  0  0
  -25.8580  -32.5150   23.8350 C   0  0  0  0  0  3  0  0  0  0  0  0
  -25.5460  -33.9110   24.1730 N   0  0  0  0  0  0  0  0  0  0  0  0
  -25.8720  -34.9680   23.4180 C   0  0  0  0  0  0  0  0  0  0  0  0
  -26.5400  -34.8710   22.3840 O   0  0  0  0  0  0  0  0  0  0  0  0
  -24.9580  -34.0630   24.9790 H   0  0  0  0  0  0  0  0  0  0  0  0
  -24.1340  -36.7520   23.0750 C   0  0  0  0  0  1  0  0  0  0  0  0
  -25.3790  -36.3520   23.8820 C   0  0  0  0  0  3  0  0  0  0  0  0
  -27.5130  -37.2380   24.7110 C   0  0  0  0  0  1  0  0  0  0  0  0
  -26.4080  -37.4100   23.7720 N   0  0  0  0  0  0  0  0  0  0  0  0
  -25.9990  -38.3270   23.9320 H   0  0  0  0  0  0  0  0  0  0  0  0
  -26.3890  -31.7390   25.1030 C   0  0  1  0  0  0  0  0  0  0  0  0
  -25.3040  -31.4880   26.1760 C   0  0  0  0  0  1  0  0  0  0  0  0
  -26.9770  -30.3680   24.6940 C   0  0  0  0  0  1  0  0  0  0  0  0
  -27.5410  -32.5350   25.7590 C   0  0  0  0  0  1  0  0  0  0  0  0
  -29.5250  -19.3570   19.7820 C   0  0  0  0  0  2  0  0  0  0  0  0
  -29.7290  -18.1390   20.7310 C   0  0  0  0  0  2  0  0  0  0  0  0
  -30.0700  -16.8310   19.9430 C   0  0  0  0  0  2  0  0  0  0  0  0
  -30.8400  -14.4960   20.1100 C   0  0  0  0  0  0  0  0  0  0  0  0
  -30.4090  -12.3840   18.8950 C   0  0  0  0  0  2  0  0  0  0  0  0
  -29.3990  -12.6440   17.7580 C   0  0  0  0  0  2  0  0  0  0  0  0
  -27.9520  -12.5210   18.2720 C   0  0  0  0  0  2  0  0  0  0  0  0
  -27.7130  -13.3160   19.5830 C   0  0  0  0  0  3  0  0  0  0  0  0
  -28.8280  -13.0360   20.6130 C   0  0  0  0  0  2  0  0  0  0  0  0
  -30.1210  -13.3420   19.9770 N   0  0  0  0  0  0  0  0  0  0  0  0
  -31.9100  -14.6680   19.5150 O   0  0  0  0  0  0  0  0  0  0  0  0
  -30.2060  -15.6380   22.1600 C   0  0  0  0  0  1  0  0  0  0  0  0
  -30.2060  -15.5500   20.6960 N   0  0  0  0  0  0  0  0  0  0  0  0
  -25.3730  -13.9420   20.4510 C   0  0  0  0  0  0  0  0  0  0  0  0
  -24.3170  -13.1760   20.8670 C   0  0  0  0  0  0  0  0  0  0  0  0
  -24.7540  -11.8180   20.7800 C   0  0  0  0  0  0  0  0  0  0  0  0
  -26.3880  -13.0500   20.1370 N   0  0  0  0  0  0  0  0  0  0  0  0
  -26.0210  -11.7670   20.3910 N   0  0  0  0  0  0  0  0  0  0  0  0
  -24.0220  -10.5630   20.9880 C   0  0  0  0  0  0  0  0  0  0  0  0
  -24.4810   -9.5820   21.8950 C   0  0  0  0  0  3  0  0  0  0  0  0
  -23.7500   -8.3910   22.0910 C   0  0  0  0  0  3  0  0  0  0  0  0
  -22.5450   -8.1720   21.3810 C   0  0  0  0  0  0  0  0  0  0  0  0
  -22.1050   -9.1420   20.4630 C   0  0  0  0  0  3  0  0  0  0  0  0
  -22.8360  -10.3240   20.2640 C   0  0  0  0  0  3  0  0  0  0  0  0
  -21.7830   -7.0330   21.4870 O   0  0  0  0  0  0  0  0  0  0  0  0
  -21.7460   -6.2970   22.6440 C   0  0  0  0  0  0  0  0  0  0  0  0
  -21.3620   -6.8660   23.8770 C   0  0  0  0  0  3  0  0  0  0  0  0
  -21.2720   -6.0580   25.0270 C   0  0  0  0  0  3  0  0  0  0  0  0
  -21.5550   -4.6810   24.9460 C   0  0  0  0  0  0  0  0  0  0  0  0
  -21.9300   -4.1110   23.7170 C   0  0  0  0  0  3  0  0  0  0  0  0
  -22.0230   -4.9170   22.5680 C   0  0  0  0  0  0  0  0  0  0  0  0
  -22.3670   -4.3590   21.3820 F   0  0  0  0  0  0  0  0  0  0  0  0
  -21.4600   -3.9020   26.0490 F   0  0  0  0  0  0  0  0  0  0  0  0
  -22.9480  -13.6670   21.2360 C   0  0  0  0  0  0  0  0  0  0  0  0
  -22.2680  -12.9660   22.1380 N   0  0  0  0  0  0  0  0  0  0  0  0
  -22.4910  -14.7060   20.7620 O   0  0  0  0  0  0  0  0  0  0  0  0
  -22.6530  -12.1250   22.5420 H   0  0  0  0  0  0  0  0  0  0  0  0
  -21.3510  -13.2740   22.4270 H   0  0  0  0  0  0  0  0  0  0  0  0
  -25.5520  -15.3130   20.2940 N   0  0  0  0  0  0  0  0  0  0  0  0
  -24.8120  -15.9830   20.4700 H   0  0  0  0  0  0  0  0  0  0  0  0
  -26.4020  -15.7430   19.9530 H   0  0  0  0  0  0  0  0  0  0  0  0
  1  5  1  0
  1  3  2  0
  2  4  2  0
  3  4  1  0
  5  2  1  0
  6  3  1  0
  7  8  1  0
  7  6  1  0
  9 20  2  0
 10  8  1  0
 10 15  1  0
 11 19  1  0
 11 21  1  0
 12 18  1  0
 12 14  1  0
 13 19  1  0
 14 13  1  0
 15 14  2  0
 16 17  1  0
 16 10  2  0
 17 12  2  0
 18 11  1  0
 19  9  1  0
 21 23  2  0
 22 21  1  0
 24 22  1  0
 25 34  2  0
 25 30  1  0
 26 22  1  0
 26 30  1  0
 27 26  1  0
 28 29  1  0
 28 27  1  0
 29 25  1  0
 30 31  2  0
 31 32  1  0
 33 32  2  0
 34 33  1  0
 35  9  1  0
 35 36  1  0
 35 45  1  0
 36 39  1  0
 37 41  1  0
 37 36  1  0
 38 37  2  0
 41 40  1  0
 43 41  1  0
 43 44  1  0
 43 42  1  0
 45 48  1  1
 45 46  1  0
 47 45  1  0
 49  5  1  0
 49 50  1  0
 51 61  1  0
 51 50  1  0
 52 61  1  0
 53 58  1  0
 54 55  1  0
 54 53  1  0
 56 55  1  0
 56 65  1  0
 56 57  1  0
 58 52  1  0
 58 57  1  0
 59 52  2  0
 61 60  1  0
 62 63  2  0
 63 82  1  0
 64 63  1  0
 64 67  1  0
 65 66  1  0
 65 62  1  0
 66 64  2  0
 67 68  1  0
 68 69  2  0
 70 73  1  0
 70 69  1  0
 71 70  2  0
 72 71  1  0
 72 67  2  0
 73 74  1  0
 74 75  1  0
 75 76  2  0
 77 76  1  0
 77 81  1  0
 78 77  2  0
 79 74  2  0
 79 78  1  0
 80 79  1  0
 82 83  1  0
 83 86  1  0
 83 85  1  0
 84 82  2  0
 87 62  1  0
 87 88  1  0
 89 87  1  0
M  ISO  4   7 101   8 101  52 100  61 100
M  END
>  <TORSDO>  (32) 
F 21

>  <SCORE>  (32) 
-12.717

>  <name>  (32) 
32

>  <ligand_id>  (32) 
32

>  <original_smiles>  (32) 
[H]c1c([H])c([H])c2c(c1[H])C([H])([H])C([H])([H])C([H])([H])C2([H])N([H])C(=O)C1([H])N(C(=O)C([H])(N([H])C(=O)C([H])(N([H])C([H])([H])[H])C([H])([H])[H])C(C([H])([H])[H])(C([H])([H])[H])C([H])([H])[H])C([H])([H])c2c([H])c(OC([H])([H])C([H])([H])c3nc([H])n(C([H])([H])C([H])([H])C([H])([H])N(C(=O)N4C([H])([H])C([H])([H])C([H])([H])C([H])(n5nc(-c6c([H])c([H])c(Oc7c([H])c([H])c(F)c([H])c7F)c([H])c6[H])c(C(=O)N([H])[H])c5N([H])[H])C4([H])[H])C([H])([H])[H])c3[H])c([H])c([H])c2C1([H])[H]

>  <smiles>  (32) 
[H]c1c([H])c([H])c2c(c1[H])C([H])([H])C([H])([H])C([H])([H])C2([H])N([H])C(=O)C1([H])N(C(=O)C([H])(N([H])C(=O)C([H])(N([H])C([H])([H])[H])C([H])([H])[H])C(C([H])([H])[H])(C([H])([H])[H])C([H])([H])[H])C([H])([H])c2c([H])c(OC([H])([H])C([H])([H])c3nc([H])n(C([H])([H])C([H])([H])C([H])([H])N(C(=O)N4C([H])([H])C([H])([H])C([H])([H])C([H])(n5nc(-c6c([H])c([H])c(Oc7c([H])c([H])c(F)c([H])c7F)c([H])c6[H])c(C(=O)N([H])[H])c5N([H])[H])C4([H])[H])C([H])([H])[H])c3[H])c([H])c([H])c2C1([H])[H]

$$$$
33:0:0
     RDKit          3D

 95103  0  0  1  0  0  0  0  0999 V2000
  -30.6500  -24.4760   23.0720 C   0  0  0  0  0  3  0  0  0  0  0  0
  -30.4760  -23.9780   21.7470 C   0  0  0  0  0  0  0  0  0  0  0  0
  -30.2080  -22.6430   21.9320 C   0  0  0  0  0  0  0  0  0  0  0  0
  -29.8830  -21.2100   24.0380 C   0  0  0  0  0  1  0  0  0  0  0  0
  -30.4660  -23.5480   23.9940 N   0  0  0  0  0  0  0  0  0  0  0  0
  -30.1760  -22.4270   23.3020 N   0  0  0  0  0  0  0  0  0  0  0  0
  -30.5730  -24.7360   20.4390 C   0  0  0  0  0  2  0  0  0  0  0  0
  -30.7150  -26.2690   20.5780 C   0  0  0  0  0  2  0  0  0  0  0  0
  -29.4520  -27.0300   21.0240 C   0  0  0  0  0  2  0  0  0  0  0  0
  -28.4100  -26.8330   20.0700 O   0  0  0  0  0  0  0  0  0  0  0  0
  -24.5620  -31.9690   23.2630 C   0  0  0  0  0  0  0  0  0  0  0  0
  -27.2620  -27.5920   20.1640 C   0  0  0  0  0  0  0  0  0  0  0  0
  -23.3590  -30.5540   21.6250 C   0  0  0  0  0  3  0  0  0  0  0  0
  -24.8270  -29.0350   20.1930 C   0  0  0  0  0  0  0  0  0  0  0  0
  -25.8720  -30.9540   21.4070 C   0  0  0  0  0  2  0  0  0  0  0  0
  -25.9740  -29.5810   20.7800 C   0  0  0  0  0  0  0  0  0  0  0  0
  -27.1890  -28.8660   20.7760 C   0  0  0  0  0  3  0  0  0  0  0  0
  -26.0980  -27.0570   19.5730 C   0  0  0  0  0  3  0  0  0  0  0  0
  -24.8810  -27.7650   19.5910 C   0  0  0  0  0  3  0  0  0  0  0  0
  -23.5690  -29.8730   20.2450 C   0  0  0  0  0  2  0  0  0  0  0  0
  -24.6170  -31.1740   22.1590 N   0  0  0  0  0  0  0  0  0  0  0  0
  -23.4830  -32.2280   23.8140 O   0  0  0  0  0  0  0  0  0  0  0  0
  -22.7280  -29.5250   22.5910 C   0  0  0  0  0  0  0  0  0  0  0  0
  -21.4100  -29.3150   22.4590 N   0  0  0  0  0  0  0  0  0  0  0  0
  -23.4230  -28.9190   23.4100 O   0  0  0  0  0  0  0  0  0  0  0  0
  -20.9110  -29.8580   21.7680 H   0  0  0  0  0  0  0  0  0  0  0  0
  -18.0590  -28.0540   22.9410 C   0  0  0  0  0  0  0  0  0  0  0  0
  -20.6090  -28.3650   23.2300 C   0  0  0  0  0  3  0  0  0  0  0  0
  -20.7450  -26.9330   22.6630 C   0  0  0  0  0  2  0  0  0  0  0  0
  -19.6570  -26.5820   21.6430 C   0  0  0  0  0  2  0  0  0  0  0  0
  -18.2690  -26.7040   22.2770 C   0  0  0  0  0  2  0  0  0  0  0  0
  -19.1590  -28.8400   23.3750 C   0  0  0  0  0  0  0  0  0  0  0  0
  -18.9110  -30.1030   23.9550 C   0  0  0  0  0  3  0  0  0  0  0  0
  -17.5970  -30.5810   24.1070 C   0  0  0  0  0  3  0  0  0  0  0  0
  -16.5110  -29.7900   23.6910 C   0  0  0  0  0  3  0  0  0  0  0  0
  -16.7440  -28.5290   23.1140 C   0  0  0  0  0  3  0  0  0  0  0  0
  -25.8480  -32.6110   23.8740 C   0  0  0  0  0  3  0  0  0  0  0  0
  -25.5380  -34.0130   24.1830 N   0  0  0  0  0  0  0  0  0  0  0  0
  -25.8890  -35.0550   23.4190 C   0  0  0  0  0  0  0  0  0  0  0  0
  -26.5790  -34.9380   22.4020 O   0  0  0  0  0  0  0  0  0  0  0  0
  -24.9270  -34.1780   24.9700 H   0  0  0  0  0  0  0  0  0  0  0  0
  -24.1900  -36.8570   22.9870 C   0  0  0  0  0  1  0  0  0  0  0  0
  -25.3960  -36.4490   23.8480 C   0  0  0  0  0  3  0  0  0  0  0  0
  -27.5050  -37.3200   24.7560 C   0  0  0  0  0  1  0  0  0  0  0  0
  -26.4410  -37.4930   23.7700 N   0  0  0  0  0  0  0  0  0  0  0  0
  -26.0380  -38.4170   23.8980 H   0  0  0  0  0  0  0  0  0  0  0  0
  -26.3730  -31.8570   25.1570 C   0  0  1  0  0  0  0  0  0  0  0  0
  -25.2820  -31.6240   26.2280 C   0  0  0  0  0  1  0  0  0  0  0  0
  -26.9630  -30.4790   24.7750 C   0  0  0  0  0  1  0  0  0  0  0  0
  -27.5180  -32.6650   25.8100 C   0  0  0  0  0  1  0  0  0  0  0  0
  -29.9530  -21.5470   20.9290 C   0  0  0  0  0  2  0  0  0  0  0  0
  -32.3180  -20.9370   20.5030 C   0  0  0  0  0  1  0  0  0  0  0  0
  -30.9770  -20.4640   20.9280 N   0  0  2  0  0  4  0  0  0  0  0  0
  -31.0700  -20.1760   21.8900 H   0  0  0  0  0  0  0  0  0  0  0  0
  -30.5160  -19.2630   20.1790 C   0  0  0  0  0  2  0  0  0  0  0  0
  -31.2170  -17.9470   20.5930 C   0  0  0  0  0  2  0  0  0  0  0  0
  -30.3270  -16.7220   20.2850 C   0  0  0  0  0  2  0  0  0  0  0  0
  -31.3360  -14.4870   20.0480 C   0  0  0  0  0  0  0  0  0  0  0  0
  -30.8940  -12.3150   18.9570 C   0  0  0  0  0  2  0  0  0  0  0  0
  -29.9240  -12.4920   17.7740 C   0  0  0  0  0  2  0  0  0  0  0  0
  -28.4580  -12.4310   18.2490 C   0  0  0  0  0  2  0  0  0  0  0  0
  -28.1880  -13.3550   19.4640 C   0  0  0  0  0  3  0  0  0  0  0  0
  -29.2590  -13.1350   20.5540 C   0  0  0  0  0  2  0  0  0  0  0  0
  -30.5920  -13.3510   19.9560 N   0  0  0  0  0  0  0  0  0  0  0  0
  -32.3400  -14.6990   19.3580 O   0  0  0  0  0  0  0  0  0  0  0  0
  -30.9340  -15.3830   22.2960 C   0  0  0  0  0  1  0  0  0  0  0  0
  -30.8220  -15.4530   20.8390 N   0  0  0  0  0  0  0  0  0  0  0  0
  -25.8750  -14.1170   20.3060 C   0  0  0  0  0  0  0  0  0  0  0  0
  -24.7670  -13.4140   20.6980 C   0  0  0  0  0  0  0  0  0  0  0  0
  -25.1190  -12.0330   20.5940 C   0  0  0  0  0  0  0  0  0  0  0  0
  -26.8370  -13.1680   19.9920 N   0  0  0  0  0  0  0  0  0  0  0  0
  -26.3860  -11.9080   20.2190 N   0  0  0  0  0  0  0  0  0  0  0  0
  -24.3080  -10.8220   20.7740 C   0  0  0  0  0  0  0  0  0  0  0  0
  -24.6850   -9.8090   21.6840 C   0  0  0  0  0  3  0  0  0  0  0  0
  -23.8800   -8.6610   21.8500 C   0  0  0  0  0  3  0  0  0  0  0  0
  -22.6820   -8.5210   21.1100 C   0  0  0  0  0  0  0  0  0  0  0  0
  -22.3230   -9.5220   20.1910 C   0  0  0  0  0  3  0  0  0  0  0  0
  -23.1280  -10.6600   20.0210 C   0  0  0  0  0  3  0  0  0  0  0  0
  -21.8510   -7.4290   21.1870 O   0  0  0  0  0  0  0  0  0  0  0  0
  -21.7400   -6.6890   22.3370 C   0  0  0  0  0  0  0  0  0  0  0  0
  -21.3440   -7.2680   23.5620 C   0  0  0  0  0  3  0  0  0  0  0  0
  -21.1770   -6.4590   24.7030 C   0  0  0  0  0  3  0  0  0  0  0  0
  -21.3950   -5.0700   24.6210 C   0  0  0  0  0  0  0  0  0  0  0  0
  -21.7860   -4.4910   23.4010 C   0  0  0  0  0  3  0  0  0  0  0  0
  -21.9560   -5.2980   22.2620 C   0  0  0  0  0  0  0  0  0  0  0  0
  -22.3110   -4.7320   21.0840 F   0  0  0  0  0  0  0  0  0  0  0  0
  -21.2270   -4.2900   25.7150 F   0  0  0  0  0  0  0  0  0  0  0  0
  -23.4250  -13.9840   21.0570 C   0  0  0  0  0  0  0  0  0  0  0  0
  -22.6900  -13.3170   21.9410 N   0  0  0  0  0  0  0  0  0  0  0  0
  -23.0420  -15.0550   20.5900 O   0  0  0  0  0  0  0  0  0  0  0  0
  -23.0120  -12.4510   22.3450 H   0  0  0  0  0  0  0  0  0  0  0  0
  -21.7880  -13.6800   22.2180 H   0  0  0  0  0  0  0  0  0  0  0  0
  -26.1380  -15.4770   20.1710 N   0  0  0  0  0  0  0  0  0  0  0  0
  -25.4310  -16.1840   20.3430 H   0  0  0  0  0  0  0  0  0  0  0  0
  -27.0080  -15.8600   19.8230 H   0  0  0  0  0  0  0  0  0  0  0  0
  1  5  2  0
  2  3  2  0
  2  1  1  0
  3  6  1  0
  6  5  1  0
  6  4  1  0
  7  8  1  0
  7  2  1  0
  8  9  1  0
 10 12  1  0
 10  9  1  0
 11 22  2  0
 12 17  1  0
 13 21  1  0
 13 23  1  0
 14 20  1  0
 14 16  1  0
 15 21  1  0
 16 15  1  0
 17 16  2  0
 18 19  1  0
 18 12  2  0
 19 14  2  0
 20 13  1  0
 21 11  1  0
 23 25  2  0
 24 23  1  0
 26 24  1  0
 27 36  2  0
 27 32  1  0
 28 24  1  0
 28 32  1  0
 29 28  1  0
 30 31  1  0
 30 29  1  0
 31 27  1  0
 32 33  2  0
 33 34  1  0
 35 34  2  0
 36 35  1  0
 37 11  1  0
 37 38  1  0
 37 47  1  0
 38 41  1  0
 39 43  1  0
 39 38  1  0
 40 39  2  0
 43 42  1  0
 45 43  1  0
 45 46  1  0
 45 44  1  0
 47 50  1  1
 47 48  1  0
 49 47  1  0
 51  3  1  0
 52 53  1  0
 53 51  1  0
 53 54  1  1
 55 56  1  0
 55 53  1  0
 57 56  1  0
 57 67  1  0
 58 67  1  0
 59 64  1  0
 60 61  1  0
 60 59  1  0
 62 61  1  0
 62 71  1  0
 62 63  1  0
 64 58  1  0
 64 63  1  0
 65 58  2  0
 67 66  1  0
 68 69  2  0
 69 88  1  0
 70 69  1  0
 70 73  1  0
 71 72  1  0
 71 68  1  0
 72 70  2  0
 73 74  1  0
 74 75  2  0
 76 79  1  0
 76 75  1  0
 77 76  2  0
 78 77  1  0
 78 73  2  0
 79 80  1  0
 80 81  1  0
 81 82  2  0
 83 82  1  0
 83 87  1  0
 84 83  2  0
 85 80  2  0
 85 84  1  0
 86 85  1  0
 88 89  1  0
 89 92  1  0
 89 91  1  0
 90 88  2  0
 93 68  1  0
 93 94  1  0
 95 93  1  0
M  ISO  4   9 101  10 101  58 100  67 100
M  END
>  <TORSDO>  (33) 
F 24

>  <SCORE>  (33) 
-10.371

>  <name>  (33) 
33

>  <ligand_id>  (33) 
33

>  <original_smiles>  (33) 
[H]c1nn(C([H])([H])[H])c(C([H])([H])[N+]([H])(C([H])([H])[H])C([H])([H])C([H])([H])C([H])([H])N(C(=O)N2C([H])([H])C([H])([H])C([H])([H])C([H])(n3nc(-c4c([H])c([H])c(Oc5c([H])c([H])c(F)c([H])c5F)c([H])c4[H])c(C(=O)N([H])[H])c3N([H])[H])C2([H])[H])C([H])([H])[H])c1C([H])([H])C([H])([H])C([H])([H])Oc1c([H])c([H])c2c(c1[H])C([H])([H])N(C(=O)C([H])(N([H])C(=O)C([H])(N([H])C([H])([H])[H])C([H])([H])[H])C(C([H])([H])[H])(C([H])([H])[H])C([H])([H])[H])C([H])(C(=O)N([H])C1([H])c3c([H])c([H])c([H])c([H])c3C([H])([H])C([H])([H])C1([H])[H])C2([H])[H]

>  <smiles>  (33) 
[H]c1nn(C([H])([H])[H])c(C([H])([H])[N+]([H])(C([H])([H])[H])C([H])([H])C([H])([H])C([H])([H])N(C(=O)N2C([H])([H])C([H])([H])C([H])([H])C([H])(n3nc(-c4c([H])c([H])c(Oc5c([H])c([H])c(F)c([H])c5F)c([H])c4[H])c(C(=O)N([H])[H])c3N([H])[H])C2([H])[H])C([H])([H])[H])c1C([H])([H])C([H])([H])C([H])([H])Oc1c([H])c([H])c2c(c1[H])C([H])([H])N(C(=O)C([H])(N([H])C(=O)C([H])(N([H])C([H])([H])[H])C([H])([H])[H])C(C([H])([H])[H])(C([H])([H])[H])C([H])([H])[H])C([H])(C(=O)N([H])C1([H])c3c([H])c([H])c([H])c([H])c3C([H])([H])C([H])([H])C1([H])[H])C2([H])[H]

$$$$
34:0:0
     RDKit          3D

 96104  0  0  1  0  0  0  0  0999 V2000
  -29.3050  -21.4880   19.4710 C   0  0  0  0  0  3  0  0  0  0  0  0
  -30.2280  -21.4120   18.3890 C   0  0  0  0  0  0  0  0  0  0  0  0
  -28.7800  -22.7480   19.3920 C   0  0  0  0  0  0  0  0  0  0  0  0
  -30.2280  -22.5330   17.6760 N   0  0  0  0  0  0  0  0  0  0  0  0
  -29.3430  -23.3630   18.2850 N   0  0  0  0  0  0  0  0  0  0  0  0
  -27.4430  -22.6520   21.5540 C   0  0  0  0  0  1  0  0  0  0  0  0
  -27.7830  -23.4330   20.2760 C   0  0  0  0  0  2  0  0  0  0  0  0
  -31.1700  -20.2930   17.9970 C   0  0  0  0  0  2  0  0  0  0  0  0
  -30.9580  -18.9220   18.7000 C   0  0  0  0  0  2  0  0  0  0  0  0
  -31.5830  -20.0400   20.8440 C   0  0  0  0  0  1  0  0  0  0  0  0
  -30.8140  -18.9510   20.1890 N   0  0  2  0  0  4  0  0  0  0  0  0
  -29.8400  -19.1400   20.3790 H   0  0  0  0  0  0  0  0  0  0  0  0
  -31.0930  -17.6400   20.8540 C   0  0  0  0  0  2  0  0  0  0  0  0
  -30.0750  -16.5040   20.5460 C   0  0  0  0  0  3  0  0  0  0  0  0
  -28.9330  -17.0160   20.0710 F   0  0  0  0  0  0  0  0  0  0  0  0
  -30.5890  -15.3760   19.6150 C   0  0  0  0  0  0  0  0  0  0  0  0
  -30.5600  -12.9930   18.9300 C   0  0  0  0  0  2  0  0  0  0  0  0
  -29.5520  -12.7280   17.7990 C   0  0  0  0  0  2  0  0  0  0  0  0
  -28.1400  -12.4790   18.3650 C   0  0  0  0  0  2  0  0  0  0  0  0
  -27.7180  -13.5610   19.3920 C   0  0  0  0  0  3  0  0  0  0  0  0
  -28.8280  -13.7790   20.4430 C   0  0  0  0  0  2  0  0  0  0  0  0
  -30.0700  -14.1240   19.7320 N   0  0  0  0  0  0  0  0  0  0  0  0
  -31.4960  -15.6280   18.8120 O   0  0  0  0  0  0  0  0  0  0  0  0
  -25.4190  -14.0730   20.4360 C   0  0  0  0  0  0  0  0  0  0  0  0
  -24.4160  -13.2540   20.8840 C   0  0  0  0  0  0  0  0  0  0  0  0
  -24.8880  -11.9190   20.7030 C   0  0  0  0  0  0  0  0  0  0  0  0
  -26.4380  -13.2300   20.0170 N   0  0  0  0  0  0  0  0  0  0  0  0
  -26.1270  -11.9260   20.2290 N   0  0  0  0  0  0  0  0  0  0  0  0
  -24.2100  -10.6310   20.9000 C   0  0  0  0  0  0  0  0  0  0  0  0
  -24.5430   -9.7770   21.9750 C   0  0  0  0  0  3  0  0  0  0  0  0
  -23.8670   -8.5510   22.1530 C   0  0  0  0  0  3  0  0  0  0  0  0
  -22.8400   -8.1700   21.2550 C   0  0  0  0  0  0  0  0  0  0  0  0
  -22.5290   -9.0120   20.1730 C   0  0  0  0  0  3  0  0  0  0  0  0
  -23.2080  -10.2290   19.9940 C   0  0  0  0  0  3  0  0  0  0  0  0
  -22.1460   -6.9880   21.3350 O   0  0  0  0  0  0  0  0  0  0  0  0
  -21.7290   -6.4780   22.5380 C   0  0  0  0  0  0  0  0  0  0  0  0
  -20.7650   -7.1360   23.3330 C   0  0  0  0  0  3  0  0  0  0  0  0
  -20.3140   -6.5430   24.5280 C   0  0  0  0  0  3  0  0  0  0  0  0
  -20.8160   -5.2890   24.9260 C   0  0  0  0  0  0  0  0  0  0  0  0
  -21.7710   -4.6290   24.1330 C   0  0  0  0  0  3  0  0  0  0  0  0
  -22.2240   -5.2220   22.9420 C   0  0  0  0  0  0  0  0  0  0  0  0
  -23.1280   -4.5710   22.1700 F   0  0  0  0  0  0  0  0  0  0  0  0
  -20.3770   -4.7140   26.0700 F   0  0  0  0  0  0  0  0  0  0  0  0
  -23.0610  -13.6810   21.3680 C   0  0  0  0  0  0  0  0  0  0  0  0
  -22.4640  -12.9140   22.2750 N   0  0  0  0  0  0  0  0  0  0  0  0
  -22.5420  -14.7280   20.9790 O   0  0  0  0  0  0  0  0  0  0  0  0
  -22.8990  -12.0680   22.6110 H   0  0  0  0  0  0  0  0  0  0  0  0
  -21.5590  -13.1780   22.6370 H   0  0  0  0  0  0  0  0  0  0  0  0
  -25.5430  -15.4550   20.3330 N   0  0  0  0  0  0  0  0  0  0  0  0
  -24.8000  -16.0910   20.5950 H   0  0  0  0  0  0  0  0  0  0  0  0
  -26.3690  -15.9280   19.9850 H   0  0  0  0  0  0  0  0  0  0  0  0
  -29.0640  -24.7110   17.7640 C   0  0  0  0  0  2  0  0  0  0  0  0
  -30.1100  -25.2870   16.7440 C   0  0  0  0  0  2  0  0  0  0  0  0
  -31.5180  -27.2080   17.8740 C   0  0  0  0  0  1  0  0  0  0  0  0
  -30.7530  -26.7150   16.6230 C   0  0  0  0  0  3  0  0  0  0  0  0
  -29.8580  -27.6970   16.0600 O   0  0  0  0  0  0  0  0  0  0  0  0
  -25.2260  -28.0120   21.4750 C   0  0  0  0  0  0  0  0  0  0  0  0
  -28.5430  -27.7320   16.4750 C   0  0  0  0  0  0  0  0  0  0  0  0
  -24.2480  -27.6230   19.2340 C   0  0  0  0  0  3  0  0  0  0  0  0
  -25.8390  -27.9320   17.2630 C   0  0  0  0  0  0  0  0  0  0  0  0
  -26.4540  -28.8880   19.4920 C   0  0  0  0  0  2  0  0  0  0  0  0
  -26.8530  -28.3470   18.1350 C   0  0  0  0  0  0  0  0  0  0  0  0
  -28.2060  -28.2570   17.7420 C   0  0  0  0  0  3  0  0  0  0  0  0
  -27.5140  -27.3270   15.6020 C   0  0  0  0  0  3  0  0  0  0  0  0
  -26.1630  -27.4180   15.9930 C   0  0  0  0  0  3  0  0  0  0  0  0
  -24.4150  -28.0680   17.7560 C   0  0  0  0  0  2  0  0  0  0  0  0
  -25.3310  -28.1550   20.1230 N   0  0  0  0  0  0  0  0  0  0  0  0
  -24.2300  -27.4840   21.9880 O   0  0  0  0  0  0  0  0  0  0  0  0
  -24.1260  -26.0820   19.2700 C   0  0  0  0  0  0  0  0  0  0  0  0
  -22.9770  -25.5630   18.8080 N   0  0  0  0  0  0  0  0  0  0  0  0
  -25.0580  -25.3830   19.6760 O   0  0  0  0  0  0  0  0  0  0  0  0
  -22.2560  -26.2020   18.5000 H   0  0  0  0  0  0  0  0  0  0  0  0
  -20.4080  -23.2240   17.8220 C   0  0  0  0  0  0  0  0  0  0  0  0
  -22.6570  -24.1400   18.7090 C   0  0  0  0  0  3  0  0  0  0  0  0
  -23.2940  -23.5090   17.4480 C   0  0  0  0  0  2  0  0  0  0  0  0
  -22.3570  -23.5140   16.2340 C   0  0  0  0  0  2  0  0  0  0  0  0
  -21.0740  -22.7380   16.5460 C   0  0  0  0  0  2  0  0  0  0  0  0
  -21.1480  -23.8950   18.8310 C   0  0  0  0  0  0  0  0  0  0  0  0
  -20.4720  -24.3580   19.9810 C   0  0  0  0  0  3  0  0  0  0  0  0
  -19.0880  -24.1530   20.1350 C   0  0  0  0  0  3  0  0  0  0  0  0
  -18.3630  -23.4720   19.1410 C   0  0  0  0  0  3  0  0  0  0  0  0
  -19.0240  -23.0070   17.9900 C   0  0  0  0  0  3  0  0  0  0  0  0
  -26.3430  -28.5190   22.4410 C   0  0  0  0  0  3  0  0  0  0  0  0
  -27.1070  -27.3510   23.1760 C   0  0  1  0  0  0  0  0  0  0  0  0
  -26.1700  -26.3370   23.8740 C   0  0  0  0  0  1  0  0  0  0  0  0
  -27.9960  -26.5720   22.1800 C   0  0  0  0  0  1  0  0  0  0  0  0
  -28.0570  -27.9390   24.2470 C   0  0  0  0  0  1  0  0  0  0  0  0
  -25.7120  -29.4210   23.4130 N   0  0  0  0  0  0  0  0  0  0  0  0
  -25.7500  -30.7580   23.3420 C   0  0  0  0  0  0  0  0  0  0  0  0
  -26.3880  -31.3660   22.4790 O   0  0  0  0  0  0  0  0  0  0  0  0
  -25.1230  -28.9920   24.1120 H   0  0  0  0  0  0  0  0  0  0  0  0
  -23.6200  -32.0190   23.7890 C   0  0  0  0  0  1  0  0  0  0  0  0
  -24.9500  -31.5470   24.3970 C   0  0  0  0  0  3  0  0  0  0  0  0
  -26.8050  -32.3270   25.8050 C   0  0  0  0  0  1  0  0  0  0  0  0
  -25.6860  -32.7070   24.9460 N   0  0  0  0  0  0  0  0  0  0  0  0
  -25.0650  -33.3050   25.4850 H   0  0  0  0  0  0  0  0  0  0  0  0
  2  1  1  0
  3  1  2  0
  3  7  1  0
  4  5  1  0
  4  2  2  0
  5  3  1  0
  7  6  1  0
  8  2  1  0
  8  9  1  0
  9 11  1  0
 11 12  1  6
 11 10  1  0
 11 13  1  0
 14 15  1  0
 14 13  1  0
 16 22  1  0
 16 14  1  0
 17 22  1  0
 18 19  1  0
 18 17  1  0
 20 19  1  0
 20 27  1  0
 20 21  1  0
 22 21  1  0
 23 16  2  0
 24 25  2  0
 25 44  1  0
 26 25  1  0
 26 29  1  0
 27 28  1  0
 27 24  1  0
 28 26  2  0
 29 30  1  0
 30 31  2  0
 32 35  1  0
 32 31  1  0
 33 32  2  0
 34 33  1  0
 34 29  2  0
 35 36  1  0
 36 41  2  0
 36 37  1  0
 37 38  2  0
 38 39  1  0
 39 43  1  0
 40 39  2  0
 41 40  1  0
 42 41  1  0
 44 45  1  0
 45 47  1  0
 45 48  1  0
 46 44  2  0
 49 24  1  0
 49 50  1  0
 51 49  1  0
 52  5  1  0
 53 52  1  0
 55 53  1  0
 55 54  1  0
 56 58  1  0
 56 55  1  0
 57 68  2  0
 58 63  1  0
 59 69  1  0
 59 67  1  0
 60 66  1  0
 60 62  1  0
 61 67  1  0
 62 61  1  0
 63 62  2  0
 64 65  1  0
 64 58  2  0
 65 60  2  0
 66 59  1  0
 67 57  1  0
 69 71  2  0
 70 69  1  0
 72 70  1  0
 73 82  2  0
 73 78  1  0
 74 70  1  0
 74 78  1  0
 75 74  1  0
 76 77  1  0
 76 75  1  0
 77 73  1  0
 78 79  2  0
 79 80  1  0
 81 80  2  0
 82 81  1  0
 83 57  1  0
 83 84  1  0
 83 88  1  0
 84 85  1  1
 84 87  1  0
 86 84  1  0
 88 91  1  0
 89 88  1  0
 89 93  1  0
 90 89  2  0
 93 92  1  0
 93 95  1  0
 95 96  1  0
 95 94  1  0
M  ISO  4  14 100  16 100  55 101  56 101
M  END
>  <TORSDO>  (34) 
F 25

>  <SCORE>  (34) 
-8.303

>  <name>  (34) 
34

>  <ligand_id>  (34) 
34

>  <original_smiles>  (34) 
[H]c1c([H])c([H])c2c(c1[H])C([H])([H])C([H])([H])C([H])([H])C2([H])N([H])C(=O)C1([H])N(C(=O)C([H])(N([H])C(=O)C([H])(N([H])C([H])([H])[H])C([H])([H])[H])C(C([H])([H])[H])(C([H])([H])[H])C([H])([H])[H])C([H])([H])c2c([H])c(OC([H])(C([H])([H])[H])C([H])([H])C([H])([H])n3nc(C([H])([H])C([H])([H])[N+]([H])(C([H])([H])[H])C([H])([H])C([H])(F)C(=O)N4C([H])([H])C([H])([H])C([H])([H])C([H])(n5nc(-c6c([H])c([H])c(Oc7c([H])c([H])c(F)c([H])c7F)c([H])c6[H])c(C(=O)N([H])[H])c5N([H])[H])C4([H])[H])c([H])c3C([H])([H])C([H])([H])[H])c([H])c([H])c2C1([H])[H]

>  <smiles>  (34) 
[H]c1c([H])c([H])c2c(c1[H])C([H])([H])C([H])([H])C([H])([H])C2([H])N([H])C(=O)C1([H])N(C(=O)C([H])(N([H])C(=O)C([H])(N([H])C([H])([H])[H])C([H])([H])[H])C(C([H])([H])[H])(C([H])([H])[H])C([H])([H])[H])C([H])([H])c2c([H])c(OC([H])(C([H])([H])[H])C([H])([H])C([H])([H])n3nc(C([H])([H])C([H])([H])[N+]([H])(C([H])([H])[H])C([H])([H])C([H])(F)C(=O)N4C([H])([H])C([H])([H])C([H])([H])C([H])(n5nc(-c6c([H])c([H])c(Oc7c([H])c([H])c(F)c([H])c7F)c([H])c6[H])c(C(=O)N([H])[H])c5N([H])[H])C4([H])[H])c([H])c3C([H])([H])C([H])([H])[H])c([H])c([H])c2C1([H])[H]

$$$$
35:0:0
     RDKit          3D

 94102  0  0  1  0  0  0  0  0999 V2000
  -29.0690  -18.8700   21.7080 C   0  0  0  0  0  3  0  0  0  0  0  0
  -30.2080  -18.1020   21.3660 C   0  0  0  0  0  0  0  0  0  0  0  0
  -30.2590  -20.8370   21.4090 C   0  0  0  0  0  0  0  0  0  0  0  0
  -31.3970  -20.0660   21.0340 C   0  0  0  0  0  0  0  0  0  0  0  0
  -29.0900  -20.2270   21.7370 N   0  0  0  0  0  0  0  0  0  0  0  0
  -31.3810  -18.7070   21.0510 N   0  0  0  0  0  0  0  0  0  0  0  0
  -33.7610  -20.7830   21.6780 C   0  0  0  0  0  1  0  0  0  0  0  0
  -32.7000  -20.7040   20.5750 C   0  0  0  0  0  2  0  0  0  0  0  0
  -30.2860  -22.3660   21.5450 C   0  0  0  0  0  2  0  0  0  0  0  0
  -29.7740  -23.1620   20.3170 C   0  0  0  0  0  2  0  0  0  0  0  0
  -29.7600  -24.7020   20.5320 C   0  0  0  0  0  2  0  0  0  0  0  0
  -28.7350  -25.4540   19.6490 C   0  0  0  0  0  2  0  0  0  0  0  0
  -28.7350  -26.8730   19.9160 O   0  0  0  0  0  0  0  0  0  0  0  0
  -24.6950  -31.7460   23.1750 C   0  0  0  0  0  0  0  0  0  0  0  0
  -27.5280  -27.5530   19.9000 C   0  0  0  0  0  0  0  0  0  0  0  0
  -23.5500  -30.3600   21.4780 C   0  0  0  0  0  3  0  0  0  0  0  0
  -25.0660  -28.9620   19.9780 C   0  0  0  0  0  0  0  0  0  0  0  0
  -26.0600  -30.8390   21.2960 C   0  0  0  0  0  2  0  0  0  0  0  0
  -26.2020  -29.5050   20.5900 C   0  0  0  0  0  0  0  0  0  0  0  0
  -27.4320  -28.8070   20.5500 C   0  0  0  0  0  3  0  0  0  0  0  0
  -26.3710  -27.0410   19.2630 C   0  0  0  0  0  3  0  0  0  0  0  0
  -25.1470  -27.7300   19.3090 C   0  0  0  0  0  3  0  0  0  0  0  0
  -23.7830  -29.7570   20.0700 C   0  0  0  0  0  2  0  0  0  0  0  0
  -24.7850  -30.9970   22.0400 N   0  0  0  0  0  0  0  0  0  0  0  0
  -23.6040  -31.9450   23.7270 O   0  0  0  0  0  0  0  0  0  0  0  0
  -22.9510  -29.2670   22.3930 C   0  0  0  0  0  0  0  0  0  0  0  0
  -21.6410  -29.0160   22.2450 N   0  0  0  0  0  0  0  0  0  0  0  0
  -23.6640  -28.6530   23.1950 O   0  0  0  0  0  0  0  0  0  0  0  0
  -21.1250  -29.5700   21.5750 H   0  0  0  0  0  0  0  0  0  0  0  0
  -18.3340  -27.6220   22.6710 C   0  0  0  0  0  0  0  0  0  0  0  0
  -20.8720  -28.0060   22.9720 C   0  0  0  0  0  3  0  0  0  0  0  0
  -21.0540  -26.6060   22.3410 C   0  0  0  0  0  2  0  0  0  0  0  0
  -19.9760  -26.2650   21.3060 C   0  0  0  0  0  2  0  0  0  0  0  0
  -18.5870  -26.3120   21.9440 C   0  0  0  0  0  2  0  0  0  0  0  0
  -19.4090  -28.4250   23.1390 C   0  0  0  0  0  0  0  0  0  0  0  0
  -19.1200  -29.6530   23.7740 C   0  0  0  0  0  3  0  0  0  0  0  0
  -17.7890  -30.0740   23.9530 C   0  0  0  0  0  3  0  0  0  0  0  0
  -16.7300  -29.2680   23.5040 C   0  0  0  0  0  3  0  0  0  0  0  0
  -17.0030  -28.0450   22.8670 C   0  0  0  0  0  3  0  0  0  0  0  0
  -25.9540  -32.4070   23.8200 C   0  0  0  0  0  3  0  0  0  0  0  0
  -25.6040  -33.7950   24.1420 N   0  0  0  0  0  0  0  0  0  0  0  0
  -25.9360  -34.8580   23.3950 C   0  0  0  0  0  0  0  0  0  0  0  0
  -26.6390  -34.7740   22.3850 O   0  0  0  0  0  0  0  0  0  0  0  0
  -24.9800  -33.9330   24.9230 H   0  0  0  0  0  0  0  0  0  0  0  0
  -24.1750  -36.6120   22.9920 C   0  0  0  0  0  1  0  0  0  0  0  0
  -25.4000  -36.2330   23.8410 C   0  0  0  0  0  3  0  0  0  0  0  0
  -27.4830  -37.1680   24.7440 C   0  0  0  0  0  1  0  0  0  0  0  0
  -26.4090  -37.3130   23.7650 N   0  0  0  0  0  0  0  0  0  0  0  0
  -25.9730  -38.2200   23.9050 H   0  0  0  0  0  0  0  0  0  0  0  0
  -26.4690  -31.6480   25.1050 C   0  0  1  0  0  0  0  0  0  0  0  0
  -25.3630  -31.3760   26.1510 C   0  0  0  0  0  1  0  0  0  0  0  0
  -27.1010  -30.2890   24.7200 C   0  0  0  0  0  1  0  0  0  0  0  0
  -27.5840  -32.4720   25.7890 C   0  0  0  0  0  1  0  0  0  0  0  0
  -30.1530  -16.5650   21.3600 C   0  0  0  0  0  2  0  0  0  0  0  0
  -31.1330  -14.7500   19.9870 C   0  0  0  0  0  0  0  0  0  0  0  0
  -30.7390  -12.5950   18.8650 C   0  0  0  0  0  2  0  0  0  0  0  0
  -29.7320  -12.8190   17.7160 C   0  0  0  0  0  2  0  0  0  0  0  0
  -28.2780  -12.7230   18.2230 C   0  0  0  0  0  2  0  0  0  0  0  0
  -28.0310  -13.5400   19.5220 C   0  0  0  0  0  3  0  0  0  0  0  0
  -29.1470  -13.2930   20.5620 C   0  0  0  0  0  2  0  0  0  0  0  0
  -30.4320  -13.5840   19.9080 N   0  0  0  0  0  0  0  0  0  0  0  0
  -32.3050  -14.8380   19.6090 O   0  0  0  0  0  0  0  0  0  0  0  0
  -30.3720  -15.8740   20.0690 N   0  0  0  0  0  0  0  0  0  0  0  0
  -25.7080  -14.2200   20.3820 C   0  0  0  0  0  0  0  0  0  0  0  0
  -24.6250  -13.4750   20.7650 C   0  0  0  0  0  0  0  0  0  0  0  0
  -25.0240  -12.1090   20.6460 C   0  0  0  0  0  0  0  0  0  0  0  0
  -26.6990  -13.3050   20.0620 N   0  0  0  0  0  0  0  0  0  0  0  0
  -26.2950  -12.0290   20.2770 N   0  0  0  0  0  0  0  0  0  0  0  0
  -24.2520  -10.8710   20.8070 C   0  0  0  0  0  0  0  0  0  0  0  0
  -24.6620   -9.8600   21.7040 C   0  0  0  0  0  3  0  0  0  0  0  0
  -23.8920   -8.6860   21.8560 C   0  0  0  0  0  3  0  0  0  0  0  0
  -22.7020   -8.5170   21.1100 C   0  0  0  0  0  0  0  0  0  0  0  0
  -22.3120   -9.5170   20.2020 C   0  0  0  0  0  3  0  0  0  0  0  0
  -23.0800  -10.6830   20.0490 C   0  0  0  0  0  3  0  0  0  0  0  0
  -21.9070   -7.3970   21.1740 O   0  0  0  0  0  0  0  0  0  0  0  0
  -21.8070   -6.6500   22.3210 C   0  0  0  0  0  0  0  0  0  0  0  0
  -21.3540   -7.2090   23.5360 C   0  0  0  0  0  3  0  0  0  0  0  0
  -21.1990   -6.3920   24.6720 C   0  0  0  0  0  3  0  0  0  0  0  0
  -21.4860   -5.0160   24.5960 C   0  0  0  0  0  0  0  0  0  0  0  0
  -21.9310   -4.4560   23.3850 C   0  0  0  0  0  3  0  0  0  0  0  0
  -22.0890   -5.2700   22.2500 C   0  0  0  0  0  0  0  0  0  0  0  0
  -22.4990   -4.7220   21.0810 F   0  0  0  0  0  0  0  0  0  0  0  0
  -21.3300   -4.2300   25.6860 F   0  0  0  0  0  0  0  0  0  0  0  0
  -23.2650  -13.9980   21.1240 C   0  0  0  0  0  0  0  0  0  0  0  0
  -22.5510  -13.3010   21.9990 N   0  0  0  0  0  0  0  0  0  0  0  0
  -22.8470  -15.0590   20.6620 O   0  0  0  0  0  0  0  0  0  0  0  0
  -22.8970  -12.4370   22.3920 H   0  0  0  0  0  0  0  0  0  0  0  0
  -21.6400  -13.6360   22.2830 H   0  0  0  0  0  0  0  0  0  0  0  0
  -25.9220  -15.5910   20.2620 N   0  0  0  0  0  0  0  0  0  0  0  0
  -25.1740  -16.2560   20.4230 H   0  0  0  0  0  0  0  0  0  0  0  0
  -26.7640  -16.0170   19.8950 H   0  0  0  0  0  0  0  0  0  0  0  0
  -29.9100  -16.5710   18.8450 C   0  0  0  0  0  2  0  0  0  0  0  0
  -30.3990  -18.1420   16.8970 C   0  0  0  0  0  1  0  0  0  0  0  0
  -30.9960  -17.3320   18.0550 C   0  0  0  0  0  2  0  0  0  0  0  0
  1  5  1  0
  2  1  2  0
  3  9  1  0
  3  5  2  0
  4  6  2  0
  4  3  1  0
  6  2  1  0
  8  4  1  0
  8  7  1  0
 10 11  1  0
 10  9  1  0
 12 13  1  0
 12 11  1  0
 14 25  2  0
 15 13  1  0
 15 20  1  0
 16 24  1  0
 16 26  1  0
 17 23  1  0
 17 19  1  0
 18 24  1  0
 19 18  1  0
 20 19  2  0
 21 22  1  0
 21 15  2  0
 22 17  2  0
 23 16  1  0
 24 14  1  0
 26 28  2  0
 27 26  1  0
 29 27  1  0
 30 39  2  0
 30 35  1  0
 31 27  1  0
 31 35  1  0
 32 31  1  0
 33 34  1  0
 33 32  1  0
 34 30  1  0
 35 36  2  0
 36 37  1  0
 38 37  2  0
 39 38  1  0
 40 14  1  0
 40 41  1  0
 40 50  1  0
 41 44  1  0
 42 46  1  0
 42 41  1  0
 43 42  2  0
 46 45  1  0
 48 46  1  0
 48 49  1  0
 48 47  1  0
 50 53  1  1
 50 51  1  0
 52 50  1  0
 54  2  1  0
 55 63  1  0
 56 61  1  0
 57 58  1  0
 57 56  1  0
 59 58  1  0
 59 67  1  0
 59 60  1  0
 61 55  1  0
 61 60  1  0
 62 55  2  0
 63 54  1  0
 64 65  2  0
 65 84  1  0
 66 65  1  0
 66 69  1  0
 67 68  1  0
 67 64  1  0
 68 66  2  0
 69 70  1  0
 70 71  2  0
 72 75  1  0
 72 71  1  0
 73 72  2  0
 74 73  1  0
 74 69  2  0
 75 76  1  0
 76 77  1  0
 77 78  2  0
 79 78  1  0
 79 83  1  0
 80 79  2  0
 81 76  2  0
 81 80  1  0
 82 81  1  0
 84 85  1  0
 85 88  1  0
 85 87  1  0
 86 84  2  0
 89 64  1  0
 89 90  1  0
 91 89  1  0
 92 63  1  0
 93 94  1  0
 94 92  1  0
M  ISO  4  12 101  13 101  55 100  63 100
M  END
>  <TORSDO>  (35) 
F 24

>  <SCORE>  (35) 
-10.369

>  <name>  (35) 
35

>  <ligand_id>  (35) 
35

>  <original_smiles>  (35) 
[H]c1nc(C([H])([H])C([H])([H])C([H])([H])C([H])([H])Oc2c([H])c([H])c3c(c2[H])C([H])([H])N(C(=O)C([H])(N([H])C(=O)C([H])(N([H])C([H])([H])[H])C([H])([H])[H])C(C([H])([H])[H])(C([H])([H])[H])C([H])([H])[H])C([H])(C(=O)N([H])C2([H])c4c([H])c([H])c([H])c([H])c4C([H])([H])C([H])([H])C2([H])[H])C3([H])[H])c(C([H])([H])C([H])([H])[H])nc1C([H])([H])N(C(=O)N1C([H])([H])C([H])([H])C([H])([H])C([H])(n2nc(-c3c([H])c([H])c(Oc4c([H])c([H])c(F)c([H])c4F)c([H])c3[H])c(C(=O)N([H])[H])c2N([H])[H])C1([H])[H])C([H])([H])C([H])([H])C([H])([H])[H]

>  <smiles>  (35) 
[H]c1nc(C([H])([H])C([H])([H])C([H])([H])C([H])([H])Oc2c([H])c([H])c3c(c2[H])C([H])([H])N(C(=O)C([H])(N([H])C(=O)C([H])(N([H])C([H])([H])[H])C([H])([H])[H])C(C([H])([H])[H])(C([H])([H])[H])C([H])([H])[H])C([H])(C(=O)N([H])C2([H])c4c([H])c([H])c([H])c([H])c4C([H])([H])C([H])([H])C2([H])[H])C3([H])[H])c(C([H])([H])C([H])([H])[H])nc1C([H])([H])N(C(=O)N1C([H])([H])C([H])([H])C([H])([H])C([H])(n2nc(-c3c([H])c([H])c(Oc4c([H])c([H])c(F)c([H])c4F)c([H])c3[H])c(C(=O)N([H])[H])c2N([H])[H])C1([H])[H])C([H])([H])C([H])([H])C([H])([H])[H]

$$$$
36:0:0
     RDKit          3D

 95103  0  0  1  0  0  0  0  0999 V2000
  -31.6570  -21.6470   19.8650 C   0  0  0  0  0  3  0  0  0  0  0  0
  -31.5190  -23.0060   19.5420 C   0  0  0  0  0  0  0  0  0  0  0  0
  -32.9670  -21.1660   20.0600 C   0  0  0  0  0  0  0  0  0  0  0  0
  -33.7910  -23.2730   19.6790 C   0  0  0  0  0  0  0  0  0  0  0  0
  -34.9850  -24.2030   19.6080 C   0  0  0  0  0  1  0  0  0  0  0  0
  -32.5990  -23.8030   19.4370 N   0  0  0  0  0  0  0  0  0  0  0  0
  -34.0280  -21.9990   19.9800 N   0  0  0  0  0  0  0  0  0  0  0  0
  -30.1690  -23.6200   19.1900 C   0  0  0  0  0  2  0  0  0  0  0  0
  -29.8550  -24.9230   19.9540 C   0  0  0  0  0  2  0  0  0  0  0  0
  -28.4390  -25.4720   19.6870 C   0  0  0  0  0  2  0  0  0  0  0  0
  -28.3940  -26.8310   20.1170 O   0  0  0  0  0  0  0  0  0  0  0  0
  -24.5910  -31.9070   23.2810 C   0  0  0  0  0  0  0  0  0  0  0  0
  -27.1910  -27.5070   20.1110 C   0  0  0  0  0  0  0  0  0  0  0  0
  -23.3540  -30.5270   21.6380 C   0  0  0  0  0  3  0  0  0  0  0  0
  -24.7850  -29.0010   20.1750 C   0  0  0  0  0  0  0  0  0  0  0  0
  -25.8760  -30.8850   21.4090 C   0  0  0  0  0  2  0  0  0  0  0  0
  -25.9470  -29.5210   20.7540 C   0  0  0  0  0  0  0  0  0  0  0  0
  -27.1470  -28.7790   20.7230 C   0  0  0  0  0  3  0  0  0  0  0  0
  -26.0090  -26.9960   19.5240 C   0  0  0  0  0  3  0  0  0  0  0  0
  -24.8110  -27.7360   19.5570 C   0  0  0  0  0  3  0  0  0  0  0  0
  -23.5370  -29.8500   20.2510 C   0  0  0  0  0  2  0  0  0  0  0  0
  -24.6260  -31.1220   22.1670 N   0  0  0  0  0  0  0  0  0  0  0  0
  -23.5200  -32.1790   23.8410 O   0  0  0  0  0  0  0  0  0  0  0  0
  -22.7120  -29.5010   22.5990 C   0  0  0  0  0  0  0  0  0  0  0  0
  -21.3910  -29.3060   22.4660 N   0  0  0  0  0  0  0  0  0  0  0  0
  -23.4010  -28.8840   23.4150 O   0  0  0  0  0  0  0  0  0  0  0  0
  -20.8990  -29.8560   21.7760 H   0  0  0  0  0  0  0  0  0  0  0  0
  -18.0290  -28.0650   22.9290 C   0  0  0  0  0  0  0  0  0  0  0  0
  -20.5790  -28.3600   23.2300 C   0  0  0  0  0  3  0  0  0  0  0  0
  -20.7080  -26.9290   22.6600 C   0  0  0  0  0  2  0  0  0  0  0  0
  -19.6250  -26.5870   21.6320 C   0  0  0  0  0  2  0  0  0  0  0  0
  -18.2320  -26.7160   22.2580 C   0  0  0  0  0  2  0  0  0  0  0  0
  -19.1320  -28.8440   23.3680 C   0  0  0  0  0  0  0  0  0  0  0  0
  -18.8910  -30.1080   23.9490 C   0  0  0  0  0  3  0  0  0  0  0  0
  -17.5770  -30.5930   24.0950 C   0  0  0  0  0  3  0  0  0  0  0  0
  -16.4880  -29.8070   23.6790 C   0  0  0  0  0  3  0  0  0  0  0  0
  -16.7140  -28.5460   23.1020 C   0  0  0  0  0  3  0  0  0  0  0  0
  -25.8920  -32.5200   23.8920 C   0  0  0  0  0  3  0  0  0  0  0  0
  -25.6110  -33.9260   24.2150 N   0  0  0  0  0  0  0  0  0  0  0  0
  -25.9490  -34.9650   23.4420 C   0  0  0  0  0  0  0  0  0  0  0  0
  -26.6060  -34.8450   22.4030 O   0  0  0  0  0  0  0  0  0  0  0  0
  -25.0350  -34.0950   25.0260 H   0  0  0  0  0  0  0  0  0  0  0  0
  -24.2420  -36.7750   23.0830 C   0  0  0  0  0  1  0  0  0  0  0  0
  -25.4830  -36.3650   23.8910 C   0  0  0  0  0  3  0  0  0  0  0  0
  -27.6310  -37.2220   24.7070 C   0  0  0  0  0  1  0  0  0  0  0  0
  -26.5290  -37.4020   23.7650 N   0  0  0  0  0  0  0  0  0  0  0  0
  -26.1360  -38.3290   23.9100 H   0  0  0  0  0  0  0  0  0  0  0  0
  -26.4070  -31.7480   25.1690 C   0  0  1  0  0  0  0  0  0  0  0  0
  -25.3170  -31.5310   26.2440 C   0  0  0  0  0  1  0  0  0  0  0  0
  -26.9680  -30.3610   24.7780 C   0  0  0  0  0  1  0  0  0  0  0  0
  -27.5740  -32.5290   25.8210 C   0  0  0  0  0  1  0  0  0  0  0  0
  -33.2610  -19.6900   20.3270 C   0  0  0  0  0  2  0  0  0  0  0  0
  -32.2770  -19.1480   22.5170 C   0  0  0  0  0  1  0  0  0  0  0  0
  -32.1340  -19.0430   21.0450 N   0  0  2  0  0  4  0  0  0  0  0  0
  -31.3710  -19.6580   20.8020 H   0  0  0  0  0  0  0  0  0  0  0  0
  -31.7840  -17.6780   20.5310 C   0  0  0  0  0  2  0  0  0  0  0  0
  -30.8490  -16.8510   21.4780 C   0  0  0  0  0  2  0  0  0  0  0  0
  -30.6820  -14.6360   20.3090 C   0  0  0  0  0  0  0  0  0  0  0  0
  -30.3510  -12.4830   19.1490 C   0  0  0  0  0  2  0  0  0  0  0  0
  -29.3850  -12.6470   17.9590 C   0  0  0  0  0  2  0  0  0  0  0  0
  -27.9360  -12.4150   18.4300 C   0  0  0  0  0  2  0  0  0  0  0  0
  -27.5780  -13.2670   19.6720 C   0  0  0  0  0  3  0  0  0  0  0  0
  -28.6700  -13.1240   20.7700 C   0  0  0  0  0  2  0  0  0  0  0  0
  -29.9690  -13.4770   20.1710 N   0  0  0  0  0  0  0  0  0  0  0  0
  -31.8440  -14.7240   19.9060 O   0  0  0  0  0  0  0  0  0  0  0  0
  -28.7510  -16.2100   20.4500 C   0  0  0  0  0  1  0  0  0  0  0  0
  -30.0850  -15.7450   20.8500 N   0  0  0  0  0  0  0  0  0  0  0  0
  -25.1920  -13.8650   20.4150 C   0  0  0  0  0  0  0  0  0  0  0  0
  -24.1410  -13.0860   20.8120 C   0  0  0  0  0  0  0  0  0  0  0  0
  -24.6230  -11.7410   20.7900 C   0  0  0  0  0  0  0  0  0  0  0  0
  -26.2440  -12.9910   20.1810 N   0  0  0  0  0  0  0  0  0  0  0  0
  -25.9080  -11.7110   20.4690 N   0  0  0  0  0  0  0  0  0  0  0  0
  -23.9240  -10.4700   21.0030 C   0  0  0  0  0  0  0  0  0  0  0  0
  -24.3740   -9.5350   21.9590 C   0  0  0  0  0  3  0  0  0  0  0  0
  -23.6830   -8.3210   22.1530 C   0  0  0  0  0  3  0  0  0  0  0  0
  -22.5260   -8.0380   21.3910 C   0  0  0  0  0  0  0  0  0  0  0  0
  -22.0920   -8.9630   20.4260 C   0  0  0  0  0  3  0  0  0  0  0  0
  -22.7860  -10.1680   20.2290 C   0  0  0  0  0  3  0  0  0  0  0  0
  -21.8030   -6.8750   21.4950 O   0  0  0  0  0  0  0  0  0  0  0  0
  -21.7490   -6.1640   22.6650 C   0  0  0  0  0  0  0  0  0  0  0  0
  -21.2590   -6.7350   23.8610 C   0  0  0  0  0  3  0  0  0  0  0  0
  -21.1600   -5.9480   25.0260 C   0  0  0  0  0  3  0  0  0  0  0  0
  -21.5360   -4.5920   24.9960 C   0  0  0  0  0  0  0  0  0  0  0  0
  -22.0150   -4.0210   23.8030 C   0  0  0  0  0  3  0  0  0  0  0  0
  -22.1180   -4.8060   22.6410 C   0  0  0  0  0  0  0  0  0  0  0  0
  -22.5640   -4.2450   21.4920 F   0  0  0  0  0  0  0  0  0  0  0  0
  -21.4270   -3.8350   26.1100 F   0  0  0  0  0  0  0  0  0  0  0  0
  -22.7390  -13.5460   21.0880 C   0  0  0  0  0  0  0  0  0  0  0  0
  -22.0280  -12.8530   21.9680 N   0  0  0  0  0  0  0  0  0  0  0  0
  -22.2820  -14.5580   20.5560 O   0  0  0  0  0  0  0  0  0  0  0  0
  -22.4070  -12.0350   22.4230 H   0  0  0  0  0  0  0  0  0  0  0  0
  -21.0880  -13.1470   22.1890 H   0  0  0  0  0  0  0  0  0  0  0  0
  -25.3310  -15.2350   20.2090 N   0  0  0  0  0  0  0  0  0  0  0  0
  -24.5640  -15.8870   20.3280 H   0  0  0  0  0  0  0  0  0  0  0  0
  -26.1660  -15.6690   19.8370 H   0  0  0  0  0  0  0  0  0  0  0  0
  1  3  1  0
  2  1  2  0
  3 52  1  0
  4  7  1  0
  5  4  1  0
  6  2  1  0
  6  4  2  0
  7  3  2  0
  8  2  1  0
  8  9  1  0
 10  9  1  0
 10 11  1  0
 12 23  2  0
 13 11  1  0
 13 18  1  0
 14 22  1  0
 14 24  1  0
 15 21  1  0
 15 17  1  0
 16 22  1  0
 17 16  1  0
 18 17  2  0
 19 20  1  0
 19 13  2  0
 20 15  2  0
 21 14  1  0
 22 12  1  0
 24 26  2  0
 25 24  1  0
 27 25  1  0
 28 37  2  0
 28 33  1  0
 29 25  1  0
 29 33  1  0
 30 29  1  0
 31 32  1  0
 31 30  1  0
 32 28  1  0
 33 34  2  0
 34 35  1  0
 36 35  2  0
 37 36  1  0
 38 12  1  0
 38 39  1  0
 38 48  1  0
 39 42  1  0
 40 44  1  0
 40 39  1  0
 41 40  2  0
 44 43  1  0
 46 44  1  0
 46 47  1  0
 46 45  1  0
 48 51  1  1
 48 49  1  0
 50 48  1  0
 52 54  1  0
 54 53  1  0
 54 55  1  6
 56 54  1  0
 56 57  1  0
 58 67  1  0
 59 64  1  0
 60 61  1  0
 60 59  1  0
 62 61  1  0
 62 71  1  0
 62 63  1  0
 64 58  1  0
 64 63  1  0
 65 58  2  0
 66 67  1  0
 67 57  1  0
 68 69  2  0
 69 88  1  0
 70 69  1  0
 70 73  1  0
 71 68  1  0
 71 72  1  0
 72 70  2  0
 73 74  1  0
 74 75  2  0
 76 79  1  0
 76 75  1  0
 77 76  2  0
 78 77  1  0
 78 73  2  0
 79 80  1  0
 80 81  1  0
 81 82  2  0
 83 82  1  0
 83 87  1  0
 84 83  2  0
 85 80  2  0
 85 84  1  0
 86 85  1  0
 88 89  1  0
 89 92  1  0
 89 91  1  0
 90 88  2  0
 93 94  1  0
 93 68  1  0
 95 93  1  0
M  ISO  4  10 101  11 101  58 100  67 100
M  END
>  <TORSDO>  (36) 
F 23

>  <SCORE>  (36) 
-12.641

>  <name>  (36) 
36

>  <ligand_id>  (36) 
36

>  <original_smiles>  (36) 
[H]c1c(C([H])([H])C([H])([H])C([H])([H])Oc2c([H])c([H])c3c(c2[H])C([H])([H])N(C(=O)C([H])(N([H])C(=O)C([H])(N([H])C([H])([H])[H])C([H])([H])[H])C(C([H])([H])[H])(C([H])([H])[H])C([H])([H])[H])C([H])(C(=O)N([H])C2([H])c4c([H])c([H])c([H])c([H])c4C([H])([H])C([H])([H])C2([H])[H])C3([H])[H])nc(C([H])([H])[H])nc1C([H])([H])[N+]([H])(C([H])([H])[H])C([H])([H])C([H])([H])N(C(=O)N1C([H])([H])C([H])([H])C([H])([H])C([H])(n2nc(-c3c([H])c([H])c(Oc4c([H])c([H])c(F)c([H])c4F)c([H])c3[H])c(C(=O)N([H])[H])c2N([H])[H])C1([H])[H])C([H])([H])[H]

>  <smiles>  (36) 
[H]c1c(C([H])([H])C([H])([H])C([H])([H])Oc2c([H])c([H])c3c(c2[H])C([H])([H])N(C(=O)C([H])(N([H])C(=O)C([H])(N([H])C([H])([H])[H])C([H])([H])[H])C(C([H])([H])[H])(C([H])([H])[H])C([H])([H])[H])C([H])(C(=O)N([H])C2([H])c4c([H])c([H])c([H])c([H])c4C([H])([H])C([H])([H])C2([H])[H])C3([H])[H])nc(C([H])([H])[H])nc1C([H])([H])[N+]([H])(C([H])([H])[H])C([H])([H])C([H])([H])N(C(=O)N1C([H])([H])C([H])([H])C([H])([H])C([H])(n2nc(-c3c([H])c([H])c(Oc4c([H])c([H])c(F)c([H])c4F)c([H])c3[H])c(C(=O)N([H])[H])c2N([H])[H])C1([H])[H])C([H])([H])[H]

$$$$
37:0:0
     RDKit          3D

 94102  0  0  1  0  0  0  0  0999 V2000
  -31.9730  -22.0090   21.4980 C   0  0  0  0  0  3  0  0  0  0  0  0
  -30.3630  -21.6260   19.7910 C   0  0  0  0  0  3  0  0  0  0  0  0
  -31.2450  -21.0820   20.7370 C   0  0  0  0  0  0  0  0  0  0  0  0
  -30.9760  -23.7460   20.3920 C   0  0  0  0  0  0  0  0  0  0  0  0
  -31.8290  -23.3370   21.3240 N   0  0  0  0  0  0  0  0  0  0  0  0
  -30.2220  -22.9570   19.6350 N   0  0  0  0  0  0  0  0  0  0  0  0
  -31.4770  -19.5720   20.8760 C   0  0  0  0  0  2  0  0  0  0  0  0
  -30.3630  -19.5650   23.1040 C   0  0  0  0  0  1  0  0  0  0  0  0
  -30.5780  -18.8450   21.8230 N   0  0  2  0  0  4  0  0  0  0  0  0
  -29.6670  -18.7890   21.3900 H   0  0  0  0  0  0  0  0  0  0  0  0
  -30.9870  -17.4310   22.0790 C   0  0  0  0  0  3  0  0  0  0  0  0
  -31.0740  -16.5310   20.8150 C   0  0  0  0  0  3  0  0  0  0  0  0
  -31.4070  -14.2400   20.0320 C   0  0  0  0  0  0  0  0  0  0  0  0
  -30.7730  -12.2760   18.6720 C   0  0  0  0  0  2  0  0  0  0  0  0
  -29.7540  -12.6540   17.5820 C   0  0  0  0  0  2  0  0  0  0  0  0
  -28.3180  -12.5770   18.1300 C   0  0  0  0  0  2  0  0  0  0  0  0
  -28.1570  -13.3370   19.4720 C   0  0  0  0  0  3  0  0  0  0  0  0
  -29.2720  -12.9450   20.4640 C   0  0  0  0  0  2  0  0  0  0  0  0
  -30.5830  -13.1750   19.8220 N   0  0  0  0  0  0  0  0  0  0  0  0
  -32.3510  -14.5070   19.2800 O   0  0  0  0  0  0  0  0  0  0  0  0
  -31.2880  -14.5860   22.4290 C   0  0  0  0  0  1  0  0  0  0  0  0
  -31.0820  -15.0660   21.0550 N   0  0  0  0  0  0  0  0  0  0  0  0
  -25.8690  -14.0620   20.4070 C   0  0  0  0  0  0  0  0  0  0  0  0
  -24.7850  -13.3410   20.8330 C   0  0  0  0  0  0  0  0  0  0  0  0
  -25.1500  -11.9660   20.7030 C   0  0  0  0  0  0  0  0  0  0  0  0
  -26.8290  -13.1290   20.0480 N   0  0  0  0  0  0  0  0  0  0  0  0
  -26.4040  -11.8600   20.2810 N   0  0  0  0  0  0  0  0  0  0  0  0
  -24.3600  -10.7440   20.8990 C   0  0  0  0  0  0  0  0  0  0  0  0
  -24.7490   -9.7540   21.8280 C   0  0  0  0  0  3  0  0  0  0  0  0
  -23.9640   -8.5970   22.0130 C   0  0  0  0  0  3  0  0  0  0  0  0
  -22.7740   -8.4200   21.2660 C   0  0  0  0  0  0  0  0  0  0  0  0
  -22.4030   -9.3980   20.3270 C   0  0  0  0  0  3  0  0  0  0  0  0
  -23.1890  -10.5480   20.1410 C   0  0  0  0  0  3  0  0  0  0  0  0
  -21.9610   -7.3160   21.3590 O   0  0  0  0  0  0  0  0  0  0  0  0
  -21.8240   -6.6210   22.5340 C   0  0  0  0  0  0  0  0  0  0  0  0
  -21.3850   -7.2460   23.7220 C   0  0  0  0  0  3  0  0  0  0  0  0
  -21.1900   -6.4800   24.8900 C   0  0  0  0  0  3  0  0  0  0  0  0
  -21.4230   -5.0930   24.8690 C   0  0  0  0  0  0  0  0  0  0  0  0
  -21.8530   -4.4670   23.6850 C   0  0  0  0  0  3  0  0  0  0  0  0
  -22.0490   -5.2300   22.5210 C   0  0  0  0  0  0  0  0  0  0  0  0
  -22.4440   -4.6190   21.3770 F   0  0  0  0  0  0  0  0  0  0  0  0
  -21.2280   -4.3550   25.9870 F   0  0  0  0  0  0  0  0  0  0  0  0
  -23.4510  -13.8910   21.2470 C   0  0  0  0  0  0  0  0  0  0  0  0
  -22.7720  -13.2210   22.1740 N   0  0  0  0  0  0  0  0  0  0  0  0
  -23.0230  -14.9480   20.7850 O   0  0  0  0  0  0  0  0  0  0  0  0
  -23.1350  -12.3650   22.5680 H   0  0  0  0  0  0  0  0  0  0  0  0
  -21.8800  -13.5700   22.4920 H   0  0  0  0  0  0  0  0  0  0  0  0
  -26.1100  -15.4260   20.2780 N   0  0  0  0  0  0  0  0  0  0  0  0
  -25.4000  -16.1230   20.4790 H   0  0  0  0  0  0  0  0  0  0  0  0
  -26.9610  -15.8250   19.9010 H   0  0  0  0  0  0  0  0  0  0  0  0
  -30.8820  -25.2480   20.1620 C   0  0  0  0  0  2  0  0  0  0  0  0
  -30.0990  -26.0040   21.2520 C   0  0  0  0  0  2  0  0  0  0  0  0
  -28.5750  -25.8710   21.1540 C   0  0  0  0  0  2  0  0  0  0  0  0
  -28.1270  -26.4380   19.9260 O   0  0  0  0  0  0  0  0  0  0  0  0
  -24.5980  -31.7090   23.1840 C   0  0  0  0  0  0  0  0  0  0  0  0
  -26.9960  -27.2060   20.0210 C   0  0  0  0  0  0  0  0  0  0  0  0
  -23.2930  -30.3540   21.5760 C   0  0  0  0  0  3  0  0  0  0  0  0
  -24.6490  -28.7670   20.1090 C   0  0  0  0  0  0  0  0  0  0  0  0
  -25.8180  -30.6300   21.3010 C   0  0  0  0  0  2  0  0  0  0  0  0
  -25.8380  -29.2570   20.6670 C   0  0  0  0  0  0  0  0  0  0  0  0
  -27.0160  -28.4810   20.6270 C   0  0  0  0  0  3  0  0  0  0  0  0
  -25.7990  -26.7240   19.4560 C   0  0  0  0  0  3  0  0  0  0  0  0
  -24.6220  -27.4960   19.5070 C   0  0  0  0  0  3  0  0  0  0  0  0
  -23.4370  -29.6670   20.1900 C   0  0  0  0  0  2  0  0  0  0  0  0
  -24.5900  -30.9110   22.0790 N   0  0  0  0  0  0  0  0  0  0  0  0
  -23.5450  -32.0190   23.7570 O   0  0  0  0  0  0  0  0  0  0  0  0
  -22.6350  -29.3560   22.5540 C   0  0  0  0  0  0  0  0  0  0  0  0
  -21.3060  -29.1970   22.4410 N   0  0  0  0  0  0  0  0  0  0  0  0
  -23.3150  -28.7260   23.3680 O   0  0  0  0  0  0  0  0  0  0  0  0
  -20.8200  -29.7560   21.7540 H   0  0  0  0  0  0  0  0  0  0  0  0
  -17.9190  -28.0570   22.9630 C   0  0  0  0  0  0  0  0  0  0  0  0
  -20.4800  -28.2850   23.2290 C   0  0  0  0  0  3  0  0  0  0  0  0
  -20.5620  -26.8420   22.6770 C   0  0  0  0  0  2  0  0  0  0  0  0
  -19.4550  -26.5190   21.6700 C   0  0  0  0  0  2  0  0  0  0  0  0
  -18.0760  -26.6940   22.3110 C   0  0  0  0  0  2  0  0  0  0  0  0
  -19.0480  -28.8110   23.3790 C   0  0  0  0  0  0  0  0  0  0  0  0
  -18.8480  -30.0880   23.9470 C   0  0  0  0  0  3  0  0  0  0  0  0
  -17.5510  -30.6110   24.1040 C   0  0  0  0  0  3  0  0  0  0  0  0
  -16.4350  -29.8550   23.7040 C   0  0  0  0  0  3  0  0  0  0  0  0
  -16.6200  -28.5810   23.1400 C   0  0  0  0  0  3  0  0  0  0  0  0
  -25.9260  -32.2880   23.7660 C   0  0  0  0  0  3  0  0  0  0  0  0
  -25.6730  -33.6860   24.1380 N   0  0  0  0  0  0  0  0  0  0  0  0
  -26.0220  -34.7440   23.3950 C   0  0  0  0  0  0  0  0  0  0  0  0
  -26.6640  -34.6440   22.3450 O   0  0  0  0  0  0  0  0  0  0  0  0
  -25.1030  -33.8400   24.9560 H   0  0  0  0  0  0  0  0  0  0  0  0
  -24.3550  -36.6050   23.1100 C   0  0  0  0  0  1  0  0  0  0  0  0
  -25.5900  -36.1350   23.8960 C   0  0  0  0  0  3  0  0  0  0  0  0
  -27.7650  -36.9180   24.7240 C   0  0  0  0  0  1  0  0  0  0  0  0
  -26.6600  -37.1530   23.7980 N   0  0  0  0  0  0  0  0  0  0  0  0
  -26.2890  -38.0830   23.9750 H   0  0  0  0  0  0  0  0  0  0  0  0
  -26.4740  -31.4710   25.0000 C   0  0  1  0  0  0  0  0  0  0  0  0
  -25.4170  -31.2310   26.1040 C   0  0  0  0  0  1  0  0  0  0  0  0
  -27.0060  -30.0910   24.5460 C   0  0  0  0  0  1  0  0  0  0  0  0
  -27.6690  -32.2190   25.6350 C   0  0  0  0  0  1  0  0  0  0  0  0
  2  3  1  0
  3  7  1  0
  3  1  2  0
  4  5  2  0
  5  1  1  0
  6  2  2  0
  6  4  1  0
  7  9  1  0
  9 11  1  0
  9  8  1  0
  9 10  1  6
 12 22  1  0
 12 11  2  0
 13 22  1  0
 14 19  1  0
 15 16  1  0
 15 14  1  0
 17 16  1  0
 17 26  1  0
 17 18  1  0
 19 13  1  0
 19 18  1  0
 20 13  2  0
 22 21  1  0
 23 24  2  0
 24 43  1  0
 25 24  1  0
 25 28  1  0
 26 27  1  0
 26 23  1  0
 27 25  2  0
 28 29  1  0
 29 30  2  0
 31 34  1  0
 31 30  1  0
 32 31  2  0
 33 32  1  0
 33 28  2  0
 34 35  1  0
 35 36  1  0
 36 37  2  0
 38 37  1  0
 38 42  1  0
 39 38  2  0
 40 35  2  0
 40 39  1  0
 41 40  1  0
 43 44  1  0
 44 47  1  0
 44 46  1  0
 45 43  2  0
 48 23  1  0
 48 49  1  0
 50 48  1  0
 51  4  1  0
 51 52  1  0
 53 52  1  0
 54 56  1  0
 54 53  1  0
 55 66  2  0
 56 61  1  0
 57 65  1  0
 57 67  1  0
 58 64  1  0
 58 60  1  0
 59 65  1  0
 60 59  1  0
 61 60  2  0
 62 63  1  0
 62 56  2  0
 63 58  2  0
 64 57  1  0
 65 55  1  0
 67 69  2  0
 68 67  1  0
 70 68  1  0
 71 80  2  0
 71 76  1  0
 72 68  1  0
 72 76  1  0
 73 72  1  0
 74 75  1  0
 74 73  1  0
 75 71  1  0
 76 77  2  0
 77 78  1  0
 79 78  2  0
 80 79  1  0
 81 55  1  0
 81 82  1  0
 81 91  1  0
 82 85  1  0
 83 87  1  0
 83 82  1  0
 84 83  2  0
 87 86  1  0
 89 87  1  0
 89 90  1  0
 89 88  1  0
 91 94  1  1
 91 92  1  0
 93 91  1  0
M  ISO  4  13 100  22 100  53 101  54 101
M  END
>  <TORSDO>  (37) 
F 23

>  <SCORE>  (37) 
-10.133

>  <name>  (37) 
37

>  <ligand_id>  (37) 
37

>  <original_smiles>  (37) 
[H]c1nc(C([H])([H])C([H])([H])C([H])([H])Oc2c([H])c([H])c3c(c2[H])C([H])([H])N(C(=O)C([H])(N([H])C(=O)C([H])(N([H])C([H])([H])[H])C([H])([H])[H])C(C([H])([H])[H])(C([H])([H])[H])C([H])([H])[H])C([H])(C(=O)N([H])C2([H])c4c([H])c([H])c([H])c([H])c4C([H])([H])C([H])([H])C2([H])[H])C3([H])[H])nc([H])c1C([H])([H])[N+]([H])(C([H])([H])[H])C([H])([H])C([H])([H])N(C(=O)N1C([H])([H])C([H])([H])C([H])([H])C([H])(n2nc(-c3c([H])c([H])c(Oc4c([H])c([H])c(F)c([H])c4F)c([H])c3[H])c(C(=O)N([H])[H])c2N([H])[H])C1([H])[H])C([H])([H])[H]

>  <smiles>  (37) 
[H]c1nc(C([H])([H])C([H])([H])C([H])([H])Oc2c([H])c([H])c3c(c2[H])C([H])([H])N(C(=O)C([H])(N([H])C(=O)C([H])(N([H])C([H])([H])[H])C([H])([H])[H])C(C([H])([H])[H])(C([H])([H])[H])C([H])([H])[H])C([H])(C(=O)N([H])C2([H])c4c([H])c([H])c([H])c([H])c4C([H])([H])C([H])([H])C2([H])[H])C3([H])[H])nc([H])c1C([H])([H])[N+]([H])(C([H])([H])[H])C([H])([H])C([H])([H])N(C(=O)N1C([H])([H])C([H])([H])C([H])([H])C([H])(n2nc(-c3c([H])c([H])c(Oc4c([H])c([H])c(F)c([H])c4F)c([H])c3[H])c(C(=O)N([H])[H])c2N([H])[H])C1([H])[H])C([H])([H])[H]

$$$$
38:0:0
     RDKit          3D

 95103  0  0  1  0  0  0  0  0999 V2000
  -30.0110  -21.3930   19.2290 C   0  0  0  0  0  3  0  0  0  0  0  0
  -30.0290  -22.6180   20.0090 C   0  0  0  0  0  0  0  0  0  0  0  0
  -30.2280  -20.2830   20.0590 C   0  0  0  0  0  0  0  0  0  0  0  0
  -30.2680  -22.2570   21.2500 N   0  0  0  0  0  0  0  0  0  0  0  0
  -30.4190  -20.8940   21.3160 N   0  0  0  0  0  0  0  0  0  0  0  0
  -30.6140  -18.5880   18.2270 C   0  0  0  0  0  1  0  0  0  0  0  0
  -28.7280  -18.1650   19.7400 C   0  0  0  0  0  1  0  0  0  0  0  0
  -30.1760  -18.7120   19.7080 C   0  0  2  0  0  0  0  0  0  0  0  0
  -31.1030  -17.6380   20.4970 C   0  0  0  0  0  2  0  0  0  0  0  0
  -31.4120  -15.0010   20.4970 C   0  0  0  0  0  0  0  0  0  0  0  0
  -31.1800  -12.6520   19.6970 C   0  0  0  0  0  2  0  0  0  0  0  0
  -30.3110  -12.6060   18.4220 C   0  0  0  0  0  2  0  0  0  0  0  0
  -28.8140  -12.5300   18.7730 C   0  0  0  0  0  2  0  0  0  0  0  0
  -28.3970  -13.5560   19.8580 C   0  0  0  0  0  3  0  0  0  0  0  0
  -29.3830  -13.5710   21.0460 C   0  0  0  0  0  2  0  0  0  0  0  0
  -30.7280  -13.8070   20.5020 N   0  0  0  0  0  0  0  0  0  0  0  0
  -32.6220  -15.0300   20.2680 O   0  0  0  0  0  0  0  0  0  0  0  0
  -30.6780  -16.1670   20.5380 N   0  0  0  0  0  0  0  0  0  0  0  0
  -29.6840  -16.0230   20.6190 H   0  0  0  0  0  0  0  0  0  0  0  0
  -26.0320  -14.3010   20.5230 C   0  0  0  0  0  0  0  0  0  0  0  0
  -24.8980  -13.5950   20.8280 C   0  0  0  0  0  0  0  0  0  0  0  0
  -25.2620  -12.2160   20.7680 C   0  0  0  0  0  0  0  0  0  0  0  0
  -27.0170  -13.3530   20.2930 N   0  0  0  0  0  0  0  0  0  0  0  0
  -26.5580  -12.0930   20.5050 N   0  0  0  0  0  0  0  0  0  0  0  0
  -24.4380  -11.0050   20.8840 C   0  0  0  0  0  0  0  0  0  0  0  0
  -24.7470   -9.9860   21.8100 C   0  0  0  0  0  3  0  0  0  0  0  0
  -23.9250   -8.8420   21.9170 C   0  0  0  0  0  3  0  0  0  0  0  0
  -22.7810   -8.7110   21.0950 C   0  0  0  0  0  0  0  0  0  0  0  0
  -22.4890   -9.7200   20.1600 C   0  0  0  0  0  3  0  0  0  0  0  0
  -23.3110  -10.8550   20.0510 C   0  0  0  0  0  3  0  0  0  0  0  0
  -21.9390   -7.6250   21.1120 O   0  0  0  0  0  0  0  0  0  0  0  0
  -21.7220   -6.9000   22.2570 C   0  0  0  0  0  0  0  0  0  0  0  0
  -21.2170   -7.4970   23.4320 C   0  0  0  0  0  3  0  0  0  0  0  0
  -20.9440   -6.7030   24.5650 C   0  0  0  0  0  3  0  0  0  0  0  0
  -21.1640   -5.3130   24.5200 C   0  0  0  0  0  0  0  0  0  0  0  0
  -21.6610   -4.7160   23.3490 C   0  0  0  0  0  3  0  0  0  0  0  0
  -21.9360   -5.5080   22.2190 C   0  0  0  0  0  0  0  0  0  0  0  0
  -22.3940   -4.9240   21.0860 F   0  0  0  0  0  0  0  0  0  0  0  0
  -20.8950   -4.5490   25.6050 F   0  0  0  0  0  0  0  0  0  0  0  0
  -23.5310  -14.1670   21.0600 C   0  0  0  0  0  0  0  0  0  0  0  0
  -22.7250  -13.5110   21.8900 N   0  0  0  0  0  0  0  0  0  0  0  0
  -23.1830  -15.2270   20.5430 O   0  0  0  0  0  0  0  0  0  0  0  0
  -23.0180  -12.6520   22.3300 H   0  0  0  0  0  0  0  0  0  0  0  0
  -21.8020  -13.8730   22.0880 H   0  0  0  0  0  0  0  0  0  0  0  0
  -26.2960  -15.6610   20.3990 N   0  0  0  0  0  0  0  0  0  0  0  0
  -25.5650  -16.3550   20.5030 H   0  0  0  0  0  0  0  0  0  0  0  0
  -27.1700  -16.0520   20.0770 H   0  0  0  0  0  0  0  0  0  0  0  0
  -29.4580  -20.1140   23.4960 C   0  0  0  0  0  1  0  0  0  0  0  0
  -30.7300  -20.3350   22.6460 C   0  0  0  0  0  3  0  0  0  0  0  0
  -31.2400  -22.4300   24.1860 C   0  0  0  0  0  1  0  0  0  0  0  0
  -32.6190  -20.3610   24.4250 C   0  0  0  0  0  1  0  0  0  0  0  0
  -31.7930  -21.1890   23.4330 C   0  0  0  0  0  3  0  0  0  0  0  0
  -30.0150  -24.1650   19.6410 C   0  0  0  0  0  3  0  0  0  0  0  0
  -28.6980  -25.0850   19.8320 C   0  0  0  0  0  3  0  0  0  0  0  0
  -28.7800  -26.5920   19.8410 O   0  0  0  0  0  0  0  0  0  0  0  0
  -24.6450  -31.6170   23.1010 C   0  0  0  0  0  0  0  0  0  0  0  0
  -27.5940  -27.3690   19.8510 C   0  0  0  0  0  0  0  0  0  0  0  0
  -23.5400  -30.1760   21.4300 C   0  0  0  0  0  3  0  0  0  0  0  0
  -25.0980  -28.7970   19.9370 C   0  0  0  0  0  0  0  0  0  0  0  0
  -26.0450  -30.7080   21.2260 C   0  0  0  0  0  2  0  0  0  0  0  0
  -26.2360  -29.3650   20.5240 C   0  0  0  0  0  0  0  0  0  0  0  0
  -27.4900  -28.6680   20.4570 C   0  0  0  0  0  3  0  0  0  0  0  0
  -26.4170  -26.8600   19.2600 C   0  0  0  0  0  3  0  0  0  0  0  0
  -25.1920  -27.5550   19.2940 C   0  0  0  0  0  3  0  0  0  0  0  0
  -23.7880  -29.5570   20.0330 C   0  0  0  0  0  2  0  0  0  0  0  0
  -24.7610  -30.8520   21.9760 N   0  0  0  0  0  0  0  0  0  0  0  0
  -23.5480  -31.7860   23.6550 O   0  0  0  0  0  0  0  0  0  0  0  0
  -22.9710  -29.0840   22.3680 C   0  0  0  0  0  0  0  0  0  0  0  0
  -21.6710  -28.7740   22.2210 N   0  0  0  0  0  0  0  0  0  0  0  0
  -23.7010  -28.5170   23.1850 O   0  0  0  0  0  0  0  0  0  0  0  0
  -21.1380  -29.2890   21.5330 H   0  0  0  0  0  0  0  0  0  0  0  0
  -18.4480  -27.1700   22.5990 C   0  0  0  0  0  0  0  0  0  0  0  0
  -20.9450  -27.7420   22.9600 C   0  0  0  0  0  3  0  0  0  0  0  0
  -21.2440  -26.3380   22.3850 C   0  0  0  0  0  2  0  0  0  0  0  0
  -20.2270  -25.8860   21.3330 C   0  0  0  0  0  2  0  0  0  0  0  0
  -18.8160  -25.8550   21.9280 C   0  0  0  0  0  2  0  0  0  0  0  0
  -19.4490  -28.0620   23.0670 C   0  0  0  0  0  0  0  0  0  0  0  0
  -19.0560  -29.2830   23.6570 C   0  0  0  0  0  3  0  0  0  0  0  0
  -17.6950  -29.6210   23.7790 C   0  0  0  0  0  3  0  0  0  0  0  0
  -16.7090  -28.7270   23.3290 C   0  0  0  0  0  3  0  0  0  0  0  0
  -17.0850  -27.5040   22.7450 C   0  0  0  0  0  3  0  0  0  0  0  0
  -25.8770  -32.3330   23.7350 C   0  0  0  0  0  3  0  0  0  0  0  0
  -25.4670  -33.7060   24.0660 N   0  0  0  0  0  0  0  0  0  0  0  0
  -25.7330  -34.7830   23.3170 C   0  0  0  0  0  0  0  0  0  0  0  0
  -26.4140  -34.7330   22.2890 O   0  0  0  0  0  0  0  0  0  0  0  0
  -24.8510  -33.8140   24.8570 H   0  0  0  0  0  0  0  0  0  0  0  0
  -23.8860  -36.4620   22.9870 C   0  0  0  0  0  1  0  0  0  0  0  0
  -25.1570  -36.1330   23.7870 C   0  0  0  0  0  3  0  0  0  0  0  0
  -27.2290  -37.1590   24.6170 C   0  0  0  0  0  1  0  0  0  0  0  0
  -26.1150  -37.2530   23.6760 N   0  0  0  0  0  0  0  0  0  0  0  0
  -25.6460  -38.1430   23.8250 H   0  0  0  0  0  0  0  0  0  0  0  0
  -26.4310  -31.5960   25.0140 C   0  0  1  0  0  0  0  0  0  0  0  0
  -25.3490  -31.2990   26.0800 C   0  0  0  0  0  1  0  0  0  0  0  0
  -27.0940  -30.2530   24.6290 C   0  0  0  0  0  1  0  0  0  0  0  0
  -27.5320  -32.4590   25.6770 C   0  0  0  0  0  1  0  0  0  0  0  0
  1  2  1  0
  1  3  2  0
  2  4  2  0
  3  5  1  0
  4  5  1  0
  5 49  1  0
  8  6  1  6
  8  7  1  0
  8  3  1  0
  8  9  1  0
  9 18  1  0
 10 16  1  0
 10 18  1  0
 11 16  1  0
 12 13  1  0
 12 11  1  0
 14 13  1  0
 14 23  1  0
 14 15  1  0
 16 15  1  0
 17 10  2  0
 18 19  1  0
 20 21  2  0
 21 40  1  0
 22 21  1  0
 22 25  1  0
 23 24  1  0
 23 20  1  0
 24 22  2  0
 25 26  1  0
 26 27  2  0
 28 31  1  0
 28 27  1  0
 29 28  2  0
 30 29  1  0
 30 25  2  0
 31 32  1  0
 32 33  1  0
 33 34  2  0
 35 34  1  0
 35 39  1  0
 36 35  2  0
 37 32  2  0
 37 36  1  0
 38 37  1  0
 40 41  1  0
 41 44  1  0
 41 43  1  0
 42 40  2  0
 45 46  1  0
 45 20  1  0
 47 45  1  0
 49 52  1  0
 49 48  1  0
 52 50  1  0
 52 51  1  0
 53 54  2  0
 53  2  1  0
 54 55  1  0
 55 57  1  0
 56 67  2  0
 57 62  1  0
 58 66  1  0
 58 68  1  0
 59 65  1  0
 59 61  1  0
 60 66  1  0
 61 60  1  0
 62 61  2  0
 63 64  1  0
 63 57  2  0
 64 59  2  0
 65 58  1  0
 66 56  1  0
 68 70  2  0
 69 68  1  0
 71 69  1  0
 72 81  2  0
 72 77  1  0
 73 69  1  0
 73 77  1  0
 74 73  1  0
 75 76  1  0
 75 74  1  0
 76 72  1  0
 77 78  2  0
 78 79  1  0
 80 79  2  0
 81 80  1  0
 82 56  1  0
 82 83  1  0
 82 92  1  0
 83 86  1  0
 84 88  1  0
 84 83  1  0
 85 84  2  0
 88 87  1  0
 90 88  1  0
 90 91  1  0
 90 89  1  0
 92 95  1  1
 92 93  1  0
 94 92  1  0
M  ISO  4  10 100  18 100  54 101  55 101
M  END
>  <TORSDO>  (38) 
F 22

>  <SCORE>  (38) 
-8.387

>  <name>  (38) 
38

>  <ligand_id>  (38) 
38

>  <original_smiles>  (38) 
[H]c1c([H])c([H])c2c(c1[H])C([H])([H])C([H])([H])C([H])([H])C2([H])N([H])C(=O)C1([H])N(C(=O)C([H])(N([H])C(=O)C([H])(N([H])C([H])([H])[H])C([H])([H])[H])C(C([H])([H])[H])(C([H])([H])[H])C([H])([H])[H])C([H])([H])c2c([H])c(OC([H])([H])C([H])([H])c3nn(C([H])(C([H])([H])[H])C([H])(C([H])([H])[H])C([H])([H])[H])c(C(C([H])([H])[H])(C([H])([H])[H])C([H])([H])N([H])C(=O)N4C([H])([H])C([H])([H])C([H])([H])C([H])(n5nc(-c6c([H])c([H])c(Oc7c([H])c([H])c(F)c([H])c7F)c([H])c6[H])c(C(=O)N([H])[H])c5N([H])[H])C4([H])[H])c3[H])c([H])c([H])c2C1([H])[H]

>  <smiles>  (38) 
[H]c1c([H])c([H])c2c(c1[H])C([H])([H])C([H])([H])C([H])([H])C2([H])N([H])C(=O)C1([H])N(C(=O)C([H])(N([H])C(=O)C([H])(N([H])C([H])([H])[H])C([H])([H])[H])C(C([H])([H])[H])(C([H])([H])[H])C([H])([H])[H])C([H])([H])c2c([H])c(OC([H])([H])C([H])([H])c3nn(C([H])(C([H])([H])[H])C([H])(C([H])([H])[H])C([H])([H])[H])c(C(C([H])([H])[H])(C([H])([H])[H])C([H])([H])N([H])C(=O)N4C([H])([H])C([H])([H])C([H])([H])C([H])(n5nc(-c6c([H])c([H])c(Oc7c([H])c([H])c(F)c([H])c7F)c([H])c6[H])c(C(=O)N([H])[H])c5N([H])[H])C4([H])[H])c3[H])c([H])c([H])c2C1([H])[H]

$$$$
39:0:0
     RDKit          3D

 96104  0  0  1  0  0  0  0  0999 V2000
  -24.6510  -21.5770   20.0940 C   0  0  0  0  0  1  0  0  0  0  0  0
  -26.0550  -22.0390   20.0100 N   0  0  1  0  0  4  0  0  0  0  0  0
  -26.4780  -21.7770   20.8860 H   0  0  0  0  0  0  0  0  0  0  0  0
  -26.8130  -21.3690   18.9230 C   0  0  0  0  0  2  0  0  0  0  0  0
  -27.1580  -18.9000   18.5930 C   0  0  0  0  0  3  0  0  0  0  0  0
  -28.0060  -17.7790   18.6260 C   0  0  0  0  0  3  0  0  0  0  0  0
  -27.5370  -20.0730   19.2840 C   0  0  0  0  0  0  0  0  0  0  0  0
  -29.2050  -17.8820   19.3470 C   0  0  0  0  0  0  0  0  0  0  0  0
  -28.6960  -20.0080   20.1000 C   0  0  0  0  0  0  0  0  0  0  0  0
  -29.1980  -21.1150   21.0040 C   0  0  0  0  0  1  0  0  0  0  0  0
  -29.5090  -18.9410   20.1100 N   0  0  0  0  0  0  0  0  0  0  0  0
  -30.3010  -16.8610   19.2160 C   0  0  0  0  0  2  0  0  0  0  0  0
  -30.9340  -14.6670   19.8490 C   0  0  0  0  0  0  0  0  0  0  0  0
  -30.5990  -12.4190   18.9340 C   0  0  0  0  0  2  0  0  0  0  0  0
  -29.6000  -12.4960   17.7630 C   0  0  0  0  0  2  0  0  0  0  0  0
  -28.1510  -12.3660   18.2780 C   0  0  0  0  0  2  0  0  0  0  0  0
  -27.8490  -13.3220   19.4640 C   0  0  0  0  0  3  0  0  0  0  0  0
  -28.9600  -13.2320   20.5300 C   0  0  0  0  0  2  0  0  0  0  0  0
  -30.2540  -13.4930   19.8720 N   0  0  0  0  0  0  0  0  0  0  0  0
  -32.0180  -14.8030   19.2680 O   0  0  0  0  0  0  0  0  0  0  0  0
  -29.9690  -16.1130   21.5640 C   0  0  0  0  0  1  0  0  0  0  0  0
  -30.2090  -15.7510   20.1630 N   0  0  0  0  0  0  0  0  0  0  0  0
  -25.5470  -13.9600   20.4270 C   0  0  0  0  0  0  0  0  0  0  0  0
  -24.4870  -13.1970   20.8420 C   0  0  0  0  0  0  0  0  0  0  0  0
  -24.8940  -11.8380   20.6820 C   0  0  0  0  0  0  0  0  0  0  0  0
  -26.5310  -13.0640   20.0420 N   0  0  0  0  0  0  0  0  0  0  0  0
  -26.1470  -11.7790   20.2510 N   0  0  0  0  0  0  0  0  0  0  0  0
  -24.1430  -10.5860   20.8550 C   0  0  0  0  0  0  0  0  0  0  0  0
  -24.5130   -9.6310   21.8270 C   0  0  0  0  0  3  0  0  0  0  0  0
  -23.7650   -8.4430   21.9840 C   0  0  0  0  0  3  0  0  0  0  0  0
  -22.6350   -8.2020   21.1680 C   0  0  0  0  0  0  0  0  0  0  0  0
  -22.2860   -9.1440   20.1850 C   0  0  0  0  0  3  0  0  0  0  0  0
  -23.0330  -10.3240   20.0260 C   0  0  0  0  0  3  0  0  0  0  0  0
  -21.8650   -7.0650   21.2320 O   0  0  0  0  0  0  0  0  0  0  0  0
  -21.6020   -6.4400   22.4250 C   0  0  0  0  0  0  0  0  0  0  0  0
  -20.9600   -7.1070   23.4920 C   0  0  0  0  0  3  0  0  0  0  0  0
  -20.6490   -6.4060   24.6740 C   0  0  0  0  0  3  0  0  0  0  0  0
  -20.9710   -5.0400   24.7890 C   0  0  0  0  0  0  0  0  0  0  0  0
  -21.6080   -4.3740   23.7270 C   0  0  0  0  0  3  0  0  0  0  0  0
  -21.9200   -5.0720   22.5480 C   0  0  0  0  0  0  0  0  0  0  0  0
  -22.5150   -4.4220   21.5190 F   0  0  0  0  0  0  0  0  0  0  0  0
  -20.6640   -4.3650   25.9210 F   0  0  0  0  0  0  0  0  0  0  0  0
  -23.1390  -13.6970   21.2730 C   0  0  0  0  0  0  0  0  0  0  0  0
  -22.4790  -12.9800   22.1770 N   0  0  0  0  0  0  0  0  0  0  0  0
  -22.6830  -14.7550   20.8440 O   0  0  0  0  0  0  0  0  0  0  0  0
  -22.8640  -12.1190   22.5380 H   0  0  0  0  0  0  0  0  0  0  0  0
  -21.5790  -13.2940   22.5100 H   0  0  0  0  0  0  0  0  0  0  0  0
  -25.7550  -15.3330   20.3330 N   0  0  0  0  0  0  0  0  0  0  0  0
  -25.0380  -16.0080   20.5730 H   0  0  0  0  0  0  0  0  0  0  0  0
  -26.6110  -15.7640   20.0030 H   0  0  0  0  0  0  0  0  0  0  0  0
  -26.1670  -23.5180   19.9230 C   0  0  0  0  0  2  0  0  0  0  0  0
  -27.4760  -24.0460   20.5590 C   0  0  0  0  0  2  0  0  0  0  0  0
  -27.6090  -25.5700   20.4960 C   0  0  0  0  0  2  0  0  0  0  0  0
  -28.2640  -25.4140   17.9170 C   0  0  0  0  0  1  0  0  0  0  0  0
  -28.4140  -26.1220   19.2790 C   0  0  0  0  0  3  0  0  0  0  0  0
  -28.3180  -27.5430   19.1640 O   0  0  0  0  0  0  0  0  0  0  0  0
  -24.4700  -31.9000   23.2120 C   0  0  0  0  0  0  0  0  0  0  0  0
  -27.0960  -28.1610   19.3160 C   0  0  0  0  0  0  0  0  0  0  0  0
  -23.2190  -30.7050   21.4450 C   0  0  0  0  0  3  0  0  0  0  0  0
  -24.6380  -29.4880   19.7160 C   0  0  0  0  0  0  0  0  0  0  0  0
  -25.7040  -31.2310   21.1560 C   0  0  0  0  0  2  0  0  0  0  0  0
  -25.8050  -29.9800   20.3120 C   0  0  0  0  0  0  0  0  0  0  0  0
  -27.0340  -29.3180   20.1180 C   0  0  0  0  0  3  0  0  0  0  0  0
  -25.9110  -27.6830   18.7080 C   0  0  0  0  0  3  0  0  0  0  0  0
  -24.6840  -28.3330   18.9180 C   0  0  0  0  0  3  0  0  0  0  0  0
  -23.3620  -30.2560   19.9660 C   0  0  0  0  0  2  0  0  0  0  0  0
  -24.4850  -31.2850   21.9970 N   0  0  0  0  0  0  0  0  0  0  0  0
  -23.4170  -32.0290   23.8500 O   0  0  0  0  0  0  0  0  0  0  0  0
  -22.6770  -29.5150   22.2680 C   0  0  0  0  0  0  0  0  0  0  0  0
  -21.3590  -29.2770   22.1730 N   0  0  0  0  0  0  0  0  0  0  0  0
  -23.4360  -28.8180   22.9470 O   0  0  0  0  0  0  0  0  0  0  0  0
  -20.8090  -29.8820   21.5810 H   0  0  0  0  0  0  0  0  0  0  0  0
  -18.0930  -27.7950   22.5840 C   0  0  0  0  0  0  0  0  0  0  0  0
  -20.6350  -28.1890   22.8280 C   0  0  0  0  0  3  0  0  0  0  0  0
  -20.8150  -26.8630   22.0490 C   0  0  0  0  0  2  0  0  0  0  0  0
  -19.7010  -26.6090   21.0310 C   0  0  0  0  0  2  0  0  0  0  0  0
  -18.3370  -26.5650   21.7250 C   0  0  0  0  0  2  0  0  0  0  0  0
  -19.1720  -28.5650   23.0900 C   0  0  0  0  0  0  0  0  0  0  0  0
  -18.8940  -29.7210   23.8500 C   0  0  0  0  0  3  0  0  0  0  0  0
  -17.5660  -30.1090   24.1100 C   0  0  0  0  0  3  0  0  0  0  0  0
  -16.5000  -29.3320   23.6230 C   0  0  0  0  0  3  0  0  0  0  0  0
  -16.7630  -28.1770   22.8670 C   0  0  0  0  0  3  0  0  0  0  0  0
  -25.7670  -32.4910   23.8480 C   0  0  0  0  0  3  0  0  0  0  0  0
  -25.4520  -33.8480   24.3140 N   0  0  0  0  0  0  0  0  0  0  0  0
  -25.7750  -34.9710   23.6590 C   0  0  0  0  0  0  0  0  0  0  0  0
  -26.4440  -34.9730   22.6200 O   0  0  0  0  0  0  0  0  0  0  0  0
  -24.8610  -33.9180   25.1290 H   0  0  0  0  0  0  0  0  0  0  0  0
  -24.0400  -36.7800   23.4650 C   0  0  0  0  0  1  0  0  0  0  0  0
  -25.2770  -36.3030   24.2440 C   0  0  0  0  0  3  0  0  0  0  0  0
  -27.3970  -37.1110   25.1820 C   0  0  0  0  0  1  0  0  0  0  0  0
  -26.3050  -37.3660   24.2460 N   0  0  0  0  0  0  0  0  0  0  0  0
  -25.8940  -38.2660   24.4810 H   0  0  0  0  0  0  0  0  0  0  0  0
  -26.3420  -31.6140   25.0280 C   0  0  1  0  0  0  0  0  0  0  0  0
  -25.2950  -31.2680   26.1110 C   0  0  0  0  0  1  0  0  0  0  0  0
  -26.9150  -30.2840   24.4850 C   0  0  0  0  0  1  0  0  0  0  0  0
  -27.5180  -32.3520   25.7100 C   0  0  0  0  0  1  0  0  0  0  0  0
  2  1  1  0
  2  3  1  1
  4  7  1  0
  4  2  1  0
  5  6  2  0
  5  7  1  0
  6  8  1  0
  7  9  2  0
  8 11  2  0
  9 11  1  0
  9 10  1  0
 12  8  1  0
 12 22  1  0
 13 19  1  0
 13 22  1  0
 14 19  1  0
 15 16  1  0
 15 14  1  0
 17 16  1  0
 17 26  1  0
 17 18  1  0
 19 18  1  0
 20 13  2  0
 22 21  1  0
 23 24  2  0
 24 43  1  0
 25 24  1  0
 25 28  1  0
 26 27  1  0
 26 23  1  0
 27 25  2  0
 28 29  1  0
 29 30  2  0
 31 34  1  0
 31 30  1  0
 32 31  2  0
 33 32  1  0
 33 28  2  0
 34 35  1  0
 35 40  2  0
 35 36  1  0
 36 37  2  0
 37 38  1  0
 38 42  1  0
 39 38  2  0
 40 39  1  0
 41 40  1  0
 43 44  1  0
 44 47  1  0
 44 46  1  0
 45 43  2  0
 48 23  1  0
 48 49  1  0
 50 48  1  0
 51  2  1  0
 51 52  1  0
 53 52  1  0
 55 54  1  0
 55 53  1  0
 56 55  1  0
 56 58  1  0
 57 68  2  0
 58 63  1  0
 59 67  1  0
 59 69  1  0
 60 66  1  0
 60 62  1  0
 61 67  1  0
 62 61  1  0
 63 62  2  0
 64 65  1  0
 64 58  2  0
 65 60  2  0
 66 59  1  0
 67 57  1  0
 69 71  2  0
 70 69  1  0
 72 70  1  0
 73 82  2  0
 73 78  1  0
 74 70  1  0
 74 78  1  0
 75 74  1  0
 76 77  1  0
 76 75  1  0
 77 73  1  0
 78 79  2  0
 79 80  1  0
 81 80  2  0
 82 81  1  0
 83 57  1  0
 83 84  1  0
 83 93  1  0
 84 87  1  0
 85 89  1  0
 85 84  1  0
 86 85  2  0
 89 88  1  0
 89 91  1  0
 91 92  1  0
 91 90  1  0
 93 96  1  1
 93 94  1  0
 95 93  1  0
M  ISO  4  13 100  22 100  55 101  56 101
M  END
>  <TORSDO>  (39) 
F 23

>  <SCORE>  (39) 
-9.585

>  <name>  (39) 
39

>  <ligand_id>  (39) 
39

>  <original_smiles>  (39) 
[H]c1c(C([H])([H])N(C(=O)N2C([H])([H])C([H])([H])C([H])([H])C([H])(n3nc(-c4c([H])c([H])c(Oc5c([H])c([H])c(F)c([H])c5F)c([H])c4[H])c(C(=O)N([H])[H])c3N([H])[H])C2([H])[H])C([H])([H])[H])nc(C([H])([H])[H])c(C([H])([H])[N+]([H])(C([H])([H])[H])C([H])([H])C([H])([H])C([H])([H])C([H])(Oc2c([H])c([H])c3c(c2[H])C([H])([H])N(C(=O)C([H])(N([H])C(=O)C([H])(N([H])C([H])([H])[H])C([H])([H])[H])C(C([H])([H])[H])(C([H])([H])[H])C([H])([H])[H])C([H])(C(=O)N([H])C2([H])c4c([H])c([H])c([H])c([H])c4C([H])([H])C([H])([H])C2([H])[H])C3([H])[H])C([H])([H])[H])c1[H]

>  <smiles>  (39) 
[H]c1c(C([H])([H])N(C(=O)N2C([H])([H])C([H])([H])C([H])([H])C([H])(n3nc(-c4c([H])c([H])c(Oc5c([H])c([H])c(F)c([H])c5F)c([H])c4[H])c(C(=O)N([H])[H])c3N([H])[H])C2([H])[H])C([H])([H])[H])nc(C([H])([H])[H])c(C([H])([H])[N+]([H])(C([H])([H])[H])C([H])([H])C([H])([H])C([H])([H])C([H])(Oc2c([H])c([H])c3c(c2[H])C([H])([H])N(C(=O)C([H])(N([H])C(=O)C([H])(N([H])C([H])([H])[H])C([H])([H])[H])C(C([H])([H])[H])(C([H])([H])[H])C([H])([H])[H])C([H])(C(=O)N([H])C2([H])c4c([H])c([H])c([H])c([H])c4C([H])([H])C([H])([H])C2([H])[H])C3([H])[H])C([H])([H])[H])c1[H]

$$$$
40:0:0
     RDKit          3D

 94102  0  0  1  0  0  0  0  0999 V2000
  -29.7520  -22.8040   19.6550 C   0  0  0  0  0  3  0  0  0  0  0  0
  -28.6360  -23.7310   19.5350 C   0  0  0  0  0  0  0  0  0  0  0  0
  -29.3070  -21.5040   19.3970 C   0  0  0  0  0  0  0  0  0  0  0  0
  -26.9340  -20.7570   18.7260 C   0  0  0  0  0  1  0  0  0  0  0  0
  -27.5410  -23.0030   19.3430 N   0  0  0  0  0  0  0  0  0  0  0  0
  -27.9360  -21.7000   19.2030 N   0  0  0  0  0  0  0  0  0  0  0  0
  -28.6130  -25.2940   19.2510 C   0  0  0  0  0  2  0  0  0  0  0  0
  -28.2270  -26.3240   20.2520 O   0  0  0  0  0  0  0  0  0  0  0  0
  -24.4000  -31.7320   23.0990 C   0  0  0  0  0  0  0  0  0  0  0  0
  -27.0920  -27.1480   20.1290 C   0  0  0  0  0  0  0  0  0  0  0  0
  -23.2280  -30.2990   21.4630 C   0  0  0  0  0  3  0  0  0  0  0  0
  -24.7090  -28.7430   20.0680 C   0  0  0  0  0  0  0  0  0  0  0  0
  -25.7660  -30.6380   21.3060 C   0  0  0  0  0  2  0  0  0  0  0  0
  -25.8650  -29.2510   20.6760 C   0  0  0  0  0  0  0  0  0  0  0  0
  -27.0530  -28.4620   20.6990 C   0  0  0  0  0  3  0  0  0  0  0  0
  -25.9110  -26.6900   19.5060 C   0  0  0  0  0  3  0  0  0  0  0  0
  -24.7350  -27.4690   19.4770 C   0  0  0  0  0  3  0  0  0  0  0  0
  -23.4640  -29.6050   20.0940 C   0  0  0  0  0  2  0  0  0  0  0  0
  -24.4830  -30.9100   22.0110 N   0  0  0  0  0  0  0  0  0  0  0  0
  -23.3090  -32.0060   23.6190 O   0  0  0  0  0  0  0  0  0  0  0  0
  -22.5660  -29.2910   22.4320 C   0  0  0  0  0  0  0  0  0  0  0  0
  -21.2410  -29.1070   22.3020 N   0  0  0  0  0  0  0  0  0  0  0  0
  -23.2440  -28.6780   23.2610 O   0  0  0  0  0  0  0  0  0  0  0  0
  -20.7530  -29.6460   21.6010 H   0  0  0  0  0  0  0  0  0  0  0  0
  -17.8690  -27.9040   22.8070 C   0  0  0  0  0  0  0  0  0  0  0  0
  -20.4260  -28.1760   23.0830 C   0  0  0  0  0  3  0  0  0  0  0  0
  -20.5310  -26.7390   22.5210 C   0  0  0  0  0  2  0  0  0  0  0  0
  -19.4370  -26.4130   21.5000 C   0  0  0  0  0  2  0  0  0  0  0  0
  -18.0550  -26.5490   22.1450 C   0  0  0  0  0  2  0  0  0  0  0  0
  -18.9830  -28.6740   23.2350 C   0  0  0  0  0  0  0  0  0  0  0  0
  -18.7580  -29.9400   23.8170 C   0  0  0  0  0  3  0  0  0  0  0  0
  -17.4500  -30.4370   23.9740 C   0  0  0  0  0  3  0  0  0  0  0  0
  -16.3510  -29.6650   23.5620 C   0  0  0  0  0  3  0  0  0  0  0  0
  -16.5600  -28.3990   22.9850 C   0  0  0  0  0  3  0  0  0  0  0  0
  -25.6700  -32.3850   23.7260 C   0  0  0  0  0  3  0  0  0  0  0  0
  -25.3520  -33.7920   24.0110 N   0  0  0  0  0  0  0  0  0  0  0  0
  -25.6870  -34.8230   23.2250 C   0  0  0  0  0  0  0  0  0  0  0  0
  -26.3670  -34.6920   22.2030 O   0  0  0  0  0  0  0  0  0  0  0  0
  -24.7500  -33.9680   24.8020 H   0  0  0  0  0  0  0  0  0  0  0  0
  -23.9520  -36.5950   22.8100 C   0  0  0  0  0  1  0  0  0  0  0  0
  -25.1920  -36.2230   23.6370 C   0  0  0  0  0  3  0  0  0  0  0  0
  -27.3230  -37.1440   24.4430 C   0  0  0  0  0  1  0  0  0  0  0  0
  -26.2200  -37.2770   23.4940 N   0  0  0  0  0  0  0  0  0  0  0  0
  -25.8090  -38.1990   23.6120 H   0  0  0  0  0  0  0  0  0  0  0  0
  -26.1620  -31.6540   25.0360 C   0  0  1  0  0  0  0  0  0  0  0  0
  -25.0430  -31.4340   26.0800 C   0  0  0  0  0  1  0  0  0  0  0  0
  -26.7710  -30.2730   24.7010 C   0  0  0  0  0  1  0  0  0  0  0  0
  -27.2850  -32.4800   25.7060 C   0  0  0  0  0  1  0  0  0  0  0  0
  -30.0740  -20.1660   19.0080 C   0  0  0  0  0  2  0  0  0  0  0  0
  -30.6270  -19.0740   19.9580 N   0  0  1  0  0  4  0  0  0  0  0  0
  -31.6090  -19.1850   19.7480 H   0  0  0  0  0  0  0  0  0  0  0  0
  -29.2870  -19.6970   22.0590 C   0  0  0  0  0  1  0  0  0  0  0  0
  -30.6490  -19.4450   21.4010 C   0  0  0  0  0  2  0  0  0  0  0  0
  -28.9610  -17.2370   19.2850 C   0  0  0  0  0  1  0  0  0  0  0  0
  -30.4410  -17.5670   19.5610 C   0  0  0  0  0  3  0  0  0  0  0  0
  -32.6710  -16.8010   20.6010 C   0  0  0  0  0  1  0  0  0  0  0  0
  -30.6290  -16.0710   21.7800 C   0  0  0  0  0  1  0  0  0  0  0  0
  -31.2020  -16.3240   20.3590 C   0  0  1  0  0  0  0  0  0  0  0  0
  -31.4080  -14.8900   19.5780 C   0  0  0  0  0  0  0  0  0  0  0  0
  -30.9190  -12.6040   18.6580 C   0  0  0  0  0  2  0  0  0  0  0  0
  -29.9080  -12.6910   17.4950 C   0  0  0  0  0  2  0  0  0  0  0  0
  -28.4680  -12.5940   18.0360 C   0  0  0  0  0  2  0  0  0  0  0  0
  -28.2350  -13.5400   19.2420 C   0  0  0  0  0  3  0  0  0  0  0  0
  -29.3730  -13.4300   20.2820 C   0  0  0  0  0  2  0  0  0  0  0  0
  -30.6490  -13.7230   19.6060 N   0  0  0  0  0  0  0  0  0  0  0  0
  -32.4250  -14.8430   18.8790 O   0  0  0  0  0  0  0  0  0  0  0  0
  -25.9870  -14.3120   20.2190 C   0  0  0  0  0  0  0  0  0  0  0  0
  -24.8970  -13.6190   20.6660 C   0  0  0  0  0  0  0  0  0  0  0  0
  -25.2320  -12.2360   20.5350 C   0  0  0  0  0  0  0  0  0  0  0  0
  -26.9210  -13.3560   19.8480 N   0  0  0  0  0  0  0  0  0  0  0  0
  -26.4780  -12.0990   20.0980 N   0  0  0  0  0  0  0  0  0  0  0  0
  -24.4160  -11.0350   20.7480 C   0  0  0  0  0  0  0  0  0  0  0  0
  -24.8010  -10.0360   21.6650 C   0  0  0  0  0  3  0  0  0  0  0  0
  -23.9900   -8.8990   21.8660 C   0  0  0  0  0  3  0  0  0  0  0  0
  -22.7800   -8.7560   21.1470 C   0  0  0  0  0  0  0  0  0  0  0  0
  -22.4140   -9.7430   20.2150 C   0  0  0  0  0  3  0  0  0  0  0  0
  -23.2250  -10.8710   20.0140 C   0  0  0  0  0  3  0  0  0  0  0  0
  -21.9390   -7.6760   21.2600 O   0  0  0  0  0  0  0  0  0  0  0  0
  -21.8080   -6.9850   22.4370 C   0  0  0  0  0  0  0  0  0  0  0  0
  -21.4040   -7.6180   23.6330 C   0  0  0  0  0  3  0  0  0  0  0  0
  -21.2160   -6.8580   24.8030 C   0  0  0  0  0  3  0  0  0  0  0  0
  -21.4200   -5.4660   24.7800 C   0  0  0  0  0  0  0  0  0  0  0  0
  -21.8160   -4.8320   23.5880 C   0  0  0  0  0  3  0  0  0  0  0  0
  -22.0080   -5.5890   22.4200 C   0  0  0  0  0  0  0  0  0  0  0  0
  -22.3710   -4.9710   21.2710 F   0  0  0  0  0  0  0  0  0  0  0  0
  -21.2300   -4.7320   25.9020 F   0  0  0  0  0  0  0  0  0  0  0  0
  -23.5830  -14.2030   21.0930 C   0  0  0  0  0  0  0  0  0  0  0  0
  -22.8930  -13.5480   22.0210 N   0  0  0  0  0  0  0  0  0  0  0  0
  -23.1820  -15.2740   20.6390 O   0  0  0  0  0  0  0  0  0  0  0  0
  -23.2290  -12.6810   22.4110 H   0  0  0  0  0  0  0  0  0  0  0  0
  -22.0110  -13.9200   22.3450 H   0  0  0  0  0  0  0  0  0  0  0  0
  -26.2430  -15.6700   20.0750 N   0  0  0  0  0  0  0  0  0  0  0  0
  -25.5390  -16.3670   20.2920 H   0  0  0  0  0  0  0  0  0  0  0  0
  -27.0670  -16.0590   19.6390 H   0  0  0  0  0  0  0  0  0  0  0  0
  2  1  1  0
  3  1  2  0
  4  6  1  0
  5  2  2  0
  6  5  1  0
  6  3  1  0
  7  2  1  0
  7  8  1  0
  9 20  2  0
 10  8  1  0
 10 15  1  0
 11 19  1  0
 11 21  1  0
 12 18  1  0
 12 14  1  0
 13 19  1  0
 14 15  2  0
 14 13  1  0
 16 10  2  0
 17 16  1  0
 17 12  2  0
 18 11  1  0
 19  9  1  0
 21 23  2  0
 22 21  1  0
 24 22  1  0
 25 34  2  0
 25 30  1  0
 26 22  1  0
 26 30  1  0
 27 26  1  0
 28 29  1  0
 28 27  1  0
 29 25  1  0
 30 31  2  0
 31 32  1  0
 33 32  2  0
 34 33  1  0
 35  9  1  0
 35 36  1  0
 35 45  1  0
 36 39  1  0
 37 41  1  0
 37 36  1  0
 38 37  2  0
 41 40  1  0
 43 44  1  0
 43 41  1  0
 43 42  1  0
 45 48  1  1
 45 46  1  0
 47 45  1  0
 49  3  1  0
 49 50  1  0
 50 53  1  0
 50 51  1  6
 53 52  1  0
 55 54  1  0
 55 50  1  0
 55 58  1  0
 58 56  1  1
 58 57  1  0
 59 65  1  0
 59 58  1  0
 60 65  1  0
 61 62  1  0
 61 60  1  0
 63 62  1  0
 63 70  1  0
 63 64  1  0
 65 64  1  0
 66 59  2  0
 67 68  2  0
 68 87  1  0
 69 68  1  0
 69 72  1  0
 70 71  1  0
 70 67  1  0
 71 69  2  0
 72 73  1  0
 73 74  2  0
 75 78  1  0
 75 74  1  0
 76 75  2  0
 77 76  1  0
 77 72  2  0
 78 79  1  0
 79 80  1  0
 80 81  2  0
 82 81  1  0
 82 86  1  0
 83 82  2  0
 84 79  2  0
 84 83  1  0
 85 84  1  0
 87 88  1  0
 88 91  1  0
 88 90  1  0
 89 87  2  0
 92 67  1  0
 92 93  1  0
 94 92  1  0
M  ISO  4   7 101   8 101  58 100  59 100
M  END
>  <TORSDO>  (40) 
F 22

>  <SCORE>  (40) 
-10.747

>  <name>  (40) 
40

>  <ligand_id>  (40) 
40

>  <original_smiles>  (40) 
[H]c1c([H])c([H])c2c(c1[H])C([H])([H])C([H])([H])C([H])([H])C2([H])N([H])C(=O)C1([H])N(C(=O)C([H])(N([H])C(=O)C([H])(N([H])C([H])([H])[H])C([H])([H])[H])C(C([H])([H])[H])(C([H])([H])[H])C([H])([H])[H])C([H])([H])c2c([H])c(OC([H])([H])c3nn(C([H])([H])[H])c(C([H])([H])[N+]([H])(C([H])([H])C([H])([H])[H])C([H])(C([H])([H])[H])C(C(=O)N4C([H])([H])C([H])([H])C([H])([H])C([H])(n5nc(-c6c([H])c([H])c(Oc7c([H])c([H])c(F)c([H])c7F)c([H])c6[H])c(C(=O)N([H])[H])c5N([H])[H])C4([H])[H])(C([H])([H])[H])C([H])([H])[H])c3[H])c([H])c([H])c2C1([H])[H]

>  <smiles>  (40) 
[H]c1c([H])c([H])c2c(c1[H])C([H])([H])C([H])([H])C([H])([H])C2([H])N([H])C(=O)C1([H])N(C(=O)C([H])(N([H])C(=O)C([H])(N([H])C([H])([H])[H])C([H])([H])[H])C(C([H])([H])[H])(C([H])([H])[H])C([H])([H])[H])C([H])([H])c2c([H])c(OC([H])([H])c3nn(C([H])([H])[H])c(C([H])([H])[N+]([H])(C([H])([H])C([H])([H])[H])C([H])(C([H])([H])[H])C(C(=O)N4C([H])([H])C([H])([H])C([H])([H])C([H])(n5nc(-c6c([H])c([H])c(Oc7c([H])c([H])c(F)c([H])c7F)c([H])c6[H])c(C(=O)N([H])[H])c5N([H])[H])C4([H])[H])(C([H])([H])[H])C([H])([H])[H])c3[H])c([H])c([H])c2C1([H])[H]

$$$$
41:0:0
     RDKit          3D

 93101  0  0  1  0  0  0  0  0999 V2000
  -27.5290  -21.5350   20.8510 C   0  0  0  0  0  3  0  0  0  0  0  0
  -28.3650  -22.2850   20.0340 C   0  0  0  0  0  0  0  0  0  0  0  0
  -29.1450  -20.0880   20.2090 C   0  0  0  0  0  3  0  0  0  0  0  0
  -29.3520  -21.3460   19.6740 N   0  0  0  0  0  0  0  0  0  0  0  0
  -28.0180  -20.2400   20.9240 N   0  0  0  0  0  0  0  0  0  0  0  0
  -27.5990  -19.5120   21.4960 H   0  0  0  0  0  0  0  0  0  0  0  0
  -28.3070  -23.7910   19.5090 C   0  0  0  0  0  3  0  0  0  0  0  0
  -27.9140  -25.0080   20.4850 C   0  0  0  0  0  3  0  0  0  0  0  0
  -28.2140  -26.4420   20.1300 O   0  0  0  0  0  0  0  0  0  0  0  0
  -24.6040  -31.9480   23.2360 C   0  0  0  0  0  0  0  0  0  0  0  0
  -27.1450  -27.3540   20.1090 C   0  0  0  0  0  0  0  0  0  0  0  0
  -23.3910  -30.5550   21.6010 C   0  0  0  0  0  3  0  0  0  0  0  0
  -24.8250  -29.0200   20.1320 C   0  0  0  0  0  0  0  0  0  0  0  0
  -25.9350  -30.8570   21.4020 C   0  0  0  0  0  2  0  0  0  0  0  0
  -26.0000  -29.4760   20.7430 C   0  0  0  0  0  0  0  0  0  0  0  0
  -27.1670  -28.6450   20.7300 C   0  0  0  0  0  3  0  0  0  0  0  0
  -25.9570  -26.9750   19.4500 C   0  0  0  0  0  3  0  0  0  0  0  0
  -24.8040  -27.7790   19.4770 C   0  0  0  0  0  3  0  0  0  0  0  0
  -23.5950  -29.8980   20.2120 C   0  0  0  0  0  2  0  0  0  0  0  0
  -24.6630  -31.1400   22.1340 N   0  0  0  0  0  0  0  0  0  0  0  0
  -23.5220  -32.2300   23.7730 O   0  0  0  0  0  0  0  0  0  0  0  0
  -22.7480  -29.5240   22.5560 C   0  0  0  0  0  0  0  0  0  0  0  0
  -21.4270  -29.3280   22.4320 N   0  0  0  0  0  0  0  0  0  0  0  0
  -23.4380  -28.9060   23.3730 O   0  0  0  0  0  0  0  0  0  0  0  0
  -20.9350  -29.8750   21.7400 H   0  0  0  0  0  0  0  0  0  0  0  0
  -18.0620  -28.0860   22.9240 C   0  0  0  0  0  0  0  0  0  0  0  0
  -20.6160  -28.3870   23.2050 C   0  0  0  0  0  3  0  0  0  0  0  0
  -20.7430  -26.9540   22.6350 C   0  0  0  0  0  2  0  0  0  0  0  0
  -19.6510  -26.6090   21.6180 C   0  0  0  0  0  2  0  0  0  0  0  0
  -18.2640  -26.7380   22.2560 C   0  0  0  0  0  2  0  0  0  0  0  0
  -19.1670  -28.8680   23.3560 C   0  0  0  0  0  0  0  0  0  0  0  0
  -18.9250  -30.1300   23.9420 C   0  0  0  0  0  3  0  0  0  0  0  0
  -17.6130  -30.6100   24.1040 C   0  0  0  0  0  3  0  0  0  0  0  0
  -16.5220  -29.8250   23.6880 C   0  0  0  0  0  3  0  0  0  0  0  0
  -16.7490  -28.5650   23.1040 C   0  0  0  0  0  3  0  0  0  0  0  0
  -25.8930  -32.5810   23.8500 C   0  0  0  0  0  3  0  0  0  0  0  0
  -25.5820  -33.9790   24.1860 N   0  0  0  0  0  0  0  0  0  0  0  0
  -25.9070  -35.0330   23.4290 C   0  0  0  0  0  0  0  0  0  0  0  0
  -26.5740  -34.9330   22.3950 O   0  0  0  0  0  0  0  0  0  0  0  0
  -24.9890  -34.1350   24.9890 H   0  0  0  0  0  0  0  0  0  0  0  0
  -24.1790  -36.8270   23.0840 C   0  0  0  0  0  1  0  0  0  0  0  0
  -25.4190  -36.4200   23.8940 C   0  0  0  0  0  3  0  0  0  0  0  0
  -27.5520  -37.2970   24.7350 C   0  0  0  0  0  1  0  0  0  0  0  0
  -26.4550  -37.4700   23.7870 N   0  0  0  0  0  0  0  0  0  0  0  0
  -26.0470  -38.3910   23.9360 H   0  0  0  0  0  0  0  0  0  0  0  0
  -26.4190  -31.8060   25.1200 C   0  0  1  0  0  0  0  0  0  0  0  0
  -25.3350  -31.5600   26.1960 C   0  0  0  0  0  1  0  0  0  0  0  0
  -27.0040  -30.4320   24.7180 C   0  0  0  0  0  1  0  0  0  0  0  0
  -27.5700  -32.6050   25.7770 C   0  0  0  0  0  1  0  0  0  0  0  0
  -30.0700  -18.7950   20.2300 C   0  0  0  0  0  2  0  0  0  0  0  0
  -29.5740  -17.3050   19.8240 C   0  0  0  0  0  2  0  0  0  0  0  0
  -30.8550  -14.9510   20.0090 C   0  0  0  0  0  0  0  0  0  0  0  0
  -30.6810  -12.6710   18.9510 C   0  0  0  0  0  2  0  0  0  0  0  0
  -29.6960  -12.7320   17.7600 C   0  0  0  0  0  2  0  0  0  0  0  0
  -28.2400  -12.5430   18.2220 C   0  0  0  0  0  2  0  0  0  0  0  0
  -27.9150  -13.4200   19.4580 C   0  0  0  0  0  3  0  0  0  0  0  0
  -28.9930  -13.2810   20.5490 C   0  0  0  0  0  2  0  0  0  0  0  0
  -30.2690  -13.6940   19.9500 N   0  0  0  0  0  0  0  0  0  0  0  0
  -31.9450  -15.1210   19.4550 O   0  0  0  0  0  0  0  0  0  0  0  0
  -29.7870  -16.0760   21.9520 C   0  0  0  0  0  1  0  0  0  0  0  0
  -30.1170  -16.0370   20.5190 N   0  0  0  0  0  0  0  0  0  0  0  0
  -25.5750  -14.0450   20.2880 C   0  0  0  0  0  0  0  0  0  0  0  0
  -24.5140  -13.2850   20.6950 C   0  0  0  0  0  0  0  0  0  0  0  0
  -24.9520  -11.9230   20.6270 C   0  0  0  0  0  0  0  0  0  0  0  0
  -26.5880  -13.1530   19.9900 N   0  0  0  0  0  0  0  0  0  0  0  0
  -26.2260  -11.8730   20.2610 N   0  0  0  0  0  0  0  0  0  0  0  0
  -24.2160  -10.6710   20.8340 C   0  0  0  0  0  0  0  0  0  0  0  0
  -24.6160   -9.7290   21.8110 C   0  0  0  0  0  3  0  0  0  0  0  0
  -23.8790   -8.5420   22.0050 C   0  0  0  0  0  3  0  0  0  0  0  0
  -22.7310   -8.2810   21.2190 C   0  0  0  0  0  0  0  0  0  0  0  0
  -22.3470   -9.2130   20.2360 C   0  0  0  0  0  3  0  0  0  0  0  0
  -23.0850  -10.3940   20.0400 C   0  0  0  0  0  3  0  0  0  0  0  0
  -21.9650   -7.1460   21.3230 O   0  0  0  0  0  0  0  0  0  0  0  0
  -21.8040   -6.4950   22.5190 C   0  0  0  0  0  0  0  0  0  0  0  0
  -21.2500   -7.1430   23.6470 C   0  0  0  0  0  3  0  0  0  0  0  0
  -21.0240   -6.4180   24.8340 C   0  0  0  0  0  3  0  0  0  0  0  0
  -21.3470   -5.0490   24.8970 C   0  0  0  0  0  0  0  0  0  0  0  0
  -21.8870   -4.4010   23.7730 C   0  0  0  0  0  3  0  0  0  0  0  0
  -22.1120   -5.1220   22.5870 C   0  0  0  0  0  0  0  0  0  0  0  0
  -22.6160   -4.4890   21.5000 F   0  0  0  0  0  0  0  0  0  0  0  0
  -21.1230   -4.3480   26.0340 F   0  0  0  0  0  0  0  0  0  0  0  0
  -23.1390  -13.7740   21.0430 C   0  0  0  0  0  0  0  0  0  0  0  0
  -22.4450  -13.0870   21.9400 N   0  0  0  0  0  0  0  0  0  0  0  0
  -22.6870  -14.8070   20.5440 O   0  0  0  0  0  0  0  0  0  0  0  0
  -22.8250  -12.2520   22.3630 H   0  0  0  0  0  0  0  0  0  0  0  0
  -21.5270  -13.4090   22.2190 H   0  0  0  0  0  0  0  0  0  0  0  0
  -25.7560  -15.4200   20.1260 N   0  0  0  0  0  0  0  0  0  0  0  0
  -25.0020  -16.0800   20.2730 H   0  0  0  0  0  0  0  0  0  0  0  0
  -26.5920  -15.8500   19.7610 H   0  0  0  0  0  0  0  0  0  0  0  0
  -30.5060  -21.6430   18.7930 C   0  0  0  0  0  2  0  0  0  0  0  0
  -32.5050  -21.2990   20.3480 C   0  0  0  0  0  1  0  0  0  0  0  0
  -31.4900  -23.5670   20.3240 C   0  0  0  0  0  1  0  0  0  0  0  0
  -31.7460  -22.2990   19.4770 C   0  0  0  0  0  3  0  0  0  0  0  0
  1  5  1  0
  2  1  2  0
  3 50  1  0
  3  5  1  0
  4  2  1  0
  4  3  1  0
  5  6  1  0
  7  2  1  0
  7  8  2  0
  9  8  1  0
 10 21  2  0
 11  9  1  0
 11 16  1  0
 12 20  1  0
 12 22  1  0
 13 19  1  0
 13 15  1  0
 14 20  1  0
 15 14  1  0
 16 15  2  0
 17 18  1  0
 17 11  2  0
 18 13  2  0
 19 12  1  0
 20 10  1  0
 22 24  2  0
 23 22  1  0
 25 23  1  0
 26 35  2  0
 26 31  1  0
 27 23  1  0
 27 31  1  0
 28 27  1  0
 29 30  1  0
 29 28  1  0
 30 26  1  0
 31 32  2  0
 32 33  1  0
 34 33  2  0
 35 34  1  0
 36 10  1  0
 36 37  1  0
 36 46  1  0
 37 40  1  0
 38 42  1  0
 38 37  1  0
 39 38  2  0
 42 41  1  0
 44 42  1  0
 44 45  1  0
 44 43  1  0
 46 49  1  1
 46 47  1  0
 48 46  1  0
 51 50  1  0
 51 61  1  0
 52 61  1  0
 53 58  1  0
 54 55  1  0
 54 53  1  0
 56 55  1  0
 56 65  1  0
 56 57  1  0
 58 52  1  0
 58 57  1  0
 59 52  2  0
 61 60  1  0
 62 63  2  0
 63 82  1  0
 64 63  1  0
 64 67  1  0
 65 66  1  0
 65 62  1  0
 66 64  2  0
 67 68  1  0
 68 69  2  0
 70 73  1  0
 70 69  1  0
 71 70  2  0
 72 71  1  0
 72 67  2  0
 73 74  1  0
 74 79  2  0
 74 75  1  0
 75 76  2  0
 76 77  1  0
 77 81  1  0
 78 77  2  0
 79 78  1  0
 80 79  1  0
 82 83  1  0
 83 86  1  0
 83 85  1  0
 84 82  2  0
 87 88  1  0
 87 62  1  0
 89 87  1  0
 90 93  1  0
 90  4  1  0
 93 92  1  0
 93 91  1  0
M  ISO  4   8 101   9 101  52 100  61 100
M  END
>  <TORSDO>  (41) 
F 22

>  <SCORE>  (41) 
-12.618

>  <name>  (41) 
41

>  <ligand_id>  (41) 
41

>  <original_smiles>  (41) 
[H]c1c([H])c([H])c2c(c1[H])C([H])([H])C([H])([H])C([H])([H])C2([H])N([H])C(=O)C1([H])N(C(=O)C([H])(N([H])C(=O)C([H])(N([H])C([H])([H])[H])C([H])([H])[H])C(C([H])([H])[H])(C([H])([H])[H])C([H])([H])[H])C([H])([H])c2c([H])c(OC([H])([H])C([H])([H])c3c([H])[n+]([H])c(C([H])([H])C([H])([H])N(C(=O)N4C([H])([H])C([H])([H])C([H])([H])C([H])(n5nc(-c6c([H])c([H])c(Oc7c([H])c([H])c(F)c([H])c7F)c([H])c6[H])c(C(=O)N([H])[H])c5N([H])[H])C4([H])[H])C([H])([H])[H])n3C([H])([H])C([H])(C([H])([H])[H])C([H])([H])[H])c([H])c([H])c2C1([H])[H]

>  <smiles>  (41) 
[H]c1c([H])c([H])c2c(c1[H])C([H])([H])C([H])([H])C([H])([H])C2([H])N([H])C(=O)C1([H])N(C(=O)C([H])(N([H])C(=O)C([H])(N([H])C([H])([H])[H])C([H])([H])[H])C(C([H])([H])[H])(C([H])([H])[H])C([H])([H])[H])C([H])([H])c2c([H])c(OC([H])([H])C([H])([H])c3c([H])[n+]([H])c(C([H])([H])C([H])([H])N(C(=O)N4C([H])([H])C([H])([H])C([H])([H])C([H])(n5nc(-c6c([H])c([H])c(Oc7c([H])c([H])c(F)c([H])c7F)c([H])c6[H])c(C(=O)N([H])[H])c5N([H])[H])C4([H])[H])C([H])([H])[H])n3C([H])([H])C([H])(C([H])([H])[H])C([H])([H])[H])c([H])c([H])c2C1([H])[H]

$$$$
42:0:0
     RDKit          3D

 92100  0  0  1  0  0  0  0  0999 V2000
  -30.3770  -22.2150   19.5790 C   0  0  0  0  0  3  0  0  0  0  0  0
  -28.8730  -23.5040   21.4220 C   0  0  0  0  0  3  0  0  0  0  0  0
  -30.0830  -21.6150   20.8290 C   0  0  0  0  0  0  0  0  0  0  0  0
  -29.0950  -24.0670   20.1410 C   0  0  0  0  0  0  0  0  0  0  0  0
  -29.3600  -22.2830   21.7660 N   0  0  0  0  0  0  0  0  0  0  0  0
  -29.8800  -23.4320   19.2310 N   0  0  0  0  0  0  0  0  0  0  0  0
  -30.5350  -20.1830   21.1760 C   0  0  0  0  0  2  0  0  0  0  0  0
  -28.2860  -19.3920   20.3980 C   0  0  0  0  0  1  0  0  0  0  0  0
  -29.7300  -19.0740   20.5620 N   0  0  2  0  0  4  0  0  0  0  0  0
  -30.0790  -18.9740   19.6210 H   0  0  0  0  0  0  0  0  0  0  0  0
  -29.9170  -17.7410   21.2270 C   0  0  0  0  0  2  0  0  0  0  0  0
  -30.5340  -16.6610   20.2940 C   0  0  0  0  0  2  0  0  0  0  0  0
  -31.0250  -14.2800   20.0020 C   0  0  0  0  0  0  0  0  0  0  0  0
  -30.5000  -12.1890   18.7940 C   0  0  0  0  0  2  0  0  0  0  0  0
  -29.5100  -12.4580   17.6430 C   0  0  0  0  0  2  0  0  0  0  0  0
  -28.0570  -12.3900   18.1470 C   0  0  0  0  0  2  0  0  0  0  0  0
  -27.8320  -13.2290   19.4320 C   0  0  0  0  0  3  0  0  0  0  0  0
  -28.9250  -12.9360   20.4820 C   0  0  0  0  0  2  0  0  0  0  0  0
  -30.2440  -13.1700   19.8620 N   0  0  0  0  0  0  0  0  0  0  0  0
  -32.0380  -14.4650   19.3200 O   0  0  0  0  0  0  0  0  0  0  0  0
  -30.7140  -15.0820   22.2590 C   0  0  0  0  0  1  0  0  0  0  0  0
  -30.5610  -15.2640   20.8110 N   0  0  0  0  0  0  0  0  0  0  0  0
  -25.4970  -13.9470   20.2450 C   0  0  0  0  0  0  0  0  0  0  0  0
  -24.4130  -13.2280   20.6680 C   0  0  0  0  0  0  0  0  0  0  0  0
  -24.8080  -11.8560   20.6210 C   0  0  0  0  0  0  0  0  0  0  0  0
  -26.4900  -13.0190   19.9730 N   0  0  0  0  0  0  0  0  0  0  0  0
  -26.0790  -11.7550   20.2550 N   0  0  0  0  0  0  0  0  0  0  0  0
  -24.0340  -10.6280   20.8510 C   0  0  0  0  0  0  0  0  0  0  0  0
  -24.4490   -9.6610   21.7940 C   0  0  0  0  0  3  0  0  0  0  0  0
  -23.6790   -8.4980   22.0120 C   0  0  0  0  0  3  0  0  0  0  0  0
  -22.4820   -8.2930   21.2880 C   0  0  0  0  0  0  0  0  0  0  0  0
  -22.0840   -9.2480   20.3360 C   0  0  0  0  0  3  0  0  0  0  0  0
  -22.8520  -10.4030   20.1160 C   0  0  0  0  0  3  0  0  0  0  0  0
  -21.6860   -7.1800   21.4140 O   0  0  0  0  0  0  0  0  0  0  0  0
  -21.6130   -6.4760   22.5900 C   0  0  0  0  0  0  0  0  0  0  0  0
  -21.2260   -7.0890   23.8010 C   0  0  0  0  0  3  0  0  0  0  0  0
  -21.0950   -6.3150   24.9710 C   0  0  0  0  0  3  0  0  0  0  0  0
  -21.3430   -4.9290   24.9310 C   0  0  0  0  0  0  0  0  0  0  0  0
  -21.7230   -4.3170   23.7240 C   0  0  0  0  0  3  0  0  0  0  0  0
  -21.8550   -5.0890   22.5560 C   0  0  0  0  0  0  0  0  0  0  0  0
  -22.2020   -4.4910   21.3900 F   0  0  0  0  0  0  0  0  0  0  0  0
  -21.2100   -4.1840   26.0520 F   0  0  0  0  0  0  0  0  0  0  0  0
  -23.0540  -13.7700   21.0010 C   0  0  0  0  0  0  0  0  0  0  0  0
  -22.3430  -13.1260   21.9200 N   0  0  0  0  0  0  0  0  0  0  0  0
  -22.6320  -14.8010   20.4800 O   0  0  0  0  0  0  0  0  0  0  0  0
  -22.6940  -12.2930   22.3660 H   0  0  0  0  0  0  0  0  0  0  0  0
  -21.4320  -13.4770   22.1810 H   0  0  0  0  0  0  0  0  0  0  0  0
  -25.7150  -15.3080   20.0510 N   0  0  0  0  0  0  0  0  0  0  0  0
  -24.9790  -15.9950   20.1790 H   0  0  0  0  0  0  0  0  0  0  0  0
  -26.5610  -15.7020   19.6580 H   0  0  0  0  0  0  0  0  0  0  0  0
  -28.1780  -25.1720   19.6110 C   0  0  0  0  0  2  0  0  0  0  0  0
  -28.2800  -26.5070   20.1670 O   0  0  0  0  0  0  0  0  0  0  0  0
  -24.4770  -31.7810   23.1580 C   0  0  0  0  0  0  0  0  0  0  0  0
  -27.1320  -27.2950   20.0980 C   0  0  0  0  0  0  0  0  0  0  0  0
  -23.2830  -30.3750   21.5160 C   0  0  0  0  0  3  0  0  0  0  0  0
  -24.7460  -28.8470   20.0980 C   0  0  0  0  0  0  0  0  0  0  0  0
  -25.8190  -30.7190   21.3430 C   0  0  0  0  0  2  0  0  0  0  0  0
  -25.9060  -29.3460   20.7030 C   0  0  0  0  0  0  0  0  0  0  0  0
  -27.0970  -28.5740   20.7110 C   0  0  0  0  0  3  0  0  0  0  0  0
  -25.9500  -26.8500   19.4490 C   0  0  0  0  0  3  0  0  0  0  0  0
  -24.7640  -27.5970   19.4700 C   0  0  0  0  0  3  0  0  0  0  0  0
  -23.5030  -29.7060   20.1370 C   0  0  0  0  0  2  0  0  0  0  0  0
  -24.5440  -30.9740   22.0630 N   0  0  0  0  0  0  0  0  0  0  0  0
  -23.3910  -32.0570   23.6880 O   0  0  0  0  0  0  0  0  0  0  0  0
  -22.6290  -29.3520   22.4720 C   0  0  0  0  0  0  0  0  0  0  0  0
  -21.3090  -29.1560   22.3260 N   0  0  0  0  0  0  0  0  0  0  0  0
  -23.3060  -28.7380   23.3010 O   0  0  0  0  0  0  0  0  0  0  0  0
  -20.8240  -29.7060   21.6310 H   0  0  0  0  0  0  0  0  0  0  0  0
  -17.9420  -27.9180   22.7710 C   0  0  0  0  0  0  0  0  0  0  0  0
  -20.4900  -28.2170   23.0940 C   0  0  0  0  0  3  0  0  0  0  0  0
  -20.6240  -26.7790   22.5420 C   0  0  0  0  0  2  0  0  0  0  0  0
  -19.5490  -26.4240   21.5090 C   0  0  0  0  0  2  0  0  0  0  0  0
  -18.1520  -26.5600   22.1200 C   0  0  0  0  0  2  0  0  0  0  0  0
  -19.0400  -28.7010   23.2130 C   0  0  0  0  0  0  0  0  0  0  0  0
  -18.7920  -29.9710   23.7780 C   0  0  0  0  0  3  0  0  0  0  0  0
  -17.4770  -30.4570   23.9090 C   0  0  0  0  0  3  0  0  0  0  0  0
  -16.3940  -29.6710   23.4810 C   0  0  0  0  0  3  0  0  0  0  0  0
  -16.6260  -28.4030   22.9170 C   0  0  0  0  0  3  0  0  0  0  0  0
  -25.7570  -32.4160   23.7810 C   0  0  0  0  0  3  0  0  0  0  0  0
  -25.4370  -33.8080   24.1260 N   0  0  0  0  0  0  0  0  0  0  0  0
  -25.7560  -34.8700   23.3750 C   0  0  0  0  0  0  0  0  0  0  0  0
  -26.4230  -34.7820   22.3390 O   0  0  0  0  0  0  0  0  0  0  0  0
  -24.8370  -33.9490   24.9250 H   0  0  0  0  0  0  0  0  0  0  0  0
  -24.0050  -36.6470   23.0480 C   0  0  0  0  0  1  0  0  0  0  0  0
  -25.2560  -36.2490   23.8460 C   0  0  0  0  0  3  0  0  0  0  0  0
  -27.3890  -37.1500   24.6680 C   0  0  0  0  0  1  0  0  0  0  0  0
  -26.2780  -37.3140   23.7330 N   0  0  0  0  0  0  0  0  0  0  0  0
  -25.8640  -38.2300   23.8870 H   0  0  0  0  0  0  0  0  0  0  0  0
  -26.2830  -31.6340   25.0460 C   0  0  1  0  0  0  0  0  0  0  0  0
  -25.1930  -31.3760   26.1130 C   0  0  0  0  0  1  0  0  0  0  0  0
  -26.8800  -30.2680   24.6350 C   0  0  0  0  0  1  0  0  0  0  0  0
  -27.4250  -32.4360   25.7150 C   0  0  0  0  0  1  0  0  0  0  0  0
  1  3  1  0
  2  5  1  0
  3  7  1  0
  3  5  2  0
  4  2  2  0
  6  1  2  0
  6  4  1  0
  8  9  1  0
  9  7  1  0
  9 11  1  0
  9 10  1  6
 12 22  1  0
 12 11  1  0
 13 22  1  0
 14 19  1  0
 15 16  1  0
 15 14  1  0
 17 16  1  0
 17 26  1  0
 17 18  1  0
 19 13  1  0
 19 18  1  0
 20 13  2  0
 22 21  1  0
 23 24  2  0
 24 43  1  0
 25 24  1  0
 25 28  1  0
 26 23  1  0
 26 27  1  0
 27 25  2  0
 28 29  1  0
 29 30  2  0
 31 34  1  0
 31 30  1  0
 32 31  2  0
 33 32  1  0
 33 28  2  0
 34 35  1  0
 35 36  1  0
 36 37  2  0
 38 37  1  0
 38 42  1  0
 39 38  2  0
 40 35  2  0
 40 39  1  0
 41 40  1  0
 43 44  1  0
 44 47  1  0
 44 46  1  0
 45 43  2  0
 48 49  1  0
 48 23  1  0
 50 48  1  0
 51  4  1  0
 51 52  1  0
 53 64  2  0
 54 52  1  0
 54 59  1  0
 55 63  1  0
 55 65  1  0
 56 62  1  0
 56 58  1  0
 57 63  1  0
 58 59  2  0
 58 57  1  0
 60 61  1  0
 60 54  2  0
 61 56  2  0
 62 55  1  0
 63 53  1  0
 65 67  2  0
 66 65  1  0
 68 66  1  0
 69 78  2  0
 69 74  1  0
 70 66  1  0
 70 74  1  0
 71 70  1  0
 72 73  1  0
 72 71  1  0
 73 69  1  0
 74 75  2  0
 75 76  1  0
 77 76  2  0
 78 77  1  0
 79 53  1  0
 79 80  1  0
 79 89  1  0
 80 83  1  0
 81 85  1  0
 81 80  1  0
 82 81  2  0
 85 84  1  0
 87 85  1  0
 87 88  1  0
 87 86  1  0
 89 92  1  1
 89 90  1  0
 91 89  1  0
M  ISO  4  13 100  22 100  51 101  52 101
M  END
>  <TORSDO>  (42) 
F 21

>  <SCORE>  (42) 
-12.634

>  <name>  (42) 
42

>  <ligand_id>  (42) 
42

>  <original_smiles>  (42) 
[H]c1nc(C([H])([H])[N+]([H])(C([H])([H])[H])C([H])([H])C([H])([H])N(C(=O)N2C([H])([H])C([H])([H])C([H])([H])C([H])(n3nc(-c4c([H])c([H])c(Oc5c([H])c([H])c(F)c([H])c5F)c([H])c4[H])c(C(=O)N([H])[H])c3N([H])[H])C2([H])[H])C([H])([H])[H])c([H])nc1C([H])([H])Oc1c([H])c([H])c2c(c1[H])C([H])([H])N(C(=O)C([H])(N([H])C(=O)C([H])(N([H])C([H])([H])[H])C([H])([H])[H])C(C([H])([H])[H])(C([H])([H])[H])C([H])([H])[H])C([H])(C(=O)N([H])C1([H])c3c([H])c([H])c([H])c([H])c3C([H])([H])C([H])([H])C1([H])[H])C2([H])[H]

>  <smiles>  (42) 
[H]c1nc(C([H])([H])[N+]([H])(C([H])([H])[H])C([H])([H])C([H])([H])N(C(=O)N2C([H])([H])C([H])([H])C([H])([H])C([H])(n3nc(-c4c([H])c([H])c(Oc5c([H])c([H])c(F)c([H])c5F)c([H])c4[H])c(C(=O)N([H])[H])c3N([H])[H])C2([H])[H])C([H])([H])[H])c([H])nc1C([H])([H])Oc1c([H])c([H])c2c(c1[H])C([H])([H])N(C(=O)C([H])(N([H])C(=O)C([H])(N([H])C([H])([H])[H])C([H])([H])[H])C(C([H])([H])[H])(C([H])([H])[H])C([H])([H])[H])C([H])(C(=O)N([H])C1([H])c3c([H])c([H])c([H])c([H])c3C([H])([H])C([H])([H])C1([H])[H])C2([H])[H]

$$$$
43:0:0
     RDKit          3D

 94102  0  0  1  0  0  0  0  0999 V2000
  -31.6550  -24.2100   20.5500 C   0  0  0  0  0  0  0  0  0  0  0  0
  -30.2400  -22.5750   20.0230 C   0  0  0  0  0  0  0  0  0  0  0  0
  -29.4710  -24.6000   20.5400 C   0  0  0  0  0  0  0  0  0  0  0  0
  -33.0730  -24.6960   20.7730 C   0  0  0  0  0  1  0  0  0  0  0  0
  -31.5060  -22.9350   20.2130 N   0  0  0  0  0  4  0  0  0  0  0  0
  -30.6890  -25.0980   20.7320 N   0  0  0  0  0  0  0  0  0  0  0  0
  -29.1770  -23.3510   20.1890 N   0  0  0  0  0  2  0  0  0  0  0  0
  -29.9810  -21.1380   19.5690 C   0  0  0  0  0  2  0  0  0  0  0  0
  -31.9940  -19.7920   20.0370 C   0  0  0  0  0  1  0  0  0  0  0  0
  -30.6100  -20.1300   20.4670 N   0  0  2  0  0  4  0  0  0  0  0  0
  -30.6980  -20.6260   21.3420 H   0  0  0  0  0  0  0  0  0  0  0  0
  -29.7200  -18.9450   20.6760 C   0  0  0  0  0  2  0  0  0  0  0  0
  -30.3360  -17.7170   21.4170 C   0  0  0  0  0  2  0  0  0  0  0  0
  -29.5380  -16.3990   21.2260 C   0  0  0  0  0  2  0  0  0  0  0  0
  -30.8210  -14.4690   20.2930 C   0  0  0  0  0  0  0  0  0  0  0  0
  -30.4700  -12.2860   19.2270 C   0  0  0  0  0  2  0  0  0  0  0  0
  -29.5440  -12.5130   18.0130 C   0  0  0  0  0  2  0  0  0  0  0  0
  -28.0600  -12.4560   18.4300 C   0  0  0  0  0  2  0  0  0  0  0  0
  -27.7430  -13.2900   19.7030 C   0  0  0  0  0  3  0  0  0  0  0  0
  -28.7970  -13.0680   20.8120 C   0  0  0  0  0  2  0  0  0  0  0  0
  -30.1250  -13.3040   20.2280 N   0  0  0  0  0  0  0  0  0  0  0  0
  -32.0130  -14.5550   19.9810 O   0  0  0  0  0  0  0  0  0  0  0  0
  -30.0430  -16.2180   18.8050 C   0  0  0  0  0  1  0  0  0  0  0  0
  -30.0400  -15.5640   20.1180 N   0  0  0  0  0  0  0  0  0  0  0  0
  -25.3520  -13.9400   20.3910 C   0  0  0  0  0  0  0  0  0  0  0  0
  -24.2710  -13.1900   20.7650 C   0  0  0  0  0  0  0  0  0  0  0  0
  -24.7160  -11.8300   20.7640 C   0  0  0  0  0  0  0  0  0  0  0  0
  -26.3860  -13.0420   20.1840 N   0  0  0  0  0  0  0  0  0  0  0  0
  -26.0070  -11.7690   20.4680 N   0  0  0  0  0  0  0  0  0  0  0  0
  -23.9730  -10.5820   20.9700 C   0  0  0  0  0  0  0  0  0  0  0  0
  -24.3830   -9.6260   21.9240 C   0  0  0  0  0  3  0  0  0  0  0  0
  -23.6400   -8.4420   22.1200 C   0  0  0  0  0  3  0  0  0  0  0  0
  -22.4690   -8.2070   21.3600 C   0  0  0  0  0  0  0  0  0  0  0  0
  -22.0790   -9.1500   20.3910 C   0  0  0  0  0  3  0  0  0  0  0  0
  -22.8240  -10.3240   20.1950 C   0  0  0  0  0  3  0  0  0  0  0  0
  -21.6970   -7.0750   21.4620 O   0  0  0  0  0  0  0  0  0  0  0  0
  -21.6260   -6.3550   22.6270 C   0  0  0  0  0  0  0  0  0  0  0  0
  -21.1950   -6.9370   23.8390 C   0  0  0  0  0  3  0  0  0  0  0  0
  -21.0700   -6.1420   24.9970 C   0  0  0  0  0  3  0  0  0  0  0  0
  -21.3660   -4.7670   24.9430 C   0  0  0  0  0  0  0  0  0  0  0  0
  -21.7900   -4.1850   23.7350 C   0  0  0  0  0  3  0  0  0  0  0  0
  -21.9160   -4.9760   22.5800 C   0  0  0  0  0  0  0  0  0  0  0  0
  -22.3010   -4.4040   21.4140 F   0  0  0  0  0  0  0  0  0  0  0  0
  -21.2390   -4.0020   26.0530 F   0  0  0  0  0  0  0  0  0  0  0  0
  -22.8760  -13.6880   21.0180 C   0  0  0  0  0  0  0  0  0  0  0  0
  -22.1350  -13.0160   21.8930 N   0  0  0  0  0  0  0  0  0  0  0  0
  -22.4540  -14.7090   20.4760 O   0  0  0  0  0  0  0  0  0  0  0  0
  -22.4930  -12.1910   22.3500 H   0  0  0  0  0  0  0  0  0  0  0  0
  -21.1990  -13.3310   22.1080 H   0  0  0  0  0  0  0  0  0  0  0  0
  -25.5370  -15.3050   20.1850 N   0  0  0  0  0  0  0  0  0  0  0  0
  -24.7860  -15.9800   20.2880 H   0  0  0  0  0  0  0  0  0  0  0  0
  -26.3960  -15.7190   19.8450 H   0  0  0  0  0  0  0  0  0  0  0  0
  -28.2890  -25.5360   20.7670 C   0  0  0  0  0  2  0  0  0  0  0  0
  -28.3870  -26.7780   20.0620 O   0  0  0  0  0  0  0  0  0  0  0  0
  -24.5850  -31.8900   23.2210 C   0  0  0  0  0  0  0  0  0  0  0  0
  -27.2190  -27.5020   20.0830 C   0  0  0  0  0  0  0  0  0  0  0  0
  -23.3650  -30.4890   21.5850 C   0  0  0  0  0  3  0  0  0  0  0  0
  -24.8120  -28.9720   20.1360 C   0  0  0  0  0  0  0  0  0  0  0  0
  -25.8850  -30.8700   21.3580 C   0  0  0  0  0  2  0  0  0  0  0  0
  -25.9730  -29.5060   20.7090 C   0  0  0  0  0  0  0  0  0  0  0  0
  -27.1830  -28.7800   20.6790 C   0  0  0  0  0  3  0  0  0  0  0  0
  -26.0460  -26.9770   19.4990 C   0  0  0  0  0  3  0  0  0  0  0  0
  -24.8410  -27.7030   19.5300 C   0  0  0  0  0  3  0  0  0  0  0  0
  -23.5620  -29.8180   20.2000 C   0  0  0  0  0  2  0  0  0  0  0  0
  -24.6310  -31.0960   22.1140 N   0  0  0  0  0  0  0  0  0  0  0  0
  -23.5090  -32.1540   23.7740 O   0  0  0  0  0  0  0  0  0  0  0  0
  -22.7320  -29.4590   22.5460 C   0  0  0  0  0  0  0  0  0  0  0  0
  -21.4110  -29.2540   22.4160 N   0  0  0  0  0  0  0  0  0  0  0  0
  -23.4240  -28.8470   23.3630 O   0  0  0  0  0  0  0  0  0  0  0  0
  -20.9130  -29.8000   21.7280 H   0  0  0  0  0  0  0  0  0  0  0  0
  -18.0640  -27.9790   22.8750 C   0  0  0  0  0  0  0  0  0  0  0  0
  -20.6090  -28.3070   23.1870 C   0  0  0  0  0  3  0  0  0  0  0  0
  -20.7570  -26.8700   22.6350 C   0  0  0  0  0  2  0  0  0  0  0  0
  -19.6820  -26.5040   21.6070 C   0  0  0  0  0  2  0  0  0  0  0  0
  -18.2870  -26.6230   22.2250 C   0  0  0  0  0  2  0  0  0  0  0  0
  -19.1550  -28.7750   23.3140 C   0  0  0  0  0  0  0  0  0  0  0  0
  -18.8930  -30.0420   23.8790 C   0  0  0  0  0  3  0  0  0  0  0  0
  -17.5740  -30.5130   24.0120 C   0  0  0  0  0  3  0  0  0  0  0  0
  -16.4970  -29.7130   23.5930 C   0  0  0  0  0  3  0  0  0  0  0  0
  -16.7430  -28.4480   23.0300 C   0  0  0  0  0  3  0  0  0  0  0  0
  -25.8760  -32.5210   23.8280 C   0  0  0  0  0  3  0  0  0  0  0  0
  -25.5700  -33.9190   24.1590 N   0  0  0  0  0  0  0  0  0  0  0  0
  -25.9020  -34.9700   23.3980 C   0  0  0  0  0  0  0  0  0  0  0  0
  -26.5720  -34.8640   22.3660 O   0  0  0  0  0  0  0  0  0  0  0  0
  -24.9780  -34.0760   24.9600 H   0  0  0  0  0  0  0  0  0  0  0  0
  -24.1790  -36.7620   23.0360 C   0  0  0  0  0  1  0  0  0  0  0  0
  -25.4160  -36.3580   23.8530 C   0  0  0  0  0  3  0  0  0  0  0  0
  -27.5480  -37.2360   24.6940 C   0  0  0  0  0  1  0  0  0  0  0  0
  -26.4510  -37.4090   23.7460 N   0  0  0  0  0  0  0  0  0  0  0  0
  -26.0460  -38.3300   23.8940 H   0  0  0  0  0  0  0  0  0  0  0  0
  -26.4100  -31.7490   25.0970 C   0  0  1  0  0  0  0  0  0  0  0  0
  -25.3280  -31.5060   26.1760 C   0  0  0  0  0  1  0  0  0  0  0  0
  -26.9910  -30.3740   24.6930 C   0  0  0  0  0  1  0  0  0  0  0  0
  -27.5660  -32.5450   25.7480 C   0  0  0  0  0  1  0  0  0  0  0  0
  1  6  1  0
  1  4  1  0
  2  7  1  0
  2  5  2  0
  3  6  2  0
  3 53  1  0
  5  1  2  0
  7  3  1  0
  8  2  1  0
  8 10  1  0
  9 10  1  0
 10 12  1  0
 10 11  1  1
 12 13  1  0
 14 13  1  0
 16 21  1  0
 17 18  1  0
 17 16  1  0
 19 18  1  0
 19 28  1  0
 19 20  1  0
 21 15  1  0
 21 20  1  0
 22 15  2  0
 23 24  1  0
 24 15  1  0
 24 14  1  0
 25 26  2  0
 26 45  1  0
 27 26  1  0
 27 30  1  0
 28 25  1  0
 28 29  1  0
 29 27  2  0
 30 31  1  0
 31 32  2  0
 33 36  1  0
 33 32  1  0
 34 33  2  0
 35 34  1  0
 35 30  2  0
 36 37  1  0
 37 38  1  0
 38 39  2  0
 40 39  1  0
 40 44  1  0
 41 40  2  0
 42 37  2  0
 42 41  1  0
 43 42  1  0
 45 46  1  0
 46 49  1  0
 46 48  1  0
 47 45  2  0
 50 51  1  0
 50 25  1  0
 52 50  1  0
 54 56  1  0
 54 53  1  0
 55 66  2  0
 56 61  1  0
 57 65  1  0
 57 67  1  0
 58 64  1  0
 58 60  1  0
 59 65  1  0
 60 59  1  0
 61 60  2  0
 62 63  1  0
 62 56  2  0
 63 58  2  0
 64 57  1  0
 65 55  1  0
 67 69  2  0
 68 67  1  0
 70 68  1  0
 71 80  2  0
 71 76  1  0
 72 68  1  0
 72 76  1  0
 73 72  1  0
 74 75  1  0
 74 73  1  0
 75 71  1  0
 76 77  2  0
 77 78  1  0
 79 78  2  0
 80 79  1  0
 81 55  1  0
 81 82  1  0
 81 91  1  0
 82 85  1  0
 83 87  1  0
 83 82  1  0
 84 83  2  0
 87 86  1  0
 89 87  1  0
 89 90  1  0
 89 88  1  0
 91 94  1  1
 91 92  1  0
 93 91  1  0
M  ISO  4  15 100  24 100  53 101  54 101
M  END
>  <TORSDO>  (43) 
F 22

>  <SCORE>  (43) 
-12.459

>  <name>  (43) 
43

>  <ligand_id>  (43) 
43

>  <original_smiles>  (43) 
[H]c1c([H])c([H])c2c(c1[H])C([H])([H])C([H])([H])C([H])([H])C2([H])N([H])C(=O)C1([H])N(C(=O)C([H])(N([H])C(=O)C([H])(N([H])C([H])([H])[H])C([H])([H])[H])C(C([H])([H])[H])(C([H])([H])[H])C([H])([H])[H])C([H])([H])c2c([H])c(OC([H])([H])c3nc(C([H])([H])[H])nc(C([H])([H])[N+]([H])(C([H])([H])[H])C([H])([H])C([H])([H])C([H])([H])N(C(=O)N4C([H])([H])C([H])([H])C([H])([H])C([H])(n5nc(-c6c([H])c([H])c(Oc7c([H])c([H])c(F)c([H])c7F)c([H])c6[H])c(C(=O)N([H])[H])c5N([H])[H])C4([H])[H])C([H])([H])[H])n3)c([H])c([H])c2C1([H])[H]

>  <smiles>  (43) 
[H]c1c([H])c([H])c2c(c1[H])C([H])([H])C([H])([H])C([H])([H])C2([H])N([H])C(=O)C1([H])N(C(=O)C([H])(N([H])C(=O)C([H])(N([H])C([H])([H])[H])C([H])([H])[H])C(C([H])([H])[H])(C([H])([H])[H])C([H])([H])[H])C([H])([H])c2c([H])c(OC([H])([H])c3nc(C([H])([H])[H])nc(C([H])([H])[N+]([H])(C([H])([H])[H])C([H])([H])C([H])([H])C([H])([H])N(C(=O)N4C([H])([H])C([H])([H])C([H])([H])C([H])(n5nc(-c6c([H])c([H])c(Oc7c([H])c([H])c(F)c([H])c7F)c([H])c6[H])c(C(=O)N([H])[H])c5N([H])[H])C4([H])[H])C([H])([H])[H])n3)c([H])c([H])c2C1([H])[H]

$$$$
44:0:0
     RDKit          3D

 91 99  0  0  1  0  0  0  0  0999 V2000
  -30.7080  -22.2710   21.3390 C   0  0  0  0  0  3  0  0  0  0  0  0
  -28.4730  -21.6470   20.9490 C   0  0  0  0  0  3  0  0  0  0  0  0
  -29.3920  -22.7110   21.0740 C   0  0  0  0  0  0  0  0  0  0  0  0
  -30.0780  -20.0410   21.4930 C   0  0  0  0  0  0  0  0  0  0  0  0
  -31.0380  -20.9670   21.5490 N   0  0  0  0  0  0  0  0  0  0  0  0
  -28.8180  -20.3430   21.1580 N   0  0  0  0  0  0  0  0  0  0  0  0
  -28.9930  -24.2350   21.1450 C   0  0  0  0  0  2  0  0  0  0  0  0
  -28.4660  -25.0480   19.8910 C   0  0  0  0  0  2  0  0  0  0  0  0
  -28.4170  -26.5170   20.0750 O   0  0  0  0  0  0  0  0  0  0  0  0
  -24.6760  -31.8340   23.1480 C   0  0  0  0  0  0  0  0  0  0  0  0
  -27.2440  -27.2880   20.0430 C   0  0  0  0  0  0  0  0  0  0  0  0
  -23.4400  -30.4450   21.5210 C   0  0  0  0  0  3  0  0  0  0  0  0
  -24.8650  -28.8860   20.0740 C   0  0  0  0  0  0  0  0  0  0  0  0
  -25.9740  -30.7600   21.2960 C   0  0  0  0  0  2  0  0  0  0  0  0
  -26.0400  -29.3810   20.6510 C   0  0  0  0  0  0  0  0  0  0  0  0
  -27.2260  -28.5920   20.6260 C   0  0  0  0  0  3  0  0  0  0  0  0
  -26.0400  -26.8360   19.4540 C   0  0  0  0  0  3  0  0  0  0  0  0
  -24.8650  -27.6170   19.4710 C   0  0  0  0  0  3  0  0  0  0  0  0
  -23.6300  -29.7620   20.1390 C   0  0  0  0  0  2  0  0  0  0  0  0
  -24.7180  -31.0290   22.0460 N   0  0  0  0  0  0  0  0  0  0  0  0
  -23.6020  -32.1150   23.7000 O   0  0  0  0  0  0  0  0  0  0  0  0
  -22.7880  -29.4320   22.4900 C   0  0  0  0  0  0  0  0  0  0  0  0
  -21.4580  -29.2630   22.3810 N   0  0  0  0  0  0  0  0  0  0  0  0
  -23.4730  -28.8000   23.2960 O   0  0  0  0  0  0  0  0  0  0  0  0
  -20.9640  -29.8240   21.7010 H   0  0  0  0  0  0  0  0  0  0  0  0
  -18.0820  -28.0920   22.9260 C   0  0  0  0  0  0  0  0  0  0  0  0
  -20.6460  -28.3290   23.1610 C   0  0  0  0  0  3  0  0  0  0  0  0
  -20.7280  -26.9000   22.5770 C   0  0  0  0  0  2  0  0  0  0  0  0
  -19.6080  -26.5910   21.5770 C   0  0  0  0  0  2  0  0  0  0  0  0
  -18.2380  -26.7440   22.2440 C   0  0  0  0  0  2  0  0  0  0  0  0
  -19.2130  -28.8440   23.3430 C   0  0  0  0  0  0  0  0  0  0  0  0
  -19.0130  -30.1070   23.9420 C   0  0  0  0  0  3  0  0  0  0  0  0
  -17.7170  -30.6160   24.1320 C   0  0  0  0  0  3  0  0  0  0  0  0
  -16.6000  -29.8620   23.7320 C   0  0  0  0  0  3  0  0  0  0  0  0
  -16.7840  -28.6020   23.1350 C   0  0  0  0  0  3  0  0  0  0  0  0
  -25.9720  -32.4570   23.7540 C   0  0  0  0  0  3  0  0  0  0  0  0
  -25.6660  -33.8450   24.1240 N   0  0  0  0  0  0  0  0  0  0  0  0
  -26.0030  -34.9190   23.3970 C   0  0  0  0  0  0  0  0  0  0  0  0
  -26.6770  -34.8450   22.3660 O   0  0  0  0  0  0  0  0  0  0  0  0
  -25.0660  -33.9760   24.9260 H   0  0  0  0  0  0  0  0  0  0  0  0
  -24.2850  -36.7310   23.0900 C   0  0  0  0  0  1  0  0  0  0  0  0
  -25.5200  -36.2950   23.8950 C   0  0  0  0  0  3  0  0  0  0  0  0
  -27.6520  -37.1460   24.7670 C   0  0  0  0  0  1  0  0  0  0  0  0
  -26.5570  -37.3480   23.8220 N   0  0  0  0  0  0  0  0  0  0  0  0
  -26.1530  -38.2640   23.9960 H   0  0  0  0  0  0  0  0  0  0  0  0
  -26.5210  -31.6580   24.9990 C   0  0  1  0  0  0  0  0  0  0  0  0
  -25.4540  -31.3920   26.0880 C   0  0  0  0  0  1  0  0  0  0  0  0
  -27.0980  -30.2910   24.5630 C   0  0  0  0  0  1  0  0  0  0  0  0
  -27.6880  -32.4380   25.6520 C   0  0  0  0  0  1  0  0  0  0  0  0
  -30.3810  -18.6010   22.0640 C   0  0  0  0  0  2  0  0  0  0  0  0
  -31.1150  -17.4900   21.1810 C   0  0  0  0  0  2  0  0  0  0  0  0
  -30.9820  -14.9590   20.6120 C   0  0  0  0  0  0  0  0  0  0  0  0
  -30.6650  -12.8190   19.3510 C   0  0  0  0  0  2  0  0  0  0  0  0
  -29.7390  -12.9570   18.1260 C   0  0  0  0  0  2  0  0  0  0  0  0
  -28.2610  -12.7790   18.5310 C   0  0  0  0  0  2  0  0  0  0  0  0
  -27.8820  -13.5710   19.8040 C   0  0  0  0  0  3  0  0  0  0  0  0
  -28.9410  -13.4270   20.9260 C   0  0  0  0  0  2  0  0  0  0  0  0
  -30.2450  -13.8130   20.3670 N   0  0  0  0  0  0  0  0  0  0  0  0
  -32.1970  -14.9320   20.4050 O   0  0  0  0  0  0  0  0  0  0  0  0
  -30.3720  -16.1920   20.8970 N   0  0  0  0  0  0  0  0  0  0  0  0
  -25.4850  -14.1740   20.5090 C   0  0  0  0  0  0  0  0  0  0  0  0
  -24.4140  -13.3930   20.8430 C   0  0  0  0  0  0  0  0  0  0  0  0
  -24.8880  -12.0470   20.8130 C   0  0  0  0  0  0  0  0  0  0  0  0
  -26.5360  -13.2960   20.2800 N   0  0  0  0  0  0  0  0  0  0  0  0
  -26.1850  -12.0140   20.5390 N   0  0  0  0  0  0  0  0  0  0  0  0
  -24.1710  -10.7790   20.9670 C   0  0  0  0  0  0  0  0  0  0  0  0
  -24.5660   -9.8230   21.9270 C   0  0  0  0  0  3  0  0  0  0  0  0
  -23.8510   -8.6160   22.0670 C   0  0  0  0  0  3  0  0  0  0  0  0
  -22.7280   -8.3560   21.2460 C   0  0  0  0  0  0  0  0  0  0  0  0
  -22.3560   -9.3000   20.2730 C   0  0  0  0  0  3  0  0  0  0  0  0
  -23.0710  -10.5000   20.1290 C   0  0  0  0  0  3  0  0  0  0  0  0
  -21.9860   -7.2030   21.2980 O   0  0  0  0  0  0  0  0  0  0  0  0
  -21.8520   -6.4860   22.4600 C   0  0  0  0  0  0  0  0  0  0  0  0
  -21.3080   -7.0620   23.6300 C   0  0  0  0  0  3  0  0  0  0  0  0
  -21.1200   -6.2700   24.7800 C   0  0  0  0  0  3  0  0  0  0  0  0
  -21.4680   -4.9060   24.7610 C   0  0  0  0  0  0  0  0  0  0  0  0
  -22.0050   -4.3310   23.5970 C   0  0  0  0  0  3  0  0  0  0  0  0
  -22.1930   -5.1190   22.4480 C   0  0  0  0  0  0  0  0  0  0  0  0
  -22.6910   -4.5550   21.3210 F   0  0  0  0  0  0  0  0  0  0  0  0
  -21.2790   -4.1440   25.8640 F   0  0  0  0  0  0  0  0  0  0  0  0
  -23.0060  -13.8570   21.0750 C   0  0  0  0  0  0  0  0  0  0  0  0
  -22.2650  -13.1540   21.9230 N   0  0  0  0  0  0  0  0  0  0  0  0
  -22.5700  -14.8740   20.5370 O   0  0  0  0  0  0  0  0  0  0  0  0
  -22.6320  -12.3300   22.3780 H   0  0  0  0  0  0  0  0  0  0  0  0
  -21.3180  -13.4420   22.1230 H   0  0  0  0  0  0  0  0  0  0  0  0
  -25.6330  -15.5490   20.3570 N   0  0  0  0  0  0  0  0  0  0  0  0
  -24.8630  -16.1940   20.4940 H   0  0  0  0  0  0  0  0  0  0  0  0
  -26.4790  -16.0070   20.0490 H   0  0  0  0  0  0  0  0  0  0  0  0
  -29.0640  -16.6100   20.3640 C   0  0  0  0  0  2  0  0  0  0  0  0
  -27.8350  -17.7270   18.3980 C   0  0  0  0  0  1  0  0  0  0  0  0
  -29.1250  -17.0600   18.8840 C   0  0  0  0  0  2  0  0  0  0  0  0
  1  5  1  0
  2  3  1  0
  2  6  2  0
  3  7  1  0
  3  1  2  0
  4  5  2  0
  4 50  1  0
  6  4  1  0
  8  9  1  0
  8  7  1  0
 10 21  2  0
 11  9  1  0
 11 16  1  0
 12 20  1  0
 12 22  1  0
 13 19  1  0
 13 15  1  0
 14 20  1  0
 15 14  1  0
 16 15  2  0
 17 18  1  0
 17 11  2  0
 18 13  2  0
 19 12  1  0
 20 10  1  0
 22 24  2  0
 23 22  1  0
 25 23  1  0
 26 35  2  0
 26 31  1  0
 27 23  1  0
 27 31  1  0
 28 27  1  0
 29 30  1  0
 29 28  1  0
 30 26  1  0
 31 32  2  0
 32 33  1  0
 34 33  2  0
 35 34  1  0
 36 10  1  0
 36 37  1  0
 36 46  1  0
 37 40  1  0
 38 42  1  0
 38 37  1  0
 39 38  2  0
 42 41  1  0
 44 42  1  0
 44 45  1  0
 44 43  1  0
 46 49  1  1
 46 47  1  0
 48 46  1  0
 51 50  1  0
 52 60  1  0
 53 58  1  0
 54 55  1  0
 54 53  1  0
 56 55  1  0
 56 64  1  0
 56 57  1  0
 58 52  1  0
 58 57  1  0
 59 52  2  0
 60 51  1  0
 61 62  2  0
 62 81  1  0
 63 62  1  0
 63 66  1  0
 64 61  1  0
 64 65  1  0
 65 63  2  0
 66 67  1  0
 67 68  2  0
 69 72  1  0
 69 68  1  0
 70 69  2  0
 71 70  1  0
 71 66  2  0
 72 73  1  0
 73 74  1  0
 74 75  2  0
 76 75  1  0
 76 80  1  0
 77 76  2  0
 78 73  2  0
 78 77  1  0
 79 78  1  0
 81 82  1  0
 82 85  1  0
 82 84  1  0
 83 81  2  0
 86 87  1  0
 86 61  1  0
 88 86  1  0
 89 60  1  0
 90 91  1  0
 91 89  1  0
M  ISO  4   8 101   9 101  52 100  60 100
M  END
>  <TORSDO>  (44) 
F 22

>  <SCORE>  (44) 
-12.900

>  <name>  (44) 
44

>  <ligand_id>  (44) 
44

>  <original_smiles>  (44) 
[H]c1nc(C([H])([H])C([H])([H])N(C(=O)N2C([H])([H])C([H])([H])C([H])([H])C([H])(n3nc(-c4c([H])c([H])c(Oc5c([H])c([H])c(F)c([H])c5F)c([H])c4[H])c(C(=O)N([H])[H])c3N([H])[H])C2([H])[H])C([H])([H])C([H])([H])C([H])([H])[H])nc([H])c1C([H])([H])C([H])([H])Oc1c([H])c([H])c2c(c1[H])C([H])([H])N(C(=O)C([H])(N([H])C(=O)C([H])(N([H])C([H])([H])[H])C([H])([H])[H])C(C([H])([H])[H])(C([H])([H])[H])C([H])([H])[H])C([H])(C(=O)N([H])C1([H])c3c([H])c([H])c([H])c([H])c3C([H])([H])C([H])([H])C1([H])[H])C2([H])[H]

>  <smiles>  (44) 
[H]c1nc(C([H])([H])C([H])([H])N(C(=O)N2C([H])([H])C([H])([H])C([H])([H])C([H])(n3nc(-c4c([H])c([H])c(Oc5c([H])c([H])c(F)c([H])c5F)c([H])c4[H])c(C(=O)N([H])[H])c3N([H])[H])C2([H])[H])C([H])([H])C([H])([H])C([H])([H])[H])nc([H])c1C([H])([H])C([H])([H])Oc1c([H])c([H])c2c(c1[H])C([H])([H])N(C(=O)C([H])(N([H])C(=O)C([H])(N([H])C([H])([H])[H])C([H])([H])[H])C(C([H])([H])[H])(C([H])([H])[H])C([H])([H])[H])C([H])(C(=O)N([H])C1([H])c3c([H])c([H])c([H])c([H])c3C([H])([H])C([H])([H])C1([H])[H])C2([H])[H]

$$$$
45:0:0
     RDKit          3D

 94102  0  0  1  0  0  0  0  0999 V2000
  -32.1250  -21.6480   21.1280 C   0  0  0  0  0  3  0  0  0  0  0  0
  -30.1270  -22.8480   21.7390 C   0  0  0  0  0  3  0  0  0  0  0  0
  -32.5190  -22.7760   20.3930 C   0  0  0  0  0  3  0  0  0  0  0  0
  -30.8920  -21.6560   21.8190 C   0  0  0  0  0  0  0  0  0  0  0  0
  -30.6150  -23.9480   21.0010 C   0  0  0  0  0  0  0  0  0  0  0  0
  -31.7890  -23.9070   20.3380 N   0  0  0  0  0  0  0  0  0  0  0  0
  -30.9870  -20.8300   24.1380 C   0  0  0  0  0  1  0  0  0  0  0  0
  -28.9100  -20.3780   22.8640 C   0  0  0  0  0  1  0  0  0  0  0  0
  -30.4510  -20.4810   22.7270 C   0  0  1  0  0  0  0  0  0  0  0  0
  -31.0360  -19.0870   22.2880 C   0  0  0  0  0  0  0  0  0  0  0  0
  -29.6800  -18.9720   20.1800 C   0  0  0  0  0  1  0  0  0  0  0  0
  -30.7540  -18.5290   21.0780 N   0  0  0  0  0  0  0  0  0  0  0  0
  -31.8170  -18.5100   23.0570 O   0  0  0  0  0  0  0  0  0  0  0  0
  -31.5320  -17.3770   20.5780 C   0  0  0  0  0  2  0  0  0  0  0  0
  -30.9720  -16.0090   21.0430 C   0  0  0  0  0  2  0  0  0  0  0  0
  -31.6250  -14.8060   20.3300 C   0  0  0  0  0  0  0  0  0  0  0  0
  -31.2810  -12.6500   19.1790 C   0  0  0  0  0  2  0  0  0  0  0  0
  -30.3450  -12.8690   17.9740 C   0  0  0  0  0  2  0  0  0  0  0  0
  -28.8660  -12.7730   18.4020 C   0  0  0  0  0  2  0  0  0  0  0  0
  -28.5500  -13.6360   19.6530 C   0  0  0  0  0  3  0  0  0  0  0  0
  -29.5960  -13.3960   20.7640 C   0  0  0  0  0  2  0  0  0  0  0  0
  -30.9300  -13.6480   20.1990 N   0  0  0  0  0  0  0  0  0  0  0  0
  -32.7360  -14.9650   19.8130 O   0  0  0  0  0  0  0  0  0  0  0  0
  -26.1720  -14.3190   20.3680 C   0  0  0  0  0  0  0  0  0  0  0  0
  -25.0800  -13.5800   20.7350 C   0  0  0  0  0  0  0  0  0  0  0  0
  -25.4960  -12.2140   20.6950 C   0  0  0  0  0  0  0  0  0  0  0  0
  -27.1880  -13.4060   20.1310 N   0  0  0  0  0  0  0  0  0  0  0  0
  -26.7840  -12.1340   20.3840 N   0  0  0  0  0  0  0  0  0  0  0  0
  -24.7310  -10.9750   20.8800 C   0  0  0  0  0  0  0  0  0  0  0  0
  -25.0650  -10.0440   21.8880 C   0  0  0  0  0  3  0  0  0  0  0  0
  -24.3030   -8.8680   22.0570 C   0  0  0  0  0  3  0  0  0  0  0  0
  -23.1930   -8.6150   21.2180 C   0  0  0  0  0  0  0  0  0  0  0  0
  -22.8780   -9.5330   20.2020 C   0  0  0  0  0  3  0  0  0  0  0  0
  -23.6400  -10.7010   20.0310 C   0  0  0  0  0  3  0  0  0  0  0  0
  -22.4110   -7.4860   21.2920 O   0  0  0  0  0  0  0  0  0  0  0  0
  -22.1450   -6.8730   22.4910 C   0  0  0  0  0  0  0  0  0  0  0  0
  -21.4900   -7.5490   23.5430 C   0  0  0  0  0  3  0  0  0  0  0  0
  -21.1740   -6.8600   24.7320 C   0  0  0  0  0  3  0  0  0  0  0  0
  -21.5030   -5.4970   24.8660 C   0  0  0  0  0  0  0  0  0  0  0  0
  -22.1500   -4.8220   23.8160 C   0  0  0  0  0  3  0  0  0  0  0  0
  -22.4670   -5.5080   22.6300 C   0  0  0  0  0  0  0  0  0  0  0  0
  -23.0720   -4.8480   21.6140 F   0  0  0  0  0  0  0  0  0  0  0  0
  -21.1920   -4.8340   26.0040 F   0  0  0  0  0  0  0  0  0  0  0  0
  -23.6990  -14.1000   21.0130 C   0  0  0  0  0  0  0  0  0  0  0  0
  -22.9550  -13.4280   21.8850 N   0  0  0  0  0  0  0  0  0  0  0  0
  -23.2880  -15.1370   20.4920 O   0  0  0  0  0  0  0  0  0  0  0  0
  -23.2990  -12.5880   22.3270 H   0  0  0  0  0  0  0  0  0  0  0  0
  -22.0280  -13.7580   22.1130 H   0  0  0  0  0  0  0  0  0  0  0  0
  -26.3800  -15.6850   20.1980 N   0  0  0  0  0  0  0  0  0  0  0  0
  -25.6360  -16.3630   20.3110 H   0  0  0  0  0  0  0  0  0  0  0  0
  -27.2460  -16.0970   19.8740 H   0  0  0  0  0  0  0  0  0  0  0  0
  -29.9070  -25.3000   21.0080 C   0  0  0  0  0  2  0  0  0  0  0  0
  -29.3920  -25.7570   19.6290 C   0  0  0  0  0  2  0  0  0  0  0  0
  -29.1280  -27.1660   19.6590 O   0  0  0  0  0  0  0  0  0  0  0  0
  -24.6600  -31.5020   23.0730 C   0  0  0  0  0  0  0  0  0  0  0  0
  -27.8420  -27.6550   19.7200 C   0  0  0  0  0  0  0  0  0  0  0  0
  -23.6380  -30.0920   21.3130 C   0  0  0  0  0  3  0  0  0  0  0  0
  -25.2740  -28.8420   19.8090 C   0  0  0  0  0  0  0  0  0  0  0  0
  -26.1020  -30.7650   21.1790 C   0  0  0  0  0  2  0  0  0  0  0  0
  -26.3540  -29.4630   20.4470 C   0  0  0  0  0  0  0  0  0  0  0  0
  -27.6370  -28.8770   20.3980 C   0  0  0  0  0  3  0  0  0  0  0  0
  -26.7410  -27.0380   19.0800 C   0  0  0  0  0  3  0  0  0  0  0  0
  -25.4620  -27.6270   19.1260 C   0  0  0  0  0  3  0  0  0  0  0  0
  -23.9370  -29.5420   19.8920 C   0  0  0  0  0  2  0  0  0  0  0  0
  -24.8160  -30.7980   21.9150 N   0  0  0  0  0  0  0  0  0  0  0  0
  -23.5510  -31.6030   23.6150 O   0  0  0  0  0  0  0  0  0  0  0  0
  -23.1100  -28.9330   22.1880 C   0  0  0  0  0  0  0  0  0  0  0  0
  -21.8310  -28.5720   21.9920 N   0  0  0  0  0  0  0  0  0  0  0  0
  -23.8490  -28.3620   22.9950 O   0  0  0  0  0  0  0  0  0  0  0  0
  -21.2910  -29.0950   21.3180 H   0  0  0  0  0  0  0  0  0  0  0  0
  -18.6560  -26.8720   22.2540 C   0  0  0  0  0  0  0  0  0  0  0  0
  -21.1310  -27.4820   22.6710 C   0  0  0  0  0  3  0  0  0  0  0  0
  -21.4710  -26.1170   22.0280 C   0  0  0  0  0  2  0  0  0  0  0  0
  -20.4740  -25.6970   20.9430 C   0  0  0  0  0  2  0  0  0  0  0  0
  -19.0590  -25.6030   21.5220 C   0  0  0  0  0  2  0  0  0  0  0  0
  -19.6290  -27.7620   22.7790 C   0  0  0  0  0  0  0  0  0  0  0  0
  -19.2010  -28.9440   23.4210 C   0  0  0  0  0  3  0  0  0  0  0  0
  -17.8320  -29.2440   23.5410 C   0  0  0  0  0  3  0  0  0  0  0  0
  -16.8710  -28.3510   23.0330 C   0  0  0  0  0  3  0  0  0  0  0  0
  -17.2830  -27.1670   22.3970 C   0  0  0  0  0  3  0  0  0  0  0  0
  -25.8590  -32.2320   23.7550 C   0  0  0  0  0  3  0  0  0  0  0  0
  -25.4120  -33.5890   24.0980 N   0  0  0  0  0  0  0  0  0  0  0  0
  -25.6870  -34.6840   23.3770 C   0  0  0  0  0  0  0  0  0  0  0  0
  -26.4140  -34.6650   22.3800 O   0  0  0  0  0  0  0  0  0  0  0  0
  -24.7700  -33.6710   24.8720 H   0  0  0  0  0  0  0  0  0  0  0  0
  -23.8250  -36.3230   22.9700 C   0  0  0  0  0  1  0  0  0  0  0  0
  -25.0560  -36.0130   23.8350 C   0  0  0  0  0  3  0  0  0  0  0  0
  -27.0550  -37.0690   24.7930 C   0  0  0  0  0  1  0  0  0  0  0  0
  -25.9950  -37.1550   23.7920 N   0  0  0  0  0  0  0  0  0  0  0  0
  -25.5010  -38.0320   23.9300 H   0  0  0  0  0  0  0  0  0  0  0  0
  -26.3970  -31.4820   25.0370 C   0  0  1  0  0  0  0  0  0  0  0  0
  -25.2910  -31.1180   26.0530 C   0  0  0  0  0  1  0  0  0  0  0  0
  -27.1210  -30.1750   24.6370 C   0  0  0  0  0  1  0  0  0  0  0  0
  -27.4410  -32.3650   25.7620 C   0  0  0  0  0  1  0  0  0  0  0  0
  1  4  1  0
  2  4  2  0
  3  1  2  0
  4  9  1  0
  5 52  1  0
  5  2  1  0
  6  3  1  0
  6  5  2  0
  9  8  1  1
  9  7  1  0
 10  9  1  0
 10 13  2  0
 11 12  1  0
 12 10  1  0
 14 15  1  0
 14 12  1  0
 16 15  1  0
 17 22  1  0
 18 19  1  0
 18 17  1  0
 20 19  1  0
 20 27  1  0
 20 21  1  0
 22 16  1  0
 22 21  1  0
 23 16  2  0
 24 25  2  0
 25 44  1  0
 26 25  1  0
 26 29  1  0
 27 24  1  0
 27 28  1  0
 28 26  2  0
 29 30  1  0
 30 31  2  0
 32 35  1  0
 32 31  1  0
 33 32  2  0
 34 33  1  0
 34 29  2  0
 35 36  1  0
 36 41  2  0
 36 37  1  0
 37 38  2  0
 38 39  1  0
 39 43  1  0
 40 39  2  0
 41 40  1  0
 42 41  1  0
 44 45  1  0
 45 48  1  0
 45 47  1  0
 46 44  2  0
 49 50  1  0
 49 24  1  0
 51 49  1  0
 53 54  1  0
 53 52  1  0
 54 56  1  0
 55 66  2  0
 56 61  1  0
 57 65  1  0
 57 67  1  0
 58 64  1  0
 58 60  1  0
 59 65  1  0
 60 59  1  0
 61 60  2  0
 62 63  1  0
 62 56  2  0
 63 58  2  0
 64 57  1  0
 65 55  1  0
 67 69  2  0
 68 67  1  0
 70 68  1  0
 71 80  2  0
 71 76  1  0
 72 68  1  0
 72 76  1  0
 73 72  1  0
 74 75  1  0
 74 73  1  0
 75 71  1  0
 76 77  2  0
 77 78  1  0
 79 78  2  0
 80 79  1  0
 81 55  1  0
 81 82  1  0
 81 91  1  0
 82 85  1  0
 83 87  1  0
 83 82  1  0
 84 83  2  0
 87 86  1  0
 89 87  1  0
 89 90  1  0
 89 88  1  0
 91 94  1  1
 91 92  1  0
 93 91  1  0
M  ISO  4  15 100  16 100  53 101  54 101
M  END
>  <TORSDO>  (45) 
F 22

>  <SCORE>  (45) 
-8.628

>  <name>  (45) 
45

>  <ligand_id>  (45) 
45

>  <original_smiles>  (45) 
[H]c1nc(C([H])([H])C([H])([H])Oc2c([H])c([H])c3c(c2[H])C([H])([H])N(C(=O)C([H])(N([H])C(=O)C([H])(N([H])C([H])([H])[H])C([H])([H])[H])C(C([H])([H])[H])(C([H])([H])[H])C([H])([H])[H])C([H])(C(=O)N([H])C2([H])c4c([H])c([H])c([H])c([H])c4C([H])([H])C([H])([H])C2([H])[H])C3([H])[H])c([H])c(C(C(=O)N(C([H])([H])[H])C([H])([H])C([H])([H])C(=O)N2C([H])([H])C([H])([H])C([H])([H])C([H])(n3nc(-c4c([H])c([H])c(Oc5c([H])c([H])c(F)c([H])c5F)c([H])c4[H])c(C(=O)N([H])[H])c3N([H])[H])C2([H])[H])(C([H])([H])[H])C([H])([H])[H])c1[H]

>  <smiles>  (45) 
[H]c1nc(C([H])([H])C([H])([H])Oc2c([H])c([H])c3c(c2[H])C([H])([H])N(C(=O)C([H])(N([H])C(=O)C([H])(N([H])C([H])([H])[H])C([H])([H])[H])C(C([H])([H])[H])(C([H])([H])[H])C([H])([H])[H])C([H])(C(=O)N([H])C2([H])c4c([H])c([H])c([H])c([H])c4C([H])([H])C([H])([H])C2([H])[H])C3([H])[H])c([H])c(C(C(=O)N(C([H])([H])[H])C([H])([H])C([H])([H])C(=O)N2C([H])([H])C([H])([H])C([H])([H])C([H])(n3nc(-c4c([H])c([H])c(Oc5c([H])c([H])c(F)c([H])c5F)c([H])c4[H])c(C(=O)N([H])[H])c3N([H])[H])C2([H])[H])(C([H])([H])[H])C([H])([H])[H])c1[H]

$$$$
46:0:0
     RDKit          3D

 95 96  0  0  1  0  0  0  0  0999 V2000
  -26.7360  -27.7450   18.8510 C   0  0  0  0  0  2  0  0  0  0  0  0
  -26.1680  -26.1500   20.2360 C   0  0  0  0  0  3  0  0  0  0  0  0
  -26.1930  -28.6350   17.8790 C   0  0  0  0  0  3  0  0  0  0  0  0
  -26.6080  -29.9080   17.1910 C   0  0  0  0  0  1  0  0  0  0  0  0
  -26.4160  -27.4090   18.7620 N   0  0  0  0  0  2  0  0  0  0  0  0
  -26.1960  -27.5230   17.3270 N   0  0  0  0  0  0  0  0  0  0  0  0
  -25.6940  -23.2290   21.1760 C   0  0  0  0  0  1  0  0  0  0  0  0
  -27.9300  -24.1590   21.8600 C   0  0  0  0  0  1  0  0  0  0  0  0
  -27.0360  -23.7680   20.6760 C   0  0  0  0  0  2  0  0  0  0  0  0
  -28.1730  -21.3650   20.3690 C   0  0  0  0  0 15  0  0  0  0  0  0
  -29.6360  -17.3400   20.7700 C   0  0  0  0  0  2  0  0  0  0  0  0
  -30.4780  -14.4420   20.2050 C   0  0  0  0  0  2  0  0  0  0  0  0
  -30.0410  -13.3020   19.1550 C   0  0  0  0  0  2  0  0  0  0  0  0
  -28.7600  -12.5680   19.5430 C   0  0  0  0  0  2  0  0  0  0  0  0
  -27.8850  -13.6010   20.2610 C   0  0  0  0  0  3  0  0  0  0  0  0
  -28.5800  -14.5590   21.3220 C   0  0  0  0  0  2  0  0  0  0  0  0
  -29.4540  -15.6710   20.6660 N   0  0  0  0  0  0  0  0  0  0  0  0
  -30.9110  -17.1090   20.8320 O   0  0  0  0  0  1  0  0  0  0  0  0
  -28.7620  -19.0930   20.6840 N   0  0  0  0  0  1  0  0  0  0  0  0
  -29.6600  -19.4140   21.0260 H   0  0  0  0  0  0  0  0  0  0  0  0
  -25.4600  -13.9130   20.7720 C   0  0  0  0  0  0  0  0  0  0  0  0
  -24.4130  -13.0850   21.0380 C   0  0  0  0  0  0  0  0  0  0  0  0
  -24.9450  -11.7560   21.0560 C   0  0  0  0  0  0  0  0  0  0  0  0
  -26.5730  -13.1120   20.6670 N   0  0  0  0  0  0  0  0  0  0  0  0
  -26.2730  -11.7930   20.8710 N   0  0  0  0  0  0  0  0  0  0  0  0
  -24.2290  -10.4710   21.1790 C   0  0  0  0  0  0  0  0  0  0  0  0
  -24.6060   -9.4960   22.1300 C   0  0  0  0  0  3  0  0  0  0  0  0
  -23.8760   -8.2920   22.2540 C   0  0  0  0  0  3  0  0  0  0  0  0
  -22.7520   -8.0540   21.4260 C   0  0  0  0  0  0  0  0  0  0  0  0
  -22.3930   -9.0160   20.4690 C   0  0  0  0  0  3  0  0  0  0  0  0
  -23.1230  -10.2100   20.3440 C   0  0  0  0  0  3  0  0  0  0  0  0
  -22.0020   -6.9020   21.4540 O   0  0  0  0  0  0  0  0  0  0  0  0
  -21.8880   -6.1400   22.5900 C   0  0  0  0  0  0  0  0  0  0  0  0
  -21.3220   -6.6530   23.7770 C   0  0  0  0  0  3  0  0  0  0  0  0
  -21.1620   -5.8180   24.9010 C   0  0  0  0  0  3  0  0  0  0  0  0
  -21.5560   -4.4670   24.8390 C   0  0  0  0  0  0  0  0  0  0  0  0
  -22.1120   -3.9520   23.6550 C   0  0  0  0  0  3  0  0  0  0  0  0
  -22.2760   -4.7850   22.5340 C   0  0  0  0  0  0  0  0  0  0  0  0
  -22.7920   -4.2760   21.3890 F   0  0  0  0  0  0  0  0  0  0  0  0
  -21.3960   -3.6640   25.9140 F   0  0  0  0  0  0  0  0  0  0  0  0
  -22.9850  -13.5200   21.1490 C   0  0  0  0  0  0  0  0  0  0  0  0
  -22.1990  -12.8420   21.9760 N   0  0  0  0  0  0  0  0  0  0  0  0
  -22.5700  -14.5070   20.5410 O   0  0  0  0  0  0  0  0  0  0  0  0
  -22.5440  -12.0470   22.4920 H   0  0  0  0  0  0  0  0  0  0  0  0
  -21.2360  -13.1250   22.0960 H   0  0  0  0  0  0  0  0  0  0  0  0
  -25.5640  -15.2900   20.5900 N   0  0  0  0  0  0  0  0  0  0  0  0
  -24.7570  -15.9030   20.6040 H   0  0  0  0  0  0  0  0  0  0  0  0
  -26.4230  -15.7680   20.3430 H   0  0  0  0  0  0  0  0  0  0  0  0
  -26.4730  -26.8740   16.0680 C   0  0  0  0  0  2  0  0  0  0  0  0
  -27.9900  -26.6480   15.8410 C   0  0  0  0  0  2  0  0  0  0  0  0
  -28.3070  -24.1250   15.9400 C   0  0  0  0  0  1  0  0  0  0  0  0
  -30.1920  -25.6490   15.7290 C   0  0  0  0  0  1  0  0  0  0  0  0
  -28.8290  -25.4830   16.4910 C   0  0  1  0  0  0  0  0  0  0  0  0
  -29.0950  -25.3130   18.0850 C   0  0  0  0  0  2  0  0  0  0  0  0
  -28.9870  -26.2740   19.1840 O   0  0  0  0  0  0  0  0  0  0  0  0
  -24.5290  -31.8420   23.1810 C   0  0  0  0  0  0  0  0  0  0  0  0
  -28.0230  -25.9990   20.0280 C   0  0  0  0  0  2  0  0  0  0  0  0
  -23.3040  -30.2130   21.7280 C   0  0  0  0  0  3  0  0  0  0  0  0
  -24.3720  -27.7650   20.8570 C   0  0  0  0  0  2  0  0  0  0  0  0
  -25.8460  -30.0640   21.8020 C   0  0  0  0  0  2  0  0  0  0  0  0
  -25.9550  -28.4230   21.7080 C   0  0  0  0  0  2  0  0  0  0  0  0
  -27.7670  -27.5690   21.4780 C   0  0  0  0  0 15  0  0  0  0  0  0
  -26.2080  -25.1990   19.0730 C   0  0  0  0  0  1  0  0  0  0  0  0
  -24.3430  -26.1490   19.6310 C   0  0  0  0  0  1  0  0  0  0  0  0
  -23.4380  -29.0730   20.6100 C   0  0  0  0  0  2  0  0  0  0  0  0
  -24.5890  -30.7810   22.2690 N   0  0  0  0  0  0  0  0  0  0  0  0
  -23.4460  -32.2720   23.6130 O   0  0  0  0  0  0  0  0  0  0  0  0
  -22.5260  -29.5210   22.8260 C   0  0  0  0  0  0  0  0  0  0  0  0
  -21.2160  -29.3590   22.6400 N   0  0  0  0  0  0  0  0  0  0  0  0
  -23.1380  -29.0470   23.7790 O   0  0  0  0  0  0  0  0  0  0  0  0
  -20.7800  -29.7580   21.8210 H   0  0  0  0  0  0  0  0  0  0  0  0
  -17.9250  -27.9750   23.0580 C   0  0  0  0  0  0  0  0  0  0  0  0
  -20.4120  -28.4750   23.4650 C   0  0  0  0  0  3  0  0  0  0  0  0
  -20.6700  -26.9930   23.1010 C   0  0  0  0  0  2  0  0  0  0  0  0
  -19.6900  -26.4510   22.0600 C   0  0  0  0  0  2  0  0  0  0  0  0
  -18.2530  -26.5700   22.5820 C   0  0  0  0  0  2  0  0  0  0  0  0
  -18.9440  -28.8800   23.4510 C   0  0  0  0  0  0  0  0  0  0  0  0
  -18.5950  -30.1880   23.8440 C   0  0  0  0  0  3  0  0  0  0  0  0
  -17.2500  -30.5970   23.8540 C   0  0  0  0  0  3  0  0  0  0  0  0
  -16.2400  -29.6910   23.4770 C   0  0  0  0  0  3  0  0  0  0  0  0
  -16.5780  -28.3840   23.0840 C   0  0  0  0  0  3  0  0  0  0  0  0
  -25.7930  -32.5630   23.7810 C   0  0  0  0  0  3  0  0  0  0  0  0
  -25.4470  -33.9740   24.1130 N   0  0  0  0  0  0  0  0  0  0  0  0
  -25.7830  -35.0700   23.4100 C   0  0  0  0  0  0  0  0  0  0  0  0
  -26.4410  -35.0130   22.3700 O   0  0  0  0  0  0  0  0  0  0  0  0
  -24.8350  -34.1070   24.9060 H   0  0  0  0  0  0  0  0  0  0  0  0
  -24.0180  -36.8610   23.1660 C   0  0  0  0  0  1  0  0  0  0  0  0
  -25.2930  -36.4490   23.9220 C   0  0  0  0  0  3  0  0  0  0  0  0
  -27.4240  -37.3630   24.7270 C   0  0  0  0  0  1  0  0  0  0  0  0
  -26.3030  -37.5230   23.8050 N   0  0  0  0  0  0  0  0  0  0  0  0
  -25.8830  -38.4340   23.9670 H   0  0  0  0  0  0  0  0  0  0  0  0
  -26.3800  -31.8710   25.0830 C   0  0  1  0  0  0  0  0  0  0  0  0
  -25.2980  -31.6010   26.1550 C   0  0  0  0  0  1  0  0  0  0  0  0
  -27.0520  -30.5170   24.7720 C   0  0  0  0  0  1  0  0  0  0  0  0
  -27.4860  -32.7550   25.7100 C   0  0  0  0  0  1  0  0  0  0  0  0
  3  4  1  0
  3  1  1  0
  5  1  1  0
  6  3  1  0
  6  5  1  0
  9  7  1  0
  9  8  1  0
 11 18  1  0
 12 17  1  0
 13 14  1  0
 13 12  1  0
 15 14  1  0
 15 24  1  0
 15 16  1  0
 17 11  1  0
 17 16  1  0
 19 20  1  0
 21 22  2  0
 22 23  1  0
 22 41  1  0
 23 26  1  0
 24 21  1  0
 24 25  1  0
 25 23  2  0
 26 27  1  0
 27 28  2  0
 29 32  1  0
 29 28  1  0
 30 29  2  0
 31 30  1  0
 31 26  2  0
 32 33  1  0
 33 34  1  0
 34 35  2  0
 36 35  1  0
 36 40  1  0
 37 36  2  0
 38 33  2  0
 38 37  1  0
 39 38  1  0
 41 42  1  0
 42 45  1  0
 42 44  1  0
 43 41  2  0
 46 47  1  0
 46 21  1  0
 48 46  1  0
 49  6  1  0
 50 49  1  0
 50 53  1  0
 53 51  1  6
 52 53  1  0
 53 54  1  0
 54 55  1  0
 55 57  1  0
 56 67  2  0
 57  2  1  0
 58 66  1  0
 58 68  1  0
 59 61  1  0
 60 66  1  0
 61 60  1  0
 63  2  1  0
 64  2  1  0
 65 59  1  0
 65 58  1  0
 66 56  1  0
 68 70  2  0
 69 68  1  0
 71 69  1  0
 72 81  2  0
 72 77  1  0
 73 69  1  0
 74 73  1  0
 75 76  1  0
 75 74  1  0
 76 72  1  0
 77 73  1  0
 77 78  2  0
 78 79  1  0
 80 79  2  0
 81 80  1  0
 82 56  1  0
 82 83  1  0
 82 92  1  0
 83 86  1  0
 84 88  1  0
 84 83  1  0
 85 84  2  0
 88 87  1  0
 90 88  1  0
 90 91  1  0
 90 89  1  0
 92 95  1  1
 92 93  1  0
 94 92  1  0
M  ISO  4  11 100  19 100  54 101  55 101
M  END
>  <TORSDO>  (46) 
F 22

>  <SCORE>  (46) 
-10.918

>  <name>  (46) 
46

>  <ligand_id>  (46) 
46

>  <original_smiles>  (46) 
[H]c1c([H])c([H])c2c(c1[H])C([H])([H])C([H])([H])C([H])([H])C2([H])N([H])C(=O)C1([H])N(C(=O)C([H])(N([H])C(=O)C([H])(N([H])C([H])([H])[H])C([H])([H])[H])C(C([H])([H])[H])(C([H])([H])[H])C([H])([H])[H])C([H])([H])c2c([H])c(OC([H])([H])C(C([H])([H])[H])(C([H])([H])[H])C([H])([H])C([H])([H])n3nc(C(C([H])([H])[H])(C([H])([H])[H])C([H])([H])N([H])C(=O)N4C([H])([H])C([H])([H])C([H])([H])C([H])(n5nc(-c6c([H])c([H])c(Oc7c([H])c([H])c(F)c([H])c7F)c([H])c6[H])c(C(=O)N([H])[H])c5N([H])[H])C4([H])[H])c([H])c3C([H])([H])[H])c([H])c([H])c2C1([H])[H]

>  <smiles>  (46) 
[H]c1c([H])c([H])c2c(c1[H])C([H])([H])C([H])([H])C([H])([H])C2([H])N([H])C(=O)C1([H])N(C(=O)C([H])(N([H])C(=O)C([H])(N([H])C([H])([H])[H])C([H])([H])[H])C(C([H])([H])[H])(C([H])([H])[H])C([H])([H])[H])C([H])([H])c2c([H])c(OC([H])([H])C(C([H])([H])[H])(C([H])([H])[H])C([H])([H])C([H])([H])n3nc(C(C([H])([H])[H])(C([H])([H])[H])C([H])([H])N([H])C(=O)N4C([H])([H])C([H])([H])C([H])([H])C([H])(n5nc(-c6c([H])c([H])c(Oc7c([H])c([H])c(F)c([H])c7F)c([H])c6[H])c(C(=O)N([H])[H])c5N([H])[H])C4([H])[H])c([H])c3C([H])([H])[H])c([H])c([H])c2C1([H])[H]

$$$$
47:0:0
     RDKit          3D

 93101  0  0  1  0  0  0  0  0999 V2000
  -27.9690  -19.3990   19.9300 C   0  0  0  0  0  3  0  0  0  0  0  0
  -29.1030  -19.0000   20.6830 C   0  0  0  0  0  0  0  0  0  0  0  0
  -29.9440  -21.1610   20.4950 C   0  0  0  0  0  0  0  0  0  0  0  0
  -28.8210  -21.5550   19.7140 C   0  0  0  0  0  0  0  0  0  0  0  0
  -31.0650  -22.1140   20.8700 C   0  0  0  0  0  1  0  0  0  0  0  0
  -27.8280  -20.6660   19.4480 N   0  0  0  0  0  0  0  0  0  0  0  0
  -30.0810  -19.8950   20.9720 N   0  0  0  0  0  0  0  0  0  0  0  0
  -29.2440  -17.5900   21.3000 C   0  0  0  0  0  2  0  0  0  0  0  0
  -29.2870  -16.3360   20.3580 C   0  0  0  0  0  2  0  0  0  0  0  0
  -31.1320  -14.5090   20.0360 C   0  0  0  0  0  0  0  0  0  0  0  0
  -30.6940  -12.3220   18.9810 C   0  0  0  0  0  2  0  0  0  0  0  0
  -29.7300  -12.4500   17.7880 C   0  0  0  0  0  2  0  0  0  0  0  0
  -28.2680  -12.3460   18.2610 C   0  0  0  0  0  2  0  0  0  0  0  0
  -27.9700  -13.2400   19.4960 C   0  0  0  0  0  3  0  0  0  0  0  0
  -29.0610  -13.0710   20.5780 C   0  0  0  0  0  2  0  0  0  0  0  0
  -30.3380  -13.3970   19.9310 N   0  0  0  0  0  0  0  0  0  0  0  0
  -32.3350  -14.3790   19.8030 O   0  0  0  0  0  0  0  0  0  0  0  0
  -30.6160  -15.7930   19.9580 N   0  0  0  0  0  0  0  0  0  0  0  0
  -25.6120  -13.9180   20.2490 C   0  0  0  0  0  0  0  0  0  0  0  0
  -24.5310  -13.1780   20.6470 C   0  0  0  0  0  0  0  0  0  0  0  0
  -24.9590  -11.8160   20.6340 C   0  0  0  0  0  0  0  0  0  0  0  0
  -26.6300  -13.0050   20.0170 N   0  0  0  0  0  0  0  0  0  0  0  0
  -26.2420  -11.7370   20.3080 N   0  0  0  0  0  0  0  0  0  0  0  0
  -24.2050  -10.5750   20.8550 C   0  0  0  0  0  0  0  0  0  0  0  0
  -24.6080   -9.6310   21.8240 C   0  0  0  0  0  3  0  0  0  0  0  0
  -23.8570   -8.4540   22.0310 C   0  0  0  0  0  3  0  0  0  0  0  0
  -22.6890   -8.2150   21.2710 C   0  0  0  0  0  0  0  0  0  0  0  0
  -22.3040   -9.1490   20.2910 C   0  0  0  0  0  3  0  0  0  0  0  0
  -23.0560  -10.3160   20.0810 C   0  0  0  0  0  3  0  0  0  0  0  0
  -21.9100   -7.0900   21.3870 O   0  0  0  0  0  0  0  0  0  0  0  0
  -21.8090   -6.4060   22.5710 C   0  0  0  0  0  0  0  0  0  0  0  0
  -21.3360   -7.0220   23.7510 C   0  0  0  0  0  3  0  0  0  0  0  0
  -21.1800   -6.2640   24.9270 C   0  0  0  0  0  3  0  0  0  0  0  0
  -21.4850   -4.8890   24.9270 C   0  0  0  0  0  0  0  0  0  0  0  0
  -21.9530   -4.2730   23.7530 C   0  0  0  0  0  3  0  0  0  0  0  0
  -22.1100   -5.0290   22.5780 C   0  0  0  0  0  0  0  0  0  0  0  0
  -22.5400   -4.4250   21.4440 F   0  0  0  0  0  0  0  0  0  0  0  0
  -21.3290   -4.1600   26.0550 F   0  0  0  0  0  0  0  0  0  0  0  0
  -23.1510  -13.6970   20.9290 C   0  0  0  0  0  0  0  0  0  0  0  0
  -22.4190  -13.0380   21.8210 N   0  0  0  0  0  0  0  0  0  0  0  0
  -22.7320  -14.7230   20.3960 O   0  0  0  0  0  0  0  0  0  0  0  0
  -22.7730  -12.2110   22.2790 H   0  0  0  0  0  0  0  0  0  0  0  0
  -21.4930  -13.3680   22.0520 H   0  0  0  0  0  0  0  0  0  0  0  0
  -25.8060  -15.2800   20.0400 N   0  0  0  0  0  0  0  0  0  0  0  0
  -25.0500  -15.9490   20.1280 H   0  0  0  0  0  0  0  0  0  0  0  0
  -26.6510  -15.6830   19.6590 H   0  0  0  0  0  0  0  0  0  0  0  0
  -31.4830  -16.8650   19.4010 C   0  0  0  0  0  2  0  0  0  0  0  0
  -32.1200  -18.1400   17.2890 C   0  0  0  0  0  1  0  0  0  0  0  0
  -31.0480  -17.2990   17.9900 C   0  0  0  0  0  2  0  0  0  0  0  0
  -28.7180  -22.9350   19.0380 C   0  0  0  0  0  2  0  0  0  0  0  0
  -28.1730  -24.1230   19.8880 C   0  0  0  0  0  2  0  0  0  0  0  0
  -28.4920  -25.5000   19.2240 C   0  0  0  0  0  2  0  0  0  0  0  0
  -28.3260  -26.6840   20.0300 O   0  0  0  0  0  0  0  0  0  0  0  0
  -24.5890  -31.8380   23.2160 C   0  0  0  0  0  0  0  0  0  0  0  0
  -27.1470  -27.4070   20.0210 C   0  0  0  0  0  0  0  0  0  0  0  0
  -23.3440  -30.4630   21.5770 C   0  0  0  0  0  3  0  0  0  0  0  0
  -24.7640  -28.9390   20.1040 C   0  0  0  0  0  0  0  0  0  0  0  0
  -25.8670  -30.8130   21.3370 C   0  0  0  0  0  2  0  0  0  0  0  0
  -25.9350  -29.4470   20.6760 C   0  0  0  0  0  0  0  0  0  0  0  0
  -27.1250  -28.6850   20.6350 C   0  0  0  0  0  3  0  0  0  0  0  0
  -25.9530  -26.9160   19.4470 C   0  0  0  0  0  3  0  0  0  0  0  0
  -24.7660  -27.6740   19.4940 C   0  0  0  0  0  3  0  0  0  0  0  0
  -23.5230  -29.7980   20.1860 C   0  0  0  0  0  2  0  0  0  0  0  0
  -24.6190  -31.0510   22.1010 N   0  0  0  0  0  0  0  0  0  0  0  0
  -23.5210  -32.1060   23.7820 O   0  0  0  0  0  0  0  0  0  0  0  0
  -22.7070  -29.4330   22.5370 C   0  0  0  0  0  0  0  0  0  0  0  0
  -21.3850  -29.2350   22.4120 N   0  0  0  0  0  0  0  0  0  0  0  0
  -23.4000  -28.8140   23.3480 O   0  0  0  0  0  0  0  0  0  0  0  0
  -20.8860  -29.7850   21.7270 H   0  0  0  0  0  0  0  0  0  0  0  0
  -18.0360  -27.9630   22.8830 C   0  0  0  0  0  0  0  0  0  0  0  0
  -20.5830  -28.2840   23.1820 C   0  0  0  0  0  3  0  0  0  0  0  0
  -20.7260  -26.8520   22.6170 C   0  0  0  0  0  2  0  0  0  0  0  0
  -19.6440  -26.4960   21.5920 C   0  0  0  0  0  2  0  0  0  0  0  0
  -18.2530  -26.6130   22.2200 C   0  0  0  0  0  2  0  0  0  0  0  0
  -19.1310  -28.7550   23.3200 C   0  0  0  0  0  0  0  0  0  0  0  0
  -18.8760  -30.0170   23.9000 C   0  0  0  0  0  3  0  0  0  0  0  0
  -17.5600  -30.4910   24.0440 C   0  0  0  0  0  3  0  0  0  0  0  0
  -16.4780  -29.6960   23.6240 C   0  0  0  0  0  3  0  0  0  0  0  0
  -16.7170  -28.4330   23.0520 C   0  0  0  0  0  3  0  0  0  0  0  0
  -25.8910  -32.4530   23.8200 C   0  0  0  0  0  3  0  0  0  0  0  0
  -25.6000  -33.8500   24.1700 N   0  0  0  0  0  0  0  0  0  0  0  0
  -25.9260  -34.9050   23.4130 C   0  0  0  0  0  0  0  0  0  0  0  0
  -26.5740  -34.8050   22.3680 O   0  0  0  0  0  0  0  0  0  0  0  0
  -25.0290  -34.0030   24.9890 H   0  0  0  0  0  0  0  0  0  0  0  0
  -24.2070  -36.7110   23.0980 C   0  0  0  0  0  1  0  0  0  0  0  0
  -25.4560  -36.2920   23.8900 C   0  0  0  0  0  3  0  0  0  0  0  0
  -27.6070  -37.1550   24.7020 C   0  0  0  0  0  1  0  0  0  0  0  0
  -26.4950  -37.3380   23.7720 N   0  0  0  0  0  0  0  0  0  0  0  0
  -26.0970  -38.2590   23.9320 H   0  0  0  0  0  0  0  0  0  0  0  0
  -26.4290  -31.6640   25.0760 C   0  0  1  0  0  0  0  0  0  0  0  0
  -25.3560  -31.4220   26.1620 C   0  0  0  0  0  1  0  0  0  0  0  0
  -26.9970  -30.2860   24.6580 C   0  0  0  0  0  1  0  0  0  0  0  0
  -27.5980  -32.4420   25.7250 C   0  0  0  0  0  1  0  0  0  0  0  0
  1  2  1  0
  2  7  2  0
  2  8  1  0
  3  5  1  0
  3  7  1  0
  4  3  2  0
  6  4  1  0
  6  1  2  0
  9  8  1  0
 11 16  1  0
 12 13  1  0
 12 11  1  0
 14 13  1  0
 14 22  1  0
 14 15  1  0
 16 10  1  0
 16 15  1  0
 17 10  2  0
 18 10  1  0
 18  9  1  0
 19 20  2  0
 20 39  1  0
 21 20  1  0
 21 24  1  0
 22 19  1  0
 22 23  1  0
 23 21  2  0
 24 25  1  0
 25 26  2  0
 27 30  1  0
 27 26  1  0
 28 27  2  0
 29 28  1  0
 29 24  2  0
 30 31  1  0
 31 36  2  0
 31 32  1  0
 32 33  2  0
 34 33  1  0
 34 38  1  0
 35 34  2  0
 36 35  1  0
 37 36  1  0
 39 40  1  0
 40 43  1  0
 40 42  1  0
 41 39  2  0
 44 45  1  0
 44 19  1  0
 46 44  1  0
 47 18  1  0
 48 49  1  0
 49 47  1  0
 50  4  1  0
 50 51  1  0
 52 51  1  0
 52 53  1  0
 54 65  2  0
 55 53  1  0
 55 60  1  0
 56 64  1  0
 56 66  1  0
 57 63  1  0
 57 59  1  0
 58 64  1  0
 59 58  1  0
 60 59  2  0
 61 62  1  0
 61 55  2  0
 62 57  2  0
 63 56  1  0
 64 54  1  0
 66 68  2  0
 67 66  1  0
 69 67  1  0
 70 79  2  0
 70 75  1  0
 71 67  1  0
 71 75  1  0
 72 71  1  0
 73 74  1  0
 73 72  1  0
 74 70  1  0
 75 76  2  0
 76 77  1  0
 78 77  2  0
 79 78  1  0
 80 54  1  0
 80 81  1  0
 80 90  1  0
 81 84  1  0
 82 86  1  0
 82 81  1  0
 83 82  2  0
 86 85  1  0
 88 86  1  0
 88 89  1  0
 88 87  1  0
 90 93  1  1
 90 91  1  0
 92 90  1  0
M  ISO  4  10 100  18 100  52 101  53 101
M  END
>  <TORSDO>  (47) 
F 23

>  <SCORE>  (47) 
-12.532

>  <name>  (47) 
47

>  <ligand_id>  (47) 
47

>  <original_smiles>  (47) 
[H]c1nc(C([H])([H])C([H])([H])C([H])([H])Oc2c([H])c([H])c3c(c2[H])C([H])([H])N(C(=O)C([H])(N([H])C(=O)C([H])(N([H])C([H])([H])[H])C([H])([H])[H])C(C([H])([H])[H])(C([H])([H])[H])C([H])([H])[H])C([H])(C(=O)N([H])C2([H])c4c([H])c([H])c([H])c([H])c4C([H])([H])C([H])([H])C2([H])[H])C3([H])[H])c(C([H])([H])[H])nc1C([H])([H])C([H])([H])N(C(=O)N1C([H])([H])C([H])([H])C([H])([H])C([H])(n2nc(-c3c([H])c([H])c(Oc4c([H])c([H])c(F)c([H])c4F)c([H])c3[H])c(C(=O)N([H])[H])c2N([H])[H])C1([H])[H])C([H])([H])C([H])([H])C([H])([H])[H]

>  <smiles>  (47) 
[H]c1nc(C([H])([H])C([H])([H])C([H])([H])Oc2c([H])c([H])c3c(c2[H])C([H])([H])N(C(=O)C([H])(N([H])C(=O)C([H])(N([H])C([H])([H])[H])C([H])([H])[H])C(C([H])([H])[H])(C([H])([H])[H])C([H])([H])[H])C([H])(C(=O)N([H])C2([H])c4c([H])c([H])c([H])c([H])c4C([H])([H])C([H])([H])C2([H])[H])C3([H])[H])c(C([H])([H])[H])nc1C([H])([H])C([H])([H])N(C(=O)N1C([H])([H])C([H])([H])C([H])([H])C([H])(n2nc(-c3c([H])c([H])c(Oc4c([H])c([H])c(F)c([H])c4F)c([H])c3[H])c(C(=O)N([H])[H])c2N([H])[H])C1([H])[H])C([H])([H])C([H])([H])C([H])([H])[H]

$$$$
48:0:0
     RDKit          3D

 95102  0  0  1  0  0  0  0  0999 V2000
  -29.3570  -21.8600   20.0250 C   0  0  0  0  0  2  0  0  0  0  0  0
  -28.8580  -20.5100   20.4630 N   0  0  1  0  0  4  0  0  0  0  0  0
  -29.0330  -20.4890   21.4570 H   0  0  0  0  0  0  0  0  0  0  0  0
  -26.9060  -20.1470   18.8660 C   0  0  0  0  0  1  0  0  0  0  0  0
  -27.3790  -20.3780   20.3150 C   0  0  0  0  0  2  0  0  0  0  0  0
  -29.6310  -19.3360   19.9210 C   0  0  0  0  0  2  0  0  0  0  0  0
  -29.2540  -17.9540   20.5510 C   0  0  0  0  0  2  0  0  0  0  0  0
  -29.9250  -16.7310   19.8810 C   0  0  0  0  0  0  0  0  0  0  0  0
  -29.6390  -16.4670   18.7110 O   0  0  0  0  0  0  0  0  0  0  0  0
  -30.5010  -15.6840   22.1720 C   0  0  0  0  0  1  0  0  0  0  0  0
  -32.2460  -16.7720   20.7750 C   0  0  0  0  0  1  0  0  0  0  0  0
  -30.9600  -15.8960   20.7050 C   0  0  2  0  0  0  0  0  0  0  0  0
  -31.3300  -14.5410   19.9670 C   0  0  0  0  0  0  0  0  0  0  0  0
  -30.8510  -12.3330   18.9470 C   0  0  0  0  0  2  0  0  0  0  0  0
  -29.9070  -12.4970   17.7390 C   0  0  0  0  0  2  0  0  0  0  0  0
  -28.4360  -12.4290   18.1940 C   0  0  0  0  0  2  0  0  0  0  0  0
  -28.1500  -13.3610   19.3990 C   0  0  0  0  0  3  0  0  0  0  0  0
  -29.2170  -13.1860   20.4970 C   0  0  0  0  0  2  0  0  0  0  0  0
  -30.5470  -13.4150   19.9080 N   0  0  0  0  0  0  0  0  0  0  0  0
  -32.4050  -14.5470   19.3570 O   0  0  0  0  0  0  0  0  0  0  0  0
  -25.8210  -14.1250   20.1850 C   0  0  0  0  0  0  0  0  0  0  0  0
  -24.7230  -13.4240   20.6040 C   0  0  0  0  0  0  0  0  0  0  0  0
  -25.1020  -12.0450   20.5790 C   0  0  0  0  0  0  0  0  0  0  0  0
  -26.8010  -13.1770   19.9280 N   0  0  0  0  0  0  0  0  0  0  0  0
  -26.3750  -11.9230   20.2280 N   0  0  0  0  0  0  0  0  0  0  0  0
  -24.3080  -10.8300   20.8070 C   0  0  0  0  0  0  0  0  0  0  0  0
  -24.6830   -9.8760   21.7770 C   0  0  0  0  0  3  0  0  0  0  0  0
  -23.8930   -8.7270   21.9920 C   0  0  0  0  0  3  0  0  0  0  0  0
  -22.7140   -8.5230   21.2360 C   0  0  0  0  0  0  0  0  0  0  0  0
  -22.3610   -9.4640   20.2530 C   0  0  0  0  0  3  0  0  0  0  0  0
  -23.1510  -10.6050   20.0360 C   0  0  0  0  0  3  0  0  0  0  0  0
  -21.8980   -7.4240   21.3580 O   0  0  0  0  0  0  0  0  0  0  0  0
  -21.7640   -6.7550   22.5480 C   0  0  0  0  0  0  0  0  0  0  0  0
  -21.3340   -7.4060   23.7250 C   0  0  0  0  0  3  0  0  0  0  0  0
  -21.1440   -6.6660   24.9100 C   0  0  0  0  0  3  0  0  0  0  0  0
  -21.3760   -5.2770   24.9170 C   0  0  0  0  0  0  0  0  0  0  0  0
  -21.8020   -4.6270   23.7460 C   0  0  0  0  0  3  0  0  0  0  0  0
  -21.9920   -5.3650   22.5630 C   0  0  0  0  0  0  0  0  0  0  0  0
  -22.3820   -4.7300   21.4310 F   0  0  0  0  0  0  0  0  0  0  0  0
  -21.1880   -4.5640   26.0530 F   0  0  0  0  0  0  0  0  0  0  0  0
  -23.3640  -13.9850   20.9050 C   0  0  0  0  0  0  0  0  0  0  0  0
  -22.6240  -13.3580   21.8160 N   0  0  0  0  0  0  0  0  0  0  0  0
  -22.9660  -15.0170   20.3660 O   0  0  0  0  0  0  0  0  0  0  0  0
  -22.9550  -12.5250   22.2800 H   0  0  0  0  0  0  0  0  0  0  0  0
  -21.7120  -13.7190   22.0540 H   0  0  0  0  0  0  0  0  0  0  0  0
  -26.0620  -15.4800   19.9780 N   0  0  0  0  0  0  0  0  0  0  0  0
  -25.3370  -16.1790   20.1020 H   0  0  0  0  0  0  0  0  0  0  0  0
  -26.9040  -15.8520   19.5560 H   0  0  0  0  0  0  0  0  0  0  0  0
  -29.2300  -22.9530   21.1360 C   0  0  0  0  0  2  0  0  0  0  0  0
  -30.6660  -24.6050   19.7970 C   0  0  0  0  0  1  0  0  0  0  0  0
  -29.5020  -24.4710   20.8000 C   0  0  2  0  0  0  0  0  0  0  0  0
  -28.8710  -25.1840   23.2380 C   0  0  0  0  0  1  0  0  0  0  0  0
  -29.9290  -25.1790   22.1190 C   0  0  0  0  0  2  0  0  0  0  0  0
  -28.2460  -25.2030   20.2170 C   0  0  0  0  0  2  0  0  0  0  0  0
  -28.3760  -26.6430   20.2180 O   0  0  0  0  0  0  0  0  0  0  0  0
  -24.5460  -31.8770   23.2250 C   0  0  0  0  0  0  0  0  0  0  0  0
  -27.2070  -27.3850   20.2000 C   0  0  0  0  0  0  0  0  0  0  0  0
  -23.3540  -30.4660   21.5850 C   0  0  0  0  0  3  0  0  0  0  0  0
  -24.8170  -28.9120   20.1880 C   0  0  0  0  0  0  0  0  0  0  0  0
  -25.8860  -30.8100   21.4110 C   0  0  0  0  0  2  0  0  0  0  0  0
  -25.9750  -29.4330   20.7780 C   0  0  0  0  0  0  0  0  0  0  0  0
  -27.1750  -28.6790   20.7750 C   0  0  0  0  0  3  0  0  0  0  0  0
  -26.0280  -26.8830   19.6070 C   0  0  0  0  0  3  0  0  0  0  0  0
  -24.8390  -27.6360   19.6010 C   0  0  0  0  0  3  0  0  0  0  0  0
  -23.5780  -29.7760   20.2140 C   0  0  0  0  0  2  0  0  0  0  0  0
  -24.6140  -31.0660   22.1320 N   0  0  0  0  0  0  0  0  0  0  0  0
  -23.4600  -32.1560   23.7510 O   0  0  0  0  0  0  0  0  0  0  0  0
  -22.6890  -29.4540   22.5450 C   0  0  0  0  0  0  0  0  0  0  0  0
  -21.3650  -29.2730   22.4040 N   0  0  0  0  0  0  0  0  0  0  0  0
  -23.3620  -28.8330   23.3730 O   0  0  0  0  0  0  0  0  0  0  0  0
  -20.8830  -29.8270   21.7100 H   0  0  0  0  0  0  0  0  0  0  0  0
  -17.9820  -28.0970   22.8780 C   0  0  0  0  0  0  0  0  0  0  0  0
  -20.5370  -28.3440   23.1730 C   0  0  0  0  0  3  0  0  0  0  0  0
  -20.6400  -26.9090   22.6070 C   0  0  0  0  0  2  0  0  0  0  0  0
  -19.5450  -26.5860   21.5840 C   0  0  0  0  0  2  0  0  0  0  0  0
  -18.1580  -26.7430   22.2140 C   0  0  0  0  0  2  0  0  0  0  0  0
  -19.1000  -28.8570   23.3150 C   0  0  0  0  0  0  0  0  0  0  0  0
  -18.8830  -30.1260   23.8940 C   0  0  0  0  0  3  0  0  0  0  0  0
  -17.5800  -30.6350   24.0430 C   0  0  0  0  0  3  0  0  0  0  0  0
  -16.4760  -29.8740   23.6220 C   0  0  0  0  0  3  0  0  0  0  0  0
  -16.6780  -28.6050   23.0470 C   0  0  0  0  0  3  0  0  0  0  0  0
  -25.8280  -32.5100   23.8540 C   0  0  0  0  0  3  0  0  0  0  0  0
  -26.3260  -31.7520   25.1460 C   0  0  1  0  0  0  0  0  0  0  0  0
  -25.2200  -31.5260   26.2010 C   0  0  0  0  0  1  0  0  0  0  0  0
  -26.9130  -30.3700   24.7750 C   0  0  0  0  0  1  0  0  0  0  0  0
  -27.4700  -32.5510   25.8140 C   0  0  0  0  0  1  0  0  0  0  0  0
  -25.5230  -33.9140   24.1620 N   0  0  0  0  0  0  0  0  0  0  0  0
  -25.8750  -34.9540   23.3940 C   0  0  0  0  0  0  0  0  0  0  0  0
  -26.5620  -34.8320   22.3760 O   0  0  0  0  0  0  0  0  0  0  0  0
  -24.9140  -34.0810   24.9490 H   0  0  0  0  0  0  0  0  0  0  0  0
  -24.1620  -36.7500   22.9860 C   0  0  0  0  0  1  0  0  0  0  0  0
  -25.3850  -36.3500   23.8250 C   0  0  0  0  0  3  0  0  0  0  0  0
  -27.5150  -37.2290   24.6760 C   0  0  0  0  0  1  0  0  0  0  0  0
  -26.4240  -37.3990   23.7190 N   0  0  0  0  0  0  0  0  0  0  0  0
  -26.0190  -38.3200   23.8660 H   0  0  0  0  0  0  0  0  0  0  0  0
  1  2  1  0
  1 49  1  0
  2  3  1  1
  4  5  1  0
  5  2  1  0
  6  2  1  0
  6  7  1  0
  8  7  1  0
  8 12  1  0
  9  8  2  0
 12 11  1  1
 12 10  1  0
 13 12  1  0
 14 19  1  0
 15 16  1  0
 15 14  1  0
 17 16  1  0
 17 24  1  0
 17 18  1  0
 19 13  1  0
 19 18  1  0
 20 13  2  0
 21 22  2  0
 22 41  1  0
 23 22  1  0
 23 26  1  0
 24 21  1  0
 24 25  1  0
 25 23  2  0
 26 27  1  0
 27 28  2  0
 29 32  1  0
 29 28  1  0
 30 29  2  0
 31 30  1  0
 31 26  2  0
 32 33  1  0
 33 38  2  0
 33 34  1  0
 34 35  2  0
 35 36  1  0
 36 40  1  0
 37 36  2  0
 38 37  1  0
 39 38  1  0
 41 42  1  0
 42 45  1  0
 42 44  1  0
 43 41  2  0
 46 47  1  0
 46 21  1  0
 48 46  1  0
 51 50  1  6
 51 49  1  0
 51 53  1  0
 53 52  1  0
 54 55  1  0
 54 51  1  0
 56 67  2  0
 57 55  1  0
 57 62  1  0
 58 66  1  0
 58 68  1  0
 59 65  1  0
 59 61  1  0
 60 66  1  0
 61 60  1  0
 62 61  2  0
 63 57  2  0
 64 63  1  0
 64 59  2  0
 65 58  1  0
 66 56  1  0
 68 70  2  0
 69 68  1  0
 71 69  1  0
 72 81  2  0
 72 77  1  0
 73 69  1  0
 73 77  1  0
 74 73  1  0
 75 76  1  0
 75 74  1  0
 76 72  1  0
 77 78  2  0
 78 79  1  0
 80 79  2  0
 81 80  1  0
 82 56  1  0
 82 87  1  0
 82 83  1  0
 83 86  1  1
 83 84  1  0
 85 83  1  0
 87 90  1  0
 88 92  1  0
 88 87  1  0
 89 88  2  0
 92 91  1  0
 94 92  1  0
 94 95  1  0
 94 93  1  0
M  ISO  4  12 100  13 100  54 101  55 101
M  END
>  <TORSDO>  (48) 
F 26

>  <SCORE>  (48) 
-10.795

>  <name>  (48) 
48

>  <ligand_id>  (48) 
48

>  <original_smiles>  (48) 
[H]c1c([H])c([H])c2c(c1[H])C([H])([H])C([H])([H])C([H])([H])C2([H])N([H])C(=O)C1([H])N(C(=O)C([H])(N([H])C(=O)C([H])(N([H])C([H])([H])[H])C([H])([H])[H])C(C([H])([H])[H])(C([H])([H])[H])C([H])([H])[H])C([H])([H])c2c([H])c(OC([H])([H])C(C([H])([H])[H])(C([H])([H])C([H])([H])[H])C([H])([H])C([H])([H])[N+]([H])(C([H])([H])C([H])([H])[H])C([H])([H])C([H])([H])C(=O)C(C(=O)N3C([H])([H])C([H])([H])C([H])([H])C([H])(n4nc(-c5c([H])c([H])c(Oc6c([H])c([H])c(F)c([H])c6F)c([H])c5[H])c(C(=O)N([H])[H])c4N([H])[H])C3([H])[H])(C([H])([H])[H])C([H])([H])[H])c([H])c([H])c2C1([H])[H]

>  <smiles>  (48) 
[H]c1c([H])c([H])c2c(c1[H])C([H])([H])C([H])([H])C([H])([H])C2([H])N([H])C(=O)C1([H])N(C(=O)C([H])(N([H])C(=O)C([H])(N([H])C([H])([H])[H])C([H])([H])[H])C(C([H])([H])[H])(C([H])([H])[H])C([H])([H])[H])C([H])([H])c2c([H])c(OC([H])([H])C(C([H])([H])[H])(C([H])([H])C([H])([H])[H])C([H])([H])C([H])([H])[N+]([H])(C([H])([H])C([H])([H])[H])C([H])([H])C([H])([H])C(=O)C(C(=O)N3C([H])([H])C([H])([H])C([H])([H])C([H])(n4nc(-c5c([H])c([H])c(Oc6c([H])c([H])c(F)c([H])c6F)c([H])c5[H])c(C(=O)N([H])[H])c4N([H])[H])C3([H])[H])(C([H])([H])[H])C([H])([H])[H])c([H])c([H])c2C1([H])[H]

$$$$
49:0:0
     RDKit          3D

 92 99  0  0  1  0  0  0  0  0999 V2000
  -27.2270  -22.4020   21.8290 C   0  0  0  0  0  1  0  0  0  0  0  0
  -29.6890  -22.5680   22.4150 C   0  0  0  0  0  1  0  0  0  0  0  0
  -28.6580  -22.5480   21.2640 C   0  0  1  0  0  0  0  0  0  0  0  0
  -28.9660  -21.2220   20.4100 C   0  0  0  0  0  3  0  0  0  0  0  0
  -29.1320  -19.7980   21.1530 C   0  0  0  0  0  3  0  0  0  0  0  0
  -27.8760  -18.4110   19.5340 C   0  0  0  0  0  1  0  0  0  0  0  0
  -29.1470  -18.5390   20.2930 N   0  0  2  0  0  4  0  0  0  0  0  0
  -29.8760  -18.6990   19.6140 H   0  0  0  0  0  0  0  0  0  0  0  0
  -29.5330  -17.2070   20.9620 C   0  0  0  0  0  2  0  0  0  0  0  0
  -30.1500  -16.1410   18.6470 C   0  0  0  0  0  1  0  0  0  0  0  0
  -31.8410  -17.1820   20.0640 C   0  0  0  0  0  1  0  0  0  0  0  0
  -30.5570  -16.2920   20.1360 C   0  0  1  0  0  0  0  0  0  0  0  0
  -31.0150  -14.8290   20.6830 C   0  0  0  0  0  0  0  0  0  0  0  0
  -30.7420  -12.5380   19.7930 C   0  0  0  0  0  2  0  0  0  0  0  0
  -29.8930  -12.5400   18.5070 C   0  0  0  0  0  2  0  0  0  0  0  0
  -28.3940  -12.4400   18.8440 C   0  0  0  0  0  2  0  0  0  0  0  0
  -27.9470  -13.3800   19.9970 C   0  0  0  0  0  3  0  0  0  0  0  0
  -28.9450  -13.3970   21.1720 C   0  0  0  0  0  2  0  0  0  0  0  0
  -30.2780  -13.6690   20.6240 N   0  0  0  0  0  0  0  0  0  0  0  0
  -32.2330  -14.6980   20.7740 O   0  0  0  0  0  0  0  0  0  0  0  0
  -25.5270  -13.9940   20.5540 C   0  0  0  0  0  0  0  0  0  0  0  0
  -24.4350  -13.2330   20.8670 C   0  0  0  0  0  0  0  0  0  0  0  0
  -24.8970  -11.8810   20.9110 C   0  0  0  0  0  0  0  0  0  0  0  0
  -26.5810  -13.1070   20.4200 N   0  0  0  0  0  0  0  0  0  0  0  0
  -26.2070  -11.8340   20.7050 N   0  0  0  0  0  0  0  0  0  0  0  0
  -24.1580  -10.6250   21.0810 C   0  0  0  0  0  0  0  0  0  0  0  0
  -24.5330   -9.6760   22.0560 C   0  0  0  0  0  3  0  0  0  0  0  0
  -23.7950   -8.4830   22.2130 C   0  0  0  0  0  3  0  0  0  0  0  0
  -22.6680   -8.2320   21.3950 C   0  0  0  0  0  0  0  0  0  0  0  0
  -22.3130   -9.1710   20.4100 C   0  0  0  0  0  3  0  0  0  0  0  0
  -23.0510  -10.3550   20.2500 C   0  0  0  0  0  3  0  0  0  0  0  0
  -21.9050   -7.0910   21.4610 O   0  0  0  0  0  0  0  0  0  0  0  0
  -21.7960   -6.3660   22.6200 C   0  0  0  0  0  0  0  0  0  0  0  0
  -21.3280   -6.9430   23.8200 C   0  0  0  0  0  3  0  0  0  0  0  0
  -21.1670   -6.1430   24.9690 C   0  0  0  0  0  3  0  0  0  0  0  0
  -21.4630   -4.7680   24.9180 C   0  0  0  0  0  0  0  0  0  0  0  0
  -21.9250   -4.1900   23.7230 C   0  0  0  0  0  3  0  0  0  0  0  0
  -22.0890   -4.9880   22.5760 C   0  0  0  0  0  0  0  0  0  0  0  0
  -22.5140   -4.4230   21.4200 F   0  0  0  0  0  0  0  0  0  0  0  0
  -21.3010   -3.9970   26.0200 F   0  0  0  0  0  0  0  0  0  0  0  0
  -23.0230  -13.7180   21.0120 C   0  0  0  0  0  0  0  0  0  0  0  0
  -22.2300  -13.0510   21.8440 N   0  0  0  0  0  0  0  0  0  0  0  0
  -22.6280  -14.7240   20.4240 O   0  0  0  0  0  0  0  0  0  0  0  0
  -22.5620  -12.2380   22.3420 H   0  0  0  0  0  0  0  0  0  0  0  0
  -21.2780  -13.3590   21.9850 H   0  0  0  0  0  0  0  0  0  0  0  0
  -25.7060  -15.3590   20.3430 N   0  0  0  0  0  0  0  0  0  0  0  0
  -24.9270  -16.0080   20.3510 H   0  0  0  0  0  0  0  0  0  0  0  0
  -26.5610  -15.7620   19.9930 H   0  0  0  0  0  0  0  0  0  0  0  0
  -28.7530  -23.9390   20.4400 C   0  0  0  0  0  2  0  0  0  0  0  0
  -28.5960  -25.7360   22.3800 C   0  0  0  0  0  1  0  0  0  0  0  0
  -28.1030  -25.3090   20.9870 C   0  0  0  0  0  3  0  0  0  0  0  0
  -28.2800  -26.5360   20.1820 O   0  0  0  0  0  0  0  0  0  0  0  0
  -24.5760  -31.9230   23.2160 C   0  0  0  0  0  0  0  0  0  0  0  0
  -27.1820  -27.3990   20.1490 C   0  0  0  0  0  0  0  0  0  0  0  0
  -23.3650  -30.5130   21.5890 C   0  0  0  0  0  3  0  0  0  0  0  0
  -24.8120  -28.9760   20.1490 C   0  0  0  0  0  0  0  0  0  0  0  0
  -25.8970  -30.8590   21.3780 C   0  0  0  0  0  2  0  0  0  0  0  0
  -25.9820  -29.4820   20.7330 C   0  0  0  0  0  0  0  0  0  0  0  0
  -27.1760  -28.7040   20.7220 C   0  0  0  0  0  3  0  0  0  0  0  0
  -26.0000  -26.9410   19.5350 C   0  0  0  0  0  3  0  0  0  0  0  0
  -24.8210  -27.7100   19.5390 C   0  0  0  0  0  3  0  0  0  0  0  0
  -23.5690  -29.8380   20.2080 C   0  0  0  0  0  2  0  0  0  0  0  0
  -24.6320  -31.1150   22.1180 N   0  0  0  0  0  0  0  0  0  0  0  0
  -23.4960  -32.1930   23.7620 O   0  0  0  0  0  0  0  0  0  0  0  0
  -22.7220  -29.4920   22.5570 C   0  0  0  0  0  0  0  0  0  0  0  0
  -21.3970  -29.3040   22.4430 N   0  0  0  0  0  0  0  0  0  0  0  0
  -23.4140  -28.8710   23.3690 O   0  0  0  0  0  0  0  0  0  0  0  0
  -20.8970  -29.8580   21.7610 H   0  0  0  0  0  0  0  0  0  0  0  0
  -18.0350  -28.0810   22.9670 C   0  0  0  0  0  0  0  0  0  0  0  0
  -20.5910  -28.3640   23.2240 C   0  0  0  0  0  3  0  0  0  0  0  0
  -20.7030  -26.9300   22.6540 C   0  0  0  0  0  2  0  0  0  0  0  0
  -19.5990  -26.5920   21.6480 C   0  0  0  0  0  2  0  0  0  0  0  0
  -18.2190  -26.7300   22.2970 C   0  0  0  0  0  2  0  0  0  0  0  0
  -19.1490  -28.8550   23.3880 C   0  0  0  0  0  0  0  0  0  0  0  0
  -18.9220  -30.1190   23.9740 C   0  0  0  0  0  3  0  0  0  0  0  0
  -17.6140  -30.6110   24.1440 C   0  0  0  0  0  3  0  0  0  0  0  0
  -16.5140  -29.8340   23.7390 C   0  0  0  0  0  3  0  0  0  0  0  0
  -16.7250  -28.5720   23.1570 C   0  0  0  0  0  3  0  0  0  0  0  0
  -25.8610  -32.5660   23.8230 C   0  0  0  0  0  3  0  0  0  0  0  0
  -25.5430  -33.9580   24.1660 N   0  0  0  0  0  0  0  0  0  0  0  0
  -25.8610  -35.0200   23.4120 C   0  0  0  0  0  0  0  0  0  0  0  0
  -26.5250  -34.9300   22.3750 O   0  0  0  0  0  0  0  0  0  0  0  0
  -24.9530  -34.1020   24.9730 H   0  0  0  0  0  0  0  0  0  0  0  0
  -24.1190  -36.8030   23.0780 C   0  0  0  0  0  1  0  0  0  0  0  0
  -25.3660  -36.4010   23.8830 C   0  0  0  0  0  3  0  0  0  0  0  0
  -27.4970  -37.2910   24.7140 C   0  0  0  0  0  1  0  0  0  0  0  0
  -26.3910  -37.4620   23.7760 N   0  0  0  0  0  0  0  0  0  0  0  0
  -25.9790  -38.3770   23.9350 H   0  0  0  0  0  0  0  0  0  0  0  0
  -26.4030  -31.7920   25.0880 C   0  0  1  0  0  0  0  0  0  0  0  0
  -25.3270  -31.5400   26.1700 C   0  0  0  0  0  1  0  0  0  0  0  0
  -26.9920  -30.4210   24.6810 C   0  0  0  0  0  1  0  0  0  0  0  0
  -27.5560  -32.5930   25.7390 C   0  0  0  0  0  1  0  0  0  0  0  0
  3  1  1  1
  3  2  1  0
  4  5  2  0
  4  3  1  0
  6  7  1  0
  7  9  1  0
  7  5  1  0
  7  8  1  6
 12 10  1  6
 11 12  1  0
 12 13  1  0
 12  9  1  0
 13 20  2  0
 14 19  1  0
 15 16  1  0
 15 14  1  0
 17 16  1  0
 17 24  1  0
 17 18  1  0
 19 13  1  0
 19 18  1  0
 21 22  2  0
 22 23  1  0
 22 41  1  0
 23 26  1  0
 24 21  1  0
 24 25  1  0
 25 23  2  0
 26 27  1  0
 27 28  2  0
 29 32  1  0
 29 28  1  0
 30 29  2  0
 31 30  1  0
 31 26  2  0
 32 33  1  0
 33 34  1  0
 34 35  2  0
 36 35  1  0
 36 40  1  0
 37 36  2  0
 38 33  2  0
 38 37  1  0
 39 38  1  0
 41 42  1  0
 42 45  1  0
 42 44  1  0
 43 41  2  0
 46 47  1  0
 46 21  1  0
 48 46  1  0
 49 51  1  0
 49  3  1  0
 51 50  1  0
 52 51  1  0
 53 64  2  0
 54 52  1  0
 54 59  1  0
 55 63  1  0
 55 65  1  0
 56 62  1  0
 56 58  1  0
 57 63  1  0
 58 57  1  0
 59 58  2  0
 60 61  1  0
 60 54  2  0
 61 56  2  0
 62 55  1  0
 63 53  1  0
 65 67  2  0
 66 65  1  0
 68 66  1  0
 69 78  2  0
 69 74  1  0
 70 66  1  0
 70 74  1  0
 71 70  1  0
 72 73  1  0
 72 71  1  0
 73 69  1  0
 74 75  2  0
 75 76  1  0
 77 76  2  0
 78 77  1  0
 79 53  1  0
 79 80  1  0
 79 89  1  0
 80 83  1  0
 81 85  1  0
 81 80  1  0
 82 81  2  0
 85 84  1  0
 87 85  1  0
 87 88  1  0
 87 86  1  0
 89 92  1  1
 89 90  1  0
 91 89  1  0
M  ISO  4  12 100  13 100  51 101  52 101
M  END
>  <TORSDO>  (49) 
F 23

>  <SCORE>  (49) 
-12.318

>  <name>  (49) 
49

>  <ligand_id>  (49) 
49

>  <original_smiles>  (49) 
[H]c1c([H])c([H])c2c(c1[H])C([H])([H])C([H])([H])C([H])([H])C2([H])N([H])C(=O)C1([H])N(C(=O)C([H])(N([H])C(=O)C([H])(N([H])C([H])([H])[H])C([H])([H])[H])C(C([H])([H])[H])(C([H])([H])[H])C([H])([H])[H])C([H])([H])c2c([H])c(OC([H])(C([H])([H])[H])C([H])([H])C(C([H])([H])[H])(C([H])([H])[H])C([H])([H])C([H])([H])[N+]([H])(C([H])([H])[H])C([H])([H])C(C(=O)N3C([H])([H])C([H])([H])C([H])([H])C([H])(n4nc(-c5c([H])c([H])c(Oc6c([H])c([H])c(F)c([H])c6F)c([H])c5[H])c(C(=O)N([H])[H])c4N([H])[H])C3([H])[H])(C([H])([H])[H])C([H])([H])[H])c([H])c([H])c2C1([H])[H]

>  <smiles>  (49) 
[H]c1c([H])c([H])c2c(c1[H])C([H])([H])C([H])([H])C([H])([H])C2([H])N([H])C(=O)C1([H])N(C(=O)C([H])(N([H])C(=O)C([H])(N([H])C([H])([H])[H])C([H])([H])[H])C(C([H])([H])[H])(C([H])([H])[H])C([H])([H])[H])C([H])([H])c2c([H])c(OC([H])(C([H])([H])[H])C([H])([H])C(C([H])([H])[H])(C([H])([H])[H])C([H])([H])C([H])([H])[N+]([H])(C([H])([H])[H])C([H])([H])C(C(=O)N3C([H])([H])C([H])([H])C([H])([H])C([H])(n4nc(-c5c([H])c([H])c(Oc6c([H])c([H])c(F)c([H])c6F)c([H])c5[H])c(C(=O)N([H])[H])c4N([H])[H])C3([H])[H])(C([H])([H])[H])C([H])([H])[H])c([H])c([H])c2C1([H])[H]

$$$$
50:0:0
     RDKit          3D

101109  0  0  1  0  0  0  0  0999 V2000
  -30.9490  -20.5260   22.1500 C   0  0  0  0  0  3  0  0  0  0  0  0
  -30.4200  -21.7360   21.6710 C   0  0  0  0  0  0  0  0  0  0  0  0
  -29.1220  -21.6410   21.1270 C   0  0  0  0  0  0  0  0  0  0  0  0
  -29.3310  -19.3710   21.0220 C   0  0  0  0  0  0  0  0  0  0  0  0
  -28.2050  -22.8060   20.8480 C   0  0  0  0  0  1  0  0  0  0  0  0
  -30.3750  -19.3510   21.8460 N   0  0  0  0  0  0  0  0  0  0  0  0
  -28.6190  -20.4580   20.7650 N   0  0  0  0  0  0  0  0  0  0  0  0
  -27.9440  -18.4270   19.1130 C   0  0  0  0  0  1  0  0  0  0  0  0
  -28.4430  -17.0290   21.0780 C   0  0  0  0  0  1  0  0  0  0  0  0
  -29.0640  -18.1070   20.1630 C   0  0  2  0  0  0  0  0  0  0  0  0
  -30.0850  -16.7690   18.1470 C   0  0  0  0  0  1  0  0  0  0  0  0
  -31.0810  -18.9250   18.7330 C   0  0  0  0  0  1  0  0  0  0  0  0
  -30.3920  -17.6710   19.3640 C   0  0  1  0  0  0  0  0  0  0  0  0
  -31.4990  -16.9650   20.2370 C   0  0  0  0  0  2  0  0  0  0  0  0
  -31.6900  -14.5280   20.2430 C   0  0  0  0  0  0  0  0  0  0  0  0
  -31.2360  -12.3160   19.2710 C   0  0  0  0  0  2  0  0  0  0  0  0
  -30.3450  -12.4590   18.0250 C   0  0  0  0  0  2  0  0  0  0  0  0
  -28.8610  -12.3950   18.4340 C   0  0  0  0  0  2  0  0  0  0  0  0
  -28.5160  -13.3690   19.5840 C   0  0  0  0  0  3  0  0  0  0  0  0
  -29.5330  -13.2670   20.7410 C   0  0  0  0  0  2  0  0  0  0  0  0
  -30.8980  -13.4160   20.1940 N   0  0  0  0  0  0  0  0  0  0  0  0
  -32.7740  -14.5780   19.6620 O   0  0  0  0  0  0  0  0  0  0  0  0
  -31.2550  -15.5910   22.3240 C   0  0  0  0  0  1  0  0  0  0  0  0
  -31.1930  -15.6340   20.8480 N   0  0  0  0  0  0  0  0  0  0  0  0
  -26.1800  -14.1900   20.3120 C   0  0  0  0  0  0  0  0  0  0  0  0
  -25.0440  -13.5130   20.6640 C   0  0  0  0  0  0  0  0  0  0  0  0
  -25.3850  -12.1330   20.6200 C   0  0  0  0  0  0  0  0  0  0  0  0
  -27.1420  -13.2240   20.0630 N   0  0  0  0  0  0  0  0  0  0  0  0
  -26.6670  -11.9810   20.3110 N   0  0  0  0  0  0  0  0  0  0  0  0
  -24.5520  -10.9390   20.7880 C   0  0  0  0  0  0  0  0  0  0  0  0
  -24.8950   -9.9330   21.7150 C   0  0  0  0  0  3  0  0  0  0  0  0
  -24.0770   -8.7930   21.8650 C   0  0  0  0  0  3  0  0  0  0  0  0
  -22.8990   -8.6580   21.0940 C   0  0  0  0  0  0  0  0  0  0  0  0
  -22.5750   -9.6520   20.1560 C   0  0  0  0  0  3  0  0  0  0  0  0
  -23.3930  -10.7850   20.0020 C   0  0  0  0  0  3  0  0  0  0  0  0
  -22.0480   -7.5800   21.1660 O   0  0  0  0  0  0  0  0  0  0  0  0
  -21.8980   -6.8600   22.3220 C   0  0  0  0  0  0  0  0  0  0  0  0
  -21.4960   -7.4630   23.5360 C   0  0  0  0  0  3  0  0  0  0  0  0
  -21.2860   -6.6710   24.6810 C   0  0  0  0  0  3  0  0  0  0  0  0
  -21.4670   -5.2730   24.6150 C   0  0  0  0  0  0  0  0  0  0  0  0
  -21.8570   -4.6710   23.4050 C   0  0  0  0  0  3  0  0  0  0  0  0
  -22.0700   -5.4610   22.2640 C   0  0  0  0  0  0  0  0  0  0  0  0
  -22.4240   -4.8720   21.0960 F   0  0  0  0  0  0  0  0  0  0  0  0
  -21.2630   -4.5070   25.7120 F   0  0  0  0  0  0  0  0  0  0  0  0
  -23.6950  -14.1150   20.9340 C   0  0  0  0  0  0  0  0  0  0  0  0
  -22.9080  -13.5000   21.8060 N   0  0  0  0  0  0  0  0  0  0  0  0
  -23.3400  -15.1640   20.4070 O   0  0  0  0  0  0  0  0  0  0  0  0
  -23.1810  -12.6360   22.2430 H   0  0  0  0  0  0  0  0  0  0  0  0
  -22.0040  -13.8970   22.0150 H   0  0  0  0  0  0  0  0  0  0  0  0
  -26.4600  -15.5350   20.1650 N   0  0  0  0  0  0  0  0  0  0  0  0
  -25.7360  -16.2440   20.1950 H   0  0  0  0  0  0  0  0  0  0  0  0
  -27.3630  -15.8870   19.8900 H   0  0  0  0  0  0  0  0  0  0  0  0
  -31.2390  -23.0240   21.7000 C   0  0  0  0  0  2  0  0  0  0  0  0
  -33.4160  -22.6050   20.5830 C   0  0  0  0  0  1  0  0  0  0  0  0
  -32.0440  -23.1550   20.4440 N   0  0  2  0  0  4  0  0  0  0  0  0
  -31.6070  -22.5680   19.7510 H   0  0  0  0  0  0  0  0  0  0  0  0
  -32.0040  -24.5100   19.8230 C   0  0  0  0  0  2  0  0  0  0  0  0
  -31.0330  -24.5650   18.6110 C   0  0  0  0  0  2  0  0  0  0  0  0
  -30.1970  -25.8620   18.5610 C   0  0  0  0  0  2  0  0  0  0  0  0
  -29.0480  -25.8460   19.5790 C   0  0  0  0  0  2  0  0  0  0  0  0
  -28.8020  -27.1300   20.1240 O   0  0  0  0  0  0  0  0  0  0  0  0
  -24.6760  -31.9500   23.2850 C   0  0  0  0  0  0  0  0  0  0  0  0
  -27.5420  -27.6850   20.1520 C   0  0  0  0  0  0  0  0  0  0  0  0
  -23.5510  -30.5410   21.5910 C   0  0  0  0  0  3  0  0  0  0  0  0
  -25.0810  -29.0710   20.1790 C   0  0  0  0  0  0  0  0  0  0  0  0
  -26.0670  -30.9790   21.4690 C   0  0  0  0  0  2  0  0  0  0  0  0
  -26.2040  -29.6290   20.8000 C   0  0  0  0  0  0  0  0  0  0  0  0
  -27.4280  -28.9360   20.7910 C   0  0  0  0  0  3  0  0  0  0  0  0
  -26.3910  -27.1200   19.5500 C   0  0  0  0  0  3  0  0  0  0  0  0
  -25.1650  -27.8100   19.5640 C   0  0  0  0  0  3  0  0  0  0  0  0
  -23.8090  -29.8790   20.2120 C   0  0  0  0  0  2  0  0  0  0  0  0
  -24.7800  -31.1740   22.1700 N   0  0  0  0  0  0  0  0  0  0  0  0
  -23.5750  -32.1810   23.8010 O   0  0  0  0  0  0  0  0  0  0  0  0
  -22.9130  -29.4830   22.5180 C   0  0  0  0  0  0  0  0  0  0  0  0
  -21.5920  -29.2910   22.3790 N   0  0  0  0  0  0  0  0  0  0  0  0
  -23.6020  -28.8390   23.3130 O   0  0  0  0  0  0  0  0  0  0  0  0
  -21.0960  -29.8690   21.7140 H   0  0  0  0  0  0  0  0  0  0  0  0
  -18.2210  -28.0730   22.8410 C   0  0  0  0  0  0  0  0  0  0  0  0
  -20.7790  -28.3190   23.1110 C   0  0  0  0  0  3  0  0  0  0  0  0
  -20.8760  -26.9140   22.4730 C   0  0  0  0  0  2  0  0  0  0  0  0
  -19.7700  -26.6330   21.4520 C   0  0  0  0  0  2  0  0  0  0  0  0
  -18.3930  -26.7520   22.1100 C   0  0  0  0  0  2  0  0  0  0  0  0
  -19.3410  -28.8170   23.2940 C   0  0  0  0  0  0  0  0  0  0  0  0
  -19.1280  -30.0570   23.9340 C   0  0  0  0  0  3  0  0  0  0  0  0
  -17.8250  -30.5540   24.1240 C   0  0  0  0  0  3  0  0  0  0  0  0
  -16.7180  -29.8040   23.6920 C   0  0  0  0  0  3  0  0  0  0  0  0
  -16.9160  -28.5640   23.0570 C   0  0  0  0  0  3  0  0  0  0  0  0
  -25.9280  -32.6060   23.9490 C   0  0  0  0  0  3  0  0  0  0  0  0
  -26.4060  -31.8600   25.2550 C   0  0  1  0  0  0  0  0  0  0  0  0
  -25.2740  -31.6140   26.2800 C   0  0  0  0  0  1  0  0  0  0  0  0
  -27.0310  -30.4900   24.9050 C   0  0  0  0  0  1  0  0  0  0  0  0
  -27.5120  -32.6860   25.9550 C   0  0  0  0  0  1  0  0  0  0  0  0
  -25.5870  -34.0030   24.2430 N   0  0  0  0  0  0  0  0  0  0  0  0
  -25.9400  -35.0510   23.4850 C   0  0  0  0  0  0  0  0  0  0  0  0
  -26.6610  -34.9410   22.4880 O   0  0  0  0  0  0  0  0  0  0  0  0
  -24.9510  -34.1600   25.0110 H   0  0  0  0  0  0  0  0  0  0  0  0
  -24.2020  -36.8090   23.0340 C   0  0  0  0  0  1  0  0  0  0  0  0
  -25.4140  -36.4360   23.9020 C   0  0  0  0  0  3  0  0  0  0  0  0
  -27.5020  -37.3600   24.8020 C   0  0  0  0  0  1  0  0  0  0  0  0
  -26.4330  -37.5050   23.8180 N   0  0  0  0  0  0  0  0  0  0  0  0
  -26.0080  -38.4190   23.9450 H   0  0  0  0  0  0  0  0  0  0  0  0
  2 53  1  0
  2  1  2  0
  3  2  1  0
  4  6  2  0
  5  3  1  0
  6  1  1  0
  7  4  1  0
  7  3  2  0
 10  8  1  6
 10  4  1  0
 10  9  1  0
 13 11  1  6
 12 13  1  0
 13 10  1  0
 13 14  1  0
 14 24  1  0
 15 24  1  0
 16 21  1  0
 17 18  1  0
 17 16  1  0
 19 18  1  0
 19 28  1  0
 19 20  1  0
 21 15  1  0
 21 20  1  0
 22 15  2  0
 24 23  1  0
 25 26  2  0
 26 45  1  0
 27 26  1  0
 27 30  1  0
 28 29  1  0
 28 25  1  0
 29 27  2  0
 30 31  1  0
 31 32  2  0
 33 36  1  0
 33 32  1  0
 34 33  2  0
 35 34  1  0
 35 30  2  0
 36 37  1  0
 37 38  1  0
 38 39  2  0
 40 39  1  0
 40 44  1  0
 41 40  2  0
 42 37  2  0
 42 41  1  0
 43 42  1  0
 45 46  1  0
 46 49  1  0
 46 48  1  0
 47 45  2  0
 50 51  1  0
 50 25  1  0
 52 50  1  0
 55 54  1  0
 55 53  1  0
 55 56  1  6
 57 55  1  0
 58 57  1  0
 59 58  1  0
 59 60  1  0
 60 61  1  0
 61 63  1  0
 62 73  2  0
 63 68  1  0
 64 72  1  0
 64 74  1  0
 65 71  1  0
 65 67  1  0
 66 72  1  0
 67 66  1  0
 68 67  2  0
 69 70  1  0
 69 63  2  0
 70 65  2  0
 71 64  1  0
 72 62  1  0
 74 76  2  0
 75 74  1  0
 77 75  1  0
 78 87  2  0
 78 83  1  0
 79 75  1  0
 79 83  1  0
 80 79  1  0
 81 82  1  0
 81 80  1  0
 82 78  1  0
 83 84  2  0
 84 85  1  0
 86 85  2  0
 87 86  1  0
 88 62  1  0
 88 93  1  0
 88 89  1  0
 89 92  1  1
 89 90  1  0
 91 89  1  0
 93 96  1  0
 94 98  1  0
 94 93  1  0
 95 94  2  0
 98 97  1  0
100 98  1  0
100101  1  0
100 99  1  0
M  ISO  4  15 100  24 100  60 101  61 101
M  END
>  <TORSDO>  (50) 
F 25

>  <SCORE>  (50) 
-10.545

>  <name>  (50) 
50

>  <ligand_id>  (50) 
50

>  <original_smiles>  (50) 
[H]c1nc(C(C([H])([H])[H])(C([H])([H])[H])C(C([H])([H])[H])(C([H])([H])[H])C([H])([H])N(C(=O)N2C([H])([H])C([H])([H])C([H])([H])C([H])(n3nc(-c4c([H])c([H])c(Oc5c([H])c([H])c(F)c([H])c5F)c([H])c4[H])c(C(=O)N([H])[H])c3N([H])[H])C2([H])[H])C([H])([H])[H])nc(C([H])([H])[H])c1C([H])([H])[N+]([H])(C([H])([H])[H])C([H])([H])C([H])([H])C([H])([H])C([H])([H])Oc1c([H])c([H])c2c(c1[H])C([H])([H])N(C(=O)C([H])(N([H])C(=O)C([H])(N([H])C([H])([H])[H])C([H])([H])[H])C(C([H])([H])[H])(C([H])([H])[H])C([H])([H])[H])C([H])(C(=O)N([H])C1([H])c3c([H])c([H])c([H])c([H])c3C([H])([H])C([H])([H])C1([H])[H])C2([H])[H]

>  <smiles>  (50) 
[H]c1nc(C(C([H])([H])[H])(C([H])([H])[H])C(C([H])([H])[H])(C([H])([H])[H])C([H])([H])N(C(=O)N2C([H])([H])C([H])([H])C([H])([H])C([H])(n3nc(-c4c([H])c([H])c(Oc5c([H])c([H])c(F)c([H])c5F)c([H])c4[H])c(C(=O)N([H])[H])c3N([H])[H])C2([H])[H])C([H])([H])[H])nc(C([H])([H])[H])c1C([H])([H])[N+]([H])(C([H])([H])[H])C([H])([H])C([H])([H])C([H])([H])C([H])([H])Oc1c([H])c([H])c2c(c1[H])C([H])([H])N(C(=O)C([H])(N([H])C(=O)C([H])(N([H])C([H])([H])[H])C([H])([H])[H])C(C([H])([H])[H])(C([H])([H])[H])C([H])([H])[H])C([H])(C(=O)N([H])C1([H])c3c([H])c([H])c([H])c([H])c3C([H])([H])C([H])([H])C1([H])[H])C2([H])[H]

$$$$
51:0:0
     RDKit          3D

 94102  0  0  1  0  0  0  0  0999 V2000
  -30.3980  -24.4230   21.8470 C   0  0  0  0  0  3  0  0  0  0  0  0
  -30.0180  -22.2240   21.7200 C   0  0  0  0  0  3  0  0  0  0  0  0
  -30.1910  -24.1270   20.5270 C   0  0  0  0  0  0  0  0  0  0  0  0
  -29.9570  -22.7090   20.4370 C   0  0  0  0  0  0  0  0  0  0  0  0
  -30.4460  -23.1610   24.0220 C   0  0  0  0  0  1  0  0  0  0  0  0
  -30.2900  -23.2650   22.5840 N   0  0  0  0  0  0  0  0  0  0  0  0
  -30.2550  -25.1310   19.3890 C   0  0  0  0  0  2  0  0  0  0  0  0
  -28.9370  -25.8910   19.1290 C   0  0  0  0  0  2  0  0  0  0  0  0
  -28.7770  -27.0230   19.9900 O   0  0  0  0  0  0  0  0  0  0  0  0
  -24.6670  -31.7350   23.3800 C   0  0  0  0  0  0  0  0  0  0  0  0
  -27.5620  -27.6880   19.9890 C   0  0  0  0  0  0  0  0  0  0  0  0
  -23.5640  -30.4720   21.5610 C   0  0  0  0  0  3  0  0  0  0  0  0
  -25.1150  -29.1210   20.0540 C   0  0  0  0  0  0  0  0  0  0  0  0
  -26.0830  -30.9130   21.5010 C   0  0  0  0  0  2  0  0  0  0  0  0
  -26.2330  -29.6120   20.7380 C   0  0  0  0  0  0  0  0  0  0  0  0
  -27.4540  -28.9010   20.7090 C   0  0  0  0  0  3  0  0  0  0  0  0
  -26.4190  -27.2080   19.3060 C   0  0  0  0  0  3  0  0  0  0  0  0
  -25.2030  -27.9160   19.3380 C   0  0  0  0  0  3  0  0  0  0  0  0
  -23.8440  -29.9360   20.1320 C   0  0  0  0  0  2  0  0  0  0  0  0
  -24.7870  -31.0500   22.2080 N   0  0  0  0  0  0  0  0  0  0  0  0
  -23.5590  -31.9260   23.8990 O   0  0  0  0  0  0  0  0  0  0  0  0
  -22.9070  -29.3450   22.3900 C   0  0  0  0  0  0  0  0  0  0  0  0
  -21.5920  -29.1530   22.1980 N   0  0  0  0  0  0  0  0  0  0  0  0
  -23.5780  -28.6530   23.1590 O   0  0  0  0  0  0  0  0  0  0  0  0
  -21.1150  -29.7670   21.5540 H   0  0  0  0  0  0  0  0  0  0  0  0
  -18.2250  -27.8690   22.4650 C   0  0  0  0  0  0  0  0  0  0  0  0
  -20.7700  -28.1280   22.8390 C   0  0  0  0  0  3  0  0  0  0  0  0
  -20.9110  -26.7690   22.1160 C   0  0  0  0  0  2  0  0  0  0  0  0
  -19.8430  -26.5430   21.0410 C   0  0  0  0  0  2  0  0  0  0  0  0
  -18.4410  -26.6020   21.6560 C   0  0  0  0  0  2  0  0  0  0  0  0
  -19.3200  -28.5940   23.0070 C   0  0  0  0  0  0  0  0  0  0  0  0
  -19.0650  -29.7850   23.7220 C   0  0  0  0  0  3  0  0  0  0  0  0
  -17.7490  -30.2500   23.9010 C   0  0  0  0  0  3  0  0  0  0  0  0
  -16.6690  -29.5210   23.3750 C   0  0  0  0  0  3  0  0  0  0  0  0
  -16.9080  -28.3310   22.6640 C   0  0  0  0  0  3  0  0  0  0  0  0
  -25.9100  -32.3300   24.1100 C   0  0  0  0  0  3  0  0  0  0  0  0
  -25.5700  -33.7000   24.5170 N   0  0  0  0  0  0  0  0  0  0  0  0
  -25.9430  -34.8040   23.8540 C   0  0  0  0  0  0  0  0  0  0  0  0
  -26.6780  -34.7760   22.8650 O   0  0  0  0  0  0  0  0  0  0  0  0
  -24.9220  -33.7970   25.2860 H   0  0  0  0  0  0  0  0  0  0  0  0
  -24.2280  -36.6090   23.5080 C   0  0  0  0  0  1  0  0  0  0  0  0
  -25.4130  -36.1540   24.3730 C   0  0  0  0  0  3  0  0  0  0  0  0
  -27.4790  -36.9820   25.4100 C   0  0  0  0  0  1  0  0  0  0  0  0
  -26.4430  -37.2160   24.4080 N   0  0  0  0  0  0  0  0  0  0  0  0
  -26.0200  -38.1220   24.5940 H   0  0  0  0  0  0  0  0  0  0  0  0
  -26.3720  -31.4750   25.3540 C   0  0  1  0  0  0  0  0  0  0  0  0
  -25.2300  -31.1500   26.3440 C   0  0  0  0  0  1  0  0  0  0  0  0
  -26.9910  -30.1350   24.8910 C   0  0  0  0  0  1  0  0  0  0  0  0
  -27.4760  -32.2330   26.1280 C   0  0  0  0  0  1  0  0  0  0  0  0
  -29.7070  -21.9050   19.1650 C   0  0  0  0  0  2  0  0  0  0  0  0
  -29.2180  -20.5210   19.3930 N   0  0  0  0  0  4  0  0  0  0  0  0
  -28.6120  -20.3010   18.6200 H   0  0  0  0  0  0  0  0  0  0  0  0
  -28.6550  -20.5160   20.2270 H   0  0  0  0  0  0  0  0  0  0  0  0
  -30.2730  -19.4790   19.4470 C   0  0  0  0  0  2  0  0  0  0  0  0
  -29.7530  -18.0730   19.8550 C   0  0  0  0  0  2  0  0  0  0  0  0
  -30.8880  -17.0220   19.8380 C   0  0  0  0  0  2  0  0  0  0  0  0
  -30.9970  -14.5810   19.7230 C   0  0  0  0  0  0  0  0  0  0  0  0
  -30.5700  -12.3320   18.8040 C   0  0  0  0  0  2  0  0  0  0  0  0
  -29.5900  -12.4020   17.6190 C   0  0  0  0  0  2  0  0  0  0  0  0
  -28.1400  -12.2810   18.1240 C   0  0  0  0  0  2  0  0  0  0  0  0
  -27.8360  -13.2610   19.2860 C   0  0  0  0  0  3  0  0  0  0  0  0
  -28.9380  -13.2090   20.3640 C   0  0  0  0  0  2  0  0  0  0  0  0
  -30.2460  -13.4370   19.7240 N   0  0  0  0  0  0  0  0  0  0  0  0
  -32.0200  -14.6750   19.0400 O   0  0  0  0  0  0  0  0  0  0  0  0
  -30.4390  -15.6610   21.8290 C   0  0  0  0  0  1  0  0  0  0  0  0
  -30.5140  -15.6810   20.3620 N   0  0  0  0  0  0  0  0  0  0  0  0
  -25.4990  -13.9290   20.1320 C   0  0  0  0  0  0  0  0  0  0  0  0
  -24.4450  -13.1870   20.5960 C   0  0  0  0  0  0  0  0  0  0  0  0
  -24.8830  -11.8270   20.5810 C   0  0  0  0  0  0  0  0  0  0  0  0
  -26.5150  -13.0230   19.8610 N   0  0  0  0  0  0  0  0  0  0  0  0
  -26.1510  -11.7560   20.1910 N   0  0  0  0  0  0  0  0  0  0  0  0
  -24.1540  -10.5840   20.8580 C   0  0  0  0  0  0  0  0  0  0  0  0
  -24.5860   -9.6780   21.8520 C   0  0  0  0  0  3  0  0  0  0  0  0
  -23.8580   -8.4970   22.1110 C   0  0  0  0  0  3  0  0  0  0  0  0
  -22.6800   -8.2150   21.3790 C   0  0  0  0  0  0  0  0  0  0  0  0
  -22.2680   -9.1070   20.3750 C   0  0  0  0  0  3  0  0  0  0  0  0
  -22.9970  -10.2780   20.1130 C   0  0  0  0  0  3  0  0  0  0  0  0
  -21.9210   -7.0820   21.5450 O   0  0  0  0  0  0  0  0  0  0  0  0
  -21.8250   -6.4510   22.7610 C   0  0  0  0  0  0  0  0  0  0  0  0
  -21.3540   -7.1190   23.9120 C   0  0  0  0  0  3  0  0  0  0  0  0
  -21.2070   -6.4150   25.1240 C   0  0  0  0  0  3  0  0  0  0  0  0
  -21.5170   -5.0430   25.1840 C   0  0  0  0  0  0  0  0  0  0  0  0
  -21.9820   -4.3750   24.0370 C   0  0  0  0  0  3  0  0  0  0  0  0
  -22.1330   -5.0770   22.8290 C   0  0  0  0  0  0  0  0  0  0  0  0
  -22.5600   -4.4240   21.7210 F   0  0  0  0  0  0  0  0  0  0  0  0
  -21.3680   -4.3630   26.3450 F   0  0  0  0  0  0  0  0  0  0  0  0
  -23.0750  -13.6970   20.9370 C   0  0  0  0  0  0  0  0  0  0  0  0
  -22.3900  -13.0580   21.8780 N   0  0  0  0  0  0  0  0  0  0  0  0
  -22.6190  -14.7010   20.3930 O   0  0  0  0  0  0  0  0  0  0  0  0
  -22.7630  -12.2450   22.3480 H   0  0  0  0  0  0  0  0  0  0  0  0
  -21.4730  -13.3920   22.1340 H   0  0  0  0  0  0  0  0  0  0  0  0
  -25.6760  -15.2900   19.8970 N   0  0  0  0  0  0  0  0  0  0  0  0
  -24.9390  -15.9740   20.0430 H   0  0  0  0  0  0  0  0  0  0  0  0
  -26.5250  -15.6970   19.5230 H   0  0  0  0  0  0  0  0  0  0  0  0
  1  6  1  0
  2  6  1  0
  3  1  2  0
  4  3  1  0
  4  2  2  0
  6  5  1  0
  7  3  1  0
  8  7  1  0
  8  9  1  0
 10 21  2  0
 11  9  1  0
 11 16  1  0
 12 20  1  0
 12 22  1  0
 13 19  1  0
 13 15  1  0
 14 20  1  0
 15 14  1  0
 16 15  2  0
 17 18  1  0
 17 11  2  0
 18 13  2  0
 19 12  1  0
 20 10  1  0
 22 24  2  0
 23 22  1  0
 25 23  1  0
 26 35  2  0
 26 31  1  0
 27 23  1  0
 27 31  1  0
 28 27  1  0
 29 30  1  0
 29 28  1  0
 30 26  1  0
 31 32  2  0
 32 33  1  0
 34 33  2  0
 35 34  1  0
 36 10  1  0
 36 37  1  0
 36 46  1  0
 37 40  1  0
 38 42  1  0
 38 37  1  0
 39 38  2  0
 42 41  1  0
 42 44  1  0
 44 45  1  0
 44 43  1  0
 46 49  1  1
 46 47  1  0
 48 46  1  0
 50 51  1  0
 50  4  1  0
 51 54  1  0
 51 53  1  0
 52 51  1  0
 54 55  1  0
 56 55  1  0
 56 66  1  0
 57 63  1  0
 57 66  1  0
 58 63  1  0
 59 60  1  0
 59 58  1  0
 61 60  1  0
 61 70  1  0
 61 62  1  0
 63 62  1  0
 64 57  2  0
 66 65  1  0
 67 68  2  0
 68 87  1  0
 69 68  1  0
 69 72  1  0
 70 67  1  0
 70 71  1  0
 71 69  2  0
 72 73  1  0
 73 74  2  0
 75 78  1  0
 75 74  1  0
 76 75  2  0
 77 76  1  0
 77 72  2  0
 78 79  1  0
 79 84  2  0
 79 80  1  0
 80 81  2  0
 81 82  1  0
 82 86  1  0
 83 82  2  0
 84 83  1  0
 85 84  1  0
 87 88  1  0
 88 91  1  0
 88 90  1  0
 89 87  2  0
 92 93  1  0
 92 67  1  0
 94 92  1  0
M  ISO  4   8 101   9 101  57 100  66 100
M  END
>  <TORSDO>  (51) 
F 23

>  <SCORE>  (51) 
-11.180

>  <name>  (51) 
51

>  <ligand_id>  (51) 
51

>  <original_smiles>  (51) 
[H]c1c([H])c([H])c2c(c1[H])C([H])([H])C([H])([H])C([H])([H])C2([H])N([H])C(=O)C1([H])N(C(=O)C([H])(N([H])C(=O)C([H])(N([H])C([H])([H])[H])C([H])([H])[H])C(C([H])([H])[H])(C([H])([H])[H])C([H])([H])[H])C([H])([H])c2c([H])c(OC([H])([H])C([H])([H])c3c(C([H])([H])[N+]([H])([H])C([H])([H])C([H])([H])C([H])([H])N(C(=O)N4C([H])([H])C([H])([H])C([H])([H])C([H])(n5nc(-c6c([H])c([H])c(Oc7c([H])c([H])c(F)c([H])c7F)c([H])c6[H])c(C(=O)N([H])[H])c5N([H])[H])C4([H])[H])C([H])([H])[H])c([H])n(C([H])([H])[H])c3[H])c([H])c([H])c2C1([H])[H]

>  <smiles>  (51) 
[H]c1c([H])c([H])c2c(c1[H])C([H])([H])C([H])([H])C([H])([H])C2([H])N([H])C(=O)C1([H])N(C(=O)C([H])(N([H])C(=O)C([H])(N([H])C([H])([H])[H])C([H])([H])[H])C(C([H])([H])[H])(C([H])([H])[H])C([H])([H])[H])C([H])([H])c2c([H])c(OC([H])([H])C([H])([H])c3c(C([H])([H])[N+]([H])([H])C([H])([H])C([H])([H])C([H])([H])N(C(=O)N4C([H])([H])C([H])([H])C([H])([H])C([H])(n5nc(-c6c([H])c([H])c(Oc7c([H])c([H])c(F)c([H])c7F)c([H])c6[H])c(C(=O)N([H])[H])c5N([H])[H])C4([H])[H])C([H])([H])[H])c([H])n(C([H])([H])[H])c3[H])c([H])c([H])c2C1([H])[H]

$$$$
52:0:0
     RDKit          3D

 92100  0  0  1  0  0  0  0  0999 V2000
  -29.2910  -20.7920   20.2720 C   0  0  0  0  0  0  0  0  0  0  0  0
  -29.8600  -18.6730   20.1550 C   0  0  0  0  0  3  0  0  0  0  0  0
  -28.7770  -19.4870   20.3500 N   0  0  0  0  0  0  0  0  0  0  0  0
  -30.6100  -20.7910   20.0980 N   0  0  0  0  0  2  0  0  0  0  0  0
  -30.9630  -19.4570   20.0700 N   0  0  0  0  0  0  0  0  0  0  0  0
  -33.3680  -20.0130   20.4700 C   0  0  0  0  0  1  0  0  0  0  0  0
  -32.5800  -19.0480   18.2440 C   0  0  0  0  0  1  0  0  0  0  0  0
  -32.3500  -19.0920   19.7670 C   0  0  0  0  0  3  0  0  0  0  0  0
  -28.9240  -16.9300   18.5310 C   0  0  0  0  0  1  0  0  0  0  0  0
  -29.8990  -17.1400   19.7000 C   0  0  0  0  0  3  0  0  0  0  0  0
  -30.5730  -14.7840   20.5210 C   0  0  0  0  0  0  0  0  0  0  0  0
  -30.3960  -12.4840   19.5750 C   0  0  0  0  0  2  0  0  0  0  0  0
  -29.5130  -12.5580   18.3100 C   0  0  0  0  0  2  0  0  0  0  0  0
  -28.0210  -12.4160   18.6780 C   0  0  0  0  0  2  0  0  0  0  0  0
  -27.6110  -13.2980   19.8900 C   0  0  0  0  0  3  0  0  0  0  0  0
  -28.6330  -13.2140   21.0470 C   0  0  0  0  0  2  0  0  0  0  0  0
  -29.9490  -13.5550   20.4980 N   0  0  0  0  0  0  0  0  0  0  0  0
  -31.7550  -14.8700   20.1870 O   0  0  0  0  0  0  0  0  0  0  0  0
  -29.7970  -15.9300   20.6310 N   0  0  0  0  0  0  0  0  0  0  0  0
  -28.8810  -15.7900   21.0310 H   0  0  0  0  0  0  0  0  0  0  0  0
  -25.2020  -13.8820   20.5440 C   0  0  0  0  0  0  0  0  0  0  0  0
  -24.1290  -13.1070   20.8910 C   0  0  0  0  0  0  0  0  0  0  0  0
  -24.5960  -11.7580   20.8850 C   0  0  0  0  0  0  0  0  0  0  0  0
  -26.2550  -13.0050   20.3410 N   0  0  0  0  0  0  0  0  0  0  0  0
  -25.8960  -11.7220   20.6120 N   0  0  0  0  0  0  0  0  0  0  0  0
  -23.8670  -10.4950   21.0650 C   0  0  0  0  0  0  0  0  0  0  0  0
  -24.2810   -9.5300   22.0090 C   0  0  0  0  0  3  0  0  0  0  0  0
  -23.5510   -8.3340   22.1810 C   0  0  0  0  0  3  0  0  0  0  0  0
  -22.3900   -8.0940   21.4080 C   0  0  0  0  0  0  0  0  0  0  0  0
  -21.9930   -9.0490   20.4550 C   0  0  0  0  0  3  0  0  0  0  0  0
  -22.7240  -10.2360   20.2810 C   0  0  0  0  0  3  0  0  0  0  0  0
  -21.6320   -6.9510   21.4880 O   0  0  0  0  0  0  0  0  0  0  0  0
  -21.5720   -6.2060   22.6380 C   0  0  0  0  0  0  0  0  0  0  0  0
  -21.1390   -6.7580   23.8630 C   0  0  0  0  0  3  0  0  0  0  0  0
  -21.0250   -5.9380   25.0040 C   0  0  0  0  0  3  0  0  0  0  0  0
  -21.3370   -4.5680   24.9200 C   0  0  0  0  0  0  0  0  0  0  0  0
  -21.7630   -4.0160   23.7000 C   0  0  0  0  0  3  0  0  0  0  0  0
  -21.8780   -4.8320   22.5610 C   0  0  0  0  0  0  0  0  0  0  0  0
  -22.2690   -4.2890   21.3830 F   0  0  0  0  0  0  0  0  0  0  0  0
  -21.2200   -3.7800   26.0140 F   0  0  0  0  0  0  0  0  0  0  0  0
  -22.7230  -13.5840   21.1160 C   0  0  0  0  0  0  0  0  0  0  0  0
  -21.9700  -12.8960   21.9660 N   0  0  0  0  0  0  0  0  0  0  0  0
  -22.3000  -14.6030   20.5720 O   0  0  0  0  0  0  0  0  0  0  0  0
  -22.3270  -12.0740   22.4310 H   0  0  0  0  0  0  0  0  0  0  0  0
  -21.0260  -13.1970   22.1550 H   0  0  0  0  0  0  0  0  0  0  0  0
  -25.3650  -15.2510   20.3590 N   0  0  0  0  0  0  0  0  0  0  0  0
  -24.5890  -15.9000   20.4520 H   0  0  0  0  0  0  0  0  0  0  0  0
  -26.2140  -15.6930   20.0340 H   0  0  0  0  0  0  0  0  0  0  0  0
  -28.4350  -22.1150   20.0950 C   0  0  0  0  0  2  0  0  0  0  0  0
  -28.9630  -23.6280   20.4100 C   0  0  0  0  0  3  0  0  0  0  0  0
  -27.9880  -24.8820   20.0310 C   0  0  0  0  0  3  0  0  0  0  0  0
  -28.2660  -26.3540   20.2730 O   0  0  0  0  0  0  0  0  0  0  0  0
  -24.6130  -31.9100   23.2630 C   0  0  0  0  0  0  0  0  0  0  0  0
  -27.1860  -27.2800   20.2070 C   0  0  0  0  0  0  0  0  0  0  0  0
  -23.4030  -30.5180   21.6260 C   0  0  0  0  0  3  0  0  0  0  0  0
  -24.8430  -28.9600   20.1920 C   0  0  0  0  0  0  0  0  0  0  0  0
  -25.9500  -30.8040   21.4470 C   0  0  0  0  0  2  0  0  0  0  0  0
  -26.0200  -29.4220   20.7960 C   0  0  0  0  0  0  0  0  0  0  0  0
  -27.1930  -28.5940   20.7940 C   0  0  0  0  0  3  0  0  0  0  0  0
  -25.9860  -26.9030   19.5580 C   0  0  0  0  0  3  0  0  0  0  0  0
  -24.8360  -27.7110   19.5580 C   0  0  0  0  0  3  0  0  0  0  0  0
  -23.6140  -29.8470   20.2440 C   0  0  0  0  0  2  0  0  0  0  0  0
  -24.6750  -31.0960   22.1680 N   0  0  0  0  0  0  0  0  0  0  0  0
  -23.5310  -32.1920   23.7990 O   0  0  0  0  0  0  0  0  0  0  0  0
  -22.7350  -29.5050   22.5880 C   0  0  0  0  0  0  0  0  0  0  0  0
  -21.4070  -29.3260   22.4610 N   0  0  0  0  0  0  0  0  0  0  0  0
  -23.4100  -28.8810   23.4110 O   0  0  0  0  0  0  0  0  0  0  0  0
  -20.9200  -29.8770   21.7680 H   0  0  0  0  0  0  0  0  0  0  0  0
  -18.0300  -28.1250   22.9590 C   0  0  0  0  0  0  0  0  0  0  0  0
  -20.5880  -28.3930   23.2360 C   0  0  0  0  0  3  0  0  0  0  0  0
  -20.6960  -26.9580   22.6690 C   0  0  0  0  0  2  0  0  0  0  0  0
  -19.5990  -26.6260   21.6550 C   0  0  0  0  0  2  0  0  0  0  0  0
  -18.2140  -26.7710   22.2920 C   0  0  0  0  0  2  0  0  0  0  0  0
  -19.1450  -28.8920   23.3890 C   0  0  0  0  0  0  0  0  0  0  0  0
  -18.9190  -30.1570   23.9740 C   0  0  0  0  0  3  0  0  0  0  0  0
  -17.6110  -30.6540   24.1330 C   0  0  0  0  0  3  0  0  0  0  0  0
  -16.5120  -29.8840   23.7190 C   0  0  0  0  0  3  0  0  0  0  0  0
  -16.7220  -28.6200   23.1360 C   0  0  0  0  0  3  0  0  0  0  0  0
  -25.8980  -32.5390   23.8830 C   0  0  0  0  0  3  0  0  0  0  0  0
  -25.5960  -33.9420   24.2040 N   0  0  0  0  0  0  0  0  0  0  0  0
  -25.9320  -34.9880   23.4390 C   0  0  0  0  0  0  0  0  0  0  0  0
  -26.5950  -34.8740   22.4050 O   0  0  0  0  0  0  0  0  0  0  0  0
  -25.0060  -34.1040   25.0070 H   0  0  0  0  0  0  0  0  0  0  0  0
  -24.2120  -36.7910   23.0830 C   0  0  0  0  0  1  0  0  0  0  0  0
  -25.4550  -36.3830   23.8900 C   0  0  0  0  0  3  0  0  0  0  0  0
  -27.6020  -37.2610   24.7010 C   0  0  0  0  0  1  0  0  0  0  0  0
  -26.4950  -37.4290   23.7630 N   0  0  0  0  0  0  0  0  0  0  0  0
  -26.0950  -38.3530   23.9030 H   0  0  0  0  0  0  0  0  0  0  0  0
  -26.4030  -31.7760   25.1670 C   0  0  1  0  0  0  0  0  0  0  0  0
  -25.3020  -31.5600   26.2320 C   0  0  0  0  0  1  0  0  0  0  0  0
  -26.9740  -30.3900   24.7920 C   0  0  0  0  0  1  0  0  0  0  0  0
  -27.5600  -32.5650   25.8240 C   0  0  0  0  0  1  0  0  0  0  0  0
  1  3  2  0
  2 10  1  0
  2  3  1  0
  4  1  1  0
  5  4  1  0
  5  2  1  0
  7  8  1  0
  8  5  1  0
  8  6  1  0
 10  9  1  0
 10 19  1  0
 11 19  1  0
 12 17  1  0
 13 14  1  0
 13 12  1  0
 15 14  1  0
 15 24  1  0
 15 16  1  0
 17 11  1  0
 17 16  1  0
 18 11  2  0
 19 20  1  0
 21 22  2  0
 22 41  1  0
 23 22  1  0
 23 26  1  0
 24 21  1  0
 24 25  1  0
 25 23  2  0
 26 27  1  0
 27 28  2  0
 29 32  1  0
 29 28  1  0
 30 29  2  0
 31 30  1  0
 31 26  2  0
 32 33  1  0
 33 34  1  0
 34 35  2  0
 36 35  1  0
 36 40  1  0
 37 36  2  0
 38 33  2  0
 38 37  1  0
 39 38  1  0
 41 42  1  0
 42 45  1  0
 42 44  1  0
 43 41  2  0
 46 47  1  0
 46 21  1  0
 48 46  1  0
 49  1  1  0
 49 50  1  0
 51 52  1  0
 51 50  2  0
 53 64  2  0
 54 52  1  0
 54 59  1  0
 55 63  1  0
 55 65  1  0
 56 62  1  0
 56 58  1  0
 57 63  1  0
 58 57  1  0
 59 58  2  0
 60 54  2  0
 61 60  1  0
 61 56  2  0
 62 55  1  0
 63 53  1  0
 65 67  2  0
 66 65  1  0
 68 66  1  0
 69 78  2  0
 69 74  1  0
 70 66  1  0
 70 74  1  0
 71 70  1  0
 72 73  1  0
 72 71  1  0
 73 69  1  0
 74 75  2  0
 75 76  1  0
 77 76  2  0
 78 77  1  0
 79 53  1  0
 79 80  1  0
 79 89  1  0
 80 83  1  0
 81 85  1  0
 81 80  1  0
 82 81  2  0
 85 84  1  0
 87 85  1  0
 87 88  1  0
 87 86  1  0
 89 92  1  1
 89 90  1  0
 91 89  1  0
M  ISO  4  11 100  19 100  51 101  52 101
M  END
>  <TORSDO>  (52) 
F 21

>  <SCORE>  (52) 
-13.444

>  <name>  (52) 
52

>  <ligand_id>  (52) 
52

>  <original_smiles>  (52) 
[H]c1c([H])c([H])c2c(c1[H])C([H])([H])C([H])([H])C([H])([H])C2([H])N([H])C(=O)C1([H])N(C(=O)C([H])(N([H])C(=O)C([H])(N([H])C([H])([H])[H])C([H])([H])[H])C(C([H])([H])[H])(C([H])([H])[H])C([H])([H])[H])C([H])([H])c2c([H])c(OC([H])([H])C([H])([H])C([H])([H])c3nc(C([H])(N([H])C(=O)N4C([H])([H])C([H])([H])C([H])([H])C([H])(n5nc(-c6c([H])c([H])c(Oc7c([H])c([H])c(F)c([H])c7F)c([H])c6[H])c(C(=O)N([H])[H])c5N([H])[H])C4([H])[H])C([H])([H])[H])n(C([H])(C([H])([H])[H])C([H])([H])[H])n3)c([H])c([H])c2C1([H])[H]

>  <smiles>  (52) 
[H]c1c([H])c([H])c2c(c1[H])C([H])([H])C([H])([H])C([H])([H])C2([H])N([H])C(=O)C1([H])N(C(=O)C([H])(N([H])C(=O)C([H])(N([H])C([H])([H])[H])C([H])([H])[H])C(C([H])([H])[H])(C([H])([H])[H])C([H])([H])[H])C([H])([H])c2c([H])c(OC([H])([H])C([H])([H])C([H])([H])c3nc(C([H])(N([H])C(=O)N4C([H])([H])C([H])([H])C([H])([H])C([H])(n5nc(-c6c([H])c([H])c(Oc7c([H])c([H])c(F)c([H])c7F)c([H])c6[H])c(C(=O)N([H])[H])c5N([H])[H])C4([H])[H])C([H])([H])[H])n(C([H])(C([H])([H])[H])C([H])([H])[H])n3)c([H])c([H])c2C1([H])[H]

$$$$
53:0:0
     RDKit          3D

 98106  0  0  1  0  0  0  0  0999 V2000
  -28.6060  -23.8750   16.2020 C   0  0  0  0  0  3  0  0  0  0  0  0
  -29.1410  -23.0790   15.2260 C   0  0  0  0  0  3  0  0  0  0  0  0
  -28.8730  -21.8400   17.0470 C   0  0  0  0  0  3  0  0  0  0  0  0
  -28.4760  -23.0960   17.3260 N   0  0  0  0  0  0  0  0  0  0  0  0
  -29.2910  -21.8380   15.7770 N   0  0  0  0  0  0  0  0  0  0  0  0
  -29.6610  -21.0300   15.2920 H   0  0  0  0  0  0  0  0  0  0  0  0
  -26.4000  -23.3680   18.6280 C   0  0  0  0  0  1  0  0  0  0  0  0
  -27.9360  -23.5090   18.6370 C   0  0  0  0  0  3  0  0  0  0  0  0
  -28.4490  -24.9130   19.0480 C   0  0  0  0  0  2  0  0  0  0  0  0
  -28.2610  -25.2390   20.5500 C   0  0  0  0  0  2  0  0  0  0  0  0
  -28.3620  -26.6400   20.8390 O   0  0  0  0  0  0  0  0  0  0  0  0
  -24.5130  -32.0120   23.5000 C   0  0  0  0  0  0  0  0  0  0  0  0
  -27.2030  -27.3880   20.7550 C   0  0  0  0  0  0  0  0  0  0  0  0
  -23.3730  -30.5840   21.8420 C   0  0  0  0  0  3  0  0  0  0  0  0
  -24.8570  -28.9610   20.5770 C   0  0  0  0  0  0  0  0  0  0  0  0
  -25.9180  -30.8660   21.7900 C   0  0  0  0  0  2  0  0  0  0  0  0
  -26.0000  -29.4730   21.2040 C   0  0  0  0  0  0  0  0  0  0  0  0
  -27.1800  -28.6970   21.2860 C   0  0  0  0  0  3  0  0  0  0  0  0
  -26.0240  -26.8920   20.1490 C   0  0  0  0  0  3  0  0  0  0  0  0
  -24.8620  -27.6650   20.0500 C   0  0  0  0  0  3  0  0  0  0  0  0
  -23.6450  -29.8560   20.5030 C   0  0  0  0  0  2  0  0  0  0  0  0
  -24.6170  -31.1680   22.4370 N   0  0  0  0  0  0  0  0  0  0  0  0
  -23.4070  -32.3320   23.9580 O   0  0  0  0  0  0  0  0  0  0  0  0
  -22.6350  -29.6120   22.7920 C   0  0  0  0  0  0  0  0  0  0  0  0
  -21.3130  -29.4730   22.5940 N   0  0  0  0  0  0  0  0  0  0  0  0
  -23.2470  -28.9870   23.6610 O   0  0  0  0  0  0  0  0  0  0  0  0
  -20.8810  -30.0320   21.8720 H   0  0  0  0  0  0  0  0  0  0  0  0
  -17.8640  -28.4770   22.9900 C   0  0  0  0  0  0  0  0  0  0  0  0
  -20.4210  -28.5930   23.3480 C   0  0  0  0  0  3  0  0  0  0  0  0
  -20.4610  -27.1510   22.7920 C   0  0  0  0  0  2  0  0  0  0  0  0
  -19.3780  -26.8770   21.7440 C   0  0  0  0  0  2  0  0  0  0  0  0
  -17.9860  -27.1090   22.3380 C   0  0  0  0  0  2  0  0  0  0  0  0
  -19.0090  -29.1800   23.4510 C   0  0  0  0  0  0  0  0  0  0  0  0
  -18.8420  -30.4610   24.0180 C   0  0  0  0  0  3  0  0  0  0  0  0
  -17.5640  -31.0410   24.1300 C   0  0  0  0  0  3  0  0  0  0  0  0
  -16.4340  -30.3340   23.6850 C   0  0  0  0  0  3  0  0  0  0  0  0
  -16.5840  -29.0540   23.1220 C   0  0  0  0  0  3  0  0  0  0  0  0
  -25.7770  -32.6290   24.1760 C   0  0  0  0  0  3  0  0  0  0  0  0
  -26.1810  -31.8990   25.5150 C   0  0  1  0  0  0  0  0  0  0  0  0
  -24.9990  -31.6900   26.4910 C   0  0  0  0  0  1  0  0  0  0  0  0
  -26.7970  -30.5130   25.2130 C   0  0  0  0  0  1  0  0  0  0  0  0
  -27.2710  -32.7190   26.2430 C   0  0  0  0  0  1  0  0  0  0  0  0
  -25.4910  -34.0480   24.4180 N   0  0  0  0  0  0  0  0  0  0  0  0
  -25.9000  -35.0500   23.6290 C   0  0  0  0  0  0  0  0  0  0  0  0
  -26.6260  -34.8770   22.6460 O   0  0  0  0  0  0  0  0  0  0  0  0
  -24.8530  -34.2580   25.1710 H   0  0  0  0  0  0  0  0  0  0  0  0
  -24.2400  -36.8660   23.0970 C   0  0  0  0  0  1  0  0  0  0  0  0
  -25.4310  -36.4730   23.9870 C   0  0  0  0  0  3  0  0  0  0  0  0
  -27.5440  -37.3520   24.8780 C   0  0  0  0  0  1  0  0  0  0  0  0
  -26.4960  -37.4920   23.8700 N   0  0  0  0  0  0  0  0  0  0  0  0
  -26.1080  -38.4270   23.9460 H   0  0  0  0  0  0  0  0  0  0  0  0
  -28.9070  -20.6550   17.9620 C   0  0  0  0  0  2  0  0  0  0  0  0
  -30.2670  -20.4980   18.6690 C   0  0  0  0  0  2  0  0  0  0  0  0
  -30.8300  -19.0870   18.4970 C   0  0  0  0  0  2  0  0  0  0  0  0
  -33.1960  -19.5850   19.1140 C   0  0  0  0  0  1  0  0  0  0  0  0
  -31.9830  -18.7700   19.3890 N   0  0  2  0  0  4  0  0  0  0  0  0
  -31.7070  -19.0360   20.3240 H   0  0  0  0  0  0  0  0  0  0  0  0
  -32.6320  -16.7590   18.0660 C   0  0  0  0  0  1  0  0  0  0  0  0
  -32.2720  -17.3070   19.4810 C   0  0  0  0  0  3  0  0  0  0  0  0
  -31.0670  -16.5930   20.1890 C   0  0  0  0  0  2  0  0  0  0  0  0
  -31.7810  -14.2130   20.2200 C   0  0  0  0  0  0  0  0  0  0  0  0
  -31.1370  -12.1820   18.9930 C   0  0  0  0  0  2  0  0  0  0  0  0
  -30.1890  -12.5250   17.8280 C   0  0  0  0  0  2  0  0  0  0  0  0
  -28.7250  -12.5390   18.3080 C   0  0  0  0  0  2  0  0  0  0  0  0
  -28.5260  -13.3910   19.5910 C   0  0  0  0  0  3  0  0  0  0  0  0
  -29.5830  -13.0350   20.6560 C   0  0  0  0  0  2  0  0  0  0  0  0
  -30.9190  -13.1780   20.0490 N   0  0  0  0  0  0  0  0  0  0  0  0
  -32.8960  -14.2490   19.7020 O   0  0  0  0  0  0  0  0  0  0  0  0
  -31.4240  -15.3550   22.3230 C   0  0  0  0  0  1  0  0  0  0  0  0
  -31.2970  -15.2940   20.8600 N   0  0  0  0  0  0  0  0  0  0  0  0
  -26.2850  -14.2440   20.5300 C   0  0  0  0  0  0  0  0  0  0  0  0
  -25.1270  -13.5960   20.8640 C   0  0  0  0  0  0  0  0  0  0  0  0
  -25.3690  -12.2080   20.6230 C   0  0  0  0  0  0  0  0  0  0  0  0
  -27.1690  -13.2590   20.1150 N   0  0  0  0  0  0  0  0  0  0  0  0
  -26.6210  -12.0210   20.2270 N   0  0  0  0  0  0  0  0  0  0  0  0
  -24.4640  -11.0540   20.6930 C   0  0  0  0  0  0  0  0  0  0  0  0
  -24.7910   -9.9030   21.4460 C   0  0  0  0  0  3  0  0  0  0  0  0
  -23.8970   -8.8140   21.5110 C   0  0  0  0  0  3  0  0  0  0  0  0
  -22.6580   -8.8690   20.8260 C   0  0  0  0  0  0  0  0  0  0  0  0
  -22.3490  -10.0070   20.0610 C   0  0  0  0  0  3  0  0  0  0  0  0
  -23.2430  -11.0880   19.9920 C   0  0  0  0  0  3  0  0  0  0  0  0
  -21.7390   -7.8480   20.8120 O   0  0  0  0  0  0  0  0  0  0  0  0
  -21.5770   -7.0100   21.8860 C   0  0  0  0  0  0  0  0  0  0  0  0
  -21.2200   -7.4970   23.1630 C   0  0  0  0  0  3  0  0  0  0  0  0
  -20.9950   -6.5940   24.2210 C   0  0  0  0  0  3  0  0  0  0  0  0
  -21.1170   -5.2090   24.0050 C   0  0  0  0  0  0  0  0  0  0  0  0
  -21.4680   -4.7220   22.7330 C   0  0  0  0  0  3  0  0  0  0  0  0
  -21.6930   -5.6210   21.6760 C   0  0  0  0  0  0  0  0  0  0  0  0
  -22.0100   -5.1470   20.4470 F   0  0  0  0  0  0  0  0  0  0  0  0
  -20.8950   -4.3410   25.0190 F   0  0  0  0  0  0  0  0  0  0  0  0
  -23.8360  -14.2320   21.2910 C   0  0  0  0  0  0  0  0  0  0  0  0
  -23.0740  -13.5590   22.1450 N   0  0  0  0  0  0  0  0  0  0  0  0
  -23.5190  -15.3560   20.9040 O   0  0  0  0  0  0  0  0  0  0  0  0
  -23.3440  -12.6450   22.4780 H   0  0  0  0  0  0  0  0  0  0  0  0
  -22.2070  -13.9620   22.4690 H   0  0  0  0  0  0  0  0  0  0  0  0
  -26.6560  -15.5860   20.5260 N   0  0  0  0  0  0  0  0  0  0  0  0
  -26.0080  -16.3260   20.7740 H   0  0  0  0  0  0  0  0  0  0  0  0
  -27.5590  -15.9310   20.2290 H   0  0  0  0  0  0  0  0  0  0  0  0
  1  4  1  0
  2  5  1  0
  2  1  2  0
  3  4  1  0
  3 52  1  0
  4  8  1  0
  5  3  1  0
  6  5  1  0
  8  7  1  0
  8  9  1  0
  9 10  1  0
 10 11  1  0
 12 23  2  0
 13 11  1  0
 13 18  1  0
 14 22  1  0
 14 24  1  0
 15 17  1  0
 16 22  1  0
 17 18  2  0
 17 16  1  0
 19 13  2  0
 20 19  1  0
 20 15  2  0
 21 15  1  0
 21 14  1  0
 22 12  1  0
 24 26  2  0
 25 24  1  0
 27 25  1  0
 28 37  2  0
 28 33  1  0
 29 25  1  0
 29 33  1  0
 30 29  1  0
 31 32  1  0
 31 30  1  0
 32 28  1  0
 33 34  2  0
 34 35  1  0
 36 35  2  0
 37 36  1  0
 38 12  1  0
 38 43  1  0
 38 39  1  0
 39 42  1  1
 39 40  1  0
 41 39  1  0
 43 46  1  0
 44 48  1  0
 44 43  1  0
 45 44  2  0
 48 47  1  0
 50 51  1  0
 50 48  1  0
 50 49  1  0
 52 53  1  0
 54 53  1  0
 54 56  1  0
 55 56  1  0
 56 59  1  0
 56 57  1  1
 59 58  1  0
 59 60  1  0
 60 70  1  0
 61 70  1  0
 62 67  1  0
 63 64  1  0
 63 62  1  0
 65 64  1  0
 65 74  1  0
 65 66  1  0
 67 61  1  0
 67 66  1  0
 68 61  2  0
 70 69  1  0
 71 72  2  0
 72 91  1  0
 73 76  1  0
 73 72  1  0
 74 75  1  0
 74 71  1  0
 75 73  2  0
 76 77  1  0
 77 78  2  0
 79 78  1  0
 80 79  2  0
 81 80  1  0
 81 76  2  0
 82 79  1  0
 82 83  1  0
 83 84  1  0
 84 85  2  0
 86 85  1  0
 86 90  1  0
 87 86  2  0
 88 83  2  0
 88 87  1  0
 89 88  1  0
 91 92  1  0
 92 95  1  0
 92 94  1  0
 93 91  2  0
 96 71  1  0
 96 97  1  0
 98 96  1  0
M  ISO  4  10 101  11 101  61 100  70 100
M  END
>  <TORSDO>  (53) 
F 25

>  <SCORE>  (53) 
-8.640

>  <name>  (53) 
53

>  <ligand_id>  (53) 
53

>  <original_smiles>  (53) 
[H]c1c([H])c([H])c2c(c1[H])C([H])([H])C([H])([H])C([H])([H])C2([H])N([H])C(=O)C1([H])N(C(=O)C([H])(N([H])C(=O)C([H])(N([H])C([H])([H])[H])C([H])([H])[H])C(C([H])([H])[H])(C([H])([H])[H])C([H])([H])[H])C([H])([H])c2c([H])c(OC([H])([H])C([H])([H])C([H])(n3c([H])c([H])[n+]([H])c3C([H])([H])C([H])([H])C([H])([H])[N+]([H])(C([H])([H])[H])C([H])(C([H])([H])[H])C([H])([H])N(C(=O)N3C([H])([H])C([H])([H])C([H])([H])C([H])(n4nc(-c5c([H])c([H])c(Oc6c([H])c([H])c(F)c([H])c6F)c([H])c5[H])c(C(=O)N([H])[H])c4N([H])[H])C3([H])[H])C([H])([H])[H])C([H])([H])[H])c([H])c([H])c2C1([H])[H]

>  <smiles>  (53) 
[H]c1c([H])c([H])c2c(c1[H])C([H])([H])C([H])([H])C([H])([H])C2([H])N([H])C(=O)C1([H])N(C(=O)C([H])(N([H])C(=O)C([H])(N([H])C([H])([H])[H])C([H])([H])[H])C(C([H])([H])[H])(C([H])([H])[H])C([H])([H])[H])C([H])([H])c2c([H])c(OC([H])([H])C([H])([H])C([H])(n3c([H])c([H])[n+]([H])c3C([H])([H])C([H])([H])C([H])([H])[N+]([H])(C([H])([H])[H])C([H])(C([H])([H])[H])C([H])([H])N(C(=O)N3C([H])([H])C([H])([H])C([H])([H])C([H])(n4nc(-c5c([H])c([H])c(Oc6c([H])c([H])c(F)c([H])c6F)c([H])c5[H])c(C(=O)N([H])[H])c4N([H])[H])C3([H])[H])C([H])([H])[H])C([H])([H])[H])c([H])c([H])c2C1([H])[H]

$$$$
54:0:0
     RDKit          3D

 95103  0  0  1  0  0  0  0  0999 V2000
  -30.2650  -21.0120   22.1210 C   0  0  0  0  0  3  0  0  0  0  0  0
  -29.8080  -19.7220   22.1530 C   0  0  0  0  0  3  0  0  0  0  0  0
  -31.3480  -19.8650   20.5550 C   0  0  0  0  0  3  0  0  0  0  0  0
  -31.1890  -21.0870   21.1040 N   0  0  0  0  0  0  0  0  0  0  0  0
  -30.4910  -19.0490   21.1770 N   0  0  0  0  0  0  0  0  0  0  0  0
  -30.3740  -18.0650   20.9680 H   0  0  0  0  0  0  0  0  0  0  0  0
  -32.2920  -19.4530   19.4610 C   0  0  0  0  0  2  0  0  0  0  0  0
  -33.2980  -18.3710   19.8910 C   0  0  0  0  0  2  0  0  0  0  0  0
  -33.7860  -17.5430   18.6850 C   0  0  0  0  0  2  0  0  0  0  0  0
  -34.8940  -15.4780   18.1170 C   0  0  0  0  0  0  0  0  0  0  0  0
  -34.2380  -13.1820   17.4900 C   0  0  0  0  0  2  0  0  0  0  0  0
  -33.0780  -13.1760   16.4790 C   0  0  0  0  0  2  0  0  0  0  0  0
  -31.7240  -13.2210   17.2100 C   0  0  0  0  0  2  0  0  0  0  0  0
  -31.6630  -14.3490   18.2730 C   0  0  0  0  0  3  0  0  0  0  0  0
  -32.9130  -14.3240   19.1830 C   0  0  0  0  0  2  0  0  0  0  0  0
  -34.1160  -14.3820   18.3310 N   0  0  0  0  0  0  0  0  0  0  0  0
  -35.7640  -15.5150   17.2390 O   0  0  0  0  0  0  0  0  0  0  0  0
  -34.7620  -16.4880   19.0070 N   0  0  0  0  0  0  0  0  0  0  0  0
  -29.7330  -15.2980   19.6890 C   0  0  0  0  0  0  0  0  0  0  0  0
  -28.6120  -14.7140   20.2130 C   0  0  0  0  0  0  0  0  0  0  0  0
  -28.6790  -13.3340   19.8510 C   0  0  0  0  0  0  0  0  0  0  0  0
  -30.4290  -14.2810   19.0510 N   0  0  0  0  0  0  0  0  0  0  0  0
  -29.8080  -13.0830   19.2010 N   0  0  0  0  0  0  0  0  0  0  0  0
  -27.7080  -12.2480   20.0350 C   0  0  0  0  0  0  0  0  0  0  0  0
  -27.8050  -11.3470   21.1180 C   0  0  0  0  0  3  0  0  0  0  0  0
  -26.8490  -10.3220   21.2830 C   0  0  0  0  0  3  0  0  0  0  0  0
  -25.7810  -10.1910   20.3630 C   0  0  0  0  0  0  0  0  0  0  0  0
  -25.7040  -11.0770   19.2740 C   0  0  0  0  0  3  0  0  0  0  0  0
  -26.6580  -12.0930   19.1080 C   0  0  0  0  0  3  0  0  0  0  0  0
  -24.8210   -9.2110   20.4300 O   0  0  0  0  0  0  0  0  0  0  0  0
  -24.0010   -9.0800   21.5220 C   0  0  0  0  0  0  0  0  0  0  0  0
  -23.0860  -10.0900   21.8910 C   0  0  0  0  0  3  0  0  0  0  0  0
  -22.2120   -9.8850   22.9780 C   0  0  0  0  0  3  0  0  0  0  0  0
  -22.2460   -8.6710   23.6900 C   0  0  0  0  0  0  0  0  0  0  0  0
  -23.1520   -7.6620   23.3200 C   0  0  0  0  0  3  0  0  0  0  0  0
  -24.0260   -7.8660   22.2360 C   0  0  0  0  0  0  0  0  0  0  0  0
  -24.8830   -6.8820   21.8710 F   0  0  0  0  0  0  0  0  0  0  0  0
  -21.4020   -8.4710   24.7290 F   0  0  0  0  0  0  0  0  0  0  0  0
  -27.4890  -15.4110   20.9250 C   0  0  0  0  0  0  0  0  0  0  0  0
  -26.8610  -14.7410   21.8860 N   0  0  0  0  0  0  0  0  0  0  0  0
  -27.1930  -16.5770   20.6650 O   0  0  0  0  0  0  0  0  0  0  0  0
  -27.1160  -13.7920   22.1130 H   0  0  0  0  0  0  0  0  0  0  0  0
  -26.1140  -15.1850   22.4010 H   0  0  0  0  0  0  0  0  0  0  0  0
  -30.2070  -16.6060   19.6780 N   0  0  0  0  0  0  0  0  0  0  0  0
  -29.6560  -17.3750   20.0440 H   0  0  0  0  0  0  0  0  0  0  0  0
  -31.0070  -16.9120   19.1390 H   0  0  0  0  0  0  0  0  0  0  0  0
  -36.6150  -18.1980   19.2390 C   0  0  0  0  0  1  0  0  0  0  0  0
  -35.9460  -16.9160   19.7770 C   0  0  0  0  0  2  0  0  0  0  0  0
  -31.9810  -22.2650   20.6870 C   0  0  0  0  0  2  0  0  0  0  0  0
  -30.0730  -23.8950   21.2080 C   0  0  0  0  0  1  0  0  0  0  0  0
  -31.5850  -23.6130   21.3380 C   0  0  0  0  0  3  0  0  0  0  0  0
  -32.4250  -24.7580   20.7260 C   0  0  0  0  0  2  0  0  0  0  0  0
  -32.3000  -26.0960   21.4740 C   0  0  0  0  0  2  0  0  0  0  0  0
  -32.8590  -27.2870   20.6700 C   0  0  0  0  0  2  0  0  0  0  0  0
  -32.4290  -28.5340   21.2170 O   0  0  0  0  0  0  0  0  0  0  0  0
  -27.2760  -30.6090   25.6250 C   0  0  0  0  0  0  0  0  0  0  0  0
  -31.0800  -28.7850   21.3430 C   0  0  0  0  0  0  0  0  0  0  0  0
  -26.5180  -29.7230   23.4430 C   0  0  0  0  0  3  0  0  0  0  0  0
  -28.3380  -29.3840   21.6940 C   0  0  0  0  0  0  0  0  0  0  0  0
  -28.8080  -30.8360   23.6750 C   0  0  0  0  0  2  0  0  0  0  0  0
  -29.2920  -29.9340   22.5600 C   0  0  0  0  0  0  0  0  0  0  0  0
  -30.6600  -29.6420   22.3840 C   0  0  0  0  0  3  0  0  0  0  0  0
  -30.1040  -28.2360   20.4780 C   0  0  0  0  0  3  0  0  0  0  0  0
  -28.7390  -28.5310   20.6520 C   0  0  0  0  0  3  0  0  0  0  0  0
  -26.8950  -29.7540   21.9380 C   0  0  0  0  0  2  0  0  0  0  0  0
  -27.5480  -30.3820   24.3090 N   0  0  0  0  0  0  0  0  0  0  0  0
  -26.1740  -30.3170   26.1100 O   0  0  0  0  0  0  0  0  0  0  0  0
  -26.2270  -28.2590   23.8450 C   0  0  0  0  0  0  0  0  0  0  0  0
  -25.2770  -27.6240   23.1410 N   0  0  0  0  0  0  0  0  0  0  0  0
  -26.8660  -27.7120   24.7490 O   0  0  0  0  0  0  0  0  0  0  0  0
  -24.7930  -28.1450   22.4230 H   0  0  0  0  0  0  0  0  0  0  0  0
  -23.2610  -24.9870   21.7140 C   0  0  0  0  0  0  0  0  0  0  0  0
  -24.8600  -26.2330   23.3180 C   0  0  0  0  0  3  0  0  0  0  0  0
  -25.9520  -25.2560   22.8220 C   0  0  0  0  0  2  0  0  0  0  0  0
  -25.7630  -24.8290   21.3640 C   0  0  0  0  0  2  0  0  0  0  0  0
  -24.4050  -24.1440   21.1770 C   0  0  0  0  0  2  0  0  0  0  0  0
  -23.4780  -25.9790   22.7070 C   0  0  0  0  0  0  0  0  0  0  0  0
  -22.3870  -26.7610   23.1430 C   0  0  0  0  0  3  0  0  0  0  0  0
  -21.1000  -26.5630   22.6090 C   0  0  0  0  0  3  0  0  0  0  0  0
  -20.8870  -25.5690   21.6390 C   0  0  0  0  0  3  0  0  0  0  0  0
  -21.9650  -24.7810   21.1970 C   0  0  0  0  0  3  0  0  0  0  0  0
  -28.3230  -31.2660   26.5760 C   0  0  0  0  0  3  0  0  0  0  0  0
  -28.7680  -30.3230   27.7620 C   0  0  1  0  0  0  0  0  0  0  0  0
  -27.5930  -29.5770   28.4360 C   0  0  0  0  0  1  0  0  0  0  0  0
  -29.7800  -29.2640   27.2660 C   0  0  0  0  0  1  0  0  0  0  0  0
  -29.4950  -31.1530   28.8470 C   0  0  0  0  0  1  0  0  0  0  0  0
  -27.7320  -32.5080   27.0930 N   0  0  0  0  0  0  0  0  0  0  0  0
  -28.0300  -33.7340   26.6450 C   0  0  0  0  0  0  0  0  0  0  0  0
  -28.8970  -33.9440   25.7920 O   0  0  0  0  0  0  0  0  0  0  0  0
  -26.9760  -32.4080   27.7540 H   0  0  0  0  0  0  0  0  0  0  0  0
  -26.1690  -35.3750   26.2360 C   0  0  0  0  0  1  0  0  0  0  0  0
  -27.2420  -34.9180   27.2370 C   0  0  0  0  0  3  0  0  0  0  0  0
  -29.0250  -35.7660   28.6960 C   0  0  0  0  0  1  0  0  0  0  0  0
  -28.0980  -36.0670   27.6100 N   0  0  0  0  0  0  0  0  0  0  0  0
  -27.5310  -36.8620   27.8880 H   0  0  0  0  0  0  0  0  0  0  0  0
  1  2  2  0
  3  7  1  0
  3  4  1  0
  3  5  1  0
  4  1  1  0
  5  2  1  0
  6  5  1  0
  7  8  1  0
  9 18  1  0
  9  8  1  0
 10 16  1  0
 10 18  1  0
 11 16  1  0
 12 13  1  0
 12 11  1  0
 14 13  1  0
 14 22  1  0
 14 15  1  0
 16 15  1  0
 17 10  2  0
 18 48  1  0
 19 20  2  0
 20 39  1  0
 21 24  1  0
 21 20  1  0
 22 23  1  0
 22 19  1  0
 23 21  2  0
 24 25  1  0
 25 26  2  0
 27 30  1  0
 27 26  1  0
 28 27  2  0
 29 28  1  0
 29 24  2  0
 30 31  1  0
 31 32  2  0
 31 36  1  0
 32 33  1  0
 33 34  2  0
 34 38  1  0
 35 34  1  0
 36 35  2  0
 37 36  1  0
 39 40  1  0
 40 42  1  0
 40 43  1  0
 41 39  2  0
 44 19  1  0
 44 45  1  0
 46 44  1  0
 47 48  1  0
 49  4  1  0
 49 51  1  0
 51 50  1  0
 52 51  1  0
 52 53  1  0
 54 55  1  0
 54 53  1  0
 55 57  1  0
 56 67  2  0
 57 62  1  0
 58 68  1  0
 58 66  1  0
 59 65  1  0
 59 61  1  0
 60 66  1  0
 61 60  1  0
 62 61  2  0
 63 64  1  0
 63 57  2  0
 64 59  2  0
 65 58  1  0
 66 56  1  0
 68 70  2  0
 69 68  1  0
 71 69  1  0
 72 77  1  0
 73 69  1  0
 74 73  1  0
 75 74  1  0
 76 75  1  0
 76 72  1  0
 77 78  2  0
 77 73  1  0
 79 78  1  0
 80 79  2  0
 81 80  1  0
 81 72  2  0
 82 56  1  0
 82 87  1  0
 82 83  1  0
 83 84  1  1
 83 86  1  0
 85 83  1  0
 87 90  1  0
 88 87  1  0
 88 92  1  0
 89 88  2  0
 92 91  1  0
 92 94  1  0
 94 95  1  0
 94 93  1  0
M  ISO  4  10 100  18 100  54 101  55 101
M  END
>  <TORSDO>  (54) 
F 25

>  <SCORE>  (54) 
0.040

>  <name>  (54) 
54

>  <ligand_id>  (54) 
54

>  <original_smiles>  (54) 
[H]c1c([H])c([H])c2c(c1[H])C([H])([H])C([H])([H])C([H])([H])C2([H])N([H])C(=O)C1([H])N(C(=O)C([H])(N([H])C(=O)C([H])(N([H])C([H])([H])[H])C([H])([H])[H])C(C([H])([H])[H])(C([H])([H])[H])C([H])([H])[H])C([H])([H])c2c([H])c(OC([H])([H])C([H])([H])C([H])([H])C([H])(C([H])([H])[H])C([H])([H])n3c([H])c([H])[n+]([H])c3C([H])([H])C([H])([H])C([H])([H])N(C(=O)N3C([H])([H])C([H])([H])C([H])([H])C([H])(n4nc(-c5c([H])c([H])c(Oc6c([H])c([H])c(F)c([H])c6F)c([H])c5[H])c(C(=O)N([H])[H])c4N([H])[H])C3([H])[H])C([H])([H])C([H])([H])[H])c([H])c([H])c2C1([H])[H]

>  <smiles>  (54) 
[H]c1c([H])c([H])c2c(c1[H])C([H])([H])C([H])([H])C([H])([H])C2([H])N([H])C(=O)C1([H])N(C(=O)C([H])(N([H])C(=O)C([H])(N([H])C([H])([H])[H])C([H])([H])[H])C(C([H])([H])[H])(C([H])([H])[H])C([H])([H])[H])C([H])([H])c2c([H])c(OC([H])([H])C([H])([H])C([H])([H])C([H])(C([H])([H])[H])C([H])([H])n3c([H])c([H])[n+]([H])c3C([H])([H])C([H])([H])C([H])([H])N(C(=O)N3C([H])([H])C([H])([H])C([H])([H])C([H])(n4nc(-c5c([H])c([H])c(Oc6c([H])c([H])c(F)c([H])c6F)c([H])c5[H])c(C(=O)N([H])[H])c4N([H])[H])C3([H])[H])C([H])([H])C([H])([H])[H])c([H])c([H])c2C1([H])[H]

$$$$
55:0:0
     RDKit          3D

 94102  0  0  1  0  0  0  0  0999 V2000
  -32.3040  -22.8740   20.6680 C   0  0  0  0  0  3  0  0  0  0  0  0
  -30.9480  -21.1060   19.1340 C   0  0  0  0  0  3  0  0  0  0  0  0
  -31.2010  -23.2730   19.8780 C   0  0  0  0  0  0  0  0  0  0  0  0
  -32.0370  -20.6990   19.9410 C   0  0  0  0  0  0  0  0  0  0  0  0
  -30.5200  -22.3910   19.1070 N   0  0  0  0  0  0  0  0  0  0  0  0
  -32.7250  -21.5850   20.7060 N   0  0  0  0  0  0  0  0  0  0  0  0
  -30.6630  -24.6930   19.9030 C   0  0  0  0  0  2  0  0  0  0  0  0
  -29.5020  -24.8380   20.9040 C   0  0  0  0  0  2  0  0  0  0  0  0
  -28.2480  -25.5010   20.3240 C   0  0  0  0  0  2  0  0  0  0  0  0
  -28.4110  -26.9090   20.1520 O   0  0  0  0  0  0  0  0  0  0  0  0
  -24.5450  -31.9820   23.2500 C   0  0  0  0  0  0  0  0  0  0  0  0
  -27.2320  -27.6170   20.1230 C   0  0  0  0  0  0  0  0  0  0  0  0
  -23.3480  -30.5800   21.5990 C   0  0  0  0  0  3  0  0  0  0  0  0
  -24.8150  -29.0800   20.1540 C   0  0  0  0  0  0  0  0  0  0  0  0
  -25.8660  -30.9810   21.3900 C   0  0  0  0  0  2  0  0  0  0  0  0
  -25.9670  -29.6180   20.7390 C   0  0  0  0  0  0  0  0  0  0  0  0
  -27.1800  -28.8950   20.7180 C   0  0  0  0  0  3  0  0  0  0  0  0
  -26.0590  -27.0910   19.5300 C   0  0  0  0  0  3  0  0  0  0  0  0
  -24.8550  -27.8160   19.5440 C   0  0  0  0  0  3  0  0  0  0  0  0
  -23.5600  -29.9200   20.2120 C   0  0  0  0  0  2  0  0  0  0  0  0
  -24.6060  -31.1930   22.1390 N   0  0  0  0  0  0  0  0  0  0  0  0
  -23.4630  -32.2350   23.7970 O   0  0  0  0  0  0  0  0  0  0  0  0
  -22.7170  -29.5400   22.5530 C   0  0  0  0  0  0  0  0  0  0  0  0
  -21.3980  -29.3290   22.4170 N   0  0  0  0  0  0  0  0  0  0  0  0
  -23.4110  -28.9280   23.3700 O   0  0  0  0  0  0  0  0  0  0  0  0
  -20.8990  -29.8820   21.7330 H   0  0  0  0  0  0  0  0  0  0  0  0
  -18.0510  -28.0530   22.8800 C   0  0  0  0  0  0  0  0  0  0  0  0
  -20.5990  -28.3700   23.1770 C   0  0  0  0  0  3  0  0  0  0  0  0
  -20.7400  -26.9410   22.6000 C   0  0  0  0  0  2  0  0  0  0  0  0
  -19.6550  -26.5950   21.5750 C   0  0  0  0  0  2  0  0  0  0  0  0
  -18.2650  -26.7070   22.2070 C   0  0  0  0  0  2  0  0  0  0  0  0
  -19.1470  -28.8390   23.3220 C   0  0  0  0  0  0  0  0  0  0  0  0
  -18.8950  -30.0990   23.9100 C   0  0  0  0  0  3  0  0  0  0  0  0
  -17.5780  -30.5690   24.0640 C   0  0  0  0  0  3  0  0  0  0  0  0
  -16.4950  -29.7810   23.6380 C   0  0  0  0  0  3  0  0  0  0  0  0
  -16.7320  -28.5250   23.0500 C   0  0  0  0  0  3  0  0  0  0  0  0
  -25.8270  -32.6230   23.8690 C   0  0  0  0  0  3  0  0  0  0  0  0
  -25.5110  -34.0200   24.1950 N   0  0  0  0  0  0  0  0  0  0  0  0
  -25.8360  -35.0700   23.4280 C   0  0  0  0  0  0  0  0  0  0  0  0
  -26.5040  -34.9660   22.3970 O   0  0  0  0  0  0  0  0  0  0  0  0
  -24.9210  -34.1760   24.9990 H   0  0  0  0  0  0  0  0  0  0  0  0
  -24.1020  -36.8510   23.0550 C   0  0  0  0  0  1  0  0  0  0  0  0
  -25.3380  -36.4560   23.8780 C   0  0  0  0  0  3  0  0  0  0  0  0
  -27.4620  -37.3550   24.7210 C   0  0  0  0  0  1  0  0  0  0  0  0
  -26.3660  -37.5140   23.7690 N   0  0  0  0  0  0  0  0  0  0  0  0
  -25.9530  -38.4320   23.9110 H   0  0  0  0  0  0  0  0  0  0  0  0
  -26.3510  -31.8560   25.1450 C   0  0  1  0  0  0  0  0  0  0  0  0
  -25.2570  -31.5980   26.2090 C   0  0  0  0  0  1  0  0  0  0  0  0
  -26.9590  -30.4920   24.7470 C   0  0  0  0  0  1  0  0  0  0  0  0
  -27.4820  -32.6690   25.8170 C   0  0  0  0  0  1  0  0  0  0  0  0
  -32.4730  -19.2360   19.9780 C   0  0  0  0  0  2  0  0  0  0  0  0
  -32.0910  -18.8560   22.4030 C   0  0  0  0  0  1  0  0  0  0  0  0
  -31.7480  -18.4520   21.0160 N   0  0  2  0  0  4  0  0  0  0  0  0
  -30.7770  -18.6930   20.8970 H   0  0  0  0  0  0  0  0  0  0  0  0
  -31.8300  -16.9760   20.8150 C   0  0  0  0  0  2  0  0  0  0  0  0
  -30.4180  -16.3380   20.7610 C   0  0  0  0  0  2  0  0  0  0  0  0
  -30.4890  -14.1590   19.6040 C   0  0  0  0  0  0  0  0  0  0  0  0
  -29.9460  -12.0510   18.4390 C   0  0  0  0  0  2  0  0  0  0  0  0
  -28.8220  -12.1960   17.3970 C   0  0  0  0  0  2  0  0  0  0  0  0
  -27.4470  -12.0060   18.0590 C   0  0  0  0  0  2  0  0  0  0  0  0
  -27.2750  -12.8890   19.3200 C   0  0  0  0  0  3  0  0  0  0  0  0
  -28.4890  -12.7610   20.2650 C   0  0  0  0  0  2  0  0  0  0  0  0
  -29.7380  -13.0260   19.5190 N   0  0  0  0  0  0  0  0  0  0  0  0
  -31.2160  -14.5450   18.6840 O   0  0  0  0  0  0  0  0  0  0  0  0
  -30.6970  -14.2440   22.0600 C   0  0  0  0  0  1  0  0  0  0  0  0
  -30.4060  -14.8630   20.7590 N   0  0  0  0  0  0  0  0  0  0  0  0
  -25.0380  -13.4470   20.4700 C   0  0  0  0  0  0  0  0  0  0  0  0
  -24.0490  -12.6510   20.9820 C   0  0  0  0  0  0  0  0  0  0  0  0
  -24.4940  -11.3050   20.8040 C   0  0  0  0  0  0  0  0  0  0  0  0
  -26.0230  -12.5860   20.0130 N   0  0  0  0  0  0  0  0  0  0  0  0
  -25.7080  -11.2890   20.2700 N   0  0  0  0  0  0  0  0  0  0  0  0
  -23.8090  -10.0290   21.0600 C   0  0  0  0  0  0  0  0  0  0  0  0
  -24.3250   -9.0850   21.9730 C   0  0  0  0  0  3  0  0  0  0  0  0
  -23.6410   -7.8730   22.2140 C   0  0  0  0  0  3  0  0  0  0  0  0
  -22.4250   -7.6010   21.5420 C   0  0  0  0  0  0  0  0  0  0  0  0
  -21.9270   -8.5360   20.6170 C   0  0  0  0  0  3  0  0  0  0  0  0
  -22.6130   -9.7380   20.3760 C   0  0  0  0  0  3  0  0  0  0  0  0
  -21.7060   -6.4390   21.6930 O   0  0  0  0  0  0  0  0  0  0  0  0
  -21.6760   -5.7600   22.8840 C   0  0  0  0  0  0  0  0  0  0  0  0
  -21.2210   -6.3670   24.0750 C   0  0  0  0  0  3  0  0  0  0  0  0
  -21.1410   -5.6130   25.2630 C   0  0  0  0  0  3  0  0  0  0  0  0
  -21.5040   -4.2530   25.2600 C   0  0  0  0  0  0  0  0  0  0  0  0
  -21.9510   -3.6450   24.0730 C   0  0  0  0  0  3  0  0  0  0  0  0
  -22.0330   -4.3970   22.8870 C   0  0  0  0  0  0  0  0  0  0  0  0
  -22.4440   -3.8020   21.7410 F   0  0  0  0  0  0  0  0  0  0  0  0
  -21.4200   -3.5260   26.3980 F   0  0  0  0  0  0  0  0  0  0  0  0
  -22.7230  -13.1050   21.5240 C   0  0  0  0  0  0  0  0  0  0  0  0
  -22.1730  -12.3750   22.4890 N   0  0  0  0  0  0  0  0  0  0  0  0
  -22.1870  -14.1380   21.1250 O   0  0  0  0  0  0  0  0  0  0  0  0
  -22.6210  -11.5370   22.8260 H   0  0  0  0  0  0  0  0  0  0  0  0
  -21.2940  -12.6600   22.8970 H   0  0  0  0  0  0  0  0  0  0  0  0
  -25.1740  -14.8260   20.3350 N   0  0  0  0  0  0  0  0  0  0  0  0
  -24.4530  -15.4750   20.6270 H   0  0  0  0  0  0  0  0  0  0  0  0
  -25.9620  -15.2830   19.8910 H   0  0  0  0  0  0  0  0  0  0  0  0
  1  6  1  0
  2  4  1  0
  3  7  1  0
  3  1  2  0
  4 51  1  0
  4  6  2  0
  5  2  2  0
  5  3  1  0
  7  8  1  0
  9  8  1  0
 10  9  1  0
 11 22  2  0
 12 10  1  0
 12 17  1  0
 13 21  1  0
 13 23  1  0
 14 20  1  0
 14 16  1  0
 15 21  1  0
 16 15  1  0
 17 16  2  0
 18 19  1  0
 18 12  2  0
 19 14  2  0
 20 13  1  0
 21 11  1  0
 23 25  2  0
 24 23  1  0
 26 24  1  0
 27 36  2  0
 27 32  1  0
 28 24  1  0
 28 32  1  0
 29 28  1  0
 30 31  1  0
 30 29  1  0
 31 27  1  0
 32 33  2  0
 33 34  1  0
 35 34  2  0
 36 35  1  0
 37 11  1  0
 37 38  1  0
 37 47  1  0
 38 41  1  0
 39 43  1  0
 39 38  1  0
 40 39  2  0
 43 42  1  0
 45 43  1  0
 45 46  1  0
 45 44  1  0
 47 50  1  1
 47 48  1  0
 49 47  1  0
 51 53  1  0
 53 52  1  0
 53 54  1  6
 55 53  1  0
 56 55  1  0
 57 66  1  0
 58 63  1  0
 59 60  1  0
 59 58  1  0
 61 60  1  0
 61 70  1  0
 61 62  1  0
 63 57  1  0
 63 62  1  0
 64 57  2  0
 66 56  1  0
 66 65  1  0
 67 68  2  0
 68 87  1  0
 69 68  1  0
 69 72  1  0
 70 71  1  0
 70 67  1  0
 71 69  2  0
 72 73  1  0
 73 74  2  0
 75 78  1  0
 75 74  1  0
 76 75  2  0
 77 76  1  0
 77 72  2  0
 78 79  1  0
 79 84  2  0
 79 80  1  0
 80 81  2  0
 82 81  1  0
 82 86  1  0
 83 82  2  0
 84 83  1  0
 85 84  1  0
 87 88  1  0
 88 90  1  0
 88 91  1  0
 89 87  2  0
 92 67  1  0
 92 93  1  0
 94 92  1  0
M  ISO  4   9 101  10 101  57 100  66 100
M  END
>  <TORSDO>  (55) 
F 23

>  <SCORE>  (55) 
-10.504

>  <name>  (55) 
55

>  <ligand_id>  (55) 
55

>  <original_smiles>  (55) 
[H]c1nc(C([H])([H])[N+]([H])(C([H])([H])[H])C([H])([H])C([H])([H])N(C(=O)N2C([H])([H])C([H])([H])C([H])([H])C([H])(n3nc(-c4c([H])c([H])c(Oc5c([H])c([H])c(F)c([H])c5F)c([H])c4[H])c(C(=O)N([H])[H])c3N([H])[H])C2([H])[H])C([H])([H])[H])c([H])nc1C([H])([H])C([H])([H])C([H])([H])Oc1c([H])c([H])c2c(c1[H])C([H])([H])N(C(=O)C([H])(N([H])C(=O)C([H])(N([H])C([H])([H])[H])C([H])([H])[H])C(C([H])([H])[H])(C([H])([H])[H])C([H])([H])[H])C([H])(C(=O)N([H])C1([H])c3c([H])c([H])c([H])c([H])c3C([H])([H])C([H])([H])C1([H])[H])C2([H])[H]

>  <smiles>  (55) 
[H]c1nc(C([H])([H])[N+]([H])(C([H])([H])[H])C([H])([H])C([H])([H])N(C(=O)N2C([H])([H])C([H])([H])C([H])([H])C([H])(n3nc(-c4c([H])c([H])c(Oc5c([H])c([H])c(F)c([H])c5F)c([H])c4[H])c(C(=O)N([H])[H])c3N([H])[H])C2([H])[H])C([H])([H])[H])c([H])nc1C([H])([H])C([H])([H])C([H])([H])Oc1c([H])c([H])c2c(c1[H])C([H])([H])N(C(=O)C([H])(N([H])C(=O)C([H])(N([H])C([H])([H])[H])C([H])([H])[H])C(C([H])([H])[H])(C([H])([H])[H])C([H])([H])[H])C([H])(C(=O)N([H])C1([H])c3c([H])c([H])c([H])c([H])c3C([H])([H])C([H])([H])C1([H])[H])C2([H])[H]

$$$$
56:0:0
     RDKit          3D

 94102  0  0  1  0  0  0  0  0999 V2000
  -29.2010  -21.3240   22.2240 C   0  0  0  0  0  3  0  0  0  0  0  0
  -29.6870  -22.5980   22.0360 C   0  0  0  0  0  0  0  0  0  0  0  0
  -31.3990  -21.1590   21.9820 C   0  0  0  0  0  3  0  0  0  0  0  0
  -32.8100  -20.6640   21.9060 C   0  0  0  0  0  1  0  0  0  0  0  0
  -30.2680  -20.4560   22.1850 N   0  0  0  0  0  0  0  0  0  0  0  0
  -31.0400  -22.4440   21.8670 N   0  0  0  0  0  0  0  0  0  0  0  0
  -31.6950  -23.2030   21.7160 H   0  0  0  0  0  0  0  0  0  0  0  0
  -29.0210  -23.9460   22.0850 C   0  0  0  0  0  2  0  0  0  0  0  0
  -28.8860  -24.6700   20.7250 C   0  0  0  0  0  2  0  0  0  0  0  0
  -28.5490  -26.1660   20.9280 C   0  0  0  0  0  2  0  0  0  0  0  0
  -28.1760  -26.8140   19.7080 O   0  0  0  0  0  0  0  0  0  0  0  0
  -24.6310  -31.9360   23.1900 C   0  0  0  0  0  0  0  0  0  0  0  0
  -27.0430  -27.5840   19.8160 C   0  0  0  0  0  0  0  0  0  0  0  0
  -23.3160  -30.6020   21.5730 C   0  0  0  0  0  3  0  0  0  0  0  0
  -24.6700  -29.0960   20.0200 C   0  0  0  0  0  0  0  0  0  0  0  0
  -25.8270  -30.9430   21.2430 C   0  0  0  0  0  2  0  0  0  0  0  0
  -25.8620  -29.5910   20.5610 C   0  0  0  0  0  0  0  0  0  0  0  0
  -27.0560  -28.8390   20.4650 C   0  0  0  0  0  3  0  0  0  0  0  0
  -25.8420  -27.1000   19.2670 C   0  0  0  0  0  3  0  0  0  0  0  0
  -24.6530  -27.8480   19.3720 C   0  0  0  0  0  3  0  0  0  0  0  0
  -23.4380  -29.9640   20.1630 C   0  0  0  0  0  2  0  0  0  0  0  0
  -24.6130  -31.1720   22.0610 N   0  0  0  0  0  0  0  0  0  0  0  0
  -23.5860  -32.2030   23.8000 O   0  0  0  0  0  0  0  0  0  0  0  0
  -22.7080  -29.5580   22.5380 C   0  0  0  0  0  0  0  0  0  0  0  0
  -21.3850  -29.3500   22.4370 N   0  0  0  0  0  0  0  0  0  0  0  0
  -23.4220  -28.9380   23.3300 O   0  0  0  0  0  0  0  0  0  0  0  0
  -20.8700  -29.9060   21.7680 H   0  0  0  0  0  0  0  0  0  0  0  0
  -18.0540  -28.0450   22.9490 C   0  0  0  0  0  0  0  0  0  0  0  0
  -20.6030  -28.3890   23.2130 C   0  0  0  0  0  3  0  0  0  0  0  0
  -20.7500  -26.9600   22.6440 C   0  0  0  0  0  2  0  0  0  0  0  0
  -19.6570  -26.5970   21.6330 C   0  0  0  0  0  2  0  0  0  0  0  0
  -18.2730  -26.6990   22.2800 C   0  0  0  0  0  2  0  0  0  0  0  0
  -19.1480  -28.8460   23.3740 C   0  0  0  0  0  0  0  0  0  0  0  0
  -18.8910  -30.1030   23.9620 C   0  0  0  0  0  3  0  0  0  0  0  0
  -17.5710  -30.5630   24.1290 C   0  0  0  0  0  3  0  0  0  0  0  0
  -16.4900  -29.7600   23.7230 C   0  0  0  0  0  3  0  0  0  0  0  0
  -16.7330  -28.5030   23.1380 C   0  0  0  0  0  3  0  0  0  0  0  0
  -25.9590  -32.5310   23.7540 C   0  0  0  0  0  3  0  0  0  0  0  0
  -25.6910  -33.9270   24.1300 N   0  0  0  0  0  0  0  0  0  0  0  0
  -26.0280  -34.9910   23.3900 C   0  0  0  0  0  0  0  0  0  0  0  0
  -26.6670  -34.8990   22.3370 O   0  0  0  0  0  0  0  0  0  0  0  0
  -25.1170  -34.0740   24.9470 H   0  0  0  0  0  0  0  0  0  0  0  0
  -24.3390  -36.8340   23.1260 C   0  0  0  0  0  1  0  0  0  0  0  0
  -25.5880  -36.3770   23.8960 C   0  0  0  0  0  3  0  0  0  0  0  0
  -27.7610  -37.1840   24.7010 C   0  0  0  0  0  1  0  0  0  0  0  0
  -26.6440  -37.4060   23.7880 N   0  0  0  0  0  0  0  0  0  0  0  0
  -26.2660  -38.3320   23.9690 H   0  0  0  0  0  0  0  0  0  0  0  0
  -26.5310  -31.7180   24.9800 C   0  0  1  0  0  0  0  0  0  0  0  0
  -25.4920  -31.4620   26.0970 C   0  0  0  0  0  1  0  0  0  0  0  0
  -27.0730  -30.3450   24.5170 C   0  0  0  0  0  1  0  0  0  0  0  0
  -27.7300  -32.4770   25.5960 C   0  0  0  0  0  1  0  0  0  0  0  0
  -30.2050  -18.9880   22.3910 C   0  0  0  0  0  2  0  0  0  0  0  0
  -30.6740  -18.1800   21.1630 C   0  0  0  0  0  2  0  0  0  0  0  0
  -30.1760  -16.7130   21.0670 C   0  0  0  0  0  2  0  0  0  0  0  0
  -31.4810  -14.7940   20.1660 C   0  0  0  0  0  0  0  0  0  0  0  0
  -31.0440  -12.6590   19.0320 C   0  0  0  0  0  2  0  0  0  0  0  0
  -30.0980  -12.9050   17.8380 C   0  0  0  0  0  2  0  0  0  0  0  0
  -28.6260  -12.8490   18.2880 C   0  0  0  0  0  2  0  0  0  0  0  0
  -28.3410  -13.6800   19.5700 C   0  0  0  0  0  3  0  0  0  0  0  0
  -29.4090  -13.4310   20.6580 C   0  0  0  0  0  2  0  0  0  0  0  0
  -30.7250  -13.6670   20.0540 N   0  0  0  0  0  0  0  0  0  0  0  0
  -32.6840  -14.7920   19.9040 O   0  0  0  0  0  0  0  0  0  0  0  0
  -30.7930  -15.9510   19.9540 N   0  0  0  0  0  0  0  0  0  0  0  0
  -25.9650  -14.3620   20.2860 C   0  0  0  0  0  0  0  0  0  0  0  0
  -24.8760  -13.6210   20.6600 C   0  0  0  0  0  0  0  0  0  0  0  0
  -25.3000  -12.2570   20.6360 C   0  0  0  0  0  0  0  0  0  0  0  0
  -26.9860  -13.4490   20.0650 N   0  0  0  0  0  0  0  0  0  0  0  0
  -26.5900  -12.1800   20.3340 N   0  0  0  0  0  0  0  0  0  0  0  0
  -24.5380  -11.0170   20.8290 C   0  0  0  0  0  0  0  0  0  0  0  0
  -24.8890  -10.0820   21.8270 C   0  0  0  0  0  3  0  0  0  0  0  0
  -24.1290   -8.9070   22.0060 C   0  0  0  0  0  3  0  0  0  0  0  0
  -23.0020   -8.6580   21.1850 C   0  0  0  0  0  0  0  0  0  0  0  0
  -22.6720   -9.5790   20.1760 C   0  0  0  0  0  3  0  0  0  0  0  0
  -23.4340  -10.7470   19.9960 C   0  0  0  0  0  3  0  0  0  0  0  0
  -22.2200   -7.5300   21.2700 O   0  0  0  0  0  0  0  0  0  0  0  0
  -22.0010   -6.8960   22.4660 C   0  0  0  0  0  0  0  0  0  0  0  0
  -21.4180   -7.5600   23.5670 C   0  0  0  0  0  3  0  0  0  0  0  0
  -21.1450   -6.8510   24.7540 C   0  0  0  0  0  3  0  0  0  0  0  0
  -21.4450   -5.4780   24.8400 C   0  0  0  0  0  0  0  0  0  0  0  0
  -22.0210   -4.8140   23.7430 C   0  0  0  0  0  3  0  0  0  0  0  0
  -22.2940   -5.5210   22.5570 C   0  0  0  0  0  0  0  0  0  0  0  0
  -22.8280   -4.8690   21.4960 F   0  0  0  0  0  0  0  0  0  0  0  0
  -21.1780   -4.7930   25.9760 F   0  0  0  0  0  0  0  0  0  0  0  0
  -23.4920  -14.1370   20.9290 C   0  0  0  0  0  0  0  0  0  0  0  0
  -22.7520  -13.4740   21.8120 N   0  0  0  0  0  0  0  0  0  0  0  0
  -23.0770  -15.1640   20.3930 O   0  0  0  0  0  0  0  0  0  0  0  0
  -23.0980  -12.6400   22.2640 H   0  0  0  0  0  0  0  0  0  0  0  0
  -21.8250  -13.8050   22.0370 H   0  0  0  0  0  0  0  0  0  0  0  0
  -26.1650  -15.7270   20.0980 N   0  0  0  0  0  0  0  0  0  0  0  0
  -25.4090  -16.3970   20.1900 H   0  0  0  0  0  0  0  0  0  0  0  0
  -27.0280  -16.1500   19.7850 H   0  0  0  0  0  0  0  0  0  0  0  0
  -29.6920  -17.3760   18.1660 C   0  0  0  0  0  1  0  0  0  0  0  0
  -32.2560  -17.4420   18.4530 C   0  0  0  0  0  1  0  0  0  0  0  0
  -30.9520  -16.6210   18.6300 C   0  0  0  0  0  3  0  0  0  0  0  0
  2  8  1  0
  2  1  2  0
  3  4  1  0
  3  5  1  0
  5  1  1  0
  5 52  1  0
  6  3  1  0
  6  2  1  0
  7  6  1  0
  9 10  1  0
  9  8  1  0
 11 13  1  0
 11 10  1  0
 12 23  2  0
 13 18  1  0
 14 22  1  0
 14 24  1  0
 15 21  1  0
 15 17  1  0
 16 22  1  0
 17 16  1  0
 18 17  2  0
 19 20  1  0
 19 13  2  0
 20 15  2  0
 21 14  1  0
 22 12  1  0
 24 26  2  0
 25 24  1  0
 27 25  1  0
 28 37  2  0
 28 33  1  0
 29 25  1  0
 29 33  1  0
 30 29  1  0
 31 32  1  0
 31 30  1  0
 32 28  1  0
 33 34  2  0
 34 35  1  0
 36 35  2  0
 37 36  1  0
 38 12  1  0
 38 39  1  0
 38 48  1  0
 39 42  1  0
 40 44  1  0
 40 39  1  0
 41 40  2  0
 44 43  1  0
 46 44  1  0
 46 47  1  0
 46 45  1  0
 48 51  1  1
 48 49  1  0
 50 48  1  0
 53 52  1  0
 54 53  1  0
 56 61  1  0
 57 58  1  0
 57 56  1  0
 59 58  1  0
 59 67  1  0
 59 60  1  0
 61 55  1  0
 61 60  1  0
 62 55  2  0
 63 55  1  0
 63 54  1  0
 64 65  2  0
 65 84  1  0
 66 65  1  0
 66 69  1  0
 67 64  1  0
 67 68  1  0
 68 66  2  0
 69 70  1  0
 70 71  2  0
 72 75  1  0
 72 71  1  0
 73 72  2  0
 74 73  1  0
 74 69  2  0
 75 76  1  0
 76 81  2  0
 76 77  1  0
 77 78  2  0
 78 79  1  0
 79 83  1  0
 80 79  2  0
 81 80  1  0
 82 81  1  0
 84 85  1  0
 85 88  1  0
 85 87  1  0
 86 84  2  0
 89 90  1  0
 89 64  1  0
 91 89  1  0
 92 94  1  0
 93 94  1  0
 94 63  1  0
M  ISO  4  10 101  11 101  55 100  63 100
M  END
>  <TORSDO>  (56) 
F 23

>  <SCORE>  (56) 
-11.332

>  <name>  (56) 
56

>  <ligand_id>  (56) 
56

>  <original_smiles>  (56) 
[H]c1c([H])c([H])c2c(c1[H])C([H])([H])C([H])([H])C([H])([H])C2([H])N([H])C(=O)C1([H])N(C(=O)C([H])(N([H])C(=O)C([H])(N([H])C([H])([H])[H])C([H])([H])[H])C(C([H])([H])[H])(C([H])([H])[H])C([H])([H])[H])C([H])([H])c2c([H])c(OC([H])([H])C([H])([H])C([H])([H])c3c([H])n(C([H])([H])C([H])([H])C([H])([H])N(C(=O)N4C([H])([H])C([H])([H])C([H])([H])C([H])(n5nc(-c6c([H])c([H])c(Oc7c([H])c([H])c(F)c([H])c7F)c([H])c6[H])c(C(=O)N([H])[H])c5N([H])[H])C4([H])[H])C([H])(C([H])([H])[H])C([H])([H])[H])c(C([H])([H])[H])[n+]3[H])c([H])c([H])c2C1([H])[H]

>  <smiles>  (56) 
[H]c1c([H])c([H])c2c(c1[H])C([H])([H])C([H])([H])C([H])([H])C2([H])N([H])C(=O)C1([H])N(C(=O)C([H])(N([H])C(=O)C([H])(N([H])C([H])([H])[H])C([H])([H])[H])C(C([H])([H])[H])(C([H])([H])[H])C([H])([H])[H])C([H])([H])c2c([H])c(OC([H])([H])C([H])([H])C([H])([H])c3c([H])n(C([H])([H])C([H])([H])C([H])([H])N(C(=O)N4C([H])([H])C([H])([H])C([H])([H])C([H])(n5nc(-c6c([H])c([H])c(Oc7c([H])c([H])c(F)c([H])c7F)c([H])c6[H])c(C(=O)N([H])[H])c5N([H])[H])C4([H])[H])C([H])(C([H])([H])[H])C([H])([H])[H])c(C([H])([H])[H])[n+]3[H])c([H])c([H])c2C1([H])[H]

$$$$
57:0:0
     RDKit          3D

 90 98  0  0  1  0  0  0  0  0999 V2000
  -30.3480  -24.1850   19.7700 C   0  0  0  0  0  3  0  0  0  0  0  0
  -31.3500  -23.2330   19.5870 C   0  0  0  0  0  0  0  0  0  0  0  0
  -29.0710  -23.7420   20.0170 C   0  0  0  0  0  0  0  0  0  0  0  0
  -29.9130  -21.4760   20.0560 C   0  0  0  0  0  0  0  0  0  0  0  0
  -32.7160  -23.7340   19.2180 C   0  0  0  0  0  1  0  0  0  0  0  0
  -31.1570  -21.8980   19.7670 N   0  0  0  0  0  0  0  0  0  0  0  0
  -28.8720  -22.3640   20.1700 N   0  0  0  0  0  0  0  0  0  0  0  0
  -27.9210  -24.8430   19.9970 C   0  0  0  0  0  2  0  0  0  0  0  0
  -28.2440  -26.3070   20.1810 O   0  0  0  0  0  0  0  0  0  0  0  0
  -24.6250  -31.8560   23.2230 C   0  0  0  0  0  0  0  0  0  0  0  0
  -27.1790  -27.2440   20.1310 C   0  0  0  0  0  0  0  0  0  0  0  0
  -23.4150  -30.4790   21.5870 C   0  0  0  0  0  3  0  0  0  0  0  0
  -24.8330  -28.9230   20.1380 C   0  0  0  0  0  0  0  0  0  0  0  0
  -25.9640  -30.7740   21.3790 C   0  0  0  0  0  2  0  0  0  0  0  0
  -26.0270  -29.3870   20.7290 C   0  0  0  0  0  0  0  0  0  0  0  0
  -27.2010  -28.5720   20.7050 C   0  0  0  0  0  3  0  0  0  0  0  0
  -25.9580  -26.8650   19.5250 C   0  0  0  0  0  3  0  0  0  0  0  0
  -24.8130  -27.6760   19.5270 C   0  0  0  0  0  3  0  0  0  0  0  0
  -23.6160  -29.8190   20.2050 C   0  0  0  0  0  2  0  0  0  0  0  0
  -24.6980  -31.0540   22.1190 N   0  0  0  0  0  0  0  0  0  0  0  0
  -23.5490  -32.1400   23.7700 O   0  0  0  0  0  0  0  0  0  0  0  0
  -22.7500  -29.4530   22.5430 C   0  0  0  0  0  0  0  0  0  0  0  0
  -21.4180  -29.2860   22.4290 N   0  0  0  0  0  0  0  0  0  0  0  0
  -23.4310  -28.8080   23.3460 O   0  0  0  0  0  0  0  0  0  0  0  0
  -20.9250  -29.8570   21.7530 H   0  0  0  0  0  0  0  0  0  0  0  0
  -18.0350  -28.1100   22.9420 C   0  0  0  0  0  0  0  0  0  0  0  0
  -20.5990  -28.3520   23.1990 C   0  0  0  0  0  3  0  0  0  0  0  0
  -20.6820  -26.9180   22.6190 C   0  0  0  0  0  2  0  0  0  0  0  0
  -19.5730  -26.6080   21.6090 C   0  0  0  0  0  2  0  0  0  0  0  0
  -18.1990  -26.7620   22.2620 C   0  0  0  0  0  2  0  0  0  0  0  0
  -19.1620  -28.8640   23.3690 C   0  0  0  0  0  0  0  0  0  0  0  0
  -18.9530  -30.1280   23.9630 C   0  0  0  0  0  3  0  0  0  0  0  0
  -17.6520  -30.6370   24.1350 C   0  0  0  0  0  3  0  0  0  0  0  0
  -16.5400  -29.8820   23.7250 C   0  0  0  0  0  3  0  0  0  0  0  0
  -16.7340  -28.6220   23.1350 C   0  0  0  0  0  3  0  0  0  0  0  0
  -25.9130  -32.4860   23.8400 C   0  0  0  0  0  3  0  0  0  0  0  0
  -26.4400  -31.7010   25.1030 C   0  0  1  0  0  0  0  0  0  0  0  0
  -25.3630  -31.4490   26.1850 C   0  0  0  0  0  1  0  0  0  0  0  0
  -27.0170  -30.3270   24.6900 C   0  0  0  0  0  1  0  0  0  0  0  0
  -27.6050  -32.4850   25.7620 C   0  0  0  0  0  1  0  0  0  0  0  0
  -25.6110  -33.8820   24.1850 N   0  0  0  0  0  0  0  0  0  0  0  0
  -25.9290  -34.9420   23.4260 C   0  0  0  0  0  0  0  0  0  0  0  0
  -26.5850  -34.8430   22.3850 O   0  0  0  0  0  0  0  0  0  0  0  0
  -25.0300  -34.0290   24.9980 H   0  0  0  0  0  0  0  0  0  0  0  0
  -24.1930  -36.7350   23.1160 C   0  0  0  0  0  1  0  0  0  0  0  0
  -25.4510  -36.3290   23.9020 C   0  0  0  0  0  3  0  0  0  0  0  0
  -27.6050  -37.2090   24.6920 C   0  0  0  0  0  1  0  0  0  0  0  0
  -26.4790  -37.3840   23.7740 N   0  0  0  0  0  0  0  0  0  0  0  0
  -26.0760  -38.2990   23.9380 H   0  0  0  0  0  0  0  0  0  0  0  0
  -29.7670  -19.9630   20.6370 C   0  0  0  0  0  2  0  0  0  0  0  0
  -30.1270  -18.5270   19.9100 C   0  0  0  0  0  2  0  0  0  0  0  0
  -30.8570  -17.3530   20.8120 C   0  0  0  0  0  2  0  0  0  0  0  0
  -30.8010  -14.7040   20.0700 C   0  0  0  0  0  0  0  0  0  0  0  0
  -30.1620  -12.4380   19.0850 C   0  0  0  0  0  2  0  0  0  0  0  0
  -29.3440  -12.8000   17.8440 C   0  0  0  0  0  2  0  0  0  0  0  0
  -27.8580  -12.6920   18.2340 C   0  0  0  0  0  2  0  0  0  0  0  0
  -27.5330  -13.4300   19.5650 C   0  0  0  0  0  3  0  0  0  0  0  0
  -28.6440  -13.3900   20.6630 C   0  0  0  0  0  2  0  0  0  0  0  0
  -29.9910  -13.5770   20.0500 N   0  0  0  0  0  0  0  0  0  0  0  0
  -31.7780  -14.7540   19.3150 O   0  0  0  0  0  0  0  0  0  0  0  0
  -31.3130  -15.3910   22.2290 C   0  0  0  0  0  1  0  0  0  0  0  0
  -30.6280  -15.7790   20.9470 N   0  0  0  0  0  0  0  0  0  0  0  0
  -25.1750  -13.9000   20.4420 C   0  0  0  0  0  0  0  0  0  0  0  0
  -24.1540  -13.1130   20.8820 C   0  0  0  0  0  0  0  0  0  0  0  0
  -24.6230  -11.7720   20.7850 C   0  0  0  0  0  0  0  0  0  0  0  0
  -26.2180  -13.0560   20.1130 N   0  0  0  0  0  0  0  0  0  0  0  0
  -25.8940  -11.7490   20.3810 N   0  0  0  0  0  0  0  0  0  0  0  0
  -23.9050  -10.5040   20.9920 C   0  0  0  0  0  0  0  0  0  0  0  0
  -24.3770   -9.5240   21.8920 C   0  0  0  0  0  3  0  0  0  0  0  0
  -23.6410   -8.3400   22.1120 C   0  0  0  0  0  3  0  0  0  0  0  0
  -22.4100   -8.1330   21.4350 C   0  0  0  0  0  0  0  0  0  0  0  0
  -21.9600   -9.0970   20.5210 C   0  0  0  0  0  3  0  0  0  0  0  0
  -22.6980  -10.2730   20.3040 C   0  0  0  0  0  3  0  0  0  0  0  0
  -21.6500   -6.9910   21.5510 O   0  0  0  0  0  0  0  0  0  0  0  0
  -21.6480   -6.2330   22.6850 C   0  0  0  0  0  0  0  0  0  0  0  0
  -21.3090   -6.7660   23.9550 C   0  0  0  0  0  3  0  0  0  0  0  0
  -21.2580   -5.9190   25.0800 C   0  0  0  0  0  3  0  0  0  0  0  0
  -21.5390   -4.5530   24.9440 C   0  0  0  0  0  0  0  0  0  0  0  0
  -21.8700   -4.0180   23.6900 C   0  0  0  0  0  3  0  0  0  0  0  0
  -21.9240   -4.8530   22.5600 C   0  0  0  0  0  0  0  0  0  0  0  0
  -22.2200   -4.3200   21.3540 F   0  0  0  0  0  0  0  0  0  0  0  0
  -21.4820   -3.7490   26.0310 F   0  0  0  0  0  0  0  0  0  0  0  0
  -22.7810  -13.5950   21.2560 C   0  0  0  0  0  0  0  0  0  0  0  0
  -22.1070  -12.8840   22.1560 N   0  0  0  0  0  0  0  0  0  0  0  0
  -22.3250  -14.6300   20.7830 O   0  0  0  0  0  0  0  0  0  0  0  0
  -22.4900  -12.0360   22.5480 H   0  0  0  0  0  0  0  0  0  0  0  0
  -21.2100  -13.2110   22.4640 H   0  0  0  0  0  0  0  0  0  0  0  0
  -25.3120  -15.2810   20.3220 N   0  0  0  0  0  0  0  0  0  0  0  0
  -24.5080  -15.8720   20.4890 H   0  0  0  0  0  0  0  0  0  0  0  0
  -26.1050  -15.7690   19.9250 H   0  0  0  0  0  0  0  0  0  0  0  0
  1  3  1  0
  2  6  1  0
  2  1  2  0
  3  7  2  0
  4  7  1  0
  4 50  1  0
  5  2  1  0
  6  4  2  0
  8  3  1  0
  8  9  1  0
 10 21  2  0
 11  9  1  0
 11 16  1  0
 12 20  1  0
 12 22  1  0
 13 19  1  0
 13 15  1  0
 14 20  1  0
 15 14  1  0
 16 15  2  0
 17 18  1  0
 17 11  2  0
 18 13  2  0
 19 12  1  0
 20 10  1  0
 22 24  2  0
 23 22  1  0
 25 23  1  0
 26 35  2  0
 26 31  1  0
 27 23  1  0
 27 31  1  0
 28 27  1  0
 29 30  1  0
 29 28  1  0
 30 26  1  0
 31 32  2  0
 32 33  1  0
 34 33  2  0
 35 34  1  0
 36 10  1  0
 36 41  1  0
 36 37  1  0
 37 40  1  1
 37 38  1  0
 39 37  1  0
 41 44  1  0
 42 46  1  0
 42 41  1  0
 43 42  2  0
 46 45  1  0
 48 46  1  0
 48 49  1  0
 48 47  1  0
 51 50  1  0
 51 52  1  0
 52 62  1  0
 53 62  1  0
 54 59  1  0
 55 56  1  0
 55 54  1  0
 57 56  1  0
 57 66  1  0
 57 58  1  0
 59 53  1  0
 59 58  1  0
 60 53  2  0
 62 61  1  0
 63 64  2  0
 64 83  1  0
 65 64  1  0
 65 68  1  0
 66 67  1  0
 66 63  1  0
 67 65  2  0
 68 69  1  0
 69 70  2  0
 71 74  1  0
 71 70  1  0
 72 71  2  0
 73 72  1  0
 73 68  2  0
 74 75  1  0
 75 76  1  0
 76 77  2  0
 78 77  1  0
 78 82  1  0
 79 78  2  0
 80 75  2  0
 80 79  1  0
 81 80  1  0
 83 84  1  0
 84 87  1  0
 84 86  1  0
 85 83  2  0
 88 63  1  0
 88 89  1  0
 90 88  1  0
M  ISO  4   8 101   9 101  53 100  62 100
M  END
>  <TORSDO>  (57) 
F 20

>  <SCORE>  (57) 
-13.169

>  <name>  (57) 
57

>  <ligand_id>  (57) 
57

>  <original_smiles>  (57) 
[H]c1c(C([H])([H])[H])nc(C([H])([H])C([H])([H])C([H])([H])N(C(=O)N2C([H])([H])C([H])([H])C([H])([H])C([H])(n3nc(-c4c([H])c([H])c(Oc5c([H])c([H])c(F)c([H])c5F)c([H])c4[H])c(C(=O)N([H])[H])c3N([H])[H])C2([H])[H])C([H])([H])[H])nc1C([H])([H])Oc1c([H])c([H])c2c(c1[H])C([H])([H])N(C(=O)C([H])(N([H])C(=O)C([H])(N([H])C([H])([H])[H])C([H])([H])[H])C(C([H])([H])[H])(C([H])([H])[H])C([H])([H])[H])C([H])(C(=O)N([H])C1([H])c3c([H])c([H])c([H])c([H])c3C([H])([H])C([H])([H])C1([H])[H])C2([H])[H]

>  <smiles>  (57) 
[H]c1c(C([H])([H])[H])nc(C([H])([H])C([H])([H])C([H])([H])N(C(=O)N2C([H])([H])C([H])([H])C([H])([H])C([H])(n3nc(-c4c([H])c([H])c(Oc5c([H])c([H])c(F)c([H])c5F)c([H])c4[H])c(C(=O)N([H])[H])c3N([H])[H])C2([H])[H])C([H])([H])[H])nc1C([H])([H])Oc1c([H])c([H])c2c(c1[H])C([H])([H])N(C(=O)C([H])(N([H])C(=O)C([H])(N([H])C([H])([H])[H])C([H])([H])[H])C(C([H])([H])[H])(C([H])([H])[H])C([H])([H])[H])C([H])(C(=O)N([H])C1([H])c3c([H])c([H])c([H])c([H])c3C([H])([H])C([H])([H])C1([H])[H])C2([H])[H]

$$$$
58:0:0
     RDKit          3D

 94102  0  0  1  0  0  0  0  0999 V2000
  -29.9280  -22.0240   22.5150 C   0  0  0  0  0  3  0  0  0  0  0  0
  -29.4770  -20.8110   21.9510 C   0  0  0  0  0  0  0  0  0  0  0  0
  -28.4200  -21.9850   20.2630 C   0  0  0  0  0  0  0  0  0  0  0  0
  -28.9400  -23.2030   20.7920 C   0  0  0  0  0  0  0  0  0  0  0  0
  -27.6120  -21.9130   18.9780 C   0  0  0  0  0  1  0  0  0  0  0  0
  -29.6760  -23.2120   21.9310 N   0  0  0  0  0  0  0  0  0  0  0  0
  -28.6900  -20.7860   20.8440 N   0  0  0  0  0  0  0  0  0  0  0  0
  -30.0020  -19.4790   22.4590 C   0  0  0  0  0  2  0  0  0  0  0  0
  -31.1990  -18.9290   21.6380 C   0  0  0  0  0  2  0  0  0  0  0  0
  -31.3550  -19.5890   19.2900 C   0  0  0  0  0  1  0  0  0  0  0  0
  -30.8410  -18.5520   20.2320 N   0  0  1  0  0  4  0  0  0  0  0  0
  -29.8330  -18.6060   20.1850 H   0  0  0  0  0  0  0  0  0  0  0  0
  -30.7220  -16.8340   18.3740 C   0  0  0  0  0  1  0  0  0  0  0  0
  -31.2450  -17.1620   19.8010 C   0  0  0  0  0  3  0  0  0  0  0  0
  -30.8370  -15.9870   20.7610 C   0  0  0  0  0  2  0  0  0  0  0  0
  -31.4930  -14.6540   20.3190 C   0  0  0  0  0  0  0  0  0  0  0  0
  -31.1070  -12.4680   19.2580 C   0  0  0  0  0  2  0  0  0  0  0  0
  -30.1910  -12.6620   18.0310 C   0  0  0  0  0  2  0  0  0  0  0  0
  -28.7060  -12.6130   18.4440 C   0  0  0  0  0  2  0  0  0  0  0  0
  -28.3910  -13.5180   19.6670 C   0  0  0  0  0  3  0  0  0  0  0  0
  -29.4270  -13.3000   20.7940 C   0  0  0  0  0  2  0  0  0  0  0  0
  -30.7670  -13.5100   20.2360 N   0  0  0  0  0  0  0  0  0  0  0  0
  -32.6460  -14.7230   19.8870 O   0  0  0  0  0  0  0  0  0  0  0  0
  -26.0360  -14.2490   20.4120 C   0  0  0  0  0  0  0  0  0  0  0  0
  -24.9240  -13.5310   20.7600 C   0  0  0  0  0  0  0  0  0  0  0  0
  -25.3010  -12.1540   20.6850 C   0  0  0  0  0  0  0  0  0  0  0  0
  -27.0250  -13.3120   20.1470 N   0  0  0  0  0  0  0  0  0  0  0  0
  -26.5860  -12.0470   20.3690 N   0  0  0  0  0  0  0  0  0  0  0  0
  -24.5020  -10.9330   20.8380 C   0  0  0  0  0  0  0  0  0  0  0  0
  -24.8660   -9.9190   21.7540 C   0  0  0  0  0  3  0  0  0  0  0  0
  -24.0690   -8.7640   21.8940 C   0  0  0  0  0  3  0  0  0  0  0  0
  -22.8950   -8.6110   21.1200 C   0  0  0  0  0  0  0  0  0  0  0  0
  -22.5500   -9.6120   20.1950 C   0  0  0  0  0  3  0  0  0  0  0  0
  -23.3460  -10.7590   20.0510 C   0  0  0  0  0  3  0  0  0  0  0  0
  -22.0760   -7.5090   21.1700 O   0  0  0  0  0  0  0  0  0  0  0  0
  -21.9400   -6.7640   22.3150 C   0  0  0  0  0  0  0  0  0  0  0  0
  -21.4990   -7.3360   23.5270 C   0  0  0  0  0  3  0  0  0  0  0  0
  -21.3080   -6.5220   24.6630 C   0  0  0  0  0  3  0  0  0  0  0  0
  -21.5470   -5.1360   24.5830 C   0  0  0  0  0  0  0  0  0  0  0  0
  -21.9810   -4.5640   23.3730 C   0  0  0  0  0  3  0  0  0  0  0  0
  -22.1740   -5.3760   22.2420 C   0  0  0  0  0  0  0  0  0  0  0  0
  -22.5700   -4.8160   21.0740 F   0  0  0  0  0  0  0  0  0  0  0  0
  -21.3550   -4.3530   25.6680 F   0  0  0  0  0  0  0  0  0  0  0  0
  -23.5590  -14.0850   21.0520 C   0  0  0  0  0  0  0  0  0  0  0  0
  -22.7920  -13.4150   21.9060 N   0  0  0  0  0  0  0  0  0  0  0  0
  -23.1790  -15.1460   20.5600 O   0  0  0  0  0  0  0  0  0  0  0  0
  -23.1060  -12.5580   22.3350 H   0  0  0  0  0  0  0  0  0  0  0  0
  -21.8790  -13.7750   22.1400 H   0  0  0  0  0  0  0  0  0  0  0  0
  -26.2810  -15.6130   20.2770 N   0  0  0  0  0  0  0  0  0  0  0  0
  -25.5510  -16.3050   20.4120 H   0  0  0  0  0  0  0  0  0  0  0  0
  -27.1470  -16.0100   19.9380 H   0  0  0  0  0  0  0  0  0  0  0  0
  -28.8970  -24.5370   20.0490 C   0  0  0  0  0  2  0  0  0  0  0  0
  -28.5940  -25.7510   20.9490 C   0  0  0  0  0  2  0  0  0  0  0  0
  -28.6790  -26.9700   20.2020 O   0  0  0  0  0  0  0  0  0  0  0  0
  -24.6630  -31.9400   23.2560 C   0  0  0  0  0  0  0  0  0  0  0  0
  -27.5020  -27.6690   20.1600 C   0  0  0  0  0  0  0  0  0  0  0  0
  -23.5340  -30.5310   21.5640 C   0  0  0  0  0  3  0  0  0  0  0  0
  -25.0640  -29.0730   20.1380 C   0  0  0  0  0  0  0  0  0  0  0  0
  -26.0430  -30.9890   21.4150 C   0  0  0  0  0  2  0  0  0  0  0  0
  -26.1880  -29.6360   20.7550 C   0  0  0  0  0  0  0  0  0  0  0  0
  -27.4150  -28.9400   20.7620 C   0  0  0  0  0  3  0  0  0  0  0  0
  -26.3680  -27.1130   19.5330 C   0  0  0  0  0  3  0  0  0  0  0  0
  -25.1470  -27.8120   19.5220 C   0  0  0  0  0  3  0  0  0  0  0  0
  -23.7910  -29.8840   20.1760 C   0  0  0  0  0  2  0  0  0  0  0  0
  -24.7630  -31.1670   22.1380 N   0  0  0  0  0  0  0  0  0  0  0  0
  -23.5650  -32.1640   23.7840 O   0  0  0  0  0  0  0  0  0  0  0  0
  -22.9020  -29.4700   22.4950 C   0  0  0  0  0  0  0  0  0  0  0  0
  -21.5800  -29.2710   22.3670 N   0  0  0  0  0  0  0  0  0  0  0  0
  -23.5980  -28.8290   23.2870 O   0  0  0  0  0  0  0  0  0  0  0  0
  -21.0760  -29.8460   21.7050 H   0  0  0  0  0  0  0  0  0  0  0  0
  -18.2180  -28.0460   22.8610 C   0  0  0  0  0  0  0  0  0  0  0  0
  -20.7790  -28.2980   23.1090 C   0  0  0  0  0  3  0  0  0  0  0  0
  -20.8760  -26.8910   22.4730 C   0  0  0  0  0  2  0  0  0  0  0  0
  -19.7610  -26.6100   21.4630 C   0  0  0  0  0  2  0  0  0  0  0  0
  -18.3890  -26.7250   22.1300 C   0  0  0  0  0  2  0  0  0  0  0  0
  -19.3410  -28.7920   23.3080 C   0  0  0  0  0  0  0  0  0  0  0  0
  -19.1250  -30.0310   23.9490 C   0  0  0  0  0  3  0  0  0  0  0  0
  -17.8210  -30.5200   24.1530 C   0  0  0  0  0  3  0  0  0  0  0  0
  -16.7130  -29.7690   23.7220 C   0  0  0  0  0  3  0  0  0  0  0  0
  -16.9140  -28.5350   23.0790 C   0  0  0  0  0  3  0  0  0  0  0  0
  -25.9170  -32.6010   23.9100 C   0  0  0  0  0  3  0  0  0  0  0  0
  -25.5740  -33.9960   24.2150 N   0  0  0  0  0  0  0  0  0  0  0  0
  -25.9140  -35.0470   23.4560 C   0  0  0  0  0  0  0  0  0  0  0  0
  -26.6210  -34.9450   22.4510 O   0  0  0  0  0  0  0  0  0  0  0  0
  -24.9540  -34.1500   24.9970 H   0  0  0  0  0  0  0  0  0  0  0  0
  -24.1690  -36.8030   23.0230 C   0  0  0  0  0  1  0  0  0  0  0  0
  -25.3870  -36.4290   23.8820 C   0  0  0  0  0  3  0  0  0  0  0  0
  -27.4760  -37.3610   24.7760 C   0  0  0  0  0  1  0  0  0  0  0  0
  -26.4040  -37.4990   23.7930 N   0  0  0  0  0  0  0  0  0  0  0  0
  -25.9770  -38.4130   23.9170 H   0  0  0  0  0  0  0  0  0  0  0  0
  -26.4130  -31.8480   25.2050 C   0  0  1  0  0  0  0  0  0  0  0  0
  -25.2930  -31.5880   26.2390 C   0  0  0  0  0  1  0  0  0  0  0  0
  -27.0420  -30.4830   24.8340 C   0  0  0  0  0  1  0  0  0  0  0  0
  -27.5190  -32.6740   25.9020 C   0  0  0  0  0  1  0  0  0  0  0  0
  2  8  1  0
  2  1  1  0
  3  4  2  0
  3  7  1  0
  4  6  1  0
  5  3  1  0
  6  1  2  0
  7  2  2  0
  9  8  1  0
 10 11  1  0
 11  9  1  0
 11 12  1  1
 14 13  1  0
 14 11  1  0
 14 15  1  0
 16 15  1  0
 17 22  1  0
 18 19  1  0
 18 17  1  0
 20 19  1  0
 20 27  1  0
 20 21  1  0
 22 16  1  0
 22 21  1  0
 23 16  2  0
 24 25  2  0
 25 44  1  0
 26 25  1  0
 26 29  1  0
 27 28  1  0
 27 24  1  0
 28 26  2  0
 29 30  1  0
 30 31  2  0
 32 35  1  0
 32 31  1  0
 33 32  2  0
 34 33  1  0
 34 29  2  0
 35 36  1  0
 36 37  1  0
 37 38  2  0
 39 38  1  0
 39 43  1  0
 40 39  2  0
 41 36  2  0
 41 40  1  0
 42 41  1  0
 44 45  1  0
 45 48  1  0
 45 47  1  0
 46 44  2  0
 49 50  1  0
 49 24  1  0
 51 49  1  0
 52  4  1  0
 52 53  1  0
 54 53  1  0
 55 66  2  0
 56 54  1  0
 56 61  1  0
 57 65  1  0
 57 67  1  0
 58 64  1  0
 58 60  1  0
 59 65  1  0
 60 61  2  0
 60 59  1  0
 62 56  2  0
 63 62  1  0
 63 58  2  0
 64 57  1  0
 65 55  1  0
 67 69  2  0
 68 67  1  0
 70 68  1  0
 71 80  2  0
 71 76  1  0
 72 68  1  0
 72 76  1  0
 73 72  1  0
 74 75  1  0
 74 73  1  0
 75 71  1  0
 76 77  2  0
 77 78  1  0
 79 78  2  0
 80 79  1  0
 81 55  1  0
 81 82  1  0
 81 91  1  0
 82 85  1  0
 83 87  1  0
 83 82  1  0
 84 83  2  0
 87 86  1  0
 89 87  1  0
 89 90  1  0
 89 88  1  0
 91 94  1  1
 91 92  1  0
 93 91  1  0
M  ISO  4  15 100  16 100  53 101  54 101
M  END
>  <TORSDO>  (58) 
F 23

>  <SCORE>  (58) 
-11.510

>  <name>  (58) 
58

>  <ligand_id>  (58) 
58

>  <original_smiles>  (58) 
[H]c1nc(C([H])([H])C([H])([H])Oc2c([H])c([H])c3c(c2[H])C([H])([H])N(C(=O)C([H])(N([H])C(=O)C([H])(N([H])C([H])([H])[H])C([H])([H])[H])C(C([H])([H])[H])(C([H])([H])[H])C([H])([H])[H])C([H])(C(=O)N([H])C2([H])c4c([H])c([H])c([H])c([H])c4C([H])([H])C([H])([H])C2([H])[H])C3([H])[H])c(C([H])([H])[H])nc1C([H])([H])C([H])([H])[N+]([H])(C([H])([H])[H])C([H])(C([H])([H])[H])C([H])([H])C(=O)N1C([H])([H])C([H])([H])C([H])([H])C([H])(n2nc(-c3c([H])c([H])c(Oc4c([H])c([H])c(F)c([H])c4F)c([H])c3[H])c(C(=O)N([H])[H])c2N([H])[H])C1([H])[H]

>  <smiles>  (58) 
[H]c1nc(C([H])([H])C([H])([H])Oc2c([H])c([H])c3c(c2[H])C([H])([H])N(C(=O)C([H])(N([H])C(=O)C([H])(N([H])C([H])([H])[H])C([H])([H])[H])C(C([H])([H])[H])(C([H])([H])[H])C([H])([H])[H])C([H])(C(=O)N([H])C2([H])c4c([H])c([H])c([H])c([H])c4C([H])([H])C([H])([H])C2([H])[H])C3([H])[H])c(C([H])([H])[H])nc1C([H])([H])C([H])([H])[N+]([H])(C([H])([H])[H])C([H])(C([H])([H])[H])C([H])([H])C(=O)N1C([H])([H])C([H])([H])C([H])([H])C([H])(n2nc(-c3c([H])c([H])c(Oc4c([H])c([H])c(F)c([H])c4F)c([H])c3[H])c(C(=O)N([H])[H])c2N([H])[H])C1([H])[H]

$$$$
59:0:0
     RDKit          3D

 98106  0  0  1  0  0  0  0  0999 V2000
  -31.0530  -25.3590   20.0590 C   0  0  0  0  0  3  0  0  0  0  0  0
  -31.6240  -24.1390   19.6750 C   0  0  0  0  0  3  0  0  0  0  0  0
  -29.9200  -25.3430   20.8920 C   0  0  0  0  0  0  0  0  0  0  0  0
  -31.0260  -22.9470   20.1170 C   0  0  0  0  0  0  0  0  0  0  0  0
  -29.4820  -24.1000   21.4160 C   0  0  0  0  0  0  0  0  0  0  0  0
  -30.0160  -22.9210   21.0140 N   0  0  0  0  0  0  0  0  0  0  0  0
  -26.9670  -23.8230   21.6930 C   0  0  0  0  0  1  0  0  0  0  0  0
  -28.3220  -23.9730   22.3960 C   0  0  0  0  0  2  0  0  0  0  0  0
  -29.1420  -26.6390   21.0330 C   0  0  0  0  0  2  0  0  0  0  0  0
  -28.3770  -26.7930   19.8440 O   0  0  0  0  0  0  0  0  0  0  0  0
  -24.4610  -31.7520   23.1460 C   0  0  0  0  0  0  0  0  0  0  0  0
  -27.2240  -27.5250   19.9210 C   0  0  0  0  0  0  0  0  0  0  0  0
  -23.2930  -30.3870   21.4410 C   0  0  0  0  0  3  0  0  0  0  0  0
  -24.7920  -28.9440   19.9670 C   0  0  0  0  0  0  0  0  0  0  0  0
  -25.8050  -30.8210   21.2730 C   0  0  0  0  0  2  0  0  0  0  0  0
  -25.9270  -29.4770   20.5910 C   0  0  0  0  0  0  0  0  0  0  0  0
  -27.1460  -28.7710   20.5790 C   0  0  0  0  0  3  0  0  0  0  0  0
  -26.0810  -27.0030   19.2830 C   0  0  0  0  0  3  0  0  0  0  0  0
  -24.8600  -27.7020   19.3130 C   0  0  0  0  0  3  0  0  0  0  0  0
  -23.5250  -29.7650   20.0380 C   0  0  0  0  0  2  0  0  0  0  0  0
  -24.5370  -30.9980   22.0140 N   0  0  0  0  0  0  0  0  0  0  0  0
  -23.3710  -31.9800   23.6900 O   0  0  0  0  0  0  0  0  0  0  0  0
  -22.6630  -29.3140   22.3560 C   0  0  0  0  0  0  0  0  0  0  0  0
  -21.3420  -29.1180   22.2200 N   0  0  0  0  0  0  0  0  0  0  0  0
  -23.3560  -28.6640   23.1410 O   0  0  0  0  0  0  0  0  0  0  0  0
  -20.8440  -29.6970   21.5600 H   0  0  0  0  0  0  0  0  0  0  0  0
  -17.9820  -27.8710   22.6660 C   0  0  0  0  0  0  0  0  0  0  0  0
  -20.5370  -28.1360   22.9460 C   0  0  0  0  0  3  0  0  0  0  0  0
  -20.6500  -26.7360   22.2970 C   0  0  0  0  0  2  0  0  0  0  0  0
  -19.5480  -26.4550   21.2720 C   0  0  0  0  0  2  0  0  0  0  0  0
  -18.1670  -26.5570   21.9260 C   0  0  0  0  0  2  0  0  0  0  0  0
  -19.0940  -28.6210   23.1290 C   0  0  0  0  0  0  0  0  0  0  0  0
  -18.8670  -29.8540   23.7770 C   0  0  0  0  0  3  0  0  0  0  0  0
  -17.5600  -30.3370   23.9700 C   0  0  0  0  0  3  0  0  0  0  0  0
  -16.4600  -29.5810   23.5240 C   0  0  0  0  0  3  0  0  0  0  0  0
  -16.6720  -28.3510   22.8780 C   0  0  0  0  0  3  0  0  0  0  0  0
  -25.7320  -32.3830   23.7960 C   0  0  0  0  0  3  0  0  0  0  0  0
  -25.4030  -33.7650   24.1620 N   0  0  0  0  0  0  0  0  0  0  0  0
  -25.7300  -34.8420   23.4340 C   0  0  0  0  0  0  0  0  0  0  0  0
  -26.4130  -34.7760   22.4090 O   0  0  0  0  0  0  0  0  0  0  0  0
  -24.8000  -33.8910   24.9610 H   0  0  0  0  0  0  0  0  0  0  0  0
  -23.9850  -36.6190   23.0980 C   0  0  0  0  0  1  0  0  0  0  0  0
  -25.2160  -36.2090   23.9210 C   0  0  0  0  0  3  0  0  0  0  0  0
  -27.3190  -37.0990   24.8230 C   0  0  0  0  0  1  0  0  0  0  0  0
  -26.2370  -37.2790   23.8590 N   0  0  0  0  0  0  0  0  0  0  0  0
  -25.8140  -38.1890   24.0220 H   0  0  0  0  0  0  0  0  0  0  0  0
  -26.2500  -31.5790   25.0500 C   0  0  1  0  0  0  0  0  0  0  0  0
  -25.1520  -31.2880   26.0980 C   0  0  0  0  0  1  0  0  0  0  0  0
  -26.8620  -30.2260   24.6170 C   0  0  0  0  0  1  0  0  0  0  0  0
  -27.3800  -32.3720   25.7500 C   0  0  0  0  0  1  0  0  0  0  0  0
  -31.3910  -21.6430   19.4370 C   0  0  0  0  0  2  0  0  0  0  0  0
  -32.8160  -20.6390   21.1580 C   0  0  0  0  0  1  0  0  0  0  0  0
  -31.5940  -20.4700   20.3290 N   0  0  2  0  0  4  0  0  0  0  0  0
  -30.8060  -20.5240   20.9620 H   0  0  0  0  0  0  0  0  0  0  0  0
  -31.0840  -19.2170   18.1320 C   0  0  0  0  0  1  0  0  0  0  0  0
  -31.5130  -19.1260   19.6370 C   0  0  0  0  0  3  0  0  0  0  0  0
  -31.6010  -17.4960   21.6290 C   0  0  0  0  0  1  0  0  0  0  0  0
  -29.4120  -18.6120   21.0720 C   0  0  0  0  0  1  0  0  0  0  0  0
  -30.7160  -18.0330   20.4750 C   0  0  1  0  0  0  0  0  0  0  0  0
  -30.3130  -16.8260   19.5720 C   0  0  0  0  0  2  0  0  0  0  0  0
  -30.7130  -14.4540   20.0170 C   0  0  0  0  0  0  0  0  0  0  0  0
  -30.3010  -12.3060   18.9360 C   0  0  0  0  0  2  0  0  0  0  0  0
  -29.3080  -12.5430   17.7790 C   0  0  0  0  0  2  0  0  0  0  0  0
  -27.8610  -12.4180   18.2880 C   0  0  0  0  0  2  0  0  0  0  0  0
  -27.5950  -13.2560   19.5670 C   0  0  0  0  0  3  0  0  0  0  0  0
  -28.7100  -13.0490   20.6210 C   0  0  0  0  0  2  0  0  0  0  0  0
  -30.0040  -13.3010   19.9740 N   0  0  0  0  0  0  0  0  0  0  0  0
  -31.8610  -14.5540   19.5820 O   0  0  0  0  0  0  0  0  0  0  0  0
  -29.9870  -15.5590   20.2470 N   0  0  0  0  0  0  0  0  0  0  0  0
  -29.0490  -15.4370   20.6000 H   0  0  0  0  0  0  0  0  0  0  0  0
  -25.2430  -13.8600   20.4150 C   0  0  0  0  0  0  0  0  0  0  0  0
  -24.1940  -13.0830   20.8340 C   0  0  0  0  0  0  0  0  0  0  0  0
  -24.6510  -11.7320   20.7620 C   0  0  0  0  0  0  0  0  0  0  0  0
  -26.2710  -12.9790   20.1180 N   0  0  0  0  0  0  0  0  0  0  0  0
  -25.9220  -11.6940   20.3830 N   0  0  0  0  0  0  0  0  0  0  0  0
  -23.9360  -10.4670   20.9760 C   0  0  0  0  0  0  0  0  0  0  0  0
  -24.3630   -9.5300   21.9400 C   0  0  0  0  0  3  0  0  0  0  0  0
  -23.6450   -8.3300   22.1410 C   0  0  0  0  0  3  0  0  0  0  0  0
  -22.4870   -8.0610   21.3750 C   0  0  0  0  0  0  0  0  0  0  0  0
  -22.0800   -8.9850   20.3960 C   0  0  0  0  0  3  0  0  0  0  0  0
  -22.8000  -10.1760   20.1960 C   0  0  0  0  0  3  0  0  0  0  0  0
  -21.7450   -6.9090   21.4800 O   0  0  0  0  0  0  0  0  0  0  0  0
  -21.6320   -6.2330   22.6680 C   0  0  0  0  0  0  0  0  0  0  0  0
  -21.0940   -6.8410   23.8230 C   0  0  0  0  0  3  0  0  0  0  0  0
  -20.9310   -6.0900   25.0030 C   0  0  0  0  0  3  0  0  0  0  0  0
  -21.2950   -4.7300   25.0280 C   0  0  0  0  0  0  0  0  0  0  0  0
  -21.8270   -4.1210   23.8770 C   0  0  0  0  0  3  0  0  0  0  0  0
  -21.9900   -4.8700   22.7000 C   0  0  0  0  0  0  0  0  0  0  0  0
  -22.4830   -4.2730   21.5860 F   0  0  0  0  0  0  0  0  0  0  0  0
  -21.1320   -4.0050   26.1580 F   0  0  0  0  0  0  0  0  0  0  0  0
  -22.8150  -13.5580   21.1890 C   0  0  0  0  0  0  0  0  0  0  0  0
  -22.1320  -12.8410   22.0750 N   0  0  0  0  0  0  0  0  0  0  0  0
  -22.3550  -14.5980   20.7190 O   0  0  0  0  0  0  0  0  0  0  0  0
  -22.5220  -12.0010   22.4740 H   0  0  0  0  0  0  0  0  0  0  0  0
  -21.2090  -13.1380   22.3570 H   0  0  0  0  0  0  0  0  0  0  0  0
  -25.3970  -15.2310   20.2440 N   0  0  0  0  0  0  0  0  0  0  0  0
  -24.6290  -15.8780   20.3880 H   0  0  0  0  0  0  0  0  0  0  0  0
  -26.2200  -15.6740   19.8560 H   0  0  0  0  0  0  0  0  0  0  0  0
  1  3  1  0
  2  1  2  0
  2  4  1  0
  3  9  1  0
  3  5  2  0
  4  6  2  0
  5  8  1  0
  6  5  1  0
  7  8  1  0
 10 12  1  0
 10  9  1  0
 11 22  2  0
 12 17  1  0
 13 21  1  0
 13 23  1  0
 14 20  1  0
 14 16  1  0
 15 21  1  0
 16 15  1  0
 17 16  2  0
 18 19  1  0
 18 12  2  0
 19 14  2  0
 20 13  1  0
 21 11  1  0
 23 25  2  0
 24 23  1  0
 26 24  1  0
 27 36  2  0
 27 32  1  0
 28 24  1  0
 28 32  1  0
 29 28  1  0
 30 31  1  0
 30 29  1  0
 31 27  1  0
 32 33  2  0
 33 34  1  0
 35 34  2  0
 36 35  1  0
 37 11  1  0
 37 38  1  0
 37 47  1  0
 38 41  1  0
 39 43  1  0
 39 38  1  0
 40 39  2  0
 43 42  1  0
 45 43  1  0
 45 46  1  0
 45 44  1  0
 47 50  1  1
 47 48  1  0
 49 47  1  0
 51  4  1  0
 51 53  1  0
 53 54  1  1
 53 52  1  0
 56 55  1  0
 56 53  1  0
 56 59  1  0
 59 58  1  1
 59 57  1  0
 60 69  1  0
 60 59  1  0
 61 69  1  0
 62 67  1  0
 63 64  1  0
 63 62  1  0
 65 64  1  0
 65 74  1  0
 65 66  1  0
 67 61  1  0
 67 66  1  0
 68 61  2  0
 69 70  1  0
 71 72  2  0
 72 91  1  0
 73 72  1  0
 73 76  1  0
 74 75  1  0
 74 71  1  0
 75 73  2  0
 76 77  1  0
 77 78  2  0
 79 82  1  0
 79 78  1  0
 80 79  2  0
 81 80  1  0
 81 76  2  0
 82 83  1  0
 83 88  2  0
 83 84  1  0
 84 85  2  0
 85 86  1  0
 86 90  1  0
 87 86  2  0
 88 87  1  0
 89 88  1  0
 91 92  1  0
 92 95  1  0
 92 94  1  0
 93 91  2  0
 96 97  1  0
 96 71  1  0
 98 96  1  0
M  ISO  4   9 101  10 101  61 100  69 100
M  END
>  <TORSDO>  (59) 
F 23

>  <SCORE>  (59) 
-12.365

>  <name>  (59) 
59

>  <ligand_id>  (59) 
59

>  <original_smiles>  (59) 
[H]c1c(C([H])([H])[N+]([H])(C([H])([H])[H])C([H])(C([H])([H])[H])C(C([H])([H])[H])(C([H])([H])[H])C([H])([H])N([H])C(=O)N2C([H])([H])C([H])([H])C([H])([H])C([H])(n3nc(-c4c([H])c([H])c(Oc5c([H])c([H])c(F)c([H])c5F)c([H])c4[H])c(C(=O)N([H])[H])c3N([H])[H])C2([H])[H])nc(C([H])([H])C([H])([H])[H])c(C([H])([H])Oc2c([H])c([H])c3c(c2[H])C([H])([H])N(C(=O)C([H])(N([H])C(=O)C([H])(N([H])C([H])([H])[H])C([H])([H])[H])C(C([H])([H])[H])(C([H])([H])[H])C([H])([H])[H])C([H])(C(=O)N([H])C2([H])c4c([H])c([H])c([H])c([H])c4C([H])([H])C([H])([H])C2([H])[H])C3([H])[H])c1[H]

>  <smiles>  (59) 
[H]c1c(C([H])([H])[N+]([H])(C([H])([H])[H])C([H])(C([H])([H])[H])C(C([H])([H])[H])(C([H])([H])[H])C([H])([H])N([H])C(=O)N2C([H])([H])C([H])([H])C([H])([H])C([H])(n3nc(-c4c([H])c([H])c(Oc5c([H])c([H])c(F)c([H])c5F)c([H])c4[H])c(C(=O)N([H])[H])c3N([H])[H])C2([H])[H])nc(C([H])([H])C([H])([H])[H])c(C([H])([H])Oc2c([H])c([H])c3c(c2[H])C([H])([H])N(C(=O)C([H])(N([H])C(=O)C([H])(N([H])C([H])([H])[H])C([H])([H])[H])C(C([H])([H])[H])(C([H])([H])[H])C([H])([H])[H])C([H])(C(=O)N([H])C2([H])c4c([H])c([H])c([H])c([H])c4C([H])([H])C([H])([H])C2([H])[H])C3([H])[H])c1[H]

$$$$
60:0:0
     RDKit          3D

 97105  0  0  1  0  0  0  0  0999 V2000
  -25.5680  -21.9360   18.8170 C   0  0  0  0  0  3  0  0  0  0  0  0
  -27.1180  -20.4370   17.7470 C   0  0  0  0  0  3  0  0  0  0  0  0
  -25.8430  -20.6590   18.3050 C   0  0  0  0  0  0  0  0  0  0  0  0
  -26.5560  -22.9340   18.7680 C   0  0  0  0  0  0  0  0  0  0  0  0
  -28.0660  -21.4820   17.7760 C   0  0  0  0  0  0  0  0  0  0  0  0
  -24.8000  -19.5580   18.3940 C   0  0  0  0  0  1  0  0  0  0  0  0
  -27.7870  -22.7140   18.2640 N   0  0  0  0  0  0  0  0  0  0  0  0
  -29.5010  -21.2470   17.3250 C   0  0  0  0  0  2  0  0  0  0  0  0
  -30.3300  -20.4530   18.3670 C   0  0  0  0  0  2  0  0  0  0  0  0
  -31.4360  -21.1960   18.9990 N   0  0  0  0  0  0  0  0  0  0  0  0
  -30.9730  -22.2670   19.9040 C   0  0  0  0  0  2  0  0  0  0  0  0
  -29.4340  -23.0510   21.7660 C   0  0  0  0  0  1  0  0  0  0  0  0
  -30.1300  -21.8460   21.1420 C   0  0  1  0  0  0  0  0  0  0  0  0
  -29.1830  -20.9610   20.8340 F   0  0  0  0  0  0  0  0  0  0  0  0
  -30.8980  -21.3460   22.1110 F   0  0  0  0  0  0  0  0  0  0  0  0
  -32.3080  -20.2460   19.6970 C   0  0  0  0  0  2  0  0  0  0  0  0
  -33.6480  -20.8210   20.2220 C   0  0  0  0  0  2  0  0  0  0  0  0
  -34.8190  -20.7090   19.2220 C   0  0  0  0  0  0  0  0  0  0  0  0
  -36.3760  -19.2810   17.9350 C   0  0  0  0  0  2  0  0  0  0  0  0
  -35.6760  -18.6200   16.7270 C   0  0  0  0  0  2  0  0  0  0  0  0
  -34.9930  -17.2980   17.1300 C   0  0  0  0  0  2  0  0  0  0  0  0
  -34.0910  -17.4810   18.3660 C   0  0  0  0  0  3  0  0  0  0  0  0
  -34.8690  -18.2070   19.4970 C   0  0  0  0  0  2  0  0  0  0  0  0
  -35.3730  -19.4920   18.9840 N   0  0  0  0  0  0  0  0  0  0  0  0
  -35.2190  -21.7390   18.6660 O   0  0  0  0  0  0  0  0  0  0  0  0
  -32.1600  -15.8800   18.9450 C   0  0  0  0  0  0  0  0  0  0  0  0
  -32.1600  -14.5770   19.3570 C   0  0  0  0  0  0  0  0  0  0  0  0
  -33.5350  -14.2050   19.4810 C   0  0  0  0  0  0  0  0  0  0  0  0
  -33.4970  -16.2390   18.8340 N   0  0  0  0  0  0  0  0  0  0  0  0
  -34.3220  -15.2370   19.2180 N   0  0  0  0  0  0  0  0  0  0  0  0
  -34.1590  -12.9120   19.7740 C   0  0  0  0  0  0  0  0  0  0  0  0
  -35.0780  -12.7610   20.8350 C   0  0  0  0  0  3  0  0  0  0  0  0
  -35.6560  -11.5030   21.1060 C   0  0  0  0  0  3  0  0  0  0  0  0
  -35.3120  -10.3810   20.3180 C   0  0  0  0  0  0  0  0  0  0  0  0
  -34.4170  -10.5410   19.2480 C   0  0  0  0  0  3  0  0  0  0  0  0
  -33.8460  -11.7940   18.9760 C   0  0  0  0  0  3  0  0  0  0  0  0
  -35.8410   -9.1250   20.4900 O   0  0  0  0  0  0  0  0  0  0  0  0
  -36.3360   -8.7170   21.6990 C   0  0  0  0  0  0  0  0  0  0  0  0
  -35.5390   -8.6960   22.8660 C   0  0  0  0  0  3  0  0  0  0  0  0
  -36.0740   -8.2070   24.0740 C   0  0  0  0  0  3  0  0  0  0  0  0
  -37.3990   -7.7310   24.1170 C   0  0  0  0  0  0  0  0  0  0  0  0
  -38.1910   -7.7470   22.9540 C   0  0  0  0  0  3  0  0  0  0  0  0
  -37.6610   -8.2380   21.7500 C   0  0  0  0  0  0  0  0  0  0  0  0
  -38.4210   -8.2380   20.6290 F   0  0  0  0  0  0  0  0  0  0  0  0
  -37.9090   -7.2490   25.2730 F   0  0  0  0  0  0  0  0  0  0  0  0
  -30.9620  -13.6850   19.5310 C   0  0  0  0  0  0  0  0  0  0  0  0
  -31.0110  -12.7710   20.4940 N   0  0  0  0  0  0  0  0  0  0  0  0
  -29.9550  -13.8240   18.8340 O   0  0  0  0  0  0  0  0  0  0  0  0
  -31.8270  -12.6610   21.0810 H   0  0  0  0  0  0  0  0  0  0  0  0
  -30.2180  -12.1670   20.6500 H   0  0  0  0  0  0  0  0  0  0  0  0
  -31.1380  -16.7720   18.6260 N   0  0  0  0  0  0  0  0  0  0  0  0
  -30.1620  -16.5010   18.6700 H   0  0  0  0  0  0  0  0  0  0  0  0
  -31.2850  -17.7020   18.2640 H   0  0  0  0  0  0  0  0  0  0  0  0
  -26.2130  -24.3010   19.3280 C   0  0  0  0  0  2  0  0  0  0  0  0
  -27.1240  -25.4930   18.9610 C   0  0  0  0  0  2  0  0  0  0  0  0
  -27.2800  -26.5650   20.0770 C   0  0  0  0  0  2  0  0  0  0  0  0
  -26.4200  -27.7190   20.0600 O   0  0  0  0  0  0  0  0  0  0  0  0
  -27.1850  -32.3760   25.4720 C   0  0  0  0  0  0  0  0  0  0  0  0
  -25.9920  -28.2010   21.2800 C   0  0  0  0  0  0  0  0  0  0  0  0
  -25.5590  -30.5460   25.8120 C   0  0  0  0  0  3  0  0  0  0  0  0
  -25.0060  -29.1630   23.7460 C   0  0  0  0  0  0  0  0  0  0  0  0
  -26.1150  -31.3770   23.4570 C   0  0  0  0  0  2  0  0  0  0  0  0
  -25.8250  -29.9800   22.9550 C   0  0  0  0  0  0  0  0  0  0  0  0
  -26.3320  -29.4990   21.7230 C   0  0  0  0  0  3  0  0  0  0  0  0
  -25.1250  -27.4280   22.0700 C   0  0  0  0  0  3  0  0  0  0  0  0
  -24.6650  -27.8760   23.3160 C   0  0  0  0  0  3  0  0  0  0  0  0
  -24.4870  -29.7380   25.0410 C   0  0  0  0  0  2  0  0  0  0  0  0
  -26.3400  -31.4590   24.9180 N   0  0  0  0  0  0  0  0  0  0  0  0
  -27.2880  -32.4920   26.7010 O   0  0  0  0  0  0  0  0  0  0  0  0
  -26.4460  -29.5510   26.5970 C   0  0  0  0  0  0  0  0  0  0  0  0
  -26.0730  -29.2910   27.8630 N   0  0  0  0  0  0  0  0  0  0  0  0
  -27.4210  -29.0170   26.0650 O   0  0  0  0  0  0  0  0  0  0  0  0
  -25.2610  -29.7660   28.2260 H   0  0  0  0  0  0  0  0  0  0  0  0
  -26.1590  -28.1300   31.2850 C   0  0  0  0  0  0  0  0  0  0  0  0
  -26.7310  -28.3540   28.7720 C   0  0  0  0  0  3  0  0  0  0  0  0
  -26.1560  -26.9280   28.6100 C   0  0  0  0  0  2  0  0  0  0  0  0
  -25.0290  -26.6100   29.6010 C   0  0  0  0  0  2  0  0  0  0  0  0
  -25.4960  -26.7820   31.0510 C   0  0  0  0  0  2  0  0  0  0  0  0
  -26.7230  -28.8730   30.2150 C   0  0  0  0  0  0  0  0  0  0  0  0
  -27.2890  -30.1380   30.4820 C   0  0  0  0  0  3  0  0  0  0  0  0
  -27.3050  -30.6560   31.7900 C   0  0  0  0  0  3  0  0  0  0  0  0
  -26.7600  -29.9090   32.8490 C   0  0  0  0  0  3  0  0  0  0  0  0
  -26.1920  -28.6470   32.5960 C   0  0  0  0  0  3  0  0  0  0  0  0
  -28.0430  -33.3310   24.5880 C   0  0  0  0  0  3  0  0  0  0  0  0
  -29.5850  -33.2580   24.9110 C   0  0  1  0  0  0  0  0  0  0  0  0
  -29.9260  -33.5930   26.3810 C   0  0  0  0  0  1  0  0  0  0  0  0
  -30.1400  -31.8460   24.6070 C   0  0  0  0  0  1  0  0  0  0  0  0
  -30.3560  -34.2400   23.9990 C   0  0  0  0  0  1  0  0  0  0  0  0
  -27.5320  -34.6950   24.7890 N   0  0  0  0  0  0  0  0  0  0  0  0
  -26.9880  -35.4520   23.8280 C   0  0  0  0  0  0  0  0  0  0  0  0
  -26.9300  -35.0940   22.6480 O   0  0  0  0  0  0  0  0  0  0  0  0
  -27.4940  -35.0260   25.7420 H   0  0  0  0  0  0  0  0  0  0  0  0
  -24.9010  -36.8460   23.9850 C   0  0  0  0  0  1  0  0  0  0  0  0
  -26.4180  -36.8220   24.2410 C   0  0  0  0  0  3  0  0  0  0  0  0
  -28.4330  -38.2000   23.9860 C   0  0  0  0  0  1  0  0  0  0  0  0
  -27.0620  -37.9590   23.5460 N   0  0  0  0  0  0  0  0  0  0  0  0
  -26.5280  -38.8130   23.6870 H   0  0  0  0  0  0  0  0  0  0  0  0
  2  5  2  0
  2  3  1  0
  3  6  1  0
  3  1  2  0
  4  1  1  0
  4 54  1  0
  5  7  1  0
  7  4  2  0
  8  5  1  0
  8  9  1  0
  9 10  1  0
 10 16  1  0
 10 11  1  0
 11 13  1  0
 13 12  1  1
 13 15  1  0
 14 13  1  0
 16 17  1  0
 18 17  1  0
 19 24  1  0
 20 21  1  0
 20 19  1  0
 22 21  1  0
 22 29  1  0
 22 23  1  0
 24 18  1  0
 24 23  1  0
 25 18  2  0
 26 27  2  0
 27 28  1  0
 27 46  1  0
 28 31  1  0
 29 26  1  0
 29 30  1  0
 30 28  2  0
 31 32  1  0
 32 33  2  0
 34 37  1  0
 34 33  1  0
 35 34  2  0
 36 35  1  0
 36 31  2  0
 37 38  1  0
 38 43  2  0
 38 39  1  0
 39 40  2  0
 40 41  1  0
 41 45  1  0
 42 41  2  0
 43 42  1  0
 44 43  1  0
 46 47  1  0
 47 50  1  0
 47 49  1  0
 48 46  2  0
 51 52  1  0
 51 26  1  0
 53 51  1  0
 55 54  1  0
 55 56  1  0
 57 56  1  0
 57 59  1  0
 58 69  2  0
 59 64  2  0
 59 65  1  0
 60 70  1  0
 61 67  1  0
 62 68  1  0
 63 62  1  0
 63 61  2  0
 64 63  1  0
 65 66  2  0
 66 61  1  0
 67 60  1  0
 68 58  1  0
 68 60  1  0
 70 71  1  0
 71 73  1  0
 72 70  2  0
 74 83  1  0
 75 71  1  0
 75 79  1  0
 76 75  1  0
 76 77  1  0
 77 78  1  0
 78 74  1  0
 79 80  1  0
 79 74  2  0
 80 81  2  0
 81 82  1  0
 83 82  2  0
 84 89  1  0
 84 85  1  0
 84 58  1  0
 85 86  1  1
 87 85  1  0
 88 85  1  0
 89 92  1  0
 90 94  1  0
 90 89  1  0
 91 90  2  0
 94 93  1  0
 96 97  1  0
 96 95  1  0
 96 94  1  0
M  ISO  4  17 100  18 100  56 101  57 101
M  END
>  <TORSDO>  (60) 
F 26

>  <SCORE>  (60) 
-5.825

>  <name>  (60) 
60

>  <ligand_id>  (60) 
60

>  <original_smiles>  (60) 
[H]c1c([H])c([H])c2c(c1[H])C([H])([H])C([H])([H])C([H])([H])C2([H])N([H])C(=O)C1([H])N(C(=O)C([H])(N([H])C(=O)C([H])(N([H])C([H])([H])[H])C([H])([H])[H])C(C([H])([H])[H])(C([H])([H])[H])C([H])([H])[H])C([H])([H])c2c([H])c(OC([H])([H])C([H])([H])C([H])([H])c3nc(C([H])([H])C([H])([H])N(C([H])([H])C([H])([H])C(=O)N4C([H])([H])C([H])([H])C([H])([H])C([H])(n5nc(-c6c([H])c([H])c(Oc7c([H])c([H])c(F)c([H])c7F)c([H])c6[H])c(C(=O)N([H])[H])c5N([H])[H])C4([H])[H])C([H])([H])C(F)(F)C([H])([H])[H])c([H])c(C([H])([H])[H])c3[H])c([H])c([H])c2C1([H])[H]

>  <smiles>  (60) 
[H]c1c([H])c([H])c2c(c1[H])C([H])([H])C([H])([H])C([H])([H])C2([H])N([H])C(=O)C1([H])N(C(=O)C([H])(N([H])C(=O)C([H])(N([H])C([H])([H])[H])C([H])([H])[H])C(C([H])([H])[H])(C([H])([H])[H])C([H])([H])[H])C([H])([H])c2c([H])c(OC([H])([H])C([H])([H])C([H])([H])c3nc(C([H])([H])C([H])([H])N(C([H])([H])C([H])([H])C(=O)N4C([H])([H])C([H])([H])C([H])([H])C([H])(n5nc(-c6c([H])c([H])c(Oc7c([H])c([H])c(F)c([H])c7F)c([H])c6[H])c(C(=O)N([H])[H])c5N([H])[H])C4([H])[H])C([H])([H])C(F)(F)C([H])([H])[H])c([H])c(C([H])([H])[H])c3[H])c([H])c([H])c2C1([H])[H]

$$$$
61:0:0
     RDKit          3D

 93100  0  0  1  0  0  0  0  0999 V2000
  -28.8440  -20.8800   21.3110 C   0  0  0  0  0  1  0  0  0  0  0  0
  -29.8780  -21.9950   21.0390 C   0  0  0  0  0  3  0  0  0  0  0  0
  -31.2800  -21.4040   20.8090 C   0  0  0  0  0  2  0  0  0  0  0  0
  -31.7010  -20.4100   21.9060 C   0  0  0  0  0  2  0  0  0  0  0  0
  -33.7920  -19.3240   21.1590 C   0  0  0  0  0  1  0  0  0  0  0  0
  -32.3230  -19.2120   21.2930 N   0  0  1  0  0  4  0  0  0  0  0  0
  -31.9630  -19.2070   20.3520 H   0  0  0  0  0  0  0  0  0  0  0  0
  -31.8680  -17.9230   21.8700 C   0  0  0  0  0  2  0  0  0  0  0  0
  -31.9220  -16.7840   20.8290 C   0  0  0  0  0  2  0  0  0  0  0  0
  -30.7480  -15.7990   21.0150 C   0  0  0  0  0  2  0  0  0  0  0  0
  -30.7270  -13.9630   19.3300 C   0  0  0  0  0  0  0  0  0  0  0  0
  -30.2730  -11.6870   18.5210 C   0  0  0  0  0  2  0  0  0  0  0  0
  -29.1490  -11.5140   17.4960 C   0  0  0  0  0  2  0  0  0  0  0  0
  -27.7890  -11.3790   18.1970 C   0  0  0  0  0  2  0  0  0  0  0  0
  -27.5350  -12.5120   19.2210 C   0  0  0  0  0  3  0  0  0  0  0  0
  -28.7430  -12.6900   20.1720 C   0  0  0  0  0  2  0  0  0  0  0  0
  -29.9770  -12.8370   19.3780 N   0  0  0  0  0  0  0  0  0  0  0  0
  -31.3130  -14.3690   18.3200 O   0  0  0  0  0  0  0  0  0  0  0  0
  -31.7500  -13.5950   21.5210 C   0  0  0  0  0  1  0  0  0  0  0  0
  -31.0240  -14.4360   20.5610 N   0  0  0  0  0  0  0  0  0  0  0  0
  -25.3670  -13.2130   20.4320 C   0  0  0  0  0  0  0  0  0  0  0  0
  -24.3400  -12.4810   20.9650 C   0  0  0  0  0  0  0  0  0  0  0  0
  -24.6890  -11.1090   20.7710 C   0  0  0  0  0  0  0  0  0  0  0  0
  -26.2870  -12.2890   19.9540 N   0  0  0  0  0  0  0  0  0  0  0  0
  -25.8880  -11.0140   20.2100 N   0  0  0  0  0  0  0  0  0  0  0  0
  -23.9250   -9.8820   21.0380 C   0  0  0  0  0  0  0  0  0  0  0  0
  -24.3940   -8.8980   21.9360 C   0  0  0  0  0  3  0  0  0  0  0  0
  -23.6310   -7.7390   22.1900 C   0  0  0  0  0  3  0  0  0  0  0  0
  -22.3860   -7.5530   21.5450 C   0  0  0  0  0  0  0  0  0  0  0  0
  -21.9340   -8.5240   20.6330 C   0  0  0  0  0  3  0  0  0  0  0  0
  -22.6970   -9.6760   20.3780 C   0  0  0  0  0  3  0  0  0  0  0  0
  -21.5890   -6.4450   21.7100 O   0  0  0  0  0  0  0  0  0  0  0  0
  -21.5650   -5.7450   22.8900 C   0  0  0  0  0  0  0  0  0  0  0  0
  -21.2030   -6.3550   24.1100 C   0  0  0  0  0  3  0  0  0  0  0  0
  -21.1250   -5.5840   25.2870 C   0  0  0  0  0  3  0  0  0  0  0  0
  -21.3960   -4.2040   25.2450 C   0  0  0  0  0  0  0  0  0  0  0  0
  -21.7520   -3.5920   24.0300 C   0  0  0  0  0  3  0  0  0  0  0  0
  -21.8320   -4.3600   22.8540 C   0  0  0  0  0  0  0  0  0  0  0  0
  -22.1550   -3.7620   21.6820 F   0  0  0  0  0  0  0  0  0  0  0  0
  -21.3120   -3.4610   26.3740 F   0  0  0  0  0  0  0  0  0  0  0  0
  -23.0600  -13.0220   21.5350 C   0  0  0  0  0  0  0  0  0  0  0  0
  -22.4890  -12.3370   22.5190 N   0  0  0  0  0  0  0  0  0  0  0  0
  -22.5840  -14.0870   21.1440 O   0  0  0  0  0  0  0  0  0  0  0  0
  -22.8900  -11.4760   22.8580 H   0  0  0  0  0  0  0  0  0  0  0  0
  -21.6370  -12.6800   22.9390 H   0  0  0  0  0  0  0  0  0  0  0  0
  -25.5880  -14.5800   20.2950 N   0  0  0  0  0  0  0  0  0  0  0  0
  -24.9050  -15.2700   20.5880 H   0  0  0  0  0  0  0  0  0  0  0  0
  -26.3960  -14.9900   19.8420 H   0  0  0  0  0  0  0  0  0  0  0  0
  -29.4320  -22.8570   19.8470 C   0  0  0  0  0  2  0  0  0  0  0  0
  -28.3840  -23.8840   20.2720 C   0  0  0  0  0  2  0  0  0  0  0  0
  -28.0720  -24.9160   19.1900 C   0  0  0  0  0  2  0  0  0  0  0  0
  -27.1600  -25.9900   19.7680 C   0  0  0  0  0  2  0  0  0  0  0  0
  -27.1150  -27.1110   18.9040 O   0  0  0  0  0  0  0  0  0  0  0  0
  -24.3960  -31.9450   23.3300 C   0  0  0  0  0  0  0  0  0  0  0  0
  -26.0590  -27.9220   19.2090 C   0  0  0  0  0  0  0  0  0  0  0  0
  -22.8150  -30.9500   21.7100 C   0  0  0  0  0  3  0  0  0  0  0  0
  -23.8670  -29.5590   19.8530 C   0  0  0  0  0  0  0  0  0  0  0  0
  -25.3080  -31.1240   21.1650 C   0  0  0  0  0  2  0  0  0  0  0  0
  -25.1470  -29.8840   20.3190 C   0  0  0  0  0  0  0  0  0  0  0  0
  -26.2520  -29.0700   19.9980 C   0  0  0  0  0  3  0  0  0  0  0  0
  -24.7700  -27.5920   18.7470 C   0  0  0  0  0  3  0  0  0  0  0  0
  -23.6670  -28.4070   19.0690 C   0  0  0  0  0  3  0  0  0  0  0  0
  -22.7450  -30.4970   20.2270 C   0  0  0  0  0  2  0  0  0  0  0  0
  -24.2000  -31.3410   22.1250 N   0  0  0  0  0  0  0  0  0  0  0  0
  -23.4410  -32.2190   24.0700 O   0  0  0  0  0  0  0  0  0  0  0  0
  -22.2020  -29.8410   22.5900 C   0  0  0  0  0  0  0  0  0  0  0  0
  -20.8700  -29.6980   22.5230 N   0  0  0  0  0  0  0  0  0  0  0  0
  -22.9180  -29.1160   23.2870 O   0  0  0  0  0  0  0  0  0  0  0  0
  -20.3540  -30.3390   21.9350 H   0  0  0  0  0  0  0  0  0  0  0  0
  -17.5280  -28.3850   22.9190 C   0  0  0  0  0  0  0  0  0  0  0  0
  -20.0740  -28.6980   23.2350 C   0  0  0  0  0  3  0  0  0  0  0  0
  -20.2230  -27.3020   22.5860 C   0  0  0  0  0  2  0  0  0  0  0  0
  -19.1400  -27.0030   21.5440 C   0  0  0  0  0  2  0  0  0  0  0  0
  -17.7490  -27.0770   22.1790 C   0  0  0  0  0  2  0  0  0  0  0  0
  -18.6190  -29.1540   23.4000 C   0  0  0  0  0  0  0  0  0  0  0  0
  -18.3610  -30.3830   24.0460 C   0  0  0  0  0  3  0  0  0  0  0  0
  -17.0430  -30.8390   24.2210 C   0  0  0  0  0  3  0  0  0  0  0  0
  -15.9630  -30.0670   23.7590 C   0  0  0  0  0  3  0  0  0  0  0  0
  -16.2080  -28.8430   23.1110 C   0  0  0  0  0  3  0  0  0  0  0  0
  -25.8210  -32.3430   23.8270 C   0  0  0  0  0  3  0  0  0  0  0  0
  -26.3990  -31.3600   24.9170 C   0  0  1  0  0  0  0  0  0  0  0  0
  -25.4350  -31.1110   26.1000 C   0  0  0  0  0  1  0  0  0  0  0  0
  -26.7410  -29.9880   24.2890 C   0  0  0  0  0  1  0  0  0  0  0  0
  -27.7220  -31.9260   25.4840 C   0  0  0  0  0  1  0  0  0  0  0  0
  -25.7390  -33.7130   24.3480 N   0  0  0  0  0  0  0  0  0  0  0  0
  -26.1400  -34.8050   23.6820 C   0  0  0  0  0  0  0  0  0  0  0  0
  -26.6920  -34.7520   22.5780 O   0  0  0  0  0  0  0  0  0  0  0  0
  -25.2420  -33.8390   25.2180 H   0  0  0  0  0  0  0  0  0  0  0  0
  -24.6470  -36.8300   23.7200 C   0  0  0  0  0  1  0  0  0  0  0  0
  -25.8870  -36.1730   24.3450 C   0  0  0  0  0  3  0  0  0  0  0  0
  -28.1890  -36.6670   25.0470 C   0  0  0  0  0  1  0  0  0  0  0  0
  -27.0410  -37.0930   24.2490 N   0  0  0  0  0  0  0  0  0  0  0  0
  -26.7800  -38.0310   24.5420 H   0  0  0  0  0  0  0  0  0  0  0  0
  2  1  1  0
  3  2  1  0
  3  4  1  0
  5  6  1  0
  6  8  1  0
  6  4  1  0
  6  7  1  6
  9 10  1  0
  9  8  1  0
 11 17  1  0
 11 20  1  0
 12 17  1  0
 13 14  1  0
 13 12  1  0
 15 14  1  0
 15 24  1  0
 15 16  1  0
 17 16  1  0
 18 11  2  0
 20 10  1  0
 20 19  1  0
 21 22  2  0
 22 41  1  0
 23 22  1  0
 23 26  1  0
 24 25  1  0
 24 21  1  0
 25 23  2  0
 26 27  1  0
 27 28  2  0
 29 32  1  0
 29 28  1  0
 30 29  2  0
 31 30  1  0
 31 26  2  0
 32 33  1  0
 33 34  1  0
 34 35  2  0
 36 35  1  0
 36 40  1  0
 37 36  2  0
 38 33  2  0
 38 37  1  0
 39 38  1  0
 41 42  1  0
 42 44  1  0
 42 45  1  0
 43 41  2  0
 46 21  1  0
 46 47  1  0
 48 46  1  0
 49 50  1  0
 49  2  1  0
 51 52  1  0
 51 50  1  0
 53 55  1  0
 53 52  1  0
 54 65  2  0
 55 60  1  0
 56 64  1  0
 56 66  1  0
 57 63  1  0
 57 59  1  0
 58 64  1  0
 59 58  1  0
 60 59  2  0
 61 62  1  0
 61 55  2  0
 62 57  2  0
 63 56  1  0
 64 54  1  0
 66 68  2  0
 67 66  1  0
 69 67  1  0
 70 79  2  0
 70 75  1  0
 71 67  1  0
 71 75  1  0
 72 71  1  0
 73 74  1  0
 73 72  1  0
 74 70  1  0
 75 76  2  0
 76 77  1  0
 78 77  2  0
 79 78  1  0
 80 54  1  0
 80 85  1  0
 80 81  1  0
 81 84  1  1
 81 82  1  0
 83 81  1  0
 85 88  1  0
 86 90  1  0
 86 85  1  0
 87 86  2  0
 90 89  1  0
 92 90  1  0
 92 93  1  0
 92 91  1  0
M  ISO  4  11 100  20 100  52 101  53 101
M  END
>  <TORSDO>  (61) 
F 26

>  <SCORE>  (61) 
-8.816

>  <name>  (61) 
61

>  <ligand_id>  (61) 
61

>  <original_smiles>  (61) 
[H]c1c([H])c([H])c2c(c1[H])C([H])([H])C([H])([H])C([H])([H])C2([H])N([H])C(=O)C1([H])N(C(=O)C([H])(N([H])C(=O)C([H])(N([H])C([H])([H])[H])C([H])([H])[H])C(C([H])([H])[H])(C([H])([H])[H])C([H])([H])[H])C([H])([H])c2c([H])c(OC([H])([H])C([H])([H])C([H])([H])C([H])([H])C([H])(C([H])([H])[H])C([H])([H])C([H])([H])[N+]([H])(C([H])([H])[H])C([H])([H])C([H])([H])C([H])([H])N(C(=O)N3C([H])([H])C([H])([H])C([H])([H])C([H])(n4nc(-c5c([H])c([H])c(Oc6c([H])c([H])c(F)c([H])c6F)c([H])c5[H])c(C(=O)N([H])[H])c4N([H])[H])C3([H])[H])C([H])([H])[H])c([H])c([H])c2C1([H])[H]

>  <smiles>  (61) 
[H]c1c([H])c([H])c2c(c1[H])C([H])([H])C([H])([H])C([H])([H])C2([H])N([H])C(=O)C1([H])N(C(=O)C([H])(N([H])C(=O)C([H])(N([H])C([H])([H])[H])C([H])([H])[H])C(C([H])([H])[H])(C([H])([H])[H])C([H])([H])[H])C([H])([H])c2c([H])c(OC([H])([H])C([H])([H])C([H])([H])C([H])([H])C([H])(C([H])([H])[H])C([H])([H])C([H])([H])[N+]([H])(C([H])([H])[H])C([H])([H])C([H])([H])C([H])([H])N(C(=O)N3C([H])([H])C([H])([H])C([H])([H])C([H])(n4nc(-c5c([H])c([H])c(Oc6c([H])c([H])c(F)c([H])c6F)c([H])c5[H])c(C(=O)N([H])[H])c4N([H])[H])C3([H])[H])C([H])([H])[H])c([H])c([H])c2C1([H])[H]

$$$$
62:0:0
     RDKit          3D

100108  0  0  1  0  0  0  0  0999 V2000
  -27.5360  -18.9680   22.3730 C   0  0  0  0  0  2  0  0  0  0  0  0
  -27.6360  -17.4410   22.5480 C   0  0  0  0  0  2  0  0  0  0  0  0
  -27.9890  -15.4880   20.9550 C   0  0  0  0  0  3  0  0  0  0  0  0
  -28.3890  -16.7580   21.4170 C   0  0  0  0  0  0  0  0  0  0  0  0
  -30.0140  -16.8550   19.7750 C   0  0  0  0  0  0  0  0  0  0  0  0
  -29.6470  -15.5470   19.3430 C   0  0  0  0  0  0  0  0  0  0  0  0
  -28.6070  -14.8910   19.9150 N   0  0  0  0  0  0  0  0  0  0  0  0
  -29.3960  -17.4490   20.8270 N   0  0  0  0  0  0  0  0  0  0  0  0
  -32.3630  -17.8620   19.9190 C   0  0  0  0  0  1  0  0  0  0  0  0
  -31.0790  -17.7020   19.0900 C   0  0  0  0  0  2  0  0  0  0  0  0
  -30.3810  -14.7610   18.2560 C   0  0  0  0  0  2  0  0  0  0  0  0
  -30.6730  -12.3410   17.9470 C   0  0  0  0  0  0  0  0  0  0  0  0
  -30.6400   -9.8790   18.0340 C   0  0  0  0  0  2  0  0  0  0  0  0
  -29.3960   -9.2280   17.4010 C   0  0  0  0  0  2  0  0  0  0  0  0
  -28.2400   -9.1420   18.4120 C   0  0  0  0  0  2  0  0  0  0  0  0
  -27.9740  -10.4960   19.1140 C   0  0  0  0  0  3  0  0  0  0  0  0
  -29.2890  -11.1010   19.6600 C   0  0  0  0  0  2  0  0  0  0  0  0
  -30.2870  -11.1990   18.5740 N   0  0  0  0  0  0  0  0  0  0  0  0
  -31.0090  -12.3720   16.7570 O   0  0  0  0  0  0  0  0  0  0  0  0
  -30.8090  -13.4360   18.7340 N   0  0  0  0  0  0  0  0  0  0  0  0
  -26.6420  -11.1980   21.2130 C   0  0  0  0  0  0  0  0  0  0  0  0
  -25.5690  -10.6350   21.8470 C   0  0  0  0  0  0  0  0  0  0  0  0
  -25.2510   -9.4530   21.1110 C   0  0  0  0  0  0  0  0  0  0  0  0
  -26.9540  -10.3510   20.1570 N   0  0  0  0  0  0  0  0  0  0  0  0
  -26.1270   -9.2730   20.1310 N   0  0  0  0  0  0  0  0  0  0  0  0
  -24.1350   -8.5080   21.2560 C   0  0  0  0  0  0  0  0  0  0  0  0
  -24.2110   -7.4140   22.1460 C   0  0  0  0  0  3  0  0  0  0  0  0
  -23.1230   -6.5260   22.2880 C   0  0  0  0  0  3  0  0  0  0  0  0
  -21.9390   -6.7280   21.5380 C   0  0  0  0  0  0  0  0  0  0  0  0
  -21.8770   -7.8050   20.6350 C   0  0  0  0  0  3  0  0  0  0  0  0
  -22.9620   -8.6860   20.4930 C   0  0  0  0  0  3  0  0  0  0  0  0
  -20.8430   -5.9020   21.5850 O   0  0  0  0  0  0  0  0  0  0  0  0
  -20.1790   -5.6540   22.7600 C   0  0  0  0  0  0  0  0  0  0  0  0
  -19.5260   -6.6800   23.4780 C   0  0  0  0  0  3  0  0  0  0  0  0
  -18.7950   -6.3690   24.6420 C   0  0  0  0  0  3  0  0  0  0  0  0
  -18.7060   -5.0340   25.0840 C   0  0  0  0  0  0  0  0  0  0  0  0
  -19.3500   -4.0110   24.3650 C   0  0  0  0  0  3  0  0  0  0  0  0
  -20.0810   -4.3200   23.2040 C   0  0  0  0  0  0  0  0  0  0  0  0
  -20.6790   -3.3280   22.5040 F   0  0  0  0  0  0  0  0  0  0  0  0
  -17.9980   -4.7340   26.1960 F   0  0  0  0  0  0  0  0  0  0  0  0
  -24.8140  -11.2060   23.0140 C   0  0  0  0  0  0  0  0  0  0  0  0
  -24.2740  -10.3500   23.8750 N   0  0  0  0  0  0  0  0  0  0  0  0
  -24.7430  -12.4210   23.1990 O   0  0  0  0  0  0  0  0  0  0  0  0
  -24.3530   -9.3540   23.7370 H   0  0  0  0  0  0  0  0  0  0  0  0
  -23.7740  -10.6960   24.6820 H   0  0  0  0  0  0  0  0  0  0  0  0
  -27.3680  -12.3650   21.4380 N   0  0  0  0  0  0  0  0  0  0  0  0
  -27.1080  -13.0290   22.1590 H   0  0  0  0  0  0  0  0  0  0  0  0
  -28.1710  -12.6570   20.8960 H   0  0  0  0  0  0  0  0  0  0  0  0
  -33.0900  -12.9610   19.7090 C   0  0  0  0  0  1  0  0  0  0  0  0
  -31.6510  -13.4640   19.9480 C   0  0  0  0  0  2  0  0  0  0  0  0
  -28.1940  -19.5310   21.0910 C   0  0  0  0  0  2  0  0  0  0  0  0
  -29.2480  -20.5930   21.4270 C   0  0  0  0  0  2  0  0  0  0  0  0
  -30.4620  -20.4750   20.5900 N   0  0  0  0  0  4  0  0  0  0  0  0
  -30.2210  -20.6620   19.6300 H   0  0  0  0  0  0  0  0  0  0  0  0
  -30.8010  -19.5280   20.6420 H   0  0  0  0  0  0  0  0  0  0  0  0
  -31.5160  -21.4060   21.0430 C   0  0  0  0  0  2  0  0  0  0  0  0
  -32.7440  -21.4810   20.1200 C   0  0  0  0  0  2  0  0  0  0  0  0
  -33.4630  -22.8220   20.3180 C   0  0  0  0  0  2  0  0  0  0  0  0
  -34.2900  -23.2820   19.1070 C   0  0  0  0  0  2  0  0  0  0  0  0
  -33.9480  -24.6270   18.7950 O   0  0  0  0  0  0  0  0  0  0  0  0
  -28.0490  -27.2820   21.6940 C   0  0  0  0  0  0  0  0  0  0  0  0
  -32.6230  -24.9510   18.5750 C   0  0  0  0  0  0  0  0  0  0  0  0
  -27.7760  -26.3160   19.4310 C   0  0  0  0  0  3  0  0  0  0  0  0
  -29.9340  -25.7390   18.2090 C   0  0  0  0  0  0  0  0  0  0  0  0
  -30.0230  -27.2790   20.1750 C   0  0  0  0  0  2  0  0  0  0  0  0
  -30.6850  -26.2790   19.2560 C   0  0  0  0  0  0  0  0  0  0  0  0
  -32.0280  -25.8920   19.4380 C   0  0  0  0  0  3  0  0  0  0  0  0
  -31.8450  -24.3990   17.5270 C   0  0  0  0  0  3  0  0  0  0  0  0
  -30.5070  -24.7930   17.3440 C   0  0  0  0  0  3  0  0  0  0  0  0
  -28.5120  -26.2250   18.0700 C   0  0  0  0  0  2  0  0  0  0  0  0
  -28.6130  -26.9570   20.4960 N   0  0  0  0  0  0  0  0  0  0  0  0
  -26.8410  -27.1020   21.9000 O   0  0  0  0  0  0  0  0  0  0  0  0
  -27.2710  -24.9070   19.8130 C   0  0  0  0  0  0  0  0  0  0  0  0
  -26.4580  -24.3070   18.9290 N   0  0  0  0  0  0  0  0  0  0  0  0
  -27.6270  -24.3710   20.8660 O   0  0  0  0  0  0  0  0  0  0  0  0
  -26.2120  -24.8100   18.0860 H   0  0  0  0  0  0  0  0  0  0  0  0
  -24.6440  -21.7370   17.1600 C   0  0  0  0  0  0  0  0  0  0  0  0
  -25.8900  -22.9680   19.0610 C   0  0  0  0  0  3  0  0  0  0  0  0
  -26.9840  -21.8870   18.9100 C   0  0  0  0  0  2  0  0  0  0  0  0
  -27.1290  -21.3740   17.4740 C   0  0  0  0  0  2  0  0  0  0  0  0
  -25.8100  -20.7790   16.9750 C   0  0  0  0  0  2  0  0  0  0  0  0
  -24.6900  -22.7750   18.1280 C   0  0  0  0  0  0  0  0  0  0  0  0
  -23.5990  -23.6650   18.2350 C   0  0  0  0  0  3  0  0  0  0  0  0
  -22.4730  -23.5240   17.4010 C   0  0  0  0  0  3  0  0  0  0  0  0
  -22.4230  -22.4840   16.4560 C   0  0  0  0  0  3  0  0  0  0  0  0
  -23.5040  -21.5920   16.3390 C   0  0  0  0  0  3  0  0  0  0  0  0
  -28.8880  -27.9190   22.8480 C   0  0  0  0  0  3  0  0  0  0  0  0
  -28.0870  -29.0040   23.4330 N   0  0  0  0  0  0  0  0  0  0  0  0
  -28.2410  -30.3020   23.1420 C   0  0  0  0  0  0  0  0  0  0  0  0
  -29.1320  -30.7190   22.3940 O   0  0  0  0  0  0  0  0  0  0  0  0
  -27.3050  -28.7340   24.0120 H   0  0  0  0  0  0  0  0  0  0  0  0
  -26.1750  -31.6830   22.7390 C   0  0  0  0  0  1  0  0  0  0  0  0
  -27.2450  -31.2970   23.7740 C   0  0  0  0  0  3  0  0  0  0  0  0
  -28.6980  -32.2650   25.4980 C   0  0  0  0  0  1  0  0  0  0  0  0
  -27.8860  -32.5160   24.3090 N   0  0  0  0  0  0  0  0  0  0  0  0
  -27.1880  -33.2180   24.5410 H   0  0  0  0  0  0  0  0  0  0  0  0
  -29.3220  -26.8800   23.9540 C   0  0  1  0  0  0  0  0  0  0  0  0
  -28.1600  -26.0140   24.4920 C   0  0  0  0  0  1  0  0  0  0  0  0
  -30.4030  -25.9170   23.4050 C   0  0  0  0  0  1  0  0  0  0  0  0
  -29.9600  -27.6210   25.1550 C   0  0  0  0  0  1  0  0  0  0  0  0
  1  2  1  0
  3  4  1  0
  4  2  1  0
  5  8  1  0
  6  5  2  0
  6  7  1  0
  7  3  2  0
  8  4  2  0
 10  5  1  0
 10  9  1  0
 11 20  1  0
 11  6  1  0
 12 18  1  0
 12 20  1  0
 13 18  1  0
 14 13  1  0
 14 15  1  0
 16 15  1  0
 16 17  1  0
 16 24  1  0
 18 17  1  0
 19 12  2  0
 20 50  1  0
 21 46  1  0
 21 22  2  0
 22 41  1  0
 23 26  1  0
 23 22  1  0
 24 21  1  0
 25 24  1  0
 25 23  2  0
 26 27  1  0
 27 28  2  0
 29 32  1  0
 29 28  1  0
 30 29  2  0
 31 30  1  0
 31 26  2  0
 32 33  1  0
 33 38  2  0
 33 34  1  0
 34 35  2  0
 35 36  1  0
 36 40  1  0
 37 36  2  0
 38 37  1  0
 39 38  1  0
 41 43  2  0
 41 42  1  0
 42 45  1  0
 44 42  1  0
 46 47  1  0
 48 46  1  0
 49 50  1  0
 51 52  1  0
 51  1  1  0
 53 55  1  0
 53 56  1  0
 53 52  1  0
 54 53  1  0
 57 58  1  0
 57 56  1  0
 59 58  1  0
 60 59  1  0
 61 72  2  0
 62 60  1  0
 62 67  1  0
 63 73  1  0
 63 71  1  0
 64 66  1  0
 65 71  1  0
 66 67  2  0
 66 65  1  0
 68 62  2  0
 69 68  1  0
 69 64  2  0
 70 64  1  0
 70 63  1  0
 71 61  1  0
 73 75  2  0
 74 73  1  0
 76 74  1  0
 77 82  1  0
 78 74  1  0
 79 78  1  0
 80 79  1  0
 81 77  1  0
 81 80  1  0
 82 83  2  0
 82 78  1  0
 84 83  1  0
 85 84  2  0
 86 85  1  0
 86 77  2  0
 87 61  1  0
 87 88  1  0
 87 97  1  0
 88 91  1  0
 89 88  1  0
 89 93  1  0
 90 89  2  0
 93 92  1  0
 93 95  1  0
 95 96  1  0
 95 94  1  0
 97 98  1  1
 97100  1  0
 99 97  1  0
M  ISO  4  12 100  20 100  59 101  60 101
M  END
>  <TORSDO>  (62) 
F 28

>  <SCORE>  (62) 
20.616

>  <name>  (62) 
62

>  <ligand_id>  (62) 
62

>  <original_smiles>  (62) 
[H]c1nc(C([H])([H])N(C(=O)N2C([H])([H])C([H])([H])C([H])([H])C([H])(n3nc(-c4c([H])c([H])c(Oc5c([H])c([H])c(F)c([H])c5F)c([H])c4[H])c(C(=O)N([H])[H])c3N([H])[H])C2([H])[H])C([H])([H])C([H])([H])[H])c(C([H])([H])C([H])([H])[H])nc1C([H])([H])C([H])([H])C([H])([H])C([H])([H])[N+]([H])([H])C([H])([H])C([H])([H])C([H])([H])C([H])([H])Oc1c([H])c([H])c2c(c1[H])C([H])([H])N(C(=O)C([H])(N([H])C(=O)C([H])(N([H])C([H])([H])[H])C([H])([H])[H])C(C([H])([H])[H])(C([H])([H])[H])C([H])([H])[H])C([H])(C(=O)N([H])C1([H])c3c([H])c([H])c([H])c([H])c3C([H])([H])C([H])([H])C1([H])[H])C2([H])[H]

>  <smiles>  (62) 
[H]c1nc(C([H])([H])N(C(=O)N2C([H])([H])C([H])([H])C([H])([H])C([H])(n3nc(-c4c([H])c([H])c(Oc5c([H])c([H])c(F)c([H])c5F)c([H])c4[H])c(C(=O)N([H])[H])c3N([H])[H])C2([H])[H])C([H])([H])C([H])([H])[H])c(C([H])([H])C([H])([H])[H])nc1C([H])([H])C([H])([H])C([H])([H])C([H])([H])[N+]([H])([H])C([H])([H])C([H])([H])C([H])([H])C([H])([H])Oc1c([H])c([H])c2c(c1[H])C([H])([H])N(C(=O)C([H])(N([H])C(=O)C([H])(N([H])C([H])([H])[H])C([H])([H])[H])C(C([H])([H])[H])(C([H])([H])[H])C([H])([H])[H])C([H])(C(=O)N([H])C1([H])c3c([H])c([H])c([H])c([H])c3C([H])([H])C([H])([H])C1([H])[H])C2([H])[H]

$$$$
63:0:0
     RDKit          3D

 93101  0  0  1  0  0  0  0  0999 V2000
  -29.5120  -21.7480   19.9430 C   0  0  0  0  0  3  0  0  0  0  0  0
  -29.2150  -22.9960   19.3770 C   0  0  0  0  0  3  0  0  0  0  0  0
  -29.5780  -21.6590   21.3470 C   0  0  0  0  0  0  0  0  0  0  0  0
  -28.9360  -24.0750   20.2380 C   0  0  0  0  0  0  0  0  0  0  0  0
  -29.3740  -22.7530   22.1350 N   0  0  0  0  0  0  0  0  0  0  0  0
  -29.0310  -23.9390   21.5920 N   0  0  0  0  0  0  0  0  0  0  0  0
  -29.8160  -20.2940   22.0130 C   0  0  0  0  0  2  0  0  0  0  0  0
  -32.0110  -20.1450   20.7660 C   0  0  0  0  0  1  0  0  0  0  0  0
  -31.2330  -19.8230   21.9890 N   0  0  2  0  0  4  0  0  0  0  0  0
  -31.6740  -20.3850   22.7030 H   0  0  0  0  0  0  0  0  0  0  0  0
  -31.4330  -18.4160   22.4510 C   0  0  0  0  0  2  0  0  0  0  0  0
  -30.8240  -17.2970   21.5480 C   0  0  0  0  0  2  0  0  0  0  0  0
  -31.6890  -16.0090   21.4870 C   0  0  0  0  0  2  0  0  0  0  0  0
  -30.7830  -14.3720   19.8480 C   0  0  0  0  0  0  0  0  0  0  0  0
  -30.1180  -12.4760   18.4070 C   0  0  0  0  0  2  0  0  0  0  0  0
  -29.0390  -12.8110   17.3640 C   0  0  0  0  0  2  0  0  0  0  0  0
  -27.6340  -12.6350   17.9600 C   0  0  0  0  0  2  0  0  0  0  0  0
  -27.4750  -13.3780   19.3050 C   0  0  0  0  0  3  0  0  0  0  0  0
  -28.6440  -13.0840   20.2670 C   0  0  0  0  0  2  0  0  0  0  0  0
  -29.9400  -13.3260   19.6000 N   0  0  0  0  0  0  0  0  0  0  0  0
  -31.4840  -14.8650   18.9600 O   0  0  0  0  0  0  0  0  0  0  0  0
  -30.8730  -13.8050   22.2570 C   0  0  0  0  0  1  0  0  0  0  0  0
  -30.9360  -14.7720   21.1440 N   0  0  0  0  0  0  0  0  0  0  0  0
  -25.1710  -13.9470   20.3130 C   0  0  0  0  0  0  0  0  0  0  0  0
  -24.1470  -13.1530   20.7580 C   0  0  0  0  0  0  0  0  0  0  0  0
  -24.5970  -11.8050   20.6160 C   0  0  0  0  0  0  0  0  0  0  0  0
  -26.1830  -13.0790   19.9240 N   0  0  0  0  0  0  0  0  0  0  0  0
  -25.8460  -11.7840   20.1660 N   0  0  0  0  0  0  0  0  0  0  0  0
  -23.8910  -10.5340   20.8280 C   0  0  0  0  0  0  0  0  0  0  0  0
  -24.4190   -9.5200   21.6600 C   0  0  0  0  0  3  0  0  0  0  0  0
  -23.7100   -8.3170   21.8610 C   0  0  0  0  0  3  0  0  0  0  0  0
  -22.4590   -8.1160   21.2290 C   0  0  0  0  0  0  0  0  0  0  0  0
  -21.9490   -9.1170   20.3850 C   0  0  0  0  0  3  0  0  0  0  0  0
  -22.6580  -10.3120   20.1810 C   0  0  0  0  0  3  0  0  0  0  0  0
  -21.7110   -6.9690   21.3460 O   0  0  0  0  0  0  0  0  0  0  0  0
  -21.7900   -6.1660   22.4550 C   0  0  0  0  0  0  0  0  0  0  0  0
  -21.5410   -6.6630   23.7520 C   0  0  0  0  0  3  0  0  0  0  0  0
  -21.5650   -5.7910   24.8580 C   0  0  0  0  0  3  0  0  0  0  0  0
  -21.8300   -4.4210   24.6700 C   0  0  0  0  0  0  0  0  0  0  0  0
  -22.0720   -3.9220   23.3770 C   0  0  0  0  0  3  0  0  0  0  0  0
  -22.0500   -4.7920   22.2730 C   0  0  0  0  0  0  0  0  0  0  0  0
  -22.2640   -4.3030   21.0280 F   0  0  0  0  0  0  0  0  0  0  0  0
  -21.8440   -3.5800   25.7310 F   0  0  0  0  0  0  0  0  0  0  0  0
  -22.7890  -13.6140   21.2030 C   0  0  0  0  0  0  0  0  0  0  0  0
  -22.1670  -12.8860   22.1260 N   0  0  0  0  0  0  0  0  0  0  0  0
  -22.2910  -14.6510   20.7680 O   0  0  0  0  0  0  0  0  0  0  0  0
  -22.5850  -12.0440   22.4930 H   0  0  0  0  0  0  0  0  0  0  0  0
  -21.2600  -13.1750   22.4650 H   0  0  0  0  0  0  0  0  0  0  0  0
  -25.3200  -15.3250   20.1860 N   0  0  0  0  0  0  0  0  0  0  0  0
  -24.5770  -15.9740   20.4200 H   0  0  0  0  0  0  0  0  0  0  0  0
  -26.1440  -15.7870   19.8210 H   0  0  0  0  0  0  0  0  0  0  0  0
  -28.1730  -25.2590   19.6380 C   0  0  0  0  0  2  0  0  0  0  0  0
  -28.2330  -26.5630   20.2590 O   0  0  0  0  0  0  0  0  0  0  0  0
  -24.5430  -31.8970   23.2220 C   0  0  0  0  0  0  0  0  0  0  0  0
  -27.0970  -27.3630   20.1630 C   0  0  0  0  0  0  0  0  0  0  0  0
  -23.3160  -30.5050   21.5960 C   0  0  0  0  0  3  0  0  0  0  0  0
  -24.7390  -28.9550   20.1660 C   0  0  0  0  0  0  0  0  0  0  0  0
  -25.8530  -30.8050   21.4030 C   0  0  0  0  0  2  0  0  0  0  0  0
  -25.9100  -29.4340   20.7660 C   0  0  0  0  0  0  0  0  0  0  0  0
  -27.0890  -28.6460   20.7670 C   0  0  0  0  0  3  0  0  0  0  0  0
  -25.9060  -26.9390   19.5140 C   0  0  0  0  0  3  0  0  0  0  0  0
  -24.7360  -27.7080   19.5320 C   0  0  0  0  0  3  0  0  0  0  0  0
  -23.5120  -29.8340   20.2150 C   0  0  0  0  0  2  0  0  0  0  0  0
  -24.5910  -31.0830   22.1320 N   0  0  0  0  0  0  0  0  0  0  0  0
  -23.4650  -32.1910   23.7600 O   0  0  0  0  0  0  0  0  0  0  0  0
  -22.6510  -29.4920   22.5550 C   0  0  0  0  0  0  0  0  0  0  0  0
  -21.3240  -29.3280   22.4260 N   0  0  0  0  0  0  0  0  0  0  0  0
  -23.3220  -28.8590   23.3730 O   0  0  0  0  0  0  0  0  0  0  0  0
  -20.8380  -29.8980   21.7480 H   0  0  0  0  0  0  0  0  0  0  0  0
  -17.9350  -28.1650   22.9200 C   0  0  0  0  0  0  0  0  0  0  0  0
  -20.4930  -28.4020   23.1990 C   0  0  0  0  0  3  0  0  0  0  0  0
  -20.5840  -26.9630   22.6370 C   0  0  0  0  0  2  0  0  0  0  0  0
  -19.4830  -26.6420   21.6200 C   0  0  0  0  0  2  0  0  0  0  0  0
  -18.1000  -26.8070   22.2560 C   0  0  0  0  0  2  0  0  0  0  0  0
  -19.0610  -28.9210   23.3470 C   0  0  0  0  0  0  0  0  0  0  0  0
  -18.8520  -30.1930   23.9220 C   0  0  0  0  0  3  0  0  0  0  0  0
  -17.5540  -30.7100   24.0780 C   0  0  0  0  0  3  0  0  0  0  0  0
  -16.4440  -29.9530   23.6650 C   0  0  0  0  0  3  0  0  0  0  0  0
  -16.6340  -28.6830   23.0940 C   0  0  0  0  0  3  0  0  0  0  0  0
  -25.8360  -32.5140   23.8380 C   0  0  0  0  0  3  0  0  0  0  0  0
  -25.5410  -33.9160   24.1680 N   0  0  0  0  0  0  0  0  0  0  0  0
  -25.8720  -34.9650   23.4030 C   0  0  0  0  0  0  0  0  0  0  0  0
  -26.5330  -34.8540   22.3660 O   0  0  0  0  0  0  0  0  0  0  0  0
  -24.9630  -34.0790   24.9800 H   0  0  0  0  0  0  0  0  0  0  0  0
  -24.1550  -36.7730   23.0600 C   0  0  0  0  0  1  0  0  0  0  0  0
  -25.3980  -36.3580   23.8640 C   0  0  0  0  0  3  0  0  0  0  0  0
  -27.5490  -37.2250   24.6730 C   0  0  0  0  0  1  0  0  0  0  0  0
  -26.4380  -37.4030   23.7420 N   0  0  0  0  0  0  0  0  0  0  0  0
  -26.0420  -38.3270   23.8960 H   0  0  0  0  0  0  0  0  0  0  0  0
  -26.3510  -31.7380   25.1120 C   0  0  1  0  0  0  0  0  0  0  0  0
  -25.2590  -31.5090   26.1850 C   0  0  0  0  0  1  0  0  0  0  0  0
  -26.9220  -30.3550   24.7160 C   0  0  0  0  0  1  0  0  0  0  0  0
  -27.5110  -32.5240   25.7690 C   0  0  0  0  0  1  0  0  0  0  0  0
  1  3  1  0
  2  1  2  0
  2  4  1  0
  3  7  1  0
  3  5  2  0
  4  6  2  0
  6  5  1  0
  8  9  1  0
  9  7  1  0
  9 11  1  0
  9 10  1  1
 12 11  1  0
 13 12  1  0
 14 23  1  0
 15 20  1  0
 16 17  1  0
 16 15  1  0
 18 17  1  0
 18 27  1  0
 18 19  1  0
 20 14  1  0
 20 19  1  0
 21 14  2  0
 23 13  1  0
 23 22  1  0
 24 25  2  0
 25 44  1  0
 26 25  1  0
 26 29  1  0
 27 28  1  0
 27 24  1  0
 28 26  2  0
 29 30  1  0
 30 31  2  0
 32 35  1  0
 32 31  1  0
 33 32  2  0
 34 33  1  0
 34 29  2  0
 35 36  1  0
 36 37  1  0
 37 38  2  0
 39 38  1  0
 39 43  1  0
 40 39  2  0
 41 36  2  0
 41 40  1  0
 42 41  1  0
 44 45  1  0
 45 48  1  0
 45 47  1  0
 46 44  2  0
 49 24  1  0
 49 50  1  0
 51 49  1  0
 52  4  1  0
 52 53  1  0
 54 65  2  0
 55 53  1  0
 55 60  1  0
 56 64  1  0
 56 66  1  0
 57 63  1  0
 57 59  1  0
 58 64  1  0
 59 60  2  0
 59 58  1  0
 61 62  1  0
 61 55  2  0
 62 57  2  0
 63 56  1  0
 64 54  1  0
 66 68  2  0
 67 66  1  0
 69 67  1  0
 70 79  2  0
 70 75  1  0
 71 67  1  0
 71 75  1  0
 72 71  1  0
 73 74  1  0
 73 72  1  0
 74 70  1  0
 75 76  2  0
 76 77  1  0
 78 77  2  0
 79 78  1  0
 80 54  1  0
 80 81  1  0
 80 90  1  0
 81 84  1  0
 82 86  1  0
 82 81  1  0
 83 82  2  0
 86 85  1  0
 88 86  1  0
 88 89  1  0
 88 87  1  0
 90 93  1  1
 90 91  1  0
 92 90  1  0
M  ISO  4  14 100  23 100  52 101  53 101
M  END
>  <TORSDO>  (63) 
F 22

>  <SCORE>  (63) 
-10.829

>  <name>  (63) 
63

>  <ligand_id>  (63) 
63

>  <original_smiles>  (63) 
[H]c1c(C([H])([H])Oc2c([H])c([H])c3c(c2[H])C([H])([H])N(C(=O)C([H])(N([H])C(=O)C([H])(N([H])C([H])([H])[H])C([H])([H])[H])C(C([H])([H])[H])(C([H])([H])[H])C([H])([H])[H])C([H])(C(=O)N([H])C2([H])c4c([H])c([H])c([H])c([H])c4C([H])([H])C([H])([H])C2([H])[H])C3([H])[H])nnc(C([H])([H])[N+]([H])(C([H])([H])[H])C([H])([H])C([H])([H])C([H])([H])N(C(=O)N2C([H])([H])C([H])([H])C([H])([H])C([H])(n3nc(-c4c([H])c([H])c(Oc5c([H])c([H])c(F)c([H])c5F)c([H])c4[H])c(C(=O)N([H])[H])c3N([H])[H])C2([H])[H])C([H])([H])[H])c1[H]

>  <smiles>  (63) 
[H]c1c(C([H])([H])Oc2c([H])c([H])c3c(c2[H])C([H])([H])N(C(=O)C([H])(N([H])C(=O)C([H])(N([H])C([H])([H])[H])C([H])([H])[H])C(C([H])([H])[H])(C([H])([H])[H])C([H])([H])[H])C([H])(C(=O)N([H])C2([H])c4c([H])c([H])c([H])c([H])c4C([H])([H])C([H])([H])C2([H])[H])C3([H])[H])nnc(C([H])([H])[N+]([H])(C([H])([H])[H])C([H])([H])C([H])([H])C([H])([H])N(C(=O)N2C([H])([H])C([H])([H])C([H])([H])C([H])(n3nc(-c4c([H])c([H])c(Oc5c([H])c([H])c(F)c([H])c5F)c([H])c4[H])c(C(=O)N([H])[H])c3N([H])[H])C2([H])[H])C([H])([H])[H])c1[H]

$$$$
64:0:0
     RDKit          3D

 93101  0  0  1  0  0  0  0  0999 V2000
  -29.1180  -23.5850   21.7350 C   0  0  0  0  0  3  0  0  0  0  0  0
  -29.1870  -24.7270   20.9760 C   0  0  0  0  0  0  0  0  0  0  0  0
  -29.7300  -24.2840   19.7370 C   0  0  0  0  0  0  0  0  0  0  0  0
  -30.0380  -25.0750   18.4960 C   0  0  0  0  0  1  0  0  0  0  0  0
  -29.9420  -22.9830   19.7310 N   0  0  0  0  0  0  0  0  0  0  0  0
  -29.5720  -22.5380   20.9520 N   0  0  0  0  0  0  0  0  0  0  0  0
  -28.7990  -26.1450   21.3070 C   0  0  0  0  0  2  0  0  0  0  0  0
  -28.3770  -26.7970   20.1130 O   0  0  0  0  0  0  0  0  0  0  0  0
  -24.5680  -31.9120   23.2260 C   0  0  0  0  0  0  0  0  0  0  0  0
  -27.2070  -27.4980   20.1760 C   0  0  0  0  0  0  0  0  0  0  0  0
  -23.3560  -30.5010   21.5930 C   0  0  0  0  0  3  0  0  0  0  0  0
  -24.8080  -28.9720   20.1640 C   0  0  0  0  0  0  0  0  0  0  0  0
  -25.8720  -30.8840   21.3730 C   0  0  0  0  0  2  0  0  0  0  0  0
  -25.9610  -29.5070   20.7600 C   0  0  0  0  0  0  0  0  0  0  0  0
  -27.1630  -28.7740   20.7700 C   0  0  0  0  0  3  0  0  0  0  0  0
  -26.0510  -26.9690   19.5640 C   0  0  0  0  0  3  0  0  0  0  0  0
  -24.8500  -27.7020   19.5590 C   0  0  0  0  0  3  0  0  0  0  0  0
  -23.5560  -29.8150   20.2140 C   0  0  0  0  0  2  0  0  0  0  0  0
  -24.6160  -31.1150   22.1230 N   0  0  0  0  0  0  0  0  0  0  0  0
  -23.4890  -32.1830   23.7720 O   0  0  0  0  0  0  0  0  0  0  0  0
  -22.7180  -29.4770   22.5590 C   0  0  0  0  0  0  0  0  0  0  0  0
  -21.3930  -29.2930   22.4390 N   0  0  0  0  0  0  0  0  0  0  0  0
  -23.4070  -28.8530   23.3700 O   0  0  0  0  0  0  0  0  0  0  0  0
  -20.9010  -29.8460   21.7530 H   0  0  0  0  0  0  0  0  0  0  0  0
  -18.0220  -28.0890   22.9350 C   0  0  0  0  0  0  0  0  0  0  0  0
  -20.5770  -28.3560   23.2120 C   0  0  0  0  0  3  0  0  0  0  0  0
  -20.6840  -26.9210   22.6440 C   0  0  0  0  0  2  0  0  0  0  0  0
  -19.5830  -26.5940   21.6300 C   0  0  0  0  0  2  0  0  0  0  0  0
  -18.2000  -26.7360   22.2700 C   0  0  0  0  0  2  0  0  0  0  0  0
  -19.1360  -28.8560   23.3630 C   0  0  0  0  0  0  0  0  0  0  0  0
  -18.9130  -30.1240   23.9460 C   0  0  0  0  0  3  0  0  0  0  0  0
  -17.6060  -30.6220   24.1080 C   0  0  0  0  0  3  0  0  0  0  0  0
  -16.5050  -29.8520   23.6960 C   0  0  0  0  0  3  0  0  0  0  0  0
  -16.7120  -28.5880   23.1140 C   0  0  0  0  0  3  0  0  0  0  0  0
  -25.8570  -32.5440   23.8400 C   0  0  0  0  0  3  0  0  0  0  0  0
  -25.5510  -33.9400   24.1750 N   0  0  0  0  0  0  0  0  0  0  0  0
  -25.8800  -34.9920   23.4100 C   0  0  0  0  0  0  0  0  0  0  0  0
  -26.5490  -34.8880   22.3790 O   0  0  0  0  0  0  0  0  0  0  0  0
  -24.9670  -34.0970   24.9830 H   0  0  0  0  0  0  0  0  0  0  0  0
  -24.1460  -36.7760   23.0510 C   0  0  0  0  0  1  0  0  0  0  0  0
  -25.3890  -36.3800   23.8650 C   0  0  0  0  0  3  0  0  0  0  0  0
  -27.5280  -37.2600   24.6840 C   0  0  0  0  0  1  0  0  0  0  0  0
  -26.4170  -37.4370   23.7520 N   0  0  0  0  0  0  0  0  0  0  0  0
  -26.0100  -38.3530   23.9190 H   0  0  0  0  0  0  0  0  0  0  0  0
  -26.3880  -31.7650   25.1070 C   0  0  1  0  0  0  0  0  0  0  0  0
  -25.3080  -31.5310   26.1890 C   0  0  0  0  0  1  0  0  0  0  0  0
  -26.9590  -30.3840   24.7010 C   0  0  0  0  0  1  0  0  0  0  0  0
  -27.5470  -32.5540   25.7590 C   0  0  0  0  0  1  0  0  0  0  0  0
  -29.6590  -21.1050   21.2600 C   0  0  0  0  0  2  0  0  0  0  0  0
  -30.4210  -20.3340   20.1580 C   0  0  0  0  0  2  0  0  0  0  0  0
  -32.0640  -18.5780   20.6710 C   0  0  0  0  0  1  0  0  0  0  0  0
  -30.6270  -18.8850   20.4290 N   0  0  2  0  0  4  0  0  0  0  0  0
  -30.1480  -18.6800   21.2940 H   0  0  0  0  0  0  0  0  0  0  0  0
  -29.9430  -18.0530   19.3940 C   0  0  0  0  0  2  0  0  0  0  0  0
  -30.3200  -16.5600   19.2780 C   0  0  0  0  0  2  0  0  0  0  0  0
  -30.9060  -14.5000   20.3620 C   0  0  0  0  0  0  0  0  0  0  0  0
  -30.5410  -12.3680   19.2130 C   0  0  0  0  0  2  0  0  0  0  0  0
  -29.6010  -12.5820   18.0090 C   0  0  0  0  0  2  0  0  0  0  0  0
  -28.1150  -12.5030   18.4280 C   0  0  0  0  0  2  0  0  0  0  0  0
  -27.8010  -13.3280   19.7060 C   0  0  0  0  0  3  0  0  0  0  0  0
  -28.8520  -13.0760   20.8020 C   0  0  0  0  0  2  0  0  0  0  0  0
  -30.1780  -13.3620   20.2300 N   0  0  0  0  0  0  0  0  0  0  0  0
  -32.0850  -14.5790   19.9980 O   0  0  0  0  0  0  0  0  0  0  0  0
  -29.8930  -16.1820   21.7870 C   0  0  0  0  0  1  0  0  0  0  0  0
  -30.1890  -15.6470   20.4470 N   0  0  0  0  0  0  0  0  0  0  0  0
  -25.4090  -13.9810   20.4080 C   0  0  0  0  0  0  0  0  0  0  0  0
  -24.3280  -13.2260   20.7750 C   0  0  0  0  0  0  0  0  0  0  0  0
  -24.7720  -11.8680   20.7610 C   0  0  0  0  0  0  0  0  0  0  0  0
  -26.4420  -13.0810   20.1890 N   0  0  0  0  0  0  0  0  0  0  0  0
  -26.0630  -11.8050   20.4620 N   0  0  0  0  0  0  0  0  0  0  0  0
  -24.0310  -10.6160   20.9590 C   0  0  0  0  0  0  0  0  0  0  0  0
  -24.4640   -9.6440   21.8880 C   0  0  0  0  0  3  0  0  0  0  0  0
  -23.7260   -8.4570   22.0790 C   0  0  0  0  0  3  0  0  0  0  0  0
  -22.5410   -8.2330   21.3380 C   0  0  0  0  0  0  0  0  0  0  0  0
  -22.1280   -9.1930   20.3950 C   0  0  0  0  0  3  0  0  0  0  0  0
  -22.8680  -10.3730   20.2040 C   0  0  0  0  0  3  0  0  0  0  0  0
  -21.7720   -7.0990   21.4350 O   0  0  0  0  0  0  0  0  0  0  0  0
  -21.7360   -6.3480   22.5830 C   0  0  0  0  0  0  0  0  0  0  0  0
  -21.3630   -6.9040   23.8260 C   0  0  0  0  0  3  0  0  0  0  0  0
  -21.2680   -6.0800   24.9650 C   0  0  0  0  0  3  0  0  0  0  0  0
  -21.5400   -4.7030   24.8640 C   0  0  0  0  0  0  0  0  0  0  0  0
  -21.9090   -4.1470   23.6250 C   0  0  0  0  0  3  0  0  0  0  0  0
  -22.0010   -4.9680   22.4870 C   0  0  0  0  0  0  0  0  0  0  0  0
  -22.3330   -4.4250   21.2910 F   0  0  0  0  0  0  0  0  0  0  0  0
  -21.4420   -3.9080   25.9560 F   0  0  0  0  0  0  0  0  0  0  0  0
  -22.9320  -13.7200   21.0340 C   0  0  0  0  0  0  0  0  0  0  0  0
  -22.1970  -13.0420   21.9090 N   0  0  0  0  0  0  0  0  0  0  0  0
  -22.5040  -14.7400   20.4990 O   0  0  0  0  0  0  0  0  0  0  0  0
  -22.5510  -12.2100   22.3580 H   0  0  0  0  0  0  0  0  0  0  0  0
  -21.2640  -13.3560   22.1310 H   0  0  0  0  0  0  0  0  0  0  0  0
  -25.5990  -15.3480   20.2230 N   0  0  0  0  0  0  0  0  0  0  0  0
  -24.8550  -16.0290   20.3270 H   0  0  0  0  0  0  0  0  0  0  0  0
  -26.4860  -15.7690   19.9750 H   0  0  0  0  0  0  0  0  0  0  0  0
  2  7  1  0
  2  1  2  0
  3  2  1  0
  4  3  1  0
  5  3  2  0
  5  6  1  0
  6 49  1  0
  6  1  1  0
  8 10  1  0
  8  7  1  0
  9 20  2  0
 10 15  1  0
 11 19  1  0
 11 21  1  0
 12 18  1  0
 12 14  1  0
 13 19  1  0
 14 15  2  0
 14 13  1  0
 16 10  2  0
 17 16  1  0
 17 12  2  0
 18 11  1  0
 19  9  1  0
 21 23  2  0
 22 21  1  0
 24 22  1  0
 25 34  2  0
 25 30  1  0
 26 22  1  0
 26 30  1  0
 27 26  1  0
 28 29  1  0
 28 27  1  0
 29 25  1  0
 30 31  2  0
 31 32  1  0
 33 32  2  0
 34 33  1  0
 35  9  1  0
 35 36  1  0
 35 45  1  0
 36 39  1  0
 37 41  1  0
 37 36  1  0
 38 37  2  0
 41 40  1  0
 43 41  1  0
 43 44  1  0
 43 42  1  0
 45 48  1  1
 45 46  1  0
 47 45  1  0
 50 52  1  0
 50 49  1  0
 52 51  1  0
 52 53  1  1
 54 52  1  0
 55 54  1  0
 55 65  1  0
 56 65  1  0
 57 62  1  0
 58 59  1  0
 58 57  1  0
 60 59  1  0
 60 69  1  0
 60 61  1  0
 62 56  1  0
 62 61  1  0
 63 56  2  0
 65 64  1  0
 66 67  2  0
 67 86  1  0
 68 67  1  0
 68 71  1  0
 69 66  1  0
 69 70  1  0
 70 68  2  0
 71 72  1  0
 72 73  2  0
 74 77  1  0
 74 73  1  0
 75 74  2  0
 76 75  1  0
 76 71  2  0
 77 78  1  0
 78 79  1  0
 79 80  2  0
 81 80  1  0
 81 85  1  0
 82 81  2  0
 83 78  2  0
 83 82  1  0
 84 83  1  0
 86 87  1  0
 87 90  1  0
 87 89  1  0
 88 86  2  0
 91 92  1  0
 91 66  1  0
 93 91  1  0
M  ISO  4   7 101   8 101  56 100  65 100
M  END
>  <TORSDO>  (64) 
F 22

>  <SCORE>  (64) 
-13.184

>  <name>  (64) 
64

>  <ligand_id>  (64) 
64

>  <original_smiles>  (64) 
[H]c1c([H])c([H])c2c(c1[H])C([H])([H])C([H])([H])C([H])([H])C2([H])N([H])C(=O)C1([H])N(C(=O)C([H])(N([H])C(=O)C([H])(N([H])C([H])([H])[H])C([H])([H])[H])C(C([H])([H])[H])(C([H])([H])[H])C([H])([H])[H])C([H])([H])c2c([H])c(OC([H])([H])c3c(C([H])([H])[H])nn(C([H])([H])C([H])([H])[N+]([H])(C([H])([H])[H])C([H])([H])C([H])([H])N(C(=O)N4C([H])([H])C([H])([H])C([H])([H])C([H])(n5nc(-c6c([H])c([H])c(Oc7c([H])c([H])c(F)c([H])c7F)c([H])c6[H])c(C(=O)N([H])[H])c5N([H])[H])C4([H])[H])C([H])([H])[H])c3[H])c([H])c([H])c2C1([H])[H]

>  <smiles>  (64) 
[H]c1c([H])c([H])c2c(c1[H])C([H])([H])C([H])([H])C([H])([H])C2([H])N([H])C(=O)C1([H])N(C(=O)C([H])(N([H])C(=O)C([H])(N([H])C([H])([H])[H])C([H])([H])[H])C(C([H])([H])[H])(C([H])([H])[H])C([H])([H])[H])C([H])([H])c2c([H])c(OC([H])([H])c3c(C([H])([H])[H])nn(C([H])([H])C([H])([H])[N+]([H])(C([H])([H])[H])C([H])([H])C([H])([H])N(C(=O)N4C([H])([H])C([H])([H])C([H])([H])C([H])(n5nc(-c6c([H])c([H])c(Oc7c([H])c([H])c(F)c([H])c7F)c([H])c6[H])c(C(=O)N([H])[H])c5N([H])[H])C4([H])[H])C([H])([H])[H])c3[H])c([H])c([H])c2C1([H])[H]

$$$$
65:0:0
     RDKit          3D

 91 99  0  0  1  0  0  0  0  0999 V2000
  -30.0470  -23.9210   21.7750 C   0  0  0  0  0  3  0  0  0  0  0  0
  -28.8770  -24.2580   21.0710 C   0  0  0  0  0  0  0  0  0  0  0  0
  -28.2660  -23.1810   20.3890 C   0  0  0  0  0  3  0  0  0  0  0  0
  -29.8360  -21.7110   21.2030 C   0  0  0  0  0  0  0  0  0  0  0  0
  -27.0140  -23.3560   19.5560 C   0  0  0  0  0  1  0  0  0  0  0  0
  -30.5210  -22.6570   21.8340 N   0  0  0  0  0  0  0  0  0  0  0  0
  -28.7460  -21.9140   20.4680 N   0  0  0  0  0  0  0  0  0  0  0  0
  -28.2290  -25.6500   21.2530 C   0  0  0  0  0  2  0  0  0  0  0  0
  -28.3430  -26.6080   20.1760 O   0  0  0  0  0  0  0  0  0  0  0  0
  -24.6050  -31.8860   23.2220 C   0  0  0  0  0  0  0  0  0  0  0  0
  -27.2390  -27.4380   20.1250 C   0  0  0  0  0  0  0  0  0  0  0  0
  -23.3980  -30.4850   21.5790 C   0  0  0  0  0  3  0  0  0  0  0  0
  -24.8530  -28.9640   20.1350 C   0  0  0  0  0  0  0  0  0  0  0  0
  -25.9240  -30.8460   21.3770 C   0  0  0  0  0  2  0  0  0  0  0  0
  -26.0130  -29.4780   20.7280 C   0  0  0  0  0  0  0  0  0  0  0  0
  -27.2160  -28.7250   20.7220 C   0  0  0  0  0  3  0  0  0  0  0  0
  -26.0670  -26.9510   19.5110 C   0  0  0  0  0  3  0  0  0  0  0  0
  -24.8780  -27.7030   19.5180 C   0  0  0  0  0  3  0  0  0  0  0  0
  -23.6050  -29.8170   20.1950 C   0  0  0  0  0  2  0  0  0  0  0  0
  -24.6610  -31.0870   22.1180 N   0  0  0  0  0  0  0  0  0  0  0  0
  -23.5240  -32.1540   23.7640 O   0  0  0  0  0  0  0  0  0  0  0  0
  -22.7520  -29.4590   22.5380 C   0  0  0  0  0  0  0  0  0  0  0  0
  -21.4270  -29.2760   22.4140 N   0  0  0  0  0  0  0  0  0  0  0  0
  -23.4380  -28.8330   23.3500 O   0  0  0  0  0  0  0  0  0  0  0  0
  -20.9350  -29.8360   21.7320 H   0  0  0  0  0  0  0  0  0  0  0  0
  -18.0560  -28.0710   22.9120 C   0  0  0  0  0  0  0  0  0  0  0  0
  -20.6130  -28.3370   23.1850 C   0  0  0  0  0  3  0  0  0  0  0  0
  -20.7210  -26.9060   22.6090 C   0  0  0  0  0  2  0  0  0  0  0  0
  -19.6210  -26.5800   21.5940 C   0  0  0  0  0  2  0  0  0  0  0  0
  -18.2390  -26.7210   22.2370 C   0  0  0  0  0  2  0  0  0  0  0  0
  -19.1720  -28.8360   23.3420 C   0  0  0  0  0  0  0  0  0  0  0  0
  -18.9490  -30.1000   23.9310 C   0  0  0  0  0  3  0  0  0  0  0  0
  -17.6420  -30.5960   24.0970 C   0  0  0  0  0  3  0  0  0  0  0  0
  -16.5410  -29.8270   23.6830 C   0  0  0  0  0  3  0  0  0  0  0  0
  -16.7490  -28.5670   23.0940 C   0  0  0  0  0  3  0  0  0  0  0  0
  -25.8910  -32.5170   23.8400 C   0  0  0  0  0  3  0  0  0  0  0  0
  -25.5820  -33.9160   24.1700 N   0  0  0  0  0  0  0  0  0  0  0  0
  -25.9180  -34.9680   23.4100 C   0  0  0  0  0  0  0  0  0  0  0  0
  -26.5920  -34.8620   22.3810 O   0  0  0  0  0  0  0  0  0  0  0  0
  -24.9810  -34.0730   24.9650 H   0  0  0  0  0  0  0  0  0  0  0  0
  -24.1940  -36.7630   23.0460 C   0  0  0  0  0  1  0  0  0  0  0  0
  -25.4300  -36.3570   23.8630 C   0  0  0  0  0  3  0  0  0  0  0  0
  -27.5650  -37.2380   24.7000 C   0  0  0  0  0  1  0  0  0  0  0  0
  -26.4640  -37.4080   23.7540 N   0  0  0  0  0  0  0  0  0  0  0  0
  -26.0590  -38.3290   23.9020 H   0  0  0  0  0  0  0  0  0  0  0  0
  -26.4130  -31.7450   25.1130 C   0  0  1  0  0  0  0  0  0  0  0  0
  -25.3240  -31.5040   26.1840 C   0  0  0  0  0  1  0  0  0  0  0  0
  -26.9990  -30.3700   24.7160 C   0  0  0  0  0  1  0  0  0  0  0  0
  -27.5690  -32.5380   25.7670 C   0  0  0  0  0  1  0  0  0  0  0  0
  -30.3300  -20.4530   21.3770 O   0  0  0  0  0  0  0  0  0  0  0  0
  -29.5840  -19.2950   20.9530 C   0  0  0  0  0  2  0  0  0  0  0  0
  -30.3260  -17.9800   21.3780 C   0  0  0  0  0  2  0  0  0  0  0  0
  -29.5430  -16.6210   21.2680 C   0  0  0  0  0  2  0  0  0  0  0  0
  -30.7330  -14.5750   20.3510 C   0  0  0  0  0  0  0  0  0  0  0  0
  -30.4290  -12.3590   19.3100 C   0  0  0  0  0  2  0  0  0  0  0  0
  -29.4970  -12.5110   18.0890 C   0  0  0  0  0  2  0  0  0  0  0  0
  -28.0200  -12.3950   18.5180 C   0  0  0  0  0  2  0  0  0  0  0  0
  -27.6730  -13.2760   19.7500 C   0  0  0  0  0  3  0  0  0  0  0  0
  -28.7280  -13.1330   20.8680 C   0  0  0  0  0  2  0  0  0  0  0  0
  -30.0470  -13.3980   20.2790 N   0  0  0  0  0  0  0  0  0  0  0  0
  -31.9320  -14.6470   20.0680 O   0  0  0  0  0  0  0  0  0  0  0  0
  -29.8560  -16.2660   18.8390 C   0  0  0  0  0  1  0  0  0  0  0  0
  -29.9660  -15.6930   20.1890 N   0  0  0  0  0  0  0  0  0  0  0  0
  -25.2810  -13.9100   20.4470 C   0  0  0  0  0  0  0  0  0  0  0  0
  -24.2040  -13.1520   20.8190 C   0  0  0  0  0  0  0  0  0  0  0  0
  -24.6550  -11.7950   20.8100 C   0  0  0  0  0  0  0  0  0  0  0  0
  -26.3190  -13.0170   20.2340 N   0  0  0  0  0  0  0  0  0  0  0  0
  -25.9460  -11.7400   20.5130 N   0  0  0  0  0  0  0  0  0  0  0  0
  -23.9170  -10.5410   21.0100 C   0  0  0  0  0  0  0  0  0  0  0  0
  -24.3440   -9.5730   21.9460 C   0  0  0  0  0  3  0  0  0  0  0  0
  -23.6050   -8.3840   22.1320 C   0  0  0  0  0  3  0  0  0  0  0  0
  -22.4280   -8.1560   21.3810 C   0  0  0  0  0  0  0  0  0  0  0  0
  -22.0210   -9.1120   20.4340 C   0  0  0  0  0  3  0  0  0  0  0  0
  -22.7590  -10.2920   20.2460 C   0  0  0  0  0  3  0  0  0  0  0  0
  -21.6610   -7.0200   21.4760 O   0  0  0  0  0  0  0  0  0  0  0  0
  -21.6180   -6.2750   22.6280 C   0  0  0  0  0  0  0  0  0  0  0  0
  -21.2260   -6.8360   23.8630 C   0  0  0  0  0  3  0  0  0  0  0  0
  -21.1270   -6.0200   25.0080 C   0  0  0  0  0  3  0  0  0  0  0  0
  -21.4120   -4.6440   24.9190 C   0  0  0  0  0  0  0  0  0  0  0  0
  -21.7990   -4.0820   23.6890 C   0  0  0  0  0  3  0  0  0  0  0  0
  -21.8980   -4.8950   22.5460 C   0  0  0  0  0  0  0  0  0  0  0  0
  -22.2480   -4.3460   21.3590 F   0  0  0  0  0  0  0  0  0  0  0  0
  -21.3120   -3.8580   26.0160 F   0  0  0  0  0  0  0  0  0  0  0  0
  -22.8080  -13.6430   21.0730 C   0  0  0  0  0  0  0  0  0  0  0  0
  -22.0660  -12.9660   21.9420 N   0  0  0  0  0  0  0  0  0  0  0  0
  -22.3810  -14.6640   20.5340 O   0  0  0  0  0  0  0  0  0  0  0  0
  -22.4210  -12.1400   22.4010 H   0  0  0  0  0  0  0  0  0  0  0  0
  -21.1320  -13.2850   22.1580 H   0  0  0  0  0  0  0  0  0  0  0  0
  -25.4610  -15.2780   20.2530 N   0  0  0  0  0  0  0  0  0  0  0  0
  -24.7070  -15.9480   20.3550 H   0  0  0  0  0  0  0  0  0  0  0  0
  -26.3290  -15.7010   19.9520 H   0  0  0  0  0  0  0  0  0  0  0  0
  1  6  1  0
  2  8  1  0
  2  1  2  0
  3  5  1  0
  3  7  1  0
  3  2  1  0
  4 50  1  0
  4  6  2  0
  7  4  2  0
  9  8  1  0
 10 21  2  0
 11  9  1  0
 11 16  1  0
 12 20  1  0
 12 22  1  0
 13 19  1  0
 13 15  1  0
 14 20  1  0
 15 14  1  0
 16 15  2  0
 17 18  1  0
 17 11  2  0
 18 13  2  0
 19 12  1  0
 20 10  1  0
 22 24  2  0
 23 22  1  0
 25 23  1  0
 26 35  2  0
 26 31  1  0
 27 23  1  0
 27 31  1  0
 28 27  1  0
 29 30  1  0
 29 28  1  0
 30 26  1  0
 31 32  2  0
 32 33  1  0
 34 33  2  0
 35 34  1  0
 36 10  1  0
 36 37  1  0
 36 46  1  0
 37 40  1  0
 38 42  1  0
 38 37  1  0
 39 38  2  0
 42 41  1  0
 44 42  1  0
 44 45  1  0
 44 43  1  0
 46 49  1  1
 46 47  1  0
 48 46  1  0
 51 50  1  0
 51 52  1  0
 53 52  1  0
 55 60  1  0
 56 57  1  0
 56 55  1  0
 58 57  1  0
 58 67  1  0
 58 59  1  0
 60 54  1  0
 60 59  1  0
 61 54  2  0
 62 63  1  0
 63 54  1  0
 63 53  1  0
 64 65  2  0
 65 84  1  0
 66 65  1  0
 66 69  1  0
 67 64  1  0
 67 68  1  0
 68 66  2  0
 69 70  1  0
 70 71  2  0
 72 75  1  0
 72 71  1  0
 73 72  2  0
 74 73  1  0
 74 69  2  0
 75 76  1  0
 76 77  1  0
 77 78  2  0
 79 78  1  0
 79 83  1  0
 80 79  2  0
 81 76  2  0
 81 80  1  0
 82 81  1  0
 84 85  1  0
 85 88  1  0
 85 87  1  0
 86 84  2  0
 89 90  1  0
 89 64  1  0
 91 89  1  0
M  ISO  4   8 101   9 101  54 100  63 100
M  END
>  <TORSDO>  (65) 
F 21

>  <SCORE>  (65) 
-13.487

>  <name>  (65) 
65

>  <ligand_id>  (65) 
65

>  <original_smiles>  (65) 
[H]c1nc(OC([H])([H])C([H])([H])C([H])([H])N(C(=O)N2C([H])([H])C([H])([H])C([H])([H])C([H])(n3nc(-c4c([H])c([H])c(Oc5c([H])c([H])c(F)c([H])c5F)c([H])c4[H])c(C(=O)N([H])[H])c3N([H])[H])C2([H])[H])C([H])([H])[H])nc(C([H])([H])[H])c1C([H])([H])Oc1c([H])c([H])c2c(c1[H])C([H])([H])N(C(=O)C([H])(N([H])C(=O)C([H])(N([H])C([H])([H])[H])C([H])([H])[H])C(C([H])([H])[H])(C([H])([H])[H])C([H])([H])[H])C([H])(C(=O)N([H])C1([H])c3c([H])c([H])c([H])c([H])c3C([H])([H])C([H])([H])C1([H])[H])C2([H])[H]

>  <smiles>  (65) 
[H]c1nc(OC([H])([H])C([H])([H])C([H])([H])N(C(=O)N2C([H])([H])C([H])([H])C([H])([H])C([H])(n3nc(-c4c([H])c([H])c(Oc5c([H])c([H])c(F)c([H])c5F)c([H])c4[H])c(C(=O)N([H])[H])c3N([H])[H])C2([H])[H])C([H])([H])[H])nc(C([H])([H])[H])c1C([H])([H])Oc1c([H])c([H])c2c(c1[H])C([H])([H])N(C(=O)C([H])(N([H])C(=O)C([H])(N([H])C([H])([H])[H])C([H])([H])[H])C(C([H])([H])[H])(C([H])([H])[H])C([H])([H])[H])C([H])(C(=O)N([H])C1([H])c3c([H])c([H])c([H])c([H])c3C([H])([H])C([H])([H])C1([H])[H])C2([H])[H]

$$$$
66:0:0
     RDKit          3D

 92100  0  0  1  0  0  0  0  0999 V2000
  -29.6950  -20.2880   21.4480 C   0  0  0  0  0  0  0  0  0  0  0  0
  -30.3090  -20.8990   20.3740 C   0  0  0  0  0  0  0  0  0  0  0  0
  -30.9650  -18.7650   20.5410 C   0  0  0  0  0  0  0  0  0  0  0  0
  -28.7200  -20.8710   22.4260 C   0  0  0  0  0  1  0  0  0  0  0  0
  -32.1130  -20.1530   18.7560 C   0  0  0  0  0  1  0  0  0  0  0  0
  -30.0970  -18.9510   21.5370 N   0  0  0  0  0  0  0  0  0  0  0  0
  -31.1860  -19.9280   19.8580 N   0  0  0  0  0  0  0  0  0  0  0  0
  -30.0880  -22.2890   19.7600 C   0  0  0  0  0  3  0  0  0  0  0  0
  -30.4190  -23.5260   20.6440 C   0  0  0  0  0  3  0  0  0  0  0  0
  -30.2540  -24.9430   19.9860 C   0  0  0  0  0  2  0  0  0  0  0  0
  -28.8230  -25.5530   19.9430 C   0  0  0  0  0  2  0  0  0  0  0  0
  -28.8310  -26.9850   19.6970 O   0  0  0  0  0  0  0  0  0  0  0  0
  -24.5800  -31.6180   23.0820 C   0  0  0  0  0  0  0  0  0  0  0  0
  -27.6030  -27.6290   19.7210 C   0  0  0  0  0  0  0  0  0  0  0  0
  -23.4990  -30.2430   21.3320 C   0  0  0  0  0  3  0  0  0  0  0  0
  -25.0800  -28.9350   19.8150 C   0  0  0  0  0  0  0  0  0  0  0  0
  -25.9880  -30.8220   21.1800 C   0  0  0  0  0  2  0  0  0  0  0  0
  -26.1930  -29.5130   20.4420 C   0  0  0  0  0  0  0  0  0  0  0  0
  -27.4560  -28.8730   20.3800 C   0  0  0  0  0  3  0  0  0  0  0  0
  -26.4710  -27.0750   19.0800 C   0  0  0  0  0  3  0  0  0  0  0  0
  -25.2180  -27.7160   19.1290 C   0  0  0  0  0  3  0  0  0  0  0  0
  -23.7660  -29.6790   19.9100 C   0  0  0  0  0  2  0  0  0  0  0  0
  -24.7060  -30.9070   21.9230 N   0  0  0  0  0  0  0  0  0  0  0  0
  -23.4830  -31.7600   23.6320 O   0  0  0  0  0  0  0  0  0  0  0  0
  -22.9290  -29.1080   22.2140 C   0  0  0  0  0  0  0  0  0  0  0  0
  -21.6270  -28.8230   22.0530 N   0  0  0  0  0  0  0  0  0  0  0  0
  -23.6580  -28.4910   22.9950 O   0  0  0  0  0  0  0  0  0  0  0  0
  -21.0980  -29.3760   21.3930 H   0  0  0  0  0  0  0  0  0  0  0  0
  -18.3670  -27.3080   22.4250 C   0  0  0  0  0  0  0  0  0  0  0  0
  -20.8910  -27.7610   22.7420 C   0  0  0  0  0  3  0  0  0  0  0  0
  -21.1180  -26.3900   22.0610 C   0  0  0  0  0  2  0  0  0  0  0  0
  -20.0500  -26.0480   21.0170 C   0  0  0  0  0  2  0  0  0  0  0  0
  -18.6590  -26.0310   21.6550 C   0  0  0  0  0  2  0  0  0  0  0  0
  -19.4150  -28.1270   22.9220 C   0  0  0  0  0  0  0  0  0  0  0  0
  -19.0840  -29.3200   23.6010 C   0  0  0  0  0  3  0  0  0  0  0  0
  -17.7420  -29.6970   23.7890 C   0  0  0  0  0  3  0  0  0  0  0  0
  -16.7090  -28.8720   23.3130 C   0  0  0  0  0  3  0  0  0  0  0  0
  -17.0220  -27.6820   22.6330 C   0  0  0  0  0  3  0  0  0  0  0  0
  -25.8130  -32.3030   23.7550 C   0  0  0  0  0  3  0  0  0  0  0  0
  -25.4200  -33.6760   24.0990 N   0  0  0  0  0  0  0  0  0  0  0  0
  -25.7200  -34.7580   23.3710 C   0  0  0  0  0  0  0  0  0  0  0  0
  -26.4310  -34.7090   22.3620 O   0  0  0  0  0  0  0  0  0  0  0  0
  -24.7960  -33.7850   24.8840 H   0  0  0  0  0  0  0  0  0  0  0  0
  -23.9150  -36.4610   22.9830 C   0  0  0  0  0  1  0  0  0  0  0  0
  -25.1460  -36.1100   23.8330 C   0  0  0  0  0  3  0  0  0  0  0  0
  -27.1900  -37.1000   24.7610 C   0  0  0  0  0  1  0  0  0  0  0  0
  -26.1220  -37.2180   23.7730 N   0  0  0  0  0  0  0  0  0  0  0  0
  -25.6630  -38.1140   23.9040 H   0  0  0  0  0  0  0  0  0  0  0  0
  -26.3290  -31.5360   25.0340 C   0  0  1  0  0  0  0  0  0  0  0  0
  -25.2160  -31.2170   26.0600 C   0  0  0  0  0  1  0  0  0  0  0  0
  -27.0040  -30.2020   24.6360 C   0  0  0  0  0  1  0  0  0  0  0  0
  -27.4080  -32.3810   25.7500 C   0  0  0  0  0  1  0  0  0  0  0  0
  -31.6300  -17.4160   20.2260 C   0  0  0  0  0  2  0  0  0  0  0  0
  -31.3450  -14.9990   19.8460 C   0  0  0  0  0  0  0  0  0  0  0  0
  -30.9370  -12.7240   18.9580 C   0  0  0  0  0  2  0  0  0  0  0  0
  -29.9510  -12.7640   17.7730 C   0  0  0  0  0  2  0  0  0  0  0  0
  -28.5140  -12.5790   18.2970 C   0  0  0  0  0  2  0  0  0  0  0  0
  -28.1750  -13.5570   19.4500 C   0  0  0  0  0  3  0  0  0  0  0  0
  -29.2990  -13.6080   20.5190 C   0  0  0  0  0  2  0  0  0  0  0  0
  -30.5890  -13.8480   19.8460 N   0  0  0  0  0  0  0  0  0  0  0  0
  -32.5460  -14.9430   19.5840 O   0  0  0  0  0  0  0  0  0  0  0  0
  -30.7440  -16.2410   19.9150 N   0  0  0  0  0  0  0  0  0  0  0  0
  -25.8930  -14.2560   20.3800 C   0  0  0  0  0  0  0  0  0  0  0  0
  -24.8130  -13.5170   20.7790 C   0  0  0  0  0  0  0  0  0  0  0  0
  -25.2070  -12.1500   20.6610 C   0  0  0  0  0  0  0  0  0  0  0  0
  -26.8680  -13.3290   20.0350 N   0  0  0  0  0  0  0  0  0  0  0  0
  -26.4680  -12.0580   20.2670 N   0  0  0  0  0  0  0  0  0  0  0  0
  -24.4400  -10.9150   20.8370 C   0  0  0  0  0  0  0  0  0  0  0  0
  -24.8280   -9.9380   21.7810 C   0  0  0  0  0  3  0  0  0  0  0  0
  -24.0640   -8.7620   21.9420 C   0  0  0  0  0  3  0  0  0  0  0  0
  -22.9030   -8.5600   21.1600 C   0  0  0  0  0  0  0  0  0  0  0  0
  -22.5380   -9.5240   20.2040 C   0  0  0  0  0  3  0  0  0  0  0  0
  -23.3010  -10.6900   20.0410 C   0  0  0  0  0  3  0  0  0  0  0  0
  -22.1080   -7.4420   21.2360 O   0  0  0  0  0  0  0  0  0  0  0  0
  -21.9430   -6.7560   22.4100 C   0  0  0  0  0  0  0  0  0  0  0  0
  -21.3720   -7.3600   23.5510 C   0  0  0  0  0  3  0  0  0  0  0  0
  -21.1610   -6.6000   24.7190 C   0  0  0  0  0  3  0  0  0  0  0  0
  -21.5020   -5.2340   24.7420 C   0  0  0  0  0  0  0  0  0  0  0  0
  -22.0650   -4.6290   23.6040 C   0  0  0  0  0  3  0  0  0  0  0  0
  -22.2840   -5.3880   22.4420 C   0  0  0  0  0  0  0  0  0  0  0  0
  -22.8090   -4.7980   21.3420 F   0  0  0  0  0  0  0  0  0  0  0  0
  -21.2900   -4.4990   25.8580 F   0  0  0  0  0  0  0  0  0  0  0  0
  -23.4580  -14.0470   21.1450 C   0  0  0  0  0  0  0  0  0  0  0  0
  -22.7510  -13.3510   22.0290 N   0  0  0  0  0  0  0  0  0  0  0  0
  -23.0380  -15.1080   20.6870 O   0  0  0  0  0  0  0  0  0  0  0  0
  -23.1010  -12.4870   22.4100 H   0  0  0  0  0  0  0  0  0  0  0  0
  -21.8450  -13.6880   22.3200 H   0  0  0  0  0  0  0  0  0  0  0  0
  -26.1110  -15.6240   20.2610 N   0  0  0  0  0  0  0  0  0  0  0  0
  -25.3780  -16.3040   20.4410 H   0  0  0  0  0  0  0  0  0  0  0  0
  -26.9610  -16.0440   19.9010 H   0  0  0  0  0  0  0  0  0  0  0  0
  -29.4850  -17.7250   18.1490 C   0  0  0  0  0  1  0  0  0  0  0  0
  -29.5520  -16.4880   19.0650 C   0  0  0  0  0  2  0  0  0  0  0  0
  1  6  1  0
  1  4  1  0
  2  1  2  0
  3  6  2  0
  5  7  1  0
  7  2  1  0
  7  3  1  0
  8  2  1  0
  8  9  2  0
 10  9  1  0
 11 10  1  0
 12 14  1  0
 12 11  1  0
 13 24  2  0
 14 19  1  0
 15 23  1  0
 15 25  1  0
 16 22  1  0
 16 18  1  0
 17 23  1  0
 18 17  1  0
 19 18  2  0
 20 21  1  0
 20 14  2  0
 21 16  2  0
 22 15  1  0
 23 13  1  0
 25 27  2  0
 26 25  1  0
 28 26  1  0
 29 38  2  0
 29 34  1  0
 30 26  1  0
 30 34  1  0
 31 30  1  0
 32 33  1  0
 32 31  1  0
 33 29  1  0
 34 35  2  0
 35 36  1  0
 37 36  2  0
 38 37  1  0
 39 13  1  0
 39 40  1  0
 39 49  1  0
 40 43  1  0
 41 45  1  0
 41 40  1  0
 42 41  2  0
 45 44  1  0
 47 45  1  0
 47 48  1  0
 47 46  1  0
 49 52  1  1
 49 50  1  0
 51 49  1  0
 53  3  1  0
 54 62  1  0
 55 60  1  0
 56 57  1  0
 56 55  1  0
 58 57  1  0
 58 66  1  0
 58 59  1  0
 60 54  1  0
 60 59  1  0
 61 54  2  0
 62 53  1  0
 63 64  2  0
 64 83  1  0
 65 64  1  0
 65 68  1  0
 66 67  1  0
 66 63  1  0
 67 65  2  0
 68 69  1  0
 69 70  2  0
 71 74  1  0
 71 70  1  0
 72 71  2  0
 73 72  1  0
 73 68  2  0
 74 75  1  0
 75 80  2  0
 75 76  1  0
 76 77  2  0
 77 78  1  0
 78 82  1  0
 79 78  2  0
 80 79  1  0
 81 80  1  0
 83 84  1  0
 84 87  1  0
 84 86  1  0
 85 83  2  0
 88 63  1  0
 88 89  1  0
 90 88  1  0
 91 92  1  0
 92 62  1  0
M  ISO  4  11 101  12 101  54 100  62 100
M  END
>  <TORSDO>  (66) 
F 22

>  <SCORE>  (66) 
-10.401

>  <name>  (66) 
66

>  <ligand_id>  (66) 
66

>  <original_smiles>  (66) 
[H]c1c([H])c([H])c2c(c1[H])C([H])([H])C([H])([H])C([H])([H])C2([H])N([H])C(=O)C1([H])N(C(=O)C([H])(N([H])C(=O)C([H])(N([H])C([H])([H])[H])C([H])([H])[H])C(C([H])([H])[H])(C([H])([H])[H])C([H])([H])[H])C([H])([H])c2c([H])c(OC([H])([H])C([H])([H])C([H])([H])C([H])([H])c3c(C([H])([H])[H])nc(C([H])([H])N(C(=O)N4C([H])([H])C([H])([H])C([H])([H])C([H])(n5nc(-c6c([H])c([H])c(Oc7c([H])c([H])c(F)c([H])c7F)c([H])c6[H])c(C(=O)N([H])[H])c5N([H])[H])C4([H])[H])C([H])([H])C([H])([H])[H])n3C([H])([H])[H])c([H])c([H])c2C1([H])[H]

>  <smiles>  (66) 
[H]c1c([H])c([H])c2c(c1[H])C([H])([H])C([H])([H])C([H])([H])C2([H])N([H])C(=O)C1([H])N(C(=O)C([H])(N([H])C(=O)C([H])(N([H])C([H])([H])[H])C([H])([H])[H])C(C([H])([H])[H])(C([H])([H])[H])C([H])([H])[H])C([H])([H])c2c([H])c(OC([H])([H])C([H])([H])C([H])([H])C([H])([H])c3c(C([H])([H])[H])nc(C([H])([H])N(C(=O)N4C([H])([H])C([H])([H])C([H])([H])C([H])(n5nc(-c6c([H])c([H])c(Oc7c([H])c([H])c(F)c([H])c7F)c([H])c6[H])c(C(=O)N([H])[H])c5N([H])[H])C4([H])[H])C([H])([H])C([H])([H])[H])n3C([H])([H])[H])c([H])c([H])c2C1([H])[H]

$$$$
67:0:0
     RDKit          3D

 88 96  0  0  1  0  0  0  0  0999 V2000
  -29.1750  -21.8110   19.8050 C   0  0  0  0  0  2  0  0  0  0  0  0
  -27.9050  -19.9870   21.0570 C   0  0  0  0  0  1  0  0  0  0  0  0
  -29.3380  -20.3280   20.5940 C   0  0  0  0  0  3  0  0  0  0  0  0
  -30.0780  -18.8970   20.0140 C   0  0  0  0  0  2  0  0  0  0  0  0
  -30.7790  -15.8740   22.3230 C   0  0  0  0  0  3  0  0  0  0  0  0
  -30.3710  -17.9540   22.2840 C   0  0  0  0  0  3  0  0  0  0  0  0
  -30.7100  -16.1920   20.9810 C   0  0  0  0  0  0  0  0  0  0  0  0
  -30.5700  -16.9670   23.1370 N   0  0  0  0  0  0  0  0  0  0  0  0
  -30.3670  -17.6690   20.9650 N   0  0  0  0  0  0  0  0  0  0  0  0
  -31.1610  -15.0350   19.9890 C   0  0  0  0  0  0  0  0  0  0  0  0
  -30.8470  -12.7840   18.8360 C   0  0  0  0  0  2  0  0  0  0  0  0
  -29.8490  -12.8970   17.6600 C   0  0  0  0  0  2  0  0  0  0  0  0
  -28.3980  -12.7390   18.1510 C   0  0  0  0  0  2  0  0  0  0  0  0
  -28.1170  -13.5900   19.4140 C   0  0  0  0  0  3  0  0  0  0  0  0
  -29.2190  -13.4210   20.4800 C   0  0  0  0  0  2  0  0  0  0  0  0
  -30.5010  -13.8090   19.8650 N   0  0  0  0  0  0  0  0  0  0  0  0
  -32.2210  -15.1670   19.3680 O   0  0  0  0  0  0  0  0  0  0  0  0
  -25.7950  -14.2600   20.2670 C   0  0  0  0  0  0  0  0  0  0  0  0
  -24.7140  -13.5250   20.6680 C   0  0  0  0  0  0  0  0  0  0  0  0
  -25.1140  -12.1560   20.5840 C   0  0  0  0  0  0  0  0  0  0  0  0
  -26.7860  -13.3430   19.9580 N   0  0  0  0  0  0  0  0  0  0  0  0
  -26.3870  -12.0690   20.2120 N   0  0  0  0  0  0  0  0  0  0  0  0
  -24.3400  -10.9220   20.7790 C   0  0  0  0  0  0  0  0  0  0  0  0
  -24.7530   -9.9260   21.6910 C   0  0  0  0  0  3  0  0  0  0  0  0
  -23.9800   -8.7590   21.8740 C   0  0  0  0  0  3  0  0  0  0  0  0
  -22.7810   -8.5790   21.1460 C   0  0  0  0  0  0  0  0  0  0  0  0
  -22.3860   -9.5640   20.2230 C   0  0  0  0  0  3  0  0  0  0  0  0
  -23.1590  -10.7230   20.0370 C   0  0  0  0  0  3  0  0  0  0  0  0
  -21.9800   -7.4670   21.2400 O   0  0  0  0  0  0  0  0  0  0  0  0
  -21.8990   -6.7340   22.3960 C   0  0  0  0  0  0  0  0  0  0  0  0
  -21.5270   -7.3200   23.6270 C   0  0  0  0  0  3  0  0  0  0  0  0
  -21.3890   -6.5160   24.7760 C   0  0  0  0  0  3  0  0  0  0  0  0
  -21.6130   -5.1290   24.6970 C   0  0  0  0  0  0  0  0  0  0  0  0
  -21.9790   -4.5430   23.4730 C   0  0  0  0  0  3  0  0  0  0  0  0
  -22.1180   -5.3440   22.3250 C   0  0  0  0  0  0  0  0  0  0  0  0
  -22.4500   -4.7700   21.1430 F   0  0  0  0  0  0  0  0  0  0  0  0
  -21.4730   -4.3560   25.7990 F   0  0  0  0  0  0  0  0  0  0  0  0
  -23.3540  -14.0560   21.0180 C   0  0  0  0  0  0  0  0  0  0  0  0
  -22.6490  -13.3890   21.9240 N   0  0  0  0  0  0  0  0  0  0  0  0
  -22.9290  -15.0980   20.5210 O   0  0  0  0  0  0  0  0  0  0  0  0
  -23.0060  -12.5450   22.3470 H   0  0  0  0  0  0  0  0  0  0  0  0
  -21.7390  -13.7280   22.2020 H   0  0  0  0  0  0  0  0  0  0  0  0
  -26.0130  -15.6270   20.1180 N   0  0  0  0  0  0  0  0  0  0  0  0
  -25.2880  -16.3130   20.2940 H   0  0  0  0  0  0  0  0  0  0  0  0
  -26.8750  -16.0380   19.7840 H   0  0  0  0  0  0  0  0  0  0  0  0
  -28.8450  -23.2990   20.5380 C   0  0  0  0  0  2  0  0  0  0  0  0
  -28.1660  -24.6570   19.8090 C   0  0  0  0  0  2  0  0  0  0  0  0
  -28.2480  -26.1470   20.2580 O   0  0  0  0  0  0  0  0  0  0  0  0
  -24.6270  -31.8360   23.1890 C   0  0  0  0  0  0  0  0  0  0  0  0
  -27.1800  -27.1130   20.1540 C   0  0  0  0  0  0  0  0  0  0  0  0
  -23.4110  -30.4310   21.5690 C   0  0  0  0  0  3  0  0  0  0  0  0
  -24.8460  -28.8540   20.1350 C   0  0  0  0  0  0  0  0  0  0  0  0
  -25.9620  -30.6970   21.3790 C   0  0  0  0  0  2  0  0  0  0  0  0
  -26.0290  -29.3030   20.7340 C   0  0  0  0  0  0  0  0  0  0  0  0
  -27.1910  -28.4460   20.7330 C   0  0  0  0  0  3  0  0  0  0  0  0
  -25.9760  -26.7760   19.4930 C   0  0  0  0  0  3  0  0  0  0  0  0
  -24.8330  -27.6050   19.4980 C   0  0  0  0  0  3  0  0  0  0  0  0
  -23.6170  -29.7470   20.1920 C   0  0  0  0  0  2  0  0  0  0  0  0
  -24.6870  -31.0100   22.1010 N   0  0  0  0  0  0  0  0  0  0  0  0
  -23.5460  -32.1240   23.7260 O   0  0  0  0  0  0  0  0  0  0  0  0
  -22.7430  -29.4290   22.5430 C   0  0  0  0  0  0  0  0  0  0  0  0
  -21.4130  -29.2590   22.4320 N   0  0  0  0  0  0  0  0  0  0  0  0
  -23.4220  -28.8060   23.3640 O   0  0  0  0  0  0  0  0  0  0  0  0
  -20.9210  -29.8110   21.7430 H   0  0  0  0  0  0  0  0  0  0  0  0
  -18.0370  -28.0620   22.9720 C   0  0  0  0  0  0  0  0  0  0  0  0
  -20.5990  -28.3280   23.2170 C   0  0  0  0  0  3  0  0  0  0  0  0
  -20.6970  -26.8910   22.6540 C   0  0  0  0  0  2  0  0  0  0  0  0
  -19.5870  -26.5590   21.6510 C   0  0  0  0  0  2  0  0  0  0  0  0
  -18.2100  -26.7070   22.3050 C   0  0  0  0  0  2  0  0  0  0  0  0
  -19.1590  -28.8280   23.3860 C   0  0  0  0  0  0  0  0  0  0  0  0
  -18.9420  -30.0940   23.9720 C   0  0  0  0  0  3  0  0  0  0  0  0
  -17.6370  -30.5930   24.1480 C   0  0  0  0  0  3  0  0  0  0  0  0
  -16.5310  -29.8240   23.7490 C   0  0  0  0  0  3  0  0  0  0  0  0
  -16.7320  -28.5600   23.1660 C   0  0  0  0  0  3  0  0  0  0  0  0
  -25.9120  -32.4760   23.7990 C   0  0  0  0  0  3  0  0  0  0  0  0
  -25.5900  -33.8640   24.1660 N   0  0  0  0  0  0  0  0  0  0  0  0
  -25.8950  -34.9400   23.4310 C   0  0  0  0  0  0  0  0  0  0  0  0
  -26.5460  -34.8700   22.3840 O   0  0  0  0  0  0  0  0  0  0  0  0
  -25.0070  -33.9920   24.9810 H   0  0  0  0  0  0  0  0  0  0  0  0
  -24.1440  -36.7280   23.1590 C   0  0  0  0  0  1  0  0  0  0  0  0
  -25.4050  -36.3130   23.9340 C   0  0  0  0  0  3  0  0  0  0  0  0
  -27.5480  -37.1960   24.7450 C   0  0  0  0  0  1  0  0  0  0  0  0
  -26.4260  -37.3790   23.8290 N   0  0  0  0  0  0  0  0  0  0  0  0
  -26.0140  -38.2910   24.0100 H   0  0  0  0  0  0  0  0  0  0  0  0
  -26.4600  -31.6880   25.0520 C   0  0  1  0  0  0  0  0  0  0  0  0
  -25.3880  -31.4200   26.1360 C   0  0  0  0  0  1  0  0  0  0  0  0
  -27.0510  -30.3230   24.6300 C   0  0  0  0  0  1  0  0  0  0  0  0
  -27.6130  -32.4840   25.7060 C   0  0  0  0  0  1  0  0  0  0  0  0
  1 46  1  0
  1  3  1  0
  3  2  1  0
  4  3  1  0
  4  9  1  0
  5  8  1  0
  6  8  2  0
  7  5  2  0
  9  7  1  0
  9  6  1  0
 10  7  1  0
 11 16  1  0
 12 13  1  0
 12 11  1  0
 14 13  1  0
 14 21  1  0
 14 15  1  0
 16 10  1  0
 16 15  1  0
 17 10  2  0
 18 19  2  0
 19 38  1  0
 20 19  1  0
 20 23  1  0
 21 22  1  0
 21 18  1  0
 22 20  2  0
 23 24  1  0
 24 25  2  0
 26 29  1  0
 26 25  1  0
 27 26  2  0
 28 27  1  0
 28 23  2  0
 29 30  1  0
 30 31  1  0
 31 32  2  0
 33 32  1  0
 33 37  1  0
 34 33  2  0
 35 30  2  0
 35 34  1  0
 36 35  1  0
 38 39  1  0
 39 42  1  0
 39 41  1  0
 40 38  2  0
 43 18  1  0
 43 44  1  0
 45 43  1  0
 47 48  1  0
 47 46  1  0
 49 60  2  0
 50 48  1  0
 50 55  1  0
 51 59  1  0
 51 61  1  0
 52 58  1  0
 52 54  1  0
 53 59  1  0
 54 53  1  0
 55 54  2  0
 56 57  1  0
 56 50  2  0
 57 52  2  0
 58 51  1  0
 59 49  1  0
 61 63  2  0
 62 61  1  0
 64 62  1  0
 65 74  2  0
 65 70  1  0
 66 62  1  0
 66 70  1  0
 67 66  1  0
 68 69  1  0
 68 67  1  0
 69 65  1  0
 70 71  2  0
 71 72  1  0
 73 72  2  0
 74 73  1  0
 75 49  1  0
 75 76  1  0
 75 85  1  0
 76 79  1  0
 77 81  1  0
 77 76  1  0
 78 77  2  0
 81 80  1  0
 83 81  1  0
 83 84  1  0
 83 82  1  0
 85 88  1  1
 85 86  1  0
 87 85  1  0
M  ISO  4   7 100  10 100  47 101  48 101
M  END
>  <TORSDO>  (67) 
F 21

>  <SCORE>  (67) 
-12.052

>  <name>  (67) 
67

>  <ligand_id>  (67) 
67

>  <original_smiles>  (67) 
[H]c1nc([H])n(C([H])([H])C([H])(C([H])([H])[H])C([H])([H])C([H])([H])C([H])([H])Oc2c([H])c([H])c3c(c2[H])C([H])([H])N(C(=O)C([H])(N([H])C(=O)C([H])(N([H])C([H])([H])[H])C([H])([H])[H])C(C([H])([H])[H])(C([H])([H])[H])C([H])([H])[H])C([H])(C(=O)N([H])C2([H])c4c([H])c([H])c([H])c([H])c4C([H])([H])C([H])([H])C2([H])[H])C3([H])[H])c1C(=O)N1C([H])([H])C([H])([H])C([H])([H])C([H])(n2nc(-c3c([H])c([H])c(Oc4c([H])c([H])c(F)c([H])c4F)c([H])c3[H])c(C(=O)N([H])[H])c2N([H])[H])C1([H])[H]

>  <smiles>  (67) 
[H]c1nc([H])n(C([H])([H])C([H])(C([H])([H])[H])C([H])([H])C([H])([H])C([H])([H])Oc2c([H])c([H])c3c(c2[H])C([H])([H])N(C(=O)C([H])(N([H])C(=O)C([H])(N([H])C([H])([H])[H])C([H])([H])[H])C(C([H])([H])[H])(C([H])([H])[H])C([H])([H])[H])C([H])(C(=O)N([H])C2([H])c4c([H])c([H])c([H])c([H])c4C([H])([H])C([H])([H])C2([H])[H])C3([H])[H])c1C(=O)N1C([H])([H])C([H])([H])C([H])([H])C([H])(n2nc(-c3c([H])c([H])c(Oc4c([H])c([H])c(F)c([H])c4F)c([H])c3[H])c(C(=O)N([H])[H])c2N([H])[H])C1([H])[H]

$$$$
68:0:0
     RDKit          3D

 92100  0  0  1  0  0  0  0  0999 V2000
  -28.9090  -19.7780   20.9810 C   0  0  0  0  0  3  0  0  0  0  0  0
  -30.0420  -18.8730   20.9920 C   0  0  0  0  0  0  0  0  0  0  0  0
  -29.3510  -21.0720   20.7040 C   0  0  0  0  0  0  0  0  0  0  0  0
  -31.7220  -21.8890   20.1960 C   0  0  0  0  0  1  0  0  0  0  0  0
  -31.1230  -19.6000   20.7140 N   0  0  0  0  0  0  0  0  0  0  0  0
  -30.7180  -20.8970   20.5230 N   0  0  0  0  0  0  0  0  0  0  0  0
  -30.1820  -17.3600   21.4600 C   0  0  0  0  0  2  0  0  0  0  0  0
  -30.9080  -14.9880   20.7240 C   0  0  0  0  0  0  0  0  0  0  0  0
  -30.7570  -12.6780   19.7950 C   0  0  0  0  0  2  0  0  0  0  0  0
  -29.8990  -12.6910   18.5130 C   0  0  0  0  0  2  0  0  0  0  0  0
  -28.3990  -12.5510   18.8500 C   0  0  0  0  0  2  0  0  0  0  0  0
  -27.9450  -13.4610   20.0240 C   0  0  0  0  0  3  0  0  0  0  0  0
  -28.9420  -13.4400   21.2010 C   0  0  0  0  0  2  0  0  0  0  0  0
  -30.2630  -13.7730   20.6540 N   0  0  0  0  0  0  0  0  0  0  0  0
  -32.1390  -15.0300   20.6470 O   0  0  0  0  0  0  0  0  0  0  0  0
  -30.1700  -16.1540   20.5280 N   0  0  0  0  0  0  0  0  0  0  0  0
  -25.5210  -14.0600   20.5880 C   0  0  0  0  0  0  0  0  0  0  0  0
  -24.4340  -13.2900   20.8950 C   0  0  0  0  0  0  0  0  0  0  0  0
  -24.9000  -11.9400   20.9210 C   0  0  0  0  0  0  0  0  0  0  0  0
  -26.5780  -13.1780   20.4400 N   0  0  0  0  0  0  0  0  0  0  0  0
  -26.2100  -11.8990   20.7060 N   0  0  0  0  0  0  0  0  0  0  0  0
  -24.1660  -10.6790   21.0830 C   0  0  0  0  0  0  0  0  0  0  0  0
  -24.5470   -9.7230   22.0480 C   0  0  0  0  0  3  0  0  0  0  0  0
  -23.8150   -8.5260   22.1980 C   0  0  0  0  0  3  0  0  0  0  0  0
  -22.6850   -8.2790   21.3810 C   0  0  0  0  0  0  0  0  0  0  0  0
  -22.3220   -9.2250   20.4070 C   0  0  0  0  0  3  0  0  0  0  0  0
  -23.0560  -10.4140   20.2560 C   0  0  0  0  0  3  0  0  0  0  0  0
  -21.9270   -7.1340   21.4400 O   0  0  0  0  0  0  0  0  0  0  0  0
  -21.8180   -6.4020   22.5960 C   0  0  0  0  0  0  0  0  0  0  0  0
  -21.3230   -6.9670   23.7910 C   0  0  0  0  0  3  0  0  0  0  0  0
  -21.1600   -6.1620   24.9360 C   0  0  0  0  0  3  0  0  0  0  0  0
  -21.4840   -4.7920   24.8860 C   0  0  0  0  0  0  0  0  0  0  0  0
  -21.9720   -4.2280   23.6940 C   0  0  0  0  0  3  0  0  0  0  0  0
  -22.1350   -5.0300   22.5500 C   0  0  0  0  0  0  0  0  0  0  0  0
  -22.5850   -4.4770   21.3990 F   0  0  0  0  0  0  0  0  0  0  0  0
  -21.3210   -4.0150   25.9820 F   0  0  0  0  0  0  0  0  0  0  0  0
  -23.0210  -13.7680   21.0590 C   0  0  0  0  0  0  0  0  0  0  0  0
  -22.2460  -13.1050   21.9100 N   0  0  0  0  0  0  0  0  0  0  0  0
  -22.6110  -14.7670   20.4690 O   0  0  0  0  0  0  0  0  0  0  0  0
  -22.5920  -12.2980   22.4110 H   0  0  0  0  0  0  0  0  0  0  0  0
  -21.2950  -13.4080   22.0660 H   0  0  0  0  0  0  0  0  0  0  0  0
  -25.6940  -15.4270   20.3980 N   0  0  0  0  0  0  0  0  0  0  0  0
  -24.9230  -16.0820   20.4460 H   0  0  0  0  0  0  0  0  0  0  0  0
  -26.5720  -15.8650   20.1430 H   0  0  0  0  0  0  0  0  0  0  0  0
  -29.7960  -16.5090   19.1440 C   0  0  0  0  0  2  0  0  0  0  0  0
  -30.9290  -17.1830   18.3410 C   0  0  0  0  0  2  0  0  0  0  0  0
  -31.5030  -18.6170   16.3070 C   0  0  0  0  0  1  0  0  0  0  0  0
  -30.4120  -17.8430   17.0560 C   0  0  0  0  0  2  0  0  0  0  0  0
  -28.5330  -22.4210   20.6240 C   0  0  0  0  0  2  0  0  0  0  0  0
  -29.1110  -23.9140   20.3930 C   0  0  0  0  0  3  0  0  0  0  0  0
  -28.0310  -25.1080   20.5030 C   0  0  0  0  0  3  0  0  0  0  0  0
  -28.3170  -26.5610   20.2430 O   0  0  0  0  0  0  0  0  0  0  0  0
  -24.5650  -31.9880   23.2810 C   0  0  0  0  0  0  0  0  0  0  0  0
  -27.2150  -27.4450   20.2020 C   0  0  0  0  0  0  0  0  0  0  0  0
  -23.3750  -30.5850   21.6380 C   0  0  0  0  0  3  0  0  0  0  0  0
  -24.8400  -29.0600   20.1990 C   0  0  0  0  0  0  0  0  0  0  0  0
  -25.9130  -30.9250   21.4530 C   0  0  0  0  0  2  0  0  0  0  0  0
  -26.0080  -29.5480   20.7990 C   0  0  0  0  0  0  0  0  0  0  0  0
  -27.2000  -28.7540   20.7890 C   0  0  0  0  0  3  0  0  0  0  0  0
  -26.0270  -27.0370   19.5520 C   0  0  0  0  0  3  0  0  0  0  0  0
  -24.8540  -27.8110   19.5660 C   0  0  0  0  0  3  0  0  0  0  0  0
  -23.5940  -29.9210   20.2540 C   0  0  0  0  0  2  0  0  0  0  0  0
  -24.6370  -31.1820   22.1800 N   0  0  0  0  0  0  0  0  0  0  0  0
  -23.4790  -32.2500   23.8190 O   0  0  0  0  0  0  0  0  0  0  0  0
  -22.7250  -29.5540   22.5940 C   0  0  0  0  0  0  0  0  0  0  0  0
  -21.4030  -29.3500   22.4590 N   0  0  0  0  0  0  0  0  0  0  0  0
  -23.4080  -28.9430   23.4190 O   0  0  0  0  0  0  0  0  0  0  0  0
  -20.9080  -29.8940   21.7670 H   0  0  0  0  0  0  0  0  0  0  0  0
  -18.0500  -28.0740   22.9300 C   0  0  0  0  0  0  0  0  0  0  0  0
  -20.5990  -28.3970   23.2260 C   0  0  0  0  0  3  0  0  0  0  0  0
  -20.7410  -26.9650   22.6600 C   0  0  0  0  0  2  0  0  0  0  0  0
  -19.6570  -26.6100   21.6370 C   0  0  0  0  0  2  0  0  0  0  0  0
  -18.2660  -26.7250   22.2650 C   0  0  0  0  0  2  0  0  0  0  0  0
  -19.1440  -28.8650   23.3690 C   0  0  0  0  0  0  0  0  0  0  0  0
  -18.8890  -30.1250   23.9520 C   0  0  0  0  0  3  0  0  0  0  0  0
  -17.5700  -30.5950   24.1010 C   0  0  0  0  0  3  0  0  0  0  0  0
  -16.4890  -29.8000   23.6810 C   0  0  0  0  0  3  0  0  0  0  0  0
  -16.7300  -28.5420   23.1010 C   0  0  0  0  0  3  0  0  0  0  0  0
  -25.8410  -32.6340   23.9020 C   0  0  0  0  0  3  0  0  0  0  0  0
  -25.5230  -34.0350   24.2130 N   0  0  0  0  0  0  0  0  0  0  0  0
  -25.8690  -35.0820   23.4520 C   0  0  0  0  0  0  0  0  0  0  0  0
  -26.5590  -34.9700   22.4360 O   0  0  0  0  0  0  0  0  0  0  0  0
  -24.9120  -34.1970   25.0010 H   0  0  0  0  0  0  0  0  0  0  0  0
  -24.1600  -36.8800   23.0360 C   0  0  0  0  0  1  0  0  0  0  0  0
  -25.3720  -36.4740   23.8880 C   0  0  0  0  0  3  0  0  0  0  0  0
  -27.4810  -37.3570   24.7860 C   0  0  0  0  0  1  0  0  0  0  0  0
  -26.4120  -37.5240   23.8040 N   0  0  0  0  0  0  0  0  0  0  0  0
  -26.0040  -38.4470   23.9350 H   0  0  0  0  0  0  0  0  0  0  0  0
  -26.3500  -31.8830   25.1930 C   0  0  1  0  0  0  0  0  0  0  0  0
  -25.2480  -31.6450   26.2520 C   0  0  0  0  0  1  0  0  0  0  0  0
  -26.9530  -30.5070   24.8260 C   0  0  0  0  0  1  0  0  0  0  0  0
  -27.4860  -32.6960   25.8580 C   0  0  0  0  0  1  0  0  0  0  0  0
  1  2  1  0
  2  7  1  0
  3  1  2  0
  4  6  1  0
  5  2  2  0
  6  3  1  0
  6  5  1  0
  9 14  1  0
 10 11  1  0
 10  9  1  0
 12 11  1  0
 12 20  1  0
 12 13  1  0
 14  8  1  0
 14 13  1  0
 15  8  2  0
 16  8  1  0
 16  7  1  0
 17 18  2  0
 18 19  1  0
 18 37  1  0
 19 22  1  0
 20 17  1  0
 20 21  1  0
 21 19  2  0
 22 23  1  0
 23 24  2  0
 25 28  1  0
 25 24  1  0
 26 25  2  0
 27 26  1  0
 27 22  2  0
 28 29  1  0
 29 30  1  0
 30 31  2  0
 32 31  1  0
 32 36  1  0
 33 32  2  0
 34 29  2  0
 34 33  1  0
 35 34  1  0
 37 38  1  0
 38 41  1  0
 38 40  1  0
 39 37  2  0
 42 43  1  0
 42 17  1  0
 44 42  1  0
 45 16  1  0
 46 45  1  0
 47 48  1  0
 48 46  1  0
 49  3  1  0
 50 51  2  0
 50 49  1  0
 52 51  1  0
 53 64  2  0
 54 52  1  0
 54 59  1  0
 55 63  1  0
 55 65  1  0
 56 62  1  0
 56 58  1  0
 57 63  1  0
 58 57  1  0
 59 58  2  0
 60 61  1  0
 60 54  2  0
 61 56  2  0
 62 55  1  0
 63 53  1  0
 65 67  2  0
 66 65  1  0
 68 66  1  0
 69 78  2  0
 69 74  1  0
 70 66  1  0
 70 74  1  0
 71 70  1  0
 72 73  1  0
 72 71  1  0
 73 69  1  0
 74 75  2  0
 75 76  1  0
 77 76  2  0
 78 77  1  0
 79 53  1  0
 79 80  1  0
 79 89  1  0
 80 83  1  0
 81 85  1  0
 81 80  1  0
 82 81  2  0
 85 84  1  0
 87 85  1  0
 87 88  1  0
 87 86  1  0
 89 92  1  1
 89 90  1  0
 91 89  1  0
M  ISO  4   8 100  16 100  51 101  52 101
M  END
>  <TORSDO>  (68) 
F 23

>  <SCORE>  (68) 
-12.418

>  <name>  (68) 
68

>  <ligand_id>  (68) 
68

>  <original_smiles>  (68) 
[H]c1c([H])c([H])c2c(c1[H])C([H])([H])C([H])([H])C([H])([H])C2([H])N([H])C(=O)C1([H])N(C(=O)C([H])(N([H])C(=O)C([H])(N([H])C([H])([H])[H])C([H])([H])[H])C(C([H])([H])[H])(C([H])([H])[H])C([H])([H])[H])C([H])([H])c2c([H])c(OC([H])([H])C([H])([H])C([H])([H])c3c([H])c(C([H])([H])N(C(=O)N4C([H])([H])C([H])([H])C([H])([H])C([H])(n5nc(-c6c([H])c([H])c(Oc7c([H])c([H])c(F)c([H])c7F)c([H])c6[H])c(C(=O)N([H])[H])c5N([H])[H])C4([H])[H])C([H])([H])C([H])([H])C([H])([H])C([H])([H])[H])nn3C([H])([H])[H])c([H])c([H])c2C1([H])[H]

>  <smiles>  (68) 
[H]c1c([H])c([H])c2c(c1[H])C([H])([H])C([H])([H])C([H])([H])C2([H])N([H])C(=O)C1([H])N(C(=O)C([H])(N([H])C(=O)C([H])(N([H])C([H])([H])[H])C([H])([H])[H])C(C([H])([H])[H])(C([H])([H])[H])C([H])([H])[H])C([H])([H])c2c([H])c(OC([H])([H])C([H])([H])C([H])([H])c3c([H])c(C([H])([H])N(C(=O)N4C([H])([H])C([H])([H])C([H])([H])C([H])(n5nc(-c6c([H])c([H])c(Oc7c([H])c([H])c(F)c([H])c7F)c([H])c6[H])c(C(=O)N([H])[H])c5N([H])[H])C4([H])[H])C([H])([H])C([H])([H])C([H])([H])C([H])([H])[H])nn3C([H])([H])[H])c([H])c([H])c2C1([H])[H]

$$$$
69:0:0
     RDKit          3D

 94102  0  0  1  0  0  0  0  0999 V2000
  -26.4480  -25.0680   16.9100 C   0  0  0  0  0  3  0  0  0  0  0  0
  -26.1790  -23.7350   16.9030 C   0  0  0  0  0  3  0  0  0  0  0  0
  -27.7690  -25.1680   17.4290 C   0  0  0  0  0  0  0  0  0  0  0  0
  -28.3030  -23.9610   17.6480 N   0  0  0  0  0  0  0  0  0  0  0  0
  -27.3080  -23.0800   17.3460 N   0  0  0  0  0  0  0  0  0  0  0  0
  -28.5330  -26.4670   17.6000 C   0  0  0  0  0  2  0  0  0  0  0  0
  -29.1230  -26.7920   18.9960 C   0  0  0  0  0  2  0  0  0  0  0  0
  -28.2670  -26.7210   20.1400 O   0  0  0  0  0  0  0  0  0  0  0  0
  -24.5130  -31.9200   23.2560 C   0  0  0  0  0  0  0  0  0  0  0  0
  -27.1410  -27.5060   20.1420 C   0  0  0  0  0  0  0  0  0  0  0  0
  -23.2990  -30.5150   21.6210 C   0  0  0  0  0  3  0  0  0  0  0  0
  -24.7440  -28.9910   20.1900 C   0  0  0  0  0  0  0  0  0  0  0  0
  -25.8230  -30.8880   21.4040 C   0  0  0  0  0  2  0  0  0  0  0  0
  -25.9090  -29.5220   20.7600 C   0  0  0  0  0  0  0  0  0  0  0  0
  -27.1180  -28.7870   20.7340 C   0  0  0  0  0  3  0  0  0  0  0  0
  -25.9460  -26.9640   19.6360 C   0  0  0  0  0  3  0  0  0  0  0  0
  -24.7560  -27.7060   19.6280 C   0  0  0  0  0  3  0  0  0  0  0  0
  -23.5010  -29.8430   20.2400 C   0  0  0  0  0  2  0  0  0  0  0  0
  -24.5630  -31.1210   22.1520 N   0  0  0  0  0  0  0  0  0  0  0  0
  -23.4350  -32.1960   23.8000 O   0  0  0  0  0  0  0  0  0  0  0  0
  -22.6540  -29.4920   22.5850 C   0  0  0  0  0  0  0  0  0  0  0  0
  -21.3290  -29.3110   22.4630 N   0  0  0  0  0  0  0  0  0  0  0  0
  -23.3390  -28.8690   23.4000 O   0  0  0  0  0  0  0  0  0  0  0  0
  -20.8420  -29.8690   21.7780 H   0  0  0  0  0  0  0  0  0  0  0  0
  -17.9580  -28.1110   22.9580 C   0  0  0  0  0  0  0  0  0  0  0  0
  -20.5140  -28.3750   23.2330 C   0  0  0  0  0  3  0  0  0  0  0  0
  -20.6210  -26.9430   22.6630 C   0  0  0  0  0  2  0  0  0  0  0  0
  -19.5210  -26.6130   21.6490 C   0  0  0  0  0  2  0  0  0  0  0  0
  -18.1390  -26.7600   22.2900 C   0  0  0  0  0  2  0  0  0  0  0  0
  -19.0740  -28.8770   23.3870 C   0  0  0  0  0  0  0  0  0  0  0  0
  -18.8530  -30.1430   23.9720 C   0  0  0  0  0  3  0  0  0  0  0  0
  -17.5470  -30.6430   24.1330 C   0  0  0  0  0  3  0  0  0  0  0  0
  -16.4450  -29.8740   23.7210 C   0  0  0  0  0  3  0  0  0  0  0  0
  -16.6510  -28.6100   23.1410 C   0  0  0  0  0  3  0  0  0  0  0  0
  -25.8020  -32.5500   23.8700 C   0  0  0  0  0  3  0  0  0  0  0  0
  -25.4930  -33.9430   24.2150 N   0  0  0  0  0  0  0  0  0  0  0  0
  -25.8050  -35.0020   23.4560 C   0  0  0  0  0  0  0  0  0  0  0  0
  -26.4600  -34.9090   22.4130 O   0  0  0  0  0  0  0  0  0  0  0  0
  -24.9060  -34.0920   25.0220 H   0  0  0  0  0  0  0  0  0  0  0  0
  -24.0510  -36.7790   23.1490 C   0  0  0  0  0  1  0  0  0  0  0  0
  -25.3140  -36.3810   23.9310 C   0  0  0  0  0  3  0  0  0  0  0  0
  -27.4580  -37.2780   24.7190 C   0  0  0  0  0  1  0  0  0  0  0  0
  -26.3330  -37.4440   23.8030 N   0  0  0  0  0  0  0  0  0  0  0  0
  -25.9210  -38.3580   23.9670 H   0  0  0  0  0  0  0  0  0  0  0  0
  -26.3410  -31.7680   25.1300 C   0  0  1  0  0  0  0  0  0  0  0  0
  -25.2640  -31.5130   26.2080 C   0  0  0  0  0  1  0  0  0  0  0  0
  -26.9250  -30.3970   24.7120 C   0  0  0  0  0  1  0  0  0  0  0  0
  -27.4940  -32.5630   25.7860 C   0  0  0  0  0  1  0  0  0  0  0  0
  -27.4490  -21.6240   17.3990 C   0  0  0  0  0  2  0  0  0  0  0  0
  -28.7730  -21.0370   17.9510 C   0  0  0  0  0  2  0  0  0  0  0  0
  -28.7660  -18.9850   16.5570 C   0  0  0  0  0  1  0  0  0  0  0  0
  -28.7850  -19.5370   17.9370 N   0  0  1  0  0  4  0  0  0  0  0  0
  -27.9250  -19.2510   18.3830 H   0  0  0  0  0  0  0  0  0  0  0  0
  -29.8860  -18.9510   18.7590 C   0  0  0  0  0  2  0  0  0  0  0  0
  -29.6630  -17.4670   19.1810 C   0  0  0  0  0  2  0  0  0  0  0  0
  -30.8230  -16.9090   20.0340 C   0  0  0  0  0  2  0  0  0  0  0  0
  -31.1340  -14.4470   20.0510 C   0  0  0  0  0  0  0  0  0  0  0  0
  -30.7180  -12.2640   18.9650 C   0  0  0  0  0  2  0  0  0  0  0  0
  -29.7530  -12.4350   17.7740 C   0  0  0  0  0  2  0  0  0  0  0  0
  -28.2860  -12.3630   18.2350 C   0  0  0  0  0  2  0  0  0  0  0  0
  -28.0010  -13.2580   19.4700 C   0  0  0  0  0  3  0  0  0  0  0  0
  -29.0720  -13.0160   20.5510 C   0  0  0  0  0  2  0  0  0  0  0  0
  -30.3950  -13.2980   19.9670 N   0  0  0  0  0  0  0  0  0  0  0  0
  -32.2080  -14.5570   19.4500 O   0  0  0  0  0  0  0  0  0  0  0  0
  -30.1660  -15.6000   22.0070 C   0  0  0  0  0  1  0  0  0  0  0  0
  -30.5470  -15.5560   20.5890 N   0  0  0  0  0  0  0  0  0  0  0  0
  -25.6490  -13.9670   20.2400 C   0  0  0  0  0  0  0  0  0  0  0  0
  -24.5620  -13.2410   20.6500 C   0  0  0  0  0  0  0  0  0  0  0  0
  -24.9690  -11.8720   20.6250 C   0  0  0  0  0  0  0  0  0  0  0  0
  -26.6520  -13.0440   19.9910 N   0  0  0  0  0  0  0  0  0  0  0  0
  -26.2470  -11.7800   20.2780 N   0  0  0  0  0  0  0  0  0  0  0  0
  -24.2010  -10.6420   20.8510 C   0  0  0  0  0  0  0  0  0  0  0  0
  -24.6040   -9.6870   21.8120 C   0  0  0  0  0  3  0  0  0  0  0  0
  -23.8370   -8.5210   22.0230 C   0  0  0  0  0  3  0  0  0  0  0  0
  -22.6550   -8.3030   21.2770 C   0  0  0  0  0  0  0  0  0  0  0  0
  -22.2730   -9.2450   20.3060 C   0  0  0  0  0  3  0  0  0  0  0  0
  -23.0400  -10.4030   20.0920 C   0  0  0  0  0  3  0  0  0  0  0  0
  -21.8610   -7.1890   21.4000 O   0  0  0  0  0  0  0  0  0  0  0  0
  -21.7620   -6.5020   22.5830 C   0  0  0  0  0  0  0  0  0  0  0  0
  -21.3370   -7.1280   23.7750 C   0  0  0  0  0  3  0  0  0  0  0  0
  -21.1800   -6.3700   24.9530 C   0  0  0  0  0  3  0  0  0  0  0  0
  -21.4390   -4.9850   24.9390 C   0  0  0  0  0  0  0  0  0  0  0  0
  -21.8560   -4.3590   23.7520 C   0  0  0  0  0  3  0  0  0  0  0  0
  -22.0150   -5.1140   22.5760 C   0  0  0  0  0  0  0  0  0  0  0  0
  -22.3970   -4.5010   21.4300 F   0  0  0  0  0  0  0  0  0  0  0  0
  -21.2830   -4.2540   26.0670 F   0  0  0  0  0  0  0  0  0  0  0  0
  -23.1920  -13.7780   20.9520 C   0  0  0  0  0  0  0  0  0  0  0  0
  -22.4710  -13.1330   21.8630 N   0  0  0  0  0  0  0  0  0  0  0  0
  -22.7700  -14.8030   20.4170 O   0  0  0  0  0  0  0  0  0  0  0  0
  -22.8190  -12.3030   22.3200 H   0  0  0  0  0  0  0  0  0  0  0  0
  -21.5530  -13.4750   22.1070 H   0  0  0  0  0  0  0  0  0  0  0  0
  -25.8580  -15.3290   20.0400 N   0  0  0  0  0  0  0  0  0  0  0  0
  -25.1320  -16.0240   20.1770 H   0  0  0  0  0  0  0  0  0  0  0  0
  -26.7320  -15.7250   19.7240 H   0  0  0  0  0  0  0  0  0  0  0  0
  1  3  1  0
  2  1  2  0
  2  5  1  0
  3  6  1  0
  3  4  2  0
  5 49  1  0
  5  4  1  0
  6  7  1  0
  7  8  1  0
  8 10  1  0
  9 20  2  0
 10 15  1  0
 11 19  1  0
 11 21  1  0
 12 18  1  0
 12 14  1  0
 13 19  1  0
 14 13  1  0
 15 14  2  0
 16 10  2  0
 17 16  1  0
 17 12  2  0
 18 11  1  0
 19  9  1  0
 21 23  2  0
 22 21  1  0
 24 22  1  0
 25 34  2  0
 25 30  1  0
 26 22  1  0
 26 30  1  0
 27 26  1  0
 28 29  1  0
 28 27  1  0
 29 25  1  0
 30 31  2  0
 31 32  1  0
 33 32  2  0
 34 33  1  0
 35  9  1  0
 35 36  1  0
 35 45  1  0
 36 39  1  0
 37 41  1  0
 37 36  1  0
 38 37  2  0
 41 40  1  0
 43 41  1  0
 43 44  1  0
 43 42  1  0
 45 48  1  1
 45 46  1  0
 47 45  1  0
 49 50  1  0
 51 52  1  0
 52 50  1  0
 52 53  1  1
 52 54  1  0
 54 55  1  0
 55 56  1  0
 56 66  1  0
 57 66  1  0
 58 63  1  0
 59 60  1  0
 59 58  1  0
 61 60  1  0
 61 70  1  0
 61 62  1  0
 63 57  1  0
 63 62  1  0
 64 57  2  0
 66 65  1  0
 67 68  2  0
 68 87  1  0
 69 68  1  0
 69 72  1  0
 70 67  1  0
 70 71  1  0
 71 69  2  0
 72 73  1  0
 73 74  2  0
 75 78  1  0
 75 74  1  0
 76 75  2  0
 77 76  1  0
 77 72  2  0
 78 79  1  0
 79 80  1  0
 80 81  2  0
 82 81  1  0
 82 86  1  0
 83 82  2  0
 84 79  2  0
 84 83  1  0
 85 84  1  0
 87 88  1  0
 88 91  1  0
 88 90  1  0
 89 87  2  0
 92 93  1  0
 92 67  1  0
 94 92  1  0
M  ISO  4   7 101   8 101  57 100  66 100
M  END
>  <TORSDO>  (69) 
F 24

>  <SCORE>  (69) 
-11.185

>  <name>  (69) 
69

>  <ligand_id>  (69) 
69

>  <original_smiles>  (69) 
[H]c1c([H])c([H])c2c(c1[H])C([H])([H])C([H])([H])C([H])([H])C2([H])N([H])C(=O)C1([H])N(C(=O)C([H])(N([H])C(=O)C([H])(N([H])C([H])([H])[H])C([H])([H])[H])C(C([H])([H])[H])(C([H])([H])[H])C([H])([H])[H])C([H])([H])c2c([H])c(OC([H])([H])C([H])([H])c3nn(C([H])([H])C([H])([H])[N+]([H])(C([H])([H])[H])C([H])([H])C([H])([H])C([H])([H])N(C(=O)N4C([H])([H])C([H])([H])C([H])([H])C([H])(n5nc(-c6c([H])c([H])c(Oc7c([H])c([H])c(F)c([H])c7F)c([H])c6[H])c(C(=O)N([H])[H])c5N([H])[H])C4([H])[H])C([H])([H])[H])c([H])c3[H])c([H])c([H])c2C1([H])[H]

>  <smiles>  (69) 
[H]c1c([H])c([H])c2c(c1[H])C([H])([H])C([H])([H])C([H])([H])C2([H])N([H])C(=O)C1([H])N(C(=O)C([H])(N([H])C(=O)C([H])(N([H])C([H])([H])[H])C([H])([H])[H])C(C([H])([H])[H])(C([H])([H])[H])C([H])([H])[H])C([H])([H])c2c([H])c(OC([H])([H])C([H])([H])c3nn(C([H])([H])C([H])([H])[N+]([H])(C([H])([H])[H])C([H])([H])C([H])([H])C([H])([H])N(C(=O)N4C([H])([H])C([H])([H])C([H])([H])C([H])(n5nc(-c6c([H])c([H])c(Oc7c([H])c([H])c(F)c([H])c7F)c([H])c6[H])c(C(=O)N([H])[H])c5N([H])[H])C4([H])[H])C([H])([H])[H])c([H])c3[H])c([H])c([H])c2C1([H])[H]

$$$$
70:0:0
     RDKit          3D

 91 99  0  0  1  0  0  0  0  0999 V2000
  -30.0820  -19.9430   19.7610 C   0  0  0  0  0  3  0  0  0  0  0  0
  -31.6350  -19.3750   21.1720 C   0  0  0  0  0  3  0  0  0  0  0  0
  -30.5670  -21.0670   20.3900 C   0  0  0  0  0  0  0  0  0  0  0  0
  -31.5440  -20.6930   21.3110 N   0  0  0  0  0  0  0  0  0  0  0  0
  -30.8360  -18.8670   20.2230 N   0  0  0  0  0  0  0  0  0  0  0  0
  -30.6470  -17.3780   18.2530 C   0  0  0  0  0  1  0  0  0  0  0  0
  -30.8090  -17.4770   19.7820 C   0  0  0  0  0  3  0  0  0  0  0  0
  -29.7560  -16.6190   20.5350 C   0  0  0  0  0  2  0  0  0  0  0  0
  -30.7810  -14.3830   20.1930 C   0  0  0  0  0  0  0  0  0  0  0  0
  -30.3380  -12.3270   18.9070 C   0  0  0  0  0  2  0  0  0  0  0  0
  -29.3420  -12.6230   17.7690 C   0  0  0  0  0  2  0  0  0  0  0  0
  -27.8900  -12.4940   18.2690 C   0  0  0  0  0  2  0  0  0  0  0  0
  -27.6410  -13.2620   19.5950 C   0  0  0  0  0  3  0  0  0  0  0  0
  -28.7440  -12.9580   20.6320 C   0  0  0  0  0  2  0  0  0  0  0  0
  -30.0450  -13.2550   20.0100 N   0  0  0  0  0  0  0  0  0  0  0  0
  -31.8300  -14.5970   19.5780 O   0  0  0  0  0  0  0  0  0  0  0  0
  -30.6930  -15.3350   22.4170 C   0  0  0  0  0  1  0  0  0  0  0  0
  -30.2520  -15.3110   21.0200 N   0  0  0  0  0  0  0  0  0  0  0  0
  -25.2750  -13.8750   20.3950 C   0  0  0  0  0  0  0  0  0  0  0  0
  -24.2200  -13.1030   20.8070 C   0  0  0  0  0  0  0  0  0  0  0  0
  -24.6760  -11.7510   20.7560 C   0  0  0  0  0  0  0  0  0  0  0  0
  -26.3070  -12.9900   20.1240 N   0  0  0  0  0  0  0  0  0  0  0  0
  -25.9520  -11.7080   20.3950 N   0  0  0  0  0  0  0  0  0  0  0  0
  -23.9550  -10.4900   20.9790 C   0  0  0  0  0  0  0  0  0  0  0  0
  -24.4160   -9.5270   21.9030 C   0  0  0  0  0  3  0  0  0  0  0  0
  -23.6960   -8.3300   22.1100 C   0  0  0  0  0  3  0  0  0  0  0  0
  -22.5010   -8.0890   21.3910 C   0  0  0  0  0  0  0  0  0  0  0  0
  -22.0600   -9.0410   20.4540 C   0  0  0  0  0  3  0  0  0  0  0  0
  -22.7790  -10.2280   20.2470 C   0  0  0  0  0  3  0  0  0  0  0  0
  -21.7500   -6.9440   21.5070 O   0  0  0  0  0  0  0  0  0  0  0  0
  -21.7230   -6.2150   22.6690 C   0  0  0  0  0  0  0  0  0  0  0  0
  -21.3320   -6.7910   23.8980 C   0  0  0  0  0  3  0  0  0  0  0  0
  -21.2500   -5.9910   25.0540 C   0  0  0  0  0  3  0  0  0  0  0  0
  -21.5500   -4.6170   24.9840 C   0  0  0  0  0  0  0  0  0  0  0  0
  -21.9330   -4.0420   23.7600 C   0  0  0  0  0  3  0  0  0  0  0  0
  -22.0170   -4.8400   22.6050 C   0  0  0  0  0  0  0  0  0  0  0  0
  -22.3670   -4.2760   21.4240 F   0  0  0  0  0  0  0  0  0  0  0  0
  -21.4650   -3.8460   26.0940 F   0  0  0  0  0  0  0  0  0  0  0  0
  -22.8390  -13.5850   21.1390 C   0  0  0  0  0  0  0  0  0  0  0  0
  -22.1510  -12.8920   22.0420 N   0  0  0  0  0  0  0  0  0  0  0  0
  -22.3780  -14.6080   20.6350 O   0  0  0  0  0  0  0  0  0  0  0  0
  -22.5400  -12.0640   22.4700 H   0  0  0  0  0  0  0  0  0  0  0  0
  -21.2240  -13.1960   22.3050 H   0  0  0  0  0  0  0  0  0  0  0  0
  -25.4380  -15.2440   20.2120 N   0  0  0  0  0  0  0  0  0  0  0  0
  -24.6870  -15.9100   20.3590 H   0  0  0  0  0  0  0  0  0  0  0  0
  -26.2890  -15.6770   19.8760 H   0  0  0  0  0  0  0  0  0  0  0  0
  -30.2490  -22.5140   20.1310 C   0  0  0  0  0  2  0  0  0  0  0  0
  -29.6040  -23.2250   21.3320 C   0  0  0  0  0  2  0  0  0  0  0  0
  -29.5350  -24.7590   21.1690 C   0  0  0  0  0  2  0  0  0  0  0  0
  -28.2600  -25.2820   20.4910 C   0  0  0  0  0  2  0  0  0  0  0  0
  -28.3790  -26.7010   20.3810 O   0  0  0  0  0  0  0  0  0  0  0  0
  -24.5790  -31.9360   23.2870 C   0  0  0  0  0  0  0  0  0  0  0  0
  -27.2060  -27.4180   20.3270 C   0  0  0  0  0  0  0  0  0  0  0  0
  -23.3750  -30.5120   21.6620 C   0  0  0  0  0  3  0  0  0  0  0  0
  -24.8260  -28.9350   20.2800 C   0  0  0  0  0  0  0  0  0  0  0  0
  -25.9030  -30.8470   21.4800 C   0  0  0  0  0  2  0  0  0  0  0  0
  -25.9820  -29.4640   20.8690 C   0  0  0  0  0  0  0  0  0  0  0  0
  -27.1750  -28.7130   20.8870 C   0  0  0  0  0  3  0  0  0  0  0  0
  -26.0360  -26.9000   19.7270 C   0  0  0  0  0  3  0  0  0  0  0  0
  -24.8470  -27.6540   19.7040 C   0  0  0  0  0  3  0  0  0  0  0  0
  -23.5880  -29.8020   20.2990 C   0  0  0  0  0  2  0  0  0  0  0  0
  -24.6370  -31.1120   22.2020 N   0  0  0  0  0  0  0  0  0  0  0  0
  -23.4970  -32.2300   23.8090 O   0  0  0  0  0  0  0  0  0  0  0  0
  -22.7080  -29.5140   22.6360 C   0  0  0  0  0  0  0  0  0  0  0  0
  -21.3850  -29.3360   22.4940 N   0  0  0  0  0  0  0  0  0  0  0  0
  -23.3790  -28.9010   23.4710 O   0  0  0  0  0  0  0  0  0  0  0  0
  -20.9060  -29.8800   21.7900 H   0  0  0  0  0  0  0  0  0  0  0  0
  -18.0010  -28.1650   22.9640 C   0  0  0  0  0  0  0  0  0  0  0  0
  -20.5540  -28.4200   23.2740 C   0  0  0  0  0  3  0  0  0  0  0  0
  -20.6610  -26.9750   22.7360 C   0  0  0  0  0  2  0  0  0  0  0  0
  -19.5760  -26.6310   21.7130 C   0  0  0  0  0  2  0  0  0  0  0  0
  -18.1840  -26.7990   22.3280 C   0  0  0  0  0  2  0  0  0  0  0  0
  -19.1150  -28.9340   23.3940 C   0  0  0  0  0  0  0  0  0  0  0  0
  -18.8930  -30.2140   23.9480 C   0  0  0  0  0  3  0  0  0  0  0  0
  -17.5890  -30.7250   24.0780 C   0  0  0  0  0  3  0  0  0  0  0  0
  -16.4880  -29.9550   23.6650 C   0  0  0  0  0  3  0  0  0  0  0  0
  -16.6940  -28.6780   23.1130 C   0  0  0  0  0  3  0  0  0  0  0  0
  -25.8640  -32.5690   23.9030 C   0  0  0  0  0  3  0  0  0  0  0  0
  -25.5620  -33.9720   24.2140 N   0  0  0  0  0  0  0  0  0  0  0  0
  -25.9050  -35.0140   23.4440 C   0  0  0  0  0  0  0  0  0  0  0  0
  -26.5820  -34.8940   22.4190 O   0  0  0  0  0  0  0  0  0  0  0  0
  -24.9650  -34.1400   25.0110 H   0  0  0  0  0  0  0  0  0  0  0  0
  -24.1850  -36.8050   23.0550 C   0  0  0  0  0  1  0  0  0  0  0  0
  -25.4210  -36.4100   23.8790 C   0  0  0  0  0  3  0  0  0  0  0  0
  -27.5570  -37.2920   24.7060 C   0  0  0  0  0  1  0  0  0  0  0  0
  -26.4590  -37.4560   23.7570 N   0  0  0  0  0  0  0  0  0  0  0  0
  -26.0570  -38.3800   23.8960 H   0  0  0  0  0  0  0  0  0  0  0  0
  -26.3770  -31.8100   25.1890 C   0  0  1  0  0  0  0  0  0  0  0  0
  -25.2800  -31.5860   26.2560 C   0  0  0  0  0  1  0  0  0  0  0  0
  -26.9590  -30.4270   24.8140 C   0  0  0  0  0  1  0  0  0  0  0  0
  -27.5300  -32.6080   25.8450 C   0  0  0  0  0  1  0  0  0  0  0  0
  1  5  1  0
  1  3  2  0
  2  4  2  0
  3  4  1  0
  5  2  1  0
  7  6  1  0
  7  5  1  0
  7  8  1  0
  8 18  1  0
  9 18  1  0
 10 15  1  0
 11 12  1  0
 11 10  1  0
 13 12  1  0
 13 22  1  0
 13 14  1  0
 15  9  1  0
 15 14  1  0
 16  9  2  0
 18 17  1  0
 19 20  2  0
 20 39  1  0
 21 20  1  0
 21 24  1  0
 22 23  1  0
 22 19  1  0
 23 21  2  0
 24 25  1  0
 25 26  2  0
 27 30  1  0
 27 26  1  0
 28 27  2  0
 29 28  1  0
 29 24  2  0
 30 31  1  0
 31 32  1  0
 32 33  2  0
 34 33  1  0
 34 38  1  0
 35 34  2  0
 36 31  2  0
 36 35  1  0
 37 36  1  0
 39 40  1  0
 40 43  1  0
 40 42  1  0
 41 39  2  0
 44 45  1  0
 44 19  1  0
 46 44  1  0
 47  3  1  0
 47 48  1  0
 49 48  1  0
 50 49  1  0
 51 50  1  0
 52 63  2  0
 53 51  1  0
 53 58  1  0
 54 62  1  0
 54 64  1  0
 55 61  1  0
 55 57  1  0
 56 62  1  0
 57 58  2  0
 57 56  1  0
 59 53  2  0
 60 59  1  0
 60 55  2  0
 61 54  1  0
 62 52  1  0
 64 66  2  0
 65 64  1  0
 67 65  1  0
 68 77  2  0
 68 73  1  0
 69 65  1  0
 69 73  1  0
 70 69  1  0
 71 72  1  0
 71 70  1  0
 72 68  1  0
 73 74  2  0
 74 75  1  0
 76 75  2  0
 77 76  1  0
 78 52  1  0
 78 79  1  0
 78 88  1  0
 79 82  1  0
 80 84  1  0
 80 79  1  0
 81 80  2  0
 84 83  1  0
 86 84  1  0
 86 87  1  0
 86 85  1  0
 88 91  1  1
 88 89  1  0
 90 88  1  0
M  ISO  4   9 100  18 100  50 101  51 101
M  END
>  <TORSDO>  (70) 
F 22

>  <SCORE>  (70) 
-12.411

>  <name>  (70) 
70

>  <ligand_id>  (70) 
70

>  <original_smiles>  (70) 
[H]c1c([H])c([H])c2c(c1[H])C([H])([H])C([H])([H])C([H])([H])C2([H])N([H])C(=O)C1([H])N(C(=O)C([H])(N([H])C(=O)C([H])(N([H])C([H])([H])[H])C([H])([H])[H])C(C([H])([H])[H])(C([H])([H])[H])C([H])([H])[H])C([H])([H])c2c([H])c(OC([H])([H])C([H])([H])C([H])([H])C([H])([H])c3nc([H])n(C([H])(C([H])([H])[H])C([H])([H])N(C(=O)N4C([H])([H])C([H])([H])C([H])([H])C([H])(n5nc(-c6c([H])c([H])c(Oc7c([H])c([H])c(F)c([H])c7F)c([H])c6[H])c(C(=O)N([H])[H])c5N([H])[H])C4([H])[H])C([H])([H])[H])c3[H])c([H])c([H])c2C1([H])[H]

>  <smiles>  (70) 
[H]c1c([H])c([H])c2c(c1[H])C([H])([H])C([H])([H])C([H])([H])C2([H])N([H])C(=O)C1([H])N(C(=O)C([H])(N([H])C(=O)C([H])(N([H])C([H])([H])[H])C([H])([H])[H])C(C([H])([H])[H])(C([H])([H])[H])C([H])([H])[H])C([H])([H])c2c([H])c(OC([H])([H])C([H])([H])C([H])([H])C([H])([H])c3nc([H])n(C([H])(C([H])([H])[H])C([H])([H])N(C(=O)N4C([H])([H])C([H])([H])C([H])([H])C([H])(n5nc(-c6c([H])c([H])c(Oc7c([H])c([H])c(F)c([H])c7F)c([H])c6[H])c(C(=O)N([H])[H])c5N([H])[H])C4([H])[H])C([H])([H])[H])c3[H])c([H])c([H])c2C1([H])[H]

$$$$
71:0:0
     RDKit          3D

 91 99  0  0  1  0  0  0  0  0999 V2000
  -29.0700  -22.4500   20.9830 C   0  0  0  0  0  3  0  0  0  0  0  0
  -30.1360  -20.5630   21.4630 C   0  0  0  0  0  3  0  0  0  0  0  0
  -29.4700  -21.9350   19.7800 C   0  0  0  0  0  0  0  0  0  0  0  0
  -30.1490  -20.6450   20.0930 C   0  0  0  0  0  0  0  0  0  0  0  0
  -29.1280  -21.7730   23.4160 C   0  0  0  0  0  1  0  0  0  0  0  0
  -29.4360  -21.6100   22.0070 N   0  0  0  0  0  0  0  0  0  0  0  0
  -31.9770  -19.9770   18.4410 C   0  0  0  0  0  1  0  0  0  0  0  0
  -30.7790  -19.4620   19.2540 C   0  0  0  0  0  3  0  0  0  0  0  0
  -31.1960  -18.1010   20.0650 C   0  0  0  0  0  2  0  0  0  0  0  0
  -32.2310  -15.6900   19.7790 C   0  0  0  0  0  0  0  0  0  0  0  0
  -32.0250  -13.2850   19.1470 C   0  0  0  0  0  2  0  0  0  0  0  0
  -31.0890  -13.1170   17.9270 C   0  0  0  0  0  2  0  0  0  0  0  0
  -29.6060  -13.0870   18.3500 C   0  0  0  0  0  2  0  0  0  0  0  0
  -29.2330  -14.1500   19.4180 C   0  0  0  0  0  3  0  0  0  0  0  0
  -30.2900  -14.2460   20.5390 C   0  0  0  0  0  2  0  0  0  0  0  0
  -31.5850  -14.4820   19.8930 N   0  0  0  0  0  0  0  0  0  0  0  0
  -33.4520  -15.7230   19.6040 O   0  0  0  0  0  0  0  0  0  0  0  0
  -31.2690  -16.8940   17.9010 C   0  0  0  0  0  1  0  0  0  0  0  0
  -31.4660  -16.7780   19.3540 N   0  0  0  0  0  0  0  0  0  0  0  0
  -26.9040  -14.8790   20.2050 C   0  0  0  0  0  0  0  0  0  0  0  0
  -25.8000  -14.1650   20.5840 C   0  0  0  0  0  0  0  0  0  0  0  0
  -26.1820  -12.7890   20.5400 C   0  0  0  0  0  0  0  0  0  0  0  0
  -27.8880  -13.9400   19.9440 N   0  0  0  0  0  0  0  0  0  0  0  0
  -27.4640  -12.6790   20.2160 N   0  0  0  0  0  0  0  0  0  0  0  0
  -25.3870  -11.5690   20.7370 C   0  0  0  0  0  0  0  0  0  0  0  0
  -25.6320  -10.6930   21.8170 C   0  0  0  0  0  3  0  0  0  0  0  0
  -24.8430   -9.5360   21.9940 C   0  0  0  0  0  3  0  0  0  0  0  0
  -23.7980   -9.2440   21.0850 C   0  0  0  0  0  0  0  0  0  0  0  0
  -23.5710  -10.1090   19.9990 C   0  0  0  0  0  3  0  0  0  0  0  0
  -24.3600  -11.2580   19.8230 C   0  0  0  0  0  3  0  0  0  0  0  0
  -22.9950   -8.1310   21.1610 O   0  0  0  0  0  0  0  0  0  0  0  0
  -22.5270   -7.6620   22.3620 C   0  0  0  0  0  0  0  0  0  0  0  0
  -21.7210   -8.4530   23.2080 C   0  0  0  0  0  3  0  0  0  0  0  0
  -21.2090   -7.9080   24.4030 C   0  0  0  0  0  3  0  0  0  0  0  0
  -21.4900   -6.5710   24.7480 C   0  0  0  0  0  0  0  0  0  0  0  0
  -22.2900   -5.7820   23.9030 C   0  0  0  0  0  3  0  0  0  0  0  0
  -22.8070   -6.3250   22.7120 C   0  0  0  0  0  0  0  0  0  0  0  0
  -23.5590   -5.5530   21.8900 F   0  0  0  0  0  0  0  0  0  0  0  0
  -20.9920   -6.0430   25.8900 F   0  0  0  0  0  0  0  0  0  0  0  0
  -24.4360  -14.7190   20.8780 C   0  0  0  0  0  0  0  0  0  0  0  0
  -23.6930  -14.0680   21.7670 N   0  0  0  0  0  0  0  0  0  0  0  0
  -24.0410  -15.7620   20.3580 O   0  0  0  0  0  0  0  0  0  0  0  0
  -24.0230  -13.2220   22.2060 H   0  0  0  0  0  0  0  0  0  0  0  0
  -22.7790  -14.4210   22.0110 H   0  0  0  0  0  0  0  0  0  0  0  0
  -27.1430  -16.2400   20.0350 N   0  0  0  0  0  0  0  0  0  0  0  0
  -26.4230  -16.9390   20.1660 H   0  0  0  0  0  0  0  0  0  0  0  0
  -28.0230  -16.6370   19.7280 H   0  0  0  0  0  0  0  0  0  0  0  0
  -29.1020  -22.7140   18.4640 C   0  0  0  0  0  2  0  0  0  0  0  0
  -29.2490  -24.3290   18.4120 C   0  0  0  0  0  3  0  0  0  0  0  0
  -27.9740  -25.2940   18.3030 C   0  0  0  0  0  3  0  0  0  0  0  0
  -28.1120  -26.7800   18.4400 O   0  0  0  0  0  0  0  0  0  0  0  0
  -24.5480  -31.2820   22.8740 C   0  0  0  0  0  0  0  0  0  0  0  0
  -26.9600  -27.5610   18.6890 C   0  0  0  0  0  0  0  0  0  0  0  0
  -23.2130  -30.1080   21.1640 C   0  0  0  0  0  3  0  0  0  0  0  0
  -24.5370  -28.9740   19.2950 C   0  0  0  0  0  0  0  0  0  0  0  0
  -25.6850  -30.6550   20.7320 C   0  0  0  0  0  2  0  0  0  0  0  0
  -25.7510  -29.4310   19.8210 C   0  0  0  0  0  0  0  0  0  0  0  0
  -26.9630  -28.7380   19.5090 C   0  0  0  0  0  3  0  0  0  0  0  0
  -25.7130  -27.1760   18.1460 C   0  0  0  0  0  3  0  0  0  0  0  0
  -24.5200  -27.8570   18.4490 C   0  0  0  0  0  3  0  0  0  0  0  0
  -23.2730  -29.7250   19.6640 C   0  0  0  0  0  2  0  0  0  0  0  0
  -24.5060  -30.6900   21.6440 N   0  0  0  0  0  0  0  0  0  0  0  0
  -23.5350  -31.3670   23.5830 O   0  0  0  0  0  0  0  0  0  0  0  0
  -22.7490  -28.8810   21.9850 C   0  0  0  0  0  0  0  0  0  0  0  0
  -21.4570  -28.5260   21.8740 N   0  0  0  0  0  0  0  0  0  0  0  0
  -23.5490  -28.2580   22.6880 O   0  0  0  0  0  0  0  0  0  0  0  0
  -20.8580  -29.0920   21.2870 H   0  0  0  0  0  0  0  0  0  0  0  0
  -18.3550  -26.6890   22.1730 C   0  0  0  0  0  0  0  0  0  0  0  0
  -20.8200  -27.3810   22.5260 C   0  0  0  0  0  3  0  0  0  0  0  0
  -21.1880  -26.0580   21.8140 C   0  0  0  0  0  2  0  0  0  0  0  0
  -20.1680  -25.6450   20.7490 C   0  0  0  0  0  2  0  0  0  0  0  0
  -18.7790  -25.4710   21.3690 C   0  0  0  0  0  2  0  0  0  0  0  0
  -19.3110  -27.5950   22.7020 C   0  0  0  0  0  0  0  0  0  0  0  0
  -18.8590  -28.7300   23.4090 C   0  0  0  0  0  3  0  0  0  0  0  0
  -17.4830  -28.9630   23.5950 C   0  0  0  0  0  3  0  0  0  0  0  0
  -16.5420  -28.0550   23.0800 C   0  0  0  0  0  3  0  0  0  0  0  0
  -16.9780  -26.9200   22.3740 C   0  0  0  0  0  3  0  0  0  0  0  0
  -25.8660  -31.8990   23.4380 C   0  0  0  0  0  3  0  0  0  0  0  0
  -25.5430  -33.2300   23.9760 N   0  0  0  0  0  0  0  0  0  0  0  0
  -25.8020  -34.3870   23.3510 C   0  0  0  0  0  0  0  0  0  0  0  0
  -26.4100  -34.4460   22.2790 O   0  0  0  0  0  0  0  0  0  0  0  0
  -25.0160  -33.2560   24.8350 H   0  0  0  0  0  0  0  0  0  0  0  0
  -24.0320  -36.1700   23.3180 C   0  0  0  0  0  1  0  0  0  0  0  0
  -25.3080  -35.6820   24.0210 C   0  0  0  0  0  3  0  0  0  0  0  0
  -27.4500  -36.4910   24.9070 C   0  0  0  0  0  1  0  0  0  0  0  0
  -26.3180  -36.7630   24.0270 N   0  0  0  0  0  0  0  0  0  0  0  0
  -25.8990  -37.6430   24.3140 H   0  0  0  0  0  0  0  0  0  0  0  0
  -26.5460  -31.0040   24.5450 C   0  0  1  0  0  0  0  0  0  0  0  0
  -25.5830  -30.5710   25.6750 C   0  0  0  0  0  1  0  0  0  0  0  0
  -27.1450  -29.7200   23.9250 C   0  0  0  0  0  1  0  0  0  0  0  0
  -27.7250  -31.7720   25.1890 C   0  0  0  0  0  1  0  0  0  0  0  0
  1  6  1  0
  2  6  1  0
  3  4  1  0
  3  1  2  0
  4  2  2  0
  6  5  1  0
  8  7  1  0
  8  9  1  0
  8  4  1  0
 10 16  1  0
 11 16  1  0
 12 13  1  0
 12 11  1  0
 14 13  1  0
 14 23  1  0
 14 15  1  0
 16 15  1  0
 17 10  2  0
 18 19  1  0
 19 10  1  0
 19  9  1  0
 20 21  2  0
 21 40  1  0
 22 21  1  0
 22 25  1  0
 23 20  1  0
 23 24  1  0
 24 22  2  0
 25 26  1  0
 26 27  2  0
 28 31  1  0
 28 27  1  0
 29 28  2  0
 30 29  1  0
 30 25  2  0
 31 32  1  0
 32 37  2  0
 32 33  1  0
 33 34  2  0
 34 35  1  0
 35 39  1  0
 36 35  2  0
 37 36  1  0
 38 37  1  0
 40 41  1  0
 41 44  1  0
 41 43  1  0
 42 40  2  0
 45 46  1  0
 45 20  1  0
 47 45  1  0
 48  3  1  0
 49 48  1  0
 50 49  2  0
 50 51  1  0
 51 53  1  0
 52 63  2  0
 53 58  1  0
 54 62  1  0
 54 64  1  0
 55 61  1  0
 55 57  1  0
 56 62  1  0
 57 56  1  0
 58 57  2  0
 59 60  1  0
 59 53  2  0
 60 55  2  0
 61 54  1  0
 62 52  1  0
 64 66  2  0
 65 64  1  0
 67 65  1  0
 68 77  2  0
 68 73  1  0
 69 65  1  0
 69 73  1  0
 70 69  1  0
 71 72  1  0
 71 70  1  0
 72 68  1  0
 73 74  2  0
 74 75  1  0
 76 75  2  0
 77 76  1  0
 78 52  1  0
 78 79  1  0
 78 88  1  0
 79 82  1  0
 80 79  1  0
 80 84  1  0
 81 80  2  0
 84 83  1  0
 84 86  1  0
 86 87  1  0
 86 85  1  0
 88 91  1  1
 88 89  1  0
 90 88  1  0
M  ISO  4  10 100  19 100  50 101  51 101
M  END
>  <TORSDO>  (71) 
F 21

>  <SCORE>  (71) 
-8.178

>  <name>  (71) 
71

>  <ligand_id>  (71) 
71

>  <original_smiles>  (71) 
[H]c1c([H])c([H])c2c(c1[H])C([H])([H])C([H])([H])C([H])([H])C2([H])N([H])C(=O)C1([H])N(C(=O)C([H])(N([H])C(=O)C([H])(N([H])C([H])([H])[H])C([H])([H])[H])C(C([H])([H])[H])(C([H])([H])[H])C([H])([H])[H])C([H])([H])c2c([H])c(OC([H])([H])C([H])([H])C([H])([H])c3c(C([H])(C([H])([H])[H])C([H])([H])N(C(=O)N4C([H])([H])C([H])([H])C([H])([H])C([H])(n5nc(-c6c([H])c([H])c(Oc7c([H])c([H])c(F)c([H])c7F)c([H])c6[H])c(C(=O)N([H])[H])c5N([H])[H])C4([H])[H])C([H])([H])[H])c([H])n(C([H])([H])[H])c3[H])c([H])c([H])c2C1([H])[H]

>  <smiles>  (71) 
[H]c1c([H])c([H])c2c(c1[H])C([H])([H])C([H])([H])C([H])([H])C2([H])N([H])C(=O)C1([H])N(C(=O)C([H])(N([H])C(=O)C([H])(N([H])C([H])([H])[H])C([H])([H])[H])C(C([H])([H])[H])(C([H])([H])[H])C([H])([H])[H])C([H])([H])c2c([H])c(OC([H])([H])C([H])([H])C([H])([H])c3c(C([H])(C([H])([H])[H])C([H])([H])N(C(=O)N4C([H])([H])C([H])([H])C([H])([H])C([H])(n5nc(-c6c([H])c([H])c(Oc7c([H])c([H])c(F)c([H])c7F)c([H])c6[H])c(C(=O)N([H])[H])c5N([H])[H])C4([H])[H])C([H])([H])[H])c([H])n(C([H])([H])[H])c3[H])c([H])c([H])c2C1([H])[H]

$$$$
72:0:0
     RDKit          3D

 95103  0  0  1  0  0  0  0  0999 V2000
  -29.4250  -21.6490   19.7070 C   0  0  0  0  0  3  0  0  0  0  0  0
  -30.1070  -20.4460   19.3640 C   0  0  0  0  0  0  0  0  0  0  0  0
  -30.1860  -22.2290   20.6800 C   0  0  0  0  0  0  0  0  0  0  0  0
  -32.3590  -21.5010   21.8260 C   0  0  0  0  0  1  0  0  0  0  0  0
  -31.2190  -20.2960   20.0720 N   0  0  0  0  0  0  0  0  0  0  0  0
  -31.2610  -21.3770   20.8850 N   0  0  0  0  0  0  0  0  0  0  0  0
  -29.7030  -19.4270   18.3190 C   0  0  0  0  0  2  0  0  0  0  0  0
  -29.3610  -17.1520   17.5740 C   0  0  0  0  0  1  0  0  0  0  0  0
  -29.8790  -17.9890   18.6860 N   0  0  2  0  0  4  0  0  0  0  0  0
  -30.8790  -17.8570   18.7290 H   0  0  0  0  0  0  0  0  0  0  0  0
  -29.3480  -17.6350   20.0410 C   0  0  0  0  0  2  0  0  0  0  0  0
  -29.0970  -16.1280   20.3800 C   0  0  0  0  0  2  0  0  0  0  0  0
  -30.6000  -14.3000   19.5390 C   0  0  0  0  0  0  0  0  0  0  0  0
  -30.0580  -12.1710   18.3990 C   0  0  0  0  0  2  0  0  0  0  0  0
  -28.9630  -12.3530   17.3320 C   0  0  0  0  0  2  0  0  0  0  0  0
  -27.5640  -12.2100   17.9630 C   0  0  0  0  0  2  0  0  0  0  0  0
  -27.4000  -13.0840   19.2290 C   0  0  0  0  0  3  0  0  0  0  0  0
  -28.5940  -12.8940   20.1960 C   0  0  0  0  0  2  0  0  0  0  0  0
  -29.8390  -13.1710   19.4600 N   0  0  0  0  0  0  0  0  0  0  0  0
  -31.5930  -14.4800   18.8290 O   0  0  0  0  0  0  0  0  0  0  0  0
  -30.2650  -15.2200   20.4800 N   0  0  0  0  0  0  0  0  0  0  0  0
  -25.1560  -13.7640   20.2930 C   0  0  0  0  0  0  0  0  0  0  0  0
  -24.1240  -13.0170   20.7970 C   0  0  0  0  0  0  0  0  0  0  0  0
  -24.5290  -11.6540   20.6750 C   0  0  0  0  0  0  0  0  0  0  0  0
  -26.1220  -12.8510   19.8950 N   0  0  0  0  0  0  0  0  0  0  0  0
  -25.7590  -11.5770   20.1840 N   0  0  0  0  0  0  0  0  0  0  0  0
  -23.7960  -10.4110   20.9410 C   0  0  0  0  0  0  0  0  0  0  0  0
  -24.2860   -9.4420   21.8430 C   0  0  0  0  0  3  0  0  0  0  0  0
  -23.5540   -8.2620   22.0940 C   0  0  0  0  0  3  0  0  0  0  0  0
  -22.3180   -8.0430   21.4410 C   0  0  0  0  0  0  0  0  0  0  0  0
  -21.8450   -8.9990   20.5260 C   0  0  0  0  0  3  0  0  0  0  0  0
  -22.5770  -10.1720   20.2730 C   0  0  0  0  0  3  0  0  0  0  0  0
  -21.5500   -6.9150   21.6050 O   0  0  0  0  0  0  0  0  0  0  0  0
  -21.5480   -6.2100   22.7820 C   0  0  0  0  0  0  0  0  0  0  0  0
  -21.1930   -6.8110   24.0090 C   0  0  0  0  0  3  0  0  0  0  0  0
  -21.1370   -6.0340   25.1830 C   0  0  0  0  0  3  0  0  0  0  0  0
  -21.4260   -4.6570   25.1310 C   0  0  0  0  0  0  0  0  0  0  0  0
  -21.7750   -4.0550   23.9090 C   0  0  0  0  0  3  0  0  0  0  0  0
  -21.8330   -4.8300   22.7370 C   0  0  0  0  0  0  0  0  0  0  0  0
  -22.1480   -4.2420   21.5580 F   0  0  0  0  0  0  0  0  0  0  0  0
  -21.3650   -3.9080   26.2570 F   0  0  0  0  0  0  0  0  0  0  0  0
  -22.7960  -13.5320   21.2740 C   0  0  0  0  0  0  0  0  0  0  0  0
  -22.1820  -12.8490   22.2330 N   0  0  0  0  0  0  0  0  0  0  0  0
  -22.3180  -14.5750   20.8280 O   0  0  0  0  0  0  0  0  0  0  0  0
  -22.5840  -12.0050   22.6130 H   0  0  0  0  0  0  0  0  0  0  0  0
  -21.2970  -13.1760   22.5940 H   0  0  0  0  0  0  0  0  0  0  0  0
  -25.3390  -15.1330   20.1180 N   0  0  0  0  0  0  0  0  0  0  0  0
  -24.6080  -15.8000   20.3440 H   0  0  0  0  0  0  0  0  0  0  0  0
  -26.1240  -15.5520   19.6420 H   0  0  0  0  0  0  0  0  0  0  0  0
  -31.0380  -14.6880   22.7700 C   0  0  0  0  0  1  0  0  0  0  0  0
  -31.2310  -15.5720   21.5280 C   0  0  0  0  0  2  0  0  0  0  0  0
  -29.9730  -23.5090   21.4390 C   0  0  0  0  0  2  0  0  0  0  0  0
  -29.9820  -24.7860   20.5650 C   0  0  0  0  0  2  0  0  0  0  0  0
  -28.5960  -25.3170   20.1350 C   0  0  0  0  0  2  0  0  0  0  0  0
  -28.5380  -26.7130   20.4350 O   0  0  0  0  0  0  0  0  0  0  0  0
  -24.5880  -31.8690   23.2900 C   0  0  0  0  0  0  0  0  0  0  0  0
  -27.3300  -27.3740   20.3790 C   0  0  0  0  0  0  0  0  0  0  0  0
  -23.4270  -30.4250   21.6520 C   0  0  0  0  0  3  0  0  0  0  0  0
  -24.9180  -28.8540   20.3030 C   0  0  0  0  0  0  0  0  0  0  0  0
  -25.9520  -30.7890   21.5070 C   0  0  0  0  0  2  0  0  0  0  0  0
  -26.0570  -29.4040   20.9020 C   0  0  0  0  0  0  0  0  0  0  0  0
  -27.2630  -28.6700   20.9370 C   0  0  0  0  0  3  0  0  0  0  0  0
  -26.1700  -26.8290   19.7790 C   0  0  0  0  0  3  0  0  0  0  0  0
  -24.9680  -27.5650   19.7430 C   0  0  0  0  0  3  0  0  0  0  0  0
  -23.6720  -29.7120   20.2940 C   0  0  0  0  0  2  0  0  0  0  0  0
  -24.6730  -31.0430   22.2100 N   0  0  0  0  0  0  0  0  0  0  0  0
  -23.4950  -32.1520   23.7960 O   0  0  0  0  0  0  0  0  0  0  0  0
  -22.7530  -29.4260   22.6180 C   0  0  0  0  0  0  0  0  0  0  0  0
  -21.4340  -29.2380   22.4570 N   0  0  0  0  0  0  0  0  0  0  0  0
  -23.4130  -28.8220   23.4680 O   0  0  0  0  0  0  0  0  0  0  0  0
  -20.9660  -29.7810   21.7450 H   0  0  0  0  0  0  0  0  0  0  0  0
  -18.0430  -28.0680   22.8960 C   0  0  0  0  0  0  0  0  0  0  0  0
  -20.5940  -28.3170   23.2250 C   0  0  0  0  0  3  0  0  0  0  0  0
  -20.7040  -26.8760   22.6750 C   0  0  0  0  0  2  0  0  0  0  0  0
  -19.6230  -26.5420   21.6410 C   0  0  0  0  0  2  0  0  0  0  0  0
  -18.2280  -26.7050   22.2500 C   0  0  0  0  0  2  0  0  0  0  0  0
  -19.1560  -28.8320   23.3390 C   0  0  0  0  0  0  0  0  0  0  0  0
  -18.9320  -30.1080   23.9010 C   0  0  0  0  0  3  0  0  0  0  0  0
  -17.6270  -30.6190   24.0290 C   0  0  0  0  0  3  0  0  0  0  0  0
  -16.5290  -29.8510   23.6050 C   0  0  0  0  0  3  0  0  0  0  0  0
  -16.7370  -28.5790   23.0420 C   0  0  0  0  0  3  0  0  0  0  0  0
  -25.8590  -32.5140   23.9280 C   0  0  0  0  0  3  0  0  0  0  0  0
  -25.5360  -33.9130   24.2390 N   0  0  0  0  0  0  0  0  0  0  0  0
  -25.8820  -34.9600   23.4790 C   0  0  0  0  0  0  0  0  0  0  0  0
  -26.5790  -34.8510   22.4670 O   0  0  0  0  0  0  0  0  0  0  0  0
  -24.9120  -34.0710   25.0180 H   0  0  0  0  0  0  0  0  0  0  0  0
  -24.1620  -36.7460   23.0530 C   0  0  0  0  0  1  0  0  0  0  0  0
  -25.3750  -36.3490   23.9100 C   0  0  0  0  0  3  0  0  0  0  0  0
  -27.4770  -37.2430   24.8110 C   0  0  0  0  0  1  0  0  0  0  0  0
  -26.4090  -37.4030   23.8290 N   0  0  0  0  0  0  0  0  0  0  0  0
  -25.9940  -38.3230   23.9590 H   0  0  0  0  0  0  0  0  0  0  0  0
  -26.3600  -31.7560   25.2180 C   0  0  1  0  0  0  0  0  0  0  0  0
  -25.2470  -31.5080   26.2610 C   0  0  0  0  0  1  0  0  0  0  0  0
  -26.9730  -30.3870   24.8410 C   0  0  0  0  0  1  0  0  0  0  0  0
  -27.4830  -32.5720   25.9010 C   0  0  0  0  0  1  0  0  0  0  0  0
  1  3  2  0
  2  1  1  0
  2  5  2  0
  3  6  1  0
  3 52  1  0
  5  6  1  0
  6  4  1  0
  7  9  1  0
  7  2  1  0
  8  9  1  0
  9 10  1  1
  9 11  1  0
 11 12  1  0
 12 21  1  0
 13 21  1  0
 14 19  1  0
 15 16  1  0
 15 14  1  0
 17 16  1  0
 17 25  1  0
 17 18  1  0
 19 13  1  0
 19 18  1  0
 20 13  2  0
 21 51  1  0
 22 23  2  0
 23 42  1  0
 24 23  1  0
 24 27  1  0
 25 26  1  0
 25 22  1  0
 26 24  2  0
 27 28  1  0
 28 29  2  0
 30 33  1  0
 30 29  1  0
 31 30  2  0
 32 31  1  0
 32 27  2  0
 33 34  1  0
 34 35  1  0
 35 36  2  0
 37 36  1  0
 37 41  1  0
 38 37  2  0
 39 34  2  0
 39 38  1  0
 40 39  1  0
 42 43  1  0
 43 46  1  0
 43 45  1  0
 44 42  2  0
 47 22  1  0
 47 48  1  0
 49 47  1  0
 51 50  1  0
 53 52  1  0
 54 55  1  0
 54 53  1  0
 56 67  2  0
 57 55  1  0
 57 62  1  0
 58 66  1  0
 58 68  1  0
 59 61  1  0
 60 66  1  0
 61 62  2  0
 61 60  1  0
 63 57  2  0
 64 63  1  0
 64 59  2  0
 65 59  1  0
 65 58  1  0
 66 56  1  0
 68 70  2  0
 69 68  1  0
 71 69  1  0
 72 81  2  0
 72 77  1  0
 73 69  1  0
 73 77  1  0
 74 73  1  0
 75 76  1  0
 75 74  1  0
 76 72  1  0
 77 78  2  0
 78 79  1  0
 80 79  2  0
 81 80  1  0
 82 56  1  0
 82 83  1  0
 82 92  1  0
 83 86  1  0
 84 88  1  0
 84 83  1  0
 85 84  2  0
 88 87  1  0
 90 88  1  0
 90 91  1  0
 90 89  1  0
 92 95  1  1
 92 93  1  0
 94 92  1  0
M  ISO  4  13 100  21 100  54 101  55 101
M  END
>  <TORSDO>  (72) 
F 24

>  <SCORE>  (72) 
-9.541

>  <name>  (72) 
72

>  <ligand_id>  (72) 
72

>  <original_smiles>  (72) 
[H]c1c([H])c([H])c2c(c1[H])C([H])([H])C([H])([H])C([H])([H])C2([H])N([H])C(=O)C1([H])N(C(=O)C([H])(N([H])C(=O)C([H])(N([H])C([H])([H])[H])C([H])([H])[H])C(C([H])([H])[H])(C([H])([H])[H])C([H])([H])[H])C([H])([H])c2c([H])c(OC([H])([H])C([H])([H])C([H])([H])c3c([H])c(C([H])([H])[N+]([H])(C([H])([H])[H])C([H])([H])C([H])([H])N(C(=O)N4C([H])([H])C([H])([H])C([H])([H])C([H])(n5nc(-c6c([H])c([H])c(Oc7c([H])c([H])c(F)c([H])c7F)c([H])c6[H])c(C(=O)N([H])[H])c5N([H])[H])C4([H])[H])C([H])([H])C([H])([H])[H])nn3C([H])([H])[H])c([H])c([H])c2C1([H])[H]

>  <smiles>  (72) 
[H]c1c([H])c([H])c2c(c1[H])C([H])([H])C([H])([H])C([H])([H])C2([H])N([H])C(=O)C1([H])N(C(=O)C([H])(N([H])C(=O)C([H])(N([H])C([H])([H])[H])C([H])([H])[H])C(C([H])([H])[H])(C([H])([H])[H])C([H])([H])[H])C([H])([H])c2c([H])c(OC([H])([H])C([H])([H])C([H])([H])c3c([H])c(C([H])([H])[N+]([H])(C([H])([H])[H])C([H])([H])C([H])([H])N(C(=O)N4C([H])([H])C([H])([H])C([H])([H])C([H])(n5nc(-c6c([H])c([H])c(Oc7c([H])c([H])c(F)c([H])c7F)c([H])c6[H])c(C(=O)N([H])[H])c5N([H])[H])C4([H])[H])C([H])([H])C([H])([H])[H])nn3C([H])([H])[H])c([H])c([H])c2C1([H])[H]

$$$$
73:0:0
     RDKit          3D

 93101  0  0  1  0  0  0  0  0999 V2000
  -28.9740  -24.4840   21.6170 C   0  0  0  0  0  3  0  0  0  0  0  0
  -28.8930  -24.6270   20.2560 C   0  0  0  0  0  0  0  0  0  0  0  0
  -28.8200  -22.4380   20.7470 C   0  0  0  0  0  3  0  0  0  0  0  0
  -28.9550  -22.5520   23.2330 C   0  0  0  0  0  1  0  0  0  0  0  0
  -28.9180  -23.1400   21.8930 N   0  0  0  0  0  0  0  0  0  0  0  0
  -28.8020  -23.3490   19.7630 N   0  0  0  0  0  0  0  0  0  0  0  0
  -28.7370  -23.1180   18.7790 H   0  0  0  0  0  0  0  0  0  0  0  0
  -28.9500  -25.8540   19.3960 C   0  0  0  0  0  2  0  0  0  0  0  0
  -28.7270  -27.0620   20.1300 O   0  0  0  0  0  0  0  0  0  0  0  0
  -24.6730  -31.9160   23.3640 C   0  0  0  0  0  0  0  0  0  0  0  0
  -27.4910  -27.6810   20.1470 C   0  0  0  0  0  0  0  0  0  0  0  0
  -23.5350  -30.5700   21.6270 C   0  0  0  0  0  3  0  0  0  0  0  0
  -25.0520  -29.1250   20.1770 C   0  0  0  0  0  0  0  0  0  0  0  0
  -26.0550  -30.9880   21.5070 C   0  0  0  0  0  2  0  0  0  0  0  0
  -26.1820  -29.6470   20.8170 C   0  0  0  0  0  0  0  0  0  0  0  0
  -27.3980  -28.9300   20.8020 C   0  0  0  0  0  3  0  0  0  0  0  0
  -26.3330  -27.1610   19.5190 C   0  0  0  0  0  3  0  0  0  0  0  0
  -25.1230  -27.8790   19.5300 C   0  0  0  0  0  3  0  0  0  0  0  0
  -23.7930  -29.9600   20.2230 C   0  0  0  0  0  2  0  0  0  0  0  0
  -24.7720  -31.1700   22.2260 N   0  0  0  0  0  0  0  0  0  0  0  0
  -23.5750  -32.1390   23.8910 O   0  0  0  0  0  0  0  0  0  0  0  0
  -22.8840  -29.4930   22.5240 C   0  0  0  0  0  0  0  0  0  0  0  0
  -21.5680  -29.2860   22.3520 N   0  0  0  0  0  0  0  0  0  0  0  0
  -23.5580  -28.8480   23.3310 O   0  0  0  0  0  0  0  0  0  0  0  0
  -21.0840  -29.8570   21.6720 H   0  0  0  0  0  0  0  0  0  0  0  0
  -18.2190  -27.9790   22.6730 C   0  0  0  0  0  0  0  0  0  0  0  0
  -20.7530  -28.3000   23.0580 C   0  0  0  0  0  3  0  0  0  0  0  0
  -20.9250  -26.8930   22.4390 C   0  0  0  0  0  2  0  0  0  0  0  0
  -19.8720  -26.5740   21.3710 C   0  0  0  0  0  2  0  0  0  0  0  0
  -18.4620  -26.6600   21.9610 C   0  0  0  0  0  2  0  0  0  0  0  0
  -19.2950  -28.7560   23.1750 C   0  0  0  0  0  0  0  0  0  0  0  0
  -19.0150  -29.9920   23.7970 C   0  0  0  0  0  3  0  0  0  0  0  0
  -17.6910  -30.4490   23.9280 C   0  0  0  0  0  3  0  0  0  0  0  0
  -16.6270  -29.6680   23.4450 C   0  0  0  0  0  3  0  0  0  0  0  0
  -16.8910  -28.4370   22.8190 C   0  0  0  0  0  3  0  0  0  0  0  0
  -25.9320  -32.5410   24.0420 C   0  0  0  0  0  3  0  0  0  0  0  0
  -25.6100  -33.9340   24.3760 N   0  0  0  0  0  0  0  0  0  0  0  0
  -25.9750  -34.9970   23.6470 C   0  0  0  0  0  0  0  0  0  0  0  0
  -26.6940  -34.9080   22.6470 O   0  0  0  0  0  0  0  0  0  0  0  0
  -24.9810  -34.0790   25.1530 H   0  0  0  0  0  0  0  0  0  0  0  0
  -24.2600  -36.7880   23.2380 C   0  0  0  0  0  1  0  0  0  0  0  0
  -25.4640  -36.3780   24.1000 C   0  0  0  0  0  3  0  0  0  0  0  0
  -27.5590  -37.2520   25.0290 C   0  0  0  0  0  1  0  0  0  0  0  0
  -26.4950  -37.4350   24.0460 N   0  0  0  0  0  0  0  0  0  0  0  0
  -26.0790  -38.3510   24.1970 H   0  0  0  0  0  0  0  0  0  0  0  0
  -26.4050  -31.7530   25.3230 C   0  0  1  0  0  0  0  0  0  0  0  0
  -25.2710  -31.4810   26.3370 C   0  0  0  0  0  1  0  0  0  0  0  0
  -27.0210  -30.3910   24.9280 C   0  0  0  0  0  1  0  0  0  0  0  0
  -27.5160  -32.5470   26.0500 C   0  0  0  0  0  1  0  0  0  0  0  0
  -28.6940  -20.9430   20.5170 C   0  0  0  0  0  2  0  0  0  0  0  0
  -29.4310  -19.6340   22.3890 C   0  0  0  0  0  1  0  0  0  0  0  0
  -29.7690  -20.0670   21.0290 N   0  0  0  0  0  0  0  0  0  0  0  0
  -29.9080  -18.8880   20.1580 C   0  0  0  0  0  2  0  0  0  0  0  0
  -30.7500  -17.7390   20.7650 C   0  0  0  0  0  2  0  0  0  0  0  0
  -30.9170  -16.5480   19.7890 C   0  0  0  0  0  2  0  0  0  0  0  0
  -31.7750  -14.2830   19.5430 C   0  0  0  0  0  0  0  0  0  0  0  0
  -31.1390  -12.1420   18.4890 C   0  0  0  0  0  2  0  0  0  0  0  0
  -30.1150  -12.3840   17.3640 C   0  0  0  0  0  2  0  0  0  0  0  0
  -28.6810  -12.4090   17.9280 C   0  0  0  0  0  2  0  0  0  0  0  0
  -28.5420  -13.3400   19.1610 C   0  0  0  0  0  3  0  0  0  0  0  0
  -29.6620  -13.0610   20.1880 C   0  0  0  0  0  2  0  0  0  0  0  0
  -30.9610  -13.1930   19.5010 N   0  0  0  0  0  0  0  0  0  0  0  0
  -32.7780  -14.4050   18.8300 O   0  0  0  0  0  0  0  0  0  0  0  0
  -32.0230  -15.3250   21.7010 C   0  0  0  0  0  1  0  0  0  0  0  0
  -31.3900  -15.2740   20.3790 N   0  0  0  0  0  0  0  0  0  0  0  0
  -26.3420  -14.2390   20.1530 C   0  0  0  0  0  0  0  0  0  0  0  0
  -25.2140  -13.6030   20.5970 C   0  0  0  0  0  0  0  0  0  0  0  0
  -25.4650  -12.2050   20.4460 C   0  0  0  0  0  0  0  0  0  0  0  0
  -27.2170  -13.2340   19.7670 N   0  0  0  0  0  0  0  0  0  0  0  0
  -26.6960  -12.0010   19.9970 N   0  0  0  0  0  0  0  0  0  0  0  0
  -24.5830  -11.0470   20.6510 C   0  0  0  0  0  0  0  0  0  0  0  0
  -24.9510   -9.9800   21.5000 C   0  0  0  0  0  3  0  0  0  0  0  0
  -24.0790   -8.8880   21.6950 C   0  0  0  0  0  3  0  0  0  0  0  0
  -22.8250   -8.8560   21.0410 C   0  0  0  0  0  0  0  0  0  0  0  0
  -22.4730   -9.9090   20.1790 C   0  0  0  0  0  3  0  0  0  0  0  0
  -23.3430  -10.9940   19.9830 C   0  0  0  0  0  3  0  0  0  0  0  0
  -21.9250   -7.8240   21.1500 O   0  0  0  0  0  0  0  0  0  0  0  0
  -21.8430   -7.0560   22.2840 C   0  0  0  0  0  0  0  0  0  0  0  0
  -21.6020   -7.6260   23.5530 C   0  0  0  0  0  3  0  0  0  0  0  0
  -21.4570   -6.7940   24.6820 C   0  0  0  0  0  3  0  0  0  0  0  0
  -21.5410   -5.3960   24.5420 C   0  0  0  0  0  0  0  0  0  0  0  0
  -21.7750   -4.8260   23.2780 C   0  0  0  0  0  3  0  0  0  0  0  0
  -21.9220   -5.6550   22.1520 C   0  0  0  0  0  0  0  0  0  0  0  0
  -22.1270   -5.1010   20.9330 F   0  0  0  0  0  0  0  0  0  0  0  0
  -21.3940   -4.5970   25.6250 F   0  0  0  0  0  0  0  0  0  0  0  0
  -23.9380  -14.2530   21.0480 C   0  0  0  0  0  0  0  0  0  0  0  0
  -23.2240  -13.6260   21.9770 N   0  0  0  0  0  0  0  0  0  0  0  0
  -23.5900  -15.3490   20.6100 O   0  0  0  0  0  0  0  0  0  0  0  0
  -23.5200  -12.7370   22.3520 H   0  0  0  0  0  0  0  0  0  0  0  0
  -22.3690  -14.0430   22.3210 H   0  0  0  0  0  0  0  0  0  0  0  0
  -26.6880  -15.5810   20.0270 N   0  0  0  0  0  0  0  0  0  0  0  0
  -26.0410  -16.3290   20.2500 H   0  0  0  0  0  0  0  0  0  0  0  0
  -27.5610  -15.9120   19.6380 H   0  0  0  0  0  0  0  0  0  0  0  0
  1  5  1  0
  2  1  2  0
  3 50  1  0
  3  5  1  0
  5  4  1  0
  6  2  1  0
  6  3  1  0
  7  6  1  0
  8  9  1  0
  8  2  1  0
  9 11  1  0
 10 21  2  0
 11 16  1  0
 12 20  1  0
 12 22  1  0
 13 19  1  0
 13 15  1  0
 14 20  1  0
 15 14  1  0
 16 15  2  0
 17 18  1  0
 17 11  2  0
 18 13  2  0
 19 12  1  0
 20 10  1  0
 22 24  2  0
 23 22  1  0
 25 23  1  0
 26 35  2  0
 26 31  1  0
 27 23  1  0
 27 31  1  0
 28 27  1  0
 29 30  1  0
 29 28  1  0
 30 26  1  0
 31 32  2  0
 32 33  1  0
 34 33  2  0
 35 34  1  0
 36 10  1  0
 36 37  1  0
 36 46  1  0
 37 40  1  0
 38 42  1  0
 38 37  1  0
 39 38  2  0
 42 41  1  0
 44 42  1  0
 44 45  1  0
 44 43  1  0
 46 49  1  1
 46 47  1  0
 48 46  1  0
 50 52  1  0
 52 51  1  0
 53 54  1  0
 53 52  1  0
 55 65  1  0
 55 54  1  0
 56 65  1  0
 57 62  1  0
 58 59  1  0
 58 57  1  0
 60 59  1  0
 60 69  1  0
 60 61  1  0
 62 56  1  0
 62 61  1  0
 63 56  2  0
 65 64  1  0
 66 67  2  0
 67 86  1  0
 68 67  1  0
 68 71  1  0
 69 70  1  0
 69 66  1  0
 70 68  2  0
 71 72  1  0
 72 73  2  0
 74 77  1  0
 74 73  1  0
 75 74  2  0
 76 75  1  0
 76 71  2  0
 77 78  1  0
 78 79  1  0
 79 80  2  0
 81 80  1  0
 81 85  1  0
 82 81  2  0
 83 78  2  0
 83 82  1  0
 84 83  1  0
 86 87  1  0
 87 90  1  0
 87 89  1  0
 88 86  2  0
 91 66  1  0
 91 92  1  0
 93 91  1  0
M  ISO  4   8 101   9 101  56 100  65 100
M  END
>  <TORSDO>  (73) 
F 22

>  <SCORE>  (73) 
-9.379

>  <name>  (73) 
73

>  <ligand_id>  (73) 
73

>  <original_smiles>  (73) 
[H]c1c([H])c([H])c2c(c1[H])C([H])([H])C([H])([H])C([H])([H])C2([H])N([H])C(=O)C1([H])N(C(=O)C([H])(N([H])C(=O)C([H])(N([H])C([H])([H])[H])C([H])([H])[H])C(C([H])([H])[H])(C([H])([H])[H])C([H])([H])[H])C([H])([H])c2c([H])c(OC([H])([H])c3c([H])n(C([H])([H])[H])c(C([H])([H])N(C([H])([H])[H])C([H])([H])C([H])([H])C([H])([H])N(C(=O)N4C([H])([H])C([H])([H])C([H])([H])C([H])(n5nc(-c6c([H])c([H])c(Oc7c([H])c([H])c(F)c([H])c7F)c([H])c6[H])c(C(=O)N([H])[H])c5N([H])[H])C4([H])[H])C([H])([H])[H])[n+]3[H])c([H])c([H])c2C1([H])[H]

>  <smiles>  (73) 
[H]c1c([H])c([H])c2c(c1[H])C([H])([H])C([H])([H])C([H])([H])C2([H])N([H])C(=O)C1([H])N(C(=O)C([H])(N([H])C(=O)C([H])(N([H])C([H])([H])[H])C([H])([H])[H])C(C([H])([H])[H])(C([H])([H])[H])C([H])([H])[H])C([H])([H])c2c([H])c(OC([H])([H])c3c([H])n(C([H])([H])[H])c(C([H])([H])N(C([H])([H])[H])C([H])([H])C([H])([H])C([H])([H])N(C(=O)N4C([H])([H])C([H])([H])C([H])([H])C([H])(n5nc(-c6c([H])c([H])c(Oc7c([H])c([H])c(F)c([H])c7F)c([H])c6[H])c(C(=O)N([H])[H])c5N([H])[H])C4([H])[H])C([H])([H])[H])[n+]3[H])c([H])c([H])c2C1([H])[H]

$$$$
74:0:0
     RDKit          3D

 93101  0  0  1  0  0  0  0  0999 V2000
  -26.8330  -22.2400   19.9720 C   0  0  0  0  0  3  0  0  0  0  0  0
  -26.4610  -20.9630   20.2820 C   0  0  0  0  0  3  0  0  0  0  0  0
  -28.6740  -20.9740   19.9670 C   0  0  0  0  0  3  0  0  0  0  0  0
  -28.2030  -22.2520   19.8170 N   0  0  0  0  0  0  0  0  0  0  0  0
  -27.6070  -20.2270   20.2830 N   0  0  0  0  0  0  0  0  0  0  0  0
  -27.6370  -19.2340   20.4780 H   0  0  0  0  0  0  0  0  0  0  0  0
  -30.0700  -20.3520   19.8880 C   0  0  0  0  0  2  0  0  0  0  0  0
  -30.0760  -18.8230   19.5110 C   0  0  0  0  0  3  0  0  0  0  0  0
  -31.2780  -17.9170   19.9920 C   0  0  0  0  0  3  0  0  0  0  0  0
  -31.9580  -15.5120   20.1600 C   0  0  0  0  0  0  0  0  0  0  0  0
  -31.7590  -13.0970   19.7220 C   0  0  0  0  0  2  0  0  0  0  0  0
  -30.9440  -12.9090   18.4280 C   0  0  0  0  0  2  0  0  0  0  0  0
  -29.4270  -12.9190   18.7220 C   0  0  0  0  0  2  0  0  0  0  0  0
  -28.9760  -14.0500   19.6890 C   0  0  0  0  0  3  0  0  0  0  0  0
  -29.9310  -14.1980   20.8900 C   0  0  0  0  0  2  0  0  0  0  0  0
  -31.2870  -14.3390   20.3510 N   0  0  0  0  0  0  0  0  0  0  0  0
  -33.1920  -15.5530   20.1390 O   0  0  0  0  0  0  0  0  0  0  0  0
  -31.2580  -16.4980   19.4980 N   0  0  0  0  0  0  0  0  0  0  0  0
  -26.6070  -14.8540   20.2670 C   0  0  0  0  0  0  0  0  0  0  0  0
  -25.4600  -14.1730   20.5750 C   0  0  0  0  0  0  0  0  0  0  0  0
  -25.8120  -12.7880   20.5800 C   0  0  0  0  0  0  0  0  0  0  0  0
  -27.5870  -13.8870   20.1030 N   0  0  0  0  0  0  0  0  0  0  0  0
  -27.1110  -12.6410   20.3560 N   0  0  0  0  0  0  0  0  0  0  0  0
  -24.9760  -11.5910   20.7290 C   0  0  0  0  0  0  0  0  0  0  0  0
  -25.2690  -10.6020   21.6940 C   0  0  0  0  0  3  0  0  0  0  0  0
  -24.4410   -9.4680   21.8330 C   0  0  0  0  0  3  0  0  0  0  0  0
  -23.3040   -9.3150   21.0050 C   0  0  0  0  0  0  0  0  0  0  0  0
  -23.0290  -10.2900   20.0300 C   0  0  0  0  0  3  0  0  0  0  0  0
  -23.8580  -11.4170   19.8900 C   0  0  0  0  0  3  0  0  0  0  0  0
  -22.4560   -8.2360   21.0520 O   0  0  0  0  0  0  0  0  0  0  0  0
  -22.2060   -7.5690   22.2250 C   0  0  0  0  0  0  0  0  0  0  0  0
  -21.6660   -8.2220   23.3540 C   0  0  0  0  0  3  0  0  0  0  0  0
  -21.3590   -7.4840   24.5150 C   0  0  0  0  0  3  0  0  0  0  0  0
  -21.5820   -6.0950   24.5460 C   0  0  0  0  0  0  0  0  0  0  0  0
  -22.1150   -5.4430   23.4210 C   0  0  0  0  0  3  0  0  0  0  0  0
  -22.4220   -6.1770   22.2630 C   0  0  0  0  0  0  0  0  0  0  0  0
  -22.9150   -5.5400   21.1740 F   0  0  0  0  0  0  0  0  0  0  0  0
  -21.2800   -5.3830   25.6580 F   0  0  0  0  0  0  0  0  0  0  0  0
  -24.0930  -14.7630   20.7560 C   0  0  0  0  0  0  0  0  0  0  0  0
  -23.2660  -14.1480   21.5950 N   0  0  0  0  0  0  0  0  0  0  0  0
  -23.7670  -15.8060   20.1900 O   0  0  0  0  0  0  0  0  0  0  0  0
  -23.5430  -13.3060   22.0780 H   0  0  0  0  0  0  0  0  0  0  0  0
  -22.3460  -14.5260   21.7630 H   0  0  0  0  0  0  0  0  0  0  0  0
  -26.8960  -16.2040   20.0910 N   0  0  0  0  0  0  0  0  0  0  0  0
  -26.1720  -16.9130   20.1140 H   0  0  0  0  0  0  0  0  0  0  0  0
  -27.7920  -16.5530   19.7720 H   0  0  0  0  0  0  0  0  0  0  0  0
  -30.1950  -16.5350   17.1820 C   0  0  0  0  0  1  0  0  0  0  0  0
  -31.4880  -16.5150   18.0260 C   0  0  0  0  0  2  0  0  0  0  0  0
  -28.9700  -23.4790   19.4320 C   0  0  0  0  0  2  0  0  0  0  0  0
  -28.8830  -24.8950   21.5500 C   0  0  0  0  0  1  0  0  0  0  0  0
  -28.4680  -24.8400   20.0720 C   0  0  0  0  0  3  0  0  0  0  0  0
  -28.9280  -26.1250   19.2940 C   0  0  0  0  0  2  0  0  0  0  0  0
  -28.7520  -27.4200   19.9380 O   0  0  0  0  0  0  0  0  0  0  0  0
  -24.7120  -32.0670   23.5490 C   0  0  0  0  0  0  0  0  0  0  0  0
  -27.5320  -28.0850   19.9810 C   0  0  0  0  0  0  0  0  0  0  0  0
  -23.5520  -30.7760   21.7870 C   0  0  0  0  0  3  0  0  0  0  0  0
  -25.0590  -29.4780   20.1810 C   0  0  0  0  0  0  0  0  0  0  0  0
  -26.0530  -31.2880   21.5910 C   0  0  0  0  0  2  0  0  0  0  0  0
  -26.2000  -29.9960   20.8050 C   0  0  0  0  0  0  0  0  0  0  0  0
  -27.4350  -29.3070   20.7000 C   0  0  0  0  0  3  0  0  0  0  0  0
  -26.3700  -27.5950   19.3470 C   0  0  0  0  0  3  0  0  0  0  0  0
  -25.1410  -28.2810   19.4480 C   0  0  0  0  0  3  0  0  0  0  0  0
  -23.7690  -30.2540   20.3400 C   0  0  0  0  0  2  0  0  0  0  0  0
  -24.7910  -31.3890   22.3670 N   0  0  0  0  0  0  0  0  0  0  0  0
  -23.6280  -32.2160   24.1310 O   0  0  0  0  0  0  0  0  0  0  0  0
  -22.9780  -29.6260   22.6460 C   0  0  0  0  0  0  0  0  0  0  0  0
  -21.6910  -29.3070   22.4370 N   0  0  0  0  0  0  0  0  0  0  0  0
  -23.6920  -29.0260   23.4550 O   0  0  0  0  0  0  0  0  0  0  0  0
  -21.1700  -29.8520   21.7640 H   0  0  0  0  0  0  0  0  0  0  0  0
  -18.4890  -27.6400   22.5980 C   0  0  0  0  0  0  0  0  0  0  0  0
  -20.9540  -28.2310   23.0990 C   0  0  0  0  0  3  0  0  0  0  0  0
  -21.3020  -26.8560   22.4830 C   0  0  0  0  0  2  0  0  0  0  0  0
  -20.3400  -26.4350   21.3660 C   0  0  0  0  0  2  0  0  0  0  0  0
  -18.9050  -26.3610   21.8920 C   0  0  0  0  0  2  0  0  0  0  0  0
  -19.4510  -28.5270   23.1510 C   0  0  0  0  0  0  0  0  0  0  0  0
  -19.0100  -29.7190   23.7640 C   0  0  0  0  0  3  0  0  0  0  0  0
  -17.6380  -30.0280   23.8350 C   0  0  0  0  0  3  0  0  0  0  0  0
  -16.6900  -29.1400   23.3000 C   0  0  0  0  0  3  0  0  0  0  0  0
  -17.1150  -27.9480   22.6880 C   0  0  0  0  0  3  0  0  0  0  0  0
  -25.9720  -32.7020   24.2150 C   0  0  0  0  0  3  0  0  0  0  0  0
  -25.6420  -34.0930   24.5540 N   0  0  0  0  0  0  0  0  0  0  0  0
  -26.0120  -35.1600   23.8360 C   0  0  0  0  0  0  0  0  0  0  0  0
  -26.7360  -35.0790   22.8400 O   0  0  0  0  0  0  0  0  0  0  0  0
  -25.0090  -34.2320   25.3290 H   0  0  0  0  0  0  0  0  0  0  0  0
  -24.3010  -36.9550   23.4170 C   0  0  0  0  0  1  0  0  0  0  0  0
  -25.4940  -36.5390   24.2920 C   0  0  0  0  0  3  0  0  0  0  0  0
  -27.5730  -37.4070   25.2670 C   0  0  0  0  0  1  0  0  0  0  0  0
  -26.5290  -37.5950   24.2630 N   0  0  0  0  0  0  0  0  0  0  0  0
  -26.1120  -38.5110   24.4060 H   0  0  0  0  0  0  0  0  0  0  0  0
  -26.4640  -31.9210   25.4940 C   0  0  1  0  0  0  0  0  0  0  0  0
  -25.3380  -31.6290   26.5140 C   0  0  0  0  0  1  0  0  0  0  0  0
  -27.0990  -30.5690   25.0940 C   0  0  0  0  0  1  0  0  0  0  0  0
  -27.5670  -32.7310   26.2150 C   0  0  0  0  0  1  0  0  0  0  0  0
  1  2  2  0
  2  5  1  0
  3  7  1  0
  3  5  1  0
  4  3  1  0
  4  1  1  0
  5  6  1  0
  8  7  1  0
  8  9  2  0
 10 16  1  0
 11 16  1  0
 12 13  1  0
 12 11  1  0
 14 13  1  0
 14 22  1  0
 14 15  1  0
 16 15  1  0
 17 10  2  0
 18  9  1  0
 18 10  1  0
 19 20  2  0
 20 21  1  0
 20 39  1  0
 21 24  1  0
 22 19  1  0
 22 23  1  0
 23 21  2  0
 24 25  1  0
 25 26  2  0
 27 30  1  0
 27 26  1  0
 28 27  2  0
 29 28  1  0
 29 24  2  0
 30 31  1  0
 31 36  2  0
 31 32  1  0
 32 33  2  0
 33 34  1  0
 34 38  1  0
 35 34  2  0
 36 35  1  0
 37 36  1  0
 39 40  1  0
 40 43  1  0
 40 42  1  0
 41 39  2  0
 44 45  1  0
 44 19  1  0
 46 44  1  0
 47 48  1  0
 48 18  1  0
 49  4  1  0
 49 51  1  0
 51 50  1  0
 52 53  1  0
 52 51  1  0
 53 55  1  0
 54 65  2  0
 55 60  1  0
 56 64  1  0
 56 66  1  0
 57 63  1  0
 57 59  1  0
 58 64  1  0
 59 58  1  0
 60 59  2  0
 61 62  1  0
 61 55  2  0
 62 57  2  0
 63 56  1  0
 64 54  1  0
 66 68  2  0
 67 66  1  0
 69 67  1  0
 70 79  2  0
 70 75  1  0
 71 67  1  0
 71 75  1  0
 72 71  1  0
 73 74  1  0
 73 72  1  0
 74 70  1  0
 75 76  2  0
 76 77  1  0
 78 77  2  0
 79 78  1  0
 80 54  1  0
 80 81  1  0
 80 90  1  0
 81 84  1  0
 82 86  1  0
 82 81  1  0
 83 82  2  0
 86 85  1  0
 88 86  1  0
 88 89  1  0
 88 87  1  0
 90 93  1  1
 90 91  1  0
 92 90  1  0
M  ISO  4  10 100  18 100  52 101  53 101
M  END
>  <TORSDO>  (74) 
F 23

>  <SCORE>  (74) 
-7.344

>  <name>  (74) 
74

>  <ligand_id>  (74) 
74

>  <original_smiles>  (74) 
[H]c1c([H])c([H])c2c(c1[H])C([H])([H])C([H])([H])C([H])([H])C2([H])N([H])C(=O)C1([H])N(C(=O)C([H])(N([H])C(=O)C([H])(N([H])C([H])([H])[H])C([H])([H])[H])C(C([H])([H])[H])(C([H])([H])[H])C([H])([H])[H])C([H])([H])c2c([H])c(OC([H])([H])C([H])(C([H])([H])[H])C([H])([H])n3c([H])c([H])[n+]([H])c3C([H])([H])C([H])([H])C([H])([H])N(C(=O)N3C([H])([H])C([H])([H])C([H])([H])C([H])(n4nc(-c5c([H])c([H])c(Oc6c([H])c([H])c(F)c([H])c6F)c([H])c5[H])c(C(=O)N([H])[H])c4N([H])[H])C3([H])[H])C([H])([H])C([H])([H])[H])c([H])c([H])c2C1([H])[H]

>  <smiles>  (74) 
[H]c1c([H])c([H])c2c(c1[H])C([H])([H])C([H])([H])C([H])([H])C2([H])N([H])C(=O)C1([H])N(C(=O)C([H])(N([H])C(=O)C([H])(N([H])C([H])([H])[H])C([H])([H])[H])C(C([H])([H])[H])(C([H])([H])[H])C([H])([H])[H])C([H])([H])c2c([H])c(OC([H])([H])C([H])(C([H])([H])[H])C([H])([H])n3c([H])c([H])[n+]([H])c3C([H])([H])C([H])([H])C([H])([H])N(C(=O)N3C([H])([H])C([H])([H])C([H])([H])C([H])(n4nc(-c5c([H])c([H])c(Oc6c([H])c([H])c(F)c([H])c6F)c([H])c5[H])c(C(=O)N([H])[H])c4N([H])[H])C3([H])[H])C([H])([H])C([H])([H])[H])c([H])c([H])c2C1([H])[H]

$$$$
75:0:0
     RDKit          3D

 94102  0  0  1  0  0  0  0  0999 V2000
  -28.6130  -21.2450   20.1210 C   0  0  0  0  0  3  0  0  0  0  0  0
  -28.8230  -19.9450   20.6330 C   0  0  0  0  0  0  0  0  0  0  0  0
  -29.4890  -21.7640   19.1420 C   0  0  0  0  0  0  0  0  0  0  0  0
  -29.9230  -19.1930   20.1540 C   0  0  0  0  0  0  0  0  0  0  0  0
  -30.5480  -20.9220   18.7080 C   0  0  0  0  0  0  0  0  0  0  0  0
  -27.8740  -19.4020   21.6910 C   0  0  0  0  0  1  0  0  0  0  0  0
  -30.7510  -19.6870   19.2150 N   0  0  0  0  0  0  0  0  0  0  0  0
  -30.9570  -20.9320   16.2040 C   0  0  0  0  0  1  0  0  0  0  0  0
  -31.5190  -21.2790   17.5880 C   0  0  0  0  0  2  0  0  0  0  0  0
  -29.2540  -23.1610   18.5380 C   0  0  0  0  0  2  0  0  0  0  0  0
  -28.7410  -24.2710   19.4930 C   0  0  0  0  0  2  0  0  0  0  0  0
  -28.8230  -25.6680   18.8310 C   0  0  0  0  0  2  0  0  0  0  0  0
  -28.6080  -26.7550   19.7370 O   0  0  0  0  0  0  0  0  0  0  0  0
  -24.8130  -31.7560   23.0560 C   0  0  0  0  0  0  0  0  0  0  0  0
  -27.3920  -27.4080   19.7870 C   0  0  0  0  0  0  0  0  0  0  0  0
  -23.5520  -30.3480   21.4590 C   0  0  0  0  0  3  0  0  0  0  0  0
  -24.9620  -28.8550   19.9430 C   0  0  0  0  0  0  0  0  0  0  0  0
  -26.0550  -30.7630   21.1350 C   0  0  0  0  0  2  0  0  0  0  0  0
  -26.1350  -29.4000   20.4790 C   0  0  0  0  0  0  0  0  0  0  0  0
  -27.3470  -28.6790   20.4050 C   0  0  0  0  0  3  0  0  0  0  0  0
  -26.1960  -26.8690   19.2610 C   0  0  0  0  0  3  0  0  0  0  0  0
  -24.9860  -27.5870   19.3370 C   0  0  0  0  0  3  0  0  0  0  0  0
  -23.7030  -29.6850   20.0620 C   0  0  0  0  0  2  0  0  0  0  0  0
  -24.8280  -30.9700   21.9410 N   0  0  0  0  0  0  0  0  0  0  0  0
  -23.7560  -31.9990   23.6540 O   0  0  0  0  0  0  0  0  0  0  0  0
  -22.9740  -29.3030   22.4390 C   0  0  0  0  0  0  0  0  0  0  0  0
  -21.6680  -29.0190   22.3070 N   0  0  0  0  0  0  0  0  0  0  0  0
  -23.6970  -28.7480   23.2700 O   0  0  0  0  0  0  0  0  0  0  0  0
  -21.1400  -29.5240   21.6090 H   0  0  0  0  0  0  0  0  0  0  0  0
  -18.4070  -27.5280   22.7470 C   0  0  0  0  0  0  0  0  0  0  0  0
  -20.9180  -28.0390   23.0930 C   0  0  0  0  0  3  0  0  0  0  0  0
  -21.1750  -26.6020   22.5840 C   0  0  0  0  0  2  0  0  0  0  0  0
  -20.1480  -26.1350   21.5470 C   0  0  0  0  0  2  0  0  0  0  0  0
  -18.7360  -26.1760   22.1360 C   0  0  0  0  0  2  0  0  0  0  0  0
  -19.4330  -28.4110   23.1790 C   0  0  0  0  0  0  0  0  0  0  0  0
  -19.0750  -29.6710   23.7030 C   0  0  0  0  0  3  0  0  0  0  0  0
  -17.7240  -30.0550   23.7990 C   0  0  0  0  0  3  0  0  0  0  0  0
  -16.7120  -29.1710   23.3850 C   0  0  0  0  0  3  0  0  0  0  0  0
  -17.0550  -27.9100   22.8640 C   0  0  0  0  0  3  0  0  0  0  0  0
  -26.1160  -32.4040   23.6180 C   0  0  0  0  0  3  0  0  0  0  0  0
  -25.7820  -33.7630   24.0630 N   0  0  0  0  0  0  0  0  0  0  0  0
  -26.0060  -34.8750   23.3500 C   0  0  0  0  0  0  0  0  0  0  0  0
  -26.5930  -34.8670   22.2650 O   0  0  0  0  0  0  0  0  0  0  0  0
  -25.2550  -33.8420   24.9220 H   0  0  0  0  0  0  0  0  0  0  0  0
  -24.1770  -36.5940   23.2510 C   0  0  0  0  0  1  0  0  0  0  0  0
  -25.4980  -36.2060   23.9330 C   0  0  0  0  0  3  0  0  0  0  0  0
  -27.6560  -37.1400   24.6400 C   0  0  0  0  0  1  0  0  0  0  0  0
  -26.4690  -37.3140   23.8050 N   0  0  0  0  0  0  0  0  0  0  0  0
  -26.0380  -38.2010   24.0500 H   0  0  0  0  0  0  0  0  0  0  0  0
  -26.7690  -31.5780   24.7940 C   0  0  1  0  0  0  0  0  0  0  0  0
  -25.7680  -31.1750   25.9020 C   0  0  0  0  0  1  0  0  0  0  0  0
  -27.4200  -30.2840   24.2500 C   0  0  0  0  0  1  0  0  0  0  0  0
  -27.9020  -32.4020   25.4510 C   0  0  0  0  0  1  0  0  0  0  0  0
  -30.3400  -17.8310   20.7240 C   0  0  0  0  0  3  0  0  0  0  0  0
  -30.2470  -16.6340   19.7280 C   0  0  0  0  0  3  0  0  0  0  0  0
  -31.0650  -14.4000   19.2650 C   0  0  0  0  0  0  0  0  0  0  0  0
  -30.4280  -12.3310   18.0740 C   0  0  0  0  0  2  0  0  0  0  0  0
  -29.2830  -12.5900   17.0770 C   0  0  0  0  0  2  0  0  0  0  0  0
  -27.9170  -12.4740   17.7760 C   0  0  0  0  0  2  0  0  0  0  0  0
  -27.8490  -13.2810   19.1000 C   0  0  0  0  0  3  0  0  0  0  0  0
  -29.0840  -13.0050   19.9880 C   0  0  0  0  0  2  0  0  0  0  0  0
  -30.2940  -13.2790   19.1910 N   0  0  0  0  0  0  0  0  0  0  0  0
  -31.9910  -14.6280   18.4780 O   0  0  0  0  0  0  0  0  0  0  0  0
  -30.7270  -15.3060   20.2140 N   0  0  0  0  0  0  0  0  0  0  0  0
  -25.6790  -13.9250   20.3260 C   0  0  0  0  0  0  0  0  0  0  0  0
  -24.6530  -13.1700   20.8320 C   0  0  0  0  0  0  0  0  0  0  0  0
  -25.0110  -11.8090   20.5890 C   0  0  0  0  0  0  0  0  0  0  0  0
  -26.5990  -13.0240   19.8140 N   0  0  0  0  0  0  0  0  0  0  0  0
  -26.2100  -11.7410   20.0250 N   0  0  0  0  0  0  0  0  0  0  0  0
  -24.2560  -10.5670   20.8070 C   0  0  0  0  0  0  0  0  0  0  0  0
  -24.7140   -9.5710   21.6960 C   0  0  0  0  0  3  0  0  0  0  0  0
  -23.9610   -8.3940   21.9010 C   0  0  0  0  0  3  0  0  0  0  0  0
  -22.7360   -8.2080   21.2180 C   0  0  0  0  0  0  0  0  0  0  0  0
  -22.2970   -9.1930   20.3160 C   0  0  0  0  0  3  0  0  0  0  0  0
  -23.0510  -10.3600   20.1080 C   0  0  0  0  0  3  0  0  0  0  0  0
  -21.9480   -7.0890   21.3360 O   0  0  0  0  0  0  0  0  0  0  0  0
  -21.8370   -6.4090   22.5230 C   0  0  0  0  0  0  0  0  0  0  0  0
  -21.3690   -7.0330   23.7010 C   0  0  0  0  0  3  0  0  0  0  0  0
  -21.2050   -6.2780   24.8790 C   0  0  0  0  0  3  0  0  0  0  0  0
  -21.5030   -4.9020   24.8830 C   0  0  0  0  0  0  0  0  0  0  0  0
  -21.9640   -4.2790   23.7100 C   0  0  0  0  0  3  0  0  0  0  0  0
  -22.1280   -5.0300   22.5330 C   0  0  0  0  0  0  0  0  0  0  0  0
  -22.5510   -4.4190   21.4000 F   0  0  0  0  0  0  0  0  0  0  0  0
  -21.3410   -4.1750   26.0120 F   0  0  0  0  0  0  0  0  0  0  0  0
  -23.3700  -13.6790   21.4230 C   0  0  0  0  0  0  0  0  0  0  0  0
  -22.8030  -12.9510   22.3810 N   0  0  0  0  0  0  0  0  0  0  0  0
  -22.8850  -14.7520   21.0690 O   0  0  0  0  0  0  0  0  0  0  0  0
  -23.2100  -12.0790   22.6800 H   0  0  0  0  0  0  0  0  0  0  0  0
  -21.9480  -13.2690   22.8150 H   0  0  0  0  0  0  0  0  0  0  0  0
  -25.8950  -15.2960   20.2390 N   0  0  0  0  0  0  0  0  0  0  0  0
  -25.2140  -15.9770   20.5560 H   0  0  0  0  0  0  0  0  0  0  0  0
  -26.7000  -15.7160   19.7920 H   0  0  0  0  0  0  0  0  0  0  0  0
  -32.0570  -13.9480   21.9500 C   0  0  0  0  0  1  0  0  0  0  0  0
  -31.4480  -15.2970   21.5060 C   0  0  0  0  0  2  0  0  0  0  0  0
  1  2  1  0
  2  6  1  0
  3  1  2  0
  4  2  2  0
  4 54  1  0
  5  3  1  0
  5  7  2  0
  7  4  1  0
  8  9  1  0
  9  5  1  0
 10  3  1  0
 10 11  1  0
 12 11  1  0
 12 13  1  0
 13 15  1  0
 14 25  2  0
 15 20  1  0
 16 24  1  0
 16 26  1  0
 17 23  1  0
 17 19  1  0
 18 24  1  0
 19 18  1  0
 20 19  2  0
 21 22  1  0
 21 15  2  0
 22 17  2  0
 23 16  1  0
 24 14  1  0
 26 28  2  0
 27 26  1  0
 29 27  1  0
 30 39  2  0
 30 35  1  0
 31 27  1  0
 31 35  1  0
 32 31  1  0
 33 34  1  0
 33 32  1  0
 34 30  1  0
 35 36  2  0
 36 37  1  0
 38 37  2  0
 39 38  1  0
 40 14  1  0
 40 41  1  0
 40 50  1  0
 41 44  1  0
 42 46  1  0
 42 41  1  0
 43 42  2  0
 46 45  1  0
 48 46  1  0
 48 49  1  0
 48 47  1  0
 50 53  1  1
 50 51  1  0
 52 50  1  0
 55 64  1  0
 55 54  2  0
 56 64  1  0
 57 62  1  0
 58 59  1  0
 58 57  1  0
 60 59  1  0
 60 68  1  0
 60 61  1  0
 62 56  1  0
 62 61  1  0
 63 56  2  0
 64 94  1  0
 65 66  2  0
 66 85  1  0
 67 70  1  0
 67 66  1  0
 68 69  1  0
 68 65  1  0
 69 67  2  0
 70 71  1  0
 71 72  2  0
 73 76  1  0
 73 72  1  0
 74 73  2  0
 75 74  1  0
 75 70  2  0
 76 77  1  0
 77 82  2  0
 77 78  1  0
 78 79  2  0
 79 80  1  0
 80 84  1  0
 81 80  2  0
 82 81  1  0
 83 82  1  0
 85 86  1  0
 86 88  1  0
 86 89  1  0
 87 85  2  0
 90 65  1  0
 90 91  1  0
 92 90  1  0
 94 93  1  0
M  ISO  4  12 101  13 101  56 100  64 100
M  END
>  <TORSDO>  (75) 
F 23

>  <SCORE>  (75) 
-8.031

>  <name>  (75) 
75

>  <ligand_id>  (75) 
75

>  <original_smiles>  (75) 
[H]c1c([H])c([H])c2c(c1[H])C([H])([H])C([H])([H])C([H])([H])C2([H])N([H])C(=O)C1([H])N(C(=O)C([H])(N([H])C(=O)C([H])(N([H])C([H])([H])[H])C([H])([H])[H])C(C([H])([H])[H])(C([H])([H])[H])C([H])([H])[H])C([H])([H])c2c([H])c(OC([H])([H])C([H])([H])C([H])([H])c3c(C([H])([H])C([H])([H])[H])nc(C([H])([H])C([H])([H])N(C(=O)N4C([H])([H])C([H])([H])C([H])([H])C([H])(n5nc(-c6c([H])c([H])c(Oc7c([H])c([H])c(F)c([H])c7F)c([H])c6[H])c(C(=O)N([H])[H])c5N([H])[H])C4([H])[H])C([H])([H])C([H])([H])[H])c(C([H])([H])[H])c3[H])c([H])c([H])c2C1([H])[H]

>  <smiles>  (75) 
[H]c1c([H])c([H])c2c(c1[H])C([H])([H])C([H])([H])C([H])([H])C2([H])N([H])C(=O)C1([H])N(C(=O)C([H])(N([H])C(=O)C([H])(N([H])C([H])([H])[H])C([H])([H])[H])C(C([H])([H])[H])(C([H])([H])[H])C([H])([H])[H])C([H])([H])c2c([H])c(OC([H])([H])C([H])([H])C([H])([H])c3c(C([H])([H])C([H])([H])[H])nc(C([H])([H])C([H])([H])N(C(=O)N4C([H])([H])C([H])([H])C([H])([H])C([H])(n5nc(-c6c([H])c([H])c(Oc7c([H])c([H])c(F)c([H])c7F)c([H])c6[H])c(C(=O)N([H])[H])c5N([H])[H])C4([H])[H])C([H])([H])C([H])([H])[H])c(C([H])([H])[H])c3[H])c([H])c([H])c2C1([H])[H]

$$$$
76:0:0
     RDKit          3D

 98100  0  0  1  0  0  0  0  0999 V2000
  -21.0150  -23.6630   17.0680 C   0  0  0  0  0  3  0  0  0  0  0  0
  -21.3200  -24.5870   19.6100 C   0  0  0  0  0  3  0  0  0  0  0  0
  -21.4690  -25.9490   20.8750 C   0  0  0  0  0  2  0  0  0  0  0  0
  -21.7270  -27.7950   19.8710 C   0  0  0  0  0  1  0  0  0  0  0  0
  -20.9540  -25.5460   18.2990 C   0  0  0  0  0  3  0  0  0  0  0  0
  -22.2560  -23.2060   19.0630 C   0  0  0  0  0  3  0  0  0  0  0  0
  -21.3390  -25.4640   22.3340 C   0  0  0  0  0  3  0  0  0  0  0  0
  -21.2310  -28.0630   17.1560 C   0  0  0  0  0  1  0  0  0  0  0  0
  -20.6810  -24.9520   17.1130 N   0  0  0  0  0  2  0  0  0  0  0  0
  -21.7990  -22.8940   17.8360 N   0  0  0  0  0  0  0  0  0  0  0  0
  -21.2780  -27.2230   18.3320 N   0  0  0  0  0  0  0  0  0  0  0  0
  -23.5960  -22.1350   19.2510 N   0  0  0  0  0  0  0  0  0  0  0  0
  -23.8930  -22.2210   20.2220 H   0  0  0  0  0  0  0  0  0  0  0  0
  -22.8100  -29.7190   20.5290 C   0  0  0  0  0 15  0  0  0  0  0  0
  -23.8010  -29.8670   22.8090 C   0  0  0  0  0 15  0  0  0  0  0  0
  -25.3160  -28.6910   23.7090 O   0  0  0  0  0  1  0  0  0  0  0  0
  -25.7270  -31.7780   22.3990 C   0  0  0  0  0  0  0  0  0  0  0  0
  -26.4710  -27.5800   23.6800 C   0  0  0  0  0  3  0  0  0  0  0  0
  -25.3920  -29.4000   20.9280 C   0  0  0  0  0  3  0  0  0  0  0  0
  -27.1940  -27.8630   21.2830 C   0  0  0  0  0  3  0  0  0  0  0  0
  -27.5180  -30.1650   22.2220 C   0  0  0  0  0  2  0  0  0  0  0  0
  -27.6610  -28.6900   22.3360 C   0  0  0  0  0  3  0  0  0  0  0  0
  -27.7090  -28.1760   23.6290 C   0  0  0  0  0  2  0  0  0  0  0  0
  -26.6870  -26.3060   22.9530 C   0  0  0  0  0  2  0  0  0  0  0  0
  -26.9640  -26.4980   21.5760 C   0  0  0  0  0  2  0  0  0  0  0  0
  -26.4390  -28.5830   20.2110 C   0  0  0  0  0  2  0  0  0  0  0  0
  -26.1350  -30.5080   21.8960 N   0  0  0  0  0  0  0  0  0  0  0  0
  -24.7450  -32.3630   21.9070 O   0  0  0  0  0  0  0  0  0  0  0  0
  -24.3380  -28.0060   21.3680 C   0  0  0  0  0  3  0  0  0  0  0  0
  -23.5220  -27.6940   22.5760 N   0  0  0  0  0  0  0  0  0  0  0  0
  -24.6230  -26.9230   21.5820 O   0  0  0  0  0  1  0  0  0  0  0  0
  -23.5700  -26.6920   22.5720 H   0  0  0  0  0  0  0  0  0  0  0  0
  -19.2570  -27.1840   23.3280 C   0  0  0  0  0  0  0  0  0  0  0  0
  -22.3770  -28.2000   23.7680 C   0  0  0  0  0  1  0  0  0  0  0  0
  -23.4670  -26.8590   23.8990 C   0  0  0  0  0  3  0  0  0  0  0  0
  -23.0860  -25.4560   22.8190 C   0  0  0  0  0  2  0  0  0  0  0  0
  -19.6570  -25.4820   22.8790 C   0  0  0  0  0  2  0  0  0  0  0  0
  -20.3590  -28.3230   23.6350 C   0  0  0  0  0  3  0  0  0  0  0  0
  -19.7190  -29.6160   23.3880 C   0  0  0  0  0  3  0  0  0  0  0  0
  -18.3750  -29.8770   22.9780 C   0  0  0  0  0  3  0  0  0  0  0  0
  -17.4270  -28.8470   22.9200 C   0  0  0  0  0  3  0  0  0  0  0  0
  -17.8780  -27.5270   23.1200 C   0  0  0  0  0  3  0  0  0  0  0  0
  -26.3470  -32.5390   23.6750 C   0  0  0  0  0  3  0  0  0  0  0  0
  -25.6130  -33.8030   23.8130 N   0  0  0  0  0  0  0  0  0  0  0  0
  -26.0440  -34.9820   23.3510 C   0  0  0  0  0  0  0  0  0  0  0  0
  -27.1350  -35.1140   22.7920 O   0  0  0  0  0  0  0  0  0  0  0  0
  -24.6870  -33.7520   24.2110 H   0  0  0  0  0  0  0  0  0  0  0  0
  -24.2550  -36.3550   22.2490 C   0  0  0  0  0  1  0  0  0  0  0  0
  -25.1130  -36.1980   23.5150 C   0  0  0  0  0  3  0  0  0  0  0  0
  -26.5170  -37.4670   25.0780 C   0  0  0  0  0  1  0  0  0  0  0  0
  -25.8350  -37.4600   23.7870 N   0  0  0  0  0  0  0  0  0  0  0  0
  -25.1990  -38.2520   23.7600 H   0  0  0  0  0  0  0  0  0  0  0  0
  -26.3620  -31.8340   25.1220 C   0  0  1  0  0  0  0  0  0  0  0  0
  -25.0310  -31.1780   25.5740 C   0  0  0  0  0  1  0  0  0  0  0  0
  -27.4780  -30.7800   25.2480 C   0  0  0  0  0  1  0  0  0  0  0  0
  -26.6950  -32.8890   26.2170 C   0  0  0  0  0  1  0  0  0  0  0  0
  -24.8110  -21.0070   18.3930 C   0  0  0  0  0  1  0  0  0  0  0  0
  -27.5440  -20.8770   17.7240 C   0  0  0  0  0  1  0  0  0  0  0  0
  -26.6480  -19.9410   18.5400 C   0  0  0  0  0  1  0  0  0  0  0  0
  -27.6710  -18.0830   18.3020 C   0  0  0  0  0 15  0  0  0  0  0  0
  -30.2620  -15.8100   18.9260 C   0  0  0  0  0  0  0  0  0  0  0  0
  -31.3180  -13.2580   18.8060 C   0  0  0  0  0  2  0  0  0  0  0  0
  -30.5420  -12.3360   17.8040 C   0  0  0  0  0  2  0  0  0  0  0  0
  -29.1470  -11.9740   18.3520 C   0  0  0  0  0  2  0  0  0  0  0  0
  -28.5640  -13.1820   19.1090 C   0  0  0  0  0  3  0  0  0  0  0  0
  -29.4990  -13.7220   20.1780 C   0  0  0  0  0  2  0  0  0  0  0  0
  -30.4230  -14.4120   19.3410 N   0  0  0  0  0  0  0  0  0  0  0  0
  -31.4140  -16.0070   18.4150 O   0  0  0  0  0  0  0  0  0  0  0  0
  -28.7240  -17.0730   20.4660 C   0  0  0  0  0  1  0  0  0  0  0  0
  -28.9160  -16.8030   19.0340 N   0  0  0  0  0  2  0  0  0  0  0  0
  -26.4460  -13.9970   20.1430 C   0  0  0  0  0  0  0  0  0  0  0  0
  -25.3690  -13.3360   20.6370 C   0  0  0  0  0  0  0  0  0  0  0  0
  -25.6670  -11.9450   20.5020 C   0  0  0  0  0  0  0  0  0  0  0  0
  -27.3010  -13.0050   19.7170 N   0  0  0  0  0  0  0  0  0  0  0  0
  -26.8800  -11.7620   20.0150 N   0  0  0  0  0  0  0  0  0  0  0  0
  -24.8370  -10.7740   20.7300 C   0  0  0  0  0  0  0  0  0  0  0  0
  -25.1660   -9.8180   21.7140 C   0  0  0  0  0  3  0  0  0  0  0  0
  -24.3320   -8.7010   21.9170 C   0  0  0  0  0  3  0  0  0  0  0  0
  -23.1650   -8.5400   21.1340 C   0  0  0  0  0  0  0  0  0  0  0  0
  -22.8630   -9.4810   20.1360 C   0  0  0  0  0  3  0  0  0  0  0  0
  -23.6960  -10.5890   19.9300 C   0  0  0  0  0  3  0  0  0  0  0  0
  -22.3060   -7.4780   21.2450 O   0  0  0  0  0  0  0  0  0  0  0  0
  -21.9790   -6.9500   22.4670 C   0  0  0  0  0  0  0  0  0  0  0  0
  -21.3510   -7.7220   23.4680 C   0  0  0  0  0  3  0  0  0  0  0  0
  -20.9690   -7.1190   24.6830 C   0  0  0  0  0  3  0  0  0  0  0  0
  -21.2060   -5.7470   24.8940 C   0  0  0  0  0  0  0  0  0  0  0  0
  -21.8300   -4.9780   23.8960 C   0  0  0  0  0  3  0  0  0  0  0  0
  -22.2140   -5.5780   22.6840 C   0  0  0  0  0  0  0  0  0  0  0  0
  -22.7970   -4.8310   21.7170 F   0  0  0  0  0  0  0  0  0  0  0  0
  -20.8300   -5.1650   26.0550 F   0  0  0  0  0  0  0  0  0  0  0  0
  -24.0960  -13.9670   21.1030 C   0  0  0  0  0  0  0  0  0  0  0  0
  -23.4630  -13.3850   22.1140 N   0  0  0  0  0  0  0  0  0  0  0  0
  -23.6850  -15.0130   20.6020 O   0  0  0  0  0  0  0  0  0  0  0  0
  -23.8150  -12.5430   22.5440 H   0  0  0  0  0  0  0  0  0  0  0  0
  -22.6120  -13.7970   22.4700 H   0  0  0  0  0  0  0  0  0  0  0  0
  -26.7460  -15.3440   19.9970 N   0  0  0  0  0  0  0  0  0  0  0  0
  -26.1170  -16.0630   20.3340 H   0  0  0  0  0  0  0  0  0  0  0  0
  -27.6490  -15.7120   19.7230 H   0  0  0  0  0  0  0  0  0  0  0  0
  1  9  1  0
  1 10  2  0
  2  3  1  0
  5 11  1  0
  5  2  1  0
  6 12  1  0
  6  2  1  0
  7  3  1  0
  7 36  1  0
  7 37  1  0
  8 11  1  0
  9  5  1  0
 10  6  1  0
 11  4  1  0
 12 13  1  0
 18 16  1  0
 19 29  1  0
 19 27  1  0
 20 26  1  0
 20 25  1  0
 20 22  1  0
 22 21  1  0
 22 23  1  0
 23 18  1  0
 24 18  1  0
 25 24  1  0
 26 19  1  0
 27 21  1  0
 27 17  1  0
 28 17  2  0
 29 31  1  0
 29 30  1  0
 30 35  1  0
 32 30  1  0
 33 38  1  0
 35 34  1  0
 36 35  1  0
 37 33  1  0
 39 38  2  0
 40 39  1  0
 41 40  2  0
 41 42  1  0
 42 33  2  0
 43 17  1  0
 43 44  1  0
 43 53  1  0
 44 47  1  0
 45 49  1  0
 45 44  1  0
 46 45  2  0
 49 48  1  0
 49 51  1  0
 51 50  1  0
 52 51  1  0
 53 55  1  6
 53 54  1  0
 53 56  1  0
 57 12  1  0
 58 59  1  0
 61 70  1  0
 61 67  1  0
 62 67  1  0
 63 64  1  0
 63 62  1  0
 65 64  1  0
 65 74  1  0
 65 66  1  0
 67 66  1  0
 68 61  2  0
 70 69  1  0
 71 72  2  0
 72 91  1  0
 73 72  1  0
 73 76  1  0
 74 75  1  0
 74 71  1  0
 75 73  2  0
 76 77  1  0
 77 78  2  0
 79 82  1  0
 79 78  1  0
 80 79  2  0
 81 80  1  0
 81 76  2  0
 82 83  1  0
 83 88  2  0
 83 84  1  0
 84 85  2  0
 85 86  1  0
 86 90  1  0
 87 86  2  0
 88 87  1  0
 89 88  1  0
 91 92  1  0
 92 95  1  0
 92 94  1  0
 93 91  2  0
 96 71  1  0
 96 97  1  0
 98 96  1  0
M  ISO  4  15 101  16 101  61 100  70 100
M  END
>  <TORSDO>  (76) 
F 21

>  <SCORE>  (76) 
-10.366

>  <name>  (76) 
76

>  <ligand_id>  (76) 
76

>  <original_smiles>  (76) 
[H]c1nc(N([H])C([H])([H])C([H])(C([H])([H])[H])C([H])([H])N(C(=O)N2C([H])([H])C([H])([H])C([H])([H])C([H])(n3nc(-c4c([H])c([H])c(Oc5c([H])c([H])c(F)c([H])c5F)c([H])c4[H])c(C(=O)N([H])[H])c3N([H])[H])C2([H])[H])C([H])([H])[H])c2c(C([H])([H])[H])c(C([H])([H])C([H])([H])Oc3c([H])c([H])c4c(c3[H])C([H])([H])N(C(=O)C([H])(N([H])C(=O)C([H])(N([H])C([H])([H])[H])C([H])([H])[H])C(C([H])([H])[H])(C([H])([H])[H])C([H])([H])[H])C([H])(C(=O)N([H])C3([H])c5c([H])c([H])c([H])c([H])c5C([H])([H])C([H])([H])C3([H])[H])C4([H])[H])n(C([H])([H])[H])c2n1

>  <smiles>  (76) 
[H]c1nc(N([H])C([H])([H])C([H])(C([H])([H])[H])C([H])([H])N(C(=O)N2C([H])([H])C([H])([H])C([H])([H])C([H])(n3nc(-c4c([H])c([H])c(Oc5c([H])c([H])c(F)c([H])c5F)c([H])c4[H])c(C(=O)N([H])[H])c3N([H])[H])C2([H])[H])C([H])([H])[H])c2c(C([H])([H])[H])c(C([H])([H])C([H])([H])Oc3c([H])c([H])c4c(c3[H])C([H])([H])N(C(=O)C([H])(N([H])C(=O)C([H])(N([H])C([H])([H])[H])C([H])([H])[H])C(C([H])([H])[H])(C([H])([H])[H])C([H])([H])[H])C([H])(C(=O)N([H])C3([H])c5c([H])c([H])c([H])c([H])c5C([H])([H])C([H])([H])C3([H])[H])C4([H])[H])n(C([H])([H])[H])c2n1

$$$$
77:0:0
     RDKit          3D

 90 98  0  0  1  0  0  0  0  0999 V2000
  -29.6110  -19.7670   20.1200 C   0  0  0  0  0  3  0  0  0  0  0  0
  -29.0520  -20.9740   20.6680 C   0  0  0  0  0  0  0  0  0  0  0  0
  -29.6080  -18.5490   20.8890 C   0  0  0  0  0  0  0  0  0  0  0  0
  -28.5790  -19.7630   22.5680 C   0  0  0  0  0  0  0  0  0  0  0  0
  -27.9770  -19.7480   23.9560 C   0  0  0  0  0  1  0  0  0  0  0  0
  -28.5300  -20.9180   21.9060 N   0  0  0  0  0  0  0  0  0  0  0  0
  -29.0760  -18.6100   22.1240 N   0  0  0  0  0  0  0  0  0  0  0  0
  -28.7510  -22.3020   19.8660 C   0  0  0  0  0  2  0  0  0  0  0  0
  -29.0190  -23.7710   20.4720 C   0  0  0  0  0  3  0  0  0  0  0  0
  -28.1080  -24.9570   19.8890 C   0  0  0  0  0  3  0  0  0  0  0  0
  -28.3220  -26.4040   20.1990 O   0  0  0  0  0  0  0  0  0  0  0  0
  -24.6280  -31.8580   23.2010 C   0  0  0  0  0  0  0  0  0  0  0  0
  -27.2230  -27.2900   20.1180 C   0  0  0  0  0  0  0  0  0  0  0  0
  -23.4240  -30.4830   21.5440 C   0  0  0  0  0  3  0  0  0  0  0  0
  -24.8720  -28.9390   20.1070 C   0  0  0  0  0  0  0  0  0  0  0  0
  -25.9690  -30.7780   21.3800 C   0  0  0  0  0  2  0  0  0  0  0  0
  -26.0420  -29.4040   20.7210 C   0  0  0  0  0  0  0  0  0  0  0  0
  -27.2180  -28.5900   20.7210 C   0  0  0  0  0  3  0  0  0  0  0  0
  -26.0340  -26.9000   19.4570 C   0  0  0  0  0  3  0  0  0  0  0  0
  -24.8720  -27.6930   19.4650 C   0  0  0  0  0  3  0  0  0  0  0  0
  -23.6420  -29.8220   20.1580 C   0  0  0  0  0  2  0  0  0  0  0  0
  -24.6920  -31.0570   22.0980 N   0  0  0  0  0  0  0  0  0  0  0  0
  -23.5440  -32.1410   23.7310 O   0  0  0  0  0  0  0  0  0  0  0  0
  -22.7490  -29.4610   22.4910 C   0  0  0  0  0  0  0  0  0  0  0  0
  -21.4200  -29.3040   22.3650 N   0  0  0  0  0  0  0  0  0  0  0  0
  -23.4200  -28.8160   23.3000 O   0  0  0  0  0  0  0  0  0  0  0  0
  -20.9380  -29.8780   21.6880 H   0  0  0  0  0  0  0  0  0  0  0  0
  -18.0290  -28.1390   22.8470 C   0  0  0  0  0  0  0  0  0  0  0  0
  -20.5890  -28.3690   23.1270 C   0  0  0  0  0  3  0  0  0  0  0  0
  -20.6780  -26.9410   22.5410 C   0  0  0  0  0  2  0  0  0  0  0  0
  -19.5760  -26.6380   21.5210 C   0  0  0  0  0  2  0  0  0  0  0  0
  -18.1930  -26.7930   22.1620 C   0  0  0  0  0  2  0  0  0  0  0  0
  -19.1540  -28.8860   23.2870 C   0  0  0  0  0  0  0  0  0  0  0  0
  -18.9460  -30.1450   23.8890 C   0  0  0  0  0  3  0  0  0  0  0  0
  -17.6460  -30.6590   24.0560 C   0  0  0  0  0  3  0  0  0  0  0  0
  -16.5350  -29.9090   23.6330 C   0  0  0  0  0  3  0  0  0  0  0  0
  -16.7270  -28.6510   23.0350 C   0  0  0  0  0  3  0  0  0  0  0  0
  -25.9120  -32.4770   23.8350 C   0  0  0  0  0  3  0  0  0  0  0  0
  -26.4500  -31.6580   25.0730 C   0  0  1  0  0  0  0  0  0  0  0  0
  -25.3730  -31.3720   26.1450 C   0  0  0  0  0  1  0  0  0  0  0  0
  -27.0340  -30.3000   24.6200 C   0  0  0  0  0  1  0  0  0  0  0  0
  -27.6050  -32.4330   25.7500 C   0  0  0  0  0  1  0  0  0  0  0  0
  -25.5930  -33.8570   24.2270 N   0  0  0  0  0  0  0  0  0  0  0  0
  -25.9050  -34.9440   23.5090 C   0  0  0  0  0  0  0  0  0  0  0  0
  -26.5620  -34.8910   22.4660 O   0  0  0  0  0  0  0  0  0  0  0  0
  -25.0080  -33.9720   25.0420 H   0  0  0  0  0  0  0  0  0  0  0  0
  -24.1480  -36.7280   23.2630 C   0  0  0  0  0  1  0  0  0  0  0  0
  -25.4110  -36.3070   24.0320 C   0  0  0  0  0  3  0  0  0  0  0  0
  -27.5580  -37.1800   24.8460 C   0  0  0  0  0  1  0  0  0  0  0  0
  -26.4280  -37.3770   23.9410 N   0  0  0  0  0  0  0  0  0  0  0  0
  -26.0160  -38.2840   24.1440 H   0  0  0  0  0  0  0  0  0  0  0  0
  -30.2330  -17.1690   20.3960 C   0  0  0  0  0  2  0  0  0  0  0  0
  -30.6720  -14.6700   20.5520 C   0  0  0  0  0  0  0  0  0  0  0  0
  -30.4280  -12.4270   19.4710 C   0  0  0  0  0  2  0  0  0  0  0  0
  -29.5090  -12.5280   18.2340 C   0  0  0  0  0  2  0  0  0  0  0  0
  -28.0330  -12.3590   18.6380 C   0  0  0  0  0  2  0  0  0  0  0  0
  -27.6500  -13.2300   19.8630 C   0  0  0  0  0  3  0  0  0  0  0  0
  -28.6890  -13.1030   20.9950 C   0  0  0  0  0  2  0  0  0  0  0  0
  -30.0050  -13.4650   20.4430 N   0  0  0  0  0  0  0  0  0  0  0  0
  -31.7900  -14.7910   20.0400 O   0  0  0  0  0  0  0  0  0  0  0  0
  -29.7920  -15.7930   22.4930 C   0  0  0  0  0  1  0  0  0  0  0  0
  -30.0180  -15.7910   21.0410 N   0  0  0  0  0  0  0  0  0  0  0  0
  -25.2530  -13.8190   20.5700 C   0  0  0  0  0  0  0  0  0  0  0  0
  -24.1810  -13.0430   20.9190 C   0  0  0  0  0  0  0  0  0  0  0  0
  -24.6400  -11.6910   20.8730 C   0  0  0  0  0  0  0  0  0  0  0  0
  -26.2970  -12.9400   20.3310 N   0  0  0  0  0  0  0  0  0  0  0  0
  -25.9340  -11.6540   20.5740 N   0  0  0  0  0  0  0  0  0  0  0  0
  -23.9080  -10.4290   21.0390 C   0  0  0  0  0  0  0  0  0  0  0  0
  -24.3620   -9.4210   21.9170 C   0  0  0  0  0  3  0  0  0  0  0  0
  -23.6300   -8.2240   22.0750 C   0  0  0  0  0  3  0  0  0  0  0  0
  -22.4280   -8.0280   21.3540 C   0  0  0  0  0  0  0  0  0  0  0  0
  -21.9910   -9.0250   20.4640 C   0  0  0  0  0  3  0  0  0  0  0  0
  -22.7250  -10.2130   20.3050 C   0  0  0  0  0  3  0  0  0  0  0  0
  -21.6640   -6.8880   21.4240 O   0  0  0  0  0  0  0  0  0  0  0  0
  -21.6850   -6.0740   22.5280 C   0  0  0  0  0  0  0  0  0  0  0  0
  -21.4010   -6.5640   23.8210 C   0  0  0  0  0  3  0  0  0  0  0  0
  -21.3660   -5.6790   24.9170 C   0  0  0  0  0  3  0  0  0  0  0  0
  -21.6050   -4.3060   24.7220 C   0  0  0  0  0  0  0  0  0  0  0  0
  -21.8820   -3.8150   23.4350 C   0  0  0  0  0  3  0  0  0  0  0  0
  -21.9190   -4.6960   22.3400 C   0  0  0  0  0  0  0  0  0  0  0  0
  -22.1660   -4.2150   21.0980 F   0  0  0  0  0  0  0  0  0  0  0  0
  -21.5630   -3.4540   25.7740 F   0  0  0  0  0  0  0  0  0  0  0  0
  -22.7840  -13.5210   21.1860 C   0  0  0  0  0  0  0  0  0  0  0  0
  -22.0490  -12.8200   22.0420 N   0  0  0  0  0  0  0  0  0  0  0  0
  -22.3510  -14.5510   20.6710 O   0  0  0  0  0  0  0  0  0  0  0  0
  -22.4120  -11.9860   22.4800 H   0  0  0  0  0  0  0  0  0  0  0  0
  -21.1110  -13.1210   22.2630 H   0  0  0  0  0  0  0  0  0  0  0  0
  -25.4220  -15.1920   20.4160 N   0  0  0  0  0  0  0  0  0  0  0  0
  -24.6590  -15.8480   20.5410 H   0  0  0  0  0  0  0  0  0  0  0  0
  -26.2860  -15.6380   20.1340 H   0  0  0  0  0  0  0  0  0  0  0  0
  1  2  2  0
  1  3  1  0
  2  6  1  0
  3  7  2  0
  4  5  1  0
  6  4  2  0
  7  4  1  0
  8  9  1  0
  8  2  1  0
 10 11  1  0
 10  9  2  0
 12 23  2  0
 13 11  1  0
 13 18  1  0
 14 22  1  0
 14 24  1  0
 15 21  1  0
 15 17  1  0
 16 22  1  0
 17 18  2  0
 17 16  1  0
 19 20  1  0
 19 13  2  0
 20 15  2  0
 21 14  1  0
 22 12  1  0
 24 26  2  0
 25 24  1  0
 27 25  1  0
 28 37  2  0
 28 33  1  0
 29 25  1  0
 29 33  1  0
 30 29  1  0
 31 32  1  0
 31 30  1  0
 32 28  1  0
 33 34  2  0
 34 35  1  0
 36 35  2  0
 37 36  1  0
 38 12  1  0
 38 43  1  0
 38 39  1  0
 39 42  1  1
 39 40  1  0
 41 39  1  0
 43 46  1  0
 44 48  1  0
 44 43  1  0
 45 44  2  0
 48 47  1  0
 50 48  1  0
 50 51  1  0
 50 49  1  0
 52  3  1  0
 52 62  1  0
 53 62  1  0
 54 59  1  0
 55 56  1  0
 55 54  1  0
 57 56  1  0
 57 66  1  0
 57 58  1  0
 59 53  1  0
 59 58  1  0
 60 53  2  0
 62 61  1  0
 63 64  2  0
 64 83  1  0
 65 64  1  0
 65 68  1  0
 66 63  1  0
 66 67  1  0
 67 65  2  0
 68 69  1  0
 69 70  2  0
 71 74  1  0
 71 70  1  0
 72 71  2  0
 73 72  1  0
 73 68  2  0
 74 75  1  0
 75 76  1  0
 76 77  2  0
 78 77  1  0
 78 82  1  0
 79 78  2  0
 80 75  2  0
 80 79  1  0
 81 80  1  0
 83 84  1  0
 84 87  1  0
 84 86  1  0
 85 83  2  0
 88 89  1  0
 88 63  1  0
 90 88  1  0
M  ISO  4  10 101  11 101  53 100  62 100
M  END
>  <TORSDO>  (77) 
F 20

>  <SCORE>  (77) 
1.027

>  <name>  (77) 
77

>  <ligand_id>  (77) 
77

>  <original_smiles>  (77) 
[H]c1c(C([H])([H])N(C(=O)N2C([H])([H])C([H])([H])C([H])([H])C([H])(n3nc(-c4c([H])c([H])c(Oc5c([H])c([H])c(F)c([H])c5F)c([H])c4[H])c(C(=O)N([H])[H])c3N([H])[H])C2([H])[H])C([H])([H])[H])nc(C([H])([H])[H])nc1C([H])([H])C([H])([H])C([H])([H])Oc1c([H])c([H])c2c(c1[H])C([H])([H])N(C(=O)C([H])(N([H])C(=O)C([H])(N([H])C([H])([H])[H])C([H])([H])[H])C(C([H])([H])[H])(C([H])([H])[H])C([H])([H])[H])C([H])(C(=O)N([H])C1([H])c3c([H])c([H])c([H])c([H])c3C([H])([H])C([H])([H])C1([H])[H])C2([H])[H]

>  <smiles>  (77) 
[H]c1c(C([H])([H])N(C(=O)N2C([H])([H])C([H])([H])C([H])([H])C([H])(n3nc(-c4c([H])c([H])c(Oc5c([H])c([H])c(F)c([H])c5F)c([H])c4[H])c(C(=O)N([H])[H])c3N([H])[H])C2([H])[H])C([H])([H])[H])nc(C([H])([H])[H])nc1C([H])([H])C([H])([H])C([H])([H])Oc1c([H])c([H])c2c(c1[H])C([H])([H])N(C(=O)C([H])(N([H])C(=O)C([H])(N([H])C([H])([H])[H])C([H])([H])[H])C(C([H])([H])[H])(C([H])([H])[H])C([H])([H])[H])C([H])(C(=O)N([H])C1([H])c3c([H])c([H])c([H])c([H])c3C([H])([H])C([H])([H])C1([H])[H])C2([H])[H]

$$$$
78:0:0
     RDKit          3D

 98106  0  0  1  0  0  0  0  0999 V2000
  -30.5580  -20.8570   21.6240 C   0  0  0  0  0  2  0  0  0  0  0  0
  -29.8020  -20.2770   20.6410 C   0  0  0  0  0  3  0  0  0  0  0  0
  -28.9550  -22.2970   21.0690 C   0  0  0  0  0  3  0  0  0  0  0  0
  -28.9570  -21.2710   20.1790 N   0  0  0  0  0  0  0  0  0  0  0  0
  -29.9980  -22.0720   21.8780 N   0  0  0  0  0  0  0  0  0  0  0  0
  -30.2610  -22.6670   22.6590 H   0  0  0  0  0  0  0  0  0  0  0  0
  -26.5320  -22.8110   21.4050 C   0  0  0  0  0  1  0  0  0  0  0  0
  -28.1900  -24.0750   22.6820 C   0  0  0  0  0  1  0  0  0  0  0  0
  -27.9480  -23.4280   21.2970 C   0  0  1  0  0  0  0  0  0  0  0  0
  -27.9250  -24.5360   20.1920 C   0  0  0  0  0  3  0  0  0  0  0  0
  -28.9150  -25.7260   20.3210 C   0  0  0  0  0  3  0  0  0  0  0  0
  -28.6630  -26.8520   19.4640 O   0  0  0  0  0  0  0  0  0  0  0  0
  -24.6810  -31.6290   23.0140 C   0  0  0  0  0  0  0  0  0  0  0  0
  -27.4650  -27.5130   19.6120 C   0  0  0  0  0  0  0  0  0  0  0  0
  -23.5120  -30.2990   21.2860 C   0  0  0  0  0  3  0  0  0  0  0  0
  -25.0120  -28.9080   19.7600 C   0  0  0  0  0  0  0  0  0  0  0  0
  -26.0180  -30.7700   21.0890 C   0  0  0  0  0  2  0  0  0  0  0  0
  -26.1520  -29.4400   20.3750 C   0  0  0  0  0  0  0  0  0  0  0  0
  -27.3840  -28.7450   20.3070 C   0  0  0  0  0  3  0  0  0  0  0  0
  -26.3080  -27.0030   18.9870 C   0  0  0  0  0  3  0  0  0  0  0  0
  -25.0810  -27.6800   19.0790 C   0  0  0  0  0  3  0  0  0  0  0  0
  -23.7380  -29.7160   19.8640 C   0  0  0  0  0  2  0  0  0  0  0  0
  -24.7550  -30.9080   21.8570 N   0  0  0  0  0  0  0  0  0  0  0  0
  -23.5960  -31.8180   23.5810 O   0  0  0  0  0  0  0  0  0  0  0  0
  -22.9060  -29.1910   22.1810 C   0  0  0  0  0  0  0  0  0  0  0  0
  -21.5820  -28.9850   22.0750 N   0  0  0  0  0  0  0  0  0  0  0  0
  -23.6250  -28.5220   22.9310 O   0  0  0  0  0  0  0  0  0  0  0  0
  -21.0590  -29.5940   21.4620 H   0  0  0  0  0  0  0  0  0  0  0  0
  -18.2460  -27.6920   22.5800 C   0  0  0  0  0  0  0  0  0  0  0  0
  -20.8080  -27.9680   22.7870 C   0  0  0  0  0  3  0  0  0  0  0  0
  -20.9120  -26.5930   22.0870 C   0  0  0  0  0  2  0  0  0  0  0  0
  -19.7790  -26.3390   21.0900 C   0  0  0  0  0  2  0  0  0  0  0  0
  -18.4180  -26.4070   21.7880 C   0  0  0  0  0  2  0  0  0  0  0  0
  -19.3700  -28.4320   23.0380 C   0  0  0  0  0  0  0  0  0  0  0  0
  -19.1540  -29.6370   23.7410 C   0  0  0  0  0  3  0  0  0  0  0  0
  -17.8490  -30.1020   23.9940 C   0  0  0  0  0  3  0  0  0  0  0  0
  -16.7420  -29.3530   23.5560 C   0  0  0  0  0  3  0  0  0  0  0  0
  -16.9420  -28.1540   22.8520 C   0  0  0  0  0  3  0  0  0  0  0  0
  -25.9470  -32.2720   23.6640 C   0  0  0  0  0  3  0  0  0  0  0  0
  -26.4940  -31.4490   24.8960 C   0  0  1  0  0  0  0  0  0  0  0  0
  -25.4170  -31.1170   25.9570 C   0  0  0  0  0  1  0  0  0  0  0  0
  -27.1120  -30.1150   24.4190 C   0  0  0  0  0  1  0  0  0  0  0  0
  -27.6290  -32.2350   25.5920 C   0  0  0  0  0  1  0  0  0  0  0  0
  -25.5940  -33.6390   24.0710 N   0  0  0  0  0  0  0  0  0  0  0  0
  -25.8890  -34.7400   23.3670 C   0  0  0  0  0  0  0  0  0  0  0  0
  -26.5560  -34.7120   22.3290 O   0  0  0  0  0  0  0  0  0  0  0  0
  -25.0090  -33.7330   24.8870 H   0  0  0  0  0  0  0  0  0  0  0  0
  -24.1090  -36.4990   23.1110 C   0  0  0  0  0  1  0  0  0  0  0  0
  -25.3620  -36.0860   23.8990 C   0  0  0  0  0  3  0  0  0  0  0  0
  -27.4670  -36.9930   24.7790 C   0  0  0  0  0  1  0  0  0  0  0  0
  -26.3580  -37.1770   23.8440 N   0  0  0  0  0  0  0  0  0  0  0  0
  -25.9220  -38.0720   24.0440 H   0  0  0  0  0  0  0  0  0  0  0  0
  -28.1290  -21.1900   18.9490 C   0  0  0  0  0  2  0  0  0  0  0  0
  -28.2090  -20.9690   16.3670 C   0  0  0  0  0  1  0  0  0  0  0  0
  -29.0020  -21.0930   17.6800 C   0  0  0  0  0  2  0  0  0  0  0  0
  -29.8350  -18.8580   20.1510 C   0  0  0  0  0  2  0  0  0  0  0  0
  -29.2920  -17.8580   21.2070 C   0  0  0  0  0  2  0  0  0  0  0  0
  -29.0500  -16.3920   20.7460 C   0  0  0  0  0  2  0  0  0  0  0  0
  -30.8920  -14.6280   20.7800 C   0  0  0  0  0  0  0  0  0  0  0  0
  -30.7640  -12.3280   19.9130 C   0  0  0  0  0  2  0  0  0  0  0  0
  -29.9040  -12.2530   18.6350 C   0  0  0  0  0  2  0  0  0  0  0  0
  -28.3900  -12.2390   18.9270 C   0  0  0  0  0  2  0  0  0  0  0  0
  -27.9440  -13.1940   20.0690 C   0  0  0  0  0  3  0  0  0  0  0  0
  -28.9150  -13.1280   21.2650 C   0  0  0  0  0  2  0  0  0  0  0  0
  -30.2500  -13.4290   20.7460 N   0  0  0  0  0  0  0  0  0  0  0  0
  -32.1220  -14.6760   20.7670 O   0  0  0  0  0  0  0  0  0  0  0  0
  -30.2080  -15.6620   20.1870 N   0  0  0  0  0  0  0  0  0  0  0  0
  -25.5170  -13.8640   20.6070 C   0  0  0  0  0  0  0  0  0  0  0  0
  -24.4110  -13.1250   20.9130 C   0  0  0  0  0  0  0  0  0  0  0  0
  -24.8500  -11.7650   20.9670 C   0  0  0  0  0  0  0  0  0  0  0  0
  -26.5600  -12.9600   20.4780 N   0  0  0  0  0  0  0  0  0  0  0  0
  -26.1590  -11.6960   20.7620 N   0  0  0  0  0  0  0  0  0  0  0  0
  -24.1000  -10.5180   21.1430 C   0  0  0  0  0  0  0  0  0  0  0  0
  -24.4780   -9.5590   22.1080 C   0  0  0  0  0  3  0  0  0  0  0  0
  -23.7350   -8.3670   22.2590 C   0  0  0  0  0  3  0  0  0  0  0  0
  -22.5990   -8.1300   21.4500 C   0  0  0  0  0  0  0  0  0  0  0  0
  -22.2450   -9.0790   20.4730 C   0  0  0  0  0  3  0  0  0  0  0  0
  -22.9880  -10.2610   20.3190 C   0  0  0  0  0  3  0  0  0  0  0  0
  -21.8240   -6.9960   21.5160 O   0  0  0  0  0  0  0  0  0  0  0  0
  -21.7330   -6.2500   22.6640 C   0  0  0  0  0  0  0  0  0  0  0  0
  -21.2790   -6.8070   23.8800 C   0  0  0  0  0  3  0  0  0  0  0  0
  -21.1460   -5.9900   25.0220 C   0  0  0  0  0  3  0  0  0  0  0  0
  -21.4440   -4.6170   24.9450 C   0  0  0  0  0  0  0  0  0  0  0  0
  -21.8840   -4.0570   23.7320 C   0  0  0  0  0  3  0  0  0  0  0  0
  -22.0280   -4.8740   22.5950 C   0  0  0  0  0  0  0  0  0  0  0  0
  -22.4360   -4.3260   21.4260 F   0  0  0  0  0  0  0  0  0  0  0  0
  -21.3030   -3.8300   26.0380 F   0  0  0  0  0  0  0  0  0  0  0  0
  -23.0000  -13.6220   21.0620 C   0  0  0  0  0  0  0  0  0  0  0  0
  -22.2020  -12.9570   21.8830 N   0  0  0  0  0  0  0  0  0  0  0  0
  -22.6140  -14.6350   20.4780 O   0  0  0  0  0  0  0  0  0  0  0  0
  -22.5370  -12.1420   22.3780 H   0  0  0  0  0  0  0  0  0  0  0  0
  -21.2460  -13.2610   22.0150 H   0  0  0  0  0  0  0  0  0  0  0  0
  -25.7270  -15.2230   20.3980 N   0  0  0  0  0  0  0  0  0  0  0  0
  -24.9860  -15.9130   20.4080 H   0  0  0  0  0  0  0  0  0  0  0  0
  -26.6230  -15.5980   20.1250 H   0  0  0  0  0  0  0  0  0  0  0  0
  -30.4910  -16.0650   18.7900 C   0  0  0  0  0  2  0  0  0  0  0  0
  -32.7280  -15.5090   17.6980 C   0  0  0  0  0  1  0  0  0  0  0  0
  -31.9250  -16.5490   18.4910 C   0  0  0  0  0  2  0  0  0  0  0  0
  1  5  1  0
  2 56  1  0
  2  1  1  0
  3  9  1  0
  3  5  1  0
  4  2  1  0
  4  3  1  0
  5  6  1  0
  9  7  1  1
  9  8  1  0
 10 11  2  0
 10  9  1  0
 12 14  1  0
 12 11  1  0
 13 24  2  0
 14 19  1  0
 15 23  1  0
 15 25  1  0
 16 22  1  0
 16 18  1  0
 17 23  1  0
 18 17  1  0
 19 18  2  0
 20 21  1  0
 20 14  2  0
 21 16  2  0
 22 15  1  0
 23 13  1  0
 25 27  2  0
 26 25  1  0
 28 26  1  0
 29 38  2  0
 29 34  1  0
 30 26  1  0
 30 34  1  0
 31 30  1  0
 32 33  1  0
 32 31  1  0
 33 29  1  0
 34 35  2  0
 35 36  1  0
 37 36  2  0
 38 37  1  0
 39 13  1  0
 39 44  1  0
 39 40  1  0
 40 43  1  1
 40 41  1  0
 42 40  1  0
 44 47  1  0
 45 49  1  0
 45 44  1  0
 46 45  2  0
 49 48  1  0
 51 49  1  0
 51 52  1  0
 51 50  1  0
 53  4  1  0
 54 55  1  0
 55 53  1  0
 56 57  1  0
 58 57  1  0
 60 65  1  0
 61 62  1  0
 61 60  1  0
 63 62  1  0
 63 71  1  0
 63 64  1  0
 65 59  1  0
 65 64  1  0
 66 59  2  0
 67 58  1  0
 67 59  1  0
 68 69  2  0
 69 70  1  0
 69 88  1  0
 70 73  1  0
 71 68  1  0
 71 72  1  0
 72 70  2  0
 73 74  1  0
 74 75  2  0
 76 79  1  0
 76 75  1  0
 77 76  2  0
 78 77  1  0
 78 73  2  0
 79 80  1  0
 80 81  1  0
 81 82  2  0
 83 82  1  0
 83 87  1  0
 84 83  2  0
 85 80  2  0
 85 84  1  0
 86 85  1  0
 88 89  1  0
 89 92  1  0
 89 91  1  0
 90 88  2  0
 93 94  1  0
 93 68  1  0
 95 93  1  0
 96 67  1  0
 97 98  1  0
 98 96  1  0
M  ISO  4  11 101  12 101  59 100  67 100
M  END
>  <TORSDO>  (78) 
F 26

>  <SCORE>  (78) 
-10.437

>  <name>  (78) 
78

>  <ligand_id>  (78) 
78

>  <original_smiles>  (78) 
[H]c1c([H])c([H])c2c(c1[H])C([H])([H])C([H])([H])C([H])([H])C2([H])N([H])C(=O)C1([H])N(C(=O)C([H])(N([H])C(=O)C([H])(N([H])C([H])([H])[H])C([H])([H])[H])C(C([H])([H])[H])(C([H])([H])[H])C([H])([H])[H])C([H])([H])c2c([H])c(OC([H])([H])C([H])([H])C(c3n(C([H])([H])C([H])([H])C([H])([H])[H])c(C([H])([H])C([H])([H])C([H])([H])N(C(=O)N4C([H])([H])C([H])([H])C([H])([H])C([H])(n5nc(-c6c([H])c([H])c(Oc7c([H])c([H])c(F)c([H])c7F)c([H])c6[H])c(C(=O)N([H])[H])c5N([H])[H])C4([H])[H])C([H])([H])C([H])([H])C([H])([H])[H])c([H])[n+]3[H])(C([H])([H])[H])C([H])([H])[H])c([H])c([H])c2C1([H])[H]

>  <smiles>  (78) 
[H]c1c([H])c([H])c2c(c1[H])C([H])([H])C([H])([H])C([H])([H])C2([H])N([H])C(=O)C1([H])N(C(=O)C([H])(N([H])C(=O)C([H])(N([H])C([H])([H])[H])C([H])([H])[H])C(C([H])([H])[H])(C([H])([H])[H])C([H])([H])[H])C([H])([H])c2c([H])c(OC([H])([H])C([H])([H])C(c3n(C([H])([H])C([H])([H])C([H])([H])[H])c(C([H])([H])C([H])([H])C([H])([H])N(C(=O)N4C([H])([H])C([H])([H])C([H])([H])C([H])(n5nc(-c6c([H])c([H])c(Oc7c([H])c([H])c(F)c([H])c7F)c([H])c6[H])c(C(=O)N([H])[H])c5N([H])[H])C4([H])[H])C([H])([H])C([H])([H])C([H])([H])[H])c([H])[n+]3[H])(C([H])([H])[H])C([H])([H])[H])c([H])c([H])c2C1([H])[H]

$$$$
79:0:0
     RDKit          3D

 91 99  0  0  1  0  0  0  0  0999 V2000
  -27.9660  -18.8900   20.2570 C   0  0  0  0  0  3  0  0  0  0  0  0
  -28.7630  -20.0240   20.5390 C   0  0  0  0  0  0  0  0  0  0  0  0
  -30.0650  -19.6790   20.9750 C   0  0  0  0  0  0  0  0  0  0  0  0
  -29.7180  -17.3920   20.5520 C   0  0  0  0  0  0  0  0  0  0  0  0
  -31.1210  -20.7020   21.3440 C   0  0  0  0  0  1  0  0  0  0  0  0
  -28.4310  -17.6140   20.2640 N   0  0  0  0  0  0  0  0  0  0  0  0
  -30.4950  -18.3910   21.0040 N   0  0  0  0  0  0  0  0  0  0  0  0
  -31.8200  -16.7280   19.3120 C   0  0  0  0  0  1  0  0  0  0  0  0
  -29.7600  -15.9410   18.4590 C   0  0  0  0  0  1  0  0  0  0  0  0
  -30.4440  -16.1700   19.8340 C   0  0  2  0  0  0  0  0  0  0  0  0
  -30.7990  -14.7900   20.6210 C   0  0  0  0  0  0  0  0  0  0  0  0
  -30.5420  -12.4770   19.8100 C   0  0  0  0  0  2  0  0  0  0  0  0
  -29.6810  -12.3980   18.5390 C   0  0  0  0  0  2  0  0  0  0  0  0
  -28.1870  -12.3000   18.8930 C   0  0  0  0  0  2  0  0  0  0  0  0
  -27.7330  -13.2750   20.0150 C   0  0  0  0  0  3  0  0  0  0  0  0
  -28.7420  -13.3660   21.1760 C   0  0  0  0  0  2  0  0  0  0  0  0
  -30.0630  -13.6300   20.5950 N   0  0  0  0  0  0  0  0  0  0  0  0
  -31.9970  -14.6610   20.8700 O   0  0  0  0  0  0  0  0  0  0  0  0
  -25.3150  -13.8840   20.5940 C   0  0  0  0  0  0  0  0  0  0  0  0
  -24.2280  -13.1140   20.9020 C   0  0  0  0  0  0  0  0  0  0  0  0
  -24.6980  -11.7650   20.9410 C   0  0  0  0  0  0  0  0  0  0  0  0
  -26.3730  -13.0010   20.4540 N   0  0  0  0  0  0  0  0  0  0  0  0
  -26.0060  -11.7250   20.7310 N   0  0  0  0  0  0  0  0  0  0  0  0
  -23.9670  -10.5030   21.1060 C   0  0  0  0  0  0  0  0  0  0  0  0
  -24.3540   -9.5500   22.0740 C   0  0  0  0  0  3  0  0  0  0  0  0
  -23.6250   -8.3520   22.2290 C   0  0  0  0  0  3  0  0  0  0  0  0
  -22.4960   -8.0980   21.4150 C   0  0  0  0  0  0  0  0  0  0  0  0
  -22.1310   -9.0390   20.4350 C   0  0  0  0  0  3  0  0  0  0  0  0
  -22.8600  -10.2280   20.2790 C   0  0  0  0  0  3  0  0  0  0  0  0
  -21.7430   -6.9500   21.4770 O   0  0  0  0  0  0  0  0  0  0  0  0
  -21.6470   -6.2160   22.6310 C   0  0  0  0  0  0  0  0  0  0  0  0
  -21.1710   -6.7790   23.8350 C   0  0  0  0  0  3  0  0  0  0  0  0
  -21.0230   -5.9720   24.9790 C   0  0  0  0  0  3  0  0  0  0  0  0
  -21.3390   -4.6020   24.9220 C   0  0  0  0  0  0  0  0  0  0  0  0
  -21.8050   -4.0370   23.7220 C   0  0  0  0  0  3  0  0  0  0  0  0
  -21.9570   -4.8420   22.5790 C   0  0  0  0  0  0  0  0  0  0  0  0
  -22.3890   -4.2900   21.4200 F   0  0  0  0  0  0  0  0  0  0  0  0
  -21.1890   -3.8230   26.0190 F   0  0  0  0  0  0  0  0  0  0  0  0
  -22.8130  -13.5900   21.0590 C   0  0  0  0  0  0  0  0  0  0  0  0
  -22.0310  -12.9100   21.8910 N   0  0  0  0  0  0  0  0  0  0  0  0
  -22.4090  -14.5970   20.4810 O   0  0  0  0  0  0  0  0  0  0  0  0
  -22.3720  -12.0960   22.3800 H   0  0  0  0  0  0  0  0  0  0  0  0
  -21.0790  -13.2120   22.0440 H   0  0  0  0  0  0  0  0  0  0  0  0
  -25.4890  -15.2530   20.3980 N   0  0  0  0  0  0  0  0  0  0  0  0
  -24.7240  -15.9120   20.4620 H   0  0  0  0  0  0  0  0  0  0  0  0
  -26.3760  -15.6990   20.1890 H   0  0  0  0  0  0  0  0  0  0  0  0
  -28.1750  -21.4620   20.2680 C   0  0  0  0  0  3  0  0  0  0  0  0
  -28.7830  -22.7690   20.9090 C   0  0  0  0  0  3  0  0  0  0  0  0
  -27.9580  -24.1250   20.8350 C   0  0  0  0  0  2  0  0  0  0  0  0
  -28.3950  -25.2390   19.8070 C   0  0  0  0  0  2  0  0  0  0  0  0
  -28.3170  -26.6350   20.2410 O   0  0  0  0  0  0  0  0  0  0  0  0
  -24.5630  -31.9320   23.2470 C   0  0  0  0  0  0  0  0  0  0  0  0
  -27.1490  -27.3910   20.1920 C   0  0  0  0  0  0  0  0  0  0  0  0
  -23.3410  -30.5320   21.6170 C   0  0  0  0  0  3  0  0  0  0  0  0
  -24.7770  -28.9710   20.1870 C   0  0  0  0  0  0  0  0  0  0  0  0
  -25.8730  -30.8560   21.4080 C   0  0  0  0  0  2  0  0  0  0  0  0
  -25.9440  -29.4770   20.7710 C   0  0  0  0  0  0  0  0  0  0  0  0
  -27.1290  -28.6960   20.7620 C   0  0  0  0  0  3  0  0  0  0  0  0
  -25.9570  -26.9150   19.6060 C   0  0  0  0  0  3  0  0  0  0  0  0
  -24.7830  -27.6950   19.5970 C   0  0  0  0  0  3  0  0  0  0  0  0
  -23.5410  -29.8460   20.2380 C   0  0  0  0  0  2  0  0  0  0  0  0
  -24.6120  -31.1240   22.1490 N   0  0  0  0  0  0  0  0  0  0  0  0
  -23.4860  -32.2150   23.7910 O   0  0  0  0  0  0  0  0  0  0  0  0
  -22.6840  -29.5220   22.5860 C   0  0  0  0  0  0  0  0  0  0  0  0
  -21.3590  -29.3450   22.4630 N   0  0  0  0  0  0  0  0  0  0  0  0
  -23.3660  -28.8970   23.4030 O   0  0  0  0  0  0  0  0  0  0  0  0
  -20.8690  -29.8990   21.7740 H   0  0  0  0  0  0  0  0  0  0  0  0
  -17.9820  -28.1570   22.9670 C   0  0  0  0  0  0  0  0  0  0  0  0
  -20.5400  -28.4140   23.2410 C   0  0  0  0  0  3  0  0  0  0  0  0
  -20.6410  -26.9780   22.6750 C   0  0  0  0  0  2  0  0  0  0  0  0
  -19.5400  -26.6490   21.6630 C   0  0  0  0  0  2  0  0  0  0  0  0
  -18.1580  -26.8010   22.3040 C   0  0  0  0  0  2  0  0  0  0  0  0
  -19.1000  -28.9210   23.3930 C   0  0  0  0  0  0  0  0  0  0  0  0
  -18.8820  -30.1890   23.9730 C   0  0  0  0  0  3  0  0  0  0  0  0
  -17.5770  -30.6920   24.1340 C   0  0  0  0  0  3  0  0  0  0  0  0
  -16.4730  -29.9250   23.7230 C   0  0  0  0  0  3  0  0  0  0  0  0
  -16.6760  -28.6600   23.1440 C   0  0  0  0  0  3  0  0  0  0  0  0
  -25.8540  -32.5580   23.8600 C   0  0  0  0  0  3  0  0  0  0  0  0
  -25.5540  -33.9590   24.1850 N   0  0  0  0  0  0  0  0  0  0  0  0
  -25.8980  -35.0070   23.4240 C   0  0  0  0  0  0  0  0  0  0  0  0
  -26.5710  -34.8950   22.3960 O   0  0  0  0  0  0  0  0  0  0  0  0
  -24.9510  -34.1200   24.9790 H   0  0  0  0  0  0  0  0  0  0  0  0
  -24.1900  -36.8180   23.0530 C   0  0  0  0  0  1  0  0  0  0  0  0
  -25.4200  -36.4020   23.8760 C   0  0  0  0  0  3  0  0  0  0  0  0
  -27.5570  -37.2660   24.7240 C   0  0  0  0  0  1  0  0  0  0  0  0
  -26.4640  -37.4430   23.7710 N   0  0  0  0  0  0  0  0  0  0  0  0
  -26.0650  -38.3680   23.9150 H   0  0  0  0  0  0  0  0  0  0  0  0
  -26.3700  -31.7890   25.1380 C   0  0  1  0  0  0  0  0  0  0  0  0
  -25.2810  -31.5670   26.2140 C   0  0  0  0  0  1  0  0  0  0  0  0
  -26.9420  -30.4050   24.7510 C   0  0  0  0  0  1  0  0  0  0  0  0
  -27.5290  -32.5800   25.7920 C   0  0  0  0  0  1  0  0  0  0  0  0
  1  6  1  0
  1  2  2  0
  2  3  1  0
  3  7  2  0
  3  5  1  0
  4  7  1  0
  6  4  2  0
 10  8  1  6
  9 10  1  0
 10  4  1  0
 10 11  1  0
 11 18  2  0
 12 17  1  0
 13 14  1  0
 13 12  1  0
 15 14  1  0
 15 22  1  0
 15 16  1  0
 17 11  1  0
 17 16  1  0
 19 20  2  0
 20 21  1  0
 20 39  1  0
 21 24  1  0
 22 19  1  0
 22 23  1  0
 23 21  2  0
 24 25  1  0
 25 26  2  0
 27 30  1  0
 27 26  1  0
 28 27  2  0
 29 28  1  0
 29 24  2  0
 30 31  1  0
 31 32  1  0
 32 33  2  0
 34 33  1  0
 34 38  1  0
 35 34  2  0
 36 31  2  0
 36 35  1  0
 37 36  1  0
 39 40  1  0
 40 43  1  0
 40 42  1  0
 41 39  2  0
 44 45  1  0
 44 19  1  0
 46 44  1  0
 47  2  1  0
 47 48  2  0
 49 48  1  0
 50 51  1  0
 50 49  1  0
 52 63  2  0
 53 51  1  0
 53 58  1  0
 54 62  1  0
 54 64  1  0
 55 61  1  0
 55 57  1  0
 56 62  1  0
 57 56  1  0
 58 57  2  0
 59 53  2  0
 60 59  1  0
 60 55  2  0
 61 54  1  0
 62 52  1  0
 64 66  2  0
 65 64  1  0
 67 65  1  0
 68 77  2  0
 68 73  1  0
 69 65  1  0
 69 73  1  0
 70 69  1  0
 71 72  1  0
 71 70  1  0
 72 68  1  0
 73 74  2  0
 74 75  1  0
 76 75  2  0
 77 76  1  0
 78 52  1  0
 78 79  1  0
 78 88  1  0
 79 82  1  0
 80 84  1  0
 80 79  1  0
 81 80  2  0
 84 83  1  0
 86 84  1  0
 86 87  1  0
 86 85  1  0
 88 91  1  1
 88 89  1  0
 90 88  1  0
M  ISO  4  10 100  11 100  50 101  51 101
M  END
>  <TORSDO>  (79) 
F 21

>  <SCORE>  (79) 
-13.258

>  <name>  (79) 
79

>  <ligand_id>  (79) 
79

>  <original_smiles>  (79) 
[H]c1nc(C(C(=O)N2C([H])([H])C([H])([H])C([H])([H])C([H])(n3nc(-c4c([H])c([H])c(Oc5c([H])c([H])c(F)c([H])c5F)c([H])c4[H])c(C(=O)N([H])[H])c3N([H])[H])C2([H])[H])(C([H])([H])[H])C([H])([H])[H])nc(C([H])([H])[H])c1C([H])([H])C([H])([H])C([H])([H])C([H])([H])Oc1c([H])c([H])c2c(c1[H])C([H])([H])N(C(=O)C([H])(N([H])C(=O)C([H])(N([H])C([H])([H])[H])C([H])([H])[H])C(C([H])([H])[H])(C([H])([H])[H])C([H])([H])[H])C([H])(C(=O)N([H])C1([H])c3c([H])c([H])c([H])c([H])c3C([H])([H])C([H])([H])C1([H])[H])C2([H])[H]

>  <smiles>  (79) 
[H]c1nc(C(C(=O)N2C([H])([H])C([H])([H])C([H])([H])C([H])(n3nc(-c4c([H])c([H])c(Oc5c([H])c([H])c(F)c([H])c5F)c([H])c4[H])c(C(=O)N([H])[H])c3N([H])[H])C2([H])[H])(C([H])([H])[H])C([H])([H])[H])nc(C([H])([H])[H])c1C([H])([H])C([H])([H])C([H])([H])C([H])([H])Oc1c([H])c([H])c2c(c1[H])C([H])([H])N(C(=O)C([H])(N([H])C(=O)C([H])(N([H])C([H])([H])[H])C([H])([H])[H])C(C([H])([H])[H])(C([H])([H])[H])C([H])([H])[H])C([H])(C(=O)N([H])C1([H])c3c([H])c([H])c([H])c([H])c3C([H])([H])C([H])([H])C1([H])[H])C2([H])[H]

$$$$
80:0:0
     RDKit          3D

 94102  0  0  1  0  0  0  0  0999 V2000
  -32.5350  -19.6820   22.0400 C   0  0  0  0  0  3  0  0  0  0  0  0
  -30.6620  -20.3820   21.1360 C   0  0  0  0  0  3  0  0  0  0  0  0
  -31.1210  -19.4980   22.0760 C   0  0  0  0  0  0  0  0  0  0  0  0
  -32.9080  -20.5850   21.1410 N   0  0  0  0  0  0  0  0  0  0  0  0
  -31.7550  -20.9990   20.5640 N   0  0  0  0  0  0  0  0  0  0  0  0
  -31.7950  -21.8960   19.4130 C   0  0  0  0  0  2  0  0  0  0  0  0
  -31.6620  -23.4030   19.7360 C   0  0  0  0  0  2  0  0  0  0  0  0
  -30.2310  -23.9730   19.5910 C   0  0  0  0  0  2  0  0  0  0  0  0
  -30.2130  -25.4280   19.0720 C   0  0  0  0  0  2  0  0  0  0  0  0
  -28.8020  -26.0350   18.9650 C   0  0  0  0  0  2  0  0  0  0  0  0
  -28.5030  -26.8380   20.1120 O   0  0  0  0  0  0  0  0  0  0  0  0
  -24.5230  -31.8720   23.2060 C   0  0  0  0  0  0  0  0  0  0  0  0
  -27.3000  -27.5150   20.1110 C   0  0  0  0  0  0  0  0  0  0  0  0
  -23.3670  -30.4680   21.5300 C   0  0  0  0  0  3  0  0  0  0  0  0
  -24.8700  -28.9680   20.1200 C   0  0  0  0  0  0  0  0  0  0  0  0
  -25.8900  -30.8660   21.3860 C   0  0  0  0  0  2  0  0  0  0  0  0
  -26.0070  -29.5020   20.7380 C   0  0  0  0  0  0  0  0  0  0  0  0
  -27.2170  -28.7730   20.7480 C   0  0  0  0  0  3  0  0  0  0  0  0
  -26.1350  -26.9880   19.5030 C   0  0  0  0  0  3  0  0  0  0  0  0
  -24.9270  -27.7060   19.5070 C   0  0  0  0  0  3  0  0  0  0  0  0
  -23.6110  -29.8030   20.1490 C   0  0  0  0  0  2  0  0  0  0  0  0
  -24.6110  -31.0830   22.0990 N   0  0  0  0  0  0  0  0  0  0  0  0
  -23.4290  -32.1240   23.7280 O   0  0  0  0  0  0  0  0  0  0  0  0
  -22.7160  -29.4270   22.4680 C   0  0  0  0  0  0  0  0  0  0  0  0
  -21.3990  -29.2230   22.3110 N   0  0  0  0  0  0  0  0  0  0  0  0
  -23.3930  -28.8070   23.2930 O   0  0  0  0  0  0  0  0  0  0  0  0
  -20.9130  -29.7780   21.6210 H   0  0  0  0  0  0  0  0  0  0  0  0
  -18.0370  -27.9680   22.7240 C   0  0  0  0  0  0  0  0  0  0  0  0
  -20.5830  -28.2630   23.0540 C   0  0  0  0  0  3  0  0  0  0  0  0
  -20.7220  -26.8390   22.4660 C   0  0  0  0  0  2  0  0  0  0  0  0
  -19.6460  -26.5090   21.4260 C   0  0  0  0  0  2  0  0  0  0  0  0
  -18.2490  -26.6270   22.0410 C   0  0  0  0  0  2  0  0  0  0  0  0
  -19.1330  -28.7430   23.1850 C   0  0  0  0  0  0  0  0  0  0  0  0
  -18.8810  -30.0000   23.7790 C   0  0  0  0  0  3  0  0  0  0  0  0
  -17.5650  -30.4790   23.9190 C   0  0  0  0  0  3  0  0  0  0  0  0
  -16.4830  -29.6990   23.4770 C   0  0  0  0  0  3  0  0  0  0  0  0
  -16.7190  -28.4460   22.8840 C   0  0  0  0  0  3  0  0  0  0  0  0
  -25.7900  -32.5160   23.8550 C   0  0  0  0  0  3  0  0  0  0  0  0
  -26.2830  -31.7520   25.1440 C   0  0  1  0  0  0  0  0  0  0  0  0
  -25.1660  -31.5050   26.1850 C   0  0  0  0  0  1  0  0  0  0  0  0
  -26.8900  -30.3800   24.7690 C   0  0  0  0  0  1  0  0  0  0  0  0
  -27.4100  -32.5600   25.8320 C   0  0  0  0  0  1  0  0  0  0  0  0
  -25.4630  -33.9130   24.1700 N   0  0  0  0  0  0  0  0  0  0  0  0
  -25.8140  -34.9630   23.4160 C   0  0  0  0  0  0  0  0  0  0  0  0
  -26.5180  -34.8590   22.4070 O   0  0  0  0  0  0  0  0  0  0  0  0
  -24.8450  -34.0680   24.9520 H   0  0  0  0  0  0  0  0  0  0  0  0
  -24.0920  -36.7450   22.9890 C   0  0  0  0  0  1  0  0  0  0  0  0
  -25.3040  -36.3500   23.8510 C   0  0  0  0  0  3  0  0  0  0  0  0
  -27.4010  -37.2440   24.7600 C   0  0  0  0  0  1  0  0  0  0  0  0
  -26.3340  -37.4080   23.7760 N   0  0  0  0  0  0  0  0  0  0  0  0
  -25.9190  -38.3260   23.9090 H   0  0  0  0  0  0  0  0  0  0  0  0
  -30.3100  -18.5490   22.9380 C   0  0  0  0  0  2  0  0  0  0  0  0
  -30.7590  -17.0610   22.8910 C   0  0  0  0  0  2  0  0  0  0  0  0
  -31.1090  -16.4490   21.5070 C   0  0  0  0  0  2  0  0  0  0  0  0
  -30.5700  -14.5350   20.1120 C   0  0  0  0  0  0  0  0  0  0  0  0
  -30.1430  -12.4210   18.9070 C   0  0  0  0  0  2  0  0  0  0  0  0
  -29.1350  -12.6530   17.7690 C   0  0  0  0  0  2  0  0  0  0  0  0
  -27.6940  -12.4800   18.2850 C   0  0  0  0  0  2  0  0  0  0  0  0
  -27.4250  -13.2850   19.5810 C   0  0  0  0  0  3  0  0  0  0  0  0
  -28.5550  -13.0570   20.6190 C   0  0  0  0  0  2  0  0  0  0  0  0
  -29.8380  -13.3890   19.9780 N   0  0  0  0  0  0  0  0  0  0  0  0
  -31.6580  -14.6640   19.5370 O   0  0  0  0  0  0  0  0  0  0  0  0
  -30.1010  -15.5430   20.9050 N   0  0  0  0  0  0  0  0  0  0  0  0
  -25.0690  -13.8800   20.4330 C   0  0  0  0  0  0  0  0  0  0  0  0
  -24.0310  -13.0930   20.8520 C   0  0  0  0  0  0  0  0  0  0  0  0
  -24.5040  -11.7480   20.7810 C   0  0  0  0  0  0  0  0  0  0  0  0
  -26.1070  -13.0070   20.1380 N   0  0  0  0  0  0  0  0  0  0  0  0
  -25.7730  -11.7230   20.4020 N   0  0  0  0  0  0  0  0  0  0  0  0
  -23.8040  -10.4760   20.9890 C   0  0  0  0  0  0  0  0  0  0  0  0
  -24.2790   -9.5090   21.9010 C   0  0  0  0  0  3  0  0  0  0  0  0
  -23.5700   -8.3030   22.0960 C   0  0  0  0  0  3  0  0  0  0  0  0
  -22.3780   -8.0550   21.3760 C   0  0  0  0  0  0  0  0  0  0  0  0
  -21.9240   -9.0140   20.4550 C   0  0  0  0  0  3  0  0  0  0  0  0
  -22.6290  -10.2110   20.2590 C   0  0  0  0  0  3  0  0  0  0  0  0
  -21.6390   -6.9000   21.4800 O   0  0  0  0  0  0  0  0  0  0  0  0
  -21.6190   -6.1620   22.6380 C   0  0  0  0  0  0  0  0  0  0  0  0
  -21.2100   -6.7170   23.8700 C   0  0  0  0  0  3  0  0  0  0  0  0
  -21.1410   -5.9040   25.0190 C   0  0  0  0  0  3  0  0  0  0  0  0
  -21.4690   -4.5380   24.9360 C   0  0  0  0  0  0  0  0  0  0  0  0
  -21.8650   -3.9820   23.7070 C   0  0  0  0  0  3  0  0  0  0  0  0
  -21.9360   -4.7920   22.5610 C   0  0  0  0  0  0  0  0  0  0  0  0
  -22.3000   -4.2470   21.3740 F   0  0  0  0  0  0  0  0  0  0  0  0
  -21.3980   -3.7530   26.0370 F   0  0  0  0  0  0  0  0  0  0  0  0
  -22.6430  -13.5510   21.2020 C   0  0  0  0  0  0  0  0  0  0  0  0
  -21.9660  -12.8380   22.0980 N   0  0  0  0  0  0  0  0  0  0  0  0
  -22.1700  -14.5750   20.7150 O   0  0  0  0  0  0  0  0  0  0  0  0
  -22.3580  -12.0070   22.5150 H   0  0  0  0  0  0  0  0  0  0  0  0
  -21.0420  -13.1380   22.3720 H   0  0  0  0  0  0  0  0  0  0  0  0
  -25.2050  -15.2540   20.2570 N   0  0  0  0  0  0  0  0  0  0  0  0
  -24.4220  -15.8850   20.3990 H   0  0  0  0  0  0  0  0  0  0  0  0
  -26.0400  -15.7140   19.9230 H   0  0  0  0  0  0  0  0  0  0  0  0
  -28.8640  -16.2750   20.5500 C   0  0  0  0  0  2  0  0  0  0  0  0
  -28.7840  -16.7360   19.0770 C   0  0  0  0  0  2  0  0  0  0  0  0
  -29.8170  -17.5220   18.7790 F   0  0  0  0  0  0  0  0  0  0  0  0
  1  3  1  0
  2  3  2  0
  3 52  1  0
  4  1  2  0
  5  2  1  0
  5  4  1  0
  6  7  1  0
  6  5  1  0
  8  7  1  0
  9  8  1  0
 10  9  1  0
 10 11  1  0
 12 23  2  0
 13 11  1  0
 13 18  1  0
 14 22  1  0
 14 24  1  0
 15 21  1  0
 15 17  1  0
 16 22  1  0
 17 18  2  0
 17 16  1  0
 19 20  1  0
 19 13  2  0
 20 15  2  0
 21 14  1  0
 22 12  1  0
 24 26  2  0
 25 24  1  0
 27 25  1  0
 28 37  2  0
 28 33  1  0
 29 25  1  0
 29 33  1  0
 30 29  1  0
 31 32  1  0
 31 30  1  0
 32 28  1  0
 33 34  2  0
 34 35  1  0
 36 35  2  0
 37 36  1  0
 38 12  1  0
 38 43  1  0
 38 39  1  0
 39 42  1  1
 39 40  1  0
 41 39  1  0
 43 46  1  0
 44 48  1  0
 44 43  1  0
 45 44  2  0
 48 47  1  0
 50 48  1  0
 50 51  1  0
 50 49  1  0
 53 52  1  0
 54 53  1  0
 55 63  1  0
 56 61  1  0
 57 58  1  0
 57 56  1  0
 59 58  1  0
 59 67  1  0
 59 60  1  0
 61 55  1  0
 61 60  1  0
 62 55  2  0
 63 54  1  0
 64 65  2  0
 65 84  1  0
 66 65  1  0
 66 69  1  0
 67 68  1  0
 67 64  1  0
 68 66  2  0
 69 70  1  0
 70 71  2  0
 72 75  1  0
 72 71  1  0
 73 72  2  0
 74 73  1  0
 74 69  2  0
 75 76  1  0
 76 77  1  0
 77 78  2  0
 79 78  1  0
 79 83  1  0
 80 79  2  0
 81 76  2  0
 81 80  1  0
 82 81  1  0
 84 85  1  0
 85 88  1  0
 85 87  1  0
 86 84  2  0
 89 90  1  0
 89 64  1  0
 91 89  1  0
 92 63  1  0
 93 92  1  0
 94 93  1  0
M  ISO  4  10 101  11 101  55 100  63 100
M  END
>  <TORSDO>  (80) 
F 26

>  <SCORE>  (80) 
-11.276

>  <name>  (80) 
80

>  <ligand_id>  (80) 
80

>  <original_smiles>  (80) 
[H]c1nn(C([H])([H])C([H])([H])C([H])([H])C([H])([H])C([H])([H])Oc2c([H])c([H])c3c(c2[H])C([H])([H])N(C(=O)C([H])(N([H])C(=O)C([H])(N([H])C([H])([H])[H])C([H])([H])[H])C(C([H])([H])[H])(C([H])([H])[H])C([H])([H])[H])C([H])(C(=O)N([H])C2([H])c4c([H])c([H])c([H])c([H])c4C([H])([H])C([H])([H])C2([H])[H])C3([H])[H])c([H])c1C([H])([H])C([H])([H])C([H])([H])N(C(=O)N1C([H])([H])C([H])([H])C([H])([H])C([H])(n2nc(-c3c([H])c([H])c(Oc4c([H])c([H])c(F)c([H])c4F)c([H])c3[H])c(C(=O)N([H])[H])c2N([H])[H])C1([H])[H])C([H])([H])C([H])([H])F

>  <smiles>  (80) 
[H]c1nn(C([H])([H])C([H])([H])C([H])([H])C([H])([H])C([H])([H])Oc2c([H])c([H])c3c(c2[H])C([H])([H])N(C(=O)C([H])(N([H])C(=O)C([H])(N([H])C([H])([H])[H])C([H])([H])[H])C(C([H])([H])[H])(C([H])([H])[H])C([H])([H])[H])C([H])(C(=O)N([H])C2([H])c4c([H])c([H])c([H])c([H])c4C([H])([H])C([H])([H])C2([H])[H])C3([H])[H])c([H])c1C([H])([H])C([H])([H])C([H])([H])N(C(=O)N1C([H])([H])C([H])([H])C([H])([H])C([H])(n2nc(-c3c([H])c([H])c(Oc4c([H])c([H])c(F)c([H])c4F)c([H])c3[H])c(C(=O)N([H])[H])c2N([H])[H])C1([H])[H])C([H])([H])C([H])([H])F

$$$$
81:0:0
     RDKit          3D

 96104  0  0  1  0  0  0  0  0999 V2000
  -28.3570  -22.4780   20.7370 C   0  0  0  0  0  3  0  0  0  0  0  0
  -29.0740  -23.6540   20.3700 C   0  0  0  0  0  0  0  0  0  0  0  0
  -29.2730  -21.4630   20.6230 C   0  0  0  0  0  0  0  0  0  0  0  0
  -31.7410  -21.4540   19.8790 C   0  0  0  0  0  1  0  0  0  0  0  0
  -30.2940  -23.3670   19.9510 N   0  0  0  0  0  0  0  0  0  0  0  0
  -30.4330  -22.0380   20.1210 N   0  0  0  0  0  0  0  0  0  0  0  0
  -28.6960  -25.0970   20.6020 C   0  0  0  0  0  2  0  0  0  0  0  0
  -28.7910  -26.0110   19.3640 C   0  0  0  0  0  2  0  0  0  0  0  0
  -28.7770  -27.3800   19.7720 O   0  0  0  0  0  0  0  0  0  0  0  0
  -25.0730  -31.9330   23.7650 C   0  0  0  0  0  0  0  0  0  0  0  0
  -27.5710  -28.0150   19.9590 C   0  0  0  0  0  0  0  0  0  0  0  0
  -23.7810  -30.7450   22.0190 C   0  0  0  0  0  3  0  0  0  0  0  0
  -25.1580  -29.4340   20.3240 C   0  0  0  0  0  0  0  0  0  0  0  0
  -26.2830  -31.1820   21.7160 C   0  0  0  0  0  2  0  0  0  0  0  0
  -26.3440  -29.9040   20.9080 C   0  0  0  0  0  0  0  0  0  0  0  0
  -27.5500  -29.2020   20.7210 C   0  0  0  0  0  3  0  0  0  0  0  0
  -26.3690  -27.5470   19.3820 C   0  0  0  0  0  3  0  0  0  0  0  0
  -25.1660  -28.2520   19.5640 C   0  0  0  0  0  3  0  0  0  0  0  0
  -23.9120  -30.2560   20.5510 C   0  0  0  0  0  2  0  0  0  0  0  0
  -25.0690  -31.2950   22.5600 N   0  0  0  0  0  0  0  0  0  0  0  0
  -24.0230  -32.1170   24.3980 O   0  0  0  0  0  0  0  0  0  0  0  0
  -23.2000  -29.5940   22.8700 C   0  0  0  0  0  0  0  0  0  0  0  0
  -21.9430  -29.2220   22.5840 N   0  0  0  0  0  0  0  0  0  0  0  0
  -23.8850  -29.0360   23.7310 O   0  0  0  0  0  0  0  0  0  0  0  0
  -21.4510  -29.7410   21.8740 H   0  0  0  0  0  0  0  0  0  0  0  0
  -18.8340  -27.3830   22.5040 C   0  0  0  0  0  0  0  0  0  0  0  0
  -21.2000  -28.1380   23.2250 C   0  0  0  0  0  3  0  0  0  0  0  0
  -21.6810  -26.7570   22.7250 C   0  0  0  0  0  2  0  0  0  0  0  0
  -20.8660  -26.2300   21.5380 C   0  0  0  0  0  2  0  0  0  0  0  0
  -19.3880  -26.0980   21.9150 C   0  0  0  0  0  2  0  0  0  0  0  0
  -19.6880  -28.3480   23.1030 C   0  0  0  0  0  0  0  0  0  0  0  0
  -19.1290  -29.5420   23.6050 C   0  0  0  0  0  3  0  0  0  0  0  0
  -17.7450  -29.7790   23.5180 C   0  0  0  0  0  3  0  0  0  0  0  0
  -16.9010  -28.8140   22.9390 C   0  0  0  0  0  3  0  0  0  0  0  0
  -17.4460  -27.6190   22.4350 C   0  0  0  0  0  3  0  0  0  0  0  0
  -26.3900  -32.4920   24.3900 C   0  0  0  0  0  3  0  0  0  0  0  0
  -26.9520  -31.5970   25.5610 C   0  0  1  0  0  0  0  0  0  0  0  0
  -25.8780  -31.1580   26.5820 C   0  0  0  0  0  1  0  0  0  0  0  0
  -27.6180  -30.3240   24.9870 C   0  0  0  0  0  1  0  0  0  0  0  0
  -28.0440  -32.3740   26.3340 C   0  0  0  0  0  1  0  0  0  0  0  0
  -26.1170  -33.8570   24.8610 N   0  0  0  0  0  0  0  0  0  0  0  0
  -26.4100  -34.9680   24.1710 C   0  0  0  0  0  0  0  0  0  0  0  0
  -27.0130  -34.9500   23.0950 O   0  0  0  0  0  0  0  0  0  0  0  0
  -25.5850  -33.9490   25.7140 H   0  0  0  0  0  0  0  0  0  0  0  0
  -24.6520  -36.7610   24.1010 C   0  0  0  0  0  1  0  0  0  0  0  0
  -25.9590  -36.3130   24.7730 C   0  0  0  0  0  3  0  0  0  0  0  0
  -28.1650  -37.1380   25.4630 C   0  0  0  0  0  1  0  0  0  0  0  0
  -26.9760  -37.3810   24.6520 N   0  0  0  0  0  0  0  0  0  0  0  0
  -26.5850  -38.2780   24.9250 H   0  0  0  0  0  0  0  0  0  0  0  0
  -29.1840  -20.0350   21.1000 C   0  0  0  0  0  2  0  0  0  0  0  0
  -27.9880  -17.9560   20.6880 C   0  0  0  0  0  1  0  0  0  0  0  0
  -28.8280  -19.0180   20.0730 N   0  0  2  0  0  4  0  0  0  0  0  0
  -28.2490  -19.4980   19.3970 H   0  0  0  0  0  0  0  0  0  0  0  0
  -30.0200  -18.4660   19.3630 C   0  0  0  0  0  2  0  0  0  0  0  0
  -29.8450  -17.0410   18.7830 C   0  0  0  0  0  2  0  0  0  0  0  0
  -31.1580  -16.2220   18.6940 C   0  0  0  0  0  2  0  0  0  0  0  0
  -32.4660  -14.7140   20.0320 C   0  0  0  0  0  0  0  0  0  0  0  0
  -32.3620  -12.2990   20.4880 C   0  0  0  0  0  2  0  0  0  0  0  0
  -31.5940  -11.5890   19.3580 C   0  0  0  0  0  2  0  0  0  0  0  0
  -30.0900  -11.5650   19.6750 C   0  0  0  0  0  2  0  0  0  0  0  0
  -29.5420  -12.9630   20.0660 C   0  0  0  0  0  3  0  0  0  0  0  0
  -30.4450  -13.6470   21.1210 C   0  0  0  0  0  2  0  0  0  0  0  0
  -31.8260  -13.6630   20.6100 N   0  0  0  0  0  0  0  0  0  0  0  0
  -33.5890  -14.6180   19.5290 O   0  0  0  0  0  0  0  0  0  0  0  0
  -31.8060  -15.8940   19.9890 N   0  0  0  0  0  0  0  0  0  0  0  0
  -27.2520  -13.9020   20.7640 C   0  0  0  0  0  0  0  0  0  0  0  0
  -26.0700  -13.2890   21.0840 C   0  0  0  0  0  0  0  0  0  0  0  0
  -26.3210  -11.8840   21.0030 C   0  0  0  0  0  0  0  0  0  0  0  0
  -28.1530  -12.8810   20.5140 N   0  0  0  0  0  0  0  0  0  0  0  0
  -27.5960  -11.6610   20.7140 N   0  0  0  0  0  0  0  0  0  0  0  0
  -25.4110  -10.7400   21.1280 C   0  0  0  0  0  0  0  0  0  0  0  0
  -25.6020   -9.7490   22.1180 C   0  0  0  0  0  3  0  0  0  0  0  0
  -24.7000   -8.6660   22.2310 C   0  0  0  0  0  3  0  0  0  0  0  0
  -23.5950   -8.5680   21.3540 C   0  0  0  0  0  0  0  0  0  0  0  0
  -23.4230   -9.5430   20.3560 C   0  0  0  0  0  3  0  0  0  0  0  0
  -24.3230  -10.6170   20.2400 C   0  0  0  0  0  3  0  0  0  0  0  0
  -22.6840   -7.5390   21.3750 O   0  0  0  0  0  0  0  0  0  0  0  0
  -22.3000   -6.9400   22.5470 C   0  0  0  0  0  0  0  0  0  0  0  0
  -21.7050   -7.6720   23.5990 C   0  0  0  0  0  3  0  0  0  0  0  0
  -21.2620   -7.0050   24.7590 C   0  0  0  0  0  3  0  0  0  0  0  0
  -21.4030   -5.6070   24.8660 C   0  0  0  0  0  0  0  0  0  0  0  0
  -21.9900   -4.8770   23.8180 C   0  0  0  0  0  3  0  0  0  0  0  0
  -22.4350   -5.5420   22.6620 C   0  0  0  0  0  0  0  0  0  0  0  0
  -22.9800   -4.8300   21.6450 F   0  0  0  0  0  0  0  0  0  0  0  0
  -20.9730   -4.9630   25.9760 F   0  0  0  0  0  0  0  0  0  0  0  0
  -24.7530  -13.9580   21.3540 C   0  0  0  0  0  0  0  0  0  0  0  0
  -23.9430  -13.3760   22.2300 N   0  0  0  0  0  0  0  0  0  0  0  0
  -24.4600  -15.0290   20.8260 O   0  0  0  0  0  0  0  0  0  0  0  0
  -24.1910  -12.5030   22.6720 H   0  0  0  0  0  0  0  0  0  0  0  0
  -23.0580  -13.8050   22.4560 H   0  0  0  0  0  0  0  0  0  0  0  0
  -27.6390  -15.2340   20.6440 N   0  0  0  0  0  0  0  0  0  0  0  0
  -27.0010  -16.0100   20.7810 H   0  0  0  0  0  0  0  0  0  0  0  0
  -28.5520  -15.5180   20.3150 H   0  0  0  0  0  0  0  0  0  0  0  0
  -32.4650  -17.0120   20.6970 C   0  0  0  0  0  2  0  0  0  0  0  0
  -34.0040  -19.0840   20.5130 C   0  0  0  0  0  1  0  0  0  0  0  0
  -33.1850  -18.0210   19.7670 C   0  0  0  0  0  2  0  0  0  0  0  0
  2  7  1  0
  2  1  1  0
  3  1  2  0
  3 50  1  0
  4  6  1  0
  5  6  1  0
  5  2  2  0
  6  3  1  0
  8  9  1  0
  8  7  1  0
  9 11  1  0
 10 21  2  0
 11 16  1  0
 12 20  1  0
 12 22  1  0
 13 19  1  0
 13 15  1  0
 14 20  1  0
 15 14  1  0
 16 15  2  0
 17 18  1  0
 17 11  2  0
 18 13  2  0
 19 12  1  0
 20 10  1  0
 22 24  2  0
 23 22  1  0
 25 23  1  0
 26 31  1  0
 27 23  1  0
 28 27  1  0
 29 30  1  0
 29 28  1  0
 30 26  1  0
 31 27  1  0
 31 32  2  0
 33 32  1  0
 34 33  2  0
 35 26  2  0
 35 34  1  0
 36 10  1  0
 36 41  1  0
 36 37  1  0
 37 40  1  1
 37 38  1  0
 39 37  1  0
 41 44  1  0
 42 46  1  0
 42 41  1  0
 43 42  2  0
 46 45  1  0
 48 46  1  0
 48 49  1  0
 48 47  1  0
 52 51  1  0
 52 50  1  0
 52 53  1  6
 54 52  1  0
 55 54  1  0
 56 55  1  0
 56 65  1  0
 57 63  1  0
 58 63  1  0
 59 60  1  0
 59 58  1  0
 61 60  1  0
 61 69  1  0
 61 62  1  0
 63 62  1  0
 64 57  2  0
 65 57  1  0
 65 94  1  0
 66 67  2  0
 67 86  1  0
 68 67  1  0
 68 71  1  0
 69 70  1  0
 69 66  1  0
 70 68  2  0
 71 72  1  0
 72 73  2  0
 74 77  1  0
 74 73  1  0
 75 74  2  0
 76 75  1  0
 76 71  2  0
 77 78  1  0
 78 83  2  0
 78 79  1  0
 79 80  2  0
 80 81  1  0
 81 85  1  0
 82 81  2  0
 83 82  1  0
 84 83  1  0
 86 87  1  0
 87 90  1  0
 87 89  1  0
 88 86  2  0
 91 66  1  0
 91 92  1  0
 93 91  1  0
 96 95  1  0
 96 94  1  0
M  ISO  4   8 101   9 101  57 100  65 100
M  END
>  <TORSDO>  (81) 
F 25

>  <SCORE>  (81) 
-9.088

>  <name>  (81) 
81

>  <ligand_id>  (81) 
81

>  <original_smiles>  (81) 
[H]c1c([H])c([H])c2c(c1[H])C([H])([H])C([H])([H])C([H])([H])C2([H])N([H])C(=O)C1([H])N(C(=O)C([H])(N([H])C(=O)C([H])(N([H])C([H])([H])[H])C([H])([H])[H])C(C([H])([H])[H])(C([H])([H])[H])C([H])([H])[H])C([H])([H])c2c([H])c(OC([H])([H])C([H])([H])c3nn(C([H])([H])[H])c(C([H])([H])[N+]([H])(C([H])([H])[H])C([H])([H])C([H])([H])C([H])([H])N(C(=O)N4C([H])([H])C([H])([H])C([H])([H])C([H])(n5nc(-c6c([H])c([H])c(Oc7c([H])c([H])c(F)c([H])c7F)c([H])c6[H])c(C(=O)N([H])[H])c5N([H])[H])C4([H])[H])C([H])([H])C([H])([H])C([H])([H])[H])c3[H])c([H])c([H])c2C1([H])[H]

>  <smiles>  (81) 
[H]c1c([H])c([H])c2c(c1[H])C([H])([H])C([H])([H])C([H])([H])C2([H])N([H])C(=O)C1([H])N(C(=O)C([H])(N([H])C(=O)C([H])(N([H])C([H])([H])[H])C([H])([H])[H])C(C([H])([H])[H])(C([H])([H])[H])C([H])([H])[H])C([H])([H])c2c([H])c(OC([H])([H])C([H])([H])c3nn(C([H])([H])[H])c(C([H])([H])[N+]([H])(C([H])([H])[H])C([H])([H])C([H])([H])C([H])([H])N(C(=O)N4C([H])([H])C([H])([H])C([H])([H])C([H])(n5nc(-c6c([H])c([H])c(Oc7c([H])c([H])c(F)c([H])c7F)c([H])c6[H])c(C(=O)N([H])[H])c5N([H])[H])C4([H])[H])C([H])([H])C([H])([H])C([H])([H])[H])c3[H])c([H])c([H])c2C1([H])[H]

$$$$
82:0:0
     RDKit          3D

100108  0  0  1  0  0  0  0  0999 V2000
  -30.7560  -24.8840   18.2890 C   0  0  0  0  0  3  0  0  0  0  0  0
  -31.2490  -25.7320   19.2520 C   0  0  0  0  0  0  0  0  0  0  0  0
  -32.3240  -23.7820   19.4090 C   0  0  0  0  0  3  0  0  0  0  0  0
  -31.2270  -22.4770   17.6240 C   0  0  0  0  0  1  0  0  0  0  0  0
  -31.4330  -23.6970   18.4100 N   0  0  0  0  0  0  0  0  0  0  0  0
  -32.2530  -25.0320   19.8750 N   0  0  0  0  0  0  0  0  0  0  0  0
  -32.8430  -25.3890   20.6190 H   0  0  0  0  0  0  0  0  0  0  0  0
  -30.8930  -27.1320   19.6480 C   0  0  0  0  0  2  0  0  0  0  0  0
  -29.4700  -27.5540   19.2530 C   0  0  0  0  0  2  0  0  0  0  0  0
  -28.4540  -26.8210   19.9570 O   0  0  0  0  0  0  0  0  0  0  0  0
  -24.6040  -31.8710   23.2140 C   0  0  0  0  0  0  0  0  0  0  0  0
  -27.2670  -27.5030   20.0730 C   0  0  0  0  0  0  0  0  0  0  0  0
  -23.3930  -30.4900   21.5520 C   0  0  0  0  0  3  0  0  0  0  0  0
  -24.8450  -28.9540   20.1220 C   0  0  0  0  0  0  0  0  0  0  0  0
  -25.9110  -30.8530   21.3620 C   0  0  0  0  0  2  0  0  0  0  0  0
  -25.9950  -29.4870   20.7180 C   0  0  0  0  0  0  0  0  0  0  0  0
  -27.2010  -28.7620   20.7090 C   0  0  0  0  0  3  0  0  0  0  0  0
  -26.0960  -26.9560   19.5090 C   0  0  0  0  0  3  0  0  0  0  0  0
  -24.8850  -27.6780   19.5280 C   0  0  0  0  0  3  0  0  0  0  0  0
  -23.6020  -29.8150   20.1680 C   0  0  0  0  0  2  0  0  0  0  0  0
  -24.6540  -31.0830   22.1030 N   0  0  0  0  0  0  0  0  0  0  0  0
  -23.5250  -32.1430   23.7570 O   0  0  0  0  0  0  0  0  0  0  0  0
  -22.7350  -29.4630   22.5000 C   0  0  0  0  0  0  0  0  0  0  0  0
  -21.4080  -29.3020   22.3730 N   0  0  0  0  0  0  0  0  0  0  0  0
  -23.4140  -28.8150   23.3010 O   0  0  0  0  0  0  0  0  0  0  0  0
  -20.9230  -29.8780   21.6990 H   0  0  0  0  0  0  0  0  0  0  0  0
  -18.0250  -28.1370   22.8490 C   0  0  0  0  0  0  0  0  0  0  0  0
  -20.5820  -28.3650   23.1330 C   0  0  0  0  0  3  0  0  0  0  0  0
  -20.6740  -26.9390   22.5440 C   0  0  0  0  0  2  0  0  0  0  0  0
  -19.5740  -26.6380   21.5190 C   0  0  0  0  0  2  0  0  0  0  0  0
  -18.1910  -26.7930   22.1580 C   0  0  0  0  0  2  0  0  0  0  0  0
  -19.1500  -28.8810   23.2920 C   0  0  0  0  0  0  0  0  0  0  0  0
  -18.9450  -30.1430   23.8930 C   0  0  0  0  0  3  0  0  0  0  0  0
  -17.6460  -30.6600   24.0560 C   0  0  0  0  0  3  0  0  0  0  0  0
  -16.5350  -29.9100   23.6310 C   0  0  0  0  0  3  0  0  0  0  0  0
  -16.7250  -28.6510   23.0370 C   0  0  0  0  0  3  0  0  0  0  0  0
  -25.8960  -32.4840   23.8410 C   0  0  0  0  0  3  0  0  0  0  0  0
  -26.4420  -31.6590   25.0700 C   0  0  1  0  0  0  0  0  0  0  0  0
  -25.3750  -31.3750   26.1510 C   0  0  0  0  0  1  0  0  0  0  0  0
  -27.0150  -30.3000   24.6050 C   0  0  0  0  0  1  0  0  0  0  0  0
  -27.6070  -32.4220   25.7440 C   0  0  0  0  0  1  0  0  0  0  0  0
  -25.5860  -33.8640   24.2340 N   0  0  0  0  0  0  0  0  0  0  0  0
  -25.9040  -34.9480   23.5140 C   0  0  0  0  0  0  0  0  0  0  0  0
  -26.5600  -34.8910   22.4700 O   0  0  0  0  0  0  0  0  0  0  0  0
  -24.9970  -33.9830   25.0450 H   0  0  0  0  0  0  0  0  0  0  0  0
  -24.1500  -36.7330   23.2650 C   0  0  0  0  0  1  0  0  0  0  0  0
  -25.4130  -36.3130   24.0320 C   0  0  0  0  0  3  0  0  0  0  0  0
  -27.5570  -37.1860   24.8490 C   0  0  0  0  0  1  0  0  0  0  0  0
  -26.4330  -37.3780   23.9360 N   0  0  0  0  0  0  0  0  0  0  0  0
  -26.0240  -38.2890   24.1280 H   0  0  0  0  0  0  0  0  0  0  0  0
  -33.1500  -22.6700   19.9890 C   0  0  0  0  0  2  0  0  0  0  0  0
  -32.0640  -22.5900   22.1370 C   0  0  0  0  0  1  0  0  0  0  0  0
  -32.3720  -21.8380   20.9180 N   0  0  0  0  0  0  0  0  0  0  0  0
  -33.0660  -20.5940   21.2560 C   0  0  0  0  0  2  0  0  0  0  0  0
  -32.0440  -19.4740   21.5960 C   0  0  0  0  0  2  0  0  0  0  0  0
  -33.8810  -17.7910   21.5800 C   0  0  0  0  0  1  0  0  0  0  0  0
  -32.6240  -18.2540   22.2450 N   0  0  2  0  0  4  0  0  0  0  0  0
  -32.9320  -18.5700   23.1540 H   0  0  0  0  0  0  0  0  0  0  0  0
  -32.3280  -15.9130   23.1580 C   0  0  0  0  0  1  0  0  0  0  0  0
  -30.5970  -17.6220   23.5800 C   0  0  0  0  0  1  0  0  0  0  0  0
  -31.6280  -17.1460   22.5270 C   0  0  1  0  0  0  0  0  0  0  0  0
  -30.8310  -16.7530   21.2410 C   0  0  0  0  0  2  0  0  0  0  0  0
  -30.7820  -14.3890   20.5840 C   0  0  0  0  0  0  0  0  0  0  0  0
  -30.3980  -12.2640   19.4240 C   0  0  0  0  0  2  0  0  0  0  0  0
  -29.4800  -12.4960   18.2090 C   0  0  0  0  0  2  0  0  0  0  0  0
  -28.0050  -12.3660   18.6280 C   0  0  0  0  0  2  0  0  0  0  0  0
  -27.6630  -13.2090   19.8860 C   0  0  0  0  0  3  0  0  0  0  0  0
  -28.7070  -13.0040   21.0100 C   0  0  0  0  0  2  0  0  0  0  0  0
  -30.0450  -13.2570   20.4500 N   0  0  0  0  0  0  0  0  0  0  0  0
  -31.8730  -14.5420   20.0310 O   0  0  0  0  0  0  0  0  0  0  0  0
  -30.2350  -15.4060   21.2630 N   0  0  0  0  0  0  0  0  0  0  0  0
  -29.3390  -15.2690   21.7070 H   0  0  0  0  0  0  0  0  0  0  0  0
  -25.2610  -13.8180   20.5720 C   0  0  0  0  0  0  0  0  0  0  0  0
  -24.1860  -13.0470   20.9190 C   0  0  0  0  0  0  0  0  0  0  0  0
  -24.6400  -11.6930   20.8750 C   0  0  0  0  0  0  0  0  0  0  0  0
  -26.3040  -12.9350   20.3440 N   0  0  0  0  0  0  0  0  0  0  0  0
  -25.9330  -11.6500   20.5820 N   0  0  0  0  0  0  0  0  0  0  0  0
  -23.9060  -10.4300   21.0410 C   0  0  0  0  0  0  0  0  0  0  0  0
  -24.3600   -9.4210   21.9200 C   0  0  0  0  0  3  0  0  0  0  0  0
  -23.6270   -8.2250   22.0770 C   0  0  0  0  0  3  0  0  0  0  0  0
  -22.4260   -8.0290   21.3540 C   0  0  0  0  0  0  0  0  0  0  0  0
  -21.9900   -9.0260   20.4650 C   0  0  0  0  0  3  0  0  0  0  0  0
  -22.7230  -10.2150   20.3070 C   0  0  0  0  0  3  0  0  0  0  0  0
  -21.6630   -6.8880   21.4230 O   0  0  0  0  0  0  0  0  0  0  0  0
  -21.6860   -6.0740   22.5270 C   0  0  0  0  0  0  0  0  0  0  0  0
  -21.4010   -6.5640   23.8200 C   0  0  0  0  0  3  0  0  0  0  0  0
  -21.3660   -5.6790   24.9160 C   0  0  0  0  0  3  0  0  0  0  0  0
  -21.6040   -4.3060   24.7210 C   0  0  0  0  0  0  0  0  0  0  0  0
  -21.8820   -3.8150   23.4330 C   0  0  0  0  0  3  0  0  0  0  0  0
  -21.9190   -4.6970   22.3390 C   0  0  0  0  0  0  0  0  0  0  0  0
  -22.1660   -4.2150   21.0960 F   0  0  0  0  0  0  0  0  0  0  0  0
  -21.5640   -3.4540   25.7730 F   0  0  0  0  0  0  0  0  0  0  0  0
  -22.7880  -13.5250   21.1830 C   0  0  0  0  0  0  0  0  0  0  0  0
  -22.0530  -12.8230   22.0390 N   0  0  0  0  0  0  0  0  0  0  0  0
  -22.3560  -14.5560   20.6680 O   0  0  0  0  0  0  0  0  0  0  0  0
  -22.4170  -11.9850   22.4690 H   0  0  0  0  0  0  0  0  0  0  0  0
  -21.1150  -13.1260   22.2620 H   0  0  0  0  0  0  0  0  0  0  0  0
  -25.4360  -15.1890   20.4120 N   0  0  0  0  0  0  0  0  0  0  0  0
  -24.6810  -15.8550   20.5330 H   0  0  0  0  0  0  0  0  0  0  0  0
  -26.3000  -15.6240   20.1110 H   0  0  0  0  0  0  0  0  0  0  0  0
  1  5  1  0
  1  2  2  0
  2  8  1  0
  2  6  1  0
  3  6  1  0
  3 51  1  0
  4  5  1  0
  5  3  1  0
  6  7  1  0
  9  8  1  0
  9 10  1  0
 10 12  1  0
 11 22  2  0
 12 17  1  0
 13 21  1  0
 13 23  1  0
 14 20  1  0
 14 16  1  0
 15 21  1  0
 16 15  1  0
 17 16  2  0
 18 19  1  0
 18 12  2  0
 19 14  2  0
 20 13  1  0
 21 11  1  0
 23 25  2  0
 24 23  1  0
 26 24  1  0
 27 36  2  0
 27 32  1  0
 28 24  1  0
 28 32  1  0
 29 28  1  0
 30 31  1  0
 30 29  1  0
 31 27  1  0
 32 33  2  0
 33 34  1  0
 35 34  2  0
 36 35  1  0
 37 11  1  0
 37 42  1  0
 37 38  1  0
 38 41  1  1
 38 39  1  0
 40 38  1  0
 42 45  1  0
 43 47  1  0
 43 42  1  0
 44 43  2  0
 47 46  1  0
 49 47  1  0
 49 50  1  0
 49 48  1  0
 51 53  1  0
 53 54  1  0
 53 52  1  0
 54 55  1  0
 55 57  1  0
 56 57  1  0
 57 61  1  0
 57 58  1  1
 61 59  1  1
 61 60  1  0
 62 71  1  0
 62 61  1  0
 63 71  1  0
 64 69  1  0
 65 66  1  0
 65 64  1  0
 67 66  1  0
 67 76  1  0
 67 68  1  0
 69 63  1  0
 69 68  1  0
 70 63  2  0
 71 72  1  0
 73 74  2  0
 74 93  1  0
 75 74  1  0
 75 78  1  0
 76 73  1  0
 76 77  1  0
 77 75  2  0
 78 79  1  0
 79 80  2  0
 81 84  1  0
 81 80  1  0
 82 81  2  0
 83 82  1  0
 83 78  2  0
 84 85  1  0
 85 86  1  0
 86 87  2  0
 88 87  1  0
 88 92  1  0
 89 88  2  0
 90 85  2  0
 90 89  1  0
 91 90  1  0
 93 94  1  0
 94 97  1  0
 94 96  1  0
 95 93  2  0
 98 99  1  0
 98 73  1  0
100 98  1  0
M  ISO  4   9 101  10 101  63 100  71 100
M  END
>  <TORSDO>  (82) 
F 25

>  <SCORE>  (82) 
-3.578

>  <name>  (82) 
82

>  <ligand_id>  (82) 
82

>  <original_smiles>  (82) 
[H]c1c([H])c([H])c2c(c1[H])C([H])([H])C([H])([H])C([H])([H])C2([H])N([H])C(=O)C1([H])N(C(=O)C([H])(N([H])C(=O)C([H])(N([H])C([H])([H])[H])C([H])([H])[H])C(C([H])([H])[H])(C([H])([H])[H])C([H])([H])[H])C([H])([H])c2c([H])c(OC([H])([H])C([H])([H])c3c([H])n(C([H])([H])[H])c(C([H])([H])N(C([H])([H])[H])C([H])([H])C([H])([H])[N+]([H])(C([H])([H])[H])C(C([H])([H])[H])(C([H])([H])[H])C([H])([H])N([H])C(=O)N4C([H])([H])C([H])([H])C([H])([H])C([H])(n5nc(-c6c([H])c([H])c(Oc7c([H])c([H])c(F)c([H])c7F)c([H])c6[H])c(C(=O)N([H])[H])c5N([H])[H])C4([H])[H])[n+]3[H])c([H])c([H])c2C1([H])[H]

>  <smiles>  (82) 
[H]c1c([H])c([H])c2c(c1[H])C([H])([H])C([H])([H])C([H])([H])C2([H])N([H])C(=O)C1([H])N(C(=O)C([H])(N([H])C(=O)C([H])(N([H])C([H])([H])[H])C([H])([H])[H])C(C([H])([H])[H])(C([H])([H])[H])C([H])([H])[H])C([H])([H])c2c([H])c(OC([H])([H])C([H])([H])c3c([H])n(C([H])([H])[H])c(C([H])([H])N(C([H])([H])[H])C([H])([H])C([H])([H])[N+]([H])(C([H])([H])[H])C(C([H])([H])[H])(C([H])([H])[H])C([H])([H])N([H])C(=O)N4C([H])([H])C([H])([H])C([H])([H])C([H])(n5nc(-c6c([H])c([H])c(Oc7c([H])c([H])c(F)c([H])c7F)c([H])c6[H])c(C(=O)N([H])[H])c5N([H])[H])C4([H])[H])[n+]3[H])c([H])c([H])c2C1([H])[H]

$$$$
84:0:0
     RDKit          3D

 88 96  0  0  1  0  0  0  0  0999 V2000
  -30.8530  -19.9710   20.1620 C   0  0  0  0  0  3  0  0  0  0  0  0
  -29.4560  -20.3140   20.1920 C   0  0  0  0  0  0  0  0  0  0  0  0
  -31.0970  -18.6520   20.1700 N   0  0  0  0  0  0  0  0  0  0  0  0
  -28.8810  -19.0900   20.2300 N   0  0  0  0  0  0  0  0  0  0  0  0
  -29.8700  -18.0520   20.2380 N   0  0  0  0  0  0  0  0  0  0  0  0
  -28.7740  -16.4990   18.7410 C   0  0  0  0  0  1  0  0  0  0  0  0
  -28.5200  -16.2810   21.2990 C   0  0  0  0  0  1  0  0  0  0  0  0
  -29.5050  -16.4900   20.1160 C   0  0  2  0  0  0  0  0  0  0  0  0
  -30.4790  -15.0840   20.0750 C   0  0  0  0  0  0  0  0  0  0  0  0
  -30.4690  -12.6900   19.1770 C   0  0  0  0  0  2  0  0  0  0  0  0
  -29.4840  -12.5750   17.9850 C   0  0  0  0  0  2  0  0  0  0  0  0
  -28.0300  -12.3400   18.4530 C   0  0  0  0  0  2  0  0  0  0  0  0
  -27.6390  -13.2410   19.6500 C   0  0  0  0  0  3  0  0  0  0  0  0
  -28.7480  -13.2360   20.7250 C   0  0  0  0  0  2  0  0  0  0  0  0
  -29.9780  -13.7630   20.0950 N   0  0  0  0  0  0  0  0  0  0  0  0
  -31.6840  -15.1710   19.7990 O   0  0  0  0  0  0  0  0  0  0  0  0
  -25.2700  -13.8260   20.4320 C   0  0  0  0  0  0  0  0  0  0  0  0
  -24.2190  -13.0500   20.8280 C   0  0  0  0  0  0  0  0  0  0  0  0
  -24.6890  -11.7010   20.7830 C   0  0  0  0  0  0  0  0  0  0  0  0
  -26.3160  -12.9490   20.1790 N   0  0  0  0  0  0  0  0  0  0  0  0
  -25.9720  -11.6660   20.4490 N   0  0  0  0  0  0  0  0  0  0  0  0
  -23.9720  -10.4380   20.9830 C   0  0  0  0  0  0  0  0  0  0  0  0
  -24.4100   -9.4850   21.9270 C   0  0  0  0  0  3  0  0  0  0  0  0
  -23.6920   -8.2840   22.1150 C   0  0  0  0  0  3  0  0  0  0  0  0
  -22.5240   -8.0310   21.3570 C   0  0  0  0  0  0  0  0  0  0  0  0
  -22.1070   -8.9750   20.4020 C   0  0  0  0  0  3  0  0  0  0  0  0
  -22.8250  -10.1660   20.2120 C   0  0  0  0  0  3  0  0  0  0  0  0
  -21.7770   -6.8830   21.4560 O   0  0  0  0  0  0  0  0  0  0  0  0
  -21.6970   -6.1750   22.6280 C   0  0  0  0  0  0  0  0  0  0  0  0
  -21.2210   -6.7620   23.8210 C   0  0  0  0  0  3  0  0  0  0  0  0
  -21.0900   -5.9790   24.9850 C   0  0  0  0  0  3  0  0  0  0  0  0
  -21.4260   -4.6130   24.9590 C   0  0  0  0  0  0  0  0  0  0  0  0
  -21.8970   -4.0260   23.7710 C   0  0  0  0  0  3  0  0  0  0  0  0
  -22.0300   -4.8060   22.6080 C   0  0  0  0  0  0  0  0  0  0  0  0
  -22.4640   -4.2310   21.4600 F   0  0  0  0  0  0  0  0  0  0  0  0
  -21.2910   -3.8600   26.0750 F   0  0  0  0  0  0  0  0  0  0  0  0
  -22.8280  -13.5240   21.1320 C   0  0  0  0  0  0  0  0  0  0  0  0
  -22.1250  -12.8300   22.0210 N   0  0  0  0  0  0  0  0  0  0  0  0
  -22.3730  -14.5460   20.6200 O   0  0  0  0  0  0  0  0  0  0  0  0
  -22.5050  -12.0040   22.4580 H   0  0  0  0  0  0  0  0  0  0  0  0
  -21.1930  -13.1300   22.2680 H   0  0  0  0  0  0  0  0  0  0  0  0
  -25.4030  -15.1970   20.2370 N   0  0  0  0  0  0  0  0  0  0  0  0
  -24.6240  -15.8340   20.3660 H   0  0  0  0  0  0  0  0  0  0  0  0
  -26.2320  -15.6510   19.8810 H   0  0  0  0  0  0  0  0  0  0  0  0
  -28.6190  -21.7400   20.0710 C   0  0  0  0  0  2  0  0  0  0  0  0
  -29.0780  -23.3500   20.3090 C   0  0  0  0  0  3  0  0  0  0  0  0
  -28.0440  -24.6720   20.0520 C   0  0  0  0  0  3  0  0  0  0  0  0
  -28.2860  -26.2010   20.2660 O   0  0  0  0  0  0  0  0  0  0  0  0
  -24.6510  -31.8860   23.2600 C   0  0  0  0  0  0  0  0  0  0  0  0
  -27.2180  -27.1750   20.2070 C   0  0  0  0  0  0  0  0  0  0  0  0
  -23.4420  -30.5000   21.6190 C   0  0  0  0  0  3  0  0  0  0  0  0
  -24.8840  -28.9240   20.1860 C   0  0  0  0  0  0  0  0  0  0  0  0
  -25.9970  -30.7570   21.4500 C   0  0  0  0  0  2  0  0  0  0  0  0
  -26.0660  -29.3670   20.7930 C   0  0  0  0  0  0  0  0  0  0  0  0
  -27.2310  -28.5100   20.7860 C   0  0  0  0  0  3  0  0  0  0  0  0
  -26.0060  -26.8320   19.5670 C   0  0  0  0  0  3  0  0  0  0  0  0
  -24.8670  -27.6690   19.5580 C   0  0  0  0  0  3  0  0  0  0  0  0
  -23.6590  -29.8240   20.2390 C   0  0  0  0  0  2  0  0  0  0  0  0
  -24.7170  -31.0690   22.1640 N   0  0  0  0  0  0  0  0  0  0  0  0
  -23.5660  -32.1740   23.7900 O   0  0  0  0  0  0  0  0  0  0  0  0
  -22.7590  -29.4950   22.5790 C   0  0  0  0  0  0  0  0  0  0  0  0
  -21.4310  -29.3320   22.4550 N   0  0  0  0  0  0  0  0  0  0  0  0
  -23.4290  -28.8630   23.4010 O   0  0  0  0  0  0  0  0  0  0  0  0
  -20.9480  -29.8910   21.7660 H   0  0  0  0  0  0  0  0  0  0  0  0
  -18.0430  -28.1530   22.9630 C   0  0  0  0  0  0  0  0  0  0  0  0
  -20.6040  -28.3980   23.2240 C   0  0  0  0  0  3  0  0  0  0  0  0
  -20.6950  -26.9680   22.6430 C   0  0  0  0  0  2  0  0  0  0  0  0
  -19.5870  -26.6560   21.6310 C   0  0  0  0  0  2  0  0  0  0  0  0
  -18.2090  -26.8070   22.2790 C   0  0  0  0  0  2  0  0  0  0  0  0
  -19.1670  -28.9070   23.3920 C   0  0  0  0  0  0  0  0  0  0  0  0
  -18.9570  -30.1670   23.9930 C   0  0  0  0  0  3  0  0  0  0  0  0
  -17.6540  -30.6740   24.1680 C   0  0  0  0  0  3  0  0  0  0  0  0
  -16.5450  -29.9170   23.7530 C   0  0  0  0  0  3  0  0  0  0  0  0
  -16.7400  -28.6590   23.1570 C   0  0  0  0  0  3  0  0  0  0  0  0
  -25.9320  -32.5130   23.8890 C   0  0  0  0  0  3  0  0  0  0  0  0
  -26.4370  -31.7410   25.1700 C   0  0  1  0  0  0  0  0  0  0  0  0
  -25.3370  -31.5130   26.2340 C   0  0  0  0  0  1  0  0  0  0  0  0
  -27.0120  -30.3580   24.7860 C   0  0  0  0  0  1  0  0  0  0  0  0
  -27.5910  -32.5260   25.8350 C   0  0  0  0  0  1  0  0  0  0  0  0
  -25.6290  -33.9140   24.2230 N   0  0  0  0  0  0  0  0  0  0  0  0
  -25.9470  -34.9680   23.4610 C   0  0  0  0  0  0  0  0  0  0  0  0
  -26.5940  -34.8640   22.4160 O   0  0  0  0  0  0  0  0  0  0  0  0
  -25.0510  -34.0690   25.0360 H   0  0  0  0  0  0  0  0  0  0  0  0
  -24.2020  -36.7580   23.1690 C   0  0  0  0  0  1  0  0  0  0  0  0
  -25.4750  -36.3580   23.9320 C   0  0  0  0  0  3  0  0  0  0  0  0
  -27.6370  -37.2560   24.6760 C   0  0  0  0  0  1  0  0  0  0  0  0
  -26.5000  -37.4140   23.7730 N   0  0  0  0  0  0  0  0  0  0  0  0
  -26.0970  -38.3350   23.9270 H   0  0  0  0  0  0  0  0  0  0  0  0
  1  3  2  0
  1  2  1  0
  2  4  2  0
  3  5  1  0
  4  5  1  0
  8  6  1  6
  8  5  1  0
  8  7  1  0
  9 15  1  0
  9  8  1  0
 10 15  1  0
 11 12  1  0
 11 10  1  0
 13 12  1  0
 13 20  1  0
 13 14  1  0
 15 14  1  0
 16  9  2  0
 17 18  2  0
 18 37  1  0
 19 18  1  0
 19 22  1  0
 20 17  1  0
 20 21  1  0
 21 19  2  0
 22 23  1  0
 23 24  2  0
 25 28  1  0
 25 24  1  0
 26 25  2  0
 27 26  1  0
 27 22  2  0
 28 29  1  0
 29 30  1  0
 30 31  2  0
 32 31  1  0
 32 36  1  0
 33 32  2  0
 34 29  2  0
 34 33  1  0
 35 34  1  0
 37 38  1  0
 38 41  1  0
 38 40  1  0
 39 37  2  0
 42 43  1  0
 42 17  1  0
 44 42  1  0
 45  2  1  0
 45 46  1  0
 47 48  1  0
 47 46  2  0
 49 60  2  0
 50 48  1  0
 50 55  1  0
 51 59  1  0
 51 61  1  0
 52 58  1  0
 52 54  1  0
 53 59  1  0
 54 53  1  0
 55 54  2  0
 56 50  2  0
 57 56  1  0
 57 52  2  0
 58 51  1  0
 59 49  1  0
 61 63  2  0
 62 61  1  0
 64 62  1  0
 65 74  2  0
 65 70  1  0
 66 62  1  0
 66 70  1  0
 67 66  1  0
 68 69  1  0
 68 67  1  0
 69 65  1  0
 70 71  2  0
 71 72  1  0
 73 72  2  0
 74 73  1  0
 75 49  1  0
 75 80  1  0
 75 76  1  0
 76 79  1  1
 76 77  1  0
 78 76  1  0
 80 83  1  0
 81 85  1  0
 81 80  1  0
 82 81  2  0
 85 84  1  0
 87 88  1  0
 87 85  1  0
 87 86  1  0
M  ISO  4   8 100   9 100  47 101  48 101
M  END
>  <TORSDO>  (83) 
F 20

>  <SCORE>  (83) 
-14.389

>  <name>  (83) 
84

>  <ligand_id>  (83) 
84

>  <original_smiles>  (83) 
[H]c1nn(C(C(=O)N2C([H])([H])C([H])([H])C([H])([H])C([H])(n3nc(-c4c([H])c([H])c(Oc5c([H])c([H])c(F)c([H])c5F)c([H])c4[H])c(C(=O)N([H])[H])c3N([H])[H])C2([H])[H])(C([H])([H])[H])C([H])([H])[H])nc1C([H])([H])C([H])([H])C([H])([H])Oc1c([H])c([H])c2c(c1[H])C([H])([H])N(C(=O)C([H])(N([H])C(=O)C([H])(N([H])C([H])([H])[H])C([H])([H])[H])C(C([H])([H])[H])(C([H])([H])[H])C([H])([H])[H])C([H])(C(=O)N([H])C1([H])c3c([H])c([H])c([H])c([H])c3C([H])([H])C([H])([H])C1([H])[H])C2([H])[H]

>  <smiles>  (83) 
[H]c1nn(C(C(=O)N2C([H])([H])C([H])([H])C([H])([H])C([H])(n3nc(-c4c([H])c([H])c(Oc5c([H])c([H])c(F)c([H])c5F)c([H])c4[H])c(C(=O)N([H])[H])c3N([H])[H])C2([H])[H])(C([H])([H])[H])C([H])([H])[H])nc1C([H])([H])C([H])([H])C([H])([H])Oc1c([H])c([H])c2c(c1[H])C([H])([H])N(C(=O)C([H])(N([H])C(=O)C([H])(N([H])C([H])([H])[H])C([H])([H])[H])C(C([H])([H])[H])(C([H])([H])[H])C([H])([H])[H])C([H])(C(=O)N([H])C1([H])c3c([H])c([H])c([H])c([H])c3C([H])([H])C([H])([H])C1([H])[H])C2([H])[H]

$$$$
85:0:0
     RDKit          3D

 98106  0  0  1  0  0  0  0  0999 V2000
  -29.2090  -22.2320   17.5340 C   0  0  0  0  0  2  0  0  0  0  0  0
  -30.3820  -18.8000   17.9680 C   0  0  0  0  0  3  0  0  0  0  0  0
  -29.2800  -18.1540   18.5440 C   0  0  0  0  0  0  0  0  0  0  0  0
  -28.1250  -18.9410   18.7470 C   0  0  0  0  0  0  0  0  0  0  0  0
  -29.2200  -20.7540   17.8690 C   0  0  0  0  0  0  0  0  0  0  0  0
  -26.8180  -18.4240   19.3210 C   0  0  0  0  0  1  0  0  0  0  0  0
  -30.3470  -20.0970   17.6220 N   0  0  0  0  0  0  0  0  0  0  0  0
  -28.1260  -20.2460   18.4210 N   0  0  0  0  0  0  0  0  0  0  0  0
  -29.4240  -16.6900   18.9180 C   0  0  0  0  0  2  0  0  0  0  0  0
  -30.3590  -16.5290   20.1380 C   0  0  0  0  0  2  0  0  0  0  0  0
  -30.9830  -14.1660   19.8390 C   0  0  0  0  0  0  0  0  0  0  0  0
  -30.4480  -12.1170   18.5590 C   0  0  0  0  0  2  0  0  0  0  0  0
  -29.4440  -12.4450   17.4370 C   0  0  0  0  0  2  0  0  0  0  0  0
  -27.9960  -12.3370   17.9530 C   0  0  0  0  0  2  0  0  0  0  0  0
  -27.7910  -13.1290   19.2690 C   0  0  0  0  0  3  0  0  0  0  0  0
  -28.8980  -12.8120   20.2940 C   0  0  0  0  0  2  0  0  0  0  0  0
  -30.2120  -13.0570   19.6690 N   0  0  0  0  0  0  0  0  0  0  0  0
  -31.9880  -14.3830   19.1490 O   0  0  0  0  0  0  0  0  0  0  0  0
  -30.4480  -15.1460   20.6250 N   0  0  0  0  0  0  0  0  0  0  0  0
  -25.4990  -13.8530   20.1950 C   0  0  0  0  0  0  0  0  0  0  0  0
  -24.4290  -13.1310   20.6550 C   0  0  0  0  0  0  0  0  0  0  0  0
  -24.8160  -11.7580   20.5690 C   0  0  0  0  0  0  0  0  0  0  0  0
  -26.4680  -12.9190   19.8540 N   0  0  0  0  0  0  0  0  0  0  0  0
  -26.0630  -11.6540   20.1310 N   0  0  0  0  0  0  0  0  0  0  0  0
  -24.0460  -10.5360   20.8140 C   0  0  0  0  0  0  0  0  0  0  0  0
  -24.5000   -9.5550   21.7250 C   0  0  0  0  0  3  0  0  0  0  0  0
  -23.7360   -8.3910   21.9620 C   0  0  0  0  0  3  0  0  0  0  0  0
  -22.5070   -8.2040   21.2860 C   0  0  0  0  0  0  0  0  0  0  0  0
  -22.0690   -9.1710   20.3640 C   0  0  0  0  0  3  0  0  0  0  0  0
  -22.8350  -10.3280   20.1260 C   0  0  0  0  0  3  0  0  0  0  0  0
  -21.7080   -7.0960   21.4310 O   0  0  0  0  0  0  0  0  0  0  0  0
  -21.6880   -6.3700   22.5960 C   0  0  0  0  0  0  0  0  0  0  0  0
  -21.3680   -6.9610   23.8390 C   0  0  0  0  0  3  0  0  0  0  0  0
  -21.2970   -6.1630   24.9970 C   0  0  0  0  0  3  0  0  0  0  0  0
  -21.5270   -4.7760   24.9110 C   0  0  0  0  0  0  0  0  0  0  0  0
  -21.8400   -4.1880   23.6740 C   0  0  0  0  0  3  0  0  0  0  0  0
  -21.9180   -4.9820   22.5180 C   0  0  0  0  0  0  0  0  0  0  0  0
  -22.1950   -4.4050   21.3240 F   0  0  0  0  0  0  0  0  0  0  0  0
  -21.4530   -4.0080   26.0230 F   0  0  0  0  0  0  0  0  0  0  0  0
  -23.0890  -13.6800   21.0480 C   0  0  0  0  0  0  0  0  0  0  0  0
  -22.3890  -13.0320   21.9750 N   0  0  0  0  0  0  0  0  0  0  0  0
  -22.6590  -14.7240   20.5590 O   0  0  0  0  0  0  0  0  0  0  0  0
  -22.7250  -12.1850   22.4060 H   0  0  0  0  0  0  0  0  0  0  0  0
  -21.4880  -13.3930   22.2490 H   0  0  0  0  0  0  0  0  0  0  0  0
  -25.7120  -15.2140   20.0240 N   0  0  0  0  0  0  0  0  0  0  0  0
  -24.9860  -15.8930   20.2270 H   0  0  0  0  0  0  0  0  0  0  0  0
  -26.5650  -15.6250   19.6740 H   0  0  0  0  0  0  0  0  0  0  0  0
  -31.4770  -15.8260   22.8450 C   0  0  0  0  0  1  0  0  0  0  0  0
  -30.3830  -15.0340   22.0960 C   0  0  0  0  0  2  0  0  0  0  0  0
  -30.1070  -23.1160   18.4370 C   0  0  0  0  0  2  0  0  0  0  0  0
  -30.2780  -22.6300   19.8990 C   0  0  0  0  0  2  0  0  0  0  0  0
  -31.8300  -22.8440   21.8060 C   0  0  0  0  0  1  0  0  0  0  0  0
  -31.0890  -23.5580   20.7390 N   0  0  2  0  0  4  0  0  0  0  0  0
  -31.8100  -23.9410   20.1480 H   0  0  0  0  0  0  0  0  0  0  0  0
  -30.3090  -24.7070   21.2740 C   0  0  0  0  0  2  0  0  0  0  0  0
  -30.6630  -26.0350   20.5780 C   0  0  0  0  0  2  0  0  0  0  0  0
  -29.5580  -27.0820   20.7490 C   0  0  0  0  0  2  0  0  0  0  0  0
  -28.3870  -26.5760   20.1090 O   0  0  0  0  0  0  0  0  0  0  0  0
  -24.5180  -31.7450   23.1470 C   0  0  0  0  0  0  0  0  0  0  0  0
  -27.2420  -27.3370   20.1440 C   0  0  0  0  0  0  0  0  0  0  0  0
  -23.3390  -30.3430   21.4770 C   0  0  0  0  0  3  0  0  0  0  0  0
  -24.8230  -28.7990   20.0930 C   0  0  0  0  0  0  0  0  0  0  0  0
  -25.8600  -30.7150   21.3250 C   0  0  0  0  0  2  0  0  0  0  0  0
  -25.9600  -29.3420   20.7040 C   0  0  0  0  0  0  0  0  0  0  0  0
  -27.1670  -28.6210   20.7330 C   0  0  0  0  0  3  0  0  0  0  0  0
  -26.0860  -26.7960   19.5400 C   0  0  0  0  0  3  0  0  0  0  0  0
  -24.8790  -27.5220   19.5080 C   0  0  0  0  0  3  0  0  0  0  0  0
  -23.5740  -29.6500   20.1060 C   0  0  0  0  0  2  0  0  0  0  0  0
  -24.5900  -30.9480   22.0440 N   0  0  0  0  0  0  0  0  0  0  0  0
  -23.4290  -32.0220   23.6660 O   0  0  0  0  0  0  0  0  0  0  0  0
  -22.6650  -29.3300   22.4270 C   0  0  0  0  0  0  0  0  0  0  0  0
  -21.3410  -29.1700   22.2820 N   0  0  0  0  0  0  0  0  0  0  0  0
  -23.3300  -28.6890   23.2450 O   0  0  0  0  0  0  0  0  0  0  0  0
  -20.8670  -29.7360   21.5930 H   0  0  0  0  0  0  0  0  0  0  0  0
  -17.9400  -28.0450   22.7350 C   0  0  0  0  0  0  0  0  0  0  0  0
  -20.5000  -28.2420   23.0350 C   0  0  0  0  0  3  0  0  0  0  0  0
  -20.5770  -26.8150   22.4460 C   0  0  0  0  0  2  0  0  0  0  0  0
  -19.4780  -26.5260   21.4180 C   0  0  0  0  0  2  0  0  0  0  0  0
  -18.0940  -26.6980   22.0500 C   0  0  0  0  0  2  0  0  0  0  0  0
  -19.0720  -28.7770   23.1840 C   0  0  0  0  0  0  0  0  0  0  0  0
  -18.8760  -30.0420   23.7810 C   0  0  0  0  0  3  0  0  0  0  0  0
  -17.5830  -30.5720   23.9370 C   0  0  0  0  0  3  0  0  0  0  0  0
  -16.4640  -29.8370   23.5070 C   0  0  0  0  0  3  0  0  0  0  0  0
  -16.6450  -28.5750   22.9110 C   0  0  0  0  0  3  0  0  0  0  0  0
  -25.7980  -32.3650   23.7950 C   0  0  0  0  0  3  0  0  0  0  0  0
  -26.3070  -31.5670   25.0560 C   0  0  1  0  0  0  0  0  0  0  0  0
  -25.2060  -31.3020   26.1100 C   0  0  0  0  0  1  0  0  0  0  0  0
  -26.8980  -30.2010   24.6330 C   0  0  0  0  0  1  0  0  0  0  0  0
  -27.4500  -32.3490   25.7450 C   0  0  0  0  0  1  0  0  0  0  0  0
  -25.4810  -33.7550   24.1480 N   0  0  0  0  0  0  0  0  0  0  0  0
  -25.8200  -34.8220   23.4120 C   0  0  0  0  0  0  0  0  0  0  0  0
  -26.5030  -34.7390   22.3850 O   0  0  0  0  0  0  0  0  0  0  0  0
  -24.8780  -33.8940   24.9450 H   0  0  0  0  0  0  0  0  0  0  0  0
  -24.0880  -36.6100   23.0710 C   0  0  0  0  0  1  0  0  0  0  0  0
  -25.3230  -36.1990   23.8880 C   0  0  0  0  0  3  0  0  0  0  0  0
  -27.4490  -37.0770   24.7470 C   0  0  0  0  0  1  0  0  0  0  0  0
  -26.3520  -37.2580   23.8010 N   0  0  0  0  0  0  0  0  0  0  0  0
  -25.9420  -38.1740   23.9630 H   0  0  0  0  0  0  0  0  0  0  0  0
  1  5  1  0
  1 50  1  0
  2  3  2  0
  3  4  1  0
  3  9  1  0
  4  6  1  0
  5  8  1  0
  7  5  2  0
  7  2  1  0
  8  4  2  0
  9 10  1  0
 10 19  1  0
 11 19  1  0
 12 17  1  0
 13 14  1  0
 13 12  1  0
 15 14  1  0
 15 23  1  0
 15 16  1  0
 17 11  1  0
 17 16  1  0
 18 11  2  0
 19 49  1  0
 20 21  2  0
 21 40  1  0
 22 21  1  0
 22 25  1  0
 23 24  1  0
 23 20  1  0
 24 22  2  0
 25 26  1  0
 26 27  2  0
 28 31  1  0
 28 27  1  0
 29 28  2  0
 30 29  1  0
 30 25  2  0
 31 32  1  0
 32 33  1  0
 33 34  2  0
 35 34  1  0
 35 39  1  0
 36 35  2  0
 37 32  2  0
 37 36  1  0
 38 37  1  0
 40 41  1  0
 41 44  1  0
 41 43  1  0
 42 40  2  0
 45 20  1  0
 45 46  1  0
 47 45  1  0
 49 48  1  0
 50 51  1  0
 51 53  1  0
 53 55  1  0
 53 52  1  0
 53 54  1  6
 56 57  1  0
 56 55  1  0
 58 60  1  0
 58 57  1  0
 59 70  2  0
 60 65  1  0
 61 69  1  0
 61 71  1  0
 62 68  1  0
 62 64  1  0
 63 69  1  0
 64 65  2  0
 64 63  1  0
 66 60  2  0
 67 66  1  0
 67 62  2  0
 68 61  1  0
 69 59  1  0
 71 73  2  0
 72 71  1  0
 74 72  1  0
 75 84  2  0
 75 80  1  0
 76 72  1  0
 76 80  1  0
 77 76  1  0
 78 79  1  0
 78 77  1  0
 79 75  1  0
 80 81  2  0
 81 82  1  0
 83 82  2  0
 84 83  1  0
 85 59  1  0
 85 90  1  0
 85 86  1  0
 86 89  1  1
 86 87  1  0
 88 86  1  0
 90 93  1  0
 91 95  1  0
 91 90  1  0
 92 91  2  0
 95 94  1  0
 97 95  1  0
 97 98  1  0
 97 96  1  0
M  ISO  4  11 100  19 100  57 101  58 101
M  END
>  <TORSDO>  (84) 
F 26

>  <SCORE>  (84) 
-9.283

>  <name>  (84) 
85

>  <ligand_id>  (84) 
85

>  <original_smiles>  (84) 
[H]c1nc(C([H])([H])C([H])([H])C([H])([H])[N+]([H])(C([H])([H])[H])C([H])([H])C([H])([H])C([H])([H])Oc2c([H])c([H])c3c(c2[H])C([H])([H])N(C(=O)C([H])(N([H])C(=O)C([H])(N([H])C([H])([H])[H])C([H])([H])[H])C(C([H])([H])[H])(C([H])([H])[H])C([H])([H])[H])C([H])(C(=O)N([H])C2([H])c4c([H])c([H])c([H])c([H])c4C([H])([H])C([H])([H])C2([H])[H])C3([H])[H])nc(C([H])([H])[H])c1C([H])([H])C([H])([H])N(C(=O)N1C([H])([H])C([H])([H])C([H])([H])C([H])(n2nc(-c3c([H])c([H])c(Oc4c([H])c([H])c(F)c([H])c4F)c([H])c3[H])c(C(=O)N([H])[H])c2N([H])[H])C1([H])[H])C([H])([H])C([H])([H])[H]

>  <smiles>  (84) 
[H]c1nc(C([H])([H])C([H])([H])C([H])([H])[N+]([H])(C([H])([H])[H])C([H])([H])C([H])([H])C([H])([H])Oc2c([H])c([H])c3c(c2[H])C([H])([H])N(C(=O)C([H])(N([H])C(=O)C([H])(N([H])C([H])([H])[H])C([H])([H])[H])C(C([H])([H])[H])(C([H])([H])[H])C([H])([H])[H])C([H])(C(=O)N([H])C2([H])c4c([H])c([H])c([H])c([H])c4C([H])([H])C([H])([H])C2([H])[H])C3([H])[H])nc(C([H])([H])[H])c1C([H])([H])C([H])([H])N(C(=O)N1C([H])([H])C([H])([H])C([H])([H])C([H])(n2nc(-c3c([H])c([H])c(Oc4c([H])c([H])c(F)c([H])c4F)c([H])c3[H])c(C(=O)N([H])[H])c2N([H])[H])C1([H])[H])C([H])([H])C([H])([H])[H]

$$$$
86:0:0
     RDKit          3D

 93101  0  0  1  0  0  0  0  0999 V2000
  -27.5290  -21.5350   20.8510 C   0  0  0  0  0  3  0  0  0  0  0  0
  -28.3650  -22.2850   20.0340 C   0  0  0  0  0  0  0  0  0  0  0  0
  -29.1450  -20.0880   20.2090 C   0  0  0  0  0  3  0  0  0  0  0  0
  -29.3520  -21.3460   19.6740 N   0  0  0  0  0  0  0  0  0  0  0  0
  -28.0180  -20.2400   20.9240 N   0  0  0  0  0  0  0  0  0  0  0  0
  -27.5990  -19.5120   21.4960 H   0  0  0  0  0  0  0  0  0  0  0  0
  -28.3070  -23.7910   19.5090 C   0  0  0  0  0  3  0  0  0  0  0  0
  -27.9140  -25.0080   20.4850 C   0  0  0  0  0  3  0  0  0  0  0  0
  -28.2140  -26.4420   20.1300 O   0  0  0  0  0  0  0  0  0  0  0  0
  -24.6040  -31.9480   23.2360 C   0  0  0  0  0  0  0  0  0  0  0  0
  -27.1450  -27.3540   20.1090 C   0  0  0  0  0  0  0  0  0  0  0  0
  -23.3910  -30.5550   21.6010 C   0  0  0  0  0  3  0  0  0  0  0  0
  -24.8250  -29.0200   20.1320 C   0  0  0  0  0  0  0  0  0  0  0  0
  -25.9350  -30.8570   21.4020 C   0  0  0  0  0  2  0  0  0  0  0  0
  -26.0000  -29.4760   20.7430 C   0  0  0  0  0  0  0  0  0  0  0  0
  -27.1670  -28.6450   20.7300 C   0  0  0  0  0  3  0  0  0  0  0  0
  -25.9570  -26.9750   19.4500 C   0  0  0  0  0  3  0  0  0  0  0  0
  -24.8040  -27.7790   19.4770 C   0  0  0  0  0  3  0  0  0  0  0  0
  -23.5950  -29.8980   20.2120 C   0  0  0  0  0  2  0  0  0  0  0  0
  -24.6630  -31.1400   22.1340 N   0  0  0  0  0  0  0  0  0  0  0  0
  -23.5220  -32.2300   23.7730 O   0  0  0  0  0  0  0  0  0  0  0  0
  -22.7480  -29.5240   22.5560 C   0  0  0  0  0  0  0  0  0  0  0  0
  -21.4270  -29.3280   22.4320 N   0  0  0  0  0  0  0  0  0  0  0  0
  -23.4380  -28.9060   23.3730 O   0  0  0  0  0  0  0  0  0  0  0  0
  -20.9350  -29.8750   21.7400 H   0  0  0  0  0  0  0  0  0  0  0  0
  -18.0620  -28.0860   22.9240 C   0  0  0  0  0  0  0  0  0  0  0  0
  -20.6160  -28.3870   23.2050 C   0  0  0  0  0  3  0  0  0  0  0  0
  -20.7430  -26.9540   22.6350 C   0  0  0  0  0  2  0  0  0  0  0  0
  -19.6510  -26.6090   21.6180 C   0  0  0  0  0  2  0  0  0  0  0  0
  -18.2640  -26.7380   22.2560 C   0  0  0  0  0  2  0  0  0  0  0  0
  -19.1670  -28.8680   23.3560 C   0  0  0  0  0  0  0  0  0  0  0  0
  -18.9250  -30.1300   23.9420 C   0  0  0  0  0  3  0  0  0  0  0  0
  -17.6130  -30.6100   24.1040 C   0  0  0  0  0  3  0  0  0  0  0  0
  -16.5220  -29.8250   23.6880 C   0  0  0  0  0  3  0  0  0  0  0  0
  -16.7490  -28.5650   23.1040 C   0  0  0  0  0  3  0  0  0  0  0  0
  -25.8930  -32.5810   23.8500 C   0  0  0  0  0  3  0  0  0  0  0  0
  -25.5820  -33.9790   24.1860 N   0  0  0  0  0  0  0  0  0  0  0  0
  -25.9070  -35.0330   23.4290 C   0  0  0  0  0  0  0  0  0  0  0  0
  -26.5740  -34.9330   22.3950 O   0  0  0  0  0  0  0  0  0  0  0  0
  -24.9890  -34.1350   24.9890 H   0  0  0  0  0  0  0  0  0  0  0  0
  -24.1790  -36.8270   23.0840 C   0  0  0  0  0  1  0  0  0  0  0  0
  -25.4190  -36.4200   23.8940 C   0  0  0  0  0  3  0  0  0  0  0  0
  -27.5520  -37.2970   24.7350 C   0  0  0  0  0  1  0  0  0  0  0  0
  -26.4550  -37.4700   23.7870 N   0  0  0  0  0  0  0  0  0  0  0  0
  -26.0470  -38.3910   23.9360 H   0  0  0  0  0  0  0  0  0  0  0  0
  -26.4190  -31.8060   25.1200 C   0  0  1  0  0  0  0  0  0  0  0  0
  -25.3350  -31.5600   26.1960 C   0  0  0  0  0  1  0  0  0  0  0  0
  -27.0040  -30.4320   24.7180 C   0  0  0  0  0  1  0  0  0  0  0  0
  -27.5700  -32.6050   25.7770 C   0  0  0  0  0  1  0  0  0  0  0  0
  -30.0700  -18.7950   20.2300 C   0  0  0  0  0  2  0  0  0  0  0  0
  -29.5740  -17.3050   19.8240 C   0  0  0  0  0  2  0  0  0  0  0  0
  -30.8550  -14.9510   20.0090 C   0  0  0  0  0  0  0  0  0  0  0  0
  -30.6810  -12.6710   18.9510 C   0  0  0  0  0  2  0  0  0  0  0  0
  -29.6960  -12.7320   17.7600 C   0  0  0  0  0  2  0  0  0  0  0  0
  -28.2400  -12.5430   18.2220 C   0  0  0  0  0  2  0  0  0  0  0  0
  -27.9150  -13.4200   19.4580 C   0  0  0  0  0  3  0  0  0  0  0  0
  -28.9930  -13.2810   20.5490 C   0  0  0  0  0  2  0  0  0  0  0  0
  -30.2690  -13.6940   19.9500 N   0  0  0  0  0  0  0  0  0  0  0  0
  -31.9450  -15.1210   19.4550 O   0  0  0  0  0  0  0  0  0  0  0  0
  -29.7870  -16.0760   21.9520 C   0  0  0  0  0  1  0  0  0  0  0  0
  -30.1170  -16.0370   20.5190 N   0  0  0  0  0  0  0  0  0  0  0  0
  -25.5750  -14.0450   20.2880 C   0  0  0  0  0  0  0  0  0  0  0  0
  -24.5140  -13.2850   20.6950 C   0  0  0  0  0  0  0  0  0  0  0  0
  -24.9520  -11.9230   20.6270 C   0  0  0  0  0  0  0  0  0  0  0  0
  -26.5880  -13.1530   19.9900 N   0  0  0  0  0  0  0  0  0  0  0  0
  -26.2260  -11.8730   20.2610 N   0  0  0  0  0  0  0  0  0  0  0  0
  -24.2160  -10.6710   20.8340 C   0  0  0  0  0  0  0  0  0  0  0  0
  -24.6160   -9.7290   21.8110 C   0  0  0  0  0  3  0  0  0  0  0  0
  -23.8790   -8.5420   22.0050 C   0  0  0  0  0  3  0  0  0  0  0  0
  -22.7310   -8.2810   21.2190 C   0  0  0  0  0  0  0  0  0  0  0  0
  -22.3470   -9.2130   20.2360 C   0  0  0  0  0  3  0  0  0  0  0  0
  -23.0850  -10.3940   20.0400 C   0  0  0  0  0  3  0  0  0  0  0  0
  -21.9650   -7.1460   21.3230 O   0  0  0  0  0  0  0  0  0  0  0  0
  -21.8040   -6.4950   22.5190 C   0  0  0  0  0  0  0  0  0  0  0  0
  -21.2500   -7.1430   23.6470 C   0  0  0  0  0  3  0  0  0  0  0  0
  -21.0240   -6.4180   24.8340 C   0  0  0  0  0  3  0  0  0  0  0  0
  -21.3470   -5.0490   24.8970 C   0  0  0  0  0  0  0  0  0  0  0  0
  -21.8870   -4.4010   23.7730 C   0  0  0  0  0  3  0  0  0  0  0  0
  -22.1120   -5.1220   22.5870 C   0  0  0  0  0  0  0  0  0  0  0  0
  -22.6160   -4.4890   21.5000 F   0  0  0  0  0  0  0  0  0  0  0  0
  -21.1230   -4.3480   26.0340 F   0  0  0  0  0  0  0  0  0  0  0  0
  -23.1390  -13.7740   21.0430 C   0  0  0  0  0  0  0  0  0  0  0  0
  -22.4450  -13.0870   21.9400 N   0  0  0  0  0  0  0  0  0  0  0  0
  -22.6870  -14.8070   20.5440 O   0  0  0  0  0  0  0  0  0  0  0  0
  -22.8250  -12.2520   22.3630 H   0  0  0  0  0  0  0  0  0  0  0  0
  -21.5270  -13.4090   22.2190 H   0  0  0  0  0  0  0  0  0  0  0  0
  -25.7560  -15.4200   20.1260 N   0  0  0  0  0  0  0  0  0  0  0  0
  -25.0020  -16.0800   20.2730 H   0  0  0  0  0  0  0  0  0  0  0  0
  -26.5920  -15.8500   19.7610 H   0  0  0  0  0  0  0  0  0  0  0  0
  -30.5060  -21.6430   18.7930 C   0  0  0  0  0  2  0  0  0  0  0  0
  -32.5050  -21.2990   20.3480 C   0  0  0  0  0  1  0  0  0  0  0  0
  -31.4900  -23.5670   20.3240 C   0  0  0  0  0  1  0  0  0  0  0  0
  -31.7460  -22.2990   19.4770 C   0  0  0  0  0  3  0  0  0  0  0  0
  1  5  1  0
  2  1  2  0
  3 50  1  0
  3  5  1  0
  4  2  1  0
  4  3  1  0
  5  6  1  0
  7  2  1  0
  7  8  2  0
  9  8  1  0
 10 21  2  0
 11  9  1  0
 11 16  1  0
 12 20  1  0
 12 22  1  0
 13 19  1  0
 13 15  1  0
 14 20  1  0
 15 14  1  0
 16 15  2  0
 17 18  1  0
 17 11  2  0
 18 13  2  0
 19 12  1  0
 20 10  1  0
 22 24  2  0
 23 22  1  0
 25 23  1  0
 26 35  2  0
 26 31  1  0
 27 23  1  0
 27 31  1  0
 28 27  1  0
 29 30  1  0
 29 28  1  0
 30 26  1  0
 31 32  2  0
 32 33  1  0
 34 33  2  0
 35 34  1  0
 36 10  1  0
 36 37  1  0
 36 46  1  0
 37 40  1  0
 38 42  1  0
 38 37  1  0
 39 38  2  0
 42 41  1  0
 44 42  1  0
 44 45  1  0
 44 43  1  0
 46 49  1  1
 46 47  1  0
 48 46  1  0
 51 50  1  0
 51 61  1  0
 52 61  1  0
 53 58  1  0
 54 55  1  0
 54 53  1  0
 56 55  1  0
 56 65  1  0
 56 57  1  0
 58 52  1  0
 58 57  1  0
 59 52  2  0
 61 60  1  0
 62 63  2  0
 63 82  1  0
 64 63  1  0
 64 67  1  0
 65 66  1  0
 65 62  1  0
 66 64  2  0
 67 68  1  0
 68 69  2  0
 70 73  1  0
 70 69  1  0
 71 70  2  0
 72 71  1  0
 72 67  2  0
 73 74  1  0
 74 79  2  0
 74 75  1  0
 75 76  2  0
 76 77  1  0
 77 81  1  0
 78 77  2  0
 79 78  1  0
 80 79  1  0
 82 83  1  0
 83 86  1  0
 83 85  1  0
 84 82  2  0
 87 88  1  0
 87 62  1  0
 89 87  1  0
 90 93  1  0
 90  4  1  0
 93 92  1  0
 93 91  1  0
M  ISO  4   8 101   9 101  52 100  61 100
M  END
>  <TORSDO>  (85) 
F 22

>  <SCORE>  (85) 
-12.618

>  <name>  (85) 
86

>  <ligand_id>  (85) 
86

>  <original_smiles>  (85) 
[H]c1c([H])c([H])c2c(c1[H])C([H])([H])C([H])([H])C([H])([H])C2([H])N([H])C(=O)C1([H])N(C(=O)C([H])(N([H])C(=O)C([H])(N([H])C([H])([H])[H])C([H])([H])[H])C(C([H])([H])[H])(C([H])([H])[H])C([H])([H])[H])C([H])([H])c2c([H])c(OC([H])([H])C([H])([H])c3c([H])[n+]([H])c(C([H])([H])C([H])([H])N(C(=O)N4C([H])([H])C([H])([H])C([H])([H])C([H])(n5nc(-c6c([H])c([H])c(Oc7c([H])c([H])c(F)c([H])c7F)c([H])c6[H])c(C(=O)N([H])[H])c5N([H])[H])C4([H])[H])C([H])([H])[H])n3C([H])([H])C([H])(C([H])([H])[H])C([H])([H])[H])c([H])c([H])c2C1([H])[H]

>  <smiles>  (85) 
[H]c1c([H])c([H])c2c(c1[H])C([H])([H])C([H])([H])C([H])([H])C2([H])N([H])C(=O)C1([H])N(C(=O)C([H])(N([H])C(=O)C([H])(N([H])C([H])([H])[H])C([H])([H])[H])C(C([H])([H])[H])(C([H])([H])[H])C([H])([H])[H])C([H])([H])c2c([H])c(OC([H])([H])C([H])([H])c3c([H])[n+]([H])c(C([H])([H])C([H])([H])N(C(=O)N4C([H])([H])C([H])([H])C([H])([H])C([H])(n5nc(-c6c([H])c([H])c(Oc7c([H])c([H])c(F)c([H])c7F)c([H])c6[H])c(C(=O)N([H])[H])c5N([H])[H])C4([H])[H])C([H])([H])[H])n3C([H])([H])C([H])(C([H])([H])[H])C([H])([H])[H])c([H])c([H])c2C1([H])[H]

$$$$
88:0:0
     RDKit          3D

 94102  0  0  1  0  0  0  0  0999 V2000
  -29.8070  -22.7860   17.7790 C   0  0  0  0  0  3  0  0  0  0  0  0
  -29.9280  -24.1720   17.9550 C   0  0  0  0  0  3  0  0  0  0  0  0
  -30.3820  -22.5390   20.1150 C   0  0  0  0  0  3  0  0  0  0  0  0
  -30.0810  -21.9490   18.8730 C   0  0  0  0  0  0  0  0  0  0  0  0
  -30.2940  -24.6730   19.2160 C   0  0  0  0  0  0  0  0  0  0  0  0
  -30.4800  -23.8720   20.2910 N   0  0  0  0  0  0  0  0  0  0  0  0
  -30.1710  -20.4410   18.6780 C   0  0  0  0  0  2  0  0  0  0  0  0
  -27.7850  -20.2500   19.4290 C   0  0  0  0  0  1  0  0  0  0  0  0
  -29.1320  -19.6350   19.3630 N   0  0  2  0  0  4  0  0  0  0  0  0
  -29.0150  -18.8510   18.7390 H   0  0  0  0  0  0  0  0  0  0  0  0
  -29.5890  -18.9800   20.6130 C   0  0  0  0  0  2  0  0  0  0  0  0
  -29.7570  -17.4730   20.3450 C   0  0  0  0  0  2  0  0  0  0  0  0
  -30.2290  -16.6560   21.5580 C   0  0  0  0  0  2  0  0  0  0  0  0
  -30.6660  -14.3740   20.5560 C   0  0  0  0  0  0  0  0  0  0  0  0
  -30.3770  -12.2810   19.2720 C   0  0  0  0  0  2  0  0  0  0  0  0
  -29.4160  -12.5230   18.0880 C   0  0  0  0  0  2  0  0  0  0  0  0
  -27.9470  -12.3890   18.5190 C   0  0  0  0  0  2  0  0  0  0  0  0
  -27.6330  -13.1840   19.8140 C   0  0  0  0  0  3  0  0  0  0  0  0
  -28.6790  -12.8670   20.9040 C   0  0  0  0  0  2  0  0  0  0  0  0
  -30.0090  -13.2000   20.3560 N   0  0  0  0  0  0  0  0  0  0  0  0
  -31.7330  -14.6680   20.0040 O   0  0  0  0  0  0  0  0  0  0  0  0
  -29.9920  -15.2330   21.3380 N   0  0  0  0  0  0  0  0  0  0  0  0
  -29.1320  -14.8650   21.7150 H   0  0  0  0  0  0  0  0  0  0  0  0
  -25.2270  -13.8180   20.4780 C   0  0  0  0  0  0  0  0  0  0  0  0
  -24.1530  -13.0520   20.8480 C   0  0  0  0  0  0  0  0  0  0  0  0
  -24.6130  -11.7010   20.8370 C   0  0  0  0  0  0  0  0  0  0  0  0
  -26.2750  -12.9290   20.2760 N   0  0  0  0  0  0  0  0  0  0  0  0
  -25.9030  -11.6530   20.5430 N   0  0  0  0  0  0  0  0  0  0  0  0
  -23.8850  -10.4430   21.0390 C   0  0  0  0  0  0  0  0  0  0  0  0
  -24.3250   -9.4770   21.9670 C   0  0  0  0  0  3  0  0  0  0  0  0
  -23.5980   -8.2810   22.1580 C   0  0  0  0  0  3  0  0  0  0  0  0
  -22.4160   -8.0460   21.4160 C   0  0  0  0  0  0  0  0  0  0  0  0
  -21.9950   -9.0030   20.4740 C   0  0  0  0  0  3  0  0  0  0  0  0
  -22.7240  -10.1900   20.2850 C   0  0  0  0  0  3  0  0  0  0  0  0
  -21.6540   -6.9060   21.5140 O   0  0  0  0  0  0  0  0  0  0  0  0
  -21.6260   -6.1580   22.6640 C   0  0  0  0  0  0  0  0  0  0  0  0
  -21.2420   -6.7130   23.9040 C   0  0  0  0  0  3  0  0  0  0  0  0
  -21.1590   -5.8930   25.0480 C   0  0  0  0  0  3  0  0  0  0  0  0
  -21.4530   -4.5200   24.9500 C   0  0  0  0  0  0  0  0  0  0  0  0
  -21.8340   -3.9640   23.7150 C   0  0  0  0  0  3  0  0  0  0  0  0
  -21.9160   -4.7820   22.5740 C   0  0  0  0  0  0  0  0  0  0  0  0
  -22.2640   -4.2430   21.3820 F   0  0  0  0  0  0  0  0  0  0  0  0
  -21.3710   -3.7270   26.0440 F   0  0  0  0  0  0  0  0  0  0  0  0
  -22.7580  -13.5380   21.1110 C   0  0  0  0  0  0  0  0  0  0  0  0
  -22.0320  -12.8490   21.9880 N   0  0  0  0  0  0  0  0  0  0  0  0
  -22.3200  -14.5560   20.5810 O   0  0  0  0  0  0  0  0  0  0  0  0
  -22.4080  -12.0270   22.4380 H   0  0  0  0  0  0  0  0  0  0  0  0
  -21.0970  -13.1520   22.2160 H   0  0  0  0  0  0  0  0  0  0  0  0
  -25.3990  -15.1830   20.2840 N   0  0  0  0  0  0  0  0  0  0  0  0
  -24.6350  -15.8440   20.3810 H   0  0  0  0  0  0  0  0  0  0  0  0
  -26.2500  -15.6050   19.9320 H   0  0  0  0  0  0  0  0  0  0  0  0
  -30.5320  -26.1620   19.3950 C   0  0  0  0  0  2  0  0  0  0  0  0
  -29.2710  -26.9850   19.1290 C   0  0  0  0  0  2  0  0  0  0  0  0
  -28.3690  -26.7100   20.1790 O   0  0  0  0  0  0  0  0  0  0  0  0
  -24.6010  -31.8630   23.2210 C   0  0  0  0  0  0  0  0  0  0  0  0
  -27.2330  -27.4610   20.1470 C   0  0  0  0  0  0  0  0  0  0  0  0
  -23.3920  -30.4640   21.5740 C   0  0  0  0  0  3  0  0  0  0  0  0
  -24.8440  -28.9370   20.1460 C   0  0  0  0  0  0  0  0  0  0  0  0
  -25.9110  -30.8470   21.3630 C   0  0  0  0  0  2  0  0  0  0  0  0
  -25.9980  -29.4750   20.7310 C   0  0  0  0  0  0  0  0  0  0  0  0
  -27.2040  -28.7450   20.7240 C   0  0  0  0  0  3  0  0  0  0  0  0
  -26.0700  -26.9180   19.5710 C   0  0  0  0  0  3  0  0  0  0  0  0
  -24.8730  -27.6590   19.5590 C   0  0  0  0  0  3  0  0  0  0  0  0
  -23.6040  -29.8000   20.1880 C   0  0  0  0  0  2  0  0  0  0  0  0
  -24.6530  -31.0710   22.1140 N   0  0  0  0  0  0  0  0  0  0  0  0
  -23.5200  -32.1300   23.7660 O   0  0  0  0  0  0  0  0  0  0  0  0
  -22.7480  -29.4350   22.5310 C   0  0  0  0  0  0  0  0  0  0  0  0
  -21.4220  -29.2610   22.4180 N   0  0  0  0  0  0  0  0  0  0  0  0
  -23.4360  -28.8000   23.3360 O   0  0  0  0  0  0  0  0  0  0  0  0
  -20.9270  -29.8340   21.7480 H   0  0  0  0  0  0  0  0  0  0  0  0
  -18.0440  -28.0880   22.9400 C   0  0  0  0  0  0  0  0  0  0  0  0
  -20.6050  -28.3240   23.1920 C   0  0  0  0  0  3  0  0  0  0  0  0
  -20.6910  -26.8950   22.6100 C   0  0  0  0  0  2  0  0  0  0  0  0
  -19.5780  -26.5840   21.6040 C   0  0  0  0  0  2  0  0  0  0  0  0
  -18.2020  -26.7390   22.2600 C   0  0  0  0  0  2  0  0  0  0  0  0
  -19.1720  -28.8380   23.3660 C   0  0  0  0  0  0  0  0  0  0  0  0
  -18.9680  -30.1000   23.9660 C   0  0  0  0  0  3  0  0  0  0  0  0
  -17.6690  -30.6120   24.1420 C   0  0  0  0  0  3  0  0  0  0  0  0
  -16.5550  -29.8590   23.7290 C   0  0  0  0  0  3  0  0  0  0  0  0
  -16.7440  -28.5990   23.1350 C   0  0  0  0  0  3  0  0  0  0  0  0
  -25.8880  -32.4940   23.8390 C   0  0  0  0  0  3  0  0  0  0  0  0
  -25.5780  -33.8890   24.1770 N   0  0  0  0  0  0  0  0  0  0  0  0
  -25.9050  -34.9440   23.4190 C   0  0  0  0  0  0  0  0  0  0  0  0
  -26.5750  -34.8450   22.3870 O   0  0  0  0  0  0  0  0  0  0  0  0
  -24.9850  -34.0400   24.9820 H   0  0  0  0  0  0  0  0  0  0  0  0
  -24.1760  -36.7330   23.0620 C   0  0  0  0  0  1  0  0  0  0  0  0
  -25.4140  -36.3300   23.8780 C   0  0  0  0  0  3  0  0  0  0  0  0
  -27.5500  -37.2090   24.7140 C   0  0  0  0  0  1  0  0  0  0  0  0
  -26.4460  -37.3840   23.7730 N   0  0  0  0  0  0  0  0  0  0  0  0
  -26.0380  -38.3020   23.9310 H   0  0  0  0  0  0  0  0  0  0  0  0
  -26.4150  -31.7160   25.1050 C   0  0  1  0  0  0  0  0  0  0  0  0
  -25.3280  -31.4680   26.1790 C   0  0  0  0  0  1  0  0  0  0  0  0
  -26.9970  -30.3440   24.6940 C   0  0  0  0  0  1  0  0  0  0  0  0
  -27.5710  -32.5050   25.7640 C   0  0  0  0  0  1  0  0  0  0  0  0
  1  2  2  0
  1  4  1  0
  2  5  1  0
  3  6  1  0
  4  3  2  0
  5 52  1  0
  5  6  2  0
  7  4  1  0
  7  9  1  0
  9  8  1  0
  9 11  1  0
  9 10  1  6
 12 11  1  0
 12 13  1  0
 14 22  1  0
 15 20  1  0
 16 17  1  0
 16 15  1  0
 18 17  1  0
 18 27  1  0
 18 19  1  0
 20 14  1  0
 20 19  1  0
 21 14  2  0
 22 13  1  0
 22 23  1  0
 24 25  2  0
 25 44  1  0
 26 25  1  0
 26 29  1  0
 27 24  1  0
 27 28  1  0
 28 26  2  0
 29 30  1  0
 30 31  2  0
 32 35  1  0
 32 31  1  0
 33 32  2  0
 34 33  1  0
 34 29  2  0
 35 36  1  0
 36 37  1  0
 37 38  2  0
 39 38  1  0
 39 43  1  0
 40 39  2  0
 41 36  2  0
 41 40  1  0
 42 41  1  0
 44 45  1  0
 45 48  1  0
 45 47  1  0
 46 44  2  0
 49 50  1  0
 49 24  1  0
 51 49  1  0
 53 52  1  0
 53 54  1  0
 55 66  2  0
 56 54  1  0
 56 61  1  0
 57 65  1  0
 57 67  1  0
 58 64  1  0
 58 60  1  0
 59 65  1  0
 60 59  1  0
 61 60  2  0
 62 56  2  0
 63 62  1  0
 63 58  2  0
 64 57  1  0
 65 55  1  0
 67 69  2  0
 68 67  1  0
 70 68  1  0
 71 80  2  0
 71 76  1  0
 72 68  1  0
 72 76  1  0
 73 72  1  0
 74 75  1  0
 74 73  1  0
 75 71  1  0
 76 77  2  0
 77 78  1  0
 79 78  2  0
 80 79  1  0
 81 55  1  0
 81 82  1  0
 81 91  1  0
 82 85  1  0
 83 87  1  0
 83 82  1  0
 84 83  2  0
 87 86  1  0
 89 87  1  0
 89 90  1  0
 89 88  1  0
 91 94  1  1
 91 92  1  0
 93 91  1  0
M  ISO  4  14 100  22 100  53 101  54 101
M  END
>  <TORSDO>  (86) 
F 23

>  <SCORE>  (86) 
-12.815

>  <name>  (86) 
88

>  <ligand_id>  (86) 
88

>  <original_smiles>  (86) 
[H]c1nc(C([H])([H])C([H])([H])Oc2c([H])c([H])c3c(c2[H])C([H])([H])N(C(=O)C([H])(N([H])C(=O)C([H])(N([H])C([H])([H])[H])C([H])([H])[H])C(C([H])([H])[H])(C([H])([H])[H])C([H])([H])[H])C([H])(C(=O)N([H])C2([H])c4c([H])c([H])c([H])c([H])c4C([H])([H])C([H])([H])C2([H])[H])C3([H])[H])c([H])c([H])c1C([H])([H])[N+]([H])(C([H])([H])[H])C([H])([H])C([H])([H])C([H])([H])N([H])C(=O)N1C([H])([H])C([H])([H])C([H])([H])C([H])(n2nc(-c3c([H])c([H])c(Oc4c([H])c([H])c(F)c([H])c4F)c([H])c3[H])c(C(=O)N([H])[H])c2N([H])[H])C1([H])[H]

>  <smiles>  (86) 
[H]c1nc(C([H])([H])C([H])([H])Oc2c([H])c([H])c3c(c2[H])C([H])([H])N(C(=O)C([H])(N([H])C(=O)C([H])(N([H])C([H])([H])[H])C([H])([H])[H])C(C([H])([H])[H])(C([H])([H])[H])C([H])([H])[H])C([H])(C(=O)N([H])C2([H])c4c([H])c([H])c([H])c([H])c4C([H])([H])C([H])([H])C2([H])[H])C3([H])[H])c([H])c([H])c1C([H])([H])[N+]([H])(C([H])([H])[H])C([H])([H])C([H])([H])C([H])([H])N([H])C(=O)N1C([H])([H])C([H])([H])C([H])([H])C([H])(n2nc(-c3c([H])c([H])c(Oc4c([H])c([H])c(F)c([H])c4F)c([H])c3[H])c(C(=O)N([H])[H])c2N([H])[H])C1([H])[H]

$$$$
89:0:0
     RDKit          3D

 90 98  0  0  1  0  0  0  0  0999 V2000
  -28.7660  -18.9230   20.8540 C   0  0  0  0  0  3  0  0  0  0  0  0
  -29.7650  -18.4230   19.9720 C   0  0  0  0  0  0  0  0  0  0  0  0
  -30.0900  -20.6300   19.2260 C   0  0  0  0  0  0  0  0  0  0  0  0
  -29.0390  -21.1230   20.0510 C   0  0  0  0  0  0  0  0  0  0  0  0
  -30.7960  -21.5050   18.2090 C   0  0  0  0  0  1  0  0  0  0  0  0
  -28.4200  -20.2510   20.9010 N   0  0  0  0  0  0  0  0  0  0  0  0
  -30.4500  -19.3130   19.2030 N   0  0  0  0  0  0  0  0  0  0  0  0
  -28.3370  -22.5020   19.8030 C   0  0  0  0  0  2  0  0  0  0  0  0
  -28.8970  -23.8920   20.3230 C   0  0  0  0  0  2  0  0  0  0  0  0
  -27.9650  -25.0850   19.8640 C   0  0  0  0  0  2  0  0  0  0  0  0
  -28.2480  -26.5080   20.1390 O   0  0  0  0  0  0  0  0  0  0  0  0
  -24.6330  -31.9300   23.2030 C   0  0  0  0  0  0  0  0  0  0  0  0
  -27.1480  -27.3780   20.0810 C   0  0  0  0  0  0  0  0  0  0  0  0
  -23.3850  -30.5340   21.5980 C   0  0  0  0  0  3  0  0  0  0  0  0
  -24.7910  -28.9970   20.1300 C   0  0  0  0  0  0  0  0  0  0  0  0
  -25.9210  -30.8490   21.3500 C   0  0  0  0  0  2  0  0  0  0  0  0
  -25.9780  -29.4760   20.6990 C   0  0  0  0  0  0  0  0  0  0  0  0
  -27.1600  -28.6800   20.6670 C   0  0  0  0  0  3  0  0  0  0  0  0
  -25.9400  -26.9660   19.4640 C   0  0  0  0  0  3  0  0  0  0  0  0
  -24.7750  -27.7460   19.5030 C   0  0  0  0  0  3  0  0  0  0  0  0
  -23.5600  -29.8700   20.2100 C   0  0  0  0  0  2  0  0  0  0  0  0
  -24.6660  -31.1210   22.1060 N   0  0  0  0  0  0  0  0  0  0  0  0
  -23.5650  -32.2100   23.7650 O   0  0  0  0  0  0  0  0  0  0  0  0
  -22.7510  -29.5090   22.5700 C   0  0  0  0  0  0  0  0  0  0  0  0
  -21.4280  -29.3060   22.4540 N   0  0  0  0  0  0  0  0  0  0  0  0
  -23.4470  -28.9020   23.3900 O   0  0  0  0  0  0  0  0  0  0  0  0
  -20.9250  -29.8510   21.7680 H   0  0  0  0  0  0  0  0  0  0  0  0
  -18.0790  -28.0460   22.9690 C   0  0  0  0  0  0  0  0  0  0  0  0
  -20.6290  -28.3660   23.2400 C   0  0  0  0  0  3  0  0  0  0  0  0
  -20.7660  -26.9250   22.6970 C   0  0  0  0  0  2  0  0  0  0  0  0
  -19.6760  -26.5560   21.6870 C   0  0  0  0  0  2  0  0  0  0  0  0
  -18.2890  -26.6840   22.3250 C   0  0  0  0  0  2  0  0  0  0  0  0
  -19.1790  -28.8410   23.3850 C   0  0  0  0  0  0  0  0  0  0  0  0
  -18.9320  -30.1140   23.9470 C   0  0  0  0  0  3  0  0  0  0  0  0
  -17.6170  -30.5870   24.1030 C   0  0  0  0  0  3  0  0  0  0  0  0
  -16.5300  -29.7880   23.7070 C   0  0  0  0  0  3  0  0  0  0  0  0
  -16.7610  -28.5210   23.1420 C   0  0  0  0  0  3  0  0  0  0  0  0
  -25.9350  -32.5600   23.7880 C   0  0  0  0  0  3  0  0  0  0  0  0
  -26.4850  -31.7930   25.0530 C   0  0  1  0  0  0  0  0  0  0  0  0
  -25.4160  -31.5500   26.1440 C   0  0  0  0  0  1  0  0  0  0  0  0
  -27.0710  -30.4180   24.6540 C   0  0  0  0  0  1  0  0  0  0  0  0
  -27.6460  -32.5950   25.6890 C   0  0  0  0  0  1  0  0  0  0  0  0
  -25.6360  -33.9590   24.1200 N   0  0  0  0  0  0  0  0  0  0  0  0
  -25.9360  -35.0090   23.3430 C   0  0  0  0  0  0  0  0  0  0  0  0
  -26.5670  -34.9020   22.2880 O   0  0  0  0  0  0  0  0  0  0  0  0
  -25.0750  -34.1180   24.9430 H   0  0  0  0  0  0  0  0  0  0  0  0
  -24.1840  -36.7930   23.0520 C   0  0  0  0  0  1  0  0  0  0  0  0
  -25.4600  -36.3980   23.8120 C   0  0  0  0  0  3  0  0  0  0  0  0
  -27.6230  -37.3000   24.5490 C   0  0  0  0  0  1  0  0  0  0  0  0
  -26.4820  -37.4550   23.6490 N   0  0  0  0  0  0  0  0  0  0  0  0
  -26.0770  -38.3720   23.8110 H   0  0  0  0  0  0  0  0  0  0  0  0
  -29.9490  -16.9190   19.5630 C   0  0  0  0  0  2  0  0  0  0  0  0
  -30.8040  -14.6430   20.0990 C   0  0  0  0  0  0  0  0  0  0  0  0
  -30.4490  -12.4730   18.9440 C   0  0  0  0  0  2  0  0  0  0  0  0
  -29.4660  -12.6720   17.7680 C   0  0  0  0  0  2  0  0  0  0  0  0
  -28.0100  -12.5230   18.2500 C   0  0  0  0  0  2  0  0  0  0  0  0
  -27.7170  -13.3500   19.5290 C   0  0  0  0  0  3  0  0  0  0  0  0
  -28.8140  -13.1430   20.5980 C   0  0  0  0  0  2  0  0  0  0  0  0
  -30.1090  -13.4670   19.9830 N   0  0  0  0  0  0  0  0  0  0  0  0
  -31.9210  -14.7710   19.5880 O   0  0  0  0  0  0  0  0  0  0  0  0
  -29.9060  -15.9980   21.9330 C   0  0  0  0  0  1  0  0  0  0  0  0
  -30.1080  -15.7550   20.5030 N   0  0  0  0  0  0  0  0  0  0  0  0
  -25.3520  -13.9570   20.3270 C   0  0  0  0  0  0  0  0  0  0  0  0
  -24.2950  -13.1850   20.7270 C   0  0  0  0  0  0  0  0  0  0  0  0
  -24.7510  -11.8310   20.6780 C   0  0  0  0  0  0  0  0  0  0  0  0
  -26.3850  -13.0730   20.0560 N   0  0  0  0  0  0  0  0  0  0  0  0
  -26.0310  -11.7900   20.3250 N   0  0  0  0  0  0  0  0  0  0  0  0
  -24.0280  -10.5710   20.8870 C   0  0  0  0  0  0  0  0  0  0  0  0
  -24.4600   -9.6200   21.8380 C   0  0  0  0  0  3  0  0  0  0  0  0
  -23.7360   -8.4250   22.0340 C   0  0  0  0  0  3  0  0  0  0  0  0
  -22.5670   -8.1710   21.2790 C   0  0  0  0  0  0  0  0  0  0  0  0
  -22.1550   -9.1100   20.3170 C   0  0  0  0  0  3  0  0  0  0  0  0
  -22.8800  -10.2970   20.1190 C   0  0  0  0  0  3  0  0  0  0  0  0
  -21.8150   -7.0260   21.3840 O   0  0  0  0  0  0  0  0  0  0  0  0
  -21.7190   -6.3330   22.5640 C   0  0  0  0  0  0  0  0  0  0  0  0
  -21.2310   -6.9330   23.7440 C   0  0  0  0  0  3  0  0  0  0  0  0
  -21.0830   -6.1640   24.9160 C   0  0  0  0  0  3  0  0  0  0  0  0
  -21.4160   -4.7970   24.9090 C   0  0  0  0  0  0  0  0  0  0  0  0
  -21.8990   -4.1970   23.7330 C   0  0  0  0  0  3  0  0  0  0  0  0
  -22.0480   -4.9620   22.5620 C   0  0  0  0  0  0  0  0  0  0  0  0
  -22.4920   -4.3730   21.4270 F   0  0  0  0  0  0  0  0  0  0  0  0
  -21.2690   -4.0560   26.0320 F   0  0  0  0  0  0  0  0  0  0  0  0
  -22.9090  -13.6660   21.0480 C   0  0  0  0  0  0  0  0  0  0  0  0
  -22.2110  -12.9730   21.9400 N   0  0  0  0  0  0  0  0  0  0  0  0
  -22.4560  -14.6930   20.5430 O   0  0  0  0  0  0  0  0  0  0  0  0
  -22.5910  -12.1420   22.3700 H   0  0  0  0  0  0  0  0  0  0  0  0
  -21.2830  -13.2770   22.1970 H   0  0  0  0  0  0  0  0  0  0  0  0
  -25.5150  -15.3270   20.1500 N   0  0  0  0  0  0  0  0  0  0  0  0
  -24.7520  -15.9830   20.2850 H   0  0  0  0  0  0  0  0  0  0  0  0
  -26.3590  -15.7670   19.8060 H   0  0  0  0  0  0  0  0  0  0  0  0
  1  6  1  0
  2  1  2  0
  3  4  1  0
  4  6  2  0
  5  3  1  0
  7  3  2  0
  7  2  1  0
  8  4  1  0
  8  9  1  0
 10 11  1  0
 10  9  1  0
 12 23  2  0
 13 11  1  0
 13 18  1  0
 14 22  1  0
 14 24  1  0
 15 21  1  0
 15 17  1  0
 16 22  1  0
 17 16  1  0
 18 17  2  0
 19 20  1  0
 19 13  2  0
 20 15  2  0
 21 14  1  0
 22 12  1  0
 24 26  2  0
 25 24  1  0
 27 25  1  0
 28 37  2  0
 28 33  1  0
 29 25  1  0
 29 33  1  0
 30 29  1  0
 31 32  1  0
 31 30  1  0
 32 28  1  0
 33 34  2  0
 34 35  1  0
 36 35  2  0
 37 36  1  0
 38 12  1  0
 38 43  1  0
 38 39  1  0
 39 42  1  1
 39 40  1  0
 41 39  1  0
 43 46  1  0
 44 48  1  0
 44 43  1  0
 45 44  2  0
 48 47  1  0
 50 51  1  0
 50 48  1  0
 50 49  1  0
 52  2  1  0
 52 62  1  0
 53 62  1  0
 54 59  1  0
 55 56  1  0
 55 54  1  0
 57 56  1  0
 57 66  1  0
 57 58  1  0
 59 53  1  0
 59 58  1  0
 60 53  2  0
 62 61  1  0
 63 64  2  0
 64 83  1  0
 65 64  1  0
 65 68  1  0
 66 67  1  0
 66 63  1  0
 67 65  2  0
 68 69  1  0
 69 70  2  0
 71 74  1  0
 71 70  1  0
 72 71  2  0
 73 72  1  0
 73 68  2  0
 74 75  1  0
 75 76  1  0
 76 77  2  0
 78 77  1  0
 78 82  1  0
 79 78  2  0
 80 75  2  0
 80 79  1  0
 81 80  1  0
 83 84  1  0
 84 87  1  0
 84 86  1  0
 85 83  2  0
 88 89  1  0
 88 63  1  0
 90 88  1  0
M  ISO  4  10 101  11 101  53 100  62 100
M  END
>  <TORSDO>  (87) 
F 20

>  <SCORE>  (87) 
-13.220

>  <name>  (87) 
89

>  <ligand_id>  (87) 
89

>  <original_smiles>  (87) 
[H]c1nc(C([H])([H])C([H])([H])C([H])([H])Oc2c([H])c([H])c3c(c2[H])C([H])([H])N(C(=O)C([H])(N([H])C(=O)C([H])(N([H])C([H])([H])[H])C([H])([H])[H])C(C([H])([H])[H])(C([H])([H])[H])C([H])([H])[H])C([H])(C(=O)N([H])C2([H])c4c([H])c([H])c([H])c([H])c4C([H])([H])C([H])([H])C2([H])[H])C3([H])[H])c(C([H])([H])[H])nc1C([H])([H])N(C(=O)N1C([H])([H])C([H])([H])C([H])([H])C([H])(n2nc(-c3c([H])c([H])c(Oc4c([H])c([H])c(F)c([H])c4F)c([H])c3[H])c(C(=O)N([H])[H])c2N([H])[H])C1([H])[H])C([H])([H])[H]

>  <smiles>  (87) 
[H]c1nc(C([H])([H])C([H])([H])C([H])([H])Oc2c([H])c([H])c3c(c2[H])C([H])([H])N(C(=O)C([H])(N([H])C(=O)C([H])(N([H])C([H])([H])[H])C([H])([H])[H])C(C([H])([H])[H])(C([H])([H])[H])C([H])([H])[H])C([H])(C(=O)N([H])C2([H])c4c([H])c([H])c([H])c([H])c4C([H])([H])C([H])([H])C2([H])[H])C3([H])[H])c(C([H])([H])[H])nc1C([H])([H])N(C(=O)N1C([H])([H])C([H])([H])C([H])([H])C([H])(n2nc(-c3c([H])c([H])c(Oc4c([H])c([H])c(F)c([H])c4F)c([H])c3[H])c(C(=O)N([H])[H])c2N([H])[H])C1([H])[H])C([H])([H])[H]

$$$$
90:0:0
     RDKit          3D

 93101  0  0  1  0  0  0  0  0999 V2000
  -29.1120  -22.4590   19.6500 C   0  0  0  0  0  3  0  0  0  0  0  0
  -30.2080  -21.5440   19.4990 C   0  0  0  0  0  0  0  0  0  0  0  0
  -29.3470  -23.8740   19.7670 C   0  0  0  0  0  0  0  0  0  0  0  0
  -31.5910  -23.4030   19.6170 C   0  0  0  0  0  0  0  0  0  0  0  0
  -33.0050  -23.9380   19.5690 C   0  0  0  0  0  1  0  0  0  0  0  0
  -31.4440  -22.0830   19.4700 N   0  0  0  0  0  0  0  0  0  0  0  0
  -30.6220  -24.3080   19.7560 N   0  0  0  0  0  0  0  0  0  0  0  0
  -30.0830  -19.9970   19.1160 C   0  0  0  0  0  2  0  0  0  0  0  0
  -31.0190  -19.2260   21.4030 C   0  0  0  0  0  1  0  0  0  0  0  0
  -30.2240  -18.7530   20.1620 C   0  0  1  0  0  0  0  0  0  0  0  0
  -27.7840  -19.4650   20.8150 C   0  0  0  0  0  1  0  0  0  0  0  0
  -28.8060  -18.3270   20.6370 C   0  0  0  0  0  2  0  0  0  0  0  0
  -31.0380  -17.4310   19.6360 C   0  0  0  0  0  2  0  0  0  0  0  0
  -31.1660  -14.8750   19.7190 C   0  0  0  0  0  0  0  0  0  0  0  0
  -31.0140  -12.4300   19.2400 C   0  0  0  0  0  2  0  0  0  0  0  0
  -30.0850  -12.1490   18.0420 C   0  0  0  0  0  2  0  0  0  0  0  0
  -28.6200  -12.0280   18.5030 C   0  0  0  0  0  2  0  0  0  0  0  0
  -28.1920  -13.1530   19.4800 C   0  0  0  0  0  3  0  0  0  0  0  0
  -29.2500  -13.4200   20.5730 C   0  0  0  0  0  2  0  0  0  0  0  0
  -30.5310  -13.6640   19.9000 N   0  0  0  0  0  0  0  0  0  0  0  0
  -32.3870  -14.8960   19.5410 O   0  0  0  0  0  0  0  0  0  0  0  0
  -29.6200  -16.0390   18.2480 C   0  0  0  0  0  1  0  0  0  0  0  0
  -30.4270  -16.0390   19.4810 N   0  0  0  0  0  0  0  0  0  0  0  0
  -25.8830  -13.8610   20.3340 C   0  0  0  0  0  0  0  0  0  0  0  0
  -24.7900  -13.1380   20.7270 C   0  0  0  0  0  0  0  0  0  0  0  0
  -25.1750  -11.7650   20.6450 C   0  0  0  0  0  0  0  0  0  0  0  0
  -26.8630  -12.9290   20.0330 N   0  0  0  0  0  0  0  0  0  0  0  0
  -26.4490  -11.6630   20.2870 N   0  0  0  0  0  0  0  0  0  0  0  0
  -24.3870  -10.5400   20.8270 C   0  0  0  0  0  0  0  0  0  0  0  0
  -24.7230   -9.5900   21.8180 C   0  0  0  0  0  3  0  0  0  0  0  0
  -23.9410   -8.4280   21.9860 C   0  0  0  0  0  3  0  0  0  0  0  0
  -22.8100   -8.2090   21.1650 C   0  0  0  0  0  0  0  0  0  0  0  0
  -22.4940   -9.1460   20.1670 C   0  0  0  0  0  3  0  0  0  0  0  0
  -23.2760  -10.3000   19.9950 C   0  0  0  0  0  3  0  0  0  0  0  0
  -22.0050   -7.0960   21.2430 O   0  0  0  0  0  0  0  0  0  0  0  0
  -21.7430   -6.4800   22.4400 C   0  0  0  0  0  0  0  0  0  0  0  0
  -21.1270   -7.1630   23.5110 C   0  0  0  0  0  3  0  0  0  0  0  0
  -20.8130   -6.4730   24.6990 C   0  0  0  0  0  3  0  0  0  0  0  0
  -21.1070   -5.1010   24.8160 C   0  0  0  0  0  0  0  0  0  0  0  0
  -21.7170   -4.4180   23.7480 C   0  0  0  0  0  3  0  0  0  0  0  0
  -22.0320   -5.1060   22.5630 C   0  0  0  0  0  0  0  0  0  0  0  0
  -22.5980   -4.4400   21.5290 F   0  0  0  0  0  0  0  0  0  0  0  0
  -20.8000   -4.4350   25.9530 F   0  0  0  0  0  0  0  0  0  0  0  0
  -23.4330  -13.6840   21.0650 C   0  0  0  0  0  0  0  0  0  0  0  0
  -22.7090  -13.0130   21.9520 N   0  0  0  0  0  0  0  0  0  0  0  0
  -23.0280  -14.7390   20.5770 O   0  0  0  0  0  0  0  0  0  0  0  0
  -23.0490  -12.1590   22.3690 H   0  0  0  0  0  0  0  0  0  0  0  0
  -21.7990  -13.3620   22.2230 H   0  0  0  0  0  0  0  0  0  0  0  0
  -26.1220  -15.2250   20.1810 N   0  0  0  0  0  0  0  0  0  0  0  0
  -25.4120  -15.9310   20.3360 H   0  0  0  0  0  0  0  0  0  0  0  0
  -27.0010  -15.6090   19.8620 H   0  0  0  0  0  0  0  0  0  0  0  0
  -28.1930  -24.9570   19.8480 C   0  0  0  0  0  2  0  0  0  0  0  0
  -28.4490  -26.4300   19.9730 O   0  0  0  0  0  0  0  0  0  0  0  0
  -24.6320  -31.7490   23.0800 C   0  0  0  0  0  0  0  0  0  0  0  0
  -27.3220  -27.2840   19.9250 C   0  0  0  0  0  0  0  0  0  0  0  0
  -23.4410  -30.3260   21.4530 C   0  0  0  0  0  3  0  0  0  0  0  0
  -24.9100  -28.8450   19.9740 C   0  0  0  0  0  0  0  0  0  0  0  0
  -25.9670  -30.7250   21.2200 C   0  0  0  0  0  2  0  0  0  0  0  0
  -26.0780  -29.3560   20.5540 C   0  0  0  0  0  0  0  0  0  0  0  0
  -27.2860  -28.5900   20.5190 C   0  0  0  0  0  3  0  0  0  0  0  0
  -26.1250  -26.8440   19.3090 C   0  0  0  0  0  3  0  0  0  0  0  0
  -24.9380  -27.5970   19.3400 C   0  0  0  0  0  3  0  0  0  0  0  0
  -23.6460  -29.6760   20.0600 C   0  0  0  0  0  2  0  0  0  0  0  0
  -24.7000  -30.9510   21.9730 N   0  0  0  0  0  0  0  0  0  0  0  0
  -23.5510  -31.9850   23.6400 O   0  0  0  0  0  0  0  0  0  0  0  0
  -22.8340  -29.2770   22.4160 C   0  0  0  0  0  0  0  0  0  0  0  0
  -21.5230  -29.0170   22.2800 N   0  0  0  0  0  0  0  0  0  0  0  0
  -23.5420  -28.7020   23.2460 O   0  0  0  0  0  0  0  0  0  0  0  0
  -21.0060  -29.5360   21.5830 H   0  0  0  0  0  0  0  0  0  0  0  0
  -18.2370  -27.5640   22.7130 C   0  0  0  0  0  0  0  0  0  0  0  0
  -20.7560  -28.0390   23.0540 C   0  0  0  0  0  3  0  0  0  0  0  0
  -20.9920  -26.6040   22.5270 C   0  0  0  0  0  2  0  0  0  0  0  0
  -19.9540  -26.1640   21.4900 C   0  0  0  0  0  2  0  0  0  0  0  0
  -18.5440  -26.2160   22.0840 C   0  0  0  0  0  2  0  0  0  0  0  0
  -19.2760  -28.4260   23.1550 C   0  0  0  0  0  0  0  0  0  0  0  0
  -18.9370  -29.6830   23.7010 C   0  0  0  0  0  3  0  0  0  0  0  0
  -17.5910  -30.0800   23.8130 C   0  0  0  0  0  3  0  0  0  0  0  0
  -16.5650  -29.2160   23.3890 C   0  0  0  0  0  3  0  0  0  0  0  0
  -16.8900  -27.9600   22.8450 C   0  0  0  0  0  3  0  0  0  0  0  0
  -25.9060  -32.4200   23.6790 C   0  0  0  0  0  3  0  0  0  0  0  0
  -25.5480  -33.7960   24.0530 N   0  0  0  0  0  0  0  0  0  0  0  0
  -25.8520  -34.8840   23.3330 C   0  0  0  0  0  0  0  0  0  0  0  0
  -26.5300  -34.8380   22.3040 O   0  0  0  0  0  0  0  0  0  0  0  0
  -24.9440  -33.9030   24.8540 H   0  0  0  0  0  0  0  0  0  0  0  0
  -24.0810  -36.6430   23.0170 C   0  0  0  0  0  1  0  0  0  0  0  0
  -25.3180  -36.2400   23.8350 C   0  0  0  0  0  3  0  0  0  0  0  0
  -27.4110  -37.1500   24.7410 C   0  0  0  0  0  1  0  0  0  0  0  0
  -26.3230  -37.3250   23.7830 N   0  0  0  0  0  0  0  0  0  0  0  0
  -25.8880  -38.2270   23.9590 H   0  0  0  0  0  0  0  0  0  0  0  0
  -26.4910  -31.6410   24.9210 C   0  0  1  0  0  0  0  0  0  0  0  0
  -25.4400  -31.3260   26.0110 C   0  0  0  0  0  1  0  0  0  0  0  0
  -27.1260  -30.3030   24.4790 C   0  0  0  0  0  1  0  0  0  0  0  0
  -27.6210  -32.4730   25.5730 C   0  0  0  0  0  1  0  0  0  0  0  0
  1  3  1  0
  2  1  2  0
  3 52  1  0
  4  7  1  0
  5  4  1  0
  6  2  1  0
  6  4  2  0
  7  3  2  0
  8  2  1  0
  8 10  1  0
 10 12  1  0
 10  9  1  1
 12 11  1  0
 13 10  1  0
 14 20  1  0
 15 20  1  0
 16 17  1  0
 16 15  1  0
 18 17  1  0
 18 27  1  0
 18 19  1  0
 20 19  1  0
 21 14  2  0
 22 23  1  0
 23 13  1  0
 23 14  1  0
 24 25  2  0
 25 44  1  0
 26 25  1  0
 26 29  1  0
 27 28  1  0
 27 24  1  0
 28 26  2  0
 29 30  1  0
 30 31  2  0
 32 35  1  0
 32 31  1  0
 33 32  2  0
 34 33  1  0
 34 29  2  0
 35 36  1  0
 36 41  2  0
 36 37  1  0
 37 38  2  0
 38 39  1  0
 39 43  1  0
 40 39  2  0
 41 40  1  0
 42 41  1  0
 44 45  1  0
 45 48  1  0
 45 47  1  0
 46 44  2  0
 49 24  1  0
 49 50  1  0
 51 49  1  0
 52 53  1  0
 54 65  2  0
 55 53  1  0
 55 60  1  0
 56 64  1  0
 56 66  1  0
 57 63  1  0
 57 59  1  0
 58 64  1  0
 59 58  1  0
 60 59  2  0
 61 62  1  0
 61 55  2  0
 62 57  2  0
 63 56  1  0
 64 54  1  0
 66 68  2  0
 67 66  1  0
 69 67  1  0
 70 79  2  0
 70 75  1  0
 71 67  1  0
 71 75  1  0
 72 71  1  0
 73 74  1  0
 73 72  1  0
 74 70  1  0
 75 76  2  0
 76 77  1  0
 78 77  2  0
 79 78  1  0
 80 54  1  0
 80 81  1  0
 80 90  1  0
 81 84  1  0
 82 86  1  0
 82 81  1  0
 83 82  2  0
 86 85  1  0
 88 86  1  0
 88 89  1  0
 88 87  1  0
 90 93  1  1
 90 91  1  0
 92 90  1  0
M  ISO  4  14 100  23 100  52 101  53 101
M  END
>  <TORSDO>  (88) 
F 21

>  <SCORE>  (88) 
-11.434

>  <name>  (88) 
90

>  <ligand_id>  (88) 
90

>  <original_smiles>  (88) 
[H]c1c(C([H])([H])Oc2c([H])c([H])c3c(c2[H])C([H])([H])N(C(=O)C([H])(N([H])C(=O)C([H])(N([H])C([H])([H])[H])C([H])([H])[H])C(C([H])([H])[H])(C([H])([H])[H])C([H])([H])[H])C([H])(C(=O)N([H])C2([H])c4c([H])c([H])c([H])c([H])c4C([H])([H])C([H])([H])C2([H])[H])C3([H])[H])nc(C([H])([H])[H])nc1C([H])([H])C(C([H])([H])[H])(C([H])([H])N(C(=O)N1C([H])([H])C([H])([H])C([H])([H])C([H])(n2nc(-c3c([H])c([H])c(Oc4c([H])c([H])c(F)c([H])c4F)c([H])c3[H])c(C(=O)N([H])[H])c2N([H])[H])C1([H])[H])C([H])([H])[H])C([H])([H])C([H])([H])[H]

>  <smiles>  (88) 
[H]c1c(C([H])([H])Oc2c([H])c([H])c3c(c2[H])C([H])([H])N(C(=O)C([H])(N([H])C(=O)C([H])(N([H])C([H])([H])[H])C([H])([H])[H])C(C([H])([H])[H])(C([H])([H])[H])C([H])([H])[H])C([H])(C(=O)N([H])C2([H])c4c([H])c([H])c([H])c([H])c4C([H])([H])C([H])([H])C2([H])[H])C3([H])[H])nc(C([H])([H])[H])nc1C([H])([H])C(C([H])([H])[H])(C([H])([H])N(C(=O)N1C([H])([H])C([H])([H])C([H])([H])C([H])(n2nc(-c3c([H])c([H])c(Oc4c([H])c([H])c(F)c([H])c4F)c([H])c3[H])c(C(=O)N([H])[H])c2N([H])[H])C1([H])[H])C([H])([H])[H])C([H])([H])C([H])([H])[H]

$$$$
91:0:0
     RDKit          3D

 96104  0  0  1  0  0  0  0  0999 V2000
  -30.0530  -22.0940   16.3310 C   0  0  0  0  0  3  0  0  0  0  0  0
  -30.4380  -23.1400   17.1750 C   0  0  0  0  0  3  0  0  0  0  0  0
  -29.6090  -20.8910   16.9020 C   0  0  0  0  0  0  0  0  0  0  0  0
  -30.3280  -22.9870   18.5700 C   0  0  0  0  0  0  0  0  0  0  0  0
  -29.6080  -20.7660   18.3130 C   0  0  0  0  0  0  0  0  0  0  0  0
  -29.1270  -19.7880   15.9660 C   0  0  0  0  0  1  0  0  0  0  0  0
  -29.9540  -21.8040   19.1250 N   0  0  0  0  0  0  0  0  0  0  0  0
  -30.6700  -24.1470   19.5200 C   0  0  0  0  0  2  0  0  0  0  0  0
  -31.1580  -26.6740   19.6730 C   0  0  0  0  0  1  0  0  0  0  0  0
  -30.3130  -25.5760   19.0000 C   0  0  0  0  0  3  0  0  0  0  0  0
  -28.8010  -25.9090   19.0150 C   0  0  0  0  0  2  0  0  0  0  0  0
  -28.4590  -26.6690   20.1730 O   0  0  0  0  0  0  0  0  0  0  0  0
  -24.6370  -31.8380   23.1980 C   0  0  0  0  0  0  0  0  0  0  0  0
  -27.2720  -27.3670   20.1520 C   0  0  0  0  0  0  0  0  0  0  0  0
  -23.4230  -30.4220   21.5720 C   0  0  0  0  0  3  0  0  0  0  0  0
  -24.8690  -28.8610   20.1640 C   0  0  0  0  0  0  0  0  0  0  0  0
  -25.9470  -30.7690   21.3690 C   0  0  0  0  0  2  0  0  0  0  0  0
  -26.0250  -29.3890   20.7500 C   0  0  0  0  0  0  0  0  0  0  0  0
  -27.2230  -28.6430   20.7550 C   0  0  0  0  0  3  0  0  0  0  0  0
  -26.0960  -26.8430   19.5670 C   0  0  0  0  0  3  0  0  0  0  0  0
  -24.8970  -27.5830   19.5760 C   0  0  0  0  0  3  0  0  0  0  0  0
  -23.6270  -29.7230   20.2010 C   0  0  0  0  0  2  0  0  0  0  0  0
  -24.6860  -31.0260   22.1040 N   0  0  0  0  0  0  0  0  0  0  0  0
  -23.5590  -32.1220   23.7360 O   0  0  0  0  0  0  0  0  0  0  0  0
  -22.7690  -29.4150   22.5470 C   0  0  0  0  0  0  0  0  0  0  0  0
  -21.4410  -29.2510   22.4330 N   0  0  0  0  0  0  0  0  0  0  0  0
  -23.4520  -28.7860   23.3570 O   0  0  0  0  0  0  0  0  0  0  0  0
  -20.9520  -29.8100   21.7480 H   0  0  0  0  0  0  0  0  0  0  0  0
  -18.0560  -28.1110   22.9730 C   0  0  0  0  0  0  0  0  0  0  0  0
  -20.6200  -28.3300   23.2180 C   0  0  0  0  0  3  0  0  0  0  0  0
  -20.6950  -26.8950   22.6480 C   0  0  0  0  0  2  0  0  0  0  0  0
  -19.5770  -26.5840   21.6460 C   0  0  0  0  0  2  0  0  0  0  0  0
  -18.2050  -26.7540   22.3040 C   0  0  0  0  0  2  0  0  0  0  0  0
  -19.1910  -28.8570   23.3880 C   0  0  0  0  0  0  0  0  0  0  0  0
  -18.9980  -30.1270   23.9740 C   0  0  0  0  0  3  0  0  0  0  0  0
  -17.7030  -30.6500   24.1500 C   0  0  0  0  0  3  0  0  0  0  0  0
  -16.5830  -29.9010   23.7520 C   0  0  0  0  0  3  0  0  0  0  0  0
  -16.7600  -28.6330   23.1690 C   0  0  0  0  0  3  0  0  0  0  0  0
  -25.9280  -32.4690   23.8070 C   0  0  0  0  0  3  0  0  0  0  0  0
  -25.6190  -33.8640   24.1500 N   0  0  0  0  0  0  0  0  0  0  0  0
  -25.9360  -34.9210   23.3910 C   0  0  0  0  0  0  0  0  0  0  0  0
  -26.5910  -34.8260   22.3500 O   0  0  0  0  0  0  0  0  0  0  0  0
  -25.0340  -34.0120   24.9590 H   0  0  0  0  0  0  0  0  0  0  0  0
  -24.1880  -36.7020   23.0760 C   0  0  0  0  0  1  0  0  0  0  0  0
  -25.4480  -36.3040   23.8630 C   0  0  0  0  0  3  0  0  0  0  0  0
  -27.5940  -37.1970   24.6530 C   0  0  0  0  0  1  0  0  0  0  0  0
  -26.4720  -37.3640   23.7340 N   0  0  0  0  0  0  0  0  0  0  0  0
  -26.0630  -38.2810   23.8960 H   0  0  0  0  0  0  0  0  0  0  0  0
  -26.4670  -31.6910   25.0700 C   0  0  1  0  0  0  0  0  0  0  0  0
  -25.3890  -31.4400   26.1490 C   0  0  0  0  0  1  0  0  0  0  0  0
  -27.0490  -30.3180   24.6560 C   0  0  0  0  0  1  0  0  0  0  0  0
  -27.6240  -32.4840   25.7210 C   0  0  0  0  0  1  0  0  0  0  0  0
  -29.2510  -19.4360   19.0010 C   0  0  0  0  0  2  0  0  0  0  0  0
  -31.5230  -18.5890   18.3450 C   0  0  0  0  0  1  0  0  0  0  0  0
  -30.4170  -18.5640   19.3420 N   0  0  2  0  0  4  0  0  0  0  0  0
  -30.7830  -18.9820   20.1830 H   0  0  0  0  0  0  0  0  0  0  0  0
  -30.0150  -17.1600   19.6580 C   0  0  0  0  0  2  0  0  0  0  0  0
  -30.9490  -16.4800   20.6990 C   0  0  0  0  0  2  0  0  0  0  0  0
  -31.0010  -14.1380   19.9540 C   0  0  0  0  0  0  0  0  0  0  0  0
  -30.3940  -12.1020   18.6860 C   0  0  0  0  0  2  0  0  0  0  0  0
  -29.3750  -12.4210   17.5750 C   0  0  0  0  0  2  0  0  0  0  0  0
  -27.9400  -12.3300   18.1260 C   0  0  0  0  0  2  0  0  0  0  0  0
  -27.7580  -13.1330   19.4410 C   0  0  0  0  0  3  0  0  0  0  0  0
  -28.8880  -12.8230   20.4490 C   0  0  0  0  0  2  0  0  0  0  0  0
  -30.1900  -13.0530   19.7950 N   0  0  0  0  0  0  0  0  0  0  0  0
  -31.9470  -14.3680   19.1940 O   0  0  0  0  0  0  0  0  0  0  0  0
  -30.9510  -14.6400   22.3040 C   0  0  0  0  0  1  0  0  0  0  0  0
  -30.6740  -15.0370   20.9180 N   0  0  0  0  0  0  0  0  0  0  0  0
  -25.4470  -13.8190   20.3480 C   0  0  0  0  0  0  0  0  0  0  0  0
  -24.3840  -13.0830   20.7920 C   0  0  0  0  0  0  0  0  0  0  0  0
  -24.7870  -11.7150   20.7100 C   0  0  0  0  0  0  0  0  0  0  0  0
  -26.4380  -12.9040   20.0230 N   0  0  0  0  0  0  0  0  0  0  0  0
  -26.0470  -11.6330   20.2980 N   0  0  0  0  0  0  0  0  0  0  0  0
  -24.0310  -10.4800   20.9420 C   0  0  0  0  0  0  0  0  0  0  0  0
  -24.4890   -9.4920   21.8430 C   0  0  0  0  0  3  0  0  0  0  0  0
  -23.7330   -8.3210   22.0640 C   0  0  0  0  0  3  0  0  0  0  0  0
  -22.5050   -8.1290   21.3860 C   0  0  0  0  0  0  0  0  0  0  0  0
  -22.0660   -9.1030   20.4730 C   0  0  0  0  0  3  0  0  0  0  0  0
  -22.8220  -10.2670   20.2500 C   0  0  0  0  0  3  0  0  0  0  0  0
  -21.7180   -7.0120   21.5200 O   0  0  0  0  0  0  0  0  0  0  0  0
  -21.7030   -6.2780   22.6780 C   0  0  0  0  0  0  0  0  0  0  0  0
  -21.3740   -6.8550   23.9230 C   0  0  0  0  0  3  0  0  0  0  0  0
  -21.3000   -6.0470   25.0770 C   0  0  0  0  0  3  0  0  0  0  0  0
  -21.5470   -4.6640   24.9870 C   0  0  0  0  0  0  0  0  0  0  0  0
  -21.8710   -4.0870   23.7460 C   0  0  0  0  0  3  0  0  0  0  0  0
  -21.9450   -4.8910   22.5950 C   0  0  0  0  0  0  0  0  0  0  0  0
  -22.2380   -4.3260   21.4000 F   0  0  0  0  0  0  0  0  0  0  0  0
  -21.4670   -3.8870   26.0920 F   0  0  0  0  0  0  0  0  0  0  0  0
  -23.0330  -13.6100   21.1820 C   0  0  0  0  0  0  0  0  0  0  0  0
  -22.3600  -12.9380   22.1090 N   0  0  0  0  0  0  0  0  0  0  0  0
  -22.5900  -14.6510   20.7000 O   0  0  0  0  0  0  0  0  0  0  0  0
  -22.7350  -12.0970   22.5230 H   0  0  0  0  0  0  0  0  0  0  0  0
  -21.4530  -13.2680   22.4090 H   0  0  0  0  0  0  0  0  0  0  0  0
  -25.6440  -15.1840   20.1720 N   0  0  0  0  0  0  0  0  0  0  0  0
  -24.9120  -15.8560   20.3780 H   0  0  0  0  0  0  0  0  0  0  0  0
  -26.4690  -15.6020   19.7650 H   0  0  0  0  0  0  0  0  0  0  0  0
  1  3  2  0
  1  2  1  0
  2  4  2  0
  3  5  1  0
  4  7  1  0
  4  8  1  0
  5 53  1  0
  5  7  2  0
  6  3  1  0
 10 11  1  0
 10  8  1  0
 10  9  1  0
 11 12  1  0
 13 24  2  0
 14 12  1  0
 14 19  1  0
 15 23  1  0
 15 25  1  0
 16 22  1  0
 16 18  1  0
 17 23  1  0
 18 19  2  0
 18 17  1  0
 20 21  1  0
 20 14  2  0
 21 16  2  0
 22 15  1  0
 23 13  1  0
 25 27  2  0
 26 25  1  0
 28 26  1  0
 29 38  2  0
 29 34  1  0
 30 26  1  0
 30 34  1  0
 31 30  1  0
 32 33  1  0
 32 31  1  0
 33 29  1  0
 34 35  2  0
 35 36  1  0
 37 36  2  0
 38 37  1  0
 39 13  1  0
 39 40  1  0
 39 49  1  0
 40 43  1  0
 41 45  1  0
 41 40  1  0
 42 41  2  0
 45 44  1  0
 47 45  1  0
 47 48  1  0
 47 46  1  0
 49 52  1  1
 49 50  1  0
 51 49  1  0
 53 55  1  0
 54 55  1  0
 55 57  1  0
 55 56  1  1
 57 58  1  0
 58 68  1  0
 59 68  1  0
 60 65  1  0
 61 62  1  0
 61 60  1  0
 63 62  1  0
 63 72  1  0
 63 64  1  0
 65 59  1  0
 65 64  1  0
 66 59  2  0
 68 67  1  0
 69 70  2  0
 70 89  1  0
 71 70  1  0
 71 74  1  0
 72 73  1  0
 72 69  1  0
 73 71  2  0
 74 75  1  0
 75 76  2  0
 77 80  1  0
 77 76  1  0
 78 77  2  0
 79 78  1  0
 79 74  2  0
 80 81  1  0
 81 82  1  0
 82 83  2  0
 84 83  1  0
 84 88  1  0
 85 84  2  0
 86 81  2  0
 86 85  1  0
 87 86  1  0
 89 90  1  0
 90 93  1  0
 90 92  1  0
 91 89  2  0
 94 69  1  0
 94 95  1  0
 96 94  1  0
M  ISO  4  11 101  12 101  59 100  68 100
M  END
>  <TORSDO>  (89) 
F 23

>  <SCORE>  (89) 
-11.779

>  <name>  (89) 
91

>  <ligand_id>  (89) 
91

>  <original_smiles>  (89) 
[H]c1c(C([H])([H])C([H])(C([H])([H])[H])C([H])([H])Oc2c([H])c([H])c3c(c2[H])C([H])([H])N(C(=O)C([H])(N([H])C(=O)C([H])(N([H])C([H])([H])[H])C([H])([H])[H])C(C([H])([H])[H])(C([H])([H])[H])C([H])([H])[H])C([H])(C(=O)N([H])C2([H])c4c([H])c([H])c([H])c([H])c4C([H])([H])C([H])([H])C2([H])[H])C3([H])[H])nc(C([H])([H])[N+]([H])(C([H])([H])[H])C([H])([H])C([H])([H])N(C(=O)N2C([H])([H])C([H])([H])C([H])([H])C([H])(n3nc(-c4c([H])c([H])c(Oc5c([H])c([H])c(F)c([H])c5F)c([H])c4[H])c(C(=O)N([H])[H])c3N([H])[H])C2([H])[H])C([H])([H])[H])c(C([H])([H])[H])c1[H]

>  <smiles>  (89) 
[H]c1c(C([H])([H])C([H])(C([H])([H])[H])C([H])([H])Oc2c([H])c([H])c3c(c2[H])C([H])([H])N(C(=O)C([H])(N([H])C(=O)C([H])(N([H])C([H])([H])[H])C([H])([H])[H])C(C([H])([H])[H])(C([H])([H])[H])C([H])([H])[H])C([H])(C(=O)N([H])C2([H])c4c([H])c([H])c([H])c([H])c4C([H])([H])C([H])([H])C2([H])[H])C3([H])[H])nc(C([H])([H])[N+]([H])(C([H])([H])[H])C([H])([H])C([H])([H])N(C(=O)N2C([H])([H])C([H])([H])C([H])([H])C([H])(n3nc(-c4c([H])c([H])c(Oc5c([H])c([H])c(F)c([H])c5F)c([H])c4[H])c(C(=O)N([H])[H])c3N([H])[H])C2([H])[H])C([H])([H])[H])c(C([H])([H])[H])c1[H]

$$$$
92:0:0
     RDKit          3D

 98106  0  0  1  0  0  0  0  0999 V2000
  -28.8580  -23.5100   18.1990 C   0  0  0  0  0  3  0  0  0  0  0  0
  -28.4290  -22.2570   17.7340 C   0  0  0  0  0  3  0  0  0  0  0  0
  -30.0970  -23.6110   18.8720 C   0  0  0  0  0  0  0  0  0  0  0  0
  -29.2610  -21.1420   17.9310 C   0  0  0  0  0  0  0  0  0  0  0  0
  -30.8710  -22.4310   19.0080 C   0  0  0  0  0  0  0  0  0  0  0  0
  -30.4610  -21.2320   18.5440 N   0  0  0  0  0  0  0  0  0  0  0  0
  -32.1870  -21.7630   21.0780 C   0  0  0  0  0  1  0  0  0  0  0  0
  -32.2330  -22.4110   19.6870 C   0  0  0  0  0  2  0  0  0  0  0  0
  -30.7360  -25.9140   18.4550 C   0  0  0  0  0  1  0  0  0  0  0  0
  -30.5220  -24.8340   19.4150 N   0  0  0  0  0  0  0  0  0  0  0  0
  -30.0090  -25.1240   20.7580 C   0  0  0  0  0  2  0  0  0  0  0  0
  -28.5360  -25.5830   20.7920 C   0  0  0  0  0  2  0  0  0  0  0  0
  -28.4430  -26.8080   20.0870 O   0  0  0  0  0  0  0  0  0  0  0  0
  -24.5890  -31.8520   23.2310 C   0  0  0  0  0  0  0  0  0  0  0  0
  -27.2380  -27.4500   20.1530 C   0  0  0  0  0  0  0  0  0  0  0  0
  -23.3750  -30.4460   21.5940 C   0  0  0  0  0  3  0  0  0  0  0  0
  -24.8260  -28.9010   20.1760 C   0  0  0  0  0  0  0  0  0  0  0  0
  -25.8920  -30.8210   21.3790 C   0  0  0  0  0  2  0  0  0  0  0  0
  -25.9790  -29.4480   20.7510 C   0  0  0  0  0  0  0  0  0  0  0  0
  -27.1890  -28.7300   20.7360 C   0  0  0  0  0  3  0  0  0  0  0  0
  -26.0730  -26.8930   19.5860 C   0  0  0  0  0  3  0  0  0  0  0  0
  -24.8640  -27.6180   19.5940 C   0  0  0  0  0  3  0  0  0  0  0  0
  -23.5780  -29.7550   20.2170 C   0  0  0  0  0  2  0  0  0  0  0  0
  -24.6370  -31.0540   22.1280 N   0  0  0  0  0  0  0  0  0  0  0  0
  -23.5100  -32.1250   23.7770 O   0  0  0  0  0  0  0  0  0  0  0  0
  -22.7290  -29.4290   22.5600 C   0  0  0  0  0  0  0  0  0  0  0  0
  -21.4040  -29.2510   22.4400 N   0  0  0  0  0  0  0  0  0  0  0  0
  -23.4160  -28.8000   23.3700 O   0  0  0  0  0  0  0  0  0  0  0  0
  -20.9130  -29.8090   21.7560 H   0  0  0  0  0  0  0  0  0  0  0  0
  -18.0280  -28.0750   22.9540 C   0  0  0  0  0  0  0  0  0  0  0  0
  -20.5890  -28.3170   23.2130 C   0  0  0  0  0  3  0  0  0  0  0  0
  -20.6810  -26.8870   22.6330 C   0  0  0  0  0  2  0  0  0  0  0  0
  -19.5720  -26.5730   21.6240 C   0  0  0  0  0  2  0  0  0  0  0  0
  -18.1940  -26.7260   22.2750 C   0  0  0  0  0  2  0  0  0  0  0  0
  -19.1540  -28.8300   23.3790 C   0  0  0  0  0  0  0  0  0  0  0  0
  -18.9470  -30.0950   23.9710 C   0  0  0  0  0  3  0  0  0  0  0  0
  -17.6470  -30.6040   24.1440 C   0  0  0  0  0  3  0  0  0  0  0  0
  -16.5360  -29.8470   23.7350 C   0  0  0  0  0  3  0  0  0  0  0  0
  -16.7270  -28.5850   23.1450 C   0  0  0  0  0  3  0  0  0  0  0  0
  -25.8790  -32.4820   23.8450 C   0  0  0  0  0  3  0  0  0  0  0  0
  -26.4120  -31.7010   25.1090 C   0  0  1  0  0  0  0  0  0  0  0  0
  -25.3310  -31.4530   26.1870 C   0  0  0  0  0  1  0  0  0  0  0  0
  -26.9910  -30.3280   24.6970 C   0  0  0  0  0  1  0  0  0  0  0  0
  -27.5680  -32.4920   25.7650 C   0  0  0  0  0  1  0  0  0  0  0  0
  -25.5720  -33.8770   24.1840 N   0  0  0  0  0  0  0  0  0  0  0  0
  -25.9000  -34.9330   23.4270 C   0  0  0  0  0  0  0  0  0  0  0  0
  -26.5660  -34.8340   22.3930 O   0  0  0  0  0  0  0  0  0  0  0  0
  -24.9810  -34.0280   24.9880 H   0  0  0  0  0  0  0  0  0  0  0  0
  -24.1670  -36.7220   23.0880 C   0  0  0  0  0  1  0  0  0  0  0  0
  -25.4130  -36.3180   23.8920 C   0  0  0  0  0  3  0  0  0  0  0  0
  -27.5510  -37.1990   24.7150 C   0  0  0  0  0  1  0  0  0  0  0  0
  -26.4440  -37.3730   23.7790 N   0  0  0  0  0  0  0  0  0  0  0  0
  -26.0370  -38.2920   23.9350 H   0  0  0  0  0  0  0  0  0  0  0  0
  -28.8340  -19.7530   17.4750 C   0  0  0  0  0  2  0  0  0  0  0  0
  -26.9550  -19.4000   19.0600 C   0  0  0  0  0  1  0  0  0  0  0  0
  -28.2650  -18.9180   18.5630 N   0  0  2  0  0  4  0  0  0  0  0  0
  -28.0740  -18.0430   18.1010 H   0  0  0  0  0  0  0  0  0  0  0  0
  -29.2180  -18.5940   19.6570 C   0  0  0  0  0  2  0  0  0  0  0  0
  -29.0860  -17.1250   20.0780 C   0  0  0  0  0  2  0  0  0  0  0  0
  -30.0790  -16.6980   21.1760 C   0  0  0  0  0  2  0  0  0  0  0  0
  -30.6590  -14.3660   20.5790 C   0  0  0  0  0  0  0  0  0  0  0  0
  -30.3520  -12.2680   19.3310 C   0  0  0  0  0  2  0  0  0  0  0  0
  -29.4140  -12.5280   18.1320 C   0  0  0  0  0  2  0  0  0  0  0  0
  -27.9320  -12.4210   18.5450 C   0  0  0  0  0  2  0  0  0  0  0  0
  -27.6060  -13.2140   19.8390 C   0  0  0  0  0  3  0  0  0  0  0  0
  -28.6460  -12.9030   20.9400 C   0  0  0  0  0  2  0  0  0  0  0  0
  -29.9890  -13.2000   20.4050 N   0  0  0  0  0  0  0  0  0  0  0  0
  -31.7070  -14.6570   19.9940 O   0  0  0  0  0  0  0  0  0  0  0  0
  -30.0040  -15.2510   21.3380 N   0  0  0  0  0  0  0  0  0  0  0  0
  -29.1930  -14.8860   21.8190 H   0  0  0  0  0  0  0  0  0  0  0  0
  -25.1990  -13.8350   20.5130 C   0  0  0  0  0  0  0  0  0  0  0  0
  -24.1280  -13.0670   20.8810 C   0  0  0  0  0  0  0  0  0  0  0  0
  -24.5860  -11.7140   20.8610 C   0  0  0  0  0  0  0  0  0  0  0  0
  -26.2450  -12.9500   20.2980 N   0  0  0  0  0  0  0  0  0  0  0  0
  -25.8770  -11.6700   20.5590 N   0  0  0  0  0  0  0  0  0  0  0  0
  -23.8610  -10.4540   21.0580 C   0  0  0  0  0  0  0  0  0  0  0  0
  -24.3070   -9.4830   21.9820 C   0  0  0  0  0  3  0  0  0  0  0  0
  -23.5820   -8.2860   22.1680 C   0  0  0  0  0  3  0  0  0  0  0  0
  -22.3980   -8.0520   21.4300 C   0  0  0  0  0  0  0  0  0  0  0  0
  -21.9720   -9.0130   20.4960 C   0  0  0  0  0  3  0  0  0  0  0  0
  -22.6960  -10.2010   20.3080 C   0  0  0  0  0  3  0  0  0  0  0  0
  -21.6430   -6.9080   21.5240 O   0  0  0  0  0  0  0  0  0  0  0  0
  -21.6290   -6.1470   22.6650 C   0  0  0  0  0  0  0  0  0  0  0  0
  -21.2600   -6.6860   23.9170 C   0  0  0  0  0  3  0  0  0  0  0  0
  -21.1890   -5.8500   25.0500 C   0  0  0  0  0  3  0  0  0  0  0  0
  -21.4820   -4.4770   24.9330 C   0  0  0  0  0  0  0  0  0  0  0  0
  -21.8470   -3.9410   23.6850 C   0  0  0  0  0  3  0  0  0  0  0  0
  -21.9170   -4.7720   22.5560 C   0  0  0  0  0  0  0  0  0  0  0  0
  -22.2480   -4.2460   21.3530 F   0  0  0  0  0  0  0  0  0  0  0  0
  -21.4110   -3.6720   26.0190 F   0  0  0  0  0  0  0  0  0  0  0  0
  -22.7300  -13.5460   21.1450 C   0  0  0  0  0  0  0  0  0  0  0  0
  -22.0010  -12.8560   22.0160 N   0  0  0  0  0  0  0  0  0  0  0  0
  -22.2910  -14.5650   20.6160 O   0  0  0  0  0  0  0  0  0  0  0  0
  -22.3700  -12.0330   22.4680 H   0  0  0  0  0  0  0  0  0  0  0  0
  -21.0600  -13.1540   22.2350 H   0  0  0  0  0  0  0  0  0  0  0  0
  -25.3650  -15.2050   20.3290 N   0  0  0  0  0  0  0  0  0  0  0  0
  -24.5970  -15.8590   20.4340 H   0  0  0  0  0  0  0  0  0  0  0  0
  -26.2210  -15.6420   20.0180 H   0  0  0  0  0  0  0  0  0  0  0  0
  1  3  1  0
  2  4  1  0
  2  1  2  0
  3  5  2  0
  3 10  1  0
  4  6  2  0
  5  8  1  0
  6  5  1  0
  8  7  1  0
  9 10  1  0
 10 11  1  0
 11 12  1  0
 13 15  1  0
 13 12  1  0
 14 25  2  0
 15 20  1  0
 16 24  1  0
 16 26  1  0
 17 23  1  0
 17 19  1  0
 18 24  1  0
 19 18  1  0
 20 19  2  0
 21 22  1  0
 21 15  2  0
 22 17  2  0
 23 16  1  0
 24 14  1  0
 26 28  2  0
 27 26  1  0
 29 27  1  0
 30 39  2  0
 30 35  1  0
 31 27  1  0
 31 35  1  0
 32 31  1  0
 33 34  1  0
 33 32  1  0
 34 30  1  0
 35 36  2  0
 36 37  1  0
 38 37  2  0
 39 38  1  0
 40 14  1  0
 40 45  1  0
 40 41  1  0
 41 44  1  1
 41 42  1  0
 43 41  1  0
 45 48  1  0
 46 50  1  0
 46 45  1  0
 47 46  2  0
 50 49  1  0
 52 50  1  0
 52 53  1  0
 52 51  1  0
 54  4  1  0
 54 56  1  0
 56 55  1  0
 56 58  1  0
 56 57  1  6
 58 59  1  0
 59 60  1  0
 60 69  1  0
 61 69  1  0
 62 67  1  0
 63 64  1  0
 63 62  1  0
 65 64  1  0
 65 74  1  0
 65 66  1  0
 67 61  1  0
 67 66  1  0
 68 61  2  0
 69 70  1  0
 71 72  2  0
 72 91  1  0
 73 72  1  0
 73 76  1  0
 74 71  1  0
 74 75  1  0
 75 73  2  0
 76 77  1  0
 77 78  2  0
 79 82  1  0
 79 78  1  0
 80 79  2  0
 81 80  1  0
 81 76  2  0
 82 83  1  0
 83 84  1  0
 84 85  2  0
 86 85  1  0
 86 90  1  0
 87 86  2  0
 88 83  2  0
 88 87  1  0
 89 88  1  0
 91 92  1  0
 92 95  1  0
 92 94  1  0
 93 91  2  0
 96 97  1  0
 96 71  1  0
 98 96  1  0
M  ISO  4  12 101  13 101  61 100  69 100
M  END
>  <TORSDO>  (90) 
F 25

>  <SCORE>  (90) 
-12.271

>  <name>  (90) 
92

>  <ligand_id>  (90) 
92

>  <original_smiles>  (90) 
[H]c1c(C([H])([H])[N+]([H])(C([H])([H])[H])C([H])([H])C([H])([H])C([H])([H])N([H])C(=O)N2C([H])([H])C([H])([H])C([H])([H])C([H])(n3nc(-c4c([H])c([H])c(Oc5c([H])c([H])c(F)c([H])c5F)c([H])c4[H])c(C(=O)N([H])[H])c3N([H])[H])C2([H])[H])nc(C([H])([H])C([H])([H])[H])c(N(C([H])([H])[H])C([H])([H])C([H])([H])Oc2c([H])c([H])c3c(c2[H])C([H])([H])N(C(=O)C([H])(N([H])C(=O)C([H])(N([H])C([H])([H])[H])C([H])([H])[H])C(C([H])([H])[H])(C([H])([H])[H])C([H])([H])[H])C([H])(C(=O)N([H])C2([H])c4c([H])c([H])c([H])c([H])c4C([H])([H])C([H])([H])C2([H])[H])C3([H])[H])c1[H]

>  <smiles>  (90) 
[H]c1c(C([H])([H])[N+]([H])(C([H])([H])[H])C([H])([H])C([H])([H])C([H])([H])N([H])C(=O)N2C([H])([H])C([H])([H])C([H])([H])C([H])(n3nc(-c4c([H])c([H])c(Oc5c([H])c([H])c(F)c([H])c5F)c([H])c4[H])c(C(=O)N([H])[H])c3N([H])[H])C2([H])[H])nc(C([H])([H])C([H])([H])[H])c(N(C([H])([H])[H])C([H])([H])C([H])([H])Oc2c([H])c([H])c3c(c2[H])C([H])([H])N(C(=O)C([H])(N([H])C(=O)C([H])(N([H])C([H])([H])[H])C([H])([H])[H])C(C([H])([H])[H])(C([H])([H])[H])C([H])([H])[H])C([H])(C(=O)N([H])C2([H])c4c([H])c([H])c([H])c([H])c4C([H])([H])C([H])([H])C2([H])[H])C3([H])[H])c1[H]

$$$$
93:0:0
     RDKit          3D

 91 98  0  0  1  0  0  0  0  0999 V2000
  -31.0170  -21.5230   18.9920 C   0  0  0  0  0  1  0  0  0  0  0  0
  -29.2310  -21.7850   17.3710 C   0  0  0  0  0  1  0  0  0  0  0  0
  -29.4890  -21.3870   18.8440 C   0  0  1  0  0  0  0  0  0  0  0  0
  -28.0450  -19.2350   18.0060 C   0  0  0  0  0  1  0  0  0  0  0  0
  -29.1310  -19.6300   19.0490 C   0  0  2  0  0  0  0  0  0  0  0  0
  -28.5630  -19.7920   20.2390 F   0  0  0  0  0  0  0  0  0  0  0  0
  -31.5440  -18.4470   19.4880 C   0  0  0  0  0  1  0  0  0  0  0  0
  -30.1080  -18.1070   19.0530 C   0  0  0  0  0  3  0  0  0  0  0  0
  -30.5370  -15.2430   19.3170 C   0  0  0  0  0  0  0  0  0  0  0  0
  -30.5160  -12.7930   18.4890 C   0  0  0  0  0  2  0  0  0  0  0  0
  -29.4390  -12.5730   17.3930 C   0  0  0  0  0  2  0  0  0  0  0  0
  -28.0420  -12.3250   17.9990 C   0  0  0  0  0  2  0  0  0  0  0  0
  -27.7470  -13.2670   19.1920 C   0  0  0  0  0  3  0  0  0  0  0  0
  -28.9390  -13.2900   20.1700 C   0  0  0  0  0  2  0  0  0  0  0  0
  -30.0460  -13.9030   19.4040 N   0  0  0  0  0  0  0  0  0  0  0  0
  -31.6740  -15.2580   18.8210 O   0  0  0  0  0  0  0  0  0  0  0  0
  -29.7920  -16.5310   19.5640 N   0  0  0  0  0  0  0  0  0  0  0  0
  -25.4660  -13.8630   20.1680 C   0  0  0  0  0  0  0  0  0  0  0  0
  -24.4310  -13.0990   20.6400 C   0  0  0  0  0  0  0  0  0  0  0  0
  -24.8770  -11.7430   20.5630 C   0  0  0  0  0  0  0  0  0  0  0  0
  -26.4680  -12.9730   19.8270 N   0  0  0  0  0  0  0  0  0  0  0  0
  -26.1290  -11.6930   20.1230 N   0  0  0  0  0  0  0  0  0  0  0  0
  -24.1550  -10.4920   20.8270 C   0  0  0  0  0  0  0  0  0  0  0  0
  -24.5880   -9.5880   21.8190 C   0  0  0  0  0  3  0  0  0  0  0  0
  -23.8640   -8.4030   22.0760 C   0  0  0  0  0  3  0  0  0  0  0  0
  -22.6930   -8.1100   21.3410 C   0  0  0  0  0  0  0  0  0  0  0  0
  -22.2820   -9.0020   20.3370 C   0  0  0  0  0  3  0  0  0  0  0  0
  -23.0040  -10.1770   20.0800 C   0  0  0  0  0  3  0  0  0  0  0  0
  -21.9410   -6.9700   21.5020 O   0  0  0  0  0  0  0  0  0  0  0  0
  -21.8000   -6.3740   22.7310 C   0  0  0  0  0  0  0  0  0  0  0  0
  -21.2620   -7.0660   23.8390 C   0  0  0  0  0  3  0  0  0  0  0  0
  -21.0660   -6.3920   25.0610 C   0  0  0  0  0  3  0  0  0  0  0  0
  -21.3980   -5.0290   25.1770 C   0  0  0  0  0  0  0  0  0  0  0  0
  -21.9300   -4.3390   24.0730 C   0  0  0  0  0  3  0  0  0  0  0  0
  -22.1250   -5.0100   22.8540 C   0  0  0  0  0  0  0  0  0  0  0  0
  -22.6190   -4.3360   21.7860 F   0  0  0  0  0  0  0  0  0  0  0  0
  -21.2010   -4.3770   26.3470 F   0  0  0  0  0  0  0  0  0  0  0  0
  -23.0750  -13.5970   21.0400 C   0  0  0  0  0  0  0  0  0  0  0  0
  -22.4460  -12.9300   22.0070 N   0  0  0  0  0  0  0  0  0  0  0  0
  -22.5850  -14.6040   20.5380 O   0  0  0  0  0  0  0  0  0  0  0  0
  -22.8600  -12.1150   22.4370 H   0  0  0  0  0  0  0  0  0  0  0  0
  -21.5490  -13.2530   22.3410 H   0  0  0  0  0  0  0  0  0  0  0  0
  -25.6290  -15.2260   19.9720 N   0  0  0  0  0  0  0  0  0  0  0  0
  -24.9070  -15.8980   20.2020 H   0  0  0  0  0  0  0  0  0  0  0  0
  -26.4640  -15.6470   19.5930 H   0  0  0  0  0  0  0  0  0  0  0  0
  -27.9130  -17.4990   21.1990 C   0  0  0  0  0  1  0  0  0  0  0  0
  -29.9690  -16.5790   22.0390 C   0  0  0  0  0  1  0  0  0  0  0  0
  -29.0050  -16.4730   20.8460 C   0  0  0  0  0  3  0  0  0  0  0  0
  -28.8070  -22.7900   19.6970 C   0  0  0  0  0  2  0  0  0  0  0  0
  -28.3890  -24.4350   19.1670 C   0  0  0  0  0  2  0  0  0  0  0  0
  -28.3150  -25.9040   19.8630 O   0  0  0  0  0  0  0  0  0  0  0  0
  -24.6550  -31.6540   23.0230 C   0  0  0  0  0  0  0  0  0  0  0  0
  -27.2630  -26.9440   19.8150 C   0  0  0  0  0  0  0  0  0  0  0  0
  -23.4600  -30.2810   21.3640 C   0  0  0  0  0  3  0  0  0  0  0  0
  -24.9170  -28.7400   19.8830 C   0  0  0  0  0  0  0  0  0  0  0  0
  -26.0180  -30.5390   21.1980 C   0  0  0  0  0  2  0  0  0  0  0  0
  -26.1050  -29.1540   20.5050 C   0  0  0  0  0  0  0  0  0  0  0  0
  -27.2670  -28.2730   20.4540 C   0  0  0  0  0  3  0  0  0  0  0  0
  -26.0420  -26.6710   19.1540 C   0  0  0  0  0  3  0  0  0  0  0  0
  -24.9110  -27.5210   19.1930 C   0  0  0  0  0  3  0  0  0  0  0  0
  -23.6840  -29.6340   19.9690 C   0  0  0  0  0  2  0  0  0  0  0  0
  -24.7330  -30.8470   21.9160 N   0  0  0  0  0  0  0  0  0  0  0  0
  -23.5720  -31.9180   23.5640 O   0  0  0  0  0  0  0  0  0  0  0  0
  -22.7880  -29.2560   22.3170 C   0  0  0  0  0  0  0  0  0  0  0  0
  -21.4530  -29.0980   22.2180 N   0  0  0  0  0  0  0  0  0  0  0  0
  -23.4720  -28.6100   23.1090 O   0  0  0  0  0  0  0  0  0  0  0  0
  -20.9520  -29.6710   21.5570 H   0  0  0  0  0  0  0  0  0  0  0  0
  -18.0840  -27.8860   22.7960 C   0  0  0  0  0  0  0  0  0  0  0  0
  -20.6530  -28.1400   22.9910 C   0  0  0  0  0  3  0  0  0  0  0  0
  -20.7290  -26.7300   22.3670 C   0  0  0  0  0  2  0  0  0  0  0  0
  -19.6010  -26.4460   21.3710 C   0  0  0  0  0  2  0  0  0  0  0  0
  -18.2410  -26.5630   22.0670 C   0  0  0  0  0  2  0  0  0  0  0  0
  -19.2170  -28.6350   23.2150 C   0  0  0  0  0  0  0  0  0  0  0  0
  -19.0200  -29.8750   23.8560 C   0  0  0  0  0  3  0  0  0  0  0  0
  -17.7210  -30.3680   24.0860 C   0  0  0  0  0  3  0  0  0  0  0  0
  -16.6030  -29.6180   23.6860 C   0  0  0  0  0  3  0  0  0  0  0  0
  -16.7840  -28.3790   23.0410 C   0  0  0  0  0  3  0  0  0  0  0  0
  -25.9300  -32.2950   23.6540 C   0  0  0  0  0  3  0  0  0  0  0  0
  -25.5980  -33.6770   24.0420 N   0  0  0  0  0  0  0  0  0  0  0  0
  -25.9100  -34.7680   23.3300 C   0  0  0  0  0  0  0  0  0  0  0  0
  -26.5710  -34.7190   22.2900 O   0  0  0  0  0  0  0  0  0  0  0  0
  -24.9950  -33.7890   24.8440 H   0  0  0  0  0  0  0  0  0  0  0  0
  -24.1570  -36.5650   23.0760 C   0  0  0  0  0  1  0  0  0  0  0  0
  -25.4110  -36.1320   23.8500 C   0  0  0  0  0  3  0  0  0  0  0  0
  -27.5420  -37.0120   24.7010 C   0  0  0  0  0  1  0  0  0  0  0  0
  -26.4300  -37.2020   23.7730 N   0  0  0  0  0  0  0  0  0  0  0  0
  -26.0130  -38.1080   23.9650 H   0  0  0  0  0  0  0  0  0  0  0  0
  -26.4760  -31.4940   24.9000 C   0  0  1  0  0  0  0  0  0  0  0  0
  -25.4000  -31.2110   25.9760 C   0  0  0  0  0  1  0  0  0  0  0  0
  -27.0750  -30.1330   24.4710 C   0  0  0  0  0  1  0  0  0  0  0  0
  -27.6220  -32.2890   25.5680 C   0  0  0  0  0  1  0  0  0  0  0  0
  3  2  1  6
  3  1  1  0
  3  5  1  0
  3 49  1  0
  5  4  1  6
  5  8  1  0
  5  6  1  0
  8  7  1  0
  8 17  1  0
  9 15  1  0
  9 17  1  0
 10 15  1  0
 11 12  1  0
 11 10  1  0
 13 12  1  0
 13 21  1  0
 13 14  1  0
 15 14  1  0
 16  9  2  0
 17 48  1  0
 18 19  2  0
 19 38  1  0
 20 19  1  0
 20 23  1  0
 21 22  1  0
 21 18  1  0
 22 20  2  0
 23 24  1  0
 24 25  2  0
 26 29  1  0
 26 25  1  0
 27 26  2  0
 28 27  1  0
 28 23  2  0
 29 30  1  0
 30 35  2  0
 30 31  1  0
 31 32  2  0
 32 33  1  0
 33 37  1  0
 34 33  2  0
 35 34  1  0
 36 35  1  0
 38 39  1  0
 39 42  1  0
 39 41  1  0
 40 38  2  0
 43 18  1  0
 43 44  1  0
 45 43  1  0
 48 46  1  0
 48 47  1  0
 50 49  1  0
 50 51  1  0
 52 63  2  0
 53 51  1  0
 53 58  1  0
 54 62  1  0
 54 64  1  0
 55 61  1  0
 55 57  1  0
 56 62  1  0
 57 56  1  0
 58 57  2  0
 59 60  1  0
 59 53  2  0
 60 55  2  0
 61 54  1  0
 62 52  1  0
 64 66  2  0
 65 64  1  0
 67 65  1  0
 68 77  2  0
 68 73  1  0
 69 65  1  0
 69 73  1  0
 70 69  1  0
 71 72  1  0
 71 70  1  0
 72 68  1  0
 73 74  2  0
 74 75  1  0
 76 75  2  0
 77 76  1  0
 78 52  1  0
 78 79  1  0
 78 88  1  0
 79 82  1  0
 80 84  1  0
 80 79  1  0
 81 80  2  0
 84 83  1  0
 86 84  1  0
 86 87  1  0
 86 85  1  0
 88 91  1  1
 88 89  1  0
 90 88  1  0
M  ISO  4   9 100  17 100  50 101  51 101
M  END
>  <TORSDO>  (91) 
F 21

>  <SCORE>  (91) 
-13.243

>  <name>  (91) 
93

>  <ligand_id>  (91) 
93

>  <original_smiles>  (91) 
[H]c1c([H])c([H])c2c(c1[H])C([H])([H])C([H])([H])C([H])([H])C2([H])N([H])C(=O)C1([H])N(C(=O)C([H])(N([H])C(=O)C([H])(N([H])C([H])([H])[H])C([H])([H])[H])C(C([H])([H])[H])(C([H])([H])[H])C([H])([H])[H])C([H])([H])c2c([H])c(OC([H])([H])C([H])([H])C(C([H])([H])[H])(C([H])([H])[H])C(F)(C([H])([H])[H])C([H])(N(C(=O)N3C([H])([H])C([H])([H])C([H])([H])C([H])(n4nc(-c5c([H])c([H])c(Oc6c([H])c([H])c(F)c([H])c6F)c([H])c5[H])c(C(=O)N([H])[H])c4N([H])[H])C3([H])[H])C([H])(C([H])([H])[H])C([H])([H])[H])C([H])([H])[H])c([H])c([H])c2C1([H])[H]

>  <smiles>  (91) 
[H]c1c([H])c([H])c2c(c1[H])C([H])([H])C([H])([H])C([H])([H])C2([H])N([H])C(=O)C1([H])N(C(=O)C([H])(N([H])C(=O)C([H])(N([H])C([H])([H])[H])C([H])([H])[H])C(C([H])([H])[H])(C([H])([H])[H])C([H])([H])[H])C([H])([H])c2c([H])c(OC([H])([H])C([H])([H])C(C([H])([H])[H])(C([H])([H])[H])C(F)(C([H])([H])[H])C([H])(N(C(=O)N3C([H])([H])C([H])([H])C([H])([H])C([H])(n4nc(-c5c([H])c([H])c(Oc6c([H])c([H])c(F)c([H])c6F)c([H])c5[H])c(C(=O)N([H])[H])c4N([H])[H])C3([H])[H])C([H])(C([H])([H])[H])C([H])([H])[H])C([H])([H])[H])c([H])c([H])c2C1([H])[H]

$$$$
94:0:0
     RDKit          3D

 95103  0  0  1  0  0  0  0  0999 V2000
  -28.9350  -21.4130   19.8070 C   0  0  0  0  0  3  0  0  0  0  0  0
  -28.7160  -22.6840   20.3270 C   0  0  0  0  0  0  0  0  0  0  0  0
  -29.5150  -21.3270   21.9330 C   0  0  0  0  0  3  0  0  0  0  0  0
  -29.8030  -20.9030   23.3380 C   0  0  0  0  0  1  0  0  0  0  0  0
  -29.3950  -20.5740   20.8170 N   0  0  0  0  0  0  0  0  0  0  0  0
  -29.1870  -22.5860   21.6100 N   0  0  0  0  0  0  0  0  0  0  0  0
  -29.1710  -23.3440   22.2770 H   0  0  0  0  0  0  0  0  0  0  0  0
  -26.5660  -23.7390   20.5950 C   0  0  0  0  0  1  0  0  0  0  0  0
  -27.6500  -23.7530   18.3290 C   0  0  0  0  0  1  0  0  0  0  0  0
  -27.9180  -23.9200   19.8430 C   0  0  2  0  0  0  0  0  0  0  0  0
  -28.6870  -25.3040   20.1810 C   0  0  0  0  0  2  0  0  0  0  0  0
  -28.5300  -26.6440   19.5620 O   0  0  0  0  0  0  0  0  0  0  0  0
  -24.7740  -31.7610   23.1010 C   0  0  0  0  0  0  0  0  0  0  0  0
  -27.3770  -27.4060   19.7340 C   0  0  0  0  0  0  0  0  0  0  0  0
  -23.5490  -30.4040   21.4420 C   0  0  0  0  0  3  0  0  0  0  0  0
  -24.9870  -28.9530   19.9090 C   0  0  0  0  0  0  0  0  0  0  0  0
  -26.0740  -30.7830   21.2030 C   0  0  0  0  0  2  0  0  0  0  0  0
  -26.1620  -29.4330   20.4990 C   0  0  0  0  0  0  0  0  0  0  0  0
  -27.3590  -28.6630   20.4130 C   0  0  0  0  0  3  0  0  0  0  0  0
  -26.1950  -27.0050   19.0890 C   0  0  0  0  0  3  0  0  0  0  0  0
  -25.0000  -27.7380   19.2060 C   0  0  0  0  0  3  0  0  0  0  0  0
  -23.7340  -29.7950   20.0300 C   0  0  0  0  0  2  0  0  0  0  0  0
  -24.8180  -31.0000   21.9730 N   0  0  0  0  0  0  0  0  0  0  0  0
  -23.6980  -31.9860   23.6810 O   0  0  0  0  0  0  0  0  0  0  0  0
  -22.9500  -29.3250   22.3720 C   0  0  0  0  0  0  0  0  0  0  0  0
  -21.6330  -29.0820   22.2460 N   0  0  0  0  0  0  0  0  0  0  0  0
  -23.6630  -28.7080   23.1690 O   0  0  0  0  0  0  0  0  0  0  0  0
  -21.1140  -29.6310   21.5750 H   0  0  0  0  0  0  0  0  0  0  0  0
  -18.3390  -27.6590   22.6580 C   0  0  0  0  0  0  0  0  0  0  0  0
  -20.8680  -28.0820   22.9900 C   0  0  0  0  0  3  0  0  0  0  0  0
  -21.0760  -26.6700   22.3980 C   0  0  0  0  0  2  0  0  0  0  0  0
  -20.0180  -26.2940   21.3550 C   0  0  0  0  0  2  0  0  0  0  0  0
  -18.6180  -26.3320   21.9750 C   0  0  0  0  0  2  0  0  0  0  0  0
  -19.3940  -28.4890   23.1220 C   0  0  0  0  0  0  0  0  0  0  0  0
  -19.0790  -29.7290   23.7180 C   0  0  0  0  0  3  0  0  0  0  0  0
  -17.7390  -30.1400   23.8610 C   0  0  0  0  0  3  0  0  0  0  0  0
  -16.6990  -29.3110   23.4130 C   0  0  0  0  0  3  0  0  0  0  0  0
  -16.9990  -28.0700   22.8180 C   0  0  0  0  0  3  0  0  0  0  0  0
  -26.0570  -32.3980   23.7140 C   0  0  0  0  0  3  0  0  0  0  0  0
  -25.7150  -33.7640   24.1280 N   0  0  0  0  0  0  0  0  0  0  0  0
  -26.0100  -34.8690   23.4270 C   0  0  0  0  0  0  0  0  0  0  0  0
  -26.6640  -34.8430   22.3820 O   0  0  0  0  0  0  0  0  0  0  0  0
  -25.1290  -33.8590   24.9440 H   0  0  0  0  0  0  0  0  0  0  0  0
  -24.2280  -36.6320   23.2090 C   0  0  0  0  0  1  0  0  0  0  0  0
  -25.4950  -36.2140   23.9730 C   0  0  0  0  0  3  0  0  0  0  0  0
  -27.6210  -37.1090   24.8150 C   0  0  0  0  0  1  0  0  0  0  0  0
  -26.4970  -37.3000   23.9010 N   0  0  0  0  0  0  0  0  0  0  0  0
  -26.0710  -38.2010   24.1070 H   0  0  0  0  0  0  0  0  0  0  0  0
  -26.6420  -31.5770   24.9250 C   0  0  1  0  0  0  0  0  0  0  0  0
  -25.5970  -31.2520   26.0190 C   0  0  0  0  0  1  0  0  0  0  0  0
  -27.2480  -30.2400   24.4420 C   0  0  0  0  0  1  0  0  0  0  0  0
  -27.7930  -32.3700   25.5850 C   0  0  0  0  0  1  0  0  0  0  0  0
  -29.4830  -19.0570   20.7850 C   0  0  0  0  0  2  0  0  0  0  0  0
  -31.7090  -18.7990   22.1040 C   0  0  0  0  0  1  0  0  0  0  0  0
  -31.7180  -18.5230   19.6550 C   0  0  0  0  0  1  0  0  0  0  0  0
  -30.8660  -18.2790   20.9210 C   0  0  2  0  0  0  0  0  0  0  0  0
  -30.6610  -16.7170   21.1540 C   0  0  0  0  0  2  0  0  0  0  0  0
  -31.6630  -14.6900   20.0060 C   0  0  0  0  0  0  0  0  0  0  0  0
  -31.2470  -12.4590   19.0290 C   0  0  0  0  0  2  0  0  0  0  0  0
  -30.3060  -12.6220   17.8180 C   0  0  0  0  0  2  0  0  0  0  0  0
  -28.8320  -12.5950   18.2660 C   0  0  0  0  0  2  0  0  0  0  0  0
  -28.5530  -13.5280   19.4760 C   0  0  0  0  0  3  0  0  0  0  0  0
  -29.6070  -13.3450   20.5880 C   0  0  0  0  0  2  0  0  0  0  0  0
  -30.9270  -13.5420   19.9760 N   0  0  0  0  0  0  0  0  0  0  0  0
  -32.8310  -14.7310   19.6070 O   0  0  0  0  0  0  0  0  0  0  0  0
  -30.9550  -15.8470   19.9940 N   0  0  0  0  0  0  0  0  0  0  0  0
  -31.3370  -16.4340   19.2670 H   0  0  0  0  0  0  0  0  0  0  0  0
  -26.2320  -14.3210   20.2470 C   0  0  0  0  0  0  0  0  0  0  0  0
  -25.1130  -13.6360   20.6340 C   0  0  0  0  0  0  0  0  0  0  0  0
  -25.4570  -12.2510   20.5790 C   0  0  0  0  0  0  0  0  0  0  0  0
  -27.1960  -13.3580   19.9860 N   0  0  0  0  0  0  0  0  0  0  0  0
  -26.7340  -12.1070   20.2410 N   0  0  0  0  0  0  0  0  0  0  0  0
  -24.6330  -11.0510   20.7700 C   0  0  0  0  0  0  0  0  0  0  0  0
  -24.9750  -10.0630   21.7200 C   0  0  0  0  0  3  0  0  0  0  0  0
  -24.1550   -8.9280   21.8980 C   0  0  0  0  0  3  0  0  0  0  0  0
  -22.9780   -8.7740   21.1280 C   0  0  0  0  0  0  0  0  0  0  0  0
  -22.6540   -9.7500   20.1680 C   0  0  0  0  0  3  0  0  0  0  0  0
  -23.4740  -10.8760   19.9890 C   0  0  0  0  0  3  0  0  0  0  0  0
  -22.1330   -7.6920   21.2160 O   0  0  0  0  0  0  0  0  0  0  0  0
  -21.9500   -7.0160   22.3930 C   0  0  0  0  0  0  0  0  0  0  0  0
  -21.4960   -7.6630   23.5630 C   0  0  0  0  0  3  0  0  0  0  0  0
  -21.2560   -6.9170   24.7330 C   0  0  0  0  0  3  0  0  0  0  0  0
  -21.4610   -5.5250   24.7350 C   0  0  0  0  0  0  0  0  0  0  0  0
  -21.9100   -4.8760   23.5710 C   0  0  0  0  0  3  0  0  0  0  0  0
  -22.1530   -5.6210   22.4020 C   0  0  0  0  0  0  0  0  0  0  0  0
  -22.5620   -4.9880   21.2780 F   0  0  0  0  0  0  0  0  0  0  0  0
  -21.2240   -4.8060   25.8580 F   0  0  0  0  0  0  0  0  0  0  0  0
  -23.7680  -14.2230   20.9500 C   0  0  0  0  0  0  0  0  0  0  0  0
  -23.0200  -13.5910   21.8480 N   0  0  0  0  0  0  0  0  0  0  0  0
  -23.3950  -15.2780   20.4380 O   0  0  0  0  0  0  0  0  0  0  0  0
  -23.3410  -12.7360   22.2790 H   0  0  0  0  0  0  0  0  0  0  0  0
  -22.1190  -13.9600   22.1060 H   0  0  0  0  0  0  0  0  0  0  0  0
  -26.5120  -15.6710   20.0660 N   0  0  0  0  0  0  0  0  0  0  0  0
  -25.8010  -16.3890   20.1360 H   0  0  0  0  0  0  0  0  0  0  0  0
  -27.3800  -16.0100   19.6720 H   0  0  0  0  0  0  0  0  0  0  0  0
  1  2  2  0
  1  5  1  0
  2  6  1  0
  3  4  1  0
  5  3  1  0
  6  3  1  0
  6  7  1  0
 10  9  1  6
 10 11  1  0
 10  2  1  0
 10  8  1  0
 12 14  1  0
 12 11  1  0
 13 24  2  0
 14 19  1  0
 15 23  1  0
 15 25  1  0
 16 22  1  0
 16 18  1  0
 17 23  1  0
 18 17  1  0
 19 18  2  0
 20 21  1  0
 20 14  2  0
 21 16  2  0
 22 15  1  0
 23 13  1  0
 25 27  2  0
 26 25  1  0
 28 26  1  0
 29 38  2  0
 29 34  1  0
 30 26  1  0
 30 34  1  0
 31 30  1  0
 32 33  1  0
 32 31  1  0
 33 29  1  0
 34 35  2  0
 35 36  1  0
 37 36  2  0
 38 37  1  0
 39 13  1  0
 39 40  1  0
 39 49  1  0
 40 43  1  0
 41 45  1  0
 41 40  1  0
 42 41  2  0
 45 44  1  0
 47 45  1  0
 47 48  1  0
 47 46  1  0
 49 52  1  1
 49 50  1  0
 51 49  1  0
 53  5  1  0
 53 56  1  0
 56 55  1  6
 56 57  1  0
 56 54  1  0
 59 64  1  0
 60 61  1  0
 60 59  1  0
 62 61  1  0
 62 71  1  0
 62 63  1  0
 64 58  1  0
 64 63  1  0
 65 58  2  0
 66 58  1  0
 66 57  1  0
 67 66  1  0
 68 69  2  0
 69 88  1  0
 70 69  1  0
 70 73  1  0
 71 72  1  0
 71 68  1  0
 72 70  2  0
 73 74  1  0
 74 75  2  0
 76 79  1  0
 76 75  1  0
 77 76  2  0
 78 77  1  0
 78 73  2  0
 79 80  1  0
 80 85  2  0
 80 81  1  0
 81 82  2  0
 82 83  1  0
 83 87  1  0
 84 83  2  0
 85 84  1  0
 86 85  1  0
 88 89  1  0
 89 92  1  0
 89 91  1  0
 90 88  2  0
 93 94  1  0
 93 68  1  0
 95 93  1  0
M  ISO  4  11 101  12 101  58 100  66 100
M  END
>  <TORSDO>  (92) 
F 21

>  <SCORE>  (92) 
-12.025

>  <name>  (92) 
94

>  <ligand_id>  (92) 
94

>  <original_smiles>  (92) 
[H]c1c([H])c([H])c2c(c1[H])C([H])([H])C([H])([H])C([H])([H])C2([H])N([H])C(=O)C1([H])N(C(=O)C([H])(N([H])C(=O)C([H])(N([H])C([H])([H])[H])C([H])([H])[H])C(C([H])([H])[H])(C([H])([H])[H])C([H])([H])[H])C([H])([H])c2c([H])c(OC([H])([H])C(c3c([H])n(C([H])([H])C(C([H])([H])[H])(C([H])([H])[H])C([H])([H])N([H])C(=O)N4C([H])([H])C([H])([H])C([H])([H])C([H])(n5nc(-c6c([H])c([H])c(Oc7c([H])c([H])c(F)c([H])c7F)c([H])c6[H])c(C(=O)N([H])[H])c5N([H])[H])C4([H])[H])c(C([H])([H])[H])[n+]3[H])(C([H])([H])[H])C([H])([H])[H])c([H])c([H])c2C1([H])[H]

>  <smiles>  (92) 
[H]c1c([H])c([H])c2c(c1[H])C([H])([H])C([H])([H])C([H])([H])C2([H])N([H])C(=O)C1([H])N(C(=O)C([H])(N([H])C(=O)C([H])(N([H])C([H])([H])[H])C([H])([H])[H])C(C([H])([H])[H])(C([H])([H])[H])C([H])([H])[H])C([H])([H])c2c([H])c(OC([H])([H])C(c3c([H])n(C([H])([H])C(C([H])([H])[H])(C([H])([H])[H])C([H])([H])N([H])C(=O)N4C([H])([H])C([H])([H])C([H])([H])C([H])(n5nc(-c6c([H])c([H])c(Oc7c([H])c([H])c(F)c([H])c7F)c([H])c6[H])c(C(=O)N([H])[H])c5N([H])[H])C4([H])[H])c(C([H])([H])[H])[n+]3[H])(C([H])([H])[H])C([H])([H])[H])c([H])c([H])c2C1([H])[H]

$$$$
95:0:0
     RDKit          3D

 88 95  0  0  1  0  0  0  0  0999 V2000
  -29.3550  -21.3820   20.1820 N   0  0  1  0  0  4  0  0  0  0  0  0
  -29.1540  -21.3640   19.1930 H   0  0  0  0  0  0  0  0  0  0  0  0
  -29.0550  -19.8390   20.6810 C   0  0  0  0  0  3  0  0  0  0  0  0
  -29.7900  -18.3240   20.1230 C   0  0  0  0  0  3  0  0  0  0  0  0
  -29.6290  -16.6610   20.6990 C   0  0  0  0  0  2  0  0  0  0  0  0
  -30.4290  -15.1860   20.2850 C   0  0  0  0  0  0  0  0  0  0  0  0
  -30.4090  -12.7750   19.3620 C   0  0  0  0  0  2  0  0  0  0  0  0
  -29.4720  -12.6350   18.1360 C   0  0  0  0  0  2  0  0  0  0  0  0
  -28.0180  -12.3900   18.5760 C   0  0  0  0  0  2  0  0  0  0  0  0
  -27.5870  -13.3310   19.7270 C   0  0  0  0  0  3  0  0  0  0  0  0
  -28.6430  -13.4040   20.8500 C   0  0  0  0  0  2  0  0  0  0  0  0
  -29.8940  -13.8780   20.2450 N   0  0  0  0  0  0  0  0  0  0  0  0
  -31.6140  -15.2360   19.9340 O   0  0  0  0  0  0  0  0  0  0  0  0
  -25.2100  -13.8800   20.4790 C   0  0  0  0  0  0  0  0  0  0  0  0
  -24.1540  -13.1000   20.8530 C   0  0  0  0  0  0  0  0  0  0  0  0
  -24.6300  -11.7510   20.8290 C   0  0  0  0  0  0  0  0  0  0  0  0
  -26.2590  -13.0130   20.2360 N   0  0  0  0  0  0  0  0  0  0  0  0
  -25.9200  -11.7250   20.5140 N   0  0  0  0  0  0  0  0  0  0  0  0
  -23.9100  -10.4840   21.0270 C   0  0  0  0  0  0  0  0  0  0  0  0
  -24.3530   -9.5180   21.9580 C   0  0  0  0  0  3  0  0  0  0  0  0
  -23.6310   -8.3200   22.1420 C   0  0  0  0  0  3  0  0  0  0  0  0
  -22.4500   -8.0790   21.3970 C   0  0  0  0  0  0  0  0  0  0  0  0
  -22.0290   -9.0330   20.4530 C   0  0  0  0  0  3  0  0  0  0  0  0
  -22.7530  -10.2230   20.2660 C   0  0  0  0  0  3  0  0  0  0  0  0
  -21.6980   -6.9320   21.4920 O   0  0  0  0  0  0  0  0  0  0  0  0
  -21.6690   -6.1860   22.6440 C   0  0  0  0  0  0  0  0  0  0  0  0
  -21.2690   -6.7390   23.8800 C   0  0  0  0  0  3  0  0  0  0  0  0
  -21.1870   -5.9190   25.0240 C   0  0  0  0  0  3  0  0  0  0  0  0
  -21.4920   -4.5470   24.9310 C   0  0  0  0  0  0  0  0  0  0  0  0
  -21.8850   -3.9950   23.6990 C   0  0  0  0  0  3  0  0  0  0  0  0
  -21.9690   -4.8130   22.5580 C   0  0  0  0  0  0  0  0  0  0  0  0
  -22.3270   -4.2710   21.3690 F   0  0  0  0  0  0  0  0  0  0  0  0
  -21.4060   -3.7570   26.0260 F   0  0  0  0  0  0  0  0  0  0  0  0
  -22.7510  -13.5670   21.1220 C   0  0  0  0  0  0  0  0  0  0  0  0
  -22.0260  -12.8730   21.9910 N   0  0  0  0  0  0  0  0  0  0  0  0
  -22.3070  -14.5850   20.5920 O   0  0  0  0  0  0  0  0  0  0  0  0
  -22.3950  -12.0490   22.4430 H   0  0  0  0  0  0  0  0  0  0  0  0
  -21.0860  -13.1710   22.2110 H   0  0  0  0  0  0  0  0  0  0  0  0
  -25.3660  -15.2520   20.2950 N   0  0  0  0  0  0  0  0  0  0  0  0
  -24.5990  -15.9090   20.3930 H   0  0  0  0  0  0  0  0  0  0  0  0
  -26.2200  -15.6890   19.9710 H   0  0  0  0  0  0  0  0  0  0  0  0
  -28.5430  -22.7280   20.7140 C   0  0  0  0  0  2  0  0  0  0  0  0
  -28.3450  -24.3810   20.0470 C   0  0  0  0  0  2  0  0  0  0  0  0
  -28.2890  -25.9950   20.3360 O   0  0  0  0  0  0  0  0  0  0  0  0
  -24.6380  -31.8620   23.1940 C   0  0  0  0  0  0  0  0  0  0  0  0
  -27.2210  -27.0150   20.2200 C   0  0  0  0  0  0  0  0  0  0  0  0
  -23.4410  -30.4580   21.5590 C   0  0  0  0  0  3  0  0  0  0  0  0
  -24.8940  -28.8460   20.1480 C   0  0  0  0  0  0  0  0  0  0  0  0
  -26.0040  -30.6830   21.4100 C   0  0  0  0  0  2  0  0  0  0  0  0
  -26.0760  -29.2750   20.7640 C   0  0  0  0  0  0  0  0  0  0  0  0
  -27.2280  -28.3810   20.7740 C   0  0  0  0  0  3  0  0  0  0  0  0
  -26.0110  -26.7170   19.5520 C   0  0  0  0  0  3  0  0  0  0  0  0
  -24.8840  -27.5840   19.5230 C   0  0  0  0  0  3  0  0  0  0  0  0
  -23.6700  -29.7640   20.1860 C   0  0  0  0  0  2  0  0  0  0  0  0
  -24.7160  -31.0260   22.1080 N   0  0  0  0  0  0  0  0  0  0  0  0
  -23.5510  -32.1540   23.7160 O   0  0  0  0  0  0  0  0  0  0  0  0
  -22.7480  -29.4670   22.5320 C   0  0  0  0  0  0  0  0  0  0  0  0
  -21.4170  -29.3140   22.4160 N   0  0  0  0  0  0  0  0  0  0  0  0
  -23.4160  -28.8370   23.3560 O   0  0  0  0  0  0  0  0  0  0  0  0
  -20.9360  -29.8830   21.7330 H   0  0  0  0  0  0  0  0  0  0  0  0
  -18.0240  -28.1420   22.9430 C   0  0  0  0  0  0  0  0  0  0  0  0
  -20.5880  -28.3870   23.1940 C   0  0  0  0  0  3  0  0  0  0  0  0
  -20.6720  -26.9510   22.6240 C   0  0  0  0  0  2  0  0  0  0  0  0
  -19.5630  -26.6360   21.6160 C   0  0  0  0  0  2  0  0  0  0  0  0
  -18.1860  -26.7910   22.2680 C   0  0  0  0  0  2  0  0  0  0  0  0
  -19.1520  -28.8970   23.3640 C   0  0  0  0  0  0  0  0  0  0  0  0
  -18.9450  -30.1580   23.9630 C   0  0  0  0  0  3  0  0  0  0  0  0
  -17.6460  -30.6680   24.1410 C   0  0  0  0  0  3  0  0  0  0  0  0
  -16.5320  -29.9100   23.7380 C   0  0  0  0  0  3  0  0  0  0  0  0
  -16.7230  -28.6500   23.1430 C   0  0  0  0  0  3  0  0  0  0  0  0
  -25.9120  -32.5030   23.8230 C   0  0  0  0  0  3  0  0  0  0  0  0
  -25.5940  -33.9020   24.1590 N   0  0  0  0  0  0  0  0  0  0  0  0
  -25.9210  -34.9650   23.4120 C   0  0  0  0  0  0  0  0  0  0  0  0
  -26.5850  -34.8720   22.3760 O   0  0  0  0  0  0  0  0  0  0  0  0
  -25.0050  -34.0490   24.9650 H   0  0  0  0  0  0  0  0  0  0  0  0
  -24.1850  -36.7620   23.0920 C   0  0  0  0  0  1  0  0  0  0  0  0
  -25.4340  -36.3510   23.8870 C   0  0  0  0  0  3  0  0  0  0  0  0
  -27.5760  -37.2360   24.6990 C   0  0  0  0  0  1  0  0  0  0  0  0
  -26.4620  -37.4100   23.7710 N   0  0  0  0  0  0  0  0  0  0  0  0
  -26.0540  -38.3260   23.9310 H   0  0  0  0  0  0  0  0  0  0  0  0
  -26.4220  -31.7420   25.1100 C   0  0  1  0  0  0  0  0  0  0  0  0
  -25.3250  -31.5140   26.1770 C   0  0  0  0  0  1  0  0  0  0  0  0
  -27.0060  -30.3610   24.7370 C   0  0  0  0  0  1  0  0  0  0  0  0
  -27.5710  -32.5410   25.7690 C   0  0  0  0  0  1  0  0  0  0  0  0
  -30.8360  -21.5780   20.2670 C   0  0  0  0  0  2  0  0  0  0  0  0
  -31.7020  -22.2070   17.9330 C   0  0  0  0  0  1  0  0  0  0  0  0
  -32.9580  -20.4460   19.2590 C   0  0  0  0  0  1  0  0  0  0  0  0
  -31.5750  -21.0890   18.9860 C   0  0  0  0  0  3  0  0  0  0  0  0
  1 85  1  0
  1  3  1  0
  1 42  1  0
  1  2  1  6
  4  3  2  0
  4  5  1  0
  6  5  1  0
  7 12  1  0
  8  9  1  0
  8  7  1  0
 10  9  1  0
 10 17  1  0
 10 11  1  0
 12  6  1  0
 12 11  1  0
 13  6  2  0
 14 15  2  0
 15 34  1  0
 16 15  1  0
 16 19  1  0
 17 14  1  0
 17 18  1  0
 18 16  2  0
 19 20  1  0
 20 21  2  0
 22 25  1  0
 22 21  1  0
 23 22  2  0
 24 23  1  0
 24 19  2  0
 25 26  1  0
 26 27  1  0
 27 28  2  0
 29 28  1  0
 29 33  1  0
 30 29  2  0
 31 26  2  0
 31 30  1  0
 32 31  1  0
 34 35  1  0
 35 38  1  0
 35 37  1  0
 36 34  2  0
 39 40  1  0
 39 14  1  0
 41 39  1  0
 43 44  1  0
 43 42  1  0
 45 56  2  0
 46 44  1  0
 46 51  1  0
 47 55  1  0
 47 57  1  0
 48 54  1  0
 48 50  1  0
 49 55  1  0
 50 51  2  0
 50 49  1  0
 52 46  2  0
 53 52  1  0
 53 48  2  0
 54 47  1  0
 55 45  1  0
 57 59  2  0
 58 57  1  0
 60 58  1  0
 61 70  2  0
 61 66  1  0
 62 58  1  0
 62 66  1  0
 63 62  1  0
 64 65  1  0
 64 63  1  0
 65 61  1  0
 66 67  2  0
 67 68  1  0
 69 68  2  0
 70 69  1  0
 71 45  1  0
 71 72  1  0
 71 81  1  0
 72 75  1  0
 73 77  1  0
 73 72  1  0
 74 73  2  0
 77 76  1  0
 79 77  1  0
 79 80  1  0
 79 78  1  0
 81 84  1  1
 81 82  1  0
 83 81  1  0
 86 88  1  0
 88 87  1  0
 88 85  1  0
M  ISO  4   5 100   6 100  43 101  44 101
M  END
>  <TORSDO>  (93) 
F 23

>  <SCORE>  (93) 
-14.617

>  <name>  (93) 
95

>  <ligand_id>  (93) 
95

>  <original_smiles>  (93) 
[H]c1c([H])c([H])c2c(c1[H])C([H])([H])C([H])([H])C([H])([H])C2([H])N([H])C(=O)C1([H])N(C(=O)C([H])(N([H])C(=O)C([H])(N([H])C([H])([H])[H])C([H])([H])[H])C(C([H])([H])[H])(C([H])([H])[H])C([H])([H])[H])C([H])([H])c2c([H])c(OC([H])([H])C([H])([H])[N+]([H])(C([H])([H])C([H])([H])C([H])([H])C(=O)N3C([H])([H])C([H])([H])C([H])([H])C([H])(n4nc(-c5c([H])c([H])c(Oc6c([H])c([H])c(F)c([H])c6F)c([H])c5[H])c(C(=O)N([H])[H])c4N([H])[H])C3([H])[H])C([H])([H])C([H])(C([H])([H])[H])C([H])([H])[H])c([H])c([H])c2C1([H])[H]

>  <smiles>  (93) 
[H]c1c([H])c([H])c2c(c1[H])C([H])([H])C([H])([H])C([H])([H])C2([H])N([H])C(=O)C1([H])N(C(=O)C([H])(N([H])C(=O)C([H])(N([H])C([H])([H])[H])C([H])([H])[H])C(C([H])([H])[H])(C([H])([H])[H])C([H])([H])[H])C([H])([H])c2c([H])c(OC([H])([H])C([H])([H])[N+]([H])(C([H])([H])C([H])([H])C([H])([H])C(=O)N3C([H])([H])C([H])([H])C([H])([H])C([H])(n4nc(-c5c([H])c([H])c(Oc6c([H])c([H])c(F)c([H])c6F)c([H])c5[H])c(C(=O)N([H])[H])c4N([H])[H])C3([H])[H])C([H])([H])C([H])(C([H])([H])[H])C([H])([H])[H])c([H])c([H])c2C1([H])[H]

$$$$
96:0:0
     RDKit          3D

 99107  0  0  1  0  0  0  0  0999 V2000
  -29.0870  -19.7650   20.2360 C   0  0  0  0  0  0  0  0  0  0  0  0
  -28.0560  -20.2530   19.3830 C   0  0  0  0  0  0  0  0  0  0  0  0
  -29.8660  -20.8140   20.8060 C   0  0  0  0  0  0  0  0  0  0  0  0
  -28.5470  -22.4900   19.8340 C   0  0  0  0  0  0  0  0  0  0  0  0
  -27.1330  -19.3140   18.6340 C   0  0  0  0  0  1  0  0  0  0  0  0
  -27.7810  -21.5820   19.2210 N   0  0  0  0  0  0  0  0  0  0  0  0
  -29.5980  -22.1250   20.5690 N   0  0  0  0  0  0  0  0  0  0  0  0
  -29.1830  -18.2490   20.6970 C   0  0  0  0  0  3  0  0  0  0  0  0
  -30.2500  -17.2110   20.1070 C   0  0  0  0  0  3  0  0  0  0  0  0
  -30.7870  -14.6960   19.9600 C   0  0  0  0  0  0  0  0  0  0  0  0
  -30.4970  -12.4840   18.8290 C   0  0  0  0  0  2  0  0  0  0  0  0
  -29.4660  -12.6090   17.6840 C   0  0  0  0  0  2  0  0  0  0  0  0
  -28.0280  -12.4300   18.2110 C   0  0  0  0  0  2  0  0  0  0  0  0
  -27.7570  -13.2660   19.4880 C   0  0  0  0  0  3  0  0  0  0  0  0
  -28.8860  -13.0780   20.5180 C   0  0  0  0  0  2  0  0  0  0  0  0
  -30.1460  -13.4780   19.8710 N   0  0  0  0  0  0  0  0  0  0  0  0
  -31.8510  -14.8780   19.3570 O   0  0  0  0  0  0  0  0  0  0  0  0
  -29.9840  -15.7020   22.0190 C   0  0  0  0  0  1  0  0  0  0  0  0
  -30.1260  -15.7620   20.5570 N   0  0  0  0  0  0  0  0  0  0  0  0
  -25.4320  -13.8490   20.4060 C   0  0  0  0  0  0  0  0  0  0  0  0
  -24.3920  -13.0670   20.8310 C   0  0  0  0  0  0  0  0  0  0  0  0
  -24.8400  -11.7160   20.7160 C   0  0  0  0  0  0  0  0  0  0  0  0
  -26.4470  -12.9720   20.0600 N   0  0  0  0  0  0  0  0  0  0  0  0
  -26.1010  -11.6830   20.3040 N   0  0  0  0  0  0  0  0  0  0  0  0
  -24.1240  -10.4500   20.9160 C   0  0  0  0  0  0  0  0  0  0  0  0
  -24.5630   -9.4930   21.8570 C   0  0  0  0  0  3  0  0  0  0  0  0
  -23.8450   -8.2930   22.0440 C   0  0  0  0  0  3  0  0  0  0  0  0
  -22.6730   -8.0410   21.2920 C   0  0  0  0  0  0  0  0  0  0  0  0
  -22.2540   -8.9860   20.3400 C   0  0  0  0  0  3  0  0  0  0  0  0
  -22.9720  -10.1790   20.1490 C   0  0  0  0  0  3  0  0  0  0  0  0
  -21.9260   -6.8920   21.3890 O   0  0  0  0  0  0  0  0  0  0  0  0
  -21.7960   -6.2160   22.5760 C   0  0  0  0  0  0  0  0  0  0  0  0
  -21.2680   -6.8330   23.7330 C   0  0  0  0  0  3  0  0  0  0  0  0
  -21.0910   -6.0820   24.9120 C   0  0  0  0  0  3  0  0  0  0  0  0
  -21.4260   -4.7150   24.9340 C   0  0  0  0  0  0  0  0  0  0  0  0
  -21.9430   -4.0980   23.7810 C   0  0  0  0  0  3  0  0  0  0  0  0
  -22.1250   -4.8460   22.6050 C   0  0  0  0  0  0  0  0  0  0  0  0
  -22.6040   -4.2410   21.4920 F   0  0  0  0  0  0  0  0  0  0  0  0
  -21.2450   -3.9910   26.0630 F   0  0  0  0  0  0  0  0  0  0  0  0
  -23.0240  -13.5410   21.2300 C   0  0  0  0  0  0  0  0  0  0  0  0
  -22.3720  -12.8300   22.1430 N   0  0  0  0  0  0  0  0  0  0  0  0
  -22.5430  -14.5740   20.7640 O   0  0  0  0  0  0  0  0  0  0  0  0
  -22.7740  -11.9940   22.5410 H   0  0  0  0  0  0  0  0  0  0  0  0
  -21.4580  -13.1270   22.4540 H   0  0  0  0  0  0  0  0  0  0  0  0
  -25.5940  -15.2240   20.2690 N   0  0  0  0  0  0  0  0  0  0  0  0
  -24.8450  -15.8810   20.4670 H   0  0  0  0  0  0  0  0  0  0  0  0
  -26.4280  -15.6690   19.9070 H   0  0  0  0  0  0  0  0  0  0  0  0
  -31.0050  -20.5750   21.8000 C   0  0  0  0  0  2  0  0  0  0  0  0
  -30.6510  -20.9250   23.2750 C   0  0  0  0  0  2  0  0  0  0  0  0
  -30.5620  -22.4520   25.0880 C   0  0  0  0  0  1  0  0  0  0  0  0
  -30.6350  -22.3600   23.6300 N   0  0  0  0  0  0  0  0  0  0  0  0
  -29.4800  -23.0470   23.0160 C   0  0  0  0  0  2  0  0  0  0  0  0
  -29.3350  -24.5680   23.2710 C   0  0  1  0  0  0  0  0  0  0  0  0
  -28.3990  -25.0400   22.4480 F   0  0  0  0  0  0  0  0  0  0  0  0
  -28.9480  -24.8510   24.5160 F   0  0  0  0  0  0  0  0  0  0  0  0
  -30.4780  -25.2040   23.0090 F   0  0  0  0  0  0  0  0  0  0  0  0
  -28.0780  -23.9890   19.9830 C   0  0  0  0  0  2  0  0  0  0  0  0
  -28.1800  -25.0220   18.7880 C   0  0  0  0  0  2  0  0  0  0  0  0
  -28.1670  -26.4710   19.0900 O   0  0  0  0  0  0  0  0  0  0  0  0
  -24.6510  -31.4850   22.8530 C   0  0  0  0  0  0  0  0  0  0  0  0
  -27.0070  -27.2460   19.1970 C   0  0  0  0  0  0  0  0  0  0  0  0
  -23.3200  -30.2470   21.1780 C   0  0  0  0  0  3  0  0  0  0  0  0
  -24.6510  -28.8290   19.5140 C   0  0  0  0  0  0  0  0  0  0  0  0
  -25.8390  -30.5820   20.8410 C   0  0  0  0  0  2  0  0  0  0  0  0
  -25.8590  -29.2700   20.0680 C   0  0  0  0  0  0  0  0  0  0  0  0
  -27.0370  -28.4870   19.9020 C   0  0  0  0  0  3  0  0  0  0  0  0
  -25.7750  -26.8410   18.6440 C   0  0  0  0  0  3  0  0  0  0  0  0
  -24.6100  -27.6210   18.7950 C   0  0  0  0  0  3  0  0  0  0  0  0
  -23.4250  -29.6930   19.7310 C   0  0  0  0  0  2  0  0  0  0  0  0
  -24.6280  -30.7830   21.6810 N   0  0  0  0  0  0  0  0  0  0  0  0
  -23.6110  -31.7130   23.4870 O   0  0  0  0  0  0  0  0  0  0  0  0
  -22.7180  -29.1490   22.0860 C   0  0  0  0  0  0  0  0  0  0  0  0
  -21.3880  -28.9820   22.0290 N   0  0  0  0  0  0  0  0  0  0  0  0
  -23.4450  -28.4520   22.8000 O   0  0  0  0  0  0  0  0  0  0  0  0
  -20.8570  -29.5990   21.4300 H   0  0  0  0  0  0  0  0  0  0  0  0
  -18.0490  -27.7140   22.5970 C   0  0  0  0  0  0  0  0  0  0  0  0
  -20.6140  -27.9770   22.7610 C   0  0  0  0  0  3  0  0  0  0  0  0
  -20.6970  -26.5950   22.0720 C   0  0  0  0  0  2  0  0  0  0  0  0
  -19.5490  -26.3420   21.0900 C   0  0  0  0  0  2  0  0  0  0  0  0
  -18.2010  -26.4230   21.8100 C   0  0  0  0  0  2  0  0  0  0  0  0
  -19.1830  -28.4520   23.0300 C   0  0  0  0  0  0  0  0  0  0  0  0
  -18.9840  -29.6630   23.7280 C   0  0  0  0  0  3  0  0  0  0  0  0
  -17.6860  -30.1350   23.9970 C   0  0  0  0  0  3  0  0  0  0  0  0
  -16.5680  -29.3910   23.5790 C   0  0  0  0  0  3  0  0  0  0  0  0
  -16.7500  -28.1830   22.8850 C   0  0  0  0  0  3  0  0  0  0  0  0
  -25.9810  -32.0530   23.4400 C   0  0  0  0  0  3  0  0  0  0  0  0
  -26.6110  -31.1310   24.5560 C   0  0  1  0  0  0  0  0  0  0  0  0
  -25.6200  -30.7480   25.6790 C   0  0  0  0  0  1  0  0  0  0  0  0
  -27.1520  -29.8200   23.9420 C   0  0  0  0  0  1  0  0  0  0  0  0
  -27.8250  -31.8430   25.2020 C   0  0  0  0  0  1  0  0  0  0  0  0
  -25.6970  -33.3920   23.9760 N   0  0  0  0  0  0  0  0  0  0  0  0
  -25.9830  -34.5390   23.3500 C   0  0  0  0  0  0  0  0  0  0  0  0
  -26.5840  -34.5800   22.2730 O   0  0  0  0  0  0  0  0  0  0  0  0
  -25.1550  -33.4340   24.8270 H   0  0  0  0  0  0  0  0  0  0  0  0
  -24.2350  -36.3470   23.3580 C   0  0  0  0  0  1  0  0  0  0  0  0
  -25.5310  -35.8500   24.0200 C   0  0  0  0  0  3  0  0  0  0  0  0
  -27.7180  -36.6300   24.8160 C   0  0  0  0  0  1  0  0  0  0  0  0
  -26.5550  -36.9170   23.9810 N   0  0  0  0  0  0  0  0  0  0  0  0
  -26.1610  -37.8060   24.2800 H   0  0  0  0  0  0  0  0  0  0  0  0
  1  8  1  0
  1  3  1  0
  2  1  2  0
  3 48  1  0
  4 57  1  0
  4  7  1  0
  5  2  1  0
  6  2  1  0
  6  4  2  0
  7  3  2  0
  9 19  1  0
  9  8  2  0
 10 19  1  0
 11 16  1  0
 12 13  1  0
 12 11  1  0
 14 13  1  0
 14 23  1  0
 14 15  1  0
 16 10  1  0
 16 15  1  0
 17 10  2  0
 19 18  1  0
 20 21  2  0
 21 40  1  0
 22 21  1  0
 22 25  1  0
 23 24  1  0
 23 20  1  0
 24 22  2  0
 25 26  1  0
 26 27  2  0
 28 31  1  0
 28 27  1  0
 29 28  2  0
 30 29  1  0
 30 25  2  0
 31 32  1  0
 32 37  2  0
 32 33  1  0
 33 34  2  0
 34 35  1  0
 35 39  1  0
 36 35  2  0
 37 36  1  0
 38 37  1  0
 40 41  1  0
 41 44  1  0
 41 43  1  0
 42 40  2  0
 45 20  1  0
 45 46  1  0
 47 45  1  0
 48 49  1  0
 49 51  1  0
 51 50  1  0
 52 53  1  0
 52 51  1  0
 53 55  1  1
 54 53  1  0
 56 53  1  0
 58 59  1  0
 58 57  1  0
 59 61  1  0
 60 71  2  0
 61 66  1  0
 62 70  1  0
 62 72  1  0
 63 69  1  0
 63 65  1  0
 64 70  1  0
 65 64  1  0
 66 65  2  0
 67 68  1  0
 67 61  2  0
 68 63  2  0
 69 62  1  0
 70 60  1  0
 72 74  2  0
 73 72  1  0
 75 73  1  0
 76 85  2  0
 76 81  1  0
 77 73  1  0
 77 81  1  0
 78 77  1  0
 79 80  1  0
 79 78  1  0
 80 76  1  0
 81 82  2  0
 82 83  1  0
 84 83  2  0
 85 84  1  0
 86 60  1  0
 86 91  1  0
 86 87  1  0
 87 90  1  1
 87 88  1  0
 89 87  1  0
 91 94  1  0
 92 91  1  0
 92 96  1  0
 93 92  2  0
 96 95  1  0
 98 96  1  0
 98 99  1  0
 98 97  1  0
M  ISO  4  10 100  19 100  58 101  59 101
M  END
>  <TORSDO>  (94) 
F 25

>  <SCORE>  (94) 
-10.477

>  <name>  (94) 
96

>  <ligand_id>  (94) 
96

>  <original_smiles>  (94) 
[H]c1c([H])c([H])c2c(c1[H])C([H])([H])C([H])([H])C([H])([H])C2([H])N([H])C(=O)C1([H])N(C(=O)C([H])(N([H])C(=O)C([H])(N([H])C([H])([H])[H])C([H])([H])[H])C(C([H])([H])[H])(C([H])([H])[H])C([H])([H])[H])C([H])([H])c2c([H])c(OC([H])([H])C([H])([H])c3nc(C([H])([H])[H])c(C([H])([H])C([H])([H])N(C(=O)N4C([H])([H])C([H])([H])C([H])([H])C([H])(n5nc(-c6c([H])c([H])c(Oc7c([H])c([H])c(F)c([H])c7F)c([H])c6[H])c(C(=O)N([H])[H])c5N([H])[H])C4([H])[H])C([H])([H])[H])c(C([H])([H])C([H])([H])N(C([H])([H])[H])C([H])([H])C(F)(F)F)n3)c([H])c([H])c2C1([H])[H]

>  <smiles>  (94) 
[H]c1c([H])c([H])c2c(c1[H])C([H])([H])C([H])([H])C([H])([H])C2([H])N([H])C(=O)C1([H])N(C(=O)C([H])(N([H])C(=O)C([H])(N([H])C([H])([H])[H])C([H])([H])[H])C(C([H])([H])[H])(C([H])([H])[H])C([H])([H])[H])C([H])([H])c2c([H])c(OC([H])([H])C([H])([H])c3nc(C([H])([H])[H])c(C([H])([H])C([H])([H])N(C(=O)N4C([H])([H])C([H])([H])C([H])([H])C([H])(n5nc(-c6c([H])c([H])c(Oc7c([H])c([H])c(F)c([H])c7F)c([H])c6[H])c(C(=O)N([H])[H])c5N([H])[H])C4([H])[H])C([H])([H])[H])c(C([H])([H])C([H])([H])N(C([H])([H])[H])C([H])([H])C(F)(F)F)n3)c([H])c([H])c2C1([H])[H]

$$$$
