1:0:0
     RDKit          3D

 93101  0  0  1  0  0  0  0  0999 V2000
  -30.9650  -22.7650   19.5850 C   0  0  0  0  0  3  0  0  0  0  0  0
  -30.2580  -20.7980   19.8360 C   0  0  0  0  0  0  0  0  0  0  0  0
  -31.9050  -22.0060   19.0310 N   0  0  0  0  0  0  0  0  0  0  0  0
  -31.4140  -20.7360   19.1440 N   0  0  0  0  0  0  0  0  0  0  0  0
  -29.8700  -22.1210   20.0350 N   0  0  0  0  0  0  0  0  0  0  0  0
  -28.7480  -19.0390   18.8890 C   0  0  0  0  0  1  0  0  0  0  0  0
  -29.4790  -19.4810   20.1690 C   0  0  0  0  0  3  0  0  0  0  0  0
  -31.7130  -18.1020   20.3770 C   0  0  0  0  0  1  0  0  0  0  0  0
  -30.2980  -18.6260   22.3800 C   0  0  0  0  0  1  0  0  0  0  0  0
  -30.2630  -18.2410   20.8840 C   0  0  1  0  0  0  0  0  0  0  0  0
  -29.5720  -16.7930   20.7390 C   0  0  0  0  0  2  0  0  0  0  0  0
  -30.7380  -14.5310   20.6050 C   0  0  0  0  0  0  0  0  0  0  0  0
  -30.4320  -12.3400   19.4640 C   0  0  0  0  0  2  0  0  0  0  0  0
  -29.5140  -12.5140   18.2380 C   0  0  0  0  0  2  0  0  0  0  0  0
  -28.0340  -12.3510   18.6400 C   0  0  0  0  0  2  0  0  0  0  0  0
  -27.6570  -13.2280   19.8620 C   0  0  0  0  0  3  0  0  0  0  0  0
  -28.6940  -13.0640   20.9930 C   0  0  0  0  0  2  0  0  0  0  0  0
  -30.0390  -13.3590   20.4640 N   0  0  0  0  0  0  0  0  0  0  0  0
  -31.8030  -14.7180   20.0170 O   0  0  0  0  0  0  0  0  0  0  0  0
  -30.2160  -15.4310   22.7970 C   0  0  0  0  0  1  0  0  0  0  0  0
  -30.1700  -15.5410   21.3360 N   0  0  0  0  0  0  0  0  0  0  0  0
  -25.2550  -13.8310   20.5720 C   0  0  0  0  0  0  0  0  0  0  0  0
  -24.1800  -13.0600   20.9210 C   0  0  0  0  0  0  0  0  0  0  0  0
  -24.6330  -11.7040   20.8720 C   0  0  0  0  0  0  0  0  0  0  0  0
  -26.2980  -12.9500   20.3280 N   0  0  0  0  0  0  0  0  0  0  0  0
  -25.9270  -11.6660   20.5720 N   0  0  0  0  0  0  0  0  0  0  0  0
  -23.8990  -10.4420   21.0370 C   0  0  0  0  0  0  0  0  0  0  0  0
  -24.3600   -9.4360   21.9140 C   0  0  0  0  0  3  0  0  0  0  0  0
  -23.6340   -8.2350   22.0720 C   0  0  0  0  0  3  0  0  0  0  0  0
  -22.4300   -8.0340   21.3540 C   0  0  0  0  0  0  0  0  0  0  0  0
  -21.9910   -9.0280   20.4610 C   0  0  0  0  0  3  0  0  0  0  0  0
  -22.7180  -10.2200   20.3010 C   0  0  0  0  0  3  0  0  0  0  0  0
  -21.6680   -6.8930   21.4250 O   0  0  0  0  0  0  0  0  0  0  0  0
  -21.6870   -6.0790   22.5290 C   0  0  0  0  0  0  0  0  0  0  0  0
  -21.4000   -6.5680   23.8220 C   0  0  0  0  0  3  0  0  0  0  0  0
  -21.3660   -5.6800   24.9180 C   0  0  0  0  0  3  0  0  0  0  0  0
  -21.6040   -4.3070   24.7190 C   0  0  0  0  0  0  0  0  0  0  0  0
  -21.8810   -3.8180   23.4310 C   0  0  0  0  0  3  0  0  0  0  0  0
  -21.9210   -4.7020   22.3390 C   0  0  0  0  0  0  0  0  0  0  0  0
  -22.1690   -4.2230   21.0960 F   0  0  0  0  0  0  0  0  0  0  0  0
  -21.5640   -3.4540   25.7700 F   0  0  0  0  0  0  0  0  0  0  0  0
  -22.7800  -13.5330   21.1910 C   0  0  0  0  0  0  0  0  0  0  0  0
  -22.0410  -12.8300   22.0410 N   0  0  0  0  0  0  0  0  0  0  0  0
  -22.3460  -14.5640   20.6740 O   0  0  0  0  0  0  0  0  0  0  0  0
  -22.4100  -12.0050   22.4930 H   0  0  0  0  0  0  0  0  0  0  0  0
  -21.0950  -13.1200   22.2480 H   0  0  0  0  0  0  0  0  0  0  0  0
  -25.4330  -15.2050   20.4190 N   0  0  0  0  0  0  0  0  0  0  0  0
  -24.6710  -15.8660   20.5160 H   0  0  0  0  0  0  0  0  0  0  0  0
  -26.2940  -15.6370   20.1080 H   0  0  0  0  0  0  0  0  0  0  0  0
  -28.7030  -22.8150   20.6550 C   0  0  0  0  0  2  0  0  0  0  0  0
  -27.9100  -23.9370   19.8340 C   0  0  0  0  0  2  0  0  0  0  0  0
  -28.5210  -25.3250   19.3610 C   0  0  0  0  0  2  0  0  0  0  0  0
  -28.3810  -26.5530   20.1490 O   0  0  0  0  0  0  0  0  0  0  0  0
  -24.6240  -31.8630   23.2010 C   0  0  0  0  0  0  0  0  0  0  0  0
  -27.2330  -27.3480   20.0940 C   0  0  0  0  0  0  0  0  0  0  0  0
  -23.4160  -30.4860   21.5380 C   0  0  0  0  0  3  0  0  0  0  0  0
  -24.8650  -28.9370   20.1090 C   0  0  0  0  0  0  0  0  0  0  0  0
  -25.9540  -30.7990   21.3700 C   0  0  0  0  0  2  0  0  0  0  0  0
  -26.0290  -29.4270   20.7150 C   0  0  0  0  0  0  0  0  0  0  0  0
  -27.2130  -28.6370   20.7070 C   0  0  0  0  0  3  0  0  0  0  0  0
  -26.0470  -26.9010   19.4740 C   0  0  0  0  0  3  0  0  0  0  0  0
  -24.8730  -27.6810   19.4840 C   0  0  0  0  0  3  0  0  0  0  0  0
  -23.6310  -29.8130   20.1560 C   0  0  0  0  0  2  0  0  0  0  0  0
  -24.6820  -31.0660   22.0930 N   0  0  0  0  0  0  0  0  0  0  0  0
  -23.5410  -32.1430   23.7340 O   0  0  0  0  0  0  0  0  0  0  0  0
  -22.7450  -29.4670   22.4890 C   0  0  0  0  0  0  0  0  0  0  0  0
  -21.4170  -29.3090   22.3640 N   0  0  0  0  0  0  0  0  0  0  0  0
  -23.4180  -28.8190   23.2950 O   0  0  0  0  0  0  0  0  0  0  0  0
  -20.9330  -29.8870   21.6910 H   0  0  0  0  0  0  0  0  0  0  0  0
  -18.0290  -28.1390   22.8490 C   0  0  0  0  0  0  0  0  0  0  0  0
  -20.5890  -28.3730   23.1260 C   0  0  0  0  0  3  0  0  0  0  0  0
  -20.6780  -26.9450   22.5400 C   0  0  0  0  0  2  0  0  0  0  0  0
  -19.5760  -26.6390   21.5200 C   0  0  0  0  0  2  0  0  0  0  0  0
  -18.1930  -26.7930   22.1610 C   0  0  0  0  0  2  0  0  0  0  0  0
  -19.1540  -28.8860   23.2880 C   0  0  0  0  0  0  0  0  0  0  0  0
  -18.9470  -30.1440   23.8930 C   0  0  0  0  0  3  0  0  0  0  0  0
  -17.6470  -30.6600   24.0560 C   0  0  0  0  0  3  0  0  0  0  0  0
  -16.5360  -29.9120   23.6310 C   0  0  0  0  0  3  0  0  0  0  0  0
  -16.7280  -28.6510   23.0370 C   0  0  0  0  0  3  0  0  0  0  0  0
  -25.9100  -32.4790   23.8370 C   0  0  0  0  0  3  0  0  0  0  0  0
  -25.5930  -33.8600   24.2270 N   0  0  0  0  0  0  0  0  0  0  0  0
  -25.9060  -34.9470   23.5090 C   0  0  0  0  0  0  0  0  0  0  0  0
  -26.5640  -34.8920   22.4650 O   0  0  0  0  0  0  0  0  0  0  0  0
  -25.0040  -33.9790   25.0400 H   0  0  0  0  0  0  0  0  0  0  0  0
  -24.1510  -36.7320   23.2630 C   0  0  0  0  0  1  0  0  0  0  0  0
  -25.4130  -36.3100   24.0300 C   0  0  0  0  0  3  0  0  0  0  0  0
  -27.5580  -37.1810   24.8440 C   0  0  0  0  0  1  0  0  0  0  0  0
  -26.4290  -37.3780   23.9380 N   0  0  0  0  0  0  0  0  0  0  0  0
  -26.0180  -38.2850   24.1400 H   0  0  0  0  0  0  0  0  0  0  0  0
  -26.4480  -31.6610   25.0730 C   0  0  1  0  0  0  0  0  0  0  0  0
  -25.3720  -31.3740   26.1450 C   0  0  0  0  0  1  0  0  0  0  0  0
  -27.0340  -30.3040   24.6180 C   0  0  0  0  0  1  0  0  0  0  0  0
  -27.6070  -32.4310   25.7520 C   0  0  0  0  0  1  0  0  0  0  0  0
  1  5  1  0
  2  5  1  0
  2  7  1  0
  3  4  1  0
  3  1  2  0
  4  2  2  0
  5 50  1  0
  7  6  1  0
  7 10  1  0
 10  8  1  6
 10  9  1  0
 11 10  1  0
 11 21  1  0
 12 21  1  0
 13 18  1  0
 14 15  1  0
 14 13  1  0
 16 15  1  0
 16 25  1  0
 16 17  1  0
 18 12  1  0
 18 17  1  0
 19 12  2  0
 21 20  1  0
 22 23  2  0
 23 42  1  0
 24 23  1  0
 24 27  1  0
 25 26  1  0
 25 22  1  0
 26 24  2  0
 27 28  1  0
 28 29  2  0
 30 33  1  0
 30 29  1  0
 31 30  2  0
 32 31  1  0
 32 27  2  0
 33 34  1  0
 34 35  1  0
 35 36  2  0
 37 36  1  0
 37 41  1  0
 38 37  2  0
 39 34  2  0
 39 38  1  0
 40 39  1  0
 42 43  1  0
 43 46  1  0
 43 45  1  0
 44 42  2  0
 47 48  1  0
 47 22  1  0
 49 47  1  0
 51 50  1  0
 52 51  1  0
 52 53  1  0
 54 65  2  0
 55 53  1  0
 55 60  1  0
 56 64  1  0
 56 66  1  0
 57 63  1  0
 57 59  1  0
 58 64  1  0
 59 58  1  0
 60 59  2  0
 61 62  1  0
 61 55  2  0
 62 57  2  0
 63 56  1  0
 64 54  1  0
 66 68  2  0
 67 66  1  0
 69 67  1  0
 70 79  2  0
 70 75  1  0
 71 67  1  0
 71 75  1  0
 72 71  1  0
 73 74  1  0
 73 72  1  0
 74 70  1  0
 75 76  2  0
 76 77  1  0
 78 77  2  0
 79 78  1  0
 80 54  1  0
 80 81  1  0
 80 90  1  0
 81 84  1  0
 82 86  1  0
 82 81  1  0
 83 82  2  0
 86 85  1  0
 88 86  1  0
 88 89  1  0
 88 87  1  0
 90 93  1  1
 90 91  1  0
 92 90  1  0
M  ISO  4  12 100  21 100  52 101  53 101
M  END
>  <TORSDO>  (1) 
F 22

>  <SCORE>  (1) 
-11.081

>  <name>  (1) 
1

>  <ligand_id>  (1) 
1

>  <original_smiles>  (1) 
[H]c1c([H])c([H])c2c(c1[H])C([H])([H])C([H])([H])C([H])([H])C2([H])N([H])C(=O)C1([H])N(C(=O)C([H])(N([H])C(=O)C([H])(N([H])C([H])([H])[H])C([H])([H])[H])C(C([H])([H])[H])(C([H])([H])[H])C([H])([H])[H])C([H])([H])c2c([H])c(OC([H])([H])C([H])([H])C([H])([H])n3c([H])nnc3C([H])(C([H])([H])[H])C(C([H])([H])[H])(C([H])([H])[H])C([H])([H])N(C(=O)N3C([H])([H])C([H])([H])C([H])([H])C([H])(n4nc(-c5c([H])c([H])c(Oc6c([H])c([H])c(F)c([H])c6F)c([H])c5[H])c(C(=O)N([H])[H])c4N([H])[H])C3([H])[H])C([H])([H])[H])c([H])c([H])c2C1([H])[H]

>  <smiles>  (1) 
[H]c1c([H])c([H])c2c(c1[H])C([H])([H])C([H])([H])C([H])([H])C2([H])N([H])C(=O)C1([H])N(C(=O)C([H])(N([H])C(=O)C([H])(N([H])C([H])([H])[H])C([H])([H])[H])C(C([H])([H])[H])(C([H])([H])[H])C([H])([H])[H])C([H])([H])c2c([H])c(OC([H])([H])C([H])([H])C([H])([H])n3c([H])nnc3C([H])(C([H])([H])[H])C(C([H])([H])[H])(C([H])([H])[H])C([H])([H])N(C(=O)N3C([H])([H])C([H])([H])C([H])([H])C([H])(n4nc(-c5c([H])c([H])c(Oc6c([H])c([H])c(F)c([H])c6F)c([H])c5[H])c(C(=O)N([H])[H])c4N([H])[H])C3([H])[H])C([H])([H])[H])c([H])c([H])c2C1([H])[H]

$$$$
3:0:0
     RDKit          3D

 95103  0  0  1  0  0  0  0  0999 V2000
  -29.0440  -18.7460   19.4680 C   0  0  0  0  0  3  0  0  0  0  0  0
  -30.0610  -18.4630   20.4160 C   0  0  0  0  0  0  0  0  0  0  0  0
  -30.0320  -20.7770   20.9750 C   0  0  0  0  0  0  0  0  0  0  0  0
  -28.9900  -21.0560   20.0470 C   0  0  0  0  0  0  0  0  0  0  0  0
  -30.6710  -21.8280   21.8560 C   0  0  0  0  0  1  0  0  0  0  0  0
  -28.5250  -20.0080   19.2950 N   0  0  0  0  0  0  0  0  0  0  0  0
  -30.5310  -19.5170   21.1500 N   0  0  0  0  0  0  0  0  0  0  0  0
  -30.4420  -16.8250   22.2730 C   0  0  0  0  0  1  0  0  0  0  0  0
  -30.6850  -17.0380   20.7600 C   0  0  1  0  0  0  0  0  0  0  0  0
  -30.6330  -14.7200   19.5070 C   0  0  0  0  0  0  0  0  0  0  0  0
  -30.1870  -12.5070   18.4610 C   0  0  0  0  0  2  0  0  0  0  0  0
  -29.0790  -12.6420   17.3970 C   0  0  0  0  0  2  0  0  0  0  0  0
  -27.6890  -12.4820   18.0440 C   0  0  0  0  0  2  0  0  0  0  0  0
  -27.5170  -13.3510   19.3180 C   0  0  0  0  0  3  0  0  0  0  0  0
  -28.7310  -13.2160   20.2650 C   0  0  0  0  0  2  0  0  0  0  0  0
  -29.9390  -13.5380   19.4910 N   0  0  0  0  0  0  0  0  0  0  0  0
  -31.6780  -14.8310   18.8710 O   0  0  0  0  0  0  0  0  0  0  0  0
  -30.0680  -15.7860   20.1580 N   0  0  0  0  0  0  0  0  0  0  0  0
  -29.1420  -15.5950   20.4990 H   0  0  0  0  0  0  0  0  0  0  0  0
  -25.3080  -13.9560   20.4750 C   0  0  0  0  0  0  0  0  0  0  0  0
  -24.2860  -13.1910   20.9620 C   0  0  0  0  0  0  0  0  0  0  0  0
  -24.6750  -11.8310   20.7510 C   0  0  0  0  0  0  0  0  0  0  0  0
  -26.2590  -13.0670   20.0020 N   0  0  0  0  0  0  0  0  0  0  0  0
  -25.8930  -11.7780   20.2260 N   0  0  0  0  0  0  0  0  0  0  0  0
  -23.9340  -10.5810   20.9680 C   0  0  0  0  0  0  0  0  0  0  0  0
  -24.4240   -9.5670   21.8200 C   0  0  0  0  0  3  0  0  0  0  0  0
  -23.6820   -8.3840   22.0270 C   0  0  0  0  0  3  0  0  0  0  0  0
  -22.4350   -8.2070   21.3820 C   0  0  0  0  0  0  0  0  0  0  0  0
  -21.9620   -9.2090   20.5170 C   0  0  0  0  0  3  0  0  0  0  0  0
  -22.7030  -10.3830   20.3080 C   0  0  0  0  0  3  0  0  0  0  0  0
  -21.6570   -7.0800   21.5040 O   0  0  0  0  0  0  0  0  0  0  0  0
  -21.6510   -6.3310   22.6540 C   0  0  0  0  0  0  0  0  0  0  0  0
  -21.2710   -6.8800   23.8990 C   0  0  0  0  0  3  0  0  0  0  0  0
  -21.2100   -6.0570   25.0420 C   0  0  0  0  0  3  0  0  0  0  0  0
  -21.5220   -4.6870   24.9410 C   0  0  0  0  0  0  0  0  0  0  0  0
  -21.8940   -4.1390   23.7000 C   0  0  0  0  0  3  0  0  0  0  0  0
  -21.9550   -4.9580   22.5610 C   0  0  0  0  0  0  0  0  0  0  0  0
  -22.2940   -4.4210   21.3630 F   0  0  0  0  0  0  0  0  0  0  0  0
  -21.4560   -3.8950   26.0340 F   0  0  0  0  0  0  0  0  0  0  0  0
  -22.9750  -13.6880   21.5000 C   0  0  0  0  0  0  0  0  0  0  0  0
  -22.3690  -12.9540   22.4240 N   0  0  0  0  0  0  0  0  0  0  0  0
  -22.5040  -14.7640   21.1320 O   0  0  0  0  0  0  0  0  0  0  0  0
  -22.7590  -12.0780   22.7390 H   0  0  0  0  0  0  0  0  0  0  0  0
  -21.4960  -13.2690   22.8220 H   0  0  0  0  0  0  0  0  0  0  0  0
  -25.5030  -15.3310   20.3690 N   0  0  0  0  0  0  0  0  0  0  0  0
  -24.7860  -15.9940   20.6420 H   0  0  0  0  0  0  0  0  0  0  0  0
  -26.2860  -15.7640   19.8970 H   0  0  0  0  0  0  0  0  0  0  0  0
  -32.2430  -17.0880   20.5360 C   0  0  2  0  0  0  0  0  0  0  0  0
  -32.5410  -17.4070   19.2740 F   0  0  0  0  0  0  0  0  0  0  0  0
  -32.8260  -15.9320   20.8620 F   0  0  0  0  0  0  0  0  0  0  0  0
  -32.8360  -17.9980   21.3140 F   0  0  0  0  0  0  0  0  0  0  0  0
  -28.2200  -22.4230   19.8420 C   0  0  0  0  0  2  0  0  0  0  0  0
  -28.7140  -23.8780   20.2940 C   0  0  0  0  0  2  0  0  0  0  0  0
  -27.7560  -25.0580   19.8070 C   0  0  0  0  0  2  0  0  0  0  0  0
  -27.9960  -26.4920   20.1110 O   0  0  0  0  0  0  0  0  0  0  0  0
  -24.4890  -31.9670   23.2310 C   0  0  0  0  0  0  0  0  0  0  0  0
  -26.8980  -27.3750   20.0730 C   0  0  0  0  0  0  0  0  0  0  0  0
  -23.1890  -30.5960   21.6390 C   0  0  0  0  0  3  0  0  0  0  0  0
  -24.5590  -29.0300   20.1490 C   0  0  0  0  0  0  0  0  0  0  0  0
  -25.7250  -30.8740   21.3530 C   0  0  0  0  0  2  0  0  0  0  0  0
  -25.7580  -29.4950   20.7060 C   0  0  0  0  0  0  0  0  0  0  0  0
  -26.9290  -28.6800   20.6600 C   0  0  0  0  0  3  0  0  0  0  0  0
  -25.6780  -26.9780   19.4730 C   0  0  0  0  0  3  0  0  0  0  0  0
  -24.5220  -27.7780   19.5240 C   0  0  0  0  0  3  0  0  0  0  0  0
  -23.3370  -29.9220   20.2520 C   0  0  0  0  0  2  0  0  0  0  0  0
  -24.4880  -31.1600   22.1310 N   0  0  0  0  0  0  0  0  0  0  0  0
  -23.4340  -32.2570   23.8150 O   0  0  0  0  0  0  0  0  0  0  0  0
  -22.5550  -29.5850   22.6260 C   0  0  0  0  0  0  0  0  0  0  0  0
  -21.2360  -29.3600   22.5030 N   0  0  0  0  0  0  0  0  0  0  0  0
  -23.2520  -29.0070   23.4640 O   0  0  0  0  0  0  0  0  0  0  0  0
  -20.7300  -29.8870   21.8050 H   0  0  0  0  0  0  0  0  0  0  0  0
  -17.9130  -28.0120   22.9770 C   0  0  0  0  0  0  0  0  0  0  0  0
  -20.4450  -28.4190   23.3000 C   0  0  0  0  0  3  0  0  0  0  0  0
  -20.6370  -26.9650   22.8080 C   0  0  0  0  0  2  0  0  0  0  0  0
  -19.5860  -26.5310   21.7830 C   0  0  0  0  0  2  0  0  0  0  0  0
  -18.1780  -26.6390   22.3800 C   0  0  0  0  0  2  0  0  0  0  0  0
  -18.9780  -28.8530   23.3960 C   0  0  0  0  0  0  0  0  0  0  0  0
  -18.6790  -30.1310   23.9170 C   0  0  0  0  0  3  0  0  0  0  0  0
  -17.3470  -30.5740   24.0200 C   0  0  0  0  0  3  0  0  0  0  0  0
  -16.2960  -29.7330   23.6170 C   0  0  0  0  0  3  0  0  0  0  0  0
  -16.5780  -28.4540   23.1020 C   0  0  0  0  0  3  0  0  0  0  0  0
  -25.8080  -32.5820   23.7940 C   0  0  0  0  0  3  0  0  0  0  0  0
  -25.5340  -33.9850   24.1360 N   0  0  0  0  0  0  0  0  0  0  0  0
  -25.8210  -35.0300   23.3490 C   0  0  0  0  0  0  0  0  0  0  0  0
  -26.4170  -34.9160   22.2740 O   0  0  0  0  0  0  0  0  0  0  0  0
  -25.0020  -34.1470   24.9790 H   0  0  0  0  0  0  0  0  0  0  0  0
  -24.0790  -36.8290   23.1150 C   0  0  0  0  0  1  0  0  0  0  0  0
  -25.3780  -36.4260   23.8310 C   0  0  0  0  0  3  0  0  0  0  0  0
  -27.5710  -37.3080   24.4940 C   0  0  0  0  0  1  0  0  0  0  0  0
  -26.4050  -37.4720   23.6300 N   0  0  0  0  0  0  0  0  0  0  0  0
  -26.0140  -38.3950   23.8020 H   0  0  0  0  0  0  0  0  0  0  0  0
  -26.3710  -31.8050   25.0470 C   0  0  1  0  0  0  0  0  0  0  0  0
  -25.3170  -31.5600   26.1510 C   0  0  0  0  0  1  0  0  0  0  0  0
  -26.9430  -30.4310   24.6310 C   0  0  0  0  0  1  0  0  0  0  0  0
  -27.5460  -32.5940   25.6700 C   0  0  0  0  0  1  0  0  0  0  0  0
  1  2  1  0
  2  9  1  0
  2  7  2  0
  3  7  1  0
  3  5  1  0
  4  3  2  0
  6  1  2  0
  6  4  1  0
  9  8  1  1
 10 18  1  0
 11 16  1  0
 12 13  1  0
 12 11  1  0
 14 13  1  0
 14 23  1  0
 14 15  1  0
 16 10  1  0
 16 15  1  0
 17 10  2  0
 18 19  1  0
 18  9  1  0
 20 21  2  0
 21 40  1  0
 22 21  1  0
 22 25  1  0
 23 24  1  0
 23 20  1  0
 24 22  2  0
 25 26  1  0
 26 27  2  0
 28 31  1  0
 28 27  1  0
 29 28  2  0
 30 29  1  0
 30 25  2  0
 31 32  1  0
 32 33  1  0
 33 34  2  0
 35 34  1  0
 35 39  1  0
 36 35  2  0
 37 32  2  0
 37 36  1  0
 38 37  1  0
 40 41  1  0
 41 43  1  0
 41 44  1  0
 42 40  2  0
 45 20  1  0
 45 46  1  0
 47 45  1  0
 48  9  1  0
 48 50  1  1
 48 51  1  0
 49 48  1  0
 52  4  1  0
 52 53  1  0
 54 55  1  0
 54 53  1  0
 56 67  2  0
 57 55  1  0
 57 62  1  0
 58 66  1  0
 58 68  1  0
 59 65  1  0
 59 61  1  0
 60 66  1  0
 61 60  1  0
 62 61  2  0
 63 64  1  0
 63 57  2  0
 64 59  2  0
 65 58  1  0
 66 56  1  0
 68 70  2  0
 69 68  1  0
 71 69  1  0
 72 81  2  0
 72 77  1  0
 73 69  1  0
 73 77  1  0
 74 73  1  0
 75 76  1  0
 75 74  1  0
 76 72  1  0
 77 78  2  0
 78 79  1  0
 80 79  2  0
 81 80  1  0
 82 56  1  0
 82 83  1  0
 82 92  1  0
 83 86  1  0
 84 88  1  0
 84 83  1  0
 85 84  2  0
 88 87  1  0
 90 91  1  0
 90 88  1  0
 90 89  1  0
 92 95  1  1
 92 93  1  0
 94 92  1  0
M  ISO  4  10 100  18 100  54 101  55 101
M  END
>  <TORSDO>  (2) 
F 21

>  <SCORE>  (2) 
-12.331

>  <name>  (2) 
3

>  <ligand_id>  (2) 
3

>  <original_smiles>  (2) 
[H]c1nc(C([H])([H])C([H])([H])C([H])([H])Oc2c([H])c([H])c3c(c2[H])C([H])([H])N(C(=O)C([H])(N([H])C(=O)C([H])(N([H])C([H])([H])[H])C([H])([H])[H])C(C([H])([H])[H])(C([H])([H])[H])C([H])([H])[H])C([H])(C(=O)N([H])C2([H])c4c([H])c([H])c([H])c([H])c4C([H])([H])C([H])([H])C2([H])[H])C3([H])[H])c(C([H])([H])[H])nc1C(N([H])C(=O)N1C([H])([H])C([H])([H])C([H])([H])C([H])(n2nc(-c3c([H])c([H])c(Oc4c([H])c([H])c(F)c([H])c4F)c([H])c3[H])c(C(=O)N([H])[H])c2N([H])[H])C1([H])[H])(C([H])([H])[H])C(F)(F)F

>  <smiles>  (2) 
[H]c1nc(C([H])([H])C([H])([H])C([H])([H])Oc2c([H])c([H])c3c(c2[H])C([H])([H])N(C(=O)C([H])(N([H])C(=O)C([H])(N([H])C([H])([H])[H])C([H])([H])[H])C(C([H])([H])[H])(C([H])([H])[H])C([H])([H])[H])C([H])(C(=O)N([H])C2([H])c4c([H])c([H])c([H])c([H])c4C([H])([H])C([H])([H])C2([H])[H])C3([H])[H])c(C([H])([H])[H])nc1C(N([H])C(=O)N1C([H])([H])C([H])([H])C([H])([H])C([H])(n2nc(-c3c([H])c([H])c(Oc4c([H])c([H])c(F)c([H])c4F)c([H])c3[H])c(C(=O)N([H])[H])c2N([H])[H])C1([H])[H])(C([H])([H])[H])C(F)(F)F

$$$$
4:0:0
     RDKit          3D

 98107  0  0  1  0  0  0  0  0999 V2000
  -30.9530  -20.4010   21.5220 C   0  0  0  0  0  1  0  0  0  0  0  0
  -29.4560  -20.6860   23.4790 C   0  0  0  0  0  1  0  0  0  0  0  0
  -29.4700  -20.5170   21.9440 C   0  0  1  0  0  0  0  0  0  0  0  0
  -27.4420  -23.3810   20.8650 C   0  0  0  0  0  3  0  0  0  0  0  0
  -27.5590  -22.1840   21.5150 C   0  0  0  0  0  3  0  0  0  0  0  0
  -28.7300  -23.6140   20.3070 C   0  0  0  0  0  0  0  0  0  0  0  0
  -29.5710  -22.6280   20.6170 N   0  0  0  0  0  0  0  0  0  0  0  0
  -28.8520  -21.7280   21.3520 N   0  0  0  0  0  0  0  0  0  0  0  0
  -29.1570  -24.7760   19.4280 C   0  0  0  0  0  2  0  0  0  0  0  0
  -29.4300  -26.1040   20.1860 C   0  0  0  0  0  2  0  0  0  0  0  0
  -29.2260  -27.3040   19.4050 O   0  0  0  0  0  0  0  0  0  0  0  0
  -24.5950  -31.3590   22.9930 C   0  0  0  0  0  0  0  0  0  0  0  0
  -27.9570  -27.8360   19.4730 C   0  0  0  0  0  0  0  0  0  0  0  0
  -23.6420  -29.9480   21.2010 C   0  0  0  0  0  3  0  0  0  0  0  0
  -25.3320  -28.8700   19.6230 C   0  0  0  0  0  0  0  0  0  0  0  0
  -26.0540  -30.7870   21.0540 C   0  0  0  0  0  2  0  0  0  0  0  0
  -26.3820  -29.5310   20.2750 C   0  0  0  0  0  0  0  0  0  0  0  0
  -27.6990  -29.0210   20.1990 C   0  0  0  0  0  3  0  0  0  0  0  0
  -26.8980  -27.2040   18.7940 C   0  0  0  0  0  3  0  0  0  0  0  0
  -25.5840  -27.7050   18.8780 C   0  0  0  0  0  3  0  0  0  0  0  0
  -23.9500  -29.4730   19.7570 C   0  0  0  0  0  2  0  0  0  0  0  0
  -24.7810  -30.7100   21.8080 N   0  0  0  0  0  0  0  0  0  0  0  0
  -23.4920  -31.3640   23.5560 O   0  0  0  0  0  0  0  0  0  0  0  0
  -23.2070  -28.7230   22.0380 C   0  0  0  0  0  0  0  0  0  0  0  0
  -21.9390  -28.3090   21.8810 N   0  0  0  0  0  0  0  0  0  0  0  0
  -24.0060  -28.1530   22.7860 O   0  0  0  0  0  0  0  0  0  0  0  0
  -21.3460  -28.8350   21.2550 H   0  0  0  0  0  0  0  0  0  0  0  0
  -18.8590  -26.4490   22.2050 C   0  0  0  0  0  0  0  0  0  0  0  0
  -21.3220  -27.1580   22.5370 C   0  0  0  0  0  3  0  0  0  0  0  0
  -21.6910  -25.8400   21.8150 C   0  0  0  0  0  2  0  0  0  0  0  0
  -20.6630  -25.4240   20.7590 C   0  0  0  0  0  2  0  0  0  0  0  0
  -19.2830  -25.2360   21.3930 C   0  0  0  0  0  2  0  0  0  0  0  0
  -19.8150  -27.3590   22.7280 C   0  0  0  0  0  0  0  0  0  0  0  0
  -19.3640  -28.4900   23.4430 C   0  0  0  0  0  3  0  0  0  0  0  0
  -17.9880  -28.7150   23.6410 C   0  0  0  0  0  3  0  0  0  0  0  0
  -17.0470  -27.8020   23.1350 C   0  0  0  0  0  3  0  0  0  0  0  0
  -17.4830  -26.6710   22.4220 C   0  0  0  0  0  3  0  0  0  0  0  0
  -25.7520  -32.1450   23.6860 C   0  0  0  0  0  3  0  0  0  0  0  0
  -25.2460  -33.4880   24.0020 N   0  0  0  0  0  0  0  0  0  0  0  0
  -25.4910  -34.5840   23.2700 C   0  0  0  0  0  0  0  0  0  0  0  0
  -26.2360  -34.5790   22.2860 O   0  0  0  0  0  0  0  0  0  0  0  0
  -24.5860  -33.5560   24.7620 H   0  0  0  0  0  0  0  0  0  0  0  0
  -23.5670  -36.1360   22.8140 C   0  0  0  0  0  1  0  0  0  0  0  0
  -24.8000  -35.8910   23.7000 C   0  0  0  0  0  3  0  0  0  0  0  0
  -26.7540  -37.0300   24.6510 C   0  0  0  0  0  1  0  0  0  0  0  0
  -25.6900  -37.0700   23.6510 N   0  0  0  0  0  0  0  0  0  0  0  0
  -25.1620  -37.9290   23.7820 H   0  0  0  0  0  0  0  0  0  0  0  0
  -26.2970  -31.4340   24.9840 C   0  0  1  0  0  0  0  0  0  0  0  0
  -25.1920  -31.0510   25.9980 C   0  0  0  0  0  1  0  0  0  0  0  0
  -27.0650  -30.1420   24.6190 C   0  0  0  0  0  1  0  0  0  0  0  0
  -27.3090  -32.3580   25.7010 C   0  0  0  0  0  1  0  0  0  0  0  0
  -28.6580  -19.2150   21.5940 C   0  0  0  0  0  2  0  0  0  0  0  0
  -28.7600  -18.3130   17.8950 C   0  0  0  0  0  3  0  0  0  0  0  0
  -28.3420  -18.8900   19.0970 C   0  0  0  0  0  3  0  0  0  0  0  0
  -29.8490  -17.4120   17.8840 C   0  0  0  0  0  0  0  0  0  0  0  0
  -28.9900  -18.5130   20.2770 C   0  0  0  0  0  0  0  0  0  0  0  0
  -30.4830  -17.0820   19.1300 C   0  0  0  0  0  0  0  0  0  0  0  0
  -30.2710  -16.9340   16.4960 C   0  0  0  0  0  1  0  0  0  0  0  0
  -29.9630  -17.5730   20.2900 N   0  0  0  0  0  0  0  0  0  0  0  0
  -32.6980  -17.5500   20.2280 C   0  0  0  0  0  1  0  0  0  0  0  0
  -32.7940  -16.6390   18.0060 C   0  0  0  0  0  1  0  0  0  0  0  0
  -31.9440  -16.5310   19.3050 C   0  0  2  0  0  0  0  0  0  0  0  0
  -32.2140  -15.0840   19.8910 C   0  0  0  0  0  0  0  0  0  0  0  0
  -31.6040  -12.8210   19.2180 C   0  0  0  0  0  2  0  0  0  0  0  0
  -30.7160  -12.8780   17.9650 C   0  0  0  0  0  2  0  0  0  0  0  0
  -29.2360  -12.9590   18.3750 C   0  0  0  0  0  2  0  0  0  0  0  0
  -28.9520  -14.0120   19.4810 C   0  0  0  0  0  3  0  0  0  0  0  0
  -30.0030  -14.0100   20.6060 C   0  0  0  0  0  2  0  0  0  0  0  0
  -31.3310  -14.0470   19.9880 N   0  0  0  0  0  0  0  0  0  0  0  0
  -33.4150  -14.8150   19.8900 O   0  0  0  0  0  0  0  0  0  0  0  0
  -26.6820  -14.9170   20.2570 C   0  0  0  0  0  0  0  0  0  0  0  0
  -25.5160  -14.2930   20.5950 C   0  0  0  0  0  0  0  0  0  0  0  0
  -25.7790  -12.8920   20.5070 C   0  0  0  0  0  0  0  0  0  0  0  0
  -27.5870  -13.9060   19.9820 N   0  0  0  0  0  0  0  0  0  0  0  0
  -27.0500  -12.6790   20.1980 N   0  0  0  0  0  0  0  0  0  0  0  0
  -24.8770  -11.7450   20.6440 C   0  0  0  0  0  0  0  0  0  0  0  0
  -25.2040  -10.6470   21.4690 C   0  0  0  0  0  3  0  0  0  0  0  0
  -24.3110   -9.5630   21.6030 C   0  0  0  0  0  3  0  0  0  0  0  0
  -23.0770   -9.5710   20.9110 C   0  0  0  0  0  0  0  0  0  0  0  0
  -22.7650  -10.6560   20.0740 C   0  0  0  0  0  3  0  0  0  0  0  0
  -23.6580  -11.7320   19.9370 C   0  0  0  0  0  3  0  0  0  0  0  0
  -22.1600   -8.5490   20.9600 O   0  0  0  0  0  0  0  0  0  0  0  0
  -22.0640   -7.7220   22.0500 C   0  0  0  0  0  0  0  0  0  0  0  0
  -21.8420   -8.2240   23.3500 C   0  0  0  0  0  3  0  0  0  0  0  0
  -21.6770   -7.3340   24.4300 C   0  0  0  0  0  3  0  0  0  0  0  0
  -21.7250   -5.9450   24.2120 C   0  0  0  0  0  0  0  0  0  0  0  0
  -21.9420   -5.4420   22.9180 C   0  0  0  0  0  3  0  0  0  0  0  0
  -22.1060   -6.3280   21.8390 C   0  0  0  0  0  0  0  0  0  0  0  0
  -22.2910   -5.8390   20.5890 F   0  0  0  0  0  0  0  0  0  0  0  0
  -21.5620   -5.0890   25.2490 F   0  0  0  0  0  0  0  0  0  0  0  0
  -24.2030  -14.9580   20.8920 C   0  0  0  0  0  0  0  0  0  0  0  0
  -23.3950  -14.3540   21.7540 N   0  0  0  0  0  0  0  0  0  0  0  0
  -23.9090  -16.0460   20.3970 O   0  0  0  0  0  0  0  0  0  0  0  0
  -23.6460  -13.4710   22.1730 H   0  0  0  0  0  0  0  0  0  0  0  0
  -22.5150  -14.7830   22.0030 H   0  0  0  0  0  0  0  0  0  0  0  0
  -27.0390  -16.2530   20.1400 N   0  0  0  0  0  0  0  0  0  0  0  0
  -26.3880  -17.0080   20.3230 H   0  0  0  0  0  0  0  0  0  0  0  0
  -27.9660  -16.5790   19.8860 H   0  0  0  0  0  0  0  0  0  0  0  0
  3  1  1  6
  3  2  1  0
  4  5  2  0
  6  7  2  0
  6  4  1  0
  7  8  1  0
  8  5  1  0
  8  3  1  0
  9 10  1  0
  9  6  1  0
 11 13  1  0
 11 10  1  0
 12 23  2  0
 13 18  1  0
 14 22  1  0
 14 24  1  0
 15 21  1  0
 15 17  1  0
 16 22  1  0
 17 16  1  0
 18 17  2  0
 19 20  1  0
 19 13  2  0
 20 15  2  0
 21 14  1  0
 22 12  1  0
 24 26  2  0
 25 24  1  0
 27 25  1  0
 28 37  2  0
 28 33  1  0
 29 25  1  0
 29 33  1  0
 30 29  1  0
 31 32  1  0
 31 30  1  0
 32 28  1  0
 33 34  2  0
 34 35  1  0
 36 35  2  0
 37 36  1  0
 38 12  1  0
 38 39  1  0
 38 48  1  0
 39 42  1  0
 40 44  1  0
 40 39  1  0
 41 40  2  0
 44 43  1  0
 46 44  1  0
 46 47  1  0
 46 45  1  0
 48 51  1  1
 48 49  1  0
 50 48  1  0
 52  3  1  0
 53 54  1  0
 54 56  2  0
 55 53  2  0
 55 57  1  0
 56 59  1  0
 56 52  1  0
 57 62  1  0
 57 59  2  0
 58 55  1  0
 62 61  1  6
 62 63  1  0
 62 60  1  0
 63 69  1  0
 64 69  1  0
 65 66  1  0
 65 64  1  0
 67 66  1  0
 67 74  1  0
 67 68  1  0
 69 68  1  0
 70 63  2  0
 71 72  2  0
 72 91  1  0
 73 72  1  0
 73 76  1  0
 74 75  1  0
 74 71  1  0
 75 73  2  0
 76 77  1  0
 77 78  2  0
 79 82  1  0
 79 78  1  0
 80 79  2  0
 81 80  1  0
 81 76  2  0
 82 83  1  0
 83 84  1  0
 84 85  2  0
 86 85  1  0
 86 90  1  0
 87 86  2  0
 88 83  2  0
 88 87  1  0
 89 88  1  0
 91 92  1  0
 92 95  1  0
 92 94  1  0
 93 91  2  0
 96 71  1  0
 96 97  1  0
 98 96  1  0
M  ISO  4  10 101  11 101  62 100  63 100
M  END
>  <TORSDO>  (3) 
F 22

>  <SCORE>  (3) 
-5.068

>  <name>  (3) 
4

>  <ligand_id>  (3) 
4

>  <original_smiles>  (3) 
[H]c1c(C([H])([H])C(n2nc(C([H])([H])C([H])([H])Oc3c([H])c([H])c4c(c3[H])C([H])([H])N(C(=O)C([H])(N([H])C(=O)C([H])(N([H])C([H])([H])[H])C([H])([H])[H])C(C([H])([H])[H])(C([H])([H])[H])C([H])([H])[H])C([H])(C(=O)N([H])C3([H])c5c([H])c([H])c([H])c([H])c5C([H])([H])C([H])([H])C3([H])[H])C4([H])[H])c([H])c2[H])(C([H])([H])[H])C([H])([H])[H])nc(C(C(=O)N2C([H])([H])C([H])([H])C([H])([H])C([H])(n3nc(-c4c([H])c([H])c(Oc5c([H])c([H])c(F)c([H])c5F)c([H])c4[H])c(C(=O)N([H])[H])c3N([H])[H])C2([H])[H])(C([H])([H])[H])C([H])([H])[H])c(C([H])([H])[H])c1[H]

>  <smiles>  (3) 
[H]c1c(C([H])([H])C(n2nc(C([H])([H])C([H])([H])Oc3c([H])c([H])c4c(c3[H])C([H])([H])N(C(=O)C([H])(N([H])C(=O)C([H])(N([H])C([H])([H])[H])C([H])([H])[H])C(C([H])([H])[H])(C([H])([H])[H])C([H])([H])[H])C([H])(C(=O)N([H])C3([H])c5c([H])c([H])c([H])c([H])c5C([H])([H])C([H])([H])C3([H])[H])C4([H])[H])c([H])c2[H])(C([H])([H])[H])C([H])([H])[H])nc(C(C(=O)N2C([H])([H])C([H])([H])C([H])([H])C([H])(n3nc(-c4c([H])c([H])c(Oc5c([H])c([H])c(F)c([H])c5F)c([H])c4[H])c(C(=O)N([H])[H])c3N([H])[H])C2([H])[H])(C([H])([H])[H])C([H])([H])[H])c(C([H])([H])[H])c1[H]

$$$$
5:0:0
     RDKit          3D

 97105  0  0  1  0  0  0  0  0999 V2000
  -27.6670  -20.1360   20.5610 C   0  0  0  0  0  3  0  0  0  0  0  0
  -27.7990  -18.7630   20.3520 C   0  0  0  0  0  0  0  0  0  0  0  0
  -28.8320  -20.9100   20.4890 C   0  0  0  0  0  0  0  0  0  0  0  0
  -30.0620  -18.9940   20.1020 C   0  0  0  0  0  0  0  0  0  0  0  0
  -26.5980  -17.8460   20.3530 C   0  0  0  0  0  1  0  0  0  0  0  0
  -28.9960  -18.2010   20.1290 N   0  0  0  0  0  0  0  0  0  0  0  0
  -30.0270  -20.3260   20.2510 N   0  0  0  0  0  0  0  0  0  0  0  0
  -32.3430  -19.2550   19.0050 C   0  0  0  0  0  1  0  0  0  0  0  0
  -32.1550  -17.9450   21.0910 C   0  0  0  0  0  1  0  0  0  0  0  0
  -31.4090  -18.2910   19.7820 C   0  0  1  0  0  0  0  0  0  0  0  0
  -31.1640  -17.0280   18.8860 C   0  0  0  0  0  2  0  0  0  0  0  0
  -31.6680  -14.6430   19.4790 C   0  0  0  0  0  0  0  0  0  0  0  0
  -31.4810  -12.2150   19.1270 C   0  0  0  0  0  2  0  0  0  0  0  0
  -30.5220  -11.9540   17.9460 C   0  0  0  0  0  2  0  0  0  0  0  0
  -29.0670  -11.8660   18.4450 C   0  0  0  0  0  2  0  0  0  0  0  0
  -28.6770  -13.0610   19.3600 C   0  0  0  0  0  3  0  0  0  0  0  0
  -29.7530  -13.3080   20.4440 C   0  0  0  0  0  2  0  0  0  0  0  0
  -31.0520  -13.4640   19.7730 N   0  0  0  0  0  0  0  0  0  0  0  0
  -32.7850  -14.6970   18.9600 O   0  0  0  0  0  0  0  0  0  0  0  0
  -30.9080  -15.7460   19.5870 N   0  0  0  0  0  0  0  0  0  0  0  0
  -29.9980  -15.6390   20.0090 H   0  0  0  0  0  0  0  0  0  0  0  0
  -26.4110  -13.8320   20.3060 C   0  0  0  0  0  0  0  0  0  0  0  0
  -25.3140  -13.1370   20.7350 C   0  0  0  0  0  0  0  0  0  0  0  0
  -25.6480  -11.7540   20.6060 C   0  0  0  0  0  0  0  0  0  0  0  0
  -27.3510  -12.8790   19.9480 N   0  0  0  0  0  0  0  0  0  0  0  0
  -26.8990  -11.6190   20.1840 N   0  0  0  0  0  0  0  0  0  0  0  0
  -24.8310  -10.5510   20.8010 C   0  0  0  0  0  0  0  0  0  0  0  0
  -25.1530   -9.5860   21.7800 C   0  0  0  0  0  3  0  0  0  0  0  0
  -24.3370   -8.4480   21.9570 C   0  0  0  0  0  3  0  0  0  0  0  0
  -23.1820   -8.2690   21.1590 C   0  0  0  0  0  0  0  0  0  0  0  0
  -22.8800   -9.2230   20.1700 C   0  0  0  0  0  3  0  0  0  0  0  0
  -23.6970  -10.3500   19.9910 C   0  0  0  0  0  3  0  0  0  0  0  0
  -22.3480   -7.1810   21.2470 O   0  0  0  0  0  0  0  0  0  0  0  0
  -22.0650   -6.5840   22.4500 C   0  0  0  0  0  0  0  0  0  0  0  0
  -21.4710   -7.2970   23.5150 C   0  0  0  0  0  3  0  0  0  0  0  0
  -21.1310   -6.6270   24.7060 C   0  0  0  0  0  3  0  0  0  0  0  0
  -21.3750   -5.2470   24.8350 C   0  0  0  0  0  0  0  0  0  0  0  0
  -21.9600   -4.5340   23.7720 C   0  0  0  0  0  3  0  0  0  0  0  0
  -22.3020   -5.2010   22.5820 C   0  0  0  0  0  0  0  0  0  0  0  0
  -22.8460   -4.5050   21.5560 F   0  0  0  0  0  0  0  0  0  0  0  0
  -21.0440   -4.6020   25.9770 F   0  0  0  0  0  0  0  0  0  0  0  0
  -23.9940  -13.7190   21.1570 C   0  0  0  0  0  0  0  0  0  0  0  0
  -23.2950  -13.0640   22.0760 N   0  0  0  0  0  0  0  0  0  0  0  0
  -23.5960  -14.7920   20.7010 O   0  0  0  0  0  0  0  0  0  0  0  0
  -23.6320  -12.2010   22.4740 H   0  0  0  0  0  0  0  0  0  0  0  0
  -22.4100  -13.4360   22.3950 H   0  0  0  0  0  0  0  0  0  0  0  0
  -26.6780  -15.1890   20.1700 N   0  0  0  0  0  0  0  0  0  0  0  0
  -25.9610  -15.8900   20.3270 H   0  0  0  0  0  0  0  0  0  0  0  0
  -27.5270  -15.5680   19.7690 H   0  0  0  0  0  0  0  0  0  0  0  0
  -28.7750  -22.4350   20.6460 C   0  0  0  0  0  2  0  0  0  0  0  0
  -26.9200  -23.5550   19.3030 C   0  0  0  0  0  1  0  0  0  0  0  0
  -28.7960  -22.4720   18.0850 C   0  0  0  0  0  1  0  0  0  0  0  0
  -28.4460  -23.2820   19.3610 C   0  0  2  0  0  0  0  0  0  0  0  0
  -29.3090  -25.3560   18.0110 C   0  0  0  0  0  1  0  0  0  0  0  0
  -29.2580  -24.6370   19.3820 C   0  0  0  0  0  3  0  0  0  0  0  0
  -28.8640  -25.6030   20.5460 C   0  0  0  0  0  2  0  0  0  0  0  0
  -29.0010  -27.0100   20.2580 O   0  0  0  0  0  0  0  0  0  0  0  0
  -24.9840  -31.8250   23.6030 C   0  0  0  0  0  0  0  0  0  0  0  0
  -27.8190  -27.7200   20.2550 C   0  0  0  0  0  0  0  0  0  0  0  0
  -23.8520  -30.5160   21.8370 C   0  0  0  0  0  3  0  0  0  0  0  0
  -25.3790  -29.1430   20.3290 C   0  0  0  0  0  0  0  0  0  0  0  0
  -26.3660  -30.9740   21.7140 C   0  0  0  0  0  2  0  0  0  0  0  0
  -26.5110  -29.6620   20.9690 C   0  0  0  0  0  0  0  0  0  0  0  0
  -27.7370  -28.9610   20.9240 C   0  0  0  0  0  3  0  0  0  0  0  0
  -26.6690  -27.2150   19.6090 C   0  0  0  0  0  3  0  0  0  0  0  0
  -25.4530  -27.9190   19.6430 C   0  0  0  0  0  3  0  0  0  0  0  0
  -24.1050  -29.9510   20.4150 C   0  0  0  0  0  2  0  0  0  0  0  0
  -25.0830  -31.1140   22.4450 N   0  0  0  0  0  0  0  0  0  0  0  0
  -23.8850  -32.0200   24.1430 O   0  0  0  0  0  0  0  0  0  0  0  0
  -23.2190  -29.4030   22.7050 C   0  0  0  0  0  0  0  0  0  0  0  0
  -21.9290  -29.1180   22.4670 N   0  0  0  0  0  0  0  0  0  0  0  0
  -23.8900  -28.7990   23.5470 O   0  0  0  0  0  0  0  0  0  0  0  0
  -21.4470  -29.6600   21.7640 H   0  0  0  0  0  0  0  0  0  0  0  0
  -18.6620  -27.5770   22.5880 C   0  0  0  0  0  0  0  0  0  0  0  0
  -21.1370  -28.0840   23.1350 C   0  0  0  0  0  3  0  0  0  0  0  0
  -21.4470  -26.6850   22.5540 C   0  0  0  0  0  2  0  0  0  0  0  0
  -20.4960  -26.2770   21.4250 C   0  0  0  0  0  2  0  0  0  0  0  0
  -19.0460  -26.2680   21.9200 C   0  0  0  0  0  2  0  0  0  0  0  0
  -19.6450  -28.4380   23.1450 C   0  0  0  0  0  0  0  0  0  0  0  0
  -19.2370  -29.6590   23.7240 C   0  0  0  0  0  3  0  0  0  0  0  0
  -17.8780  -30.0230   23.7550 C   0  0  0  0  0  3  0  0  0  0  0  0
  -16.9070  -29.1600   23.2170 C   0  0  0  0  0  3  0  0  0  0  0  0
  -17.2990  -27.9400   22.6410 C   0  0  0  0  0  3  0  0  0  0  0  0
  -26.2380  -32.4470   24.2930 C   0  0  0  0  0  3  0  0  0  0  0  0
  -25.9240  -33.8470   24.6050 N   0  0  0  0  0  0  0  0  0  0  0  0
  -26.3000  -34.8940   23.8580 C   0  0  0  0  0  0  0  0  0  0  0  0
  -27.0190  -34.7810   22.8610 O   0  0  0  0  0  0  0  0  0  0  0  0
  -25.2990  -34.0080   25.3800 H   0  0  0  0  0  0  0  0  0  0  0  0
  -24.6030  -36.6920   23.4090 C   0  0  0  0  0  1  0  0  0  0  0  0
  -25.7990  -36.2850   24.2860 C   0  0  0  0  0  3  0  0  0  0  0  0
  -27.8910  -37.1620   25.2250 C   0  0  0  0  0  1  0  0  0  0  0  0
  -26.8420  -37.3320   24.2220 N   0  0  0  0  0  0  0  0  0  0  0  0
  -26.4350  -38.2550   24.3430 H   0  0  0  0  0  0  0  0  0  0  0  0
  -26.6790  -31.6730   25.5960 C   0  0  1  0  0  0  0  0  0  0  0  0
  -25.5190  -31.4120   26.5850 C   0  0  0  0  0  1  0  0  0  0  0  0
  -27.3070  -30.3080   25.2290 C   0  0  0  0  0  1  0  0  0  0  0  0
  -27.7710  -32.4770   26.3390 C   0  0  0  0  0  1  0  0  0  0  0  0
  2  5  1  0
  2  1  2  0
  3  1  1  0
  3 50  1  0
  4  6  2  0
  4  7  1  0
  6  2  1  0
  7  3  2  0
 10  8  1  6
 10  4  1  0
 10  9  1  0
 11 20  1  0
 11 10  1  0
 12 20  1  0
 12 18  1  0
 13 18  1  0
 14 15  1  0
 14 13  1  0
 16 15  1  0
 16 25  1  0
 16 17  1  0
 18 17  1  0
 19 12  2  0
 20 21  1  0
 22 23  2  0
 23 42  1  0
 24 23  1  0
 24 27  1  0
 25 26  1  0
 25 22  1  0
 26 24  2  0
 27 28  1  0
 28 29  2  0
 30 33  1  0
 30 29  1  0
 31 30  2  0
 32 31  1  0
 32 27  2  0
 33 34  1  0
 34 39  2  0
 34 35  1  0
 35 36  2  0
 36 37  1  0
 37 41  1  0
 38 37  2  0
 39 38  1  0
 40 39  1  0
 42 43  1  0
 43 46  1  0
 43 45  1  0
 44 42  2  0
 47 22  1  0
 47 48  1  0
 49 47  1  0
 53 51  1  6
 52 53  1  0
 53 55  1  0
 53 50  1  0
 55 54  1  0
 55 56  1  0
 57 56  1  0
 58 69  2  0
 59 57  1  0
 59 64  1  0
 60 68  1  0
 60 70  1  0
 61 67  1  0
 61 63  1  0
 62 68  1  0
 63 62  1  0
 64 63  2  0
 65 66  1  0
 65 59  2  0
 66 61  2  0
 67 60  1  0
 68 58  1  0
 70 72  2  0
 71 70  1  0
 73 71  1  0
 74 83  2  0
 74 79  1  0
 75 71  1  0
 75 79  1  0
 76 75  1  0
 77 78  1  0
 77 76  1  0
 78 74  1  0
 79 80  2  0
 80 81  1  0
 82 81  2  0
 83 82  1  0
 84 58  1  0
 84 85  1  0
 84 94  1  0
 85 88  1  0
 86 90  1  0
 86 85  1  0
 87 86  2  0
 90 89  1  0
 92 90  1  0
 92 93  1  0
 92 91  1  0
 94 97  1  1
 94 95  1  0
 96 94  1  0
M  ISO  4  12 100  20 100  56 101  57 101
M  END
>  <TORSDO>  (4) 
F 22

>  <SCORE>  (4) 
-10.969

>  <name>  (4) 
5

>  <ligand_id>  (4) 
5

>  <original_smiles>  (4) 
[H]c1c(C([H])([H])[H])nc(C(C([H])([H])[H])(C([H])([H])[H])C([H])([H])N([H])C(=O)N2C([H])([H])C([H])([H])C([H])([H])C([H])(n3nc(-c4c([H])c([H])c(Oc5c([H])c([H])c(F)c([H])c5F)c([H])c4[H])c(C(=O)N([H])[H])c3N([H])[H])C2([H])[H])nc1C([H])([H])C(C([H])([H])[H])(C([H])([H])[H])C([H])(C([H])([H])[H])C([H])([H])Oc1c([H])c([H])c2c(c1[H])C([H])([H])N(C(=O)C([H])(N([H])C(=O)C([H])(N([H])C([H])([H])[H])C([H])([H])[H])C(C([H])([H])[H])(C([H])([H])[H])C([H])([H])[H])C([H])(C(=O)N([H])C1([H])c3c([H])c([H])c([H])c([H])c3C([H])([H])C([H])([H])C1([H])[H])C2([H])[H]

>  <smiles>  (4) 
[H]c1c(C([H])([H])[H])nc(C(C([H])([H])[H])(C([H])([H])[H])C([H])([H])N([H])C(=O)N2C([H])([H])C([H])([H])C([H])([H])C([H])(n3nc(-c4c([H])c([H])c(Oc5c([H])c([H])c(F)c([H])c5F)c([H])c4[H])c(C(=O)N([H])[H])c3N([H])[H])C2([H])[H])nc1C([H])([H])C(C([H])([H])[H])(C([H])([H])[H])C([H])(C([H])([H])[H])C([H])([H])Oc1c([H])c([H])c2c(c1[H])C([H])([H])N(C(=O)C([H])(N([H])C(=O)C([H])(N([H])C([H])([H])[H])C([H])([H])[H])C(C([H])([H])[H])(C([H])([H])[H])C([H])([H])[H])C([H])(C(=O)N([H])C1([H])c3c([H])c([H])c([H])c([H])c3C([H])([H])C([H])([H])C1([H])[H])C2([H])[H]

$$$$
6:0:0
     RDKit          3D

 92100  0  0  1  0  0  0  0  0999 V2000
  -27.7490  -22.1980   20.1670 C   0  0  0  0  0  3  0  0  0  0  0  0
  -28.3060  -20.8830   19.9960 C   0  0  0  0  0  3  0  0  0  0  0  0
  -28.5490  -23.3880   20.1440 C   0  0  0  0  0  0  0  0  0  0  0  0
  -29.7010  -20.7310   19.7750 C   0  0  0  0  0  0  0  0  0  0  0  0
  -29.8910  -23.1800   19.9400 N   0  0  0  0  0  0  0  0  0  0  0  0
  -30.4170  -21.9220   19.7550 N   0  0  0  0  0  0  0  0  0  0  0  0
  -30.9830  -19.5820   17.9500 C   0  0  0  0  0  1  0  0  0  0  0  0
  -31.7820  -19.3270   20.2710 C   0  0  0  0  0  1  0  0  0  0  0  0
  -30.4910  -19.3370   19.4140 C   0  0  1  0  0  0  0  0  0  0  0  0
  -29.4190  -17.2260   18.0440 C   0  0  0  0  0  1  0  0  0  0  0  0
  -29.7490  -17.8080   19.4490 C   0  0  0  0  0  3  0  0  0  0  0  0
  -28.6870  -16.3100   21.1890 C   0  0  0  0  0  1  0  0  0  0  0  0
  -30.9270  -16.8640   21.6610 C   0  0  0  0  0  1  0  0  0  0  0  0
  -30.0390  -16.4780   20.4670 C   0  0  2  0  0  0  0  0  0  0  0  0
  -30.6540  -15.0130   19.9400 C   0  0  0  0  0  0  0  0  0  0  0  0
  -30.4440  -12.7080   18.9320 C   0  0  0  0  0  2  0  0  0  0  0  0
  -29.4100  -12.7450   17.7760 C   0  0  0  0  0  2  0  0  0  0  0  0
  -27.9830  -12.4820   18.2910 C   0  0  0  0  0  2  0  0  0  0  0  0
  -27.6720  -13.3530   19.5250 C   0  0  0  0  0  3  0  0  0  0  0  0
  -28.8110  -13.2670   20.5610 C   0  0  0  0  0  2  0  0  0  0  0  0
  -30.0430  -13.7530   19.9150 N   0  0  0  0  0  0  0  0  0  0  0  0
  -31.8040  -15.0500   19.4890 O   0  0  0  0  0  0  0  0  0  0  0  0
  -25.3410  -13.9290   20.4150 C   0  0  0  0  0  0  0  0  0  0  0  0
  -24.3080  -13.1480   20.8390 C   0  0  0  0  0  0  0  0  0  0  0  0
  -24.7740  -11.7980   20.7530 C   0  0  0  0  0  0  0  0  0  0  0  0
  -26.3720  -13.0570   20.1070 N   0  0  0  0  0  0  0  0  0  0  0  0
  -26.0450  -11.7690   20.3780 N   0  0  0  0  0  0  0  0  0  0  0  0
  -24.0620  -10.5330   20.9510 C   0  0  0  0  0  0  0  0  0  0  0  0
  -24.5090   -9.5740   21.8860 C   0  0  0  0  0  3  0  0  0  0  0  0
  -23.7960   -8.3710   22.0720 C   0  0  0  0  0  3  0  0  0  0  0  0
  -22.6230   -8.1170   21.3220 C   0  0  0  0  0  0  0  0  0  0  0  0
  -22.1920   -9.0680   20.3770 C   0  0  0  0  0  3  0  0  0  0  0  0
  -22.9060  -10.2630   20.1910 C   0  0  0  0  0  3  0  0  0  0  0  0
  -21.8810   -6.9670   21.4180 O   0  0  0  0  0  0  0  0  0  0  0  0
  -21.8020   -6.2640   22.5930 C   0  0  0  0  0  0  0  0  0  0  0  0
  -21.2990   -6.8490   23.7750 C   0  0  0  0  0  3  0  0  0  0  0  0
  -21.1630   -6.0660   24.9410 C   0  0  0  0  0  3  0  0  0  0  0  0
  -21.5230   -4.7060   24.9220 C   0  0  0  0  0  0  0  0  0  0  0  0
  -22.0220   -4.1240   23.7440 C   0  0  0  0  0  3  0  0  0  0  0  0
  -22.1600   -4.9030   22.5800 C   0  0  0  0  0  0  0  0  0  0  0  0
  -22.6210   -4.3370   21.4400 F   0  0  0  0  0  0  0  0  0  0  0  0
  -21.3880   -3.9510   26.0390 F   0  0  0  0  0  0  0  0  0  0  0  0
  -22.9260  -13.6160   21.1970 C   0  0  0  0  0  0  0  0  0  0  0  0
  -22.2520  -12.8970   22.0840 N   0  0  0  0  0  0  0  0  0  0  0  0
  -22.4600  -14.6520   20.7220 O   0  0  0  0  0  0  0  0  0  0  0  0
  -22.6470  -12.0550   22.4700 H   0  0  0  0  0  0  0  0  0  0  0  0
  -21.3310  -13.1860   22.3830 H   0  0  0  0  0  0  0  0  0  0  0  0
  -25.4690  -15.3040   20.2420 N   0  0  0  0  0  0  0  0  0  0  0  0
  -24.6670  -15.9100   20.3680 H   0  0  0  0  0  0  0  0  0  0  0  0
  -26.2570  -15.7700   19.8100 H   0  0  0  0  0  0  0  0  0  0  0  0
  -27.8140  -24.8180   20.4180 C   0  0  0  0  0  2  0  0  0  0  0  0
  -28.2820  -26.2790   20.2480 O   0  0  0  0  0  0  0  0  0  0  0  0
  -24.6000  -31.9380   23.2560 C   0  0  0  0  0  0  0  0  0  0  0  0
  -27.2430  -27.2750   20.2120 C   0  0  0  0  0  0  0  0  0  0  0  0
  -23.4260  -30.5240   21.6180 C   0  0  0  0  0  3  0  0  0  0  0  0
  -24.8990  -28.9820   20.1960 C   0  0  0  0  0  0  0  0  0  0  0  0
  -25.9810  -30.8110   21.4830 C   0  0  0  0  0  2  0  0  0  0  0  0
  -26.0710  -29.4300   20.8250 C   0  0  0  0  0  0  0  0  0  0  0  0
  -27.2460  -28.5890   20.8280 C   0  0  0  0  0  3  0  0  0  0  0  0
  -26.0620  -26.9580   19.5080 C   0  0  0  0  0  3  0  0  0  0  0  0
  -24.9090  -27.7620   19.5200 C   0  0  0  0  0  3  0  0  0  0  0  0
  -23.6600  -29.8580   20.2420 C   0  0  0  0  0  2  0  0  0  0  0  0
  -24.6880  -31.1090   22.1730 N   0  0  0  0  0  0  0  0  0  0  0  0
  -23.5070  -32.2200   23.7720 O   0  0  0  0  0  0  0  0  0  0  0  0
  -22.7540  -29.5060   22.5730 C   0  0  0  0  0  0  0  0  0  0  0  0
  -21.4280  -29.3240   22.4410 N   0  0  0  0  0  0  0  0  0  0  0  0
  -23.4280  -28.8850   23.4010 O   0  0  0  0  0  0  0  0  0  0  0  0
  -20.9370  -29.8800   21.7540 H   0  0  0  0  0  0  0  0  0  0  0  0
  -18.0540  -28.1050   22.9350 C   0  0  0  0  0  0  0  0  0  0  0  0
  -20.6070  -28.3870   23.2130 C   0  0  0  0  0  3  0  0  0  0  0  0
  -20.7220  -26.9530   22.6480 C   0  0  0  0  0  2  0  0  0  0  0  0
  -19.6270  -26.6160   21.6290 C   0  0  0  0  0  2  0  0  0  0  0  0
  -18.2420  -26.7550   22.2650 C   0  0  0  0  0  2  0  0  0  0  0  0
  -19.1640  -28.8810   23.3630 C   0  0  0  0  0  0  0  0  0  0  0  0
  -18.9330  -30.1420   23.9490 C   0  0  0  0  0  3  0  0  0  0  0  0
  -17.6220  -30.6330   24.1080 C   0  0  0  0  0  3  0  0  0  0  0  0
  -16.5260  -29.8560   23.6940 C   0  0  0  0  0  3  0  0  0  0  0  0
  -16.7420  -28.5930   23.1160 C   0  0  0  0  0  3  0  0  0  0  0  0
  -25.8720  -32.5880   23.8830 C   0  0  0  0  0  3  0  0  0  0  0  0
  -26.3810  -31.8400   25.1800 C   0  0  1  0  0  0  0  0  0  0  0  0
  -25.2780  -31.6070   26.2370 C   0  0  0  0  0  1  0  0  0  0  0  0
  -26.9880  -30.4610   24.8290 C   0  0  0  0  0  1  0  0  0  0  0  0
  -27.5120  -32.6590   25.8460 C   0  0  0  0  0  1  0  0  0  0  0  0
  -25.5500  -33.9900   24.1960 N   0  0  0  0  0  0  0  0  0  0  0  0
  -25.8910  -35.0390   23.4360 C   0  0  0  0  0  0  0  0  0  0  0  0
  -26.5770  -34.9310   22.4170 O   0  0  0  0  0  0  0  0  0  0  0  0
  -24.9500  -34.1560   24.9920 H   0  0  0  0  0  0  0  0  0  0  0  0
  -24.1820  -36.8370   23.0190 C   0  0  0  0  0  1  0  0  0  0  0  0
  -25.3940  -36.4300   23.8740 C   0  0  0  0  0  3  0  0  0  0  0  0
  -27.4970  -37.3110   24.7830 C   0  0  0  0  0  1  0  0  0  0  0  0
  -26.4330  -37.4810   23.7990 N   0  0  0  0  0  0  0  0  0  0  0  0
  -26.0230  -38.4000   23.9390 H   0  0  0  0  0  0  0  0  0  0  0  0
  2  1  2  0
  3  1  1  0
  3 51  1  0
  4  2  1  0
  5  3  2  0
  6  4  2  0
  6  5  1  0
  9  7  1  6
  9 11  1  0
  9  4  1  0
  9  8  1  0
 11 10  1  0
 11 14  1  0
 14 12  1  1
 14 13  1  0
 15 14  1  0
 16 21  1  0
 17 18  1  0
 17 16  1  0
 19 18  1  0
 19 26  1  0
 19 20  1  0
 21 15  1  0
 21 20  1  0
 22 15  2  0
 23 24  2  0
 24 43  1  0
 25 24  1  0
 25 28  1  0
 26 27  1  0
 26 23  1  0
 27 25  2  0
 28 29  1  0
 29 30  2  0
 31 34  1  0
 31 30  1  0
 32 31  2  0
 33 32  1  0
 33 28  2  0
 34 35  1  0
 35 36  1  0
 36 37  2  0
 38 37  1  0
 38 42  1  0
 39 38  2  0
 40 35  2  0
 40 39  1  0
 41 40  1  0
 43 44  1  0
 44 47  1  0
 44 46  1  0
 45 43  2  0
 48 49  1  0
 48 23  1  0
 50 48  1  0
 52 51  1  0
 53 64  2  0
 54 52  1  0
 54 59  1  0
 55 63  1  0
 55 65  1  0
 56 62  1  0
 56 58  1  0
 57 63  1  0
 58 59  2  0
 58 57  1  0
 60 61  1  0
 60 54  2  0
 61 56  2  0
 62 55  1  0
 63 53  1  0
 65 67  2  0
 66 65  1  0
 68 66  1  0
 69 78  2  0
 69 74  1  0
 70 66  1  0
 70 74  1  0
 71 70  1  0
 72 73  1  0
 72 71  1  0
 73 69  1  0
 74 75  2  0
 75 76  1  0
 77 76  2  0
 78 77  1  0
 79 53  1  0
 79 84  1  0
 79 80  1  0
 80 83  1  1
 80 81  1  0
 82 80  1  0
 84 87  1  0
 85 89  1  0
 85 84  1  0
 86 85  2  0
 89 88  1  0
 91 89  1  0
 91 92  1  0
 91 90  1  0
M  ISO  4  14 100  15 100  51 101  52 101
M  END
>  <TORSDO>  (5) 
F 20

>  <SCORE>  (5) 
-14.183

>  <name>  (5) 
6

>  <ligand_id>  (5) 
6

>  <original_smiles>  (5) 
[H]c1c(C([H])([H])Oc2c([H])c([H])c3c(c2[H])C([H])([H])N(C(=O)C([H])(N([H])C(=O)C([H])(N([H])C([H])([H])[H])C([H])([H])[H])C(C([H])([H])[H])(C([H])([H])[H])C([H])([H])[H])C([H])(C(=O)N([H])C2([H])c4c([H])c([H])c([H])c([H])c4C([H])([H])C([H])([H])C2([H])[H])C3([H])[H])nnc(C(C([H])([H])[H])(C([H])([H])[H])C([H])(C([H])([H])[H])C(C(=O)N2C([H])([H])C([H])([H])C([H])([H])C([H])(n3nc(-c4c([H])c([H])c(Oc5c([H])c([H])c(F)c([H])c5F)c([H])c4[H])c(C(=O)N([H])[H])c3N([H])[H])C2([H])[H])(C([H])([H])[H])C([H])([H])[H])c1[H]

>  <smiles>  (5) 
[H]c1c(C([H])([H])Oc2c([H])c([H])c3c(c2[H])C([H])([H])N(C(=O)C([H])(N([H])C(=O)C([H])(N([H])C([H])([H])[H])C([H])([H])[H])C(C([H])([H])[H])(C([H])([H])[H])C([H])([H])[H])C([H])(C(=O)N([H])C2([H])c4c([H])c([H])c([H])c([H])c4C([H])([H])C([H])([H])C2([H])[H])C3([H])[H])nnc(C(C([H])([H])[H])(C([H])([H])[H])C([H])(C([H])([H])[H])C(C(=O)N2C([H])([H])C([H])([H])C([H])([H])C([H])(n3nc(-c4c([H])c([H])c(Oc5c([H])c([H])c(F)c([H])c5F)c([H])c4[H])c(C(=O)N([H])[H])c3N([H])[H])C2([H])[H])(C([H])([H])[H])C([H])([H])[H])c1[H]

$$$$
7:0:0
     RDKit          3D

 97105  0  0  1  0  0  0  0  0999 V2000
  -30.8870  -22.9090   19.9570 C   0  0  0  0  0  1  0  0  0  0  0  0
  -29.4390  -23.0300   20.4940 C   0  0  0  0  0  3  0  0  0  0  0  0
  -27.5740  -21.9850   21.9450 C   0  0  0  0  0  1  0  0  0  0  0  0
  -29.9110  -22.0930   22.8070 C   0  0  0  0  0  1  0  0  0  0  0  0
  -29.0590  -21.8960   21.5220 C   0  0  2  0  0  0  0  0  0  0  0  0
  -30.0590  -18.5650   20.8040 C   0  0  0  0  0  0  0  0  0  0  0  0
  -28.8150  -19.9170   19.8410 C   0  0  0  0  0  3  0  0  0  0  0  0
  -27.8990  -20.5220   18.8260 C   0  0  0  0  0  1  0  0  0  0  0  0
  -29.2760  -18.6770   19.6980 N   0  0  0  0  0  0  0  0  0  0  0  0
  -30.0570  -19.6200   21.6140 N   0  0  0  0  0  2  0  0  0  0  0  0
  -29.2870  -20.5350   20.9500 N   0  0  0  0  0  0  0  0  0  0  0  0
  -30.9340  -17.3730   21.0260 C   0  0  0  0  0  2  0  0  0  0  0  0
  -30.1620  -16.0380   21.2070 C   0  0  0  0  0  2  0  0  0  0  0  0
  -30.8620  -14.8300   20.5510 C   0  0  0  0  0  0  0  0  0  0  0  0
  -30.5770  -12.6940   19.3510 C   0  0  0  0  0  2  0  0  0  0  0  0
  -29.6650  -12.9210   18.1290 C   0  0  0  0  0  2  0  0  0  0  0  0
  -28.1820  -12.7760   18.5240 C   0  0  0  0  0  2  0  0  0  0  0  0
  -27.8160  -13.5980   19.7880 C   0  0  0  0  0  3  0  0  0  0  0  0
  -28.8480  -13.3750   20.9170 C   0  0  0  0  0  2  0  0  0  0  0  0
  -30.1850  -13.6640   20.3830 N   0  0  0  0  0  0  0  0  0  0  0  0
  -31.9930  -14.9910   20.0830 O   0  0  0  0  0  0  0  0  0  0  0  0
  -25.3980  -14.1870   20.4490 C   0  0  0  0  0  0  0  0  0  0  0  0
  -24.3270  -13.4060   20.7880 C   0  0  0  0  0  0  0  0  0  0  0  0
  -24.7970  -12.0580   20.7600 C   0  0  0  0  0  0  0  0  0  0  0  0
  -26.4540  -13.3140   20.2370 N   0  0  0  0  0  0  0  0  0  0  0  0
  -26.0940  -12.0280   20.4800 N   0  0  0  0  0  0  0  0  0  0  0  0
  -24.0760  -10.7900   20.9270 C   0  0  0  0  0  0  0  0  0  0  0  0
  -24.5020   -9.8120   21.8540 C   0  0  0  0  0  3  0  0  0  0  0  0
  -23.7810   -8.6090   22.0090 C   0  0  0  0  0  3  0  0  0  0  0  0
  -22.6200   -8.3730   21.2360 C   0  0  0  0  0  0  0  0  0  0  0  0
  -22.2120   -9.3380   20.2980 C   0  0  0  0  0  3  0  0  0  0  0  0
  -22.9340  -10.5330   20.1420 C   0  0  0  0  0  3  0  0  0  0  0  0
  -21.8720   -7.2220   21.3010 O   0  0  0  0  0  0  0  0  0  0  0  0
  -21.8090   -6.4670   22.4450 C   0  0  0  0  0  0  0  0  0  0  0  0
  -21.3690   -7.0100   23.6720 C   0  0  0  0  0  3  0  0  0  0  0  0
  -21.2540   -6.1820   24.8060 C   0  0  0  0  0  3  0  0  0  0  0  0
  -21.5670   -4.8130   24.7140 C   0  0  0  0  0  0  0  0  0  0  0  0
  -22.0010   -4.2690   23.4920 C   0  0  0  0  0  3  0  0  0  0  0  0
  -22.1180   -5.0950   22.3600 C   0  0  0  0  0  0  0  0  0  0  0  0
  -22.5150   -4.5630   21.1790 F   0  0  0  0  0  0  0  0  0  0  0  0
  -21.4490   -4.0150   25.8010 F   0  0  0  0  0  0  0  0  0  0  0  0
  -22.9210  -13.8720   21.0330 C   0  0  0  0  0  0  0  0  0  0  0  0
  -22.1860  -13.1770   21.8950 N   0  0  0  0  0  0  0  0  0  0  0  0
  -22.4800  -14.8880   20.4950 O   0  0  0  0  0  0  0  0  0  0  0  0
  -22.5540  -12.3550   22.3500 H   0  0  0  0  0  0  0  0  0  0  0  0
  -21.2420  -13.4710   22.1010 H   0  0  0  0  0  0  0  0  0  0  0  0
  -25.5600  -15.5600   20.2830 N   0  0  0  0  0  0  0  0  0  0  0  0
  -24.7910  -16.2140   20.3830 H   0  0  0  0  0  0  0  0  0  0  0  0
  -26.4200  -16.0040   19.9860 H   0  0  0  0  0  0  0  0  0  0  0  0
  -28.9890  -24.4810   20.8930 C   0  0  0  0  0  2  0  0  0  0  0  0
  -29.7190  -25.7160   20.2800 C   0  0  0  0  0  3  0  0  0  0  0  0
  -31.0490  -25.9800   21.0350 C   0  0  0  0  0  2  0  0  0  0  0  0
  -33.0220  -27.4690   21.5710 C   0  0  0  0  0  1  0  0  0  0  0  0
  -32.3820  -27.1140   19.1550 C   0  0  0  0  0  1  0  0  0  0  0  0
  -31.8610  -27.2220   20.5970 C   0  0  0  0  0  3  0  0  0  0  0  0
  -28.8040  -26.9630   20.3100 C   0  0  0  0  0  2  0  0  0  0  0  0
  -27.7570  -26.8100   19.3580 O   0  0  0  0  0  0  0  0  0  0  0  0
  -24.4660  -31.9110   23.1060 C   0  0  0  0  0  0  0  0  0  0  0  0
  -26.6540  -27.6050   19.5490 C   0  0  0  0  0  0  0  0  0  0  0  0
  -23.0530  -30.6240   21.5320 C   0  0  0  0  0  3  0  0  0  0  0  0
  -24.3070  -29.1360   19.8850 C   0  0  0  0  0  0  0  0  0  0  0  0
  -25.5470  -30.9490   21.0820 C   0  0  0  0  0  2  0  0  0  0  0  0
  -25.5290  -29.6090   20.3780 C   0  0  0  0  0  0  0  0  0  0  0  0
  -26.7060  -28.8500   20.2180 C   0  0  0  0  0  3  0  0  0  0  0  0
  -25.4230  -27.1460   19.0430 C   0  0  0  0  0  3  0  0  0  0  0  0
  -24.2470  -27.8990   19.2170 C   0  0  0  0  0  3  0  0  0  0  0  0
  -23.0950  -30.0120   20.1060 C   0  0  0  0  0  2  0  0  0  0  0  0
  -24.3790  -31.1730   21.9640 N   0  0  0  0  0  0  0  0  0  0  0  0
  -23.4560  -32.1790   23.7720 O   0  0  0  0  0  0  0  0  0  0  0  0
  -22.4800  -29.5680   22.5040 C   0  0  0  0  0  0  0  0  0  0  0  0
  -21.1560  -29.3530   22.4400 N   0  0  0  0  0  0  0  0  0  0  0  0
  -23.2210  -28.9460   23.2700 O   0  0  0  0  0  0  0  0  0  0  0  0
  -20.6170  -29.9110   21.7910 H   0  0  0  0  0  0  0  0  0  0  0  0
  -17.8670  -27.9570   22.9660 C   0  0  0  0  0  0  0  0  0  0  0  0
  -20.4030  -28.3810   23.2290 C   0  0  0  0  0  3  0  0  0  0  0  0
  -20.5960  -26.9480   22.6800 C   0  0  0  0  0  2  0  0  0  0  0  0
  -19.5160  -26.5370   21.6750 C   0  0  0  0  0  2  0  0  0  0  0  0
  -18.1280  -26.6070   22.3180 C   0  0  0  0  0  2  0  0  0  0  0  0
  -18.9360  -28.7960   23.3790 C   0  0  0  0  0  0  0  0  0  0  0  0
  -18.6390  -30.0550   23.9440 C   0  0  0  0  0  3  0  0  0  0  0  0
  -17.3050  -30.4770   24.1020 C   0  0  0  0  0  3  0  0  0  0  0  0
  -16.2510  -29.6360   23.7050 C   0  0  0  0  0  3  0  0  0  0  0  0
  -16.5320  -28.3780   23.1440 C   0  0  0  0  0  3  0  0  0  0  0  0
  -25.8290  -32.4760   23.6140 C   0  0  0  0  0  3  0  0  0  0  0  0
  -26.4880  -31.5920   24.7430 C   0  0  1  0  0  0  0  0  0  0  0  0
  -25.5340  -31.2740   25.9180 C   0  0  0  0  0  1  0  0  0  0  0  0
  -26.9860  -30.2480   24.1610 C   0  0  0  0  0  1  0  0  0  0  0  0
  -27.7300  -32.3140   25.3180 C   0  0  0  0  0  1  0  0  0  0  0  0
  -25.5880  -33.8430   24.0960 N   0  0  0  0  0  0  0  0  0  0  0  0
  -25.9260  -34.9540   23.4280 C   0  0  0  0  0  0  0  0  0  0  0  0
  -26.5470  -34.9330   22.3620 O   0  0  0  0  0  0  0  0  0  0  0  0
  -25.0330  -33.9360   24.9350 H   0  0  0  0  0  0  0  0  0  0  0  0
  -24.2700  -36.8440   23.3080 C   0  0  0  0  0  1  0  0  0  0  0  0
  -25.5080  -36.3050   24.0420 C   0  0  0  0  0  3  0  0  0  0  0  0
  -27.6980  -37.0000   24.9050 C   0  0  0  0  0  1  0  0  0  0  0  0
  -26.5830  -37.3190   24.0180 N   0  0  0  0  0  0  0  0  0  0  0  0
  -26.2210  -38.2320   24.2800 H   0  0  0  0  0  0  0  0  0  0  0  0
  2  1  1  0
  2 50  1  0
  2  5  1  0
  5  3  1  1
  5  4  1  0
  6 12  1  0
  6 10  1  0
  7  8  1  0
  7 11  1  0
  9  7  1  0
  9  6  2  0
 11  5  1  0
 11 10  1  0
 12 13  1  0
 14 13  1  0
 15 20  1  0
 16 17  1  0
 16 15  1  0
 18 17  1  0
 18 25  1  0
 18 19  1  0
 20 14  1  0
 20 19  1  0
 21 14  2  0
 22 23  2  0
 23 42  1  0
 24 23  1  0
 24 27  1  0
 25 22  1  0
 25 26  1  0
 26 24  2  0
 27 28  1  0
 28 29  2  0
 30 33  1  0
 30 29  1  0
 31 30  2  0
 32 31  1  0
 32 27  2  0
 33 34  1  0
 34 35  1  0
 35 36  2  0
 37 36  1  0
 37 41  1  0
 38 37  2  0
 39 34  2  0
 39 38  1  0
 40 39  1  0
 42 43  1  0
 43 46  1  0
 43 45  1  0
 44 42  2  0
 47 48  1  0
 47 22  1  0
 49 47  1  0
 51 56  1  0
 51 50  1  0
 51 52  1  0
 54 55  1  0
 55 52  1  0
 55 53  1  0
 57 59  1  0
 57 56  1  0
 58 69  2  0
 59 64  1  0
 60 68  1  0
 60 70  1  0
 61 67  1  0
 61 63  1  0
 62 68  1  0
 63 62  1  0
 64 63  2  0
 65 66  1  0
 65 59  2  0
 66 61  2  0
 67 60  1  0
 68 58  1  0
 70 72  2  0
 71 70  1  0
 73 71  1  0
 74 83  2  0
 74 79  1  0
 75 71  1  0
 75 79  1  0
 76 75  1  0
 77 78  1  0
 77 76  1  0
 78 74  1  0
 79 80  2  0
 80 81  1  0
 82 81  2  0
 83 82  1  0
 84 58  1  0
 84 89  1  0
 84 85  1  0
 85 88  1  1
 85 86  1  0
 87 85  1  0
 89 92  1  0
 90 94  1  0
 90 89  1  0
 91 90  2  0
 94 93  1  0
 96 94  1  0
 96 97  1  0
 96 95  1  0
M  ISO  4  13 100  14 100  56 101  57 101
M  END
>  <TORSDO>  (6) 
F 25

>  <SCORE>  (6) 
-11.902

>  <name>  (6) 
7

>  <ligand_id>  (6) 
7

>  <original_smiles>  (6) 
[H]c1c([H])c([H])c2c(c1[H])C([H])([H])C([H])([H])C([H])([H])C2([H])N([H])C(=O)C1([H])N(C(=O)C([H])(N([H])C(=O)C([H])(N([H])C([H])([H])[H])C([H])([H])[H])C(C([H])([H])[H])(C([H])([H])[H])C([H])([H])[H])C([H])([H])c2c([H])c(OC([H])([H])C([H])(C([H])([H])C([H])(C([H])([H])[H])C([H])([H])[H])C([H])([H])C([H])(C([H])([H])[H])C(n3nc(C([H])([H])C([H])([H])C(=O)N4C([H])([H])C([H])([H])C([H])([H])C([H])(n5nc(-c6c([H])c([H])c(Oc7c([H])c([H])c(F)c([H])c7F)c([H])c6[H])c(C(=O)N([H])[H])c5N([H])[H])C4([H])[H])nc3C([H])([H])[H])(C([H])([H])[H])C([H])([H])[H])c([H])c([H])c2C1([H])[H]

>  <smiles>  (6) 
[H]c1c([H])c([H])c2c(c1[H])C([H])([H])C([H])([H])C([H])([H])C2([H])N([H])C(=O)C1([H])N(C(=O)C([H])(N([H])C(=O)C([H])(N([H])C([H])([H])[H])C([H])([H])[H])C(C([H])([H])[H])(C([H])([H])[H])C([H])([H])[H])C([H])([H])c2c([H])c(OC([H])([H])C([H])(C([H])([H])C([H])(C([H])([H])[H])C([H])([H])[H])C([H])([H])C([H])(C([H])([H])[H])C(n3nc(C([H])([H])C([H])([H])C(=O)N4C([H])([H])C([H])([H])C([H])([H])C([H])(n5nc(-c6c([H])c([H])c(Oc7c([H])c([H])c(F)c([H])c7F)c([H])c6[H])c(C(=O)N([H])[H])c5N([H])[H])C4([H])[H])nc3C([H])([H])[H])(C([H])([H])[H])C([H])([H])[H])c([H])c([H])c2C1([H])[H]

$$$$
8:0:0
     RDKit          3D

100108  0  0  1  0  0  0  0  0999 V2000
  -28.6680  -21.5180   21.7550 C   0  0  0  0  0  1  0  0  0  0  0  0
  -29.2300  -20.9840   20.4210 C   0  0  1  0  0  0  0  0  0  0  0  0
  -30.5180  -18.8870   19.5990 C   0  0  0  0  0  3  0  0  0  0  0  0
  -31.4000  -17.9160   20.0580 C   0  0  0  0  0  0  0  0  0  0  0  0
  -31.0320  -19.4690   21.6640 C   0  0  0  0  0  3  0  0  0  0  0  0
  -30.3060  -19.8690   20.5590 N   0  0  0  0  0  0  0  0  0  0  0  0
  -31.7230  -18.3670   21.3020 N   0  0  0  0  0  0  0  0  0  0  0  0
  -32.3770  -17.9170   21.9310 H   0  0  0  0  0  0  0  0  0  0  0  0
  -29.8580  -19.8500   23.9230 C   0  0  0  0  0  1  0  0  0  0  0  0
  -31.8500  -21.3330   23.2410 C   0  0  0  0  0  1  0  0  0  0  0  0
  -32.1410  -19.0000   23.9020 C   0  0  0  0  0  1  0  0  0  0  0  0
  -31.1790  -19.9460   23.1240 C   0  0  2  0  0  0  0  0  0  0  0  0
  -33.2950  -17.2090   18.7370 C   0  0  0  0  0  1  0  0  0  0  0  0
  -31.0820  -16.4640   18.0540 C   0  0  0  0  0  1  0  0  0  0  0  0
  -31.9490  -16.6690   19.3160 C   0  0  2  0  0  0  0  0  0  0  0  0
  -32.2800  -15.2500   20.0470 C   0  0  0  0  0  0  0  0  0  0  0  0
  -31.8420  -12.9090   19.3870 C   0  0  0  0  0  2  0  0  0  0  0  0
  -30.9510  -12.8130   18.1330 C   0  0  0  0  0  2  0  0  0  0  0  0
  -29.4610  -12.8340   18.5170 C   0  0  0  0  0  2  0  0  0  0  0  0
  -29.1020  -13.9100   19.5780 C   0  0  0  0  0  3  0  0  0  0  0  0
  -30.1360  -14.0030   20.7160 C   0  0  0  0  0  2  0  0  0  0  0  0
  -31.4630  -14.1440   20.1050 N   0  0  0  0  0  0  0  0  0  0  0  0
  -33.4830  -15.0420   20.1900 O   0  0  0  0  0  0  0  0  0  0  0  0
  -26.7850  -14.7350   20.2920 C   0  0  0  0  0  0  0  0  0  0  0  0
  -25.6380  -14.0690   20.6230 C   0  0  0  0  0  0  0  0  0  0  0  0
  -25.9640  -12.6790   20.5870 C   0  0  0  0  0  0  0  0  0  0  0  0
  -27.7380  -13.7560   20.0660 N   0  0  0  0  0  0  0  0  0  0  0  0
  -27.2520  -12.5140   20.3130 N   0  0  0  0  0  0  0  0  0  0  0  0
  -25.1100  -11.4930   20.7390 C   0  0  0  0  0  0  0  0  0  0  0  0
  -25.3910  -10.5030   21.7040 C   0  0  0  0  0  3  0  0  0  0  0  0
  -24.5460   -9.3810   21.8460 C   0  0  0  0  0  3  0  0  0  0  0  0
  -23.4060   -9.2440   21.0180 C   0  0  0  0  0  0  0  0  0  0  0  0
  -23.1460  -10.2200   20.0400 C   0  0  0  0  0  3  0  0  0  0  0  0
  -23.9910  -11.3330   19.8980 C   0  0  0  0  0  3  0  0  0  0  0  0
  -22.5430   -8.1760   21.0670 O   0  0  0  0  0  0  0  0  0  0  0  0
  -22.2580   -7.5350   22.2460 C   0  0  0  0  0  0  0  0  0  0  0  0
  -21.7630   -8.2310   23.3710 C   0  0  0  0  0  3  0  0  0  0  0  0
  -21.4190   -7.5220   24.5390 C   0  0  0  0  0  3  0  0  0  0  0  0
  -21.5580   -6.1230   24.5820 C   0  0  0  0  0  0  0  0  0  0  0  0
  -22.0440   -5.4280   23.4600 C   0  0  0  0  0  3  0  0  0  0  0  0
  -22.3900   -6.1320   22.2940 C   0  0  0  0  0  0  0  0  0  0  0  0
  -22.8390   -5.4560   21.2090 F   0  0  0  0  0  0  0  0  0  0  0  0
  -21.2190   -5.4410   25.7020 F   0  0  0  0  0  0  0  0  0  0  0  0
  -24.2890  -14.6800   20.8620 C   0  0  0  0  0  0  0  0  0  0  0  0
  -23.4840  -14.0680   21.7230 N   0  0  0  0  0  0  0  0  0  0  0  0
  -23.9610  -15.7350   20.3200 O   0  0  0  0  0  0  0  0  0  0  0  0
  -23.7640  -13.2130   22.1800 H   0  0  0  0  0  0  0  0  0  0  0  0
  -22.5770  -14.4590   21.9280 H   0  0  0  0  0  0  0  0  0  0  0  0
  -27.0930  -16.0850   20.1350 N   0  0  0  0  0  0  0  0  0  0  0  0
  -26.3870  -16.8070   20.2240 H   0  0  0  0  0  0  0  0  0  0  0  0
  -27.9830  -16.4380   19.8140 H   0  0  0  0  0  0  0  0  0  0  0  0
  -26.7990  -21.1160   19.3430 C   0  0  0  0  0  1  0  0  0  0  0  0
  -28.0940  -20.3110   19.5790 C   0  0  0  0  0  2  0  0  0  0  0  0
  -29.6310  -22.3000   19.5830 C   0  0  0  0  0  2  0  0  0  0  0  0
  -31.7880  -22.8930   20.8640 C   0  0  0  0  0  1  0  0  0  0  0  0
  -31.2880  -23.9750   18.7170 C   0  0  0  0  0  1  0  0  0  0  0  0
  -30.6280  -23.4670   20.0210 C   0  0  1  0  0  0  0  0  0  0  0  0
  -30.0420  -24.7630   20.7640 C   0  0  0  0  0  2  0  0  0  0  0  0
  -29.0520  -25.7640   20.0440 C   0  0  0  0  0  2  0  0  0  0  0  0
  -29.1050  -27.1740   20.4750 O   0  0  0  0  0  0  0  0  0  0  0  0
  -24.9690  -32.0250   23.7940 C   0  0  0  0  0  0  0  0  0  0  0  0
  -27.9390  -27.9500   20.4260 C   0  0  0  0  0  0  0  0  0  0  0  0
  -23.9090  -30.7430   21.9710 C   0  0  0  0  0  3  0  0  0  0  0  0
  -25.4940  -29.4240   20.4620 C   0  0  0  0  0  0  0  0  0  0  0  0
  -26.4300  -31.2060   21.9360 C   0  0  0  0  0  2  0  0  0  0  0  0
  -26.6060  -29.9080   21.1610 C   0  0  0  0  0  0  0  0  0  0  0  0
  -27.8310  -29.1810   21.1380 C   0  0  0  0  0  3  0  0  0  0  0  0
  -26.8070  -27.5260   19.6910 C   0  0  0  0  0  3  0  0  0  0  0  0
  -25.5960  -28.2390   19.7190 C   0  0  0  0  0  3  0  0  0  0  0  0
  -24.2110  -30.2240   20.5410 C   0  0  0  0  0  2  0  0  0  0  0  0
  -25.1170  -31.3370   22.6250 N   0  0  0  0  0  0  0  0  0  0  0  0
  -23.8520  -32.1940   24.3030 O   0  0  0  0  0  0  0  0  0  0  0  0
  -23.2650  -29.6010   22.7920 C   0  0  0  0  0  0  0  0  0  0  0  0
  -21.9780  -29.3160   22.5250 N   0  0  0  0  0  0  0  0  0  0  0  0
  -23.9230  -28.9790   23.6290 O   0  0  0  0  0  0  0  0  0  0  0  0
  -21.5020  -29.8780   21.8330 H   0  0  0  0  0  0  0  0  0  0  0  0
  -18.7220  -27.7470   22.5590 C   0  0  0  0  0  0  0  0  0  0  0  0
  -21.1850  -28.2570   23.1510 C   0  0  0  0  0  3  0  0  0  0  0  0
  -21.5120  -26.8780   22.5320 C   0  0  0  0  0  2  0  0  0  0  0  0
  -20.5790  -26.4970   21.3790 C   0  0  0  0  0  2  0  0  0  0  0  0
  -19.1230  -26.4610   21.8550 C   0  0  0  0  0  2  0  0  0  0  0  0
  -19.6910  -28.5970   23.1540 C   0  0  0  0  0  0  0  0  0  0  0  0
  -19.2650  -29.7960   23.7660 C   0  0  0  0  0  3  0  0  0  0  0  0
  -17.9030  -30.1480   23.7920 C   0  0  0  0  0  3  0  0  0  0  0  0
  -16.9460  -29.2950   23.2140 C   0  0  0  0  0  3  0  0  0  0  0  0
  -17.3550  -28.0960   22.6040 C   0  0  0  0  0  3  0  0  0  0  0  0
  -26.1920  -32.6510   24.5330 C   0  0  0  0  0  3  0  0  0  0  0  0
  -25.8360  -34.0340   24.8840 N   0  0  0  0  0  0  0  0  0  0  0  0
  -26.2220  -35.1180   24.1970 C   0  0  0  0  0  0  0  0  0  0  0  0
  -26.9820  -35.0580   23.2270 O   0  0  0  0  0  0  0  0  0  0  0  0
  -25.1720  -34.1530   25.6340 H   0  0  0  0  0  0  0  0  0  0  0  0
  -24.5070  -36.9050   23.7540 C   0  0  0  0  0  1  0  0  0  0  0  0
  -25.6780  -36.4830   24.6570 C   0  0  0  0  0  3  0  0  0  0  0  0
  -27.7320  -37.3470   25.6890 C   0  0  0  0  0  1  0  0  0  0  0  0
  -26.7020  -37.5510   24.6740 N   0  0  0  0  0  0  0  0  0  0  0  0
  -26.2740  -38.4580   24.8330 H   0  0  0  0  0  0  0  0  0  0  0  0
  -26.6200  -31.8450   25.8200 C   0  0  1  0  0  0  0  0  0  0  0  0
  -25.4450  -31.5210   26.7720 C   0  0  0  0  0  1  0  0  0  0  0  0
  -27.2910  -30.5070   25.4280 C   0  0  0  0  0  1  0  0  0  0  0  0
  -27.6740  -32.6490   26.6160 C   0  0  0  0  0  1  0  0  0  0  0  0
  2  6  1  0
  2  1  1  1
  3  4  2  0
  3  6  1  0
  4  7  1  0
  5 12  1  0
  6  5  1  0
  7  5  1  0
  7  8  1  0
 12 10  1  6
 12 11  1  0
 12  9  1  0
 15 13  1  6
 14 15  1  0
 15 16  1  0
 15  4  1  0
 16 22  1  0
 16 23  2  0
 17 22  1  0
 18 19  1  0
 18 17  1  0
 20 19  1  0
 20 27  1  0
 20 21  1  0
 22 21  1  0
 24 25  2  0
 25 44  1  0
 26 25  1  0
 26 29  1  0
 27 24  1  0
 27 28  1  0
 28 26  2  0
 29 30  1  0
 30 31  2  0
 32 35  1  0
 32 31  1  0
 33 32  2  0
 34 33  1  0
 34 29  2  0
 35 36  1  0
 36 41  2  0
 36 37  1  0
 37 38  2  0
 38 39  1  0
 39 43  1  0
 40 39  2  0
 41 40  1  0
 42 41  1  0
 44 45  1  0
 45 48  1  0
 45 47  1  0
 46 44  2  0
 49 50  1  0
 49 24  1  0
 51 49  1  0
 52 53  1  0
 53  2  1  0
 54 57  1  0
 54  2  1  0
 57 56  1  6
 57 58  1  0
 57 55  1  0
 59 60  1  0
 59 58  1  0
 61 72  2  0
 62 60  1  0
 62 67  1  0
 63 71  1  0
 63 73  1  0
 64 70  1  0
 64 66  1  0
 65 71  1  0
 66 65  1  0
 67 66  2  0
 68 69  1  0
 68 62  2  0
 69 64  2  0
 70 63  1  0
 71 61  1  0
 73 75  2  0
 74 73  1  0
 76 74  1  0
 77 86  2  0
 77 82  1  0
 78 74  1  0
 78 82  1  0
 79 78  1  0
 80 81  1  0
 80 79  1  0
 81 77  1  0
 82 83  2  0
 83 84  1  0
 85 84  2  0
 86 85  1  0
 87 61  1  0
 87 88  1  0
 87 97  1  0
 88 91  1  0
 89 93  1  0
 89 88  1  0
 90 89  2  0
 93 92  1  0
 93 95  1  0
 95 96  1  0
 95 94  1  0
 97100  1  1
 97 98  1  0
 99 97  1  0
M  ISO  4  15 100  16 100  59 101  60 101
M  END
>  <TORSDO>  (7) 
F 24

>  <SCORE>  (7) 
-7.131

>  <name>  (7) 
8

>  <ligand_id>  (7) 
8

>  <original_smiles>  (7) 
[H]c1c([H])c([H])c2c(c1[H])C([H])([H])C([H])([H])C([H])([H])C2([H])N([H])C(=O)C1([H])N(C(=O)C([H])(N([H])C(=O)C([H])(N([H])C([H])([H])[H])C([H])([H])[H])C(C([H])([H])[H])(C([H])([H])[H])C([H])([H])[H])C([H])([H])c2c([H])c(OC([H])([H])C([H])([H])C(C([H])([H])[H])(C([H])([H])[H])C([H])([H])C(n3c([H])c(C(C(=O)N4C([H])([H])C([H])([H])C([H])([H])C([H])(n5nc(-c6c([H])c([H])c(Oc7c([H])c([H])c(F)c([H])c7F)c([H])c6[H])c(C(=O)N([H])[H])c5N([H])[H])C4([H])[H])(C([H])([H])[H])C([H])([H])[H])[n+]([H])c3C(C([H])([H])[H])(C([H])([H])[H])C([H])([H])[H])(C([H])([H])[H])C([H])([H])C([H])([H])[H])c([H])c([H])c2C1([H])[H]

>  <smiles>  (7) 
[H]c1c([H])c([H])c2c(c1[H])C([H])([H])C([H])([H])C([H])([H])C2([H])N([H])C(=O)C1([H])N(C(=O)C([H])(N([H])C(=O)C([H])(N([H])C([H])([H])[H])C([H])([H])[H])C(C([H])([H])[H])(C([H])([H])[H])C([H])([H])[H])C([H])([H])c2c([H])c(OC([H])([H])C([H])([H])C(C([H])([H])[H])(C([H])([H])[H])C([H])([H])C(n3c([H])c(C(C(=O)N4C([H])([H])C([H])([H])C([H])([H])C([H])(n5nc(-c6c([H])c([H])c(Oc7c([H])c([H])c(F)c([H])c7F)c([H])c6[H])c(C(=O)N([H])[H])c5N([H])[H])C4([H])[H])(C([H])([H])[H])C([H])([H])[H])[n+]([H])c3C(C([H])([H])[H])(C([H])([H])[H])C([H])([H])[H])(C([H])([H])[H])C([H])([H])C([H])([H])[H])c([H])c([H])c2C1([H])[H]

$$$$
9:0:0
     RDKit          3D

101110  0  0  1  0  0  0  0  0999 V2000
  -27.6330  -18.0080   18.5280 C   0  0  0  0  0  3  0  0  0  0  0  0
  -26.6770  -19.0240   18.8140 C   0  0  0  0  0  0  0  0  0  0  0  0
  -28.7370  -18.2930   19.2940 C   0  0  0  0  0  0  0  0  0  0  0  0
  -27.1830  -19.9160   19.6470 N   0  0  0  0  0  0  0  0  0  0  0  0
  -28.4520  -19.5230   19.9020 N   0  0  0  0  0  0  0  0  0  0  0  0
  -24.9880  -18.4580   17.0240 C   0  0  0  0  0  1  0  0  0  0  0  0
  -24.7170  -20.5560   18.3370 C   0  0  0  0  0  1  0  0  0  0  0  0
  -24.3510  -18.3690   19.4600 C   0  0  0  0  0  1  0  0  0  0  0  0
  -25.2070  -19.0980   18.4110 C   0  0  2  0  0  0  0  0  0  0  0  0
  -31.2220  -18.2840   18.9760 C   0  0  0  0  0  1  0  0  0  0  0  0
  -29.9830  -16.2470   18.5030 C   0  0  0  0  0  1  0  0  0  0  0  0
  -30.0130  -17.4570   19.4730 C   0  0  2  0  0  0  0  0  0  0  0  0
  -31.4420  -17.4900   21.7100 C   0  0  0  0  0  1  0  0  0  0  0  0
  -30.1850  -16.9490   20.9800 C   0  0  0  0  0  3  0  0  0  0  0  0
  -30.7860  -14.4190   21.0110 C   0  0  0  0  0  0  0  0  0  0  0  0
  -30.6470  -12.1120   20.1660 C   0  0  0  0  0  2  0  0  0  0  0  0
  -29.7940  -12.1250   18.8810 C   0  0  0  0  0  2  0  0  0  0  0  0
  -28.2960  -11.9860   19.2140 C   0  0  0  0  0  2  0  0  0  0  0  0
  -27.8400  -12.9520   20.3420 C   0  0  0  0  0  3  0  0  0  0  0  0
  -28.8160  -12.9300   21.5420 C   0  0  0  0  0  2  0  0  0  0  0  0
  -30.1650  -13.2060   21.0230 N   0  0  0  0  0  0  0  0  0  0  0  0
  -31.9640  -14.5410   20.6740 O   0  0  0  0  0  0  0  0  0  0  0  0
  -29.9690  -15.4840   21.1920 N   0  0  0  0  0  0  0  0  0  0  0  0
  -29.0240  -15.2320   21.4370 H   0  0  0  0  0  0  0  0  0  0  0  0
  -25.4190  -13.5940   20.8850 C   0  0  0  0  0  0  0  0  0  0  0  0
  -24.3150  -12.8490   21.2030 C   0  0  0  0  0  0  0  0  0  0  0  0
  -24.7610  -11.4910   21.2240 C   0  0  0  0  0  0  0  0  0  0  0  0
  -26.4640  -12.6950   20.7450 N   0  0  0  0  0  0  0  0  0  0  0  0
  -26.0680  -11.4270   21.0030 N   0  0  0  0  0  0  0  0  0  0  0  0
  -24.0080  -10.2460   21.3910 C   0  0  0  0  0  0  0  0  0  0  0  0
  -24.4130   -9.2580   22.3150 C   0  0  0  0  0  3  0  0  0  0  0  0
  -23.6640   -8.0720   22.4690 C   0  0  0  0  0  3  0  0  0  0  0  0
  -22.4930   -7.8680   21.7010 C   0  0  0  0  0  0  0  0  0  0  0  0
  -22.1060   -8.8450   20.7680 C   0  0  0  0  0  3  0  0  0  0  0  0
  -22.8560  -10.0220   20.6110 C   0  0  0  0  0  3  0  0  0  0  0  0
  -21.7170   -6.7350   21.7640 O   0  0  0  0  0  0  0  0  0  0  0  0
  -21.6850   -5.9520   22.8890 C   0  0  0  0  0  0  0  0  0  0  0  0
  -21.3050   -6.4660   24.1480 C   0  0  0  0  0  3  0  0  0  0  0  0
  -21.2170   -5.6070   25.2610 C   0  0  0  0  0  3  0  0  0  0  0  0
  -21.5000   -4.2360   25.1200 C   0  0  0  0  0  0  0  0  0  0  0  0
  -21.8740   -3.7220   23.8660 C   0  0  0  0  0  3  0  0  0  0  0  0
  -21.9660   -4.5770   22.7530 C   0  0  0  0  0  0  0  0  0  0  0  0
  -22.3060   -4.0730   21.5430 F   0  0  0  0  0  0  0  0  0  0  0  0
  -21.4080   -3.4090   26.1880 F   0  0  0  0  0  0  0  0  0  0  0  0
  -22.9120  -13.3550   21.3830 C   0  0  0  0  0  0  0  0  0  0  0  0
  -22.1310  -12.6980   22.2310 N   0  0  0  0  0  0  0  0  0  0  0  0
  -22.5140  -14.3660   20.8050 O   0  0  0  0  0  0  0  0  0  0  0  0
  -22.4620  -11.8740   22.7120 H   0  0  0  0  0  0  0  0  0  0  0  0
  -21.1890  -13.0200   22.4000 H   0  0  0  0  0  0  0  0  0  0  0  0
  -25.6230  -14.9480   20.6890 N   0  0  0  0  0  0  0  0  0  0  0  0
  -24.8640  -15.6060   20.8130 H   0  0  0  0  0  0  0  0  0  0  0  0
  -26.5180  -15.3970   20.5550 H   0  0  0  0  0  0  0  0  0  0  0  0
  -29.2250  -20.3800   20.8000 C   0  0  0  0  0  2  0  0  0  0  0  0
  -29.9170  -22.1270   18.9180 C   0  0  0  0  0  3  0  0  0  0  0  0
  -30.2570  -23.4510   18.9020 C   0  0  0  0  0  3  0  0  0  0  0  0
  -29.5730  -22.9370   20.9700 C   0  0  0  0  0  3  0  0  0  0  0  0
  -29.5370  -21.7690   20.2470 C   0  0  0  0  0  0  0  0  0  0  0  0
  -30.0700  -23.9550   20.1720 N   0  0  0  0  0  0  0  0  0  0  0  0
  -30.4290  -25.2990   20.6130 C   0  0  0  0  0  2  0  0  0  0  0  0
  -29.2600  -26.2920   20.6980 C   0  0  0  0  0  2  0  0  0  0  0  0
  -28.7790  -26.6920   19.4120 O   0  0  0  0  0  0  0  0  0  0  0  0
  -24.9240  -31.2760   23.2290 C   0  0  0  0  0  0  0  0  0  0  0  0
  -27.6310  -27.4380   19.5030 C   0  0  0  0  0  0  0  0  0  0  0  0
  -23.7270  -30.1120   21.4000 C   0  0  0  0  0  3  0  0  0  0  0  0
  -25.1990  -28.8460   19.7440 C   0  0  0  0  0  0  0  0  0  0  0  0
  -26.2340  -30.5680   21.2360 C   0  0  0  0  0  2  0  0  0  0  0  0
  -26.3460  -29.3120   20.3990 C   0  0  0  0  0  0  0  0  0  0  0  0
  -27.5650  -28.6150   20.2820 C   0  0  0  0  0  3  0  0  0  0  0  0
  -26.4780  -26.9900   18.8290 C   0  0  0  0  0  3  0  0  0  0  0  0
  -25.2590  -27.6830   18.9540 C   0  0  0  0  0  3  0  0  0  0  0  0
  -23.9340  -29.6520   19.9320 C   0  0  0  0  0  2  0  0  0  0  0  0
  -24.9810  -30.6560   22.0170 N   0  0  0  0  0  0  0  0  0  0  0  0
  -23.8460  -31.4370   23.8160 O   0  0  0  0  0  0  0  0  0  0  0  0
  -23.1120  -28.9420   22.1990 C   0  0  0  0  0  0  0  0  0  0  0  0
  -21.8000  -28.7190   22.0170 N   0  0  0  0  0  0  0  0  0  0  0  0
  -23.8130  -28.2440   22.9380 O   0  0  0  0  0  0  0  0  0  0  0  0
  -21.2950  -29.3450   21.4070 H   0  0  0  0  0  0  0  0  0  0  0  0
  -18.4890  -27.3000   22.2330 C   0  0  0  0  0  0  0  0  0  0  0  0
  -21.0170  -27.6510   22.6340 C   0  0  0  0  0  3  0  0  0  0  0  0
  -21.2190  -26.3090   21.8920 C   0  0  0  0  0  2  0  0  0  0  0  0
  -20.1710  -26.0600   20.8030 C   0  0  0  0  0  2  0  0  0  0  0  0
  -18.7630  -26.0550   21.4040 C   0  0  0  0  0  2  0  0  0  0  0  0
  -19.5490  -28.0580   22.7960 C   0  0  0  0  0  0  0  0  0  0  0  0
  -19.2390  -29.2270   23.5270 C   0  0  0  0  0  3  0  0  0  0  0  0
  -17.9050  -29.6360   23.7010 C   0  0  0  0  0  3  0  0  0  0  0  0
  -16.8590  -28.8730   23.1530 C   0  0  0  0  0  3  0  0  0  0  0  0
  -17.1520  -27.7060   22.4240 C   0  0  0  0  0  3  0  0  0  0  0  0
  -26.2060  -31.8340   23.9250 C   0  0  0  0  0  3  0  0  0  0  0  0
  -25.8950  -33.1870   24.4060 N   0  0  0  0  0  0  0  0  0  0  0  0
  -26.2810  -34.3180   23.7990 C   0  0  0  0  0  0  0  0  0  0  0  0
  -27.0080  -34.3260   22.8010 O   0  0  0  0  0  0  0  0  0  0  0  0
  -25.2630  -33.2560   25.1900 H   0  0  0  0  0  0  0  0  0  0  0  0
  -24.6160  -36.1830   23.5460 C   0  0  0  0  0  1  0  0  0  0  0  0
  -25.7810  -35.6470   24.3930 C   0  0  0  0  0  3  0  0  0  0  0  0
  -27.8580  -36.3600   25.4930 C   0  0  0  0  0  1  0  0  0  0  0  0
  -26.8370  -36.6790   24.4990 N   0  0  0  0  0  0  0  0  0  0  0  0
  -26.4340  -37.5820   24.7380 H   0  0  0  0  0  0  0  0  0  0  0  0
  -26.7190  -30.9240   25.1080 C   0  0  1  0  0  0  0  0  0  0  0  0
  -25.6220  -30.5640   26.1370 C   0  0  0  0  0  1  0  0  0  0  0  0
  -27.3050  -29.6020   24.5610 C   0  0  0  0  0  1  0  0  0  0  0  0
  -27.8640  -31.6390   25.8640 C   0  0  0  0  0  1  0  0  0  0  0  0
  1  2  1  0
  1  3  2  0
  2  4  2  0
  3 12  1  0
  3  5  1  0
  4  5  1  0
  5 53  1  0
  9  6  1  6
  7  9  1  0
  9  2  1  0
  9  8  1  0
 12 10  1  6
 11 12  1  0
 12 14  1  0
 14 23  1  0
 14 13  1  0
 15 21  1  0
 15 23  1  0
 16 21  1  0
 17 18  1  0
 17 16  1  0
 19 18  1  0
 19 28  1  0
 19 20  1  0
 21 20  1  0
 22 15  2  0
 23 24  1  0
 25 26  2  0
 26 27  1  0
 26 45  1  0
 27 30  1  0
 28 25  1  0
 28 29  1  0
 29 27  2  0
 30 31  1  0
 31 32  2  0
 33 36  1  0
 33 32  1  0
 34 33  2  0
 35 34  1  0
 35 30  2  0
 36 37  1  0
 37 38  1  0
 38 39  2  0
 40 39  1  0
 40 44  1  0
 41 40  2  0
 42 37  2  0
 42 41  1  0
 43 42  1  0
 45 46  1  0
 46 49  1  0
 46 48  1  0
 47 45  2  0
 50 51  1  0
 50 25  1  0
 52 50  1  0
 54 57  1  0
 55 54  2  0
 55 58  1  0
 57 53  1  0
 57 56  2  0
 58 59  1  0
 58 56  1  0
 59 60  1  0
 61 63  1  0
 61 60  1  0
 62 73  2  0
 63 68  1  0
 64 72  1  0
 64 74  1  0
 65 71  1  0
 65 67  1  0
 66 72  1  0
 67 66  1  0
 68 67  2  0
 69 70  1  0
 69 63  2  0
 70 65  2  0
 71 64  1  0
 72 62  1  0
 74 76  2  0
 75 74  1  0
 77 75  1  0
 78 87  2  0
 78 83  1  0
 79 75  1  0
 79 83  1  0
 80 79  1  0
 81 82  1  0
 81 80  1  0
 82 78  1  0
 83 84  2  0
 84 85  1  0
 86 85  2  0
 87 86  1  0
 88 62  1  0
 88 89  1  0
 88 98  1  0
 89 92  1  0
 90 94  1  0
 90 89  1  0
 91 90  2  0
 94 93  1  0
 94 96  1  0
 96 97  1  0
 96 95  1  0
 98101  1  1
 98 99  1  0
100 98  1  0
M  ISO  4  15 100  23 100  60 101  61 101
M  END
>  <TORSDO>  (8) 
F 23

>  <SCORE>  (8) 
-5.800

>  <name>  (8) 
9

>  <ligand_id>  (8) 
9

>  <original_smiles>  (8) 
[H]c1c([H])c([H])c2c(c1[H])C([H])([H])C([H])([H])C([H])([H])C2([H])N([H])C(=O)C1([H])N(C(=O)C([H])(N([H])C(=O)C([H])(N([H])C([H])([H])[H])C([H])([H])[H])C(C([H])([H])[H])(C([H])([H])[H])C([H])([H])[H])C([H])([H])c2c([H])c(OC([H])([H])C([H])([H])n3c([H])c([H])c(C([H])([H])n4nc(C(C([H])([H])[H])(C([H])([H])[H])C([H])([H])[H])c([H])c4C(C([H])([H])[H])(C([H])([H])[H])C([H])(N([H])C(=O)N4C([H])([H])C([H])([H])C([H])([H])C([H])(n5nc(-c6c([H])c([H])c(Oc7c([H])c([H])c(F)c([H])c7F)c([H])c6[H])c(C(=O)N([H])[H])c5N([H])[H])C4([H])[H])C([H])([H])[H])c3[H])c([H])c([H])c2C1([H])[H]

>  <smiles>  (8) 
[H]c1c([H])c([H])c2c(c1[H])C([H])([H])C([H])([H])C([H])([H])C2([H])N([H])C(=O)C1([H])N(C(=O)C([H])(N([H])C(=O)C([H])(N([H])C([H])([H])[H])C([H])([H])[H])C(C([H])([H])[H])(C([H])([H])[H])C([H])([H])[H])C([H])([H])c2c([H])c(OC([H])([H])C([H])([H])n3c([H])c([H])c(C([H])([H])n4nc(C(C([H])([H])[H])(C([H])([H])[H])C([H])([H])[H])c([H])c4C(C([H])([H])[H])(C([H])([H])[H])C([H])(N([H])C(=O)N4C([H])([H])C([H])([H])C([H])([H])C([H])(n5nc(-c6c([H])c([H])c(Oc7c([H])c([H])c(F)c([H])c7F)c([H])c6[H])c(C(=O)N([H])[H])c5N([H])[H])C4([H])[H])C([H])([H])[H])c3[H])c([H])c([H])c2C1([H])[H]

$$$$
10:0:0
     RDKit          3D

 99107  0  0  1  0  0  0  0  0999 V2000
  -29.0500  -20.3400   19.7180 C   0  0  0  0  0  3  0  0  0  0  0  0
  -30.1340  -21.1030   20.0580 C   0  0  0  0  0  0  0  0  0  0  0  0
  -30.5680  -18.9640   20.5880 C   0  0  0  0  0  3  0  0  0  0  0  0
  -31.0710  -20.2260   20.5850 N   0  0  0  0  0  0  0  0  0  0  0  0
  -29.3410  -19.0640   20.0660 N   0  0  0  0  0  0  0  0  0  0  0  0
  -28.7150  -18.2810   19.9220 H   0  0  0  0  0  0  0  0  0  0  0  0
  -31.7540  -17.6140   22.3900 C   0  0  0  0  0  1  0  0  0  0  0  0
  -32.3520  -17.3620   19.9480 C   0  0  0  0  0  1  0  0  0  0  0  0
  -31.2020  -17.6180   20.9460 C   0  0  2  0  0  0  0  0  0  0  0  0
  -30.0870  -16.5020   20.8430 C   0  0  0  0  0  2  0  0  0  0  0  0
  -30.6780  -14.2780   19.9580 C   0  0  0  0  0  0  0  0  0  0  0  0
  -30.0420  -12.3120   18.6250 C   0  0  0  0  0  2  0  0  0  0  0  0
  -29.0000  -12.6530   17.5440 C   0  0  0  0  0  2  0  0  0  0  0  0
  -27.5780  -12.5230   18.1130 C   0  0  0  0  0  2  0  0  0  0  0  0
  -27.4060  -13.2800   19.4560 C   0  0  0  0  0  3  0  0  0  0  0  0
  -28.5570  -12.9650   20.4370 C   0  0  0  0  0  2  0  0  0  0  0  0
  -29.8510  -13.2130   19.7730 N   0  0  0  0  0  0  0  0  0  0  0  0
  -31.5680  -14.5490   19.1530 O   0  0  0  0  0  0  0  0  0  0  0  0
  -30.7170  -14.6040   22.3800 C   0  0  0  0  0  1  0  0  0  0  0  0
  -30.4430  -15.0780   21.0200 N   0  0  0  0  0  0  0  0  0  0  0  0
  -25.0810  -13.8880   20.3830 C   0  0  0  0  0  0  0  0  0  0  0  0
  -24.0470  -13.1170   20.8460 C   0  0  0  0  0  0  0  0  0  0  0  0
  -24.4990  -11.7640   20.7670 C   0  0  0  0  0  0  0  0  0  0  0  0
  -26.0990  -13.0070   20.0550 N   0  0  0  0  0  0  0  0  0  0  0  0
  -25.7560  -11.7240   20.3420 N   0  0  0  0  0  0  0  0  0  0  0  0
  -23.7900  -10.5020   21.0160 C   0  0  0  0  0  0  0  0  0  0  0  0
  -24.2910   -9.5380   21.9190 C   0  0  0  0  0  3  0  0  0  0  0  0
  -23.5790   -8.3430   22.1570 C   0  0  0  0  0  3  0  0  0  0  0  0
  -22.3540   -8.1010   21.4910 C   0  0  0  0  0  0  0  0  0  0  0  0
  -21.8720   -9.0530   20.5770 C   0  0  0  0  0  3  0  0  0  0  0  0
  -22.5840  -10.2410   20.3370 C   0  0  0  0  0  3  0  0  0  0  0  0
  -21.6100   -6.9550   21.6370 O   0  0  0  0  0  0  0  0  0  0  0  0
  -21.6350   -6.2230   22.7970 C   0  0  0  0  0  0  0  0  0  0  0  0
  -21.3000   -6.7930   24.0450 C   0  0  0  0  0  3  0  0  0  0  0  0
  -21.2710   -5.9890   25.2020 C   0  0  0  0  0  3  0  0  0  0  0  0
  -21.5660   -4.6150   25.1140 C   0  0  0  0  0  0  0  0  0  0  0  0
  -21.8930   -4.0440   23.8700 C   0  0  0  0  0  3  0  0  0  0  0  0
  -21.9240   -4.8460   22.7160 C   0  0  0  0  0  0  0  0  0  0  0  0
  -22.2200   -4.2860   21.5180 F   0  0  0  0  0  0  0  0  0  0  0  0
  -21.5310   -3.8400   26.2230 F   0  0  0  0  0  0  0  0  0  0  0  0
  -22.6810  -13.5980   21.2470 C   0  0  0  0  0  0  0  0  0  0  0  0
  -22.0400  -12.9080   22.1830 N   0  0  0  0  0  0  0  0  0  0  0  0
  -22.1960  -14.6200   20.7650 O   0  0  0  0  0  0  0  0  0  0  0  0
  -22.4500  -12.0830   22.5960 H   0  0  0  0  0  0  0  0  0  0  0  0
  -21.1270  -13.2110   22.4920 H   0  0  0  0  0  0  0  0  0  0  0  0
  -25.2310  -15.2590   20.2000 N   0  0  0  0  0  0  0  0  0  0  0  0
  -24.4770  -15.9130   20.3810 H   0  0  0  0  0  0  0  0  0  0  0  0
  -26.0550  -15.6980   19.8100 H   0  0  0  0  0  0  0  0  0  0  0  0
  -32.4780  -21.1490   22.4640 C   0  0  0  0  0  1  0  0  0  0  0  0
  -32.4330  -20.6010   21.0310 C   0  0  0  0  0  2  0  0  0  0  0  0
  -30.3460  -22.5780   19.8440 C   0  0  0  0  0  3  0  0  0  0  0  0
  -27.8420  -23.2430   20.0660 C   0  0  0  0  0  1  0  0  0  0  0  0
  -29.2980  -23.1480   22.1140 C   0  0  0  0  0  1  0  0  0  0  0  0
  -29.2860  -23.4620   20.5980 C   0  0  1  0  0  0  0  0  0  0  0  0
  -29.6860  -24.9420   20.4120 C   0  0  0  0  0  2  0  0  0  0  0  0
  -28.7950  -25.9830   21.1040 C   0  0  0  0  0  2  0  0  0  0  0  0
  -28.4760  -26.8830   20.0740 O   0  0  0  0  0  0  0  0  0  0  0  0
  -24.5840  -31.8890   23.2540 C   0  0  0  0  0  0  0  0  0  0  0  0
  -27.2760  -27.5100   20.1990 C   0  0  0  0  0  0  0  0  0  0  0  0
  -23.3880  -30.4700   21.6160 C   0  0  0  0  0  3  0  0  0  0  0  0
  -24.8560  -28.9290   20.2160 C   0  0  0  0  0  0  0  0  0  0  0  0
  -25.9030  -30.8570   21.4190 C   0  0  0  0  0  2  0  0  0  0  0  0
  -26.0030  -29.4830   20.8030 C   0  0  0  0  0  0  0  0  0  0  0  0
  -27.2170  -28.7750   20.8040 C   0  0  0  0  0  3  0  0  0  0  0  0
  -26.1220  -26.9380   19.6260 C   0  0  0  0  0  3  0  0  0  0  0  0
  -24.9050  -27.6460   19.6390 C   0  0  0  0  0  3  0  0  0  0  0  0
  -23.6040  -29.7750   20.2430 C   0  0  0  0  0  2  0  0  0  0  0  0
  -24.6430  -31.0840   22.1560 N   0  0  0  0  0  0  0  0  0  0  0  0
  -23.5010  -32.1600   23.7880 O   0  0  0  0  0  0  0  0  0  0  0  0
  -22.7440  -29.4510   22.5780 C   0  0  0  0  0  0  0  0  0  0  0  0
  -21.4200  -29.2610   22.4460 N   0  0  0  0  0  0  0  0  0  0  0  0
  -23.4280  -28.8310   23.3970 O   0  0  0  0  0  0  0  0  0  0  0  0
  -20.9280  -29.8150   21.7580 H   0  0  0  0  0  0  0  0  0  0  0  0
  -18.0480  -28.0690   22.9300 C   0  0  0  0  0  0  0  0  0  0  0  0
  -20.6030  -28.3260   23.2160 C   0  0  0  0  0  3  0  0  0  0  0  0
  -20.7100  -26.8930   22.6460 C   0  0  0  0  0  2  0  0  0  0  0  0
  -19.6150  -26.5660   21.6270 C   0  0  0  0  0  2  0  0  0  0  0  0
  -18.2300  -26.7150   22.2620 C   0  0  0  0  0  2  0  0  0  0  0  0
  -19.1650  -28.8320   23.3630 C   0  0  0  0  0  0  0  0  0  0  0  0
  -18.9460  -30.1010   23.9420 C   0  0  0  0  0  3  0  0  0  0  0  0
  -17.6410  -30.6080   24.0940 C   0  0  0  0  0  3  0  0  0  0  0  0
  -16.5390  -29.8410   23.6800 C   0  0  0  0  0  3  0  0  0  0  0  0
  -16.7430  -28.5730   23.1050 C   0  0  0  0  0  3  0  0  0  0  0  0
  -25.8670  -32.5270   23.8730 C   0  0  0  0  0  3  0  0  0  0  0  0
  -25.5570  -33.9260   24.1900 N   0  0  0  0  0  0  0  0  0  0  0  0
  -25.8980  -34.9710   23.4220 C   0  0  0  0  0  0  0  0  0  0  0  0
  -26.5780  -34.8550   22.3980 O   0  0  0  0  0  0  0  0  0  0  0  0
  -24.9520  -34.0890   24.9810 H   0  0  0  0  0  0  0  0  0  0  0  0
  -24.1710  -36.7550   23.0280 C   0  0  0  0  0  1  0  0  0  0  0  0
  -25.4030  -36.3630   23.8580 C   0  0  0  0  0  3  0  0  0  0  0  0
  -27.5270  -37.2560   24.7030 C   0  0  0  0  0  1  0  0  0  0  0  0
  -26.4350  -37.4170   23.7470 N   0  0  0  0  0  0  0  0  0  0  0  0
  -26.0270  -38.3380   23.8860 H   0  0  0  0  0  0  0  0  0  0  0  0
  -26.3840  -31.7630   25.1540 C   0  0  1  0  0  0  0  0  0  0  0  0
  -25.2900  -31.5230   26.2210 C   0  0  0  0  0  1  0  0  0  0  0  0
  -26.9730  -30.3880   24.7630 C   0  0  0  0  0  1  0  0  0  0  0  0
  -27.5310  -32.5630   25.8130 C   0  0  0  0  0  1  0  0  0  0  0  0
  -31.5360  -21.9890   17.5950 C   0  0  0  0  0  1  0  0  0  0  0  0
  -30.5020  -22.8660   18.3220 C   0  0  0  0  0  2  0  0  0  0  0  0
  1  2  2  0
  1  5  1  0
  2  4  1  0
  3  9  1  0
  4  3  1  0
  4 50  1  0
  5  3  1  0
  6  5  1  0
  9  8  1  6
  9  7  1  0
 10  9  1  0
 10 20  1  0
 11 20  1  0
 12 17  1  0
 13 14  1  0
 13 12  1  0
 15 14  1  0
 15 24  1  0
 15 16  1  0
 17 11  1  0
 17 16  1  0
 18 11  2  0
 20 19  1  0
 21 22  2  0
 22 41  1  0
 23 22  1  0
 23 26  1  0
 24 25  1  0
 24 21  1  0
 25 23  2  0
 26 27  1  0
 27 28  2  0
 29 32  1  0
 29 28  1  0
 30 29  2  0
 31 30  1  0
 31 26  2  0
 32 33  1  0
 33 34  1  0
 34 35  2  0
 36 35  1  0
 36 40  1  0
 37 36  2  0
 38 33  2  0
 38 37  1  0
 39 38  1  0
 41 42  1  0
 42 45  1  0
 42 44  1  0
 43 41  2  0
 46 47  1  0
 46 21  1  0
 48 46  1  0
 50 49  1  0
 51 99  1  0
 51  2  1  0
 51 54  1  0
 54 52  1  6
 54 53  1  0
 55 54  1  0
 55 56  1  0
 57 59  1  0
 57 56  1  0
 58 69  2  0
 59 64  1  0
 60 68  1  0
 60 70  1  0
 61 67  1  0
 61 63  1  0
 62 68  1  0
 63 64  2  0
 63 62  1  0
 65 66  1  0
 65 59  2  0
 66 61  2  0
 67 60  1  0
 68 58  1  0
 70 72  2  0
 71 70  1  0
 73 71  1  0
 74 83  2  0
 74 79  1  0
 75 71  1  0
 75 79  1  0
 76 75  1  0
 77 78  1  0
 77 76  1  0
 78 74  1  0
 79 80  2  0
 80 81  1  0
 82 81  2  0
 83 82  1  0
 84 58  1  0
 84 85  1  0
 84 94  1  0
 85 88  1  0
 86 90  1  0
 86 85  1  0
 87 86  2  0
 90 89  1  0
 92 90  1  0
 92 93  1  0
 92 91  1  0
 94 97  1  1
 94 95  1  0
 96 94  1  0
 98 99  1  0
M  ISO  4  11 100  20 100  56 101  57 101
M  END
>  <TORSDO>  (9) 
F 24

>  <SCORE>  (9) 
-10.853

>  <name>  (9) 
10

>  <ligand_id>  (9) 
10

>  <original_smiles>  (9) 
[H]c1c([H])c([H])c2c(c1[H])C([H])([H])C([H])([H])C([H])([H])C2([H])N([H])C(=O)C1([H])N(C(=O)C([H])(N([H])C(=O)C([H])(N([H])C([H])([H])[H])C([H])([H])[H])C(C([H])([H])[H])(C([H])([H])[H])C([H])([H])[H])C([H])([H])c2c([H])c(OC([H])([H])C([H])([H])C(C([H])([H])[H])(C([H])([H])[H])C([H])(c3c([H])[n+]([H])c(C(C([H])([H])[H])(C([H])([H])[H])C([H])([H])N(C(=O)N4C([H])([H])C([H])([H])C([H])([H])C([H])(n5nc(-c6c([H])c([H])c(Oc7c([H])c([H])c(F)c([H])c7F)c([H])c6[H])c(C(=O)N([H])[H])c5N([H])[H])C4([H])[H])C([H])([H])[H])n3C([H])([H])C([H])([H])[H])C([H])([H])C([H])([H])[H])c([H])c([H])c2C1([H])[H]

>  <smiles>  (9) 
[H]c1c([H])c([H])c2c(c1[H])C([H])([H])C([H])([H])C([H])([H])C2([H])N([H])C(=O)C1([H])N(C(=O)C([H])(N([H])C(=O)C([H])(N([H])C([H])([H])[H])C([H])([H])[H])C(C([H])([H])[H])(C([H])([H])[H])C([H])([H])[H])C([H])([H])c2c([H])c(OC([H])([H])C([H])([H])C(C([H])([H])[H])(C([H])([H])[H])C([H])(c3c([H])[n+]([H])c(C(C([H])([H])[H])(C([H])([H])[H])C([H])([H])N(C(=O)N4C([H])([H])C([H])([H])C([H])([H])C([H])(n5nc(-c6c([H])c([H])c(Oc7c([H])c([H])c(F)c([H])c7F)c([H])c6[H])c(C(=O)N([H])[H])c5N([H])[H])C4([H])[H])C([H])([H])[H])n3C([H])([H])C([H])([H])[H])C([H])([H])C([H])([H])[H])c([H])c([H])c2C1([H])[H]

$$$$
11:0:0
     RDKit          3D

 90 98  0  0  1  0  0  0  0  0999 V2000
  -30.2680  -21.6570   20.6550 C   0  0  0  0  0  3  0  0  0  0  0  0
  -27.7900  -22.1950   19.8570 C   0  0  0  0  0  3  0  0  0  0  0  0
  -29.4430  -20.5180   20.3180 C   0  0  0  0  0  0  0  0  0  0  0  0
  -28.5920  -23.3320   20.2360 C   0  0  0  0  0  0  0  0  0  0  0  0
  -28.1820  -20.8590   19.9010 N   0  0  0  0  0  0  0  0  0  0  0  0
  -29.8690  -22.9980   20.6270 N   0  0  0  0  0  0  0  0  0  0  0  0
  -27.6780  -24.8800   22.0730 C   0  0  0  0  0  1  0  0  0  0  0  0
  -27.8820  -24.7870   20.5530 C   0  0  0  0  0  3  0  0  0  0  0  0
  -28.2960  -26.2170   20.1290 O   0  0  0  0  0  0  0  0  0  0  0  0
  -24.6110  -31.8450   23.1380 C   0  0  0  0  0  0  0  0  0  0  0  0
  -27.2610  -27.2160   20.0740 C   0  0  0  0  0  0  0  0  0  0  0  0
  -23.4410  -30.4580   21.4720 C   0  0  0  0  0  3  0  0  0  0  0  0
  -24.9180  -28.9250   20.0400 C   0  0  0  0  0  0  0  0  0  0  0  0
  -25.9930  -30.7550   21.3370 C   0  0  0  0  0  2  0  0  0  0  0  0
  -26.0860  -29.3750   20.6700 C   0  0  0  0  0  0  0  0  0  0  0  0
  -27.2630  -28.5360   20.6740 C   0  0  0  0  0  3  0  0  0  0  0  0
  -26.0760  -26.8780   19.3820 C   0  0  0  0  0  3  0  0  0  0  0  0
  -24.9240  -27.6890   19.3810 C   0  0  0  0  0  3  0  0  0  0  0  0
  -23.6810  -29.8040   20.0860 C   0  0  0  0  0  2  0  0  0  0  0  0
  -24.7010  -31.0400   22.0370 N   0  0  0  0  0  0  0  0  0  0  0  0
  -23.5170  -32.1140   23.6570 O   0  0  0  0  0  0  0  0  0  0  0  0
  -22.7640  -29.4310   22.4140 C   0  0  0  0  0  0  0  0  0  0  0  0
  -21.4330  -29.2730   22.2940 N   0  0  0  0  0  0  0  0  0  0  0  0
  -23.4380  -28.7790   23.2150 O   0  0  0  0  0  0  0  0  0  0  0  0
  -20.9480  -29.8490   21.6220 H   0  0  0  0  0  0  0  0  0  0  0  0
  -18.0390  -28.1320   22.8400 C   0  0  0  0  0  0  0  0  0  0  0  0
  -20.6110  -28.3260   23.0500 C   0  0  0  0  0  3  0  0  0  0  0  0
  -20.6640  -26.9150   22.4210 C   0  0  0  0  0  2  0  0  0  0  0  0
  -19.5290  -26.6550   21.4250 C   0  0  0  0  0  2  0  0  0  0  0  0
  -18.1680  -26.8060   22.1090 C   0  0  0  0  0  2  0  0  0  0  0  0
  -19.1860  -28.8530   23.2680 C   0  0  0  0  0  0  0  0  0  0  0  0
  -19.0100  -30.0960   23.9150 C   0  0  0  0  0  3  0  0  0  0  0  0
  -17.7220  -30.6170   24.1350 C   0  0  0  0  0  3  0  0  0  0  0  0
  -16.5910  -29.8940   23.7220 C   0  0  0  0  0  3  0  0  0  0  0  0
  -16.7500  -28.6520   23.0800 C   0  0  0  0  0  3  0  0  0  0  0  0
  -25.8770  -32.4850   23.7840 C   0  0  0  0  0  3  0  0  0  0  0  0
  -26.3790  -31.7090   25.0640 C   0  0  1  0  0  0  0  0  0  0  0  0
  -25.2690  -31.4540   26.1110 C   0  0  0  0  0  1  0  0  0  0  0  0
  -26.9820  -30.3400   24.6760 C   0  0  0  0  0  1  0  0  0  0  0  0
  -27.5110  -32.5090   25.7500 C   0  0  0  0  0  1  0  0  0  0  0  0
  -25.5500  -33.8780   24.1250 N   0  0  0  0  0  0  0  0  0  0  0  0
  -25.8950  -34.9460   23.3940 C   0  0  0  0  0  0  0  0  0  0  0  0
  -26.5910  -34.8620   22.3790 O   0  0  0  0  0  0  0  0  0  0  0  0
  -24.9300  -34.0170   24.9120 H   0  0  0  0  0  0  0  0  0  0  0  0
  -24.1830  -36.7510   23.0130 C   0  0  0  0  0  1  0  0  0  0  0  0
  -25.3920  -36.3260   23.8630 C   0  0  0  0  0  3  0  0  0  0  0  0
  -27.4910  -37.1920   24.7980 C   0  0  0  0  0  1  0  0  0  0  0  0
  -26.4290  -37.3800   23.8130 N   0  0  0  0  0  0  0  0  0  0  0  0
  -26.0180  -38.2980   23.9600 H   0  0  0  0  0  0  0  0  0  0  0  0
  -29.7960  -18.9710   20.7550 C   0  0  0  0  0  2  0  0  0  0  0  0
  -30.7350  -17.8250   18.5710 C   0  0  0  0  0  1  0  0  0  0  0  0
  -29.8880  -17.5800   19.8290 C   0  0  0  0  0  3  0  0  0  0  0  0
  -30.7910  -14.9640   19.9850 C   0  0  0  0  0  0  0  0  0  0  0  0
  -30.5460  -12.6650   18.9490 C   0  0  0  0  0  2  0  0  0  0  0  0
  -29.5440  -12.7080   17.7730 C   0  0  0  0  0  2  0  0  0  0  0  0
  -28.1000  -12.5100   18.2720 C   0  0  0  0  0  2  0  0  0  0  0  0
  -27.7870  -13.3750   19.5210 C   0  0  0  0  0  3  0  0  0  0  0  0
  -28.9070  -13.2930   20.5790 C   0  0  0  0  0  2  0  0  0  0  0  0
  -30.1570  -13.7200   19.9300 N   0  0  0  0  0  0  0  0  0  0  0  0
  -31.9030  -15.0500   19.4530 O   0  0  0  0  0  0  0  0  0  0  0  0
  -29.8630  -16.1700   21.8970 C   0  0  0  0  0  1  0  0  0  0  0  0
  -30.1200  -16.1350   20.4520 N   0  0  0  0  0  0  0  0  0  0  0  0
  -25.4630  -13.9470   20.4300 C   0  0  0  0  0  0  0  0  0  0  0  0
  -24.4170  -13.1690   20.8420 C   0  0  0  0  0  0  0  0  0  0  0  0
  -24.8620  -11.8170   20.7310 C   0  0  0  0  0  0  0  0  0  0  0  0
  -26.4780  -13.0710   20.0890 N   0  0  0  0  0  0  0  0  0  0  0  0
  -26.1300  -11.7800   20.3340 N   0  0  0  0  0  0  0  0  0  0  0  0
  -24.1350  -10.5550   20.9240 C   0  0  0  0  0  0  0  0  0  0  0  0
  -24.5590   -9.5930   21.8690 C   0  0  0  0  0  3  0  0  0  0  0  0
  -23.8320   -8.3980   22.0500 C   0  0  0  0  0  3  0  0  0  0  0  0
  -22.6660   -8.1530   21.2850 C   0  0  0  0  0  0  0  0  0  0  0  0
  -22.2610   -9.1020   20.3300 C   0  0  0  0  0  3  0  0  0  0  0  0
  -22.9890  -10.2900   20.1480 C   0  0  0  0  0  3  0  0  0  0  0  0
  -21.9110   -7.0080   21.3730 O   0  0  0  0  0  0  0  0  0  0  0  0
  -21.7730   -6.3270   22.5560 C   0  0  0  0  0  0  0  0  0  0  0  0
  -21.2270   -6.9350   23.7080 C   0  0  0  0  0  3  0  0  0  0  0  0
  -21.0390   -6.1800   24.8820 C   0  0  0  0  0  3  0  0  0  0  0  0
  -21.3850   -4.8150   24.9040 C   0  0  0  0  0  0  0  0  0  0  0  0
  -21.9220   -4.2060   23.7580 C   0  0  0  0  0  3  0  0  0  0  0  0
  -22.1140   -4.9600   22.5860 C   0  0  0  0  0  0  0  0  0  0  0  0
  -22.6110   -4.3620   21.4770 F   0  0  0  0  0  0  0  0  0  0  0  0
  -21.1970   -4.0870   26.0290 F   0  0  0  0  0  0  0  0  0  0  0  0
  -23.0470  -13.6490   21.2240 C   0  0  0  0  0  0  0  0  0  0  0  0
  -22.3690  -12.9300   22.1130 N   0  0  0  0  0  0  0  0  0  0  0  0
  -22.5870  -14.6950   20.7680 O   0  0  0  0  0  0  0  0  0  0  0  0
  -22.7530  -12.0820   22.5010 H   0  0  0  0  0  0  0  0  0  0  0  0
  -21.4520  -13.2330   22.4080 H   0  0  0  0  0  0  0  0  0  0  0  0
  -25.6300  -15.3220   20.2910 N   0  0  0  0  0  0  0  0  0  0  0  0
  -24.8860  -15.9810   20.4880 H   0  0  0  0  0  0  0  0  0  0  0  0
  -26.4650  -15.7610   19.9250 H   0  0  0  0  0  0  0  0  0  0  0  0
  2  5  2  0
  2  4  1  0
  3  1  2  0
  3 50  1  0
  4  8  1  0
  4  6  2  0
  5  3  1  0
  6  1  1  0
  8  7  1  0
  9  8  1  0
 10 21  2  0
 11  9  1  0
 11 16  1  0
 12 20  1  0
 12 22  1  0
 13 19  1  0
 13 15  1  0
 14 20  1  0
 15 16  2  0
 15 14  1  0
 17 11  2  0
 18 17  1  0
 18 13  2  0
 19 12  1  0
 20 10  1  0
 22 24  2  0
 23 22  1  0
 25 23  1  0
 26 35  2  0
 26 31  1  0
 27 23  1  0
 27 31  1  0
 28 27  1  0
 29 30  1  0
 29 28  1  0
 30 26  1  0
 31 32  2  0
 32 33  1  0
 34 33  2  0
 35 34  1  0
 36 10  1  0
 36 41  1  0
 36 37  1  0
 37 40  1  1
 37 38  1  0
 39 37  1  0
 41 44  1  0
 42 46  1  0
 42 41  1  0
 43 42  2  0
 46 45  1  0
 48 46  1  0
 48 49  1  0
 48 47  1  0
 52 51  1  0
 52 62  1  0
 52 50  1  0
 53 62  1  0
 54 59  1  0
 55 56  1  0
 55 54  1  0
 57 56  1  0
 57 66  1  0
 57 58  1  0
 59 53  1  0
 59 58  1  0
 60 53  2  0
 62 61  1  0
 63 64  2  0
 64 83  1  0
 65 64  1  0
 65 68  1  0
 66 67  1  0
 66 63  1  0
 67 65  2  0
 68 69  1  0
 69 70  2  0
 71 74  1  0
 71 70  1  0
 72 71  2  0
 73 72  1  0
 73 68  2  0
 74 75  1  0
 75 80  2  0
 75 76  1  0
 76 77  2  0
 77 78  1  0
 78 82  1  0
 79 78  2  0
 80 79  1  0
 81 80  1  0
 83 84  1  0
 84 87  1  0
 84 86  1  0
 85 83  2  0
 88 63  1  0
 88 89  1  0
 90 88  1  0
M  ISO  4   8 101   9 101  53 100  62 100
M  END
>  <TORSDO>  (10) 
F 19

>  <SCORE>  (10) 
-13.885

>  <name>  (10) 
11

>  <ligand_id>  (10) 
11

>  <original_smiles>  (10) 
[H]c1nc(C([H])(Oc2c([H])c([H])c3c(c2[H])C([H])([H])N(C(=O)C([H])(N([H])C(=O)C([H])(N([H])C([H])([H])[H])C([H])([H])[H])C(C([H])([H])[H])(C([H])([H])[H])C([H])([H])[H])C([H])(C(=O)N([H])C2([H])c4c([H])c([H])c([H])c([H])c4C([H])([H])C([H])([H])C2([H])[H])C3([H])[H])C([H])([H])[H])c([H])nc1C([H])([H])C([H])(N(C(=O)N1C([H])([H])C([H])([H])C([H])([H])C([H])(n2nc(-c3c([H])c([H])c(Oc4c([H])c([H])c(F)c([H])c4F)c([H])c3[H])c(C(=O)N([H])[H])c2N([H])[H])C1([H])[H])C([H])([H])[H])C([H])([H])[H]

>  <smiles>  (10) 
[H]c1nc(C([H])(Oc2c([H])c([H])c3c(c2[H])C([H])([H])N(C(=O)C([H])(N([H])C(=O)C([H])(N([H])C([H])([H])[H])C([H])([H])[H])C(C([H])([H])[H])(C([H])([H])[H])C([H])([H])[H])C([H])(C(=O)N([H])C2([H])c4c([H])c([H])c([H])c([H])c4C([H])([H])C([H])([H])C2([H])[H])C3([H])[H])C([H])([H])[H])c([H])nc1C([H])([H])C([H])(N(C(=O)N1C([H])([H])C([H])([H])C([H])([H])C([H])(n2nc(-c3c([H])c([H])c(Oc4c([H])c([H])c(F)c([H])c4F)c([H])c3[H])c(C(=O)N([H])[H])c2N([H])[H])C1([H])[H])C([H])([H])[H])C([H])([H])[H]

$$$$
12:0:0
     RDKit          3D

 92100  0  0  1  0  0  0  0  0999 V2000
  -30.0920  -19.3570   21.6090 C   0  0  0  0  0  3  0  0  0  0  0  0
  -29.0900  -20.0400   20.8830 C   0  0  0  0  0  0  0  0  0  0  0  0
  -28.4310  -19.2110   19.9480 C   0  0  0  0  0  0  0  0  0  0  0  0
  -29.8770  -17.4050   20.3530 C   0  0  0  0  0  0  0  0  0  0  0  0
  -30.4590  -18.0720   21.3580 N   0  0  0  0  0  0  0  0  0  0  0  0
  -28.8380  -17.9400   19.6940 N   0  0  0  0  0  0  0  0  0  0  0  0
  -32.0640  -17.0670   19.2480 C   0  0  0  0  0  1  0  0  0  0  0  0
  -30.1960  -16.1160   18.1310 C   0  0  0  0  0  1  0  0  0  0  0  0
  -30.7310  -16.3120   19.5800 C   0  0  2  0  0  0  0  0  0  0  0  0
  -31.1380  -14.8850   20.2520 C   0  0  0  0  0  0  0  0  0  0  0  0
  -30.7830  -12.5850   19.4180 C   0  0  0  0  0  2  0  0  0  0  0  0
  -29.8700  -12.5600   18.1780 C   0  0  0  0  0  2  0  0  0  0  0  0
  -28.3880  -12.5020   18.5860 C   0  0  0  0  0  2  0  0  0  0  0  0
  -28.0110  -13.4600   19.7490 C   0  0  0  0  0  3  0  0  0  0  0  0
  -29.0690  -13.4940   20.8680 C   0  0  0  0  0  2  0  0  0  0  0  0
  -30.3740  -13.7400   20.2440 N   0  0  0  0  0  0  0  0  0  0  0  0
  -32.3530  -14.7260   20.3670 O   0  0  0  0  0  0  0  0  0  0  0  0
  -25.6400  -14.1210   20.4460 C   0  0  0  0  0  0  0  0  0  0  0  0
  -24.5490  -13.3770   20.7990 C   0  0  0  0  0  0  0  0  0  0  0  0
  -24.9820  -12.0150   20.7990 C   0  0  0  0  0  0  0  0  0  0  0  0
  -26.6660  -13.2120   20.2460 N   0  0  0  0  0  0  0  0  0  0  0  0
  -26.2780  -11.9420   20.5270 N   0  0  0  0  0  0  0  0  0  0  0  0
  -24.2260  -10.7720   20.9860 C   0  0  0  0  0  0  0  0  0  0  0  0
  -24.6110   -9.8090   21.9450 C   0  0  0  0  0  3  0  0  0  0  0  0
  -23.8540   -8.6300   22.1190 C   0  0  0  0  0  3  0  0  0  0  0  0
  -22.7010   -8.4060   21.3310 C   0  0  0  0  0  0  0  0  0  0  0  0
  -22.3370   -9.3550   20.3600 C   0  0  0  0  0  3  0  0  0  0  0  0
  -23.0940  -10.5240   20.1850 C   0  0  0  0  0  3  0  0  0  0  0  0
  -21.9170   -7.2800   21.4140 O   0  0  0  0  0  0  0  0  0  0  0  0
  -21.8080   -6.5640   22.5790 C   0  0  0  0  0  0  0  0  0  0  0  0
  -21.3390   -7.1550   23.7730 C   0  0  0  0  0  3  0  0  0  0  0  0
  -21.1770   -6.3680   24.9310 C   0  0  0  0  0  3  0  0  0  0  0  0
  -21.4730   -4.9920   24.8940 C   0  0  0  0  0  0  0  0  0  0  0  0
  -21.9350   -4.4010   23.7050 C   0  0  0  0  0  3  0  0  0  0  0  0
  -22.0990   -5.1850   22.5490 C   0  0  0  0  0  0  0  0  0  0  0  0
  -22.5260   -4.6070   21.4020 F   0  0  0  0  0  0  0  0  0  0  0  0
  -21.3100   -4.2350   26.0040 F   0  0  0  0  0  0  0  0  0  0  0  0
  -23.1570  -13.8870   21.0290 C   0  0  0  0  0  0  0  0  0  0  0  0
  -22.3950  -13.2250   21.8900 N   0  0  0  0  0  0  0  0  0  0  0  0
  -22.7540  -14.9120   20.4800 O   0  0  0  0  0  0  0  0  0  0  0  0
  -22.7310  -12.3910   22.3480 H   0  0  0  0  0  0  0  0  0  0  0  0
  -21.4610  -13.5530   22.0950 H   0  0  0  0  0  0  0  0  0  0  0  0
  -25.8410  -15.4860   20.2540 N   0  0  0  0  0  0  0  0  0  0  0  0
  -25.0850  -16.1580   20.3330 H   0  0  0  0  0  0  0  0  0  0  0  0
  -26.7150  -15.9090   19.9610 H   0  0  0  0  0  0  0  0  0  0  0  0
  -27.5950  -20.0140   17.6900 C   0  0  0  0  0  1  0  0  0  0  0  0
  -27.2310  -19.6780   19.1410 C   0  0  0  0  0  2  0  0  0  0  0  0
  -28.6800  -21.5170   21.2310 C   0  0  0  0  0  3  0  0  0  0  0  0
  -28.9500  -22.6910   20.2030 C   0  0  0  0  0  3  0  0  0  0  0  0
  -28.5210  -24.1490   20.6710 C   0  0  0  0  0  3  0  0  0  0  0  0
  -28.7450  -25.3370   19.6540 C   0  0  0  0  0  3  0  0  0  0  0  0
  -28.6170  -26.7120   20.1540 O   0  0  0  0  0  0  0  0  0  0  0  0
  -24.6680  -31.8670   23.1830 C   0  0  0  0  0  0  0  0  0  0  0  0
  -27.4290  -27.4430   20.1020 C   0  0  0  0  0  0  0  0  0  0  0  0
  -23.5120  -30.4630   21.5100 C   0  0  0  0  0  3  0  0  0  0  0  0
  -25.0140  -28.9620   20.0880 C   0  0  0  0  0  0  0  0  0  0  0  0
  -26.0410  -30.8540   21.3540 C   0  0  0  0  0  2  0  0  0  0  0  0
  -26.1590  -29.4870   20.6960 C   0  0  0  0  0  0  0  0  0  0  0  0
  -27.3670  -28.7390   20.6910 C   0  0  0  0  0  3  0  0  0  0  0  0
  -26.2550  -26.9490   19.4890 C   0  0  0  0  0  3  0  0  0  0  0  0
  -25.0610  -27.6960   19.4780 C   0  0  0  0  0  3  0  0  0  0  0  0
  -23.7570  -29.8030   20.1270 C   0  0  0  0  0  2  0  0  0  0  0  0
  -24.7590  -31.0790   22.0740 N   0  0  0  0  0  0  0  0  0  0  0  0
  -23.5750  -32.1150   23.7110 O   0  0  0  0  0  0  0  0  0  0  0  0
  -22.8650  -29.4220   22.4510 C   0  0  0  0  0  0  0  0  0  0  0  0
  -21.5400  -29.2390   22.3290 N   0  0  0  0  0  0  0  0  0  0  0  0
  -23.5550  -28.7790   23.2470 O   0  0  0  0  0  0  0  0  0  0  0  0
  -21.0430  -29.8170   21.6670 H   0  0  0  0  0  0  0  0  0  0  0  0
  -18.1680  -28.0430   22.8530 C   0  0  0  0  0  0  0  0  0  0  0  0
  -20.7330  -28.2790   23.0820 C   0  0  0  0  0  3  0  0  0  0  0  0
  -20.8140  -26.8670   22.4580 C   0  0  0  0  0  2  0  0  0  0  0  0
  -19.6920  -26.5850   21.4530 C   0  0  0  0  0  2  0  0  0  0  0  0
  -18.3230  -26.7170   22.1270 C   0  0  0  0  0  2  0  0  0  0  0  0
  -19.3000  -28.7840   23.2870 C   0  0  0  0  0  0  0  0  0  0  0  0
  -19.1010  -30.0270   23.9250 C   0  0  0  0  0  3  0  0  0  0  0  0
  -17.8040  -30.5300   24.1330 C   0  0  0  0  0  3  0  0  0  0  0  0
  -16.6860  -29.7880   23.7150 C   0  0  0  0  0  3  0  0  0  0  0  0
  -16.8700  -28.5460   23.0800 C   0  0  0  0  0  3  0  0  0  0  0  0
  -25.9320  -32.5200   23.8290 C   0  0  0  0  0  3  0  0  0  0  0  0
  -25.5950  -33.9130   24.1570 N   0  0  0  0  0  0  0  0  0  0  0  0
  -25.9210  -34.9730   23.4050 C   0  0  0  0  0  0  0  0  0  0  0  0
  -26.6080  -34.8820   22.3840 O   0  0  0  0  0  0  0  0  0  0  0  0
  -24.9860  -34.0550   24.9500 H   0  0  0  0  0  0  0  0  0  0  0  0
  -24.1700  -36.7410   23.0280 C   0  0  0  0  0  1  0  0  0  0  0  0
  -25.4030  -36.3510   23.8590 C   0  0  0  0  0  3  0  0  0  0  0  0
  -27.5080  -37.2690   24.7310 C   0  0  0  0  0  1  0  0  0  0  0  0
  -26.4210  -37.4220   23.7670 N   0  0  0  0  0  0  0  0  0  0  0  0
  -25.9980  -38.3340   23.9120 H   0  0  0  0  0  0  0  0  0  0  0  0
  -26.4410  -31.7540   25.1120 C   0  0  1  0  0  0  0  0  0  0  0  0
  -25.3350  -31.4960   26.1620 C   0  0  0  0  0  1  0  0  0  0  0  0
  -27.0520  -30.3880   24.7250 C   0  0  0  0  0  1  0  0  0  0  0  0
  -27.5680  -32.5670   25.7940 C   0  0  0  0  0  1  0  0  0  0  0  0
  2 48  1  0
  2  1  2  0
  3  2  1  0
  4  5  2  0
  5  1  1  0
  6  3  2  0
  6  4  1  0
  9  7  1  6
  8  9  1  0
  9 10  1  0
  9  4  1  0
 10 17  2  0
 11 16  1  0
 12 13  1  0
 12 11  1  0
 14 13  1  0
 14 21  1  0
 14 15  1  0
 16 10  1  0
 16 15  1  0
 18 19  2  0
 19 38  1  0
 20 19  1  0
 20 23  1  0
 21 18  1  0
 21 22  1  0
 22 20  2  0
 23 24  1  0
 24 25  2  0
 26 29  1  0
 26 25  1  0
 27 26  2  0
 28 27  1  0
 28 23  2  0
 29 30  1  0
 30 31  1  0
 31 32  2  0
 33 32  1  0
 33 37  1  0
 34 33  2  0
 35 30  2  0
 35 34  1  0
 36 35  1  0
 38 39  1  0
 39 42  1  0
 39 41  1  0
 40 38  2  0
 43 44  1  0
 43 18  1  0
 45 43  1  0
 46 47  1  0
 47  3  1  0
 49 50  1  0
 49 48  2  0
 51 52  1  0
 51 50  2  0
 53 64  2  0
 54 52  1  0
 54 59  1  0
 55 63  1  0
 55 65  1  0
 56 62  1  0
 56 58  1  0
 57 63  1  0
 58 57  1  0
 59 58  2  0
 60 54  2  0
 61 60  1  0
 61 56  2  0
 62 55  1  0
 63 53  1  0
 65 67  2  0
 66 65  1  0
 68 66  1  0
 69 78  2  0
 69 74  1  0
 70 66  1  0
 70 74  1  0
 71 70  1  0
 72 73  1  0
 72 71  1  0
 73 69  1  0
 74 75  2  0
 75 76  1  0
 77 76  2  0
 78 77  1  0
 79 53  1  0
 79 80  1  0
 79 89  1  0
 80 83  1  0
 81 85  1  0
 81 80  1  0
 82 81  2  0
 85 84  1  0
 87 85  1  0
 87 88  1  0
 87 86  1  0
 89 92  1  1
 89 90  1  0
 91 89  1  0
M  ISO  4   9 100  10 100  51 101  52 101
M  END
>  <TORSDO>  (11) 
F 22

>  <SCORE>  (11) 
-12.473

>  <name>  (11) 
12

>  <ligand_id>  (11) 
12

>  <original_smiles>  (11) 
[H]c1nc(C(C(=O)N2C([H])([H])C([H])([H])C([H])([H])C([H])(n3nc(-c4c([H])c([H])c(Oc5c([H])c([H])c(F)c([H])c5F)c([H])c4[H])c(C(=O)N([H])[H])c3N([H])[H])C2([H])[H])(C([H])([H])[H])C([H])([H])[H])nc(C([H])([H])C([H])([H])[H])c1C([H])([H])C([H])([H])C([H])([H])C([H])([H])Oc1c([H])c([H])c2c(c1[H])C([H])([H])N(C(=O)C([H])(N([H])C(=O)C([H])(N([H])C([H])([H])[H])C([H])([H])[H])C(C([H])([H])[H])(C([H])([H])[H])C([H])([H])[H])C([H])(C(=O)N([H])C1([H])c3c([H])c([H])c([H])c([H])c3C([H])([H])C([H])([H])C1([H])[H])C2([H])[H]

>  <smiles>  (11) 
[H]c1nc(C(C(=O)N2C([H])([H])C([H])([H])C([H])([H])C([H])(n3nc(-c4c([H])c([H])c(Oc5c([H])c([H])c(F)c([H])c5F)c([H])c4[H])c(C(=O)N([H])[H])c3N([H])[H])C2([H])[H])(C([H])([H])[H])C([H])([H])[H])nc(C([H])([H])C([H])([H])[H])c1C([H])([H])C([H])([H])C([H])([H])C([H])([H])Oc1c([H])c([H])c2c(c1[H])C([H])([H])N(C(=O)C([H])(N([H])C(=O)C([H])(N([H])C([H])([H])[H])C([H])([H])[H])C(C([H])([H])[H])(C([H])([H])[H])C([H])([H])[H])C([H])(C(=O)N([H])C1([H])c3c([H])c([H])c([H])c([H])c3C([H])([H])C([H])([H])C1([H])[H])C2([H])[H]

$$$$
13:0:0
     RDKit          3D

 93102  0  0  1  0  0  0  0  0999 V2000
  -28.1060  -22.7340   21.2320 C   0  0  0  0  0  3  0  0  0  0  0  0
  -27.7530  -24.1430   21.1010 C   0  0  0  0  0  0  0  0  0  0  0  0
  -29.1690  -22.1080   20.4850 C   0  0  0  0  0  3  0  0  0  0  0  0
  -28.4330  -24.9980   20.1710 C   0  0  0  0  0  0  0  0  0  0  0  0
  -26.7130  -24.7260   22.0400 C   0  0  0  0  0  1  0  0  0  0  0  0
  -29.7460  -22.9970   19.5870 N   0  0  0  0  0  2  0  0  0  0  0  0
  -29.4080  -24.3300   19.4460 N   0  0  0  0  0  0  0  0  0  0  0  0
  -30.0100  -20.7750   22.5060 C   0  0  0  0  0  1  0  0  0  0  0  0
  -31.4420  -20.9130   20.5100 C   0  0  0  0  0  1  0  0  0  0  0  0
  -29.9760  -20.7100   20.9600 C   0  0  2  0  0  0  0  0  0  0  0  0
  -30.5110  -17.9160   21.0790 C   0  0  0  0  0  3  0  0  0  0  0  0
  -29.9740  -16.7100   20.5840 C   0  0  0  0  0  0  0  0  0  0  0  0
  -29.7040  -19.0960   20.6650 C   0  0  0  0  0  0  0  0  0  0  0  0
  -28.0270  -16.5090   18.9050 C   0  0  0  0  0  1  0  0  0  0  0  0
  -28.7150  -18.5860   19.9280 N   0  0  0  0  0  0  0  0  0  0  0  0
  -28.8950  -17.2070   19.8340 N   0  0  0  0  0  0  0  0  0  0  0  0
  -30.6570  -15.2340   20.5320 C   0  0  0  0  0  0  0  0  0  0  0  0
  -30.5270  -12.8890   19.5710 C   0  0  0  0  0  2  0  0  0  0  0  0
  -29.6400  -12.8430   18.3060 C   0  0  0  0  0  2  0  0  0  0  0  0
  -28.1580  -12.6520   18.6850 C   0  0  0  0  0  2  0  0  0  0  0  0
  -27.7140  -13.5550   19.8660 C   0  0  0  0  0  3  0  0  0  0  0  0
  -28.7360  -13.5890   21.0160 C   0  0  0  0  0  2  0  0  0  0  0  0
  -30.0260  -13.9890   20.4480 N   0  0  0  0  0  0  0  0  0  0  0  0
  -31.8840  -15.2080   20.3830 O   0  0  0  0  0  0  0  0  0  0  0  0
  -25.3060  -14.1150   20.5170 C   0  0  0  0  0  0  0  0  0  0  0  0
  -24.2370  -13.3300   20.8520 C   0  0  0  0  0  0  0  0  0  0  0  0
  -24.7210  -11.9860   20.8640 C   0  0  0  0  0  0  0  0  0  0  0  0
  -26.3680  -13.2470   20.3300 N   0  0  0  0  0  0  0  0  0  0  0  0
  -26.0250  -11.9630   20.6090 N   0  0  0  0  0  0  0  0  0  0  0  0
  -24.0070  -10.7160   21.0480 C   0  0  0  0  0  0  0  0  0  0  0  0
  -24.4260   -9.7680   22.0070 C   0  0  0  0  0  3  0  0  0  0  0  0
  -23.7140   -8.5610   22.1790 C   0  0  0  0  0  3  0  0  0  0  0  0
  -22.5690   -8.2940   21.3920 C   0  0  0  0  0  0  0  0  0  0  0  0
  -22.1690   -9.2330   20.4250 C   0  0  0  0  0  3  0  0  0  0  0  0
  -22.8810  -10.4310   20.2500 C   0  0  0  0  0  3  0  0  0  0  0  0
  -21.8300   -7.1390   21.4690 O   0  0  0  0  0  0  0  0  0  0  0  0
  -21.7630   -6.4030   22.6250 C   0  0  0  0  0  0  0  0  0  0  0  0
  -21.2590   -6.9470   23.8280 C   0  0  0  0  0  3  0  0  0  0  0  0
  -21.1430   -6.1340   24.9720 C   0  0  0  0  0  3  0  0  0  0  0  0
  -21.5240   -4.7800   24.9170 C   0  0  0  0  0  0  0  0  0  0  0  0
  -22.0210   -4.2360   23.7190 C   0  0  0  0  0  3  0  0  0  0  0  0
  -22.1370   -5.0460   22.5760 C   0  0  0  0  0  0  0  0  0  0  0  0
  -22.5970   -4.5120   21.4190 F   0  0  0  0  0  0  0  0  0  0  0  0
  -21.4060   -3.9980   26.0160 F   0  0  0  0  0  0  0  0  0  0  0  0
  -22.8220  -13.7900   21.0500 C   0  0  0  0  0  0  0  0  0  0  0  0
  -22.0670  -13.1020   21.8990 N   0  0  0  0  0  0  0  0  0  0  0  0
  -22.3920  -14.7950   20.4860 O   0  0  0  0  0  0  0  0  0  0  0  0
  -22.4280  -12.2900   22.3780 H   0  0  0  0  0  0  0  0  0  0  0  0
  -21.1150  -13.3950   22.0730 H   0  0  0  0  0  0  0  0  0  0  0  0
  -25.4600  -15.4860   20.3330 N   0  0  0  0  0  0  0  0  0  0  0  0
  -24.6880  -16.1340   20.4410 H   0  0  0  0  0  0  0  0  0  0  0  0
  -26.3290  -15.9450   20.0930 H   0  0  0  0  0  0  0  0  0  0  0  0
  -28.3710  -26.4670   20.0380 O   0  0  0  0  0  0  0  0  0  0  0  0
  -24.5980  -31.9500   23.2170 C   0  0  0  0  0  0  0  0  0  0  0  0
  -27.2420  -27.3570   20.0790 C   0  0  0  0  0  0  0  0  0  0  0  0
  -23.4030  -30.5530   21.5720 C   0  0  0  0  0  3  0  0  0  0  0  0
  -24.8630  -29.0290   20.1010 C   0  0  0  0  0  0  0  0  0  0  0  0
  -25.9420  -30.8850   21.3700 C   0  0  0  0  0  2  0  0  0  0  0  0
  -26.0360  -29.5020   20.7020 C   0  0  0  0  0  0  0  0  0  0  0  0
  -27.2220  -28.6810   20.6770 C   0  0  0  0  0  3  0  0  0  0  0  0
  -26.0420  -26.9790   19.4400 C   0  0  0  0  0  3  0  0  0  0  0  0
  -24.8760  -27.7800   19.4570 C   0  0  0  0  0  3  0  0  0  0  0  0
  -23.6170  -29.9000   20.1780 C   0  0  0  0  0  2  0  0  0  0  0  0
  -24.6670  -31.1510   22.1080 N   0  0  0  0  0  0  0  0  0  0  0  0
  -23.5170  -32.1990   23.7700 O   0  0  0  0  0  0  0  0  0  0  0  0
  -22.7660  -29.5150   22.5300 C   0  0  0  0  0  0  0  0  0  0  0  0
  -21.4420  -29.3110   22.4170 N   0  0  0  0  0  0  0  0  0  0  0  0
  -23.4660  -28.8960   23.3350 O   0  0  0  0  0  0  0  0  0  0  0  0
  -20.9320  -29.8640   21.7420 H   0  0  0  0  0  0  0  0  0  0  0  0
  -18.1070  -27.9950   22.9230 C   0  0  0  0  0  0  0  0  0  0  0  0
  -20.6560  -28.3430   23.1840 C   0  0  0  0  0  3  0  0  0  0  0  0
  -20.8050  -26.9190   22.6000 C   0  0  0  0  0  2  0  0  0  0  0  0
  -19.7110  -26.5660   21.5860 C   0  0  0  0  0  2  0  0  0  0  0  0
  -18.3270  -26.6590   22.2350 C   0  0  0  0  0  2  0  0  0  0  0  0
  -19.1990  -28.7930   23.3550 C   0  0  0  0  0  0  0  0  0  0  0  0
  -18.9380  -30.0420   23.9580 C   0  0  0  0  0  3  0  0  0  0  0  0
  -17.6160  -30.4940   24.1360 C   0  0  0  0  0  3  0  0  0  0  0  0
  -16.5390  -29.6940   23.7190 C   0  0  0  0  0  3  0  0  0  0  0  0
  -16.7840  -28.4480   23.1170 C   0  0  0  0  0  3  0  0  0  0  0  0
  -25.8730  -32.6040   23.8310 C   0  0  0  0  0  3  0  0  0  0  0  0
  -25.5500  -34.0020   24.1530 N   0  0  0  0  0  0  0  0  0  0  0  0
  -25.8970  -35.0600   23.4070 C   0  0  0  0  0  0  0  0  0  0  0  0
  -26.5900  -34.9610   22.3920 O   0  0  0  0  0  0  0  0  0  0  0  0
  -24.9360  -34.1520   24.9420 H   0  0  0  0  0  0  0  0  0  0  0  0
  -24.1910  -36.8650   23.0020 C   0  0  0  0  0  1  0  0  0  0  0  0
  -25.3970  -36.4460   23.8590 C   0  0  0  0  0  3  0  0  0  0  0  0
  -27.4950  -37.3210   24.7890 C   0  0  0  0  0  1  0  0  0  0  0  0
  -26.4360  -37.4970   23.7980 N   0  0  0  0  0  0  0  0  0  0  0  0
  -26.0260  -38.4180   23.9320 H   0  0  0  0  0  0  0  0  0  0  0  0
  -26.3960  -31.8520   25.1170 C   0  0  1  0  0  0  0  0  0  0  0  0
  -25.3010  -31.6070   26.1810 C   0  0  0  0  0  1  0  0  0  0  0  0
  -27.0060  -30.4810   24.7450 C   0  0  0  0  0  1  0  0  0  0  0  0
  -27.5280  -32.6710   25.7790 C   0  0  0  0  0  1  0  0  0  0  0  0
  2  1  2  0
  2  5  1  0
  3 10  1  0
  3  1  1  0
  4  2  1  0
  6  3  1  0
  7  6  1  0
  7  4  2  0
 10  9  1  6
 10  8  1  0
 12 11  2  0
 13 10  1  0
 13 11  1  0
 14 16  1  0
 15 13  2  0
 16 15  1  0
 16 12  1  0
 17 12  1  0
 18 23  1  0
 19 20  1  0
 19 18  1  0
 21 20  1  0
 21 28  1  0
 21 22  1  0
 23 17  1  0
 23 22  1  0
 24 17  2  0
 25 26  2  0
 26 27  1  0
 26 45  1  0
 27 30  1  0
 28 25  1  0
 28 29  1  0
 29 27  2  0
 30 31  1  0
 31 32  2  0
 33 36  1  0
 33 32  1  0
 34 33  2  0
 35 34  1  0
 35 30  2  0
 36 37  1  0
 37 38  1  0
 38 39  2  0
 40 39  1  0
 40 44  1  0
 41 40  2  0
 42 37  2  0
 42 41  1  0
 43 42  1  0
 45 46  1  0
 46 49  1  0
 46 48  1  0
 47 45  2  0
 50 51  1  0
 50 25  1  0
 52 50  1  0
 53 55  1  0
 53  4  1  0
 54 65  2  0
 55 60  1  0
 56 64  1  0
 56 66  1  0
 57 63  1  0
 57 59  1  0
 58 64  1  0
 59 58  1  0
 60 59  2  0
 61 62  1  0
 61 55  2  0
 62 57  2  0
 63 56  1  0
 64 54  1  0
 66 68  2  0
 67 66  1  0
 69 67  1  0
 70 79  2  0
 70 75  1  0
 71 67  1  0
 71 75  1  0
 72 71  1  0
 73 74  1  0
 73 72  1  0
 74 70  1  0
 75 76  2  0
 76 77  1  0
 78 77  2  0
 79 78  1  0
 80 54  1  0
 80 81  1  0
 80 90  1  0
 81 84  1  0
 82 86  1  0
 82 81  1  0
 83 82  2  0
 86 85  1  0
 88 86  1  0
 88 89  1  0
 88 87  1  0
 90 93  1  1
 90 91  1  0
 92 90  1  0
M  ISO  4   4 101  12 100  17 100  53 101
M  END
>  <TORSDO>  (12) 
F 18

>  <SCORE>  (12) 
-14.811

>  <name>  (12) 
13

>  <ligand_id>  (12) 
13

>  <original_smiles>  (12) 
[H]c1c([H])c([H])c2c(c1[H])C([H])([H])C([H])([H])C([H])([H])C2([H])N([H])C(=O)C1([H])N(C(=O)C([H])(N([H])C(=O)C([H])(N([H])C([H])([H])[H])C([H])([H])[H])C(C([H])([H])[H])(C([H])([H])[H])C([H])([H])[H])C([H])([H])c2c([H])c(Oc3nnc(C(c4nn(C([H])([H])[H])c(C(=O)N5C([H])([H])C([H])([H])C([H])([H])C([H])(n6nc(-c7c([H])c([H])c(Oc8c([H])c([H])c(F)c([H])c8F)c([H])c7[H])c(C(=O)N([H])[H])c6N([H])[H])C5([H])[H])c4[H])(C([H])([H])[H])C([H])([H])[H])c([H])c3C([H])([H])[H])c([H])c([H])c2C1([H])[H]

>  <smiles>  (12) 
[H]c1c([H])c([H])c2c(c1[H])C([H])([H])C([H])([H])C([H])([H])C2([H])N([H])C(=O)C1([H])N(C(=O)C([H])(N([H])C(=O)C([H])(N([H])C([H])([H])[H])C([H])([H])[H])C(C([H])([H])[H])(C([H])([H])[H])C([H])([H])[H])C([H])([H])c2c([H])c(Oc3nnc(C(c4nn(C([H])([H])[H])c(C(=O)N5C([H])([H])C([H])([H])C([H])([H])C([H])(n6nc(-c7c([H])c([H])c(Oc8c([H])c([H])c(F)c([H])c8F)c([H])c7[H])c(C(=O)N([H])[H])c6N([H])[H])C5([H])[H])c4[H])(C([H])([H])[H])C([H])([H])[H])c([H])c3C([H])([H])[H])c([H])c([H])c2C1([H])[H]

$$$$
14:0:0
     RDKit          3D

 95103  0  0  1  0  0  0  0  0999 V2000
  -30.7780  -19.2390   21.2790 C   0  0  0  0  0  3  0  0  0  0  0  0
  -30.2960  -20.5020   21.5210 C   0  0  0  0  0  0  0  0  0  0  0  0
  -29.1060  -20.5590   20.7150 C   0  0  0  0  0  0  0  0  0  0  0  0
  -28.9000  -19.3940   20.0860 N   0  0  0  0  0  0  0  0  0  0  0  0
  -29.9150  -18.5590   20.4540 N   0  0  0  0  0  0  0  0  0  0  0  0
  -32.2370  -20.9580   23.0730 C   0  0  0  0  0  1  0  0  0  0  0  0
  -29.9900  -21.8380   23.6330 C   0  0  0  0  0  1  0  0  0  0  0  0
  -30.9370  -21.5290   22.4590 C   0  0  2  0  0  0  0  0  0  0  0  0
  -32.0030  -22.6740   20.3740 C   0  0  0  0  0  1  0  0  0  0  0  0
  -31.2810  -22.8470   21.7230 C   0  0  0  0  0  2  0  0  0  0  0  0
  -29.0260  -16.8930   18.8140 C   0  0  0  0  0  1  0  0  0  0  0  0
  -30.0760  -17.1840   19.9100 C   0  0  0  0  0  3  0  0  0  0  0  0
  -30.8370  -16.3750   22.3040 C   0  0  0  0  0  1  0  0  0  0  0  0
  -30.1600  -16.0000   20.9690 C   0  0  0  0  0  3  0  0  0  0  0  0
  -30.8670  -14.7210   20.4030 C   0  0  0  0  0  0  0  0  0  0  0  0
  -30.5740  -12.5670   19.2300 C   0  0  0  0  0  2  0  0  0  0  0  0
  -29.6220  -12.7950   18.0370 C   0  0  0  0  0  2  0  0  0  0  0  0
  -28.1510  -12.6450   18.4760 C   0  0  0  0  0  2  0  0  0  0  0  0
  -27.8250  -13.4530   19.7610 C   0  0  0  0  0  3  0  0  0  0  0  0
  -28.8930  -13.2210   20.8530 C   0  0  0  0  0  2  0  0  0  0  0  0
  -30.2050  -13.5370   20.2740 N   0  0  0  0  0  0  0  0  0  0  0  0
  -32.0140  -14.8550   19.9650 O   0  0  0  0  0  0  0  0  0  0  0  0
  -25.4340  -14.0410   20.5010 C   0  0  0  0  0  0  0  0  0  0  0  0
  -24.3720  -13.2620   20.8670 C   0  0  0  0  0  0  0  0  0  0  0  0
  -24.8370  -11.9120   20.8210 C   0  0  0  0  0  0  0  0  0  0  0  0
  -26.4800  -13.1660   20.2510 N   0  0  0  0  0  0  0  0  0  0  0  0
  -26.1250  -11.8800   20.5030 N   0  0  0  0  0  0  0  0  0  0  0  0
  -24.1150  -10.6460   21.0020 C   0  0  0  0  0  0  0  0  0  0  0  0
  -24.5310   -9.6880   21.9530 C   0  0  0  0  0  3  0  0  0  0  0  0
  -23.8080   -8.4860   22.1220 C   0  0  0  0  0  3  0  0  0  0  0  0
  -22.6560   -8.2350   21.3390 C   0  0  0  0  0  0  0  0  0  0  0  0
  -22.2600   -9.1820   20.3780 C   0  0  0  0  0  3  0  0  0  0  0  0
  -22.9830  -10.3750   20.2080 C   0  0  0  0  0  3  0  0  0  0  0  0
  -21.9080   -7.0870   21.4160 O   0  0  0  0  0  0  0  0  0  0  0  0
  -21.8150   -6.3640   22.5790 C   0  0  0  0  0  0  0  0  0  0  0  0
  -21.2840   -6.9220   23.7620 C   0  0  0  0  0  3  0  0  0  0  0  0
  -21.1420   -6.1240   24.9150 C   0  0  0  0  0  3  0  0  0  0  0  0
  -21.5210   -4.7690   24.8840 C   0  0  0  0  0  0  0  0  0  0  0  0
  -22.0430   -4.2090   23.7050 C   0  0  0  0  0  3  0  0  0  0  0  0
  -22.1860   -5.0050   22.5540 C   0  0  0  0  0  0  0  0  0  0  0  0
  -22.6710   -4.4560   21.4150 F   0  0  0  0  0  0  0  0  0  0  0  0
  -21.3760   -4.0000   25.9880 F   0  0  0  0  0  0  0  0  0  0  0  0
  -22.9750  -13.7330   21.1570 C   0  0  0  0  0  0  0  0  0  0  0  0
  -22.2540  -13.0250   22.0190 N   0  0  0  0  0  0  0  0  0  0  0  0
  -22.5310  -14.7630   20.6510 O   0  0  0  0  0  0  0  0  0  0  0  0
  -22.6260  -12.1890   22.4470 H   0  0  0  0  0  0  0  0  0  0  0  0
  -21.3200  -13.3250   22.2580 H   0  0  0  0  0  0  0  0  0  0  0  0
  -25.5940  -15.4140   20.3370 N   0  0  0  0  0  0  0  0  0  0  0  0
  -24.8270  -16.0660   20.4620 H   0  0  0  0  0  0  0  0  0  0  0  0
  -26.4470  -15.8630   20.0250 H   0  0  0  0  0  0  0  0  0  0  0  0
  -28.0770  -21.6850   20.5620 C   0  0  0  0  0  2  0  0  0  0  0  0
  -28.4740  -22.9090   19.6780 C   0  0  0  0  0  2  0  0  0  0  0  0
  -27.9470  -24.2850   20.2070 C   0  0  0  0  0  3  0  0  0  0  0  0
  -28.4240  -25.5320   19.4040 C   0  0  0  0  0  3  0  0  0  0  0  0
  -28.3180  -26.8100   20.0750 O   0  0  0  0  0  0  0  0  0  0  0  0
  -24.6020  -31.9630   23.3460 C   0  0  0  0  0  0  0  0  0  0  0  0
  -27.1370  -27.5380   20.0900 C   0  0  0  0  0  0  0  0  0  0  0  0
  -23.3510  -30.6020   21.7070 C   0  0  0  0  0  3  0  0  0  0  0  0
  -24.7570  -29.0880   20.2030 C   0  0  0  0  0  0  0  0  0  0  0  0
  -25.8740  -30.9360   21.4590 C   0  0  0  0  0  2  0  0  0  0  0  0
  -25.9320  -29.5750   20.7880 C   0  0  0  0  0  0  0  0  0  0  0  0
  -27.1190  -28.8010   20.7380 C   0  0  0  0  0  3  0  0  0  0  0  0
  -25.9440  -27.0780   19.4930 C   0  0  0  0  0  3  0  0  0  0  0  0
  -24.7620  -27.8420   19.5520 C   0  0  0  0  0  3  0  0  0  0  0  0
  -23.5190  -29.9520   20.3070 C   0  0  0  0  0  2  0  0  0  0  0  0
  -24.6300  -31.1810   22.2300 N   0  0  0  0  0  0  0  0  0  0  0  0
  -23.5360  -32.2340   23.9160 O   0  0  0  0  0  0  0  0  0  0  0  0
  -22.7170  -29.5630   22.6610 C   0  0  0  0  0  0  0  0  0  0  0  0
  -21.4020  -29.3390   22.5150 N   0  0  0  0  0  0  0  0  0  0  0  0
  -23.4060  -28.9640   23.4920 O   0  0  0  0  0  0  0  0  0  0  0  0
  -20.9070  -29.8750   21.8150 H   0  0  0  0  0  0  0  0  0  0  0  0
  -18.0710  -27.9980   22.9120 C   0  0  0  0  0  0  0  0  0  0  0  0
  -20.6020  -28.3800   23.2760 C   0  0  0  0  0  3  0  0  0  0  0  0
  -20.7930  -26.9450   22.7320 C   0  0  0  0  0  2  0  0  0  0  0  0
  -19.7470  -26.5530   21.6840 C   0  0  0  0  0  2  0  0  0  0  0  0
  -18.3360  -26.6440   22.2730 C   0  0  0  0  0  2  0  0  0  0  0  0
  -19.1360  -28.8190   23.3670 C   0  0  0  0  0  0  0  0  0  0  0  0
  -18.8360  -30.0820   23.9230 C   0  0  0  0  0  3  0  0  0  0  0  0
  -17.5060  -30.5250   24.0290 C   0  0  0  0  0  3  0  0  0  0  0  0
  -16.4550  -29.7010   23.5940 C   0  0  0  0  0  3  0  0  0  0  0  0
  -16.7390  -28.4400   23.0390 C   0  0  0  0  0  3  0  0  0  0  0  0
  -25.9040  -32.5760   23.9490 C   0  0  0  0  0  3  0  0  0  0  0  0
  -25.6280  -33.9860   24.2570 N   0  0  0  0  0  0  0  0  0  0  0  0
  -25.9960  -35.0200   23.4860 C   0  0  0  0  0  0  0  0  0  0  0  0
  -26.6710  -34.8820   22.4610 O   0  0  0  0  0  0  0  0  0  0  0  0
  -25.0220  -34.1670   25.0440 H   0  0  0  0  0  0  0  0  0  0  0  0
  -24.3200  -36.8530   23.0860 C   0  0  0  0  0  1  0  0  0  0  0  0
  -25.5410  -36.4270   23.9180 C   0  0  0  0  0  3  0  0  0  0  0  0
  -27.6830  -37.2700   24.7710 C   0  0  0  0  0  1  0  0  0  0  0  0
  -26.6040  -37.4480   23.8040 N   0  0  0  0  0  0  0  0  0  0  0  0
  -26.2240  -38.3840   23.9240 H   0  0  0  0  0  0  0  0  0  0  0  0
  -26.4130  -31.8120   25.2320 C   0  0  1  0  0  0  0  0  0  0  0  0
  -25.3200  -31.6080   26.3080 C   0  0  0  0  0  1  0  0  0  0  0  0
  -26.9680  -30.4210   24.8500 C   0  0  0  0  0  1  0  0  0  0  0  0
  -27.5820  -32.5950   25.8760 C   0  0  0  0  0  1  0  0  0  0  0  0
  1  2  2  0
  2  8  1  0
  3  2  1  0
  4  5  1  0
  4  3  2  0
  5  1  1  0
  8  6  1  1
  8  7  1  0
  9 10  1  0
 10  8  1  0
 12 11  1  0
 12  5  1  0
 12 14  1  0
 14 13  1  0
 15 14  1  0
 16 21  1  0
 17 18  1  0
 17 16  1  0
 19 18  1  0
 19 26  1  0
 19 20  1  0
 21 15  1  0
 21 20  1  0
 22 15  2  0
 23 24  2  0
 24 43  1  0
 25 24  1  0
 25 28  1  0
 26 23  1  0
 26 27  1  0
 27 25  2  0
 28 29  1  0
 29 30  2  0
 31 34  1  0
 31 30  1  0
 32 31  2  0
 33 32  1  0
 33 28  2  0
 34 35  1  0
 35 36  1  0
 36 37  2  0
 38 37  1  0
 38 42  1  0
 39 38  2  0
 40 35  2  0
 40 39  1  0
 41 40  1  0
 43 44  1  0
 44 47  1  0
 44 46  1  0
 45 43  2  0
 48 49  1  0
 48 23  1  0
 50 48  1  0
 51  3  1  0
 52 53  1  0
 52 51  1  0
 54 55  1  0
 54 53  2  0
 55 57  1  0
 56 67  2  0
 57 62  1  0
 58 66  1  0
 58 68  1  0
 59 65  1  0
 59 61  1  0
 60 66  1  0
 61 60  1  0
 62 61  2  0
 63 64  1  0
 63 57  2  0
 64 59  2  0
 65 58  1  0
 66 56  1  0
 68 70  2  0
 69 68  1  0
 71 69  1  0
 72 81  2  0
 72 77  1  0
 73 69  1  0
 73 77  1  0
 74 73  1  0
 75 76  1  0
 75 74  1  0
 76 72  1  0
 77 78  2  0
 78 79  1  0
 80 79  2  0
 81 80  1  0
 82 56  1  0
 82 83  1  0
 82 92  1  0
 83 86  1  0
 84 88  1  0
 84 83  1  0
 85 84  2  0
 88 87  1  0
 90 88  1  0
 90 91  1  0
 90 89  1  0
 92 95  1  1
 92 93  1  0
 94 92  1  0
M  ISO  4  14 100  15 100  54 101  55 101
M  END
>  <TORSDO>  (13) 
F 24

>  <SCORE>  (13) 
-12.867

>  <name>  (13) 
14

>  <ligand_id>  (13) 
14

>  <original_smiles>  (13) 
[H]c1c([H])c([H])c2c(c1[H])C([H])([H])C([H])([H])C([H])([H])C2([H])N([H])C(=O)C1([H])N(C(=O)C([H])(N([H])C(=O)C([H])(N([H])C([H])([H])[H])C([H])([H])[H])C(C([H])([H])[H])(C([H])([H])[H])C([H])([H])[H])C([H])([H])c2c([H])c(OC([H])([H])C([H])([H])C([H])([H])C([H])([H])c3nn(C([H])(C([H])([H])[H])C([H])(C(=O)N4C([H])([H])C([H])([H])C([H])([H])C([H])(n5nc(-c6c([H])c([H])c(Oc7c([H])c([H])c(F)c([H])c7F)c([H])c6[H])c(C(=O)N([H])[H])c5N([H])[H])C4([H])[H])C([H])([H])[H])c([H])c3C(C([H])([H])[H])(C([H])([H])[H])C([H])([H])C([H])([H])[H])c([H])c([H])c2C1([H])[H]

>  <smiles>  (13) 
[H]c1c([H])c([H])c2c(c1[H])C([H])([H])C([H])([H])C([H])([H])C2([H])N([H])C(=O)C1([H])N(C(=O)C([H])(N([H])C(=O)C([H])(N([H])C([H])([H])[H])C([H])([H])[H])C(C([H])([H])[H])(C([H])([H])[H])C([H])([H])[H])C([H])([H])c2c([H])c(OC([H])([H])C([H])([H])C([H])([H])C([H])([H])c3nn(C([H])(C([H])([H])[H])C([H])(C(=O)N4C([H])([H])C([H])([H])C([H])([H])C([H])(n5nc(-c6c([H])c([H])c(Oc7c([H])c([H])c(F)c([H])c7F)c([H])c6[H])c(C(=O)N([H])[H])c5N([H])[H])C4([H])[H])C([H])([H])[H])c([H])c3C(C([H])([H])[H])(C([H])([H])[H])C([H])([H])C([H])([H])[H])c([H])c([H])c2C1([H])[H]

$$$$
15:0:0
     RDKit          3D

100108  0  0  1  0  0  0  0  0999 V2000
  -31.1670  -19.9070   22.7090 C   0  0  0  0  0  3  0  0  0  0  0  0
  -30.5990  -21.0440   22.0930 C   0  0  0  0  0  0  0  0  0  0  0  0
  -30.5710  -20.9920   20.6620 C   0  0  0  0  0  0  0  0  0  0  0  0
  -31.2750  -18.7420   20.7540 C   0  0  0  0  0  0  0  0  0  0  0  0
  -31.5230  -18.8020   22.0480 N   0  0  0  0  0  0  0  0  0  0  0  0
  -30.8560  -19.8010   20.0360 N   0  0  0  0  0  0  0  0  0  0  0  0
  -29.9210  -21.7670   24.4900 C   0  0  0  0  0  1  0  0  0  0  0  0
  -28.5550  -22.4840   22.5790 C   0  0  0  0  0  1  0  0  0  0  0  0
  -30.8610  -23.4530   22.9970 C   0  0  0  0  0  1  0  0  0  0  0  0
  -30.0100  -22.1730   22.9960 C   0  0  2  0  0  0  0  0  0  0  0  0
  -30.1610  -22.1950   19.7340 C   0  0  0  0  0  2  0  0  0  0  0  0
  -31.9170  -22.5310   17.9920 C   0  0  0  0  0  1  0  0  0  0  0  0
  -32.4280  -23.3840   20.2290 C   0  0  0  0  0  1  0  0  0  0  0  0
  -31.2590  -23.2330   19.2170 C   0  0  2  0  0  0  0  0  0  0  0  0
  -31.8470  -25.6690   18.4540 C   0  0  0  0  0  1  0  0  0  0  0  0
  -29.8220  -24.5840   17.5220 C   0  0  0  0  0  1  0  0  0  0  0  0
  -30.6800  -24.7040   18.8020 C   0  0  1  0  0  0  0  0  0  0  0  0
  -29.7900  -25.4710   19.8810 C   0  0  0  0  0  2  0  0  0  0  0  0
  -29.5620  -26.9010   19.6670 O   0  0  0  0  0  0  0  0  0  0  0  0
  -24.8440  -31.0700   23.1140 C   0  0  0  0  0  0  0  0  0  0  0  0
  -28.2800  -27.4360   19.7190 C   0  0  0  0  0  0  0  0  0  0  0  0
  -23.9440  -29.7220   21.2480 C   0  0  0  0  0  3  0  0  0  0  0  0
  -25.6800  -28.5940   19.7530 C   0  0  0  0  0  0  0  0  0  0  0  0
  -26.3970  -30.4610   21.2520 C   0  0  0  0  0  2  0  0  0  0  0  0
  -26.7220  -29.2030   20.4630 C   0  0  0  0  0  0  0  0  0  0  0  0
  -28.0250  -28.6400   20.4320 C   0  0  0  0  0  3  0  0  0  0  0  0
  -27.2090  -26.8410   19.0200 C   0  0  0  0  0  3  0  0  0  0  0  0
  -25.9220  -27.4150   19.0260 C   0  0  0  0  0  3  0  0  0  0  0  0
  -24.3200  -29.2550   19.8160 C   0  0  0  0  0  2  0  0  0  0  0  0
  -25.0750  -30.4290   21.9330 N   0  0  0  0  0  0  0  0  0  0  0  0
  -23.7100  -31.1110   23.6120 O   0  0  0  0  0  0  0  0  0  0  0  0
  -23.4110  -28.5070   22.0410 C   0  0  0  0  0  0  0  0  0  0  0  0
  -22.1280  -28.1670   21.8300 N   0  0  0  0  0  0  0  0  0  0  0  0
  -24.1490  -27.8770   22.8030 O   0  0  0  0  0  0  0  0  0  0  0  0
  -21.5840  -28.7400   21.1990 H   0  0  0  0  0  0  0  0  0  0  0  0
  -18.9330  -26.4890   22.0380 C   0  0  0  0  0  0  0  0  0  0  0  0
  -21.4280  -27.0340   22.4350 C   0  0  0  0  0  3  0  0  0  0  0  0
  -21.7300  -25.7230   21.6730 C   0  0  0  0  0  2  0  0  0  0  0  0
  -20.7000  -25.4060   20.5840 C   0  0  0  0  0  2  0  0  0  0  0  0
  -19.2980  -25.2820   21.1900 C   0  0  0  0  0  2  0  0  0  0  0  0
  -19.9330  -27.3200   22.6080 C   0  0  0  0  0  0  0  0  0  0  0  0
  -19.5380  -28.4500   23.3580 C   0  0  0  0  0  3  0  0  0  0  0  0
  -18.1760  -28.7530   23.5420 C   0  0  0  0  0  3  0  0  0  0  0  0
  -17.1900  -27.9180   22.9870 C   0  0  0  0  0  3  0  0  0  0  0  0
  -17.5700  -26.7870   22.2420 C   0  0  0  0  0  3  0  0  0  0  0  0
  -25.9870  -31.8020   23.8850 C   0  0  0  0  0  3  0  0  0  0  0  0
  -26.4300  -31.0510   25.2000 C   0  0  1  0  0  0  0  0  0  0  0  0
  -25.2520  -30.6770   26.1300 C   0  0  0  0  0  1  0  0  0  0  0  0
  -27.1910  -29.7490   24.8550 C   0  0  0  0  0  1  0  0  0  0  0  0
  -27.4110  -31.9370   26.0040 C   0  0  0  0  0  1  0  0  0  0  0  0
  -25.5140  -33.1580   24.1980 N   0  0  0  0  0  0  0  0  0  0  0  0
  -25.8360  -34.2560   23.5010 C   0  0  0  0  0  0  0  0  0  0  0  0
  -26.6310  -34.2400   22.5570 O   0  0  0  0  0  0  0  0  0  0  0  0
  -24.8180  -33.2370   24.9240 H   0  0  0  0  0  0  0  0  0  0  0  0
  -24.0030  -35.8940   22.9720 C   0  0  0  0  0  1  0  0  0  0  0  0
  -25.1730  -35.5830   23.9180 C   0  0  0  0  0  3  0  0  0  0  0  0
  -27.1060  -36.6340   25.0080 C   0  0  0  0  0  1  0  0  0  0  0  0
  -26.1100  -36.7270   23.9430 N   0  0  0  0  0  0  0  0  0  0  0  0
  -25.6060  -37.6020   24.0570 H   0  0  0  0  0  0  0  0  0  0  0  0
  -31.5350  -17.3500   20.0960 C   0  0  0  0  0  2  0  0  0  0  0  0
  -29.2140  -16.5620   19.7560 C   0  0  0  0  0  1  0  0  0  0  0  0
  -30.5480  -16.1250   20.4090 C   0  0  1  0  0  0  0  0  0  0  0  0
  -31.1080  -14.7500   19.8160 C   0  0  0  0  0  0  0  0  0  0  0  0
  -30.8510  -12.3970   19.0120 C   0  0  0  0  0  2  0  0  0  0  0  0
  -29.8640  -12.3320   17.8260 C   0  0  0  0  0  2  0  0  0  0  0  0
  -28.4100  -12.1990   18.3230 C   0  0  0  0  0  2  0  0  0  0  0  0
  -28.0800  -13.2270   19.4320 C   0  0  0  0  0  3  0  0  0  0  0  0
  -29.1770  -13.2200   20.5220 C   0  0  0  0  0  2  0  0  0  0  0  0
  -30.4590  -13.5350   19.8750 N   0  0  0  0  0  0  0  0  0  0  0  0
  -32.1940  -14.8100   19.2290 O   0  0  0  0  0  0  0  0  0  0  0  0
  -25.7920  -13.9670   20.3520 C   0  0  0  0  0  0  0  0  0  0  0  0
  -24.6970  -13.2530   20.7540 C   0  0  0  0  0  0  0  0  0  0  0  0
  -25.0500  -11.8760   20.6080 C   0  0  0  0  0  0  0  0  0  0  0  0
  -26.7480  -13.0270   19.9930 N   0  0  0  0  0  0  0  0  0  0  0  0
  -26.3090  -11.7620   20.2050 N   0  0  0  0  0  0  0  0  0  0  0  0
  -24.2450  -10.6610   20.7700 C   0  0  0  0  0  0  0  0  0  0  0  0
  -24.6060   -9.6570   21.6940 C   0  0  0  0  0  3  0  0  0  0  0  0
  -23.8060   -8.5030   21.8440 C   0  0  0  0  0  3  0  0  0  0  0  0
  -22.6310   -8.3510   21.0710 C   0  0  0  0  0  0  0  0  0  0  0  0
  -22.2890   -9.3450   20.1360 C   0  0  0  0  0  3  0  0  0  0  0  0
  -23.0890  -10.4880   19.9830 C   0  0  0  0  0  3  0  0  0  0  0  0
  -21.8060   -7.2530   21.1310 O   0  0  0  0  0  0  0  0  0  0  0  0
  -21.6120   -6.5630   22.2990 C   0  0  0  0  0  0  0  0  0  0  0  0
  -21.1050   -7.1880   23.4600 C   0  0  0  0  0  3  0  0  0  0  0  0
  -20.8570   -6.4250   24.6180 C   0  0  0  0  0  3  0  0  0  0  0  0
  -21.1050   -5.0390   24.6170 C   0  0  0  0  0  0  0  0  0  0  0  0
  -21.6070   -4.4140   23.4610 C   0  0  0  0  0  3  0  0  0  0  0  0
  -21.8570   -5.1750   22.3050 C   0  0  0  0  0  0  0  0  0  0  0  0
  -22.3190   -4.5650   21.1880 F   0  0  0  0  0  0  0  0  0  0  0  0
  -20.8600   -4.3050   25.7270 F   0  0  0  0  0  0  0  0  0  0  0  0
  -23.3630  -13.8120   21.1560 C   0  0  0  0  0  0  0  0  0  0  0  0
  -22.6530  -13.1230   22.0430 N   0  0  0  0  0  0  0  0  0  0  0  0
  -22.9630  -14.8910   20.7210 O   0  0  0  0  0  0  0  0  0  0  0  0
  -22.9890  -12.2490   22.4160 H   0  0  0  0  0  0  0  0  0  0  0  0
  -21.7590  -13.4780   22.3540 H   0  0  0  0  0  0  0  0  0  0  0  0
  -26.0410  -15.3310   20.2400 N   0  0  0  0  0  0  0  0  0  0  0  0
  -25.3310  -16.0270   20.4450 H   0  0  0  0  0  0  0  0  0  0  0  0
  -26.8990  -15.7340   19.8880 H   0  0  0  0  0  0  0  0  0  0  0  0
  -31.5640  -15.5310   22.7680 C   0  0  0  0  0  1  0  0  0  0  0  0
  -30.3270  -15.9400   21.9440 C   0  0  0  0  0  2  0  0  0  0  0  0
  2  1  2  0
  2 10  1  0
  3  2  1  0
  4  5  2  0
  5  1  1  0
  6  3  2  0
  6  4  1  0
 10  8  1  6
 10  9  1  0
 10  7  1  0
 11  3  1  0
 14 12  1  6
 14 11  1  0
 14 13  1  0
 17 15  1  6
 16 17  1  0
 17 14  1  0
 17 18  1  0
 19 21  1  0
 19 18  1  0
 20 31  2  0
 21 26  1  0
 22 30  1  0
 22 32  1  0
 23 29  1  0
 23 25  1  0
 24 30  1  0
 25 24  1  0
 26 25  2  0
 27 28  1  0
 27 21  2  0
 28 23  2  0
 29 22  1  0
 30 20  1  0
 32 34  2  0
 33 32  1  0
 35 33  1  0
 36 45  2  0
 36 41  1  0
 37 33  1  0
 37 41  1  0
 38 37  1  0
 39 40  1  0
 39 38  1  0
 40 36  1  0
 41 42  2  0
 42 43  1  0
 44 43  2  0
 45 44  1  0
 46 20  1  0
 46 51  1  0
 46 47  1  0
 47 50  1  1
 47 48  1  0
 49 47  1  0
 51 54  1  0
 52 56  1  0
 52 51  1  0
 53 52  2  0
 56 55  1  0
 56 58  1  0
 58 59  1  0
 58 57  1  0
 60 62  1  0
 60  4  1  0
 62 61  1  6
 62100  1  0
 63 69  1  0
 63 62  1  0
 64 69  1  0
 65 66  1  0
 65 64  1  0
 67 66  1  0
 67 74  1  0
 67 68  1  0
 69 68  1  0
 70 63  2  0
 71 72  2  0
 72 91  1  0
 73 72  1  0
 73 76  1  0
 74 75  1  0
 74 71  1  0
 75 73  2  0
 76 77  1  0
 77 78  2  0
 79 82  1  0
 79 78  1  0
 80 79  2  0
 81 80  1  0
 81 76  2  0
 82 83  1  0
 83 88  2  0
 83 84  1  0
 84 85  2  0
 86 85  1  0
 86 90  1  0
 87 86  2  0
 88 87  1  0
 89 88  1  0
 91 92  1  0
 92 95  1  0
 92 94  1  0
 93 91  2  0
 96 71  1  0
 96 97  1  0
 98 96  1  0
100 99  1  0
M  ISO  4  18 101  19 101  62 100  63 100
M  END
>  <TORSDO>  (14) 
F 24

>  <SCORE>  (14) 
-8.026

>  <name>  (14) 
15

>  <ligand_id>  (14) 
15

>  <original_smiles>  (14) 
[H]c1nc(C([H])([H])C(C(=O)N2C([H])([H])C([H])([H])C([H])([H])C([H])(n3nc(-c4c([H])c([H])c(Oc5c([H])c([H])c(F)c([H])c5F)c([H])c4[H])c(C(=O)N([H])[H])c3N([H])[H])C2([H])[H])(C([H])([H])[H])C([H])([H])C([H])([H])[H])nc(C([H])([H])C(C([H])([H])[H])(C([H])([H])[H])C(C([H])([H])[H])(C([H])([H])[H])C([H])([H])Oc2c([H])c([H])c3c(c2[H])C([H])([H])N(C(=O)C([H])(N([H])C(=O)C([H])(N([H])C([H])([H])[H])C([H])([H])[H])C(C([H])([H])[H])(C([H])([H])[H])C([H])([H])[H])C([H])(C(=O)N([H])C2([H])c4c([H])c([H])c([H])c([H])c4C([H])([H])C([H])([H])C2([H])[H])C3([H])[H])c1C(C([H])([H])[H])(C([H])([H])[H])C([H])([H])[H]

>  <smiles>  (14) 
[H]c1nc(C([H])([H])C(C(=O)N2C([H])([H])C([H])([H])C([H])([H])C([H])(n3nc(-c4c([H])c([H])c(Oc5c([H])c([H])c(F)c([H])c5F)c([H])c4[H])c(C(=O)N([H])[H])c3N([H])[H])C2([H])[H])(C([H])([H])[H])C([H])([H])C([H])([H])[H])nc(C([H])([H])C(C([H])([H])[H])(C([H])([H])[H])C(C([H])([H])[H])(C([H])([H])[H])C([H])([H])Oc2c([H])c([H])c3c(c2[H])C([H])([H])N(C(=O)C([H])(N([H])C(=O)C([H])(N([H])C([H])([H])[H])C([H])([H])[H])C(C([H])([H])[H])(C([H])([H])[H])C([H])([H])[H])C([H])(C(=O)N([H])C2([H])c4c([H])c([H])c([H])c([H])c4C([H])([H])C([H])([H])C2([H])[H])C3([H])[H])c1C(C([H])([H])[H])(C([H])([H])[H])C([H])([H])[H]

$$$$
16:0:0
     RDKit          3D

 92100  0  0  1  0  0  0  0  0999 V2000
  -29.4690  -20.5630   21.8840 C   0  0  0  0  0  3  0  0  0  0  0  0
  -29.7790  -19.1870   21.7230 C   0  0  0  0  0  3  0  0  0  0  0  0
  -29.3880  -21.3830   20.7340 C   0  0  0  0  0  0  0  0  0  0  0  0
  -29.9990  -18.6790   20.4170 C   0  0  0  0  0  0  0  0  0  0  0  0
  -29.7280  -20.8750   19.5220 N   0  0  0  0  0  0  0  0  0  0  0  0
  -30.0230  -19.5700   19.3760 N   0  0  0  0  0  0  0  0  0  0  0  0
  -29.9170  -16.9840   18.5210 C   0  0  0  0  0  1  0  0  0  0  0  0
  -28.4080  -16.8020   20.4710 C   0  0  0  0  0  1  0  0  0  0  0  0
  -29.8540  -17.1370   20.0730 C   0  0  2  0  0  0  0  0  0  0  0  0
  -32.2770  -16.7900   20.8180 C   0  0  0  0  0  1  0  0  0  0  0  0
  -30.6030  -15.7730   22.2590 C   0  0  0  0  0  1  0  0  0  0  0  0
  -30.8900  -16.0760   20.7570 C   0  0  1  0  0  0  0  0  0  0  0  0
  -31.1340  -14.6880   19.9660 C   0  0  0  0  0  0  0  0  0  0  0  0
  -30.6040  -12.4900   18.9130 C   0  0  0  0  0  2  0  0  0  0  0  0
  -29.6170  -12.6470   17.7370 C   0  0  0  0  0  2  0  0  0  0  0  0
  -28.1690  -12.5340   18.2450 C   0  0  0  0  0  2  0  0  0  0  0  0
  -27.9120  -13.4380   19.4770 C   0  0  0  0  0  3  0  0  0  0  0  0
  -29.0310  -13.2960   20.5410 C   0  0  0  0  0  2  0  0  0  0  0  0
  -30.3340  -13.5630   19.9070 N   0  0  0  0  0  0  0  0  0  0  0  0
  -32.1670  -14.6730   19.2900 O   0  0  0  0  0  0  0  0  0  0  0  0
  -25.5980  -14.1360   20.3680 C   0  0  0  0  0  0  0  0  0  0  0  0
  -24.5260  -13.4100   20.8020 C   0  0  0  0  0  0  0  0  0  0  0  0
  -24.9120  -12.0400   20.6960 C   0  0  0  0  0  0  0  0  0  0  0  0
  -26.5850  -13.2150   20.0460 N   0  0  0  0  0  0  0  0  0  0  0  0
  -26.1760  -11.9450   20.2980 N   0  0  0  0  0  0  0  0  0  0  0  0
  -24.1290  -10.8160   20.8900 C   0  0  0  0  0  0  0  0  0  0  0  0
  -24.5380   -9.8140   21.7970 C   0  0  0  0  0  3  0  0  0  0  0  0
  -23.7560   -8.6530   21.9780 C   0  0  0  0  0  3  0  0  0  0  0  0
  -22.5520   -8.4880   21.2540 C   0  0  0  0  0  0  0  0  0  0  0  0
  -22.1620   -9.4780   20.3360 C   0  0  0  0  0  3  0  0  0  0  0  0
  -22.9430  -10.6300   20.1520 C   0  0  0  0  0  3  0  0  0  0  0  0
  -21.7420   -7.3820   21.3490 O   0  0  0  0  0  0  0  0  0  0  0  0
  -21.6570   -6.6510   22.5060 C   0  0  0  0  0  0  0  0  0  0  0  0
  -21.2560   -7.2350   23.7280 C   0  0  0  0  0  3  0  0  0  0  0  0
  -21.1130   -6.4330   24.8780 C   0  0  0  0  0  3  0  0  0  0  0  0
  -21.3620   -5.0490   24.8070 C   0  0  0  0  0  0  0  0  0  0  0  0
  -21.7550   -4.4650   23.5910 C   0  0  0  0  0  3  0  0  0  0  0  0
  -21.8990   -5.2630   22.4420 C   0  0  0  0  0  0  0  0  0  0  0  0
  -22.2580   -4.6930   21.2670 F   0  0  0  0  0  0  0  0  0  0  0  0
  -21.2170   -4.2770   25.9090 F   0  0  0  0  0  0  0  0  0  0  0  0
  -23.1820  -13.9550   21.1920 C   0  0  0  0  0  0  0  0  0  0  0  0
  -22.4900  -13.2800   22.1020 N   0  0  0  0  0  0  0  0  0  0  0  0
  -22.7600  -15.0130   20.7270 O   0  0  0  0  0  0  0  0  0  0  0  0
  -22.8470  -12.4240   22.5000 H   0  0  0  0  0  0  0  0  0  0  0  0
  -21.5900  -13.6260   22.4060 H   0  0  0  0  0  0  0  0  0  0  0  0
  -25.7870  -15.5000   20.1950 N   0  0  0  0  0  0  0  0  0  0  0  0
  -25.0420  -16.1670   20.3640 H   0  0  0  0  0  0  0  0  0  0  0  0
  -26.6170  -15.9200   19.8020 H   0  0  0  0  0  0  0  0  0  0  0  0
  -28.5870  -22.7120   20.7450 C   0  0  0  0  0  2  0  0  0  0  0  0
  -29.2520  -24.1170   20.5060 C   0  0  0  0  0  2  0  0  0  0  0  0
  -28.1560  -25.1640   20.0860 C   0  0  0  0  0  2  0  0  0  0  0  0
  -28.4140  -26.6050   20.0470 O   0  0  0  0  0  0  0  0  0  0  0  0
  -24.5480  -31.7770   23.1740 C   0  0  0  0  0  0  0  0  0  0  0  0
  -27.2690  -27.4070   19.9990 C   0  0  0  0  0  0  0  0  0  0  0  0
  -23.3710  -30.3900   21.5060 C   0  0  0  0  0  3  0  0  0  0  0  0
  -24.8530  -28.9240   20.0360 C   0  0  0  0  0  0  0  0  0  0  0  0
  -25.8960  -30.7930   21.3150 C   0  0  0  0  0  2  0  0  0  0  0  0
  -26.0100  -29.4380   20.6370 C   0  0  0  0  0  0  0  0  0  0  0  0
  -27.2210  -28.6920   20.6100 C   0  0  0  0  0  3  0  0  0  0  0  0
  -26.0870  -26.9420   19.3700 C   0  0  0  0  0  3  0  0  0  0  0  0
  -24.8920  -27.6800   19.3950 C   0  0  0  0  0  3  0  0  0  0  0  0
  -23.5940  -29.7560   20.1080 C   0  0  0  0  0  2  0  0  0  0  0  0
  -24.6230  -31.0020   22.0550 N   0  0  0  0  0  0  0  0  0  0  0  0
  -23.4610  -32.0150   23.7210 O   0  0  0  0  0  0  0  0  0  0  0  0
  -22.7430  -29.3300   22.4420 C   0  0  0  0  0  0  0  0  0  0  0  0
  -21.4270  -29.1010   22.2960 N   0  0  0  0  0  0  0  0  0  0  0  0
  -23.4380  -28.7200   23.2580 O   0  0  0  0  0  0  0  0  0  0  0  0
  -20.9260  -29.6460   21.6090 H   0  0  0  0  0  0  0  0  0  0  0  0
  -18.0970  -27.7620   22.7280 C   0  0  0  0  0  0  0  0  0  0  0  0
  -20.6370  -28.1230   23.0460 C   0  0  0  0  0  3  0  0  0  0  0  0
  -20.8090  -26.7030   22.4590 C   0  0  0  0  0  2  0  0  0  0  0  0
  -19.7390  -26.3430   21.4240 C   0  0  0  0  0  2  0  0  0  0  0  0
  -18.3410  -26.4270   22.0430 C   0  0  0  0  0  2  0  0  0  0  0  0
  -19.1760  -28.5650   23.1840 C   0  0  0  0  0  0  0  0  0  0  0  0
  -18.8940  -29.8130   23.7800 C   0  0  0  0  0  3  0  0  0  0  0  0
  -17.5670  -30.2580   23.9270 C   0  0  0  0  0  3  0  0  0  0  0  0
  -16.5040  -29.4510   23.4880 C   0  0  0  0  0  3  0  0  0  0  0  0
  -16.7690  -28.2050   22.8940 C   0  0  0  0  0  3  0  0  0  0  0  0
  -25.8200  -32.4250   23.8050 C   0  0  0  0  0  3  0  0  0  0  0  0
  -25.4850  -33.8150   24.1470 N   0  0  0  0  0  0  0  0  0  0  0  0
  -25.8130  -34.8810   23.4040 C   0  0  0  0  0  0  0  0  0  0  0  0
  -26.5010  -34.7990   22.3810 O   0  0  0  0  0  0  0  0  0  0  0  0
  -24.8750  -33.9520   24.9390 H   0  0  0  0  0  0  0  0  0  0  0  0
  -24.0680  -36.6550   23.0410 C   0  0  0  0  0  1  0  0  0  0  0  0
  -25.2990  -36.2570   23.8690 C   0  0  0  0  0  3  0  0  0  0  0  0
  -27.4080  -37.1570   24.7490 C   0  0  0  0  0  1  0  0  0  0  0  0
  -26.3200  -37.3240   23.7890 N   0  0  0  0  0  0  0  0  0  0  0  0
  -25.8990  -38.2360   23.9410 H   0  0  0  0  0  0  0  0  0  0  0  0
  -26.3480  -31.6500   25.0730 C   0  0  1  0  0  0  0  0  0  0  0  0
  -25.2510  -31.3560   26.1240 C   0  0  0  0  0  1  0  0  0  0  0  0
  -26.9810  -30.2990   24.6660 C   0  0  0  0  0  1  0  0  0  0  0  0
  -27.4610  -32.4710   25.7620 C   0  0  0  0  0  1  0  0  0  0  0  0
  2  1  1  0
  3 49  1  0
  3  1  2  0
  4  2  2  0
  5  3  1  0
  6  5  2  0
  6  4  1  0
  9  7  1  6
  9  4  1  0
  9  8  1  0
  9 12  1  0
 12 10  1  1
 12 11  1  0
 13 12  1  0
 14 19  1  0
 15 16  1  0
 15 14  1  0
 17 16  1  0
 17 24  1  0
 17 18  1  0
 19 13  1  0
 19 18  1  0
 20 13  2  0
 21 22  2  0
 22 41  1  0
 23 22  1  0
 23 26  1  0
 24 25  1  0
 24 21  1  0
 25 23  2  0
 26 27  1  0
 27 28  2  0
 29 32  1  0
 29 28  1  0
 30 29  2  0
 31 30  1  0
 31 26  2  0
 32 33  1  0
 33 34  1  0
 34 35  2  0
 36 35  1  0
 36 40  1  0
 37 36  2  0
 38 33  2  0
 38 37  1  0
 39 38  1  0
 41 42  1  0
 42 45  1  0
 42 44  1  0
 43 41  2  0
 46 47  1  0
 46 21  1  0
 48 46  1  0
 50 49  1  0
 51 50  1  0
 52 51  1  0
 53 64  2  0
 54 52  1  0
 54 59  1  0
 55 63  1  0
 55 65  1  0
 56 62  1  0
 56 58  1  0
 57 63  1  0
 58 57  1  0
 59 58  2  0
 60 61  1  0
 60 54  2  0
 61 56  2  0
 62 55  1  0
 63 53  1  0
 65 67  2  0
 66 65  1  0
 68 66  1  0
 69 78  2  0
 69 74  1  0
 70 66  1  0
 70 74  1  0
 71 70  1  0
 72 73  1  0
 72 71  1  0
 73 69  1  0
 74 75  2  0
 75 76  1  0
 77 76  2  0
 78 77  1  0
 79 53  1  0
 79 80  1  0
 79 89  1  0
 80 83  1  0
 81 85  1  0
 81 80  1  0
 82 81  2  0
 85 84  1  0
 87 85  1  0
 87 88  1  0
 87 86  1  0
 89 92  1  1
 89 90  1  0
 91 89  1  0
M  ISO  4  12 100  13 100  51 101  52 101
M  END
>  <TORSDO>  (15) 
F 21

>  <SCORE>  (15) 
-11.898

>  <name>  (15) 
16

>  <ligand_id>  (15) 
16

>  <original_smiles>  (15) 
[H]c1c(C([H])([H])C([H])([H])C([H])([H])Oc2c([H])c([H])c3c(c2[H])C([H])([H])N(C(=O)C([H])(N([H])C(=O)C([H])(N([H])C([H])([H])[H])C([H])([H])[H])C(C([H])([H])[H])(C([H])([H])[H])C([H])([H])[H])C([H])(C(=O)N([H])C2([H])c4c([H])c([H])c([H])c([H])c4C([H])([H])C([H])([H])C2([H])[H])C3([H])[H])nnc(C(C([H])([H])[H])(C([H])([H])[H])C(C(=O)N2C([H])([H])C([H])([H])C([H])([H])C([H])(n3nc(-c4c([H])c([H])c(Oc5c([H])c([H])c(F)c([H])c5F)c([H])c4[H])c(C(=O)N([H])[H])c3N([H])[H])C2([H])[H])(C([H])([H])[H])C([H])([H])[H])c1[H]

>  <smiles>  (15) 
[H]c1c(C([H])([H])C([H])([H])C([H])([H])Oc2c([H])c([H])c3c(c2[H])C([H])([H])N(C(=O)C([H])(N([H])C(=O)C([H])(N([H])C([H])([H])[H])C([H])([H])[H])C(C([H])([H])[H])(C([H])([H])[H])C([H])([H])[H])C([H])(C(=O)N([H])C2([H])c4c([H])c([H])c([H])c([H])c4C([H])([H])C([H])([H])C2([H])[H])C3([H])[H])nnc(C(C([H])([H])[H])(C([H])([H])[H])C(C(=O)N2C([H])([H])C([H])([H])C([H])([H])C([H])(n3nc(-c4c([H])c([H])c(Oc5c([H])c([H])c(F)c([H])c5F)c([H])c4[H])c(C(=O)N([H])[H])c3N([H])[H])C2([H])[H])(C([H])([H])[H])C([H])([H])[H])c1[H]

$$$$
17:0:0
     RDKit          3D

102110  0  0  1  0  0  0  0  0999 V2000
  -29.8100  -22.0660   21.9720 C   0  0  0  0  0  3  0  0  0  0  0  0
  -28.8210  -22.8930   21.4330 C   0  0  0  0  0  0  0  0  0  0  0  0
  -27.9450  -22.3090   20.4970 C   0  0  0  0  0  0  0  0  0  0  0  0
  -29.0200  -20.3050   20.7560 C   0  0  0  0  0  0  0  0  0  0  0  0
  -29.9210  -20.7800   21.6120 N   0  0  0  0  0  0  0  0  0  0  0  0
  -28.0640  -21.0120   20.1650 N   0  0  0  0  0  0  0  0  0  0  0  0
  -29.0360  -18.9300   18.7570 C   0  0  0  0  0  1  0  0  0  0  0  0
  -28.1990  -17.8630   20.8540 C   0  0  0  0  0  1  0  0  0  0  0  0
  -29.2500  -18.8620   20.2960 C   0  0  2  0  0  0  0  0  0  0  0  0
  -30.6760  -18.5530   20.7250 N   0  0  1  0  0  4  0  0  0  0  0  0
  -31.0310  -19.4050   20.2830 H   0  0  0  0  0  0  0  0  0  0  0  0
  -30.2470  -19.5250   23.1470 C   0  0  0  0  0  1  0  0  0  0  0  0
  -32.5220  -19.5900   22.0890 C   0  0  0  0  0  1  0  0  0  0  0  0
  -31.1790  -18.8250   22.1330 C   0  0  0  0  0  3  0  0  0  0  0  0
  -31.8700  -17.6840   18.6250 C   0  0  0  0  0  1  0  0  0  0  0  0
  -31.4250  -17.4190   20.0830 C   0  0  0  0  0  3  0  0  0  0  0  0
  -30.8020  -16.0250   20.3690 C   0  0  0  0  0  2  0  0  0  0  0  0
  -31.5940  -14.1690   18.9640 C   0  0  0  0  0  0  0  0  0  0  0  0
  -30.9380  -11.8930   18.2800 C   0  0  0  0  0  2  0  0  0  0  0  0
  -29.8170  -11.8650   17.2280 C   0  0  0  0  0  2  0  0  0  0  0  0
  -28.4330  -11.9290   17.9020 C   0  0  0  0  0  2  0  0  0  0  0  0
  -28.3310  -13.0820   18.9350 C   0  0  0  0  0  3  0  0  0  0  0  0
  -29.5360  -13.0440   19.9000 C   0  0  0  0  0  2  0  0  0  0  0  0
  -30.7790  -13.0930   19.1100 N   0  0  0  0  0  0  0  0  0  0  0  0
  -32.4110  -14.2810   18.0430 O   0  0  0  0  0  0  0  0  0  0  0  0
  -32.9760  -14.8990   20.8260 C   0  0  0  0  0  1  0  0  0  0  0  0
  -31.7120  -14.9090   20.0840 N   0  0  0  0  0  0  0  0  0  0  0  0
  -26.2920  -14.0830   20.1470 C   0  0  0  0  0  0  0  0  0  0  0  0
  -25.1690  -13.5060   20.6770 C   0  0  0  0  0  0  0  0  0  0  0  0
  -25.3110  -12.1000   20.4630 C   0  0  0  0  0  0  0  0  0  0  0  0
  -27.0610  -13.0400   19.6550 N   0  0  0  0  0  0  0  0  0  0  0  0
  -26.4810  -11.8360   19.8990 N   0  0  0  0  0  0  0  0  0  0  0  0
  -24.3750  -10.9950   20.7110 C   0  0  0  0  0  0  0  0  0  0  0  0
  -24.7440   -9.8810   21.4960 C   0  0  0  0  0  3  0  0  0  0  0  0
  -23.8240   -8.8390   21.7350 C   0  0  0  0  0  3  0  0  0  0  0  0
  -22.5200   -8.9050   21.1900 C   0  0  0  0  0  0  0  0  0  0  0  0
  -22.1640  -10.0050   20.3890 C   0  0  0  0  0  3  0  0  0  0  0  0
  -23.0830  -11.0400   20.1490 C   0  0  0  0  0  3  0  0  0  0  0  0
  -21.5660   -7.9290   21.3520 O   0  0  0  0  0  0  0  0  0  0  0  0
  -21.5280   -7.1360   22.4700 C   0  0  0  0  0  0  0  0  0  0  0  0
  -21.3940   -7.6820   23.7670 C   0  0  0  0  0  3  0  0  0  0  0  0
  -21.2910   -6.8260   24.8820 C   0  0  0  0  0  3  0  0  0  0  0  0
  -21.3110   -5.4310   24.7050 C   0  0  0  0  0  0  0  0  0  0  0  0
  -21.4370   -4.8870   23.4150 C   0  0  0  0  0  3  0  0  0  0  0  0
  -21.5420   -5.7380   22.3000 C   0  0  0  0  0  0  0  0  0  0  0  0
  -21.6430   -5.2090   21.0580 F   0  0  0  0  0  0  0  0  0  0  0  0
  -21.2030   -4.6090   25.7750 F   0  0  0  0  0  0  0  0  0  0  0  0
  -23.9840  -14.2190   21.2590 C   0  0  0  0  0  0  0  0  0  0  0  0
  -23.3370  -13.6200   22.2530 N   0  0  0  0  0  0  0  0  0  0  0  0
  -23.6530  -15.3390   20.8680 O   0  0  0  0  0  0  0  0  0  0  0  0
  -23.6210  -12.7110   22.5900 H   0  0  0  0  0  0  0  0  0  0  0  0
  -22.5470  -14.0780   22.6860 H   0  0  0  0  0  0  0  0  0  0  0  0
  -26.7160  -15.4020   20.0240 N   0  0  0  0  0  0  0  0  0  0  0  0
  -26.1300  -16.1810   20.3030 H   0  0  0  0  0  0  0  0  0  0  0  0
  -27.5280  -15.6820   19.4890 H   0  0  0  0  0  0  0  0  0  0  0  0
  -28.7860  -24.3510   21.8510 C   0  0  0  0  0  2  0  0  0  0  0  0
  -29.2770  -25.2670   20.7240 C   0  0  0  0  0  2  0  0  0  0  0  0
  -29.7070  -26.6510   21.2260 C   0  0  0  0  0  2  0  0  0  0  0  0
  -29.5150  -27.6010   20.1890 O   0  0  0  0  0  0  0  0  0  0  0  0
  -24.7690  -31.8470   23.3490 C   0  0  0  0  0  0  0  0  0  0  0  0
  -28.2520  -28.1290   20.1790 C   0  0  0  0  0  0  0  0  0  0  0  0
  -23.8950  -30.4060   21.5340 C   0  0  0  0  0  3  0  0  0  0  0  0
  -25.6530  -29.2100   20.1300 C   0  0  0  0  0  0  0  0  0  0  0  0
  -26.3410  -31.1560   21.5480 C   0  0  0  0  0  2  0  0  0  0  0  0
  -26.6720  -29.8640   20.8340 C   0  0  0  0  0  0  0  0  0  0  0  0
  -27.9730  -29.3260   20.8680 C   0  0  0  0  0  3  0  0  0  0  0  0
  -27.2250  -27.4780   19.4690 C   0  0  0  0  0  3  0  0  0  0  0  0
  -25.9210  -28.0070   19.4510 C   0  0  0  0  0  3  0  0  0  0  0  0
  -24.2910  -29.8630   20.1350 C   0  0  0  0  0  2  0  0  0  0  0  0
  -25.0140  -31.1480   22.2040 N   0  0  0  0  0  0  0  0  0  0  0  0
  -23.6280  -31.9140   23.8230 O   0  0  0  0  0  0  0  0  0  0  0  0
  -23.3510  -29.2320   22.3780 C   0  0  0  0  0  0  0  0  0  0  0  0
  -22.0590  -28.9130   22.1920 N   0  0  0  0  0  0  0  0  0  0  0  0
  -24.0860  -28.6170   23.1550 O   0  0  0  0  0  0  0  0  0  0  0  0
  -21.5160  -29.4790   21.5520 H   0  0  0  0  0  0  0  0  0  0  0  0
  -18.8150  -27.3680   22.5270 C   0  0  0  0  0  0  0  0  0  0  0  0
  -21.3390  -27.8210   22.8460 C   0  0  0  0  0  3  0  0  0  0  0  0
  -21.5720  -26.4790   22.1120 C   0  0  0  0  0  2  0  0  0  0  0  0
  -20.4990  -26.1720   21.0610 C   0  0  0  0  0  2  0  0  0  0  0  0
  -19.1110  -26.1230   21.7070 C   0  0  0  0  0  2  0  0  0  0  0  0
  -19.8600  -28.1730   23.0480 C   0  0  0  0  0  0  0  0  0  0  0  0
  -19.5300  -29.3380   23.7740 C   0  0  0  0  0  3  0  0  0  0  0  0
  -18.1850  -29.7010   23.9810 C   0  0  0  0  0  3  0  0  0  0  0  0
  -17.1530  -28.8900   23.4770 C   0  0  0  0  0  3  0  0  0  0  0  0
  -17.4690  -27.7250   22.7560 C   0  0  0  0  0  3  0  0  0  0  0  0
  -25.9050  -32.6110   24.0980 C   0  0  0  0  0  3  0  0  0  0  0  0
  -26.2940  -31.9500   25.4780 C   0  0  1  0  0  0  0  0  0  0  0  0
  -25.0750  -31.5780   26.3540 C   0  0  0  0  0  1  0  0  0  0  0  0
  -27.1190  -30.6610   25.2500 C   0  0  0  0  0  1  0  0  0  0  0  0
  -27.1920  -32.9140   26.2900 C   0  0  0  0  0  1  0  0  0  0  0  0
  -25.4530  -33.9940   24.2920 N   0  0  0  0  0  0  0  0  0  0  0  0
  -25.7830  -35.0210   23.4960 C   0  0  0  0  0  0  0  0  0  0  0  0
  -26.5680  -34.9110   22.5520 O   0  0  0  0  0  0  0  0  0  0  0  0
  -24.7700  -34.1480   25.0200 H   0  0  0  0  0  0  0  0  0  0  0  0
  -23.9430  -36.6080   22.8580 C   0  0  0  0  0  1  0  0  0  0  0  0
  -25.1400  -36.3870   23.7960 C   0  0  0  0  0  3  0  0  0  0  0  0
  -27.1380  -37.4990   24.6890 C   0  0  0  0  0  1  0  0  0  0  0  0
  -26.0820  -37.5210   23.6790 N   0  0  0  0  0  0  0  0  0  0  0  0
  -25.5920  -38.4080   23.7530 H   0  0  0  0  0  0  0  0  0  0  0  0
  -26.7960  -23.0450   19.8250 C   0  0  0  0  0  2  0  0  0  0  0  0
  -24.3850  -23.8740   20.1240 C   0  0  0  0  0  1  0  0  0  0  0  0
  -25.5500  -23.0720   20.7230 C   0  0  0  0  0  2  0  0  0  0  0  0
  2 56  1  0
  2  1  2  0
  3  2  1  0
  4  5  2  0
  5  1  1  0
  6  3  2  0
  6  4  1  0
  9  7  1  6
  9 10  1  0
  9  4  1  0
  9  8  1  0
 10 14  1  0
 10 11  1  6
 13 14  1  0
 14 12  1  0
 16 15  1  0
 16 17  1  0
 16 10  1  0
 18 24  1  0
 18 27  1  0
 19 24  1  0
 20 21  1  0
 20 19  1  0
 22 21  1  0
 22 31  1  0
 22 23  1  0
 24 23  1  0
 25 18  2  0
 27 17  1  0
 27 26  1  0
 28 29  2  0
 29 48  1  0
 30 29  1  0
 30 33  1  0
 31 32  1  0
 31 28  1  0
 32 30  2  0
 33 34  1  0
 34 35  2  0
 36 39  1  0
 36 35  1  0
 37 36  2  0
 38 37  1  0
 38 33  2  0
 39 40  1  0
 40 41  1  0
 41 42  2  0
 43 42  1  0
 43 47  1  0
 44 43  2  0
 45 40  2  0
 45 44  1  0
 46 45  1  0
 48 49  1  0
 49 51  1  0
 49 52  1  0
 50 48  2  0
 53 28  1  0
 53 54  1  0
 55 53  1  0
 57 58  1  0
 57 56  1  0
 59 58  1  0
 60 71  2  0
 61 59  1  0
 61 66  1  0
 62 70  1  0
 62 72  1  0
 63 69  1  0
 63 65  1  0
 64 70  1  0
 65 66  2  0
 65 64  1  0
 67 61  2  0
 68 67  1  0
 68 63  2  0
 69 62  1  0
 70 60  1  0
 72 74  2  0
 73 72  1  0
 75 73  1  0
 76 85  2  0
 76 81  1  0
 77 73  1  0
 77 81  1  0
 78 77  1  0
 79 80  1  0
 79 78  1  0
 80 76  1  0
 81 82  2  0
 82 83  1  0
 84 83  2  0
 85 84  1  0
 86 60  1  0
 86 91  1  0
 86 87  1  0
 87 90  1  1
 87 88  1  0
 89 87  1  0
 91 94  1  0
 92 96  1  0
 92 91  1  0
 93 92  2  0
 96 95  1  0
 98 99  1  0
 98 96  1  0
 98 97  1  0
100  3  1  0
100102  1  0
101102  1  0
M  ISO  4  18 100  27 100  58 101  59 101
M  END
>  <TORSDO>  (16) 
F 26

>  <SCORE>  (16) 
-8.021

>  <name>  (16) 
17

>  <ligand_id>  (16) 
17

>  <original_smiles>  (16) 
[H]c1nc(C(C([H])([H])[H])(C([H])([H])[H])[N+]([H])(C([H])(C([H])([H])[H])C([H])([H])[H])C([H])(C([H])([H])[H])C([H])([H])N(C(=O)N2C([H])([H])C([H])([H])C([H])([H])C([H])(n3nc(-c4c([H])c([H])c(Oc5c([H])c([H])c(F)c([H])c5F)c([H])c4[H])c(C(=O)N([H])[H])c3N([H])[H])C2([H])[H])C([H])([H])[H])nc(C([H])([H])C([H])([H])C([H])([H])[H])c1C([H])([H])C([H])([H])C([H])([H])Oc1c([H])c([H])c2c(c1[H])C([H])([H])N(C(=O)C([H])(N([H])C(=O)C([H])(N([H])C([H])([H])[H])C([H])([H])[H])C(C([H])([H])[H])(C([H])([H])[H])C([H])([H])[H])C([H])(C(=O)N([H])C1([H])c3c([H])c([H])c([H])c([H])c3C([H])([H])C([H])([H])C1([H])[H])C2([H])[H]

>  <smiles>  (16) 
[H]c1nc(C(C([H])([H])[H])(C([H])([H])[H])[N+]([H])(C([H])(C([H])([H])[H])C([H])([H])[H])C([H])(C([H])([H])[H])C([H])([H])N(C(=O)N2C([H])([H])C([H])([H])C([H])([H])C([H])(n3nc(-c4c([H])c([H])c(Oc5c([H])c([H])c(F)c([H])c5F)c([H])c4[H])c(C(=O)N([H])[H])c3N([H])[H])C2([H])[H])C([H])([H])[H])nc(C([H])([H])C([H])([H])C([H])([H])[H])c1C([H])([H])C([H])([H])C([H])([H])Oc1c([H])c([H])c2c(c1[H])C([H])([H])N(C(=O)C([H])(N([H])C(=O)C([H])(N([H])C([H])([H])[H])C([H])([H])[H])C(C([H])([H])[H])(C([H])([H])[H])C([H])([H])[H])C([H])(C(=O)N([H])C1([H])c3c([H])c([H])c([H])c([H])c3C([H])([H])C([H])([H])C1([H])[H])C2([H])[H]

$$$$
18:0:0
     RDKit          3D

 97105  0  0  1  0  0  0  0  0999 V2000
  -28.9670  -20.7650   19.5610 C   0  0  0  0  0  0  0  0  0  0  0  0
  -29.2710  -21.6370   20.6270 C   0  0  0  0  0  0  0  0  0  0  0  0
  -30.4620  -19.1720   20.3950 C   0  0  0  0  0  0  0  0  0  0  0  0
  -30.7120  -20.0330   21.5230 C   0  0  0  0  0  0  0  0  0  0  0  0
  -27.9780  -21.1150   18.4680 C   0  0  0  0  0  1  0  0  0  0  0  0
  -29.5460  -19.5520   19.4620 N   0  0  0  0  0  0  0  0  0  0  0  0
  -30.1390  -21.2710   21.5940 N   0  0  0  0  0  0  0  0  0  0  0  0
  -31.5460  -19.6670   22.7620 C   0  0  1  0  0  0  0  0  0  0  0  0
  -31.2120  -18.4630   23.2240 F   0  0  0  0  0  0  0  0  0  0  0  0
  -32.8530  -19.7200   22.5060 F   0  0  0  0  0  0  0  0  0  0  0  0
  -31.3180  -20.5260   23.7610 F   0  0  0  0  0  0  0  0  0  0  0  0
  -32.4490  -17.5060   20.7520 C   0  0  0  0  0  1  0  0  0  0  0  0
  -31.3590  -17.6980   18.5720 C   0  0  0  0  0  1  0  0  0  0  0  0
  -31.0680  -17.7600   20.1020 C   0  0  2  0  0  0  0  0  0  0  0  0
  -29.9990  -16.6890   20.5270 C   0  0  0  0  0  2  0  0  0  0  0  0
  -30.8450  -14.3960   19.9640 C   0  0  0  0  0  0  0  0  0  0  0  0
  -30.3480  -12.3100   18.7390 C   0  0  0  0  0  2  0  0  0  0  0  0
  -29.3160  -12.5580   17.6200 C   0  0  0  0  0  2  0  0  0  0  0  0
  -27.8820  -12.4290   18.1660 C   0  0  0  0  0  2  0  0  0  0  0  0
  -27.6640  -13.2460   19.4650 C   0  0  0  0  0  3  0  0  0  0  0  0
  -28.7980  -12.9880   20.4820 C   0  0  0  0  0  2  0  0  0  0  0  0
  -30.0880  -13.2700   19.8260 N   0  0  0  0  0  0  0  0  0  0  0  0
  -31.8250  -14.6100   19.2520 O   0  0  0  0  0  0  0  0  0  0  0  0
  -30.5940  -15.0390   22.3020 C   0  0  0  0  0  1  0  0  0  0  0  0
  -30.4220  -15.3080   20.8680 N   0  0  0  0  0  0  0  0  0  0  0  0
  -25.3380  -13.8680   20.3760 C   0  0  0  0  0  0  0  0  0  0  0  0
  -24.2920  -13.1000   20.8180 C   0  0  0  0  0  0  0  0  0  0  0  0
  -24.7310  -11.7440   20.7240 C   0  0  0  0  0  0  0  0  0  0  0  0
  -26.3490  -12.9780   20.0460 N   0  0  0  0  0  0  0  0  0  0  0  0
  -25.9910  -11.6950   20.3100 N   0  0  0  0  0  0  0  0  0  0  0  0
  -24.0070  -10.4870   20.9490 C   0  0  0  0  0  0  0  0  0  0  0  0
  -24.4650   -9.5250   21.8760 C   0  0  0  0  0  3  0  0  0  0  0  0
  -23.7400   -8.3340   22.0880 C   0  0  0  0  0  3  0  0  0  0  0  0
  -22.5410   -8.0950   21.3730 C   0  0  0  0  0  0  0  0  0  0  0  0
  -22.1020   -9.0460   20.4360 C   0  0  0  0  0  3  0  0  0  0  0  0
  -22.8280  -10.2290   20.2230 C   0  0  0  0  0  3  0  0  0  0  0  0
  -21.7840   -6.9550   21.4950 O   0  0  0  0  0  0  0  0  0  0  0  0
  -21.7200   -6.2570   22.6740 C   0  0  0  0  0  0  0  0  0  0  0  0
  -21.2880   -6.8620   23.8750 C   0  0  0  0  0  3  0  0  0  0  0  0
  -21.1710   -6.0910   25.0480 C   0  0  0  0  0  3  0  0  0  0  0  0
  -21.4740   -4.7160   25.0220 C   0  0  0  0  0  0  0  0  0  0  0  0
  -21.8970   -4.1120   23.8260 C   0  0  0  0  0  3  0  0  0  0  0  0
  -22.0170   -4.8800   22.6540 C   0  0  0  0  0  0  0  0  0  0  0  0
  -22.4040   -4.2870   21.4990 F   0  0  0  0  0  0  0  0  0  0  0  0
  -21.3540   -3.9730   26.1470 F   0  0  0  0  0  0  0  0  0  0  0  0
  -22.9310  -13.5900   21.2150 C   0  0  0  0  0  0  0  0  0  0  0  0
  -22.2780  -12.8940   22.1400 N   0  0  0  0  0  0  0  0  0  0  0  0
  -22.4570  -14.6220   20.7430 O   0  0  0  0  0  0  0  0  0  0  0  0
  -22.6770  -12.0580   22.5400 H   0  0  0  0  0  0  0  0  0  0  0  0
  -21.3700  -13.2030   22.4540 H   0  0  0  0  0  0  0  0  0  0  0  0
  -25.5070  -15.2390   20.2110 N   0  0  0  0  0  0  0  0  0  0  0  0
  -24.7730  -15.9080   20.4170 H   0  0  0  0  0  0  0  0  0  0  0  0
  -26.3390  -15.6700   19.8290 H   0  0  0  0  0  0  0  0  0  0  0  0
  -28.5950  -22.9910   20.7950 C   0  0  0  0  0  2  0  0  0  0  0  0
  -29.3970  -24.1840   20.2280 C   0  0  0  0  0  2  0  0  0  0  0  0
  -28.4630  -25.3780   19.8950 C   0  0  0  0  0  2  0  0  0  0  0  0
  -28.5390  -26.7580   20.2670 O   0  0  0  0  0  0  0  0  0  0  0  0
  -24.5900  -31.8250   23.3150 C   0  0  0  0  0  0  0  0  0  0  0  0
  -27.3570  -27.4780   20.2100 C   0  0  0  0  0  0  0  0  0  0  0  0
  -23.4450  -30.4630   21.5960 C   0  0  0  0  0  3  0  0  0  0  0  0
  -24.9500  -28.9670   20.1840 C   0  0  0  0  0  0  0  0  0  0  0  0
  -25.9720  -30.8350   21.4930 C   0  0  0  0  0  2  0  0  0  0  0  0
  -26.0850  -29.4820   20.8250 C   0  0  0  0  0  0  0  0  0  0  0  0
  -27.2910  -28.7440   20.8350 C   0  0  0  0  0  3  0  0  0  0  0  0
  -26.1980  -26.9770   19.5680 C   0  0  0  0  0  3  0  0  0  0  0  0
  -24.9990  -27.7150   19.5560 C   0  0  0  0  0  3  0  0  0  0  0  0
  -23.7040  -29.8230   20.2080 C   0  0  0  0  0  2  0  0  0  0  0  0
  -24.6860  -31.0540   22.1950 N   0  0  0  0  0  0  0  0  0  0  0  0
  -23.4900  -32.0840   23.8210 O   0  0  0  0  0  0  0  0  0  0  0  0
  -22.7640  -29.4160   22.5050 C   0  0  0  0  0  0  0  0  0  0  0  0
  -21.4480  -29.2300   22.3200 N   0  0  0  0  0  0  0  0  0  0  0  0
  -23.4190  -28.7740   23.3310 O   0  0  0  0  0  0  0  0  0  0  0  0
  -20.9850  -29.8000   21.6250 H   0  0  0  0  0  0  0  0  0  0  0  0
  -18.0640  -28.0010   22.6350 C   0  0  0  0  0  0  0  0  0  0  0  0
  -20.6030  -28.2720   23.0340 C   0  0  0  0  0  3  0  0  0  0  0  0
  -20.7460  -26.8520   22.4390 C   0  0  0  0  0  2  0  0  0  0  0  0
  -19.6960  -26.5390   21.3690 C   0  0  0  0  0  2  0  0  0  0  0  0
  -18.2840  -26.6640   21.9480 C   0  0  0  0  0  2  0  0  0  0  0  0
  -19.1540  -28.7630   23.1310 C   0  0  0  0  0  0  0  0  0  0  0  0
  -18.8970  -30.0150   23.7300 C   0  0  0  0  0  3  0  0  0  0  0  0
  -17.5820  -30.5030   23.8420 C   0  0  0  0  0  3  0  0  0  0  0  0
  -16.5040  -29.7370   23.3650 C   0  0  0  0  0  3  0  0  0  0  0  0
  -16.7470  -28.4870   22.7660 C   0  0  0  0  0  3  0  0  0  0  0  0
  -25.8520  -32.4410   23.9930 C   0  0  0  0  0  3  0  0  0  0  0  0
  -25.5240  -33.8220   24.3680 N   0  0  0  0  0  0  0  0  0  0  0  0
  -25.8690  -34.9040   23.6560 C   0  0  0  0  0  0  0  0  0  0  0  0
  -26.5700  -34.8420   22.6420 O   0  0  0  0  0  0  0  0  0  0  0  0
  -24.9050  -33.9420   25.1560 H   0  0  0  0  0  0  0  0  0  0  0  0
  -24.1400  -36.6980   23.3110 C   0  0  0  0  0  1  0  0  0  0  0  0
  -25.3570  -36.2710   24.1480 C   0  0  0  0  0  3  0  0  0  0  0  0
  -27.4570  -37.1330   25.0820 C   0  0  0  0  0  1  0  0  0  0  0  0
  -26.3850  -37.3340   24.1120 N   0  0  0  0  0  0  0  0  0  0  0  0
  -25.9670  -38.2440   24.2840 H   0  0  0  0  0  0  0  0  0  0  0  0
  -26.3440  -31.6210   25.2490 C   0  0  1  0  0  0  0  0  0  0  0  0
  -25.2240  -31.3290   26.2760 C   0  0  0  0  0  1  0  0  0  0  0  0
  -26.9520  -30.2680   24.8120 C   0  0  0  0  0  1  0  0  0  0  0  0
  -27.4700  -32.3980   25.9730 C   0  0  0  0  0  1  0  0  0  0  0  0
  1  2  1  0
  2 54  1  0
  2  7  2  0
  3  4  2  0
  4  7  1  0
  4  8  1  0
  5  1  1  0
  6  1  2  0
  6  3  1  0
  8  9  1  1
  8 11  1  0
 10  8  1  0
 14 13  1  6
 14  3  1  0
 14 15  1  0
 14 12  1  0
 15 25  1  0
 16 25  1  0
 17 22  1  0
 18 19  1  0
 18 17  1  0
 20 19  1  0
 20 29  1  0
 20 21  1  0
 22 16  1  0
 22 21  1  0
 23 16  2  0
 25 24  1  0
 26 27  2  0
 27 46  1  0
 28 27  1  0
 28 31  1  0
 29 30  1  0
 29 26  1  0
 30 28  2  0
 31 32  1  0
 32 33  2  0
 34 37  1  0
 34 33  1  0
 35 34  2  0
 36 35  1  0
 36 31  2  0
 37 38  1  0
 38 39  1  0
 39 40  2  0
 41 40  1  0
 41 45  1  0
 42 41  2  0
 43 38  2  0
 43 42  1  0
 44 43  1  0
 46 47  1  0
 47 50  1  0
 47 49  1  0
 48 46  2  0
 51 26  1  0
 51 52  1  0
 53 51  1  0
 55 54  1  0
 56 55  1  0
 56 57  1  0
 58 69  2  0
 59 57  1  0
 59 64  1  0
 60 68  1  0
 60 70  1  0
 61 67  1  0
 61 63  1  0
 62 68  1  0
 63 64  2  0
 63 62  1  0
 65 59  2  0
 66 65  1  0
 66 61  2  0
 67 60  1  0
 68 58  1  0
 70 72  2  0
 71 70  1  0
 73 71  1  0
 74 83  2  0
 74 79  1  0
 75 71  1  0
 75 79  1  0
 76 75  1  0
 77 78  1  0
 77 76  1  0
 78 74  1  0
 79 80  2  0
 80 81  1  0
 82 81  2  0
 83 82  1  0
 84 58  1  0
 84 85  1  0
 84 94  1  0
 85 88  1  0
 86 90  1  0
 86 85  1  0
 87 86  2  0
 90 89  1  0
 92 90  1  0
 92 93  1  0
 92 91  1  0
 94 97  1  1
 94 95  1  0
 96 94  1  0
M  ISO  4  16 100  25 100  56 101  57 101
M  END
>  <TORSDO>  (17) 
F 22

>  <SCORE>  (17) 
-12.505

>  <name>  (17) 
18

>  <ligand_id>  (17) 
18

>  <original_smiles>  (17) 
[H]c1c([H])c([H])c2c(c1[H])C([H])([H])C([H])([H])C([H])([H])C2([H])N([H])C(=O)C1([H])N(C(=O)C([H])(N([H])C(=O)C([H])(N([H])C([H])([H])[H])C([H])([H])[H])C(C([H])([H])[H])(C([H])([H])[H])C([H])([H])[H])C([H])([H])c2c([H])c(OC([H])([H])C([H])([H])C([H])([H])c3nc(C(F)(F)F)c(C(C([H])([H])[H])(C([H])([H])[H])C([H])([H])N(C(=O)N4C([H])([H])C([H])([H])C([H])([H])C([H])(n5nc(-c6c([H])c([H])c(Oc7c([H])c([H])c(F)c([H])c7F)c([H])c6[H])c(C(=O)N([H])[H])c5N([H])[H])C4([H])[H])C([H])([H])[H])nc3C([H])([H])[H])c([H])c([H])c2C1([H])[H]

>  <smiles>  (17) 
[H]c1c([H])c([H])c2c(c1[H])C([H])([H])C([H])([H])C([H])([H])C2([H])N([H])C(=O)C1([H])N(C(=O)C([H])(N([H])C(=O)C([H])(N([H])C([H])([H])[H])C([H])([H])[H])C(C([H])([H])[H])(C([H])([H])[H])C([H])([H])[H])C([H])([H])c2c([H])c(OC([H])([H])C([H])([H])C([H])([H])c3nc(C(F)(F)F)c(C(C([H])([H])[H])(C([H])([H])[H])C([H])([H])N(C(=O)N4C([H])([H])C([H])([H])C([H])([H])C([H])(n5nc(-c6c([H])c([H])c(Oc7c([H])c([H])c(F)c([H])c7F)c([H])c6[H])c(C(=O)N([H])[H])c5N([H])[H])C4([H])[H])C([H])([H])[H])nc3C([H])([H])[H])c([H])c([H])c2C1([H])[H]

$$$$
19:0:0
     RDKit          3D

 94102  0  0  1  0  0  0  0  0999 V2000
  -31.1330  -21.2470   20.5960 C   0  0  0  0  0  0  0  0  0  0  0  0
  -31.6470  -19.2000   20.6350 C   0  0  0  0  0  0  0  0  0  0  0  0
  -31.7980  -21.0260   19.4620 N   0  0  0  0  0  0  0  0  0  0  0  0
  -32.0960  -19.6920   19.4700 N   0  0  0  0  0  0  0  0  0  0  0  0
  -30.9400  -20.1310   21.3420 N   0  0  0  0  0  0  0  0  0  0  0  0
  -32.1130  -17.5960   22.5470 C   0  0  0  0  0  1  0  0  0  0  0  0
  -33.2410  -17.2780   20.4240 C   0  0  0  0  0  1  0  0  0  0  0  0
  -31.8860  -17.7310   21.0230 C   0  0  2  0  0  0  0  0  0  0  0  0
  -30.6970  -16.8470   20.4920 C   0  0  0  0  0  2  0  0  0  0  0  0
  -30.9980  -14.4670   19.8180 C   0  0  0  0  0  0  0  0  0  0  0  0
  -30.5030  -12.3570   18.6140 C   0  0  0  0  0  2  0  0  0  0  0  0
  -29.4590  -12.5680   17.4950 C   0  0  0  0  0  2  0  0  0  0  0  0
  -28.0300  -12.4240   18.0530 C   0  0  0  0  0  2  0  0  0  0  0  0
  -27.8170  -13.2620   19.3350 C   0  0  0  0  0  3  0  0  0  0  0  0
  -28.9550  -13.0090   20.3410 C   0  0  0  0  0  2  0  0  0  0  0  0
  -30.2510  -13.3240   19.7040 N   0  0  0  0  0  0  0  0  0  0  0  0
  -31.8750  -14.7200   18.9870 O   0  0  0  0  0  0  0  0  0  0  0  0
  -30.3760  -15.0500   22.1790 C   0  0  0  0  0  1  0  0  0  0  0  0
  -30.6830  -15.3870   20.7810 N   0  0  0  0  0  0  0  0  0  0  0  0
  -25.5250  -13.8940   20.3270 C   0  0  0  0  0  0  0  0  0  0  0  0
  -24.4840  -13.1290   20.7830 C   0  0  0  0  0  0  0  0  0  0  0  0
  -24.9050  -11.7710   20.6510 C   0  0  0  0  0  0  0  0  0  0  0  0
  -26.5130  -13.0000   19.9430 N   0  0  0  0  0  0  0  0  0  0  0  0
  -26.1490  -11.7160   20.1940 N   0  0  0  0  0  0  0  0  0  0  0  0
  -24.1730  -10.5170   20.8750 C   0  0  0  0  0  0  0  0  0  0  0  0
  -24.5890   -9.5840   21.8480 C   0  0  0  0  0  3  0  0  0  0  0  0
  -23.8610   -8.3940   22.0560 C   0  0  0  0  0  3  0  0  0  0  0  0
  -22.6990   -8.1300   21.2910 C   0  0  0  0  0  0  0  0  0  0  0  0
  -22.3020   -9.0530   20.3090 C   0  0  0  0  0  3  0  0  0  0  0  0
  -23.0310  -10.2350   20.0990 C   0  0  0  0  0  3  0  0  0  0  0  0
  -21.9440   -6.9880   21.4050 O   0  0  0  0  0  0  0  0  0  0  0  0
  -21.7750   -6.3550   22.6090 C   0  0  0  0  0  0  0  0  0  0  0  0
  -21.1990   -7.0100   23.7200 C   0  0  0  0  0  3  0  0  0  0  0  0
  -20.9790   -6.3020   24.9190 C   0  0  0  0  0  3  0  0  0  0  0  0
  -21.3240   -4.9390   25.0050 C   0  0  0  0  0  0  0  0  0  0  0  0
  -21.8910   -4.2830   23.8980 C   0  0  0  0  0  3  0  0  0  0  0  0
  -22.1120   -4.9900   22.7030 C   0  0  0  0  0  0  0  0  0  0  0  0
  -22.6400   -4.3500   21.6320 F   0  0  0  0  0  0  0  0  0  0  0  0
  -21.1040   -4.2560   26.1520 F   0  0  0  0  0  0  0  0  0  0  0  0
  -23.1390  -13.6260   21.2280 C   0  0  0  0  0  0  0  0  0  0  0  0
  -22.5050  -12.9250   22.1610 N   0  0  0  0  0  0  0  0  0  0  0  0
  -22.6630  -14.6690   20.7790 O   0  0  0  0  0  0  0  0  0  0  0  0
  -22.9050  -12.0810   22.5430 H   0  0  0  0  0  0  0  0  0  0  0  0
  -21.6060  -13.2390   22.4980 H   0  0  0  0  0  0  0  0  0  0  0  0
  -25.7060  -15.2660   20.1880 N   0  0  0  0  0  0  0  0  0  0  0  0
  -24.9740  -15.9310   20.4120 H   0  0  0  0  0  0  0  0  0  0  0  0
  -26.5320  -15.7000   19.7960 H   0  0  0  0  0  0  0  0  0  0  0  0
  -30.8820  -20.5470   23.8200 C   0  0  0  0  0  1  0  0  0  0  0  0
  -30.1530  -20.0230   22.5700 C   0  0  0  0  0  2  0  0  0  0  0  0
  -30.7250  -22.6360   21.0120 C   0  0  0  0  0  2  0  0  0  0  0  0
  -29.6270  -23.2920   20.1540 C   0  0  0  0  0  2  0  0  0  0  0  0
  -29.5750  -24.8210   20.3720 C   0  0  0  0  0  2  0  0  0  0  0  0
  -28.4130  -25.5220   19.6500 C   0  0  0  0  0  2  0  0  0  0  0  0
  -28.4590  -26.9240   19.9440 O   0  0  0  0  0  0  0  0  0  0  0  0
  -24.8160  -31.9540   23.3990 C   0  0  0  0  0  0  0  0  0  0  0  0
  -27.2770  -27.6320   20.0020 C   0  0  0  0  0  0  0  0  0  0  0  0
  -23.5260  -30.6480   21.7420 C   0  0  0  0  0  3  0  0  0  0  0  0
  -24.8990  -29.1610   20.1880 C   0  0  0  0  0  0  0  0  0  0  0  0
  -26.0480  -30.9820   21.4600 C   0  0  0  0  0  2  0  0  0  0  0  0
  -26.0850  -29.6420   20.7540 C   0  0  0  0  0  0  0  0  0  0  0  0
  -27.2750  -28.8840   20.6590 C   0  0  0  0  0  3  0  0  0  0  0  0
  -26.0700  -27.1660   19.4280 C   0  0  0  0  0  3  0  0  0  0  0  0
  -24.8850  -27.9220   19.5240 C   0  0  0  0  0  3  0  0  0  0  0  0
  -23.6710  -30.0310   20.3250 C   0  0  0  0  0  2  0  0  0  0  0  0
  -24.8180  -31.2070   22.2590 N   0  0  0  0  0  0  0  0  0  0  0  0
  -23.7620  -32.2130   23.9940 O   0  0  0  0  0  0  0  0  0  0  0  0
  -22.9010  -29.5880   22.6780 C   0  0  0  0  0  0  0  0  0  0  0  0
  -21.5940  -29.3350   22.5050 N   0  0  0  0  0  0  0  0  0  0  0  0
  -23.5900  -28.9960   23.5130 O   0  0  0  0  0  0  0  0  0  0  0  0
  -21.0990  -29.8690   21.8040 H   0  0  0  0  0  0  0  0  0  0  0  0
  -18.2930  -27.9030   22.8260 C   0  0  0  0  0  0  0  0  0  0  0  0
  -20.8030  -28.3530   23.2460 C   0  0  0  0  0  3  0  0  0  0  0  0
  -21.0450  -26.9250   22.7050 C   0  0  0  0  0  2  0  0  0  0  0  0
  -20.0340  -26.5070   21.6330 C   0  0  0  0  0  2  0  0  0  0  0  0
  -18.6080  -26.5600   22.1900 C   0  0  0  0  0  2  0  0  0  0  0  0
  -19.3250  -28.7520   23.3070 C   0  0  0  0  0  0  0  0  0  0  0  0
  -18.9810  -30.0060   23.8570 C   0  0  0  0  0  3  0  0  0  0  0  0
  -17.6350  -30.4140   23.9330 C   0  0  0  0  0  3  0  0  0  0  0  0
  -16.6160  -29.5630   23.4700 C   0  0  0  0  0  3  0  0  0  0  0  0
  -16.9450  -28.3110   22.9220 C   0  0  0  0  0  3  0  0  0  0  0  0
  -26.1340  -32.5370   23.9960 C   0  0  0  0  0  3  0  0  0  0  0  0
  -25.8600  -33.9210   24.4020 N   0  0  0  0  0  0  0  0  0  0  0  0
  -26.1850  -35.0040   23.6820 C   0  0  0  0  0  0  0  0  0  0  0  0
  -26.8190  -34.9400   22.6260 O   0  0  0  0  0  0  0  0  0  0  0  0
  -25.2900  -34.0450   25.2260 H   0  0  0  0  0  0  0  0  0  0  0  0
  -24.4900  -36.8470   23.4520 C   0  0  0  0  0  1  0  0  0  0  0  0
  -25.7350  -36.3760   24.2200 C   0  0  0  0  0  3  0  0  0  0  0  0
  -27.8960  -37.1750   25.0670 C   0  0  0  0  0  1  0  0  0  0  0  0
  -26.7870  -37.4110   24.1450 N   0  0  0  0  0  0  0  0  0  0  0  0
  -26.4040  -38.3320   24.3420 H   0  0  0  0  0  0  0  0  0  0  0  0
  -26.6920  -31.6980   25.2110 C   0  0  1  0  0  0  0  0  0  0  0  0
  -25.6220  -31.3620   26.2770 C   0  0  0  0  0  1  0  0  0  0  0  0
  -27.3030  -30.3670   24.7160 C   0  0  0  0  0  1  0  0  0  0  0  0
  -27.8340  -32.4790   25.9060 C   0  0  0  0  0  1  0  0  0  0  0  0
  1 50  1  0
  1  5  1  0
  2  8  1  0
  2  5  1  0
  3  4  1  0
  3  1  2  0
  4  2  2  0
  5 49  1  0
  8  7  1  6
  8  6  1  0
  9 19  1  0
  9  8  1  0
 10 19  1  0
 11 16  1  0
 12 13  1  0
 12 11  1  0
 14 13  1  0
 14 23  1  0
 14 15  1  0
 16 10  1  0
 16 15  1  0
 17 10  2  0
 19 18  1  0
 20 21  2  0
 21 40  1  0
 22 21  1  0
 22 25  1  0
 23 24  1  0
 23 20  1  0
 24 22  2  0
 25 26  1  0
 26 27  2  0
 28 31  1  0
 28 27  1  0
 29 28  2  0
 30 29  1  0
 30 25  2  0
 31 32  1  0
 32 37  2  0
 32 33  1  0
 33 34  2  0
 34 35  1  0
 35 39  1  0
 36 35  2  0
 37 36  1  0
 38 37  1  0
 40 41  1  0
 41 44  1  0
 41 43  1  0
 42 40  2  0
 45 20  1  0
 45 46  1  0
 47 45  1  0
 49 48  1  0
 51 52  1  0
 51 50  1  0
 53 54  1  0
 53 52  1  0
 54 56  1  0
 55 66  2  0
 56 61  1  0
 57 65  1  0
 57 67  1  0
 58 64  1  0
 58 60  1  0
 59 65  1  0
 60 59  1  0
 61 60  2  0
 62 63  1  0
 62 56  2  0
 63 58  2  0
 64 57  1  0
 65 55  1  0
 67 69  2  0
 68 67  1  0
 70 68  1  0
 71 80  2  0
 71 76  1  0
 72 68  1  0
 72 76  1  0
 73 72  1  0
 74 75  1  0
 74 73  1  0
 75 71  1  0
 76 77  2  0
 77 78  1  0
 79 78  2  0
 80 79  1  0
 81 55  1  0
 81 82  1  0
 81 91  1  0
 82 85  1  0
 83 87  1  0
 83 82  1  0
 84 83  2  0
 87 86  1  0
 89 87  1  0
 89 90  1  0
 89 88  1  0
 91 94  1  1
 91 92  1  0
 93 91  1  0
M  ISO  4  10 100  19 100  53 101  54 101
M  END
>  <TORSDO>  (18) 
F 23

>  <SCORE>  (18) 
-9.309

>  <name>  (18) 
19

>  <ligand_id>  (18) 
19

>  <original_smiles>  (18) 
[H]c1c([H])c([H])c2c(c1[H])C([H])([H])C([H])([H])C([H])([H])C2([H])N([H])C(=O)C1([H])N(C(=O)C([H])(N([H])C(=O)C([H])(N([H])C([H])([H])[H])C([H])([H])[H])C(C([H])([H])[H])(C([H])([H])[H])C([H])([H])[H])C([H])([H])c2c([H])c(OC([H])([H])C([H])([H])C([H])([H])C([H])([H])c3nnc(C(C([H])([H])[H])(C([H])([H])[H])C([H])([H])N(C(=O)N4C([H])([H])C([H])([H])C([H])([H])C([H])(n5nc(-c6c([H])c([H])c(Oc7c([H])c([H])c(F)c([H])c7F)c([H])c6[H])c(C(=O)N([H])[H])c5N([H])[H])C4([H])[H])C([H])([H])[H])n3C([H])([H])C([H])([H])[H])c([H])c([H])c2C1([H])[H]

>  <smiles>  (18) 
[H]c1c([H])c([H])c2c(c1[H])C([H])([H])C([H])([H])C([H])([H])C2([H])N([H])C(=O)C1([H])N(C(=O)C([H])(N([H])C(=O)C([H])(N([H])C([H])([H])[H])C([H])([H])[H])C(C([H])([H])[H])(C([H])([H])[H])C([H])([H])[H])C([H])([H])c2c([H])c(OC([H])([H])C([H])([H])C([H])([H])C([H])([H])c3nnc(C(C([H])([H])[H])(C([H])([H])[H])C([H])([H])N(C(=O)N4C([H])([H])C([H])([H])C([H])([H])C([H])(n5nc(-c6c([H])c([H])c(Oc7c([H])c([H])c(F)c([H])c7F)c([H])c6[H])c(C(=O)N([H])[H])c5N([H])[H])C4([H])[H])C([H])([H])[H])n3C([H])([H])C([H])([H])[H])c([H])c([H])c2C1([H])[H]

$$$$
20:0:0
     RDKit          3D

 97105  0  0  1  0  0  0  0  0999 V2000
  -27.5440  -23.1700   20.2600 C   0  0  0  0  0  1  0  0  0  0  0  0
  -27.3570  -21.6890   18.3850 C   0  0  0  0  0  1  0  0  0  0  0  0
  -28.4360  -22.4040   19.2500 C   0  0  2  0  0  0  0  0  0  0  0  0
  -29.4160  -19.9600   19.4020 C   0  0  0  0  0  3  0  0  0  0  0  0
  -29.1900  -21.2150   19.9390 C   0  0  0  0  0  0  0  0  0  0  0  0
  -29.7830  -21.0690   21.2430 C   0  0  0  0  0  0  0  0  0  0  0  0
  -29.9490  -22.0520   22.3720 C   0  0  0  0  0  1  0  0  0  0  0  0
  -30.2820  -19.8500   21.4510 N   0  0  0  0  0  0  0  0  0  0  0  0
  -30.0650  -19.1520   20.3170 N   0  0  0  0  0  0  0  0  0  0  0  0
  -30.5860  -17.7750   20.1830 C   0  0  0  0  0  2  0  0  0  0  0  0
  -29.6360  -16.6410   20.6800 C   0  0  0  0  0  2  0  0  0  0  0  0
  -30.7520  -14.4610   20.1270 C   0  0  0  0  0  0  0  0  0  0  0  0
  -30.3350  -12.3390   18.9170 C   0  0  0  0  0  2  0  0  0  0  0  0
  -29.3290  -12.5670   17.7710 C   0  0  0  0  0  2  0  0  0  0  0  0
  -27.8810  -12.4430   18.2840 C   0  0  0  0  0  2  0  0  0  0  0  0
  -27.6300  -13.2650   19.5740 C   0  0  0  0  0  3  0  0  0  0  0  0
  -28.7390  -13.0060   20.6150 C   0  0  0  0  0  2  0  0  0  0  0  0
  -30.0400  -13.3040   19.9880 N   0  0  0  0  0  0  0  0  0  0  0  0
  -31.7550  -14.7160   19.4530 O   0  0  0  0  0  0  0  0  0  0  0  0
  -30.7020  -15.2020   22.4290 C   0  0  0  0  0  1  0  0  0  0  0  0
  -30.2810  -15.3490   21.0320 N   0  0  0  0  0  0  0  0  0  0  0  0
  -25.2790  -13.9030   20.4150 C   0  0  0  0  0  0  0  0  0  0  0  0
  -24.2190  -13.1460   20.8290 C   0  0  0  0  0  0  0  0  0  0  0  0
  -24.6550  -11.7850   20.7580 C   0  0  0  0  0  0  0  0  0  0  0  0
  -26.2980  -13.0100   20.1180 N   0  0  0  0  0  0  0  0  0  0  0  0
  -25.9260  -11.7300   20.3810 N   0  0  0  0  0  0  0  0  0  0  0  0
  -23.9190  -10.5330   20.9690 C   0  0  0  0  0  0  0  0  0  0  0  0
  -24.3680   -9.5630   21.8920 C   0  0  0  0  0  3  0  0  0  0  0  0
  -23.6340   -8.3730   22.0960 C   0  0  0  0  0  3  0  0  0  0  0  0
  -22.4390   -8.1460   21.3740 C   0  0  0  0  0  0  0  0  0  0  0  0
  -22.0070   -9.1050   20.4410 C   0  0  0  0  0  3  0  0  0  0  0  0
  -22.7400  -10.2860   20.2370 C   0  0  0  0  0  3  0  0  0  0  0  0
  -21.6750   -7.0100   21.4840 O   0  0  0  0  0  0  0  0  0  0  0  0
  -21.6280   -6.2850   22.6470 C   0  0  0  0  0  0  0  0  0  0  0  0
  -21.2310   -6.8660   23.8720 C   0  0  0  0  0  3  0  0  0  0  0  0
  -21.1290   -6.0700   25.0290 C   0  0  0  0  0  3  0  0  0  0  0  0
  -21.4130   -4.6920   24.9650 C   0  0  0  0  0  0  0  0  0  0  0  0
  -21.8010   -4.1100   23.7450 C   0  0  0  0  0  3  0  0  0  0  0  0
  -21.9060   -4.9030   22.5900 C   0  0  0  0  0  0  0  0  0  0  0  0
  -22.2600   -4.3340   21.4130 F   0  0  0  0  0  0  0  0  0  0  0  0
  -21.3070   -3.9240   26.0740 F   0  0  0  0  0  0  0  0  0  0  0  0
  -22.8450  -13.6390   21.1830 C   0  0  0  0  0  0  0  0  0  0  0  0
  -22.1590  -12.9510   22.0870 N   0  0  0  0  0  0  0  0  0  0  0  0
  -22.3920  -14.6730   20.6910 O   0  0  0  0  0  0  0  0  0  0  0  0
  -22.5400  -12.1140   22.5030 H   0  0  0  0  0  0  0  0  0  0  0  0
  -21.2410  -13.2670   22.3670 H   0  0  0  0  0  0  0  0  0  0  0  0
  -25.4570  -15.2750   20.2470 N   0  0  0  0  0  0  0  0  0  0  0  0
  -24.7100  -15.9400   20.4190 H   0  0  0  0  0  0  0  0  0  0  0  0
  -26.3010  -15.7070   19.8970 H   0  0  0  0  0  0  0  0  0  0  0  0
  -30.7320  -22.6760   18.0750 C   0  0  0  0  0  1  0  0  0  0  0  0
  -28.8060  -23.5960   16.9200 C   0  0  0  0  0  1  0  0  0  0  0  0
  -29.3840  -23.3940   18.3560 C   0  0  1  0  0  0  0  0  0  0  0  0
  -30.4950  -24.9160   20.2440 C   0  0  0  0  0  1  0  0  0  0  0  0
  -29.6950  -24.8740   18.9230 C   0  0  1  0  0  0  0  0  0  0  0  0
  -30.5810  -25.4210   18.0820 F   0  0  0  0  0  0  0  0  0  0  0  0
  -28.5080  -25.9100   18.8740 C   0  0  0  0  0  2  0  0  0  0  0  0
  -28.3510  -26.7960   20.0200 O   0  0  0  0  0  0  0  0  0  0  0  0
  -24.5400  -31.9750   23.2800 C   0  0  0  0  0  0  0  0  0  0  0  0
  -27.1650  -27.5190   20.1160 C   0  0  0  0  0  0  0  0  0  0  0  0
  -23.3300  -30.5710   21.6510 C   0  0  0  0  0  3  0  0  0  0  0  0
  -24.7640  -29.0350   20.2250 C   0  0  0  0  0  0  0  0  0  0  0  0
  -25.8620  -30.9220   21.4330 C   0  0  0  0  0  2  0  0  0  0  0  0
  -25.9410  -29.5510   20.7830 C   0  0  0  0  0  0  0  0  0  0  0  0
  -27.1470  -28.8050   20.7220 C   0  0  0  0  0  3  0  0  0  0  0  0
  -25.9380  -27.0050   19.6300 C   0  0  0  0  0  3  0  0  0  0  0  0
  -24.7540  -27.7540   19.6640 C   0  0  0  0  0  3  0  0  0  0  0  0
  -23.5310  -29.9060   20.2700 C   0  0  0  0  0  2  0  0  0  0  0  0
  -24.5980  -31.1700   22.1800 N   0  0  0  0  0  0  0  0  0  0  0  0
  -23.4610  -32.2470   23.8210 O   0  0  0  0  0  0  0  0  0  0  0  0
  -22.6890  -29.5430   22.6120 C   0  0  0  0  0  0  0  0  0  0  0  0
  -21.3680  -29.3390   22.4790 N   0  0  0  0  0  0  0  0  0  0  0  0
  -23.3770  -28.9320   23.4340 O   0  0  0  0  0  0  0  0  0  0  0  0
  -20.8730  -29.8900   21.7910 H   0  0  0  0  0  0  0  0  0  0  0  0
  -18.0140  -28.0730   22.9540 C   0  0  0  0  0  0  0  0  0  0  0  0
  -20.5620  -28.3960   23.2540 C   0  0  0  0  0  3  0  0  0  0  0  0
  -20.7050  -26.9570   22.7060 C   0  0  0  0  0  2  0  0  0  0  0  0
  -19.6240  -26.5900   21.6840 C   0  0  0  0  0  2  0  0  0  0  0  0
  -18.2300  -26.7150   22.3060 C   0  0  0  0  0  2  0  0  0  0  0  0
  -19.1090  -28.8680   23.3850 C   0  0  0  0  0  0  0  0  0  0  0  0
  -18.8520  -30.1350   23.9490 C   0  0  0  0  0  3  0  0  0  0  0  0
  -17.5340  -30.6100   24.0870 C   0  0  0  0  0  3  0  0  0  0  0  0
  -16.4520  -29.8110   23.6720 C   0  0  0  0  0  3  0  0  0  0  0  0
  -16.6950  -28.5460   23.1110 C   0  0  0  0  0  3  0  0  0  0  0  0
  -25.8250  -32.6130   23.8860 C   0  0  0  0  0  3  0  0  0  0  0  0
  -25.5170  -34.0170   24.1950 N   0  0  0  0  0  0  0  0  0  0  0  0
  -25.8460  -35.0580   23.4190 C   0  0  0  0  0  0  0  0  0  0  0  0
  -26.5150  -34.9390   22.3890 O   0  0  0  0  0  0  0  0  0  0  0  0
  -24.9230  -34.1850   24.9930 H   0  0  0  0  0  0  0  0  0  0  0  0
  -24.1210  -36.8490   23.0370 C   0  0  0  0  0  1  0  0  0  0  0  0
  -25.3600  -36.4540   23.8570 C   0  0  0  0  0  3  0  0  0  0  0  0
  -27.5000  -37.3460   24.6730 C   0  0  0  0  0  1  0  0  0  0  0  0
  -26.3950  -37.5040   23.7310 N   0  0  0  0  0  0  0  0  0  0  0  0
  -25.9890  -38.4250   23.8710 H   0  0  0  0  0  0  0  0  0  0  0  0
  -26.3470  -31.8610   25.1710 C   0  0  1  0  0  0  0  0  0  0  0  0
  -25.2560  -31.6320   26.2460 C   0  0  0  0  0  1  0  0  0  0  0  0
  -26.9300  -30.4790   24.7900 C   0  0  0  0  0  1  0  0  0  0  0  0
  -27.5010  -32.6660   25.8160 C   0  0  0  0  0  1  0  0  0  0  0  0
  3  2  1  6
  3  5  1  0
  3  1  1  0
  4  5  2  0
  4  9  1  0
  5  6  1  0
  6  8  2  0
  6  7  1  0
  9  8  1  0
 10  9  1  0
 10 11  1  0
 11 21  1  0
 12 21  1  0
 13 18  1  0
 14 15  1  0
 14 13  1  0
 16 15  1  0
 16 25  1  0
 16 17  1  0
 18 12  1  0
 18 17  1  0
 19 12  2  0
 21 20  1  0
 22 23  2  0
 23 42  1  0
 24 23  1  0
 24 27  1  0
 25 26  1  0
 25 22  1  0
 26 24  2  0
 27 28  1  0
 28 29  2  0
 30 33  1  0
 30 29  1  0
 31 30  2  0
 32 31  1  0
 32 27  2  0
 33 34  1  0
 34 35  1  0
 35 36  2  0
 37 36  1  0
 37 41  1  0
 38 37  2  0
 39 34  2  0
 39 38  1  0
 40 39  1  0
 42 43  1  0
 43 46  1  0
 43 45  1  0
 44 42  2  0
 47 22  1  0
 47 48  1  0
 49 47  1  0
 52 50  1  6
 51 52  1  0
 52 54  1  0
 52  3  1  0
 54 53  1  1
 55 54  1  0
 56 54  1  0
 56 57  1  0
 57 59  1  0
 58 69  2  0
 59 64  1  0
 60 68  1  0
 60 70  1  0
 61 67  1  0
 61 63  1  0
 62 68  1  0
 63 62  1  0
 64 63  2  0
 65 66  1  0
 65 59  2  0
 66 61  2  0
 67 60  1  0
 68 58  1  0
 70 72  2  0
 71 70  1  0
 73 71  1  0
 74 83  2  0
 74 79  1  0
 75 71  1  0
 75 79  1  0
 76 75  1  0
 77 78  1  0
 77 76  1  0
 78 74  1  0
 79 80  2  0
 80 81  1  0
 82 81  2  0
 83 82  1  0
 84 58  1  0
 84 85  1  0
 84 94  1  0
 85 88  1  0
 86 90  1  0
 86 85  1  0
 87 86  2  0
 90 89  1  0
 92 90  1  0
 92 93  1  0
 92 91  1  0
 94 97  1  1
 94 95  1  0
 96 94  1  0
M  ISO  4  12 100  21 100  56 101  57 101
M  END
>  <TORSDO>  (19) 
F 22

>  <SCORE>  (19) 
-12.549

>  <name>  (19) 
20

>  <ligand_id>  (19) 
20

>  <original_smiles>  (19) 
[H]c1c([H])c([H])c2c(c1[H])C([H])([H])C([H])([H])C([H])([H])C2([H])N([H])C(=O)C1([H])N(C(=O)C([H])(N([H])C(=O)C([H])(N([H])C([H])([H])[H])C([H])([H])[H])C(C([H])([H])[H])(C([H])([H])[H])C([H])([H])[H])C([H])([H])c2c([H])c(OC([H])([H])C(F)(C([H])([H])[H])C(C([H])([H])[H])(C([H])([H])[H])C(c3c(C([H])([H])[H])nn(C([H])([H])C([H])([H])N(C(=O)N4C([H])([H])C([H])([H])C([H])([H])C([H])(n5nc(-c6c([H])c([H])c(Oc7c([H])c([H])c(F)c([H])c7F)c([H])c6[H])c(C(=O)N([H])[H])c5N([H])[H])C4([H])[H])C([H])([H])[H])c3[H])(C([H])([H])[H])C([H])([H])[H])c([H])c([H])c2C1([H])[H]

>  <smiles>  (19) 
[H]c1c([H])c([H])c2c(c1[H])C([H])([H])C([H])([H])C([H])([H])C2([H])N([H])C(=O)C1([H])N(C(=O)C([H])(N([H])C(=O)C([H])(N([H])C([H])([H])[H])C([H])([H])[H])C(C([H])([H])[H])(C([H])([H])[H])C([H])([H])[H])C([H])([H])c2c([H])c(OC([H])([H])C(F)(C([H])([H])[H])C(C([H])([H])[H])(C([H])([H])[H])C(c3c(C([H])([H])[H])nn(C([H])([H])C([H])([H])N(C(=O)N4C([H])([H])C([H])([H])C([H])([H])C([H])(n5nc(-c6c([H])c([H])c(Oc7c([H])c([H])c(F)c([H])c7F)c([H])c6[H])c(C(=O)N([H])[H])c5N([H])[H])C4([H])[H])C([H])([H])[H])c3[H])(C([H])([H])[H])C([H])([H])[H])c([H])c([H])c2C1([H])[H]

$$$$
21:0:0
     RDKit          3D

 92100  0  0  1  0  0  0  0  0999 V2000
  -28.3420  -23.9530   18.5090 C   0  0  0  0  0  1  0  0  0  0  0  0
  -26.5900  -23.5510   20.2540 C   0  0  0  0  0  1  0  0  0  0  0  0
  -28.0980  -23.7990   20.0280 C   0  0  1  0  0  0  0  0  0  0  0  0
  -29.3360  -21.9480   21.6990 C   0  0  0  0  0  3  0  0  0  0  0  0
  -28.7620  -21.1960   19.7730 C   0  0  0  0  0  3  0  0  0  0  0  0
  -28.7530  -22.4020   20.4680 C   0  0  0  0  0  0  0  0  0  0  0  0
  -29.6180  -20.6270   21.7450 N   0  0  0  0  0  0  0  0  0  0  0  0
  -29.2600  -20.1250   20.5400 N   0  0  0  0  0  0  0  0  0  0  0  0
  -29.2190  -18.6430   20.1920 C   0  0  0  0  0  3  0  0  0  0  0  0
  -30.0790  -17.4500   20.9040 C   0  0  0  0  0  3  0  0  0  0  0  0
  -30.6750  -14.8760   20.6480 C   0  0  0  0  0  0  0  0  0  0  0  0
  -30.5790  -12.5280   19.7870 C   0  0  0  0  0  2  0  0  0  0  0  0
  -29.7160  -12.4370   18.5060 C   0  0  0  0  0  2  0  0  0  0  0  0
  -28.2090  -12.3500   18.8410 C   0  0  0  0  0  2  0  0  0  0  0  0
  -27.7490  -13.2880   19.9910 C   0  0  0  0  0  3  0  0  0  0  0  0
  -28.7470  -13.2990   21.1660 C   0  0  0  0  0  2  0  0  0  0  0  0
  -30.0620  -13.6410   20.6100 N   0  0  0  0  0  0  0  0  0  0  0  0
  -31.9070  -14.9500   20.6100 O   0  0  0  0  0  0  0  0  0  0  0  0
  -29.4340  -16.0820   18.9770 C   0  0  0  0  0  1  0  0  0  0  0  0
  -29.9010  -16.0110   20.3720 N   0  0  0  0  0  0  0  0  0  0  0  0
  -25.3250  -13.8870   20.5770 C   0  0  0  0  0  0  0  0  0  0  0  0
  -24.2420  -13.1140   20.8920 C   0  0  0  0  0  0  0  0  0  0  0  0
  -24.7140  -11.7670   20.9210 C   0  0  0  0  0  0  0  0  0  0  0  0
  -26.3850  -13.0070   20.4230 N   0  0  0  0  0  0  0  0  0  0  0  0
  -26.0210  -11.7300   20.6980 N   0  0  0  0  0  0  0  0  0  0  0  0
  -23.9870  -10.5030   21.0930 C   0  0  0  0  0  0  0  0  0  0  0  0
  -24.3810   -9.5500   22.0570 C   0  0  0  0  0  3  0  0  0  0  0  0
  -23.6570   -8.3500   22.2150 C   0  0  0  0  0  3  0  0  0  0  0  0
  -22.5240   -8.0950   21.4070 C   0  0  0  0  0  0  0  0  0  0  0  0
  -22.1500   -9.0360   20.4320 C   0  0  0  0  0  3  0  0  0  0  0  0
  -22.8750  -10.2290   20.2730 C   0  0  0  0  0  3  0  0  0  0  0  0
  -21.7750   -6.9450   21.4720 O   0  0  0  0  0  0  0  0  0  0  0  0
  -21.6830   -6.2110   22.6270 C   0  0  0  0  0  0  0  0  0  0  0  0
  -21.2140   -6.7740   23.8320 C   0  0  0  0  0  3  0  0  0  0  0  0
  -21.0690   -5.9660   24.9780 C   0  0  0  0  0  3  0  0  0  0  0  0
  -21.3840   -4.5960   24.9160 C   0  0  0  0  0  0  0  0  0  0  0  0
  -21.8460   -4.0310   23.7140 C   0  0  0  0  0  3  0  0  0  0  0  0
  -21.9930   -4.8370   22.5720 C   0  0  0  0  0  0  0  0  0  0  0  0
  -22.4180   -4.2850   21.4110 F   0  0  0  0  0  0  0  0  0  0  0  0
  -21.2380   -3.8160   26.0150 F   0  0  0  0  0  0  0  0  0  0  0  0
  -22.8270  -13.5870   21.0640 C   0  0  0  0  0  0  0  0  0  0  0  0
  -22.0500  -12.9020   21.8960 N   0  0  0  0  0  0  0  0  0  0  0  0
  -22.4150  -14.5980   20.4960 O   0  0  0  0  0  0  0  0  0  0  0  0
  -22.3970  -12.0840   22.3750 H   0  0  0  0  0  0  0  0  0  0  0  0
  -21.0980  -13.2020   22.0550 H   0  0  0  0  0  0  0  0  0  0  0  0
  -25.4970  -15.2540   20.3840 N   0  0  0  0  0  0  0  0  0  0  0  0
  -24.7290  -15.9150   20.4390 H   0  0  0  0  0  0  0  0  0  0  0  0
  -26.3820  -15.6890   20.1560 H   0  0  0  0  0  0  0  0  0  0  0  0
  -30.0840  -25.2290   20.8660 C   0  0  0  0  0  1  0  0  0  0  0  0
  -27.9590  -25.3570   22.1460 C   0  0  0  0  0  1  0  0  0  0  0  0
  -28.5470  -25.2190   20.7250 C   0  0  2  0  0  0  0  0  0  0  0  0
  -28.3660  -26.5460   20.0340 O   0  0  0  0  0  0  0  0  0  0  0  0
  -24.6310  -31.9050   23.2160 C   0  0  0  0  0  0  0  0  0  0  0  0
  -27.2200  -27.3600   20.1040 C   0  0  0  0  0  0  0  0  0  0  0  0
  -23.4110  -30.5110   21.5830 C   0  0  0  0  0  3  0  0  0  0  0  0
  -24.8500  -28.9710   20.1330 C   0  0  0  0  0  0  0  0  0  0  0  0
  -25.9470  -30.8340   21.3750 C   0  0  0  0  0  2  0  0  0  0  0  0
  -26.0210  -29.4540   20.7290 C   0  0  0  0  0  0  0  0  0  0  0  0
  -27.2070  -28.6580   20.7110 C   0  0  0  0  0  3  0  0  0  0  0  0
  -26.0410  -26.9570   19.4480 C   0  0  0  0  0  3  0  0  0  0  0  0
  -24.8620  -27.7260   19.4840 C   0  0  0  0  0  3  0  0  0  0  0  0
  -23.6120  -29.8430   20.1970 C   0  0  0  0  0  2  0  0  0  0  0  0
  -24.6820  -31.1020   22.1140 N   0  0  0  0  0  0  0  0  0  0  0  0
  -23.5540  -32.1770   23.7670 O   0  0  0  0  0  0  0  0  0  0  0  0
  -22.7650  -29.4870   22.5460 C   0  0  0  0  0  0  0  0  0  0  0  0
  -21.4400  -29.2980   22.4270 N   0  0  0  0  0  0  0  0  0  0  0  0
  -23.4550  -28.8660   23.3590 O   0  0  0  0  0  0  0  0  0  0  0  0
  -20.9420  -29.8520   21.7460 H   0  0  0  0  0  0  0  0  0  0  0  0
  -18.0820  -28.0500   22.9300 C   0  0  0  0  0  0  0  0  0  0  0  0
  -20.6350  -28.3490   23.2000 C   0  0  0  0  0  3  0  0  0  0  0  0
  -20.7600  -26.9170   22.6300 C   0  0  0  0  0  2  0  0  0  0  0  0
  -19.6640  -26.5740   21.6160 C   0  0  0  0  0  2  0  0  0  0  0  0
  -18.2800  -26.7020   22.2590 C   0  0  0  0  0  2  0  0  0  0  0  0
  -19.1890  -28.8310   23.3570 C   0  0  0  0  0  0  0  0  0  0  0  0
  -18.9490  -30.0930   23.9450 C   0  0  0  0  0  3  0  0  0  0  0  0
  -17.6370  -30.5730   24.1080 C   0  0  0  0  0  3  0  0  0  0  0  0
  -16.5450  -29.7900   23.6970 C   0  0  0  0  0  3  0  0  0  0  0  0
  -16.7690  -28.5290   23.1140 C   0  0  0  0  0  3  0  0  0  0  0  0
  -25.9190  -32.5400   23.8260 C   0  0  0  0  0  3  0  0  0  0  0  0
  -26.4560  -31.7600   25.0890 C   0  0  1  0  0  0  0  0  0  0  0  0
  -25.3790  -31.5090   26.1690 C   0  0  0  0  0  1  0  0  0  0  0  0
  -27.0400  -30.3890   24.6780 C   0  0  0  0  0  1  0  0  0  0  0  0
  -27.6120  -32.5540   25.7420 C   0  0  0  0  0  1  0  0  0  0  0  0
  -25.6080  -33.9350   24.1720 N   0  0  0  0  0  0  0  0  0  0  0  0
  -25.9310  -34.9970   23.4230 C   0  0  0  0  0  0  0  0  0  0  0  0
  -26.5920  -34.9080   22.3850 O   0  0  0  0  0  0  0  0  0  0  0  0
  -25.0200  -34.0780   24.9810 H   0  0  0  0  0  0  0  0  0  0  0  0
  -24.1990  -36.7940   23.0960 C   0  0  0  0  0  1  0  0  0  0  0  0
  -25.4420  -36.3790   23.8990 C   0  0  0  0  0  3  0  0  0  0  0  0
  -27.5810  -37.2540   24.7340 C   0  0  0  0  0  1  0  0  0  0  0  0
  -26.4730  -37.4360   23.8000 N   0  0  0  0  0  0  0  0  0  0  0  0
  -26.0650  -38.3520   23.9670 H   0  0  0  0  0  0  0  0  0  0  0  0
  3  1  1  6
  3  2  1  0
  3  6  1  0
  3 51  1  0
  4  7  2  0
  5  6  2  0
  5  8  1  0
  6  4  1  0
  8  7  1  0
  9  8  1  0
  9 10  2  0
 12 17  1  0
 13 14  1  0
 13 12  1  0
 15 14  1  0
 15 24  1  0
 15 16  1  0
 17 11  1  0
 17 16  1  0
 18 11  2  0
 19 20  1  0
 20 11  1  0
 20 10  1  0
 21 22  2  0
 22 23  1  0
 22 41  1  0
 23 26  1  0
 24 21  1  0
 24 25  1  0
 25 23  2  0
 26 27  1  0
 27 28  2  0
 29 32  1  0
 29 28  1  0
 30 29  2  0
 31 30  1  0
 31 26  2  0
 32 33  1  0
 33 34  1  0
 34 35  2  0
 36 35  1  0
 36 40  1  0
 37 36  2  0
 38 33  2  0
 38 37  1  0
 39 38  1  0
 41 42  1  0
 42 45  1  0
 42 44  1  0
 43 41  2  0
 46 47  1  0
 46 21  1  0
 48 46  1  0
 51 49  1  1
 51 50  1  0
 52 54  1  0
 52 51  1  0
 53 64  2  0
 54 59  1  0
 55 63  1  0
 55 65  1  0
 56 62  1  0
 56 58  1  0
 57 63  1  0
 58 57  1  0
 59 58  2  0
 60 61  1  0
 60 54  2  0
 61 56  2  0
 62 55  1  0
 63 53  1  0
 65 67  2  0
 66 65  1  0
 68 66  1  0
 69 78  2  0
 69 74  1  0
 70 66  1  0
 70 74  1  0
 71 70  1  0
 72 73  1  0
 72 71  1  0
 73 69  1  0
 74 75  2  0
 75 76  1  0
 77 76  2  0
 78 77  1  0
 79 53  1  0
 79 84  1  0
 79 80  1  0
 80 83  1  1
 80 81  1  0
 82 80  1  0
 84 87  1  0
 85 89  1  0
 85 84  1  0
 86 85  2  0
 89 88  1  0
 91 89  1  0
 91 92  1  0
 91 90  1  0
M  ISO  4  11 100  20 100  51 101  52 101
M  END
>  <TORSDO>  (20) 
F 20

>  <SCORE>  (20) 
-13.809

>  <name>  (20) 
21

>  <ligand_id>  (20) 
21

>  <original_smiles>  (20) 
[H]c1nn(C([H])([H])C([H])([H])N(C(=O)N2C([H])([H])C([H])([H])C([H])([H])C([H])(n3nc(-c4c([H])c([H])c(Oc5c([H])c([H])c(F)c([H])c5F)c([H])c4[H])c(C(=O)N([H])[H])c3N([H])[H])C2([H])[H])C([H])([H])[H])c([H])c1C(C([H])([H])[H])(C([H])([H])[H])C(Oc1c([H])c([H])c2c(c1[H])C([H])([H])N(C(=O)C([H])(N([H])C(=O)C([H])(N([H])C([H])([H])[H])C([H])([H])[H])C(C([H])([H])[H])(C([H])([H])[H])C([H])([H])[H])C([H])(C(=O)N([H])C1([H])c3c([H])c([H])c([H])c([H])c3C([H])([H])C([H])([H])C1([H])[H])C2([H])[H])(C([H])([H])[H])C([H])([H])[H]

>  <smiles>  (20) 
[H]c1nn(C([H])([H])C([H])([H])N(C(=O)N2C([H])([H])C([H])([H])C([H])([H])C([H])(n3nc(-c4c([H])c([H])c(Oc5c([H])c([H])c(F)c([H])c5F)c([H])c4[H])c(C(=O)N([H])[H])c3N([H])[H])C2([H])[H])C([H])([H])[H])c([H])c1C(C([H])([H])[H])(C([H])([H])[H])C(Oc1c([H])c([H])c2c(c1[H])C([H])([H])N(C(=O)C([H])(N([H])C(=O)C([H])(N([H])C([H])([H])[H])C([H])([H])[H])C(C([H])([H])[H])(C([H])([H])[H])C([H])([H])[H])C([H])(C(=O)N([H])C1([H])c3c([H])c([H])c([H])c([H])c3C([H])([H])C([H])([H])C1([H])[H])C2([H])[H])(C([H])([H])[H])C([H])([H])[H]

$$$$
22:0:0
     RDKit          3D

101109  0  0  1  0  0  0  0  0999 V2000
  -30.0570  -20.3320   21.9950 C   0  0  0  0  0  2  0  0  0  0  0  0
  -29.1640  -19.5270   21.2290 C   0  0  0  0  0  3  0  0  0  0  0  0
  -29.6840  -21.6180   21.6920 C   0  0  0  0  0  3  0  0  0  0  0  0
  -28.1110  -20.2560   20.8570 N   0  0  0  0  0  2  0  0  0  0  0  0
  -28.4510  -21.5460   21.0510 N   0  0  0  0  0  0  0  0  0  0  0  0
  -30.1960  -19.0710   19.1490 C   0  0  0  0  0  1  0  0  0  0  0  0
  -28.2800  -17.6310   19.8750 C   0  0  0  0  0  1  0  0  0  0  0  0
  -29.5540  -18.3300   20.3470 C   0  0  2  0  0  0  0  0  0  0  0  0
  -30.5040  -17.2320   21.0070 C   0  0  0  0  0  2  0  0  0  0  0  0
  -31.2230  -14.8760   21.1210 C   0  0  0  0  0  0  0  0  0  0  0  0
  -31.1020  -12.4590   20.6420 C   0  0  0  0  0  2  0  0  0  0  0  0
  -30.4340  -12.2280   19.2720 C   0  0  0  0  0  2  0  0  0  0  0  0
  -28.8990  -12.1980   19.4050 C   0  0  0  0  0  2  0  0  0  0  0  0
  -28.3160  -13.3410   20.2820 C   0  0  0  0  0  3  0  0  0  0  0  0
  -29.1330  -13.5410   21.5750 C   0  0  0  0  0  2  0  0  0  0  0  0
  -30.5380  -13.6980   21.1950 N   0  0  0  0  0  0  0  0  0  0  0  0
  -32.4500  -14.9150   21.2640 O   0  0  0  0  0  0  0  0  0  0  0  0
  -30.6440  -15.8610   20.3590 N   0  0  0  0  0  0  0  0  0  0  0  0
  -25.8590  -14.0540   20.5350 C   0  0  0  0  0  0  0  0  0  0  0  0
  -24.7170  -13.3490   20.7770 C   0  0  0  0  0  0  0  0  0  0  0  0
  -25.1240  -11.9890   20.9280 C   0  0  0  0  0  0  0  0  0  0  0  0
  -26.8970  -13.1370   20.5610 N   0  0  0  0  0  0  0  0  0  0  0  0
  -26.4460  -11.8870   20.8620 N   0  0  0  0  0  0  0  0  0  0  0  0
  -24.3210  -10.7730   21.0750 C   0  0  0  0  0  0  0  0  0  0  0  0
  -24.6200   -9.8030   22.0580 C   0  0  0  0  0  3  0  0  0  0  0  0
  -23.8180   -8.6470   22.1870 C   0  0  0  0  0  3  0  0  0  0  0  0
  -22.7010   -8.4590   21.3340 C   0  0  0  0  0  0  0  0  0  0  0  0
  -22.4270   -9.4190   20.3420 C   0  0  0  0  0  3  0  0  0  0  0  0
  -23.2300  -10.5610   20.2130 C   0  0  0  0  0  3  0  0  0  0  0  0
  -21.8830   -7.3580   21.3710 O   0  0  0  0  0  0  0  0  0  0  0  0
  -21.7510   -6.5990   22.5070 C   0  0  0  0  0  0  0  0  0  0  0  0
  -21.3000   -7.1560   23.7230 C   0  0  0  0  0  3  0  0  0  0  0  0
  -21.1090   -6.3280   24.8470 C   0  0  0  0  0  3  0  0  0  0  0  0
  -21.3580   -4.9460   24.7550 C   0  0  0  0  0  0  0  0  0  0  0  0
  -21.8060   -4.3890   23.5430 C   0  0  0  0  0  3  0  0  0  0  0  0
  -21.9990   -5.2140   22.4190 C   0  0  0  0  0  0  0  0  0  0  0  0
  -22.4070   -4.6710   21.2480 F   0  0  0  0  0  0  0  0  0  0  0  0
  -21.1680   -4.1500   25.8310 F   0  0  0  0  0  0  0  0  0  0  0  0
  -23.3200  -13.8920   20.7650 C   0  0  0  0  0  0  0  0  0  0  0  0
  -22.4340  -13.3230   21.5680 N   0  0  0  0  0  0  0  0  0  0  0  0
  -23.0150  -14.8640   20.0710 O   0  0  0  0  0  0  0  0  0  0  0  0
  -22.6980  -12.5400   22.1520 H   0  0  0  0  0  0  0  0  0  0  0  0
  -21.4880  -13.6690   21.5990 H   0  0  0  0  0  0  0  0  0  0  0  0
  -26.0730  -15.4010   20.2800 N   0  0  0  0  0  0  0  0  0  0  0  0
  -25.3180  -16.0770   20.2690 H   0  0  0  0  0  0  0  0  0  0  0  0
  -26.9860  -15.8260   20.1800 H   0  0  0  0  0  0  0  0  0  0  0  0
  -32.3210  -16.8190   18.6520 C   0  0  0  0  0  1  0  0  0  0  0  0
  -30.0660  -15.7810   17.8360 C   0  0  0  0  0  1  0  0  0  0  0  0
  -31.1540  -15.8480   18.9390 C   0  0  0  0  0  3  0  0  0  0  0  0
  -30.4770  -22.8950   21.8340 C   0  0  0  0  0  2  0  0  0  0  0  0
  -30.5800  -23.7630   20.5450 C   0  0  0  0  0  2  0  0  0  0  0  0
  -30.3210  -25.2780   20.7720 C   0  0  0  0  0  2  0  0  0  0  0  0
  -29.7840  -26.0580   19.5440 C   0  0  0  0  0  2  0  0  0  0  0  0
  -29.4030  -27.3720   19.9620 O   0  0  0  0  0  0  0  0  0  0  0  0
  -24.7000  -31.3480   23.4570 C   0  0  0  0  0  0  0  0  0  0  0  0
  -28.0970  -27.8310   19.9540 C   0  0  0  0  0  0  0  0  0  0  0  0
  -23.7900  -30.1340   21.4980 C   0  0  0  0  0  3  0  0  0  0  0  0
  -25.5160  -29.0200   19.9870 C   0  0  0  0  0  0  0  0  0  0  0  0
  -26.2650  -30.7940   21.5920 C   0  0  0  0  0  2  0  0  0  0  0  0
  -26.5550  -29.5720   20.7440 C   0  0  0  0  0  0  0  0  0  0  0  0
  -27.8390  -28.9880   20.7170 C   0  0  0  0  0  3  0  0  0  0  0  0
  -27.0370  -27.2760   19.1980 C   0  0  0  0  0  3  0  0  0  0  0  0
  -25.7550  -27.8670   19.2120 C   0  0  0  0  0  3  0  0  0  0  0  0
  -24.1800  -29.7220   20.0530 C   0  0  0  0  0  2  0  0  0  0  0  0
  -24.9310  -30.7660   22.2450 N   0  0  0  0  0  0  0  0  0  0  0  0
  -23.5610  -31.3950   23.9400 O   0  0  0  0  0  0  0  0  0  0  0  0
  -23.2010  -28.9000   22.2240 C   0  0  0  0  0  0  0  0  0  0  0  0
  -21.9080  -28.6360   21.9860 N   0  0  0  0  0  0  0  0  0  0  0  0
  -23.9120  -28.1980   22.9490 O   0  0  0  0  0  0  0  0  0  0  0  0
  -21.4050  -29.2800   21.3910 H   0  0  0  0  0  0  0  0  0  0  0  0
  -18.6520  -27.0270   22.0030 C   0  0  0  0  0  0  0  0  0  0  0  0
  -21.1470  -27.4940   22.5050 C   0  0  0  0  0  3  0  0  0  0  0  0
  -21.4540  -26.2080   21.7050 C   0  0  0  0  0  2  0  0  0  0  0  0
  -20.4500  -25.9260   20.5860 C   0  0  0  0  0  2  0  0  0  0  0  0
  -19.0240  -25.8250   21.1470 C   0  0  0  0  0  2  0  0  0  0  0  0
  -19.6560  -27.8160   22.6250 C   0  0  0  0  0  0  0  0  0  0  0  0
  -19.2740  -28.9340   23.3960 C   0  0  0  0  0  3  0  0  0  0  0  0
  -17.9140  -29.2750   23.5490 C   0  0  0  0  0  3  0  0  0  0  0  0
  -16.9240  -28.4760   22.9520 C   0  0  0  0  0  3  0  0  0  0  0  0
  -17.2920  -27.3510   22.1870 C   0  0  0  0  0  3  0  0  0  0  0  0
  -25.8600  -31.9980   24.2850 C   0  0  0  0  0  3  0  0  0  0  0  0
  -25.5560  -33.4290   24.4190 N   0  0  0  0  0  0  0  0  0  0  0  0
  -26.1290  -34.4030   23.6930 C   0  0  0  0  0  0  0  0  0  0  0  0
  -27.0260  -34.1870   22.8720 O   0  0  0  0  0  0  0  0  0  0  0  0
  -24.7920  -33.6820   25.0310 H   0  0  0  0  0  0  0  0  0  0  0  0
  -24.6780  -36.2360   22.7570 C   0  0  0  0  0  1  0  0  0  0  0  0
  -25.6250  -35.8460   23.9050 C   0  0  0  0  0  3  0  0  0  0  0  0
  -27.5300  -36.6720   25.2150 C   0  0  0  0  0  1  0  0  0  0  0  0
  -26.7140  -36.8440   24.0140 N   0  0  0  0  0  0  0  0  0  0  0  0
  -26.3380  -37.7880   24.0210 H   0  0  0  0  0  0  0  0  0  0  0  0
  -26.0620  -31.3300   25.7000 C   0  0  1  0  0  0  0  0  0  0  0  0
  -24.7600  -31.2370   26.5320 C   0  0  0  0  0  1  0  0  0  0  0  0
  -26.6290  -29.8990   25.5470 C   0  0  0  0  0  1  0  0  0  0  0  0
  -27.1010  -32.1340   26.5200 C   0  0  0  0  0  1  0  0  0  0  0  0
  -27.6900  -22.5650   20.3130 C   0  0  0  0  0  2  0  0  0  0  0  0
  -26.4070  -24.6680   19.9890 C   0  0  0  0  0  1  0  0  0  0  0  0
  -26.9030  -23.6850   21.0860 C   0  0  1  0  0  0  0  0  0  0  0  0
  -24.3940  -23.9060   21.9210 C   0  0  0  0  0  1  0  0  0  0  0  0
  -25.6900  -23.0670   21.8530 C   0  0  0  0  0  2  0  0  0  0  0  0
  -27.2900  -25.6870   22.7620 C   0  0  0  0  0  1  0  0  0  0  0  0
  -27.8570  -24.4350   22.0610 C   0  0  0  0  0  2  0  0  0  0  0  0
  2  8  1  0
  2  1  1  0
  3 50  1  0
  3  1  1  0
  4  5  1  0
  4  2  1  0
  5  3  1  0
  8  6  1  6
  7  8  1  0
  8  9  1  0
 10 16  1  0
 10 17  2  0
 11 16  1  0
 12 13  1  0
 12 11  1  0
 14 13  1  0
 14 22  1  0
 14 15  1  0
 16 15  1  0
 18  9  1  0
 18 10  1  0
 19 22  1  0
 19 20  2  0
 20 21  1  0
 21 24  1  0
 22 23  1  0
 23 21  2  0
 24 25  1  0
 25 26  2  0
 27 30  1  0
 27 26  1  0
 28 27  2  0
 29 28  1  0
 29 24  2  0
 30 31  1  0
 31 32  1  0
 32 33  2  0
 34 33  1  0
 34 38  1  0
 35 34  2  0
 36 31  2  0
 36 35  1  0
 37 36  1  0
 39 20  1  0
 39 40  1  0
 40 43  1  0
 40 42  1  0
 41 39  2  0
 44 19  1  0
 45 44  1  0
 46 44  1  0
 47 49  1  0
 48 49  1  0
 49 18  1  0
 51 52  1  0
 51 50  1  0
 53 54  1  0
 53 52  1  0
 55 66  2  0
 56 54  1  0
 56 61  1  0
 57 67  1  0
 57 65  1  0
 58 64  1  0
 58 60  1  0
 59 65  1  0
 60 59  1  0
 61 60  2  0
 62 63  1  0
 62 56  2  0
 63 58  2  0
 64 57  1  0
 65 55  1  0
 67 69  2  0
 68 67  1  0
 70 68  1  0
 71 80  2  0
 71 76  1  0
 72 68  1  0
 72 76  1  0
 73 72  1  0
 74 75  1  0
 74 73  1  0
 75 71  1  0
 76 77  2  0
 77 78  1  0
 79 78  2  0
 80 79  1  0
 81 55  1  0
 81 82  1  0
 81 91  1  0
 82 85  1  0
 83 87  1  0
 83 82  1  0
 84 83  2  0
 87 86  1  0
 87 89  1  0
 89 90  1  0
 89 88  1  0
 91 94  1  1
 91 92  1  0
 93 91  1  0
 95  5  1  0
 95 97  1  0
 97 96  1  6
 97 99  1  0
 97101  1  0
 99 98  1  0
101100  1  0
M  ISO  4  10 100  18 100  53 101  54 101
M  END
>  <TORSDO>  (21) 
F 27

>  <SCORE>  (21) 
-8.355

>  <name>  (21) 
22

>  <ligand_id>  (21) 
22

>  <original_smiles>  (21) 
[H]c1c([H])c([H])c2c(c1[H])C([H])([H])C([H])([H])C([H])([H])C2([H])N([H])C(=O)C1([H])N(C(=O)C([H])(N([H])C(=O)C([H])(N([H])C([H])([H])[H])C([H])([H])[H])C(C([H])([H])[H])(C([H])([H])[H])C([H])([H])[H])C([H])([H])c2c([H])c(OC([H])([H])C([H])([H])C([H])([H])C([H])([H])c3c([H])c(C(C([H])([H])[H])(C([H])([H])[H])C([H])([H])N(C(=O)N4C([H])([H])C([H])([H])C([H])([H])C([H])(n5nc(-c6c([H])c([H])c(Oc7c([H])c([H])c(F)c([H])c7F)c([H])c6[H])c(C(=O)N([H])[H])c5N([H])[H])C4([H])[H])C([H])(C([H])([H])[H])C([H])([H])[H])nn3C([H])([H])C(C([H])([H])[H])(C([H])([H])C([H])([H])[H])C([H])([H])C([H])([H])[H])c([H])c([H])c2C1([H])[H]

>  <smiles>  (21) 
[H]c1c([H])c([H])c2c(c1[H])C([H])([H])C([H])([H])C([H])([H])C2([H])N([H])C(=O)C1([H])N(C(=O)C([H])(N([H])C(=O)C([H])(N([H])C([H])([H])[H])C([H])([H])[H])C(C([H])([H])[H])(C([H])([H])[H])C([H])([H])[H])C([H])([H])c2c([H])c(OC([H])([H])C([H])([H])C([H])([H])C([H])([H])c3c([H])c(C(C([H])([H])[H])(C([H])([H])[H])C([H])([H])N(C(=O)N4C([H])([H])C([H])([H])C([H])([H])C([H])(n5nc(-c6c([H])c([H])c(Oc7c([H])c([H])c(F)c([H])c7F)c([H])c6[H])c(C(=O)N([H])[H])c5N([H])[H])C4([H])[H])C([H])(C([H])([H])[H])C([H])([H])[H])nn3C([H])([H])C(C([H])([H])[H])(C([H])([H])C([H])([H])[H])C([H])([H])C([H])([H])[H])c([H])c([H])c2C1([H])[H]

$$$$
23:0:0
     RDKit          3D

 95103  0  0  1  0  0  0  0  0999 V2000
  -29.4600  -20.2760   20.1060 C   0  0  0  0  0  0  0  0  0  0  0  0
  -30.3640  -22.2040   19.9010 C   0  0  0  0  0  3  0  0  0  0  0  0
  -31.4040  -23.2630   19.7160 C   0  0  0  0  0  1  0  0  0  0  0  0
  -30.6330  -20.8940   19.7450 N   0  0  0  0  0  0  0  0  0  0  0  0
  -28.5060  -21.2100   20.4110 N   0  0  0  0  0  2  0  0  0  0  0  0
  -29.0930  -22.4700   20.2530 N   0  0  0  0  0  0  0  0  0  0  0  0
  -27.9630  -18.3520   20.7730 C   0  0  0  0  0  1  0  0  0  0  0  0
  -29.1730  -18.6990   19.8650 C   0  0  1  0  0  0  0  0  0  0  0  0
  -27.8850  -19.6670   17.7380 C   0  0  0  0  0  1  0  0  0  0  0  0
  -28.0630  -17.1850   17.9810 C   0  0  0  0  0  1  0  0  0  0  0  0
  -28.7380  -18.5260   18.3440 C   0  0  0  0  0  3  0  0  0  0  0  0
  -31.4840  -17.6620   19.1860 C   0  0  0  0  0  1  0  0  0  0  0  0
  -31.0010  -17.9740   21.6070 C   0  0  0  0  0  1  0  0  0  0  0  0
  -30.3590  -17.5750   20.2570 C   0  0  1  0  0  0  0  0  0  0  0  0
  -30.7050  -14.8860   20.3460 C   0  0  0  0  0  0  0  0  0  0  0  0
  -30.4820  -12.5940   19.3820 C   0  0  0  0  0  2  0  0  0  0  0  0
  -29.5510  -12.6410   18.1530 C   0  0  0  0  0  2  0  0  0  0  0  0
  -28.0830  -12.4650   18.5830 C   0  0  0  0  0  2  0  0  0  0  0  0
  -27.6980  -13.3670   19.7850 C   0  0  0  0  0  3  0  0  0  0  0  0
  -28.7570  -13.3300   20.9070 C   0  0  0  0  0  2  0  0  0  0  0  0
  -30.0470  -13.6740   20.2960 N   0  0  0  0  0  0  0  0  0  0  0  0
  -31.9160  -14.9030   20.1250 O   0  0  0  0  0  0  0  0  0  0  0  0
  -29.9640  -16.0710   20.4000 N   0  0  0  0  0  0  0  0  0  0  0  0
  -28.9740  -15.9190   20.5050 H   0  0  0  0  0  0  0  0  0  0  0  0
  -25.3110  -13.9490   20.5180 C   0  0  0  0  0  0  0  0  0  0  0  0
  -24.2470  -13.1750   20.8840 C   0  0  0  0  0  0  0  0  0  0  0  0
  -24.7140  -11.8250   20.8570 C   0  0  0  0  0  0  0  0  0  0  0  0
  -26.3580  -13.0750   20.2820 N   0  0  0  0  0  0  0  0  0  0  0  0
  -26.0060  -11.7910   20.5520 N   0  0  0  0  0  0  0  0  0  0  0  0
  -23.9910  -10.5610   21.0440 C   0  0  0  0  0  0  0  0  0  0  0  0
  -24.4190   -9.5950   21.9800 C   0  0  0  0  0  3  0  0  0  0  0  0
  -23.6930   -8.3970   22.1560 C   0  0  0  0  0  3  0  0  0  0  0  0
  -22.5240   -8.1580   21.3940 C   0  0  0  0  0  0  0  0  0  0  0  0
  -22.1170   -9.1130   20.4460 C   0  0  0  0  0  3  0  0  0  0  0  0
  -22.8430  -10.3010   20.2690 C   0  0  0  0  0  3  0  0  0  0  0  0
  -21.7700   -7.0130   21.4800 O   0  0  0  0  0  0  0  0  0  0  0  0
  -21.7150   -6.2720   22.6330 C   0  0  0  0  0  0  0  0  0  0  0  0
  -21.2690   -6.8250   23.8530 C   0  0  0  0  0  3  0  0  0  0  0  0
  -21.1590   -6.0080   24.9980 C   0  0  0  0  0  3  0  0  0  0  0  0
  -21.4890   -4.6420   24.9220 C   0  0  0  0  0  0  0  0  0  0  0  0
  -21.9290   -4.0900   23.7070 C   0  0  0  0  0  3  0  0  0  0  0  0
  -22.0380   -4.9020   22.5650 C   0  0  0  0  0  0  0  0  0  0  0  0
  -22.4430   -4.3600   21.3910 F   0  0  0  0  0  0  0  0  0  0  0  0
  -21.3760   -3.8570   26.0190 F   0  0  0  0  0  0  0  0  0  0  0  0
  -22.8470  -13.6480   21.1450 C   0  0  0  0  0  0  0  0  0  0  0  0
  -22.1170  -12.9530   22.0070 N   0  0  0  0  0  0  0  0  0  0  0  0
  -22.4120  -14.6730   20.6210 O   0  0  0  0  0  0  0  0  0  0  0  0
  -22.4850  -12.1250   22.4540 H   0  0  0  0  0  0  0  0  0  0  0  0
  -21.1760  -13.2500   22.2230 H   0  0  0  0  0  0  0  0  0  0  0  0
  -25.4700  -15.3200   20.3390 N   0  0  0  0  0  0  0  0  0  0  0  0
  -24.6910  -15.9610   20.4340 H   0  0  0  0  0  0  0  0  0  0  0  0
  -26.2990  -15.7590   19.9660 H   0  0  0  0  0  0  0  0  0  0  0  0
  -28.3950  -23.7810   20.6530 C   0  0  0  0  0  2  0  0  0  0  0  0
  -28.4850  -25.1280   19.7510 C   0  0  0  0  0  2  0  0  0  0  0  0
  -28.3580  -26.5100   20.3380 O   0  0  0  0  0  0  0  0  0  0  0  0
  -24.5880  -31.9530   23.2700 C   0  0  0  0  0  0  0  0  0  0  0  0
  -27.2220  -27.3450   20.2500 C   0  0  0  0  0  0  0  0  0  0  0  0
  -23.3980  -30.5490   21.6250 C   0  0  0  0  0  3  0  0  0  0  0  0
  -24.8580  -28.9870   20.2130 C   0  0  0  0  0  0  0  0  0  0  0  0
  -25.9400  -30.8540   21.4630 C   0  0  0  0  0  2  0  0  0  0  0  0
  -26.0230  -29.4680   20.8220 C   0  0  0  0  0  0  0  0  0  0  0  0
  -27.2010  -28.6590   20.8310 C   0  0  0  0  0  3  0  0  0  0  0  0
  -26.0300  -26.9210   19.6220 C   0  0  0  0  0  3  0  0  0  0  0  0
  -24.8680  -27.7210   19.6030 C   0  0  0  0  0  3  0  0  0  0  0  0
  -23.6220  -29.8660   20.2480 C   0  0  0  0  0  2  0  0  0  0  0  0
  -24.6610  -31.1370   22.1760 N   0  0  0  0  0  0  0  0  0  0  0  0
  -23.4990  -32.2360   23.7930 O   0  0  0  0  0  0  0  0  0  0  0  0
  -22.7270  -29.5370   22.5850 C   0  0  0  0  0  0  0  0  0  0  0  0
  -21.4010  -29.3660   22.4530 N   0  0  0  0  0  0  0  0  0  0  0  0
  -23.3970  -28.9090   23.4060 O   0  0  0  0  0  0  0  0  0  0  0  0
  -20.9150  -29.9280   21.7680 H   0  0  0  0  0  0  0  0  0  0  0  0
  -18.0130  -28.1940   22.9440 C   0  0  0  0  0  0  0  0  0  0  0  0
  -20.5730  -28.4330   23.2190 C   0  0  0  0  0  3  0  0  0  0  0  0
  -20.6630  -27.0020   22.6410 C   0  0  0  0  0  2  0  0  0  0  0  0
  -19.5620  -26.6900   21.6230 C   0  0  0  0  0  2  0  0  0  0  0  0
  -18.1790  -26.8450   22.2640 C   0  0  0  0  0  2  0  0  0  0  0  0
  -19.1370  -28.9470   23.3770 C   0  0  0  0  0  0  0  0  0  0  0  0
  -18.9250  -30.2100   23.9710 C   0  0  0  0  0  3  0  0  0  0  0  0
  -17.6240  -30.7200   24.1360 C   0  0  0  0  0  3  0  0  0  0  0  0
  -16.5150  -29.9650   23.7190 C   0  0  0  0  0  3  0  0  0  0  0  0
  -16.7110  -28.7030   23.1290 C   0  0  0  0  0  3  0  0  0  0  0  0
  -25.8650  -32.5900   23.9000 C   0  0  0  0  0  3  0  0  0  0  0  0
  -25.5570  -33.9910   24.2130 N   0  0  0  0  0  0  0  0  0  0  0  0
  -25.8950  -35.0360   23.4450 C   0  0  0  0  0  0  0  0  0  0  0  0
  -26.5690  -34.9230   22.4190 O   0  0  0  0  0  0  0  0  0  0  0  0
  -24.9620  -34.1530   25.0110 H   0  0  0  0  0  0  0  0  0  0  0  0
  -24.1780  -36.8350   23.0620 C   0  0  0  0  0  1  0  0  0  0  0  0
  -25.4100  -36.4310   23.8880 C   0  0  0  0  0  3  0  0  0  0  0  0
  -27.5400  -37.3190   24.7340 C   0  0  0  0  0  1  0  0  0  0  0  0
  -26.4480  -37.4790   23.7750 N   0  0  0  0  0  0  0  0  0  0  0  0
  -26.0430  -38.4010   23.9110 H   0  0  0  0  0  0  0  0  0  0  0  0
  -26.3620  -31.8330   25.1940 C   0  0  1  0  0  0  0  0  0  0  0  0
  -25.2540  -31.6060   26.2480 C   0  0  0  0  0  1  0  0  0  0  0  0
  -26.9520  -30.4520   24.8240 C   0  0  0  0  0  1  0  0  0  0  0  0
  -27.4980  -32.6390   25.8680 C   0  0  0  0  0  1  0  0  0  0  0  0
  1  5  1  0
  2  3  1  0
  2  6  1  0
  4  2  1  0
  4  1  2  0
  6  5  1  0
  6 53  1  0
  8  1  1  0
  8 14  1  0
  8  7  1  1
  9 11  1  0
 10 11  1  0
 11  8  1  0
 14 12  1  6
 14 23  1  0
 14 13  1  0
 15 23  1  0
 16 21  1  0
 17 18  1  0
 17 16  1  0
 19 18  1  0
 19 28  1  0
 19 20  1  0
 21 15  1  0
 21 20  1  0
 22 15  2  0
 23 24  1  0
 25 26  2  0
 26 45  1  0
 27 26  1  0
 27 30  1  0
 28 25  1  0
 28 29  1  0
 29 27  2  0
 30 31  1  0
 31 32  2  0
 33 36  1  0
 33 32  1  0
 34 33  2  0
 35 34  1  0
 35 30  2  0
 36 37  1  0
 37 38  1  0
 38 39  2  0
 40 39  1  0
 40 44  1  0
 41 40  2  0
 42 37  2  0
 42 41  1  0
 43 42  1  0
 45 46  1  0
 46 49  1  0
 46 48  1  0
 47 45  2  0
 50 51  1  0
 50 25  1  0
 52 50  1  0
 54 55  1  0
 54 53  1  0
 56 67  2  0
 57 55  1  0
 57 62  1  0
 58 66  1  0
 58 68  1  0
 59 65  1  0
 59 61  1  0
 60 66  1  0
 61 62  2  0
 61 60  1  0
 63 57  2  0
 64 63  1  0
 64 59  2  0
 65 58  1  0
 66 56  1  0
 68 70  2  0
 69 68  1  0
 71 69  1  0
 72 81  2  0
 72 77  1  0
 73 69  1  0
 73 77  1  0
 74 73  1  0
 75 76  1  0
 75 74  1  0
 76 72  1  0
 77 78  2  0
 78 79  1  0
 80 79  2  0
 81 80  1  0
 82 56  1  0
 82 83  1  0
 82 92  1  0
 83 86  1  0
 84 88  1  0
 84 83  1  0
 85 84  2  0
 88 87  1  0
 90 88  1  0
 90 91  1  0
 90 89  1  0
 92 95  1  1
 92 93  1  0
 94 92  1  0
M  ISO  4  15 100  23 100  54 101  55 101
M  END
>  <TORSDO>  (22) 
F 21

>  <SCORE>  (22) 
-13.236

>  <name>  (22) 
23

>  <ligand_id>  (22) 
23

>  <original_smiles>  (22) 
[H]c1c([H])c([H])c2c(c1[H])C([H])([H])C([H])([H])C([H])([H])C2([H])N([H])C(=O)C1([H])N(C(=O)C([H])(N([H])C(=O)C([H])(N([H])C([H])([H])[H])C([H])([H])[H])C(C([H])([H])[H])(C([H])([H])[H])C([H])([H])[H])C([H])([H])c2c([H])c(OC([H])([H])C([H])([H])n3nc(C(C([H])([H])[H])(C([H])(C([H])([H])[H])C([H])([H])[H])C(N([H])C(=O)N4C([H])([H])C([H])([H])C([H])([H])C([H])(n5nc(-c6c([H])c([H])c(Oc7c([H])c([H])c(F)c([H])c7F)c([H])c6[H])c(C(=O)N([H])[H])c5N([H])[H])C4([H])[H])(C([H])([H])[H])C([H])([H])[H])nc3C([H])([H])[H])c([H])c([H])c2C1([H])[H]

>  <smiles>  (22) 
[H]c1c([H])c([H])c2c(c1[H])C([H])([H])C([H])([H])C([H])([H])C2([H])N([H])C(=O)C1([H])N(C(=O)C([H])(N([H])C(=O)C([H])(N([H])C([H])([H])[H])C([H])([H])[H])C(C([H])([H])[H])(C([H])([H])[H])C([H])([H])[H])C([H])([H])c2c([H])c(OC([H])([H])C([H])([H])n3nc(C(C([H])([H])[H])(C([H])(C([H])([H])[H])C([H])([H])[H])C(N([H])C(=O)N4C([H])([H])C([H])([H])C([H])([H])C([H])(n5nc(-c6c([H])c([H])c(Oc7c([H])c([H])c(F)c([H])c7F)c([H])c6[H])c(C(=O)N([H])[H])c5N([H])[H])C4([H])[H])(C([H])([H])[H])C([H])([H])[H])nc3C([H])([H])[H])c([H])c([H])c2C1([H])[H]

$$$$
24:0:0
     RDKit          3D

 99107  0  0  1  0  0  0  0  0999 V2000
  -30.0080  -20.7410   21.2460 C   0  0  0  0  0  3  0  0  0  0  0  0
  -29.4120  -19.8160   20.3340 C   0  0  0  0  0  0  0  0  0  0  0  0
  -28.8450  -21.7020   19.0200 C   0  0  0  0  0  0  0  0  0  0  0  0
  -29.4050  -22.6180   19.9610 C   0  0  0  0  0  0  0  0  0  0  0  0
  -28.1920  -22.1810   17.7360 C   0  0  0  0  0  1  0  0  0  0  0  0
  -30.0140  -22.0980   21.0630 N   0  0  0  0  0  0  0  0  0  0  0  0
  -28.8680  -20.3430   19.1950 N   0  0  0  0  0  0  0  0  0  0  0  0
  -29.2650  -18.0320   22.1670 C   0  0  0  0  0  1  0  0  0  0  0  0
  -29.2710  -18.2460   20.6240 C   0  0  1  0  0  0  0  0  0  0  0  0
  -27.8180  -17.7990   20.2130 C   0  0  2  0  0  0  0  0  0  0  0  0
  -27.6470  -17.7360   18.8930 F   0  0  0  0  0  0  0  0  0  0  0  0
  -26.8950  -18.6300   20.7090 F   0  0  0  0  0  0  0  0  0  0  0  0
  -27.5480  -16.5830   20.6970 F   0  0  0  0  0  0  0  0  0  0  0  0
  -30.4860  -17.4100   18.4530 C   0  0  0  0  0  1  0  0  0  0  0  0
  -31.8090  -17.7410   20.5260 C   0  0  0  0  0  1  0  0  0  0  0  0
  -30.4240  -17.2680   19.9960 C   0  0  1  0  0  0  0  0  0  0  0  0
  -30.9480  -14.6740   19.8830 C   0  0  0  0  0  0  0  0  0  0  0  0
  -30.6130  -12.4490   18.8380 C   0  0  0  0  0  2  0  0  0  0  0  0
  -29.5960  -12.5950   17.6860 C   0  0  0  0  0  2  0  0  0  0  0  0
  -28.1610  -12.4310   18.2190 C   0  0  0  0  0  2  0  0  0  0  0  0
  -27.8880  -13.2960   19.4790 C   0  0  0  0  0  3  0  0  0  0  0  0
  -29.0200  -13.1510   20.5230 C   0  0  0  0  0  2  0  0  0  0  0  0
  -30.2890  -13.4730   19.8560 N   0  0  0  0  0  0  0  0  0  0  0  0
  -32.0630  -14.7810   19.3700 O   0  0  0  0  0  0  0  0  0  0  0  0
  -30.2410  -15.7780   20.2980 N   0  0  0  0  0  0  0  0  0  0  0  0
  -29.3720  -15.5470   20.7560 H   0  0  0  0  0  0  0  0  0  0  0  0
  -25.5640  -13.8890   20.4010 C   0  0  0  0  0  0  0  0  0  0  0  0
  -24.5220  -13.1180   20.8320 C   0  0  0  0  0  0  0  0  0  0  0  0
  -24.9560  -11.7640   20.7050 C   0  0  0  0  0  0  0  0  0  0  0  0
  -26.5770  -13.0090   20.0560 N   0  0  0  0  0  0  0  0  0  0  0  0
  -26.2190  -11.7200   20.2940 N   0  0  0  0  0  0  0  0  0  0  0  0
  -24.2240  -10.5060   20.9010 C   0  0  0  0  0  0  0  0  0  0  0  0
  -24.6720   -9.5270   21.8170 C   0  0  0  0  0  3  0  0  0  0  0  0
  -23.9430   -8.3330   22.0010 C   0  0  0  0  0  3  0  0  0  0  0  0
  -22.7510   -8.1090   21.2710 C   0  0  0  0  0  0  0  0  0  0  0  0
  -22.3210   -9.0760   20.3450 C   0  0  0  0  0  3  0  0  0  0  0  0
  -23.0500  -10.2620   20.1580 C   0  0  0  0  0  3  0  0  0  0  0  0
  -21.9930   -6.9680   21.3640 O   0  0  0  0  0  0  0  0  0  0  0  0
  -21.8950   -6.2630   22.5370 C   0  0  0  0  0  0  0  0  0  0  0  0
  -21.4430   -6.8660   23.7320 C   0  0  0  0  0  3  0  0  0  0  0  0
  -21.2910   -6.0890   24.8980 C   0  0  0  0  0  3  0  0  0  0  0  0
  -21.5810   -4.7100   24.8690 C   0  0  0  0  0  0  0  0  0  0  0  0
  -22.0260   -4.1090   23.6790 C   0  0  0  0  0  3  0  0  0  0  0  0
  -22.1780   -4.8830   22.5150 C   0  0  0  0  0  0  0  0  0  0  0  0
  -22.5880   -4.2940   21.3650 F   0  0  0  0  0  0  0  0  0  0  0  0
  -21.4260   -3.9620   25.9870 F   0  0  0  0  0  0  0  0  0  0  0  0
  -23.1590  -13.6050   21.2370 C   0  0  0  0  0  0  0  0  0  0  0  0
  -22.5030  -12.8950   22.1460 N   0  0  0  0  0  0  0  0  0  0  0  0
  -22.6920  -14.6500   20.7830 O   0  0  0  0  0  0  0  0  0  0  0  0
  -22.8950  -12.0480   22.5330 H   0  0  0  0  0  0  0  0  0  0  0  0
  -21.5880  -13.1960   22.4540 H   0  0  0  0  0  0  0  0  0  0  0  0
  -25.7190  -15.2600   20.2540 N   0  0  0  0  0  0  0  0  0  0  0  0
  -24.9690  -15.9070   20.4630 H   0  0  0  0  0  0  0  0  0  0  0  0
  -26.5470  -15.7220   19.9050 H   0  0  0  0  0  0  0  0  0  0  0  0
  -29.5320  -24.1700   19.7000 C   0  0  0  0  0  2  0  0  0  0  0  0
  -29.8030  -25.5260   21.8390 C   0  0  0  0  0  1  0  0  0  0  0  0
  -27.5310  -24.6920   21.2340 C   0  0  0  0  0  1  0  0  0  0  0  0
  -28.8590  -25.2420   20.6610 C   0  0  2  0  0  0  0  0  0  0  0  0
  -28.7800  -26.5850   20.0350 O   0  0  0  0  0  0  0  0  0  0  0  0
  -24.6450  -31.6550   23.0580 C   0  0  0  0  0  0  0  0  0  0  0  0
  -27.5980  -27.3300   20.0240 C   0  0  0  0  0  0  0  0  0  0  0  0
  -23.5720  -30.2140   21.3610 C   0  0  0  0  0  3  0  0  0  0  0  0
  -25.1480  -28.7790   19.9550 C   0  0  0  0  0  0  0  0  0  0  0  0
  -26.0880  -30.6900   21.2590 C   0  0  0  0  0  2  0  0  0  0  0  0
  -26.2630  -29.3320   20.5970 C   0  0  0  0  0  0  0  0  0  0  0  0
  -27.4930  -28.6160   20.6260 C   0  0  0  0  0  3  0  0  0  0  0  0
  -26.4720  -26.8260   19.3420 C   0  0  0  0  0  3  0  0  0  0  0  0
  -25.2520  -27.5290   19.3180 C   0  0  0  0  0  3  0  0  0  0  0  0
  -23.8610  -29.5750   19.9770 C   0  0  0  0  0  2  0  0  0  0  0  0
  -24.7820  -30.8720   21.9500 N   0  0  0  0  0  0  0  0  0  0  0  0
  -23.5340  -31.8620   23.5650 O   0  0  0  0  0  0  0  0  0  0  0  0
  -22.9440  -29.1430   22.2870 C   0  0  0  0  0  0  0  0  0  0  0  0
  -21.6250  -28.9290   22.1560 N   0  0  0  0  0  0  0  0  0  0  0  0
  -23.6430  -28.5110   23.0840 O   0  0  0  0  0  0  0  0  0  0  0  0
  -21.1210  -29.4960   21.4870 H   0  0  0  0  0  0  0  0  0  0  0  0
  -18.2740  -27.6610   22.6560 C   0  0  0  0  0  0  0  0  0  0  0  0
  -20.8350  -27.9420   22.8910 C   0  0  0  0  0  3  0  0  0  0  0  0
  -20.9460  -26.5430   22.2430 C   0  0  0  0  0  2  0  0  0  0  0  0
  -19.8260  -26.2540   21.2370 C   0  0  0  0  0  2  0  0  0  0  0  0
  -18.4530  -26.3490   21.9110 C   0  0  0  0  0  2  0  0  0  0  0  0
  -19.3920  -28.4160   23.1000 C   0  0  0  0  0  0  0  0  0  0  0  0
  -19.1660  -29.6480   23.7550 C   0  0  0  0  0  3  0  0  0  0  0  0
  -17.8580  -30.1190   23.9720 C   0  0  0  0  0  3  0  0  0  0  0  0
  -16.7560  -29.3600   23.5450 C   0  0  0  0  0  3  0  0  0  0  0  0
  -16.9660  -28.1340   22.8880 C   0  0  0  0  0  3  0  0  0  0  0  0
  -25.8720  -32.3480   23.7260 C   0  0  0  0  0  3  0  0  0  0  0  0
  -25.4650  -33.7130   24.0830 N   0  0  0  0  0  0  0  0  0  0  0  0
  -25.7420  -34.8060   23.3590 C   0  0  0  0  0  0  0  0  0  0  0  0
  -26.4350  -34.7760   22.3370 O   0  0  0  0  0  0  0  0  0  0  0  0
  -24.8460  -33.8060   24.8760 H   0  0  0  0  0  0  0  0  0  0  0  0
  -23.9040  -36.4910   23.0270 C   0  0  0  0  0  1  0  0  0  0  0  0
  -25.1590  -36.1460   23.8450 C   0  0  0  0  0  3  0  0  0  0  0  0
  -27.2200  -37.1460   24.7300 C   0  0  0  0  0  1  0  0  0  0  0  0
  -26.1200  -37.2670   23.7760 N   0  0  0  0  0  0  0  0  0  0  0  0
  -25.6510  -38.1530   23.9450 H   0  0  0  0  0  0  0  0  0  0  0  0
  -26.4090  -31.5770   24.9930 C   0  0  1  0  0  0  0  0  0  0  0  0
  -25.3080  -31.2390   26.0250 C   0  0  0  0  0  1  0  0  0  0  0  0
  -27.0950  -30.2530   24.5790 C   0  0  0  0  0  1  0  0  0  0  0  0
  -27.4820  -32.4330   25.7080 C   0  0  0  0  0  1  0  0  0  0  0  0
  2  9  1  0
  2  1  2  0
  3  7  2  0
  3  4  1  0
  4  6  2  0
  5  3  1  0
  6  1  1  0
  7  2  1  0
  9  8  1  1
 10  9  1  0
 10 13  1  1
 10 12  1  0
 11 10  1  0
 16 14  1  6
 16 25  1  0
 16 15  1  0
 16  9  1  0
 17 25  1  0
 18 23  1  0
 19 20  1  0
 19 18  1  0
 21 20  1  0
 21 30  1  0
 21 22  1  0
 23 17  1  0
 23 22  1  0
 24 17  2  0
 25 26  1  0
 27 28  2  0
 28 47  1  0
 29 28  1  0
 29 32  1  0
 30 31  1  0
 30 27  1  0
 31 29  2  0
 32 33  1  0
 33 34  2  0
 35 38  1  0
 35 34  1  0
 36 35  2  0
 37 36  1  0
 37 32  2  0
 38 39  1  0
 39 40  1  0
 40 41  2  0
 42 41  1  0
 42 46  1  0
 43 42  2  0
 44 39  2  0
 44 43  1  0
 45 44  1  0
 47 48  1  0
 48 51  1  0
 48 50  1  0
 49 47  2  0
 52 27  1  0
 52 53  1  0
 54 52  1  0
 55  4  1  0
 55 58  1  0
 58 57  1  1
 58 56  1  0
 59 58  1  0
 60 71  2  0
 61 59  1  0
 61 66  1  0
 62 70  1  0
 62 72  1  0
 63 69  1  0
 63 65  1  0
 64 70  1  0
 65 66  2  0
 65 64  1  0
 67 61  2  0
 68 67  1  0
 68 63  2  0
 69 62  1  0
 70 60  1  0
 72 74  2  0
 73 72  1  0
 75 73  1  0
 76 85  2  0
 76 81  1  0
 77 73  1  0
 77 81  1  0
 78 77  1  0
 79 80  1  0
 79 78  1  0
 80 76  1  0
 81 82  2  0
 82 83  1  0
 84 83  2  0
 85 84  1  0
 86 60  1  0
 86 87  1  0
 86 96  1  0
 87 90  1  0
 88 92  1  0
 88 87  1  0
 89 88  2  0
 92 91  1  0
 94 92  1  0
 94 95  1  0
 94 93  1  0
 96 99  1  1
 96 97  1  0
 98 96  1  0
M  ISO  4  17 100  25 100  58 101  59 101
M  END
>  <TORSDO>  (23) 
F 21

>  <SCORE>  (23) 
-11.940

>  <name>  (23) 
24

>  <ligand_id>  (23) 
24

>  <original_smiles>  (23) 
[H]c1nc(C([H])([H])C(Oc2c([H])c([H])c3c(c2[H])C([H])([H])N(C(=O)C([H])(N([H])C(=O)C([H])(N([H])C([H])([H])[H])C([H])([H])[H])C(C([H])([H])[H])(C([H])([H])[H])C([H])([H])[H])C([H])(C(=O)N([H])C2([H])c4c([H])c([H])c([H])c([H])c4C([H])([H])C([H])([H])C2([H])[H])C3([H])[H])(C([H])([H])[H])C([H])([H])[H])c(C([H])([H])[H])nc1C(C([H])([H])[H])(C(F)(F)F)C(N([H])C(=O)N1C([H])([H])C([H])([H])C([H])([H])C([H])(n2nc(-c3c([H])c([H])c(Oc4c([H])c([H])c(F)c([H])c4F)c([H])c3[H])c(C(=O)N([H])[H])c2N([H])[H])C1([H])[H])(C([H])([H])[H])C([H])([H])[H]

>  <smiles>  (23) 
[H]c1nc(C([H])([H])C(Oc2c([H])c([H])c3c(c2[H])C([H])([H])N(C(=O)C([H])(N([H])C(=O)C([H])(N([H])C([H])([H])[H])C([H])([H])[H])C(C([H])([H])[H])(C([H])([H])[H])C([H])([H])[H])C([H])(C(=O)N([H])C2([H])c4c([H])c([H])c([H])c([H])c4C([H])([H])C([H])([H])C2([H])[H])C3([H])[H])(C([H])([H])[H])C([H])([H])[H])c(C([H])([H])[H])nc1C(C([H])([H])[H])(C(F)(F)F)C(N([H])C(=O)N1C([H])([H])C([H])([H])C([H])([H])C([H])(n2nc(-c3c([H])c([H])c(Oc4c([H])c([H])c(F)c([H])c4F)c([H])c3[H])c(C(=O)N([H])[H])c2N([H])[H])C1([H])[H])(C([H])([H])[H])C([H])([H])[H]

$$$$
25:0:0
     RDKit          3D

 94102  0  0  1  0  0  0  0  0999 V2000
  -28.8860  -20.8960   20.5800 C   0  0  0  0  0  0  0  0  0  0  0  0
  -29.5620  -18.8000   20.3060 C   0  0  0  0  0  0  0  0  0  0  0  0
  -28.0810  -20.3230   19.6700 N   0  0  0  0  0  0  0  0  0  0  0  0
  -28.4950  -18.9930   19.5110 N   0  0  0  0  0  0  0  0  0  0  0  0
  -29.7720  -19.9450   21.0690 N   0  0  0  0  0  0  0  0  0  0  0  0
  -31.9730  -20.8710   21.8460 C   0  0  0  0  0  1  0  0  0  0  0  0
  -30.6910  -20.1050   22.1930 C   0  0  0  0  0  2  0  0  0  0  0  0
  -28.6530  -22.3690   21.1350 C   0  0  0  0  0  2  0  0  0  0  0  0
  -28.6090  -23.7080   20.2060 C   0  0  0  0  0  3  0  0  0  0  0  0
  -28.1860  -25.1240   20.8880 C   0  0  0  0  0  3  0  0  0  0  0  0
  -28.3470  -26.4710   20.2350 O   0  0  0  0  0  0  0  0  0  0  0  0
  -24.6040  -31.9190   23.2500 C   0  0  0  0  0  0  0  0  0  0  0  0
  -27.2460  -27.3520   20.2170 C   0  0  0  0  0  0  0  0  0  0  0  0
  -23.4170  -30.5150   21.6040 C   0  0  0  0  0  3  0  0  0  0  0  0
  -24.8810  -28.9690   20.1850 C   0  0  0  0  0  0  0  0  0  0  0  0
  -25.9550  -30.8520   21.4200 C   0  0  0  0  0  2  0  0  0  0  0  0
  -26.0510  -29.4700   20.7740 C   0  0  0  0  0  0  0  0  0  0  0  0
  -27.2430  -28.6780   20.7650 C   0  0  0  0  0  3  0  0  0  0  0  0
  -26.0520  -26.9030   19.6170 C   0  0  0  0  0  3  0  0  0  0  0  0
  -24.8850  -27.6920   19.6000 C   0  0  0  0  0  3  0  0  0  0  0  0
  -23.6400  -29.8390   20.2250 C   0  0  0  0  0  2  0  0  0  0  0  0
  -24.6790  -31.1110   22.1510 N   0  0  0  0  0  0  0  0  0  0  0  0
  -23.5160  -32.1890   23.7810 O   0  0  0  0  0  0  0  0  0  0  0  0
  -22.7530  -29.4960   22.5620 C   0  0  0  0  0  0  0  0  0  0  0  0
  -21.4280  -29.3070   22.4270 N   0  0  0  0  0  0  0  0  0  0  0  0
  -23.4300  -28.8750   23.3850 O   0  0  0  0  0  0  0  0  0  0  0  0
  -20.9360  -29.8650   21.7440 H   0  0  0  0  0  0  0  0  0  0  0  0
  -18.0610  -28.0740   22.9090 C   0  0  0  0  0  0  0  0  0  0  0  0
  -20.6150  -28.3590   23.1920 C   0  0  0  0  0  3  0  0  0  0  0  0
  -20.7330  -26.9290   22.6180 C   0  0  0  0  0  2  0  0  0  0  0  0
  -19.6430  -26.5940   21.5950 C   0  0  0  0  0  2  0  0  0  0  0  0
  -18.2560  -26.7270   22.2310 C   0  0  0  0  0  2  0  0  0  0  0  0
  -19.1690  -28.8480   23.3450 C   0  0  0  0  0  0  0  0  0  0  0  0
  -18.9340  -30.1080   23.9360 C   0  0  0  0  0  3  0  0  0  0  0  0
  -17.6230  -30.5960   24.0920 C   0  0  0  0  0  3  0  0  0  0  0  0
  -16.5300  -29.8200   23.6740 C   0  0  0  0  0  3  0  0  0  0  0  0
  -16.7480  -28.5580   23.0900 C   0  0  0  0  0  3  0  0  0  0  0  0
  -25.8790  -32.5650   23.8790 C   0  0  0  0  0  3  0  0  0  0  0  0
  -25.5630  -33.9670   24.1930 N   0  0  0  0  0  0  0  0  0  0  0  0
  -25.9010  -35.0130   23.4280 C   0  0  0  0  0  0  0  0  0  0  0  0
  -26.5760  -34.9020   22.4020 O   0  0  0  0  0  0  0  0  0  0  0  0
  -24.9660  -34.1300   24.9890 H   0  0  0  0  0  0  0  0  0  0  0  0
  -24.1840  -36.8130   23.0380 C   0  0  0  0  0  1  0  0  0  0  0  0
  -25.4100  -36.4060   23.8720 C   0  0  0  0  0  3  0  0  0  0  0  0
  -27.5300  -37.2930   24.7380 C   0  0  0  0  0  1  0  0  0  0  0  0
  -26.4470  -37.4550   23.7720 N   0  0  0  0  0  0  0  0  0  0  0  0
  -26.0390  -38.3770   23.9060 H   0  0  0  0  0  0  0  0  0  0  0  0
  -26.3840  -31.8110   25.1700 C   0  0  1  0  0  0  0  0  0  0  0  0
  -25.2820  -31.5830   26.2320 C   0  0  0  0  0  1  0  0  0  0  0  0
  -26.9720  -30.4300   24.8010 C   0  0  0  0  0  1  0  0  0  0  0  0
  -27.5230  -32.6180   25.8390 C   0  0  0  0  0  1  0  0  0  0  0  0
  -30.5540  -17.5460   20.1650 C   0  0  0  0  0  3  0  0  0  0  0  0
  -30.6800  -14.8850   20.3710 C   0  0  0  0  0  0  0  0  0  0  0  0
  -30.4540  -12.6020   19.3870 C   0  0  0  0  0  2  0  0  0  0  0  0
  -29.5520  -12.6390   18.1390 C   0  0  0  0  0  2  0  0  0  0  0  0
  -28.0790  -12.4530   18.5460 C   0  0  0  0  0  2  0  0  0  0  0  0
  -27.6670  -13.3620   19.7390 C   0  0  0  0  0  3  0  0  0  0  0  0
  -28.7060  -13.3450   20.8770 C   0  0  0  0  0  2  0  0  0  0  0  0
  -29.9970  -13.6920   20.2820 N   0  0  0  0  0  0  0  0  0  0  0  0
  -31.8980  -14.8500   20.2340 O   0  0  0  0  0  0  0  0  0  0  0  0
  -29.9980  -16.1040   20.3360 N   0  0  0  0  0  0  0  0  0  0  0  0
  -28.9920  -16.0440   20.3660 H   0  0  0  0  0  0  0  0  0  0  0  0
  -25.2750  -13.9210   20.4580 C   0  0  0  0  0  0  0  0  0  0  0  0
  -24.2170  -13.1360   20.8260 C   0  0  0  0  0  0  0  0  0  0  0  0
  -24.6990  -11.7920   20.8150 C   0  0  0  0  0  0  0  0  0  0  0  0
  -26.3270  -13.0530   20.2290 N   0  0  0  0  0  0  0  0  0  0  0  0
  -25.9920  -11.7680   20.5150 N   0  0  0  0  0  0  0  0  0  0  0  0
  -23.9860  -10.5240   21.0030 C   0  0  0  0  0  0  0  0  0  0  0  0
  -24.4110   -9.5720   21.9560 C   0  0  0  0  0  3  0  0  0  0  0  0
  -23.6960   -8.3680   22.1340 C   0  0  0  0  0  3  0  0  0  0  0  0
  -22.5420   -8.1060   21.3580 C   0  0  0  0  0  0  0  0  0  0  0  0
  -22.1360   -9.0470   20.3940 C   0  0  0  0  0  3  0  0  0  0  0  0
  -22.8520  -10.2430   20.2160 C   0  0  0  0  0  3  0  0  0  0  0  0
  -21.7940   -6.9570   21.4460 O   0  0  0  0  0  0  0  0  0  0  0  0
  -21.7170   -6.2360   22.6110 C   0  0  0  0  0  0  0  0  0  0  0  0
  -21.2140   -6.7970   23.8050 C   0  0  0  0  0  3  0  0  0  0  0  0
  -21.0870   -5.9990   24.9600 C   0  0  0  0  0  3  0  0  0  0  0  0
  -21.4530   -4.6390   24.9210 C   0  0  0  0  0  0  0  0  0  0  0  0
  -21.9470   -4.0770   23.7310 C   0  0  0  0  0  3  0  0  0  0  0  0
  -22.0760   -4.8740   22.5800 C   0  0  0  0  0  0  0  0  0  0  0  0
  -22.5320   -4.3200   21.4300 F   0  0  0  0  0  0  0  0  0  0  0  0
  -21.3240   -3.8700   26.0270 F   0  0  0  0  0  0  0  0  0  0  0  0
  -22.8100  -13.6000   21.0720 C   0  0  0  0  0  0  0  0  0  0  0  0
  -22.0740  -12.9080   21.9350 N   0  0  0  0  0  0  0  0  0  0  0  0
  -22.3710  -14.6140   20.5310 O   0  0  0  0  0  0  0  0  0  0  0  0
  -22.4430  -12.0930   22.4020 H   0  0  0  0  0  0  0  0  0  0  0  0
  -21.1270  -13.2020   22.1340 H   0  0  0  0  0  0  0  0  0  0  0  0
  -25.4210  -15.2910   20.2750 N   0  0  0  0  0  0  0  0  0  0  0  0
  -24.6400  -15.9280   20.3900 H   0  0  0  0  0  0  0  0  0  0  0  0
  -26.2590  -15.7490   19.9400 H   0  0  0  0  0  0  0  0  0  0  0  0
  -33.0070  -17.5780   19.2770 C   0  0  0  0  0  1  0  0  0  0  0  0
  -31.4590  -19.1420   18.2420 C   0  0  0  0  0  1  0  0  0  0  0  0
  -31.1610  -16.7570   17.7330 C   0  0  0  0  0  1  0  0  0  0  0  0
  -31.5130  -17.7290   18.8880 C   0  0  2  0  0  0  0  0  0  0  0  0
  1  5  1  0
  1  8  1  0
  2  5  1  0
  3  1  2  0
  4  3  1  0
  4  2  2  0
  5  7  1  0
  6  7  1  0
  9 10  2  0
  9  8  1  0
 11 10  1  0
 12 23  2  0
 13 11  1  0
 13 18  1  0
 14 22  1  0
 14 24  1  0
 15 21  1  0
 15 17  1  0
 16 22  1  0
 17 16  1  0
 18 17  2  0
 19 13  2  0
 20 19  1  0
 20 15  2  0
 21 14  1  0
 22 12  1  0
 24 26  2  0
 25 24  1  0
 27 25  1  0
 28 37  2  0
 28 33  1  0
 29 25  1  0
 29 33  1  0
 30 29  1  0
 31 32  1  0
 31 30  1  0
 32 28  1  0
 33 34  2  0
 34 35  1  0
 36 35  2  0
 37 36  1  0
 38 12  1  0
 38 39  1  0
 38 48  1  0
 39 42  1  0
 40 44  1  0
 40 39  1  0
 41 40  2  0
 44 43  1  0
 46 44  1  0
 46 47  1  0
 46 45  1  0
 48 51  1  1
 48 49  1  0
 50 48  1  0
 52 94  1  0
 52  2  1  0
 52 61  1  0
 54 59  1  0
 55 56  1  0
 55 54  1  0
 57 56  1  0
 57 66  1  0
 57 58  1  0
 59 53  1  0
 59 58  1  0
 60 53  2  0
 61 62  1  0
 61 53  1  0
 63 64  2  0
 64 83  1  0
 65 64  1  0
 65 68  1  0
 66 63  1  0
 66 67  1  0
 67 65  2  0
 68 69  1  0
 69 70  2  0
 71 74  1  0
 71 70  1  0
 72 71  2  0
 73 72  1  0
 73 68  2  0
 74 75  1  0
 75 76  1  0
 76 77  2  0
 78 77  1  0
 78 82  1  0
 79 78  2  0
 80 75  2  0
 80 79  1  0
 81 80  1  0
 83 84  1  0
 84 87  1  0
 84 86  1  0
 85 83  2  0
 88 89  1  0
 88 63  1  0
 90 88  1  0
 94 92  1  6
 93 94  1  0
 94 91  1  0
M  ISO  4  10 101  11 101  53 100  61 100
M  END
>  <TORSDO>  (24) 
F 22

>  <SCORE>  (24) 
-13.327

>  <name>  (24) 
25

>  <ligand_id>  (24) 
25

>  <original_smiles>  (24) 
[H]c1c([H])c([H])c2c(c1[H])C([H])([H])C([H])([H])C([H])([H])C2([H])N([H])C(=O)C1([H])N(C(=O)C([H])(N([H])C(=O)C([H])(N([H])C([H])([H])[H])C([H])([H])[H])C(C([H])([H])[H])(C([H])([H])[H])C([H])([H])[H])C([H])([H])c2c([H])c(OC([H])([H])C([H])([H])C([H])([H])c3nnc(C([H])(N([H])C(=O)N4C([H])([H])C([H])([H])C([H])([H])C([H])(n5nc(-c6c([H])c([H])c(Oc7c([H])c([H])c(F)c([H])c7F)c([H])c6[H])c(C(=O)N([H])[H])c5N([H])[H])C4([H])[H])C(C([H])([H])[H])(C([H])([H])[H])C([H])([H])[H])n3C([H])([H])C([H])([H])[H])c([H])c([H])c2C1([H])[H]

>  <smiles>  (24) 
[H]c1c([H])c([H])c2c(c1[H])C([H])([H])C([H])([H])C([H])([H])C2([H])N([H])C(=O)C1([H])N(C(=O)C([H])(N([H])C(=O)C([H])(N([H])C([H])([H])[H])C([H])([H])[H])C(C([H])([H])[H])(C([H])([H])[H])C([H])([H])[H])C([H])([H])c2c([H])c(OC([H])([H])C([H])([H])C([H])([H])c3nnc(C([H])(N([H])C(=O)N4C([H])([H])C([H])([H])C([H])([H])C([H])(n5nc(-c6c([H])c([H])c(Oc7c([H])c([H])c(F)c([H])c7F)c([H])c6[H])c(C(=O)N([H])[H])c5N([H])[H])C4([H])[H])C(C([H])([H])[H])(C([H])([H])[H])C([H])([H])[H])n3C([H])([H])C([H])([H])[H])c([H])c([H])c2C1([H])[H]

$$$$
26:0:0
     RDKit          3D

 97105  0  0  1  0  0  0  0  0999 V2000
  -28.4040  -23.6400   19.3690 C   0  0  0  0  0  0  0  0  0  0  0  0
  -27.5520  -22.9300   18.5380 C   0  0  0  0  0  0  0  0  0  0  0  0
  -28.7740  -21.3440   19.5930 C   0  0  0  0  0  0  0  0  0  0  0  0
  -26.5480  -23.5730   17.6180 C   0  0  0  0  0  1  0  0  0  0  0  0
  -29.1630  -22.6000   20.0130 N   0  0  0  0  0  0  0  0  0  0  0  0
  -27.7720  -21.5130   18.6520 N   0  0  0  0  0  0  0  0  0  0  0  0
  -27.6330  -19.1100   17.8040 C   0  0  0  0  0  1  0  0  0  0  0  0
  -26.4740  -20.8090   16.5370 C   0  0  0  0  0  1  0  0  0  0  0  0
  -25.6450  -20.2780   18.8270 C   0  0  0  0  0  1  0  0  0  0  0  0
  -26.9180  -20.4640   17.9810 C   0  0  2  0  0  0  0  0  0  0  0  0
  -30.1640  -25.4930   19.1570 C   0  0  0  0  0  1  0  0  0  0  0  0
  -28.6650  -25.2490   19.3200 C   0  0  0  0  0  3  0  0  0  0  0  0
  -28.2630  -26.3000   20.3280 O   0  0  0  0  0  0  0  0  0  0  0  0
  -24.5930  -31.8440   23.2400 C   0  0  0  0  0  0  0  0  0  0  0  0
  -27.1880  -27.2190   20.1990 C   0  0  0  0  0  0  0  0  0  0  0  0
  -23.3870  -30.4510   21.5950 C   0  0  0  0  0  3  0  0  0  0  0  0
  -24.8360  -28.8860   20.1740 C   0  0  0  0  0  0  0  0  0  0  0  0
  -25.9280  -30.7470   21.4190 C   0  0  0  0  0  2  0  0  0  0  0  0
  -26.0060  -29.3590   20.7740 C   0  0  0  0  0  0  0  0  0  0  0  0
  -27.1780  -28.5330   20.7900 C   0  0  0  0  0  3  0  0  0  0  0  0
  -25.9860  -26.8140   19.5880 C   0  0  0  0  0  3  0  0  0  0  0  0
  -24.8250  -27.6120   19.5820 C   0  0  0  0  0  3  0  0  0  0  0  0
  -23.6090  -29.7760   20.2130 C   0  0  0  0  0  2  0  0  0  0  0  0
  -24.6540  -31.0320   22.1420 N   0  0  0  0  0  0  0  0  0  0  0  0
  -23.5100  -32.1260   23.7750 O   0  0  0  0  0  0  0  0  0  0  0  0
  -22.7150  -29.4410   22.5550 C   0  0  0  0  0  0  0  0  0  0  0  0
  -21.3860  -29.2760   22.4350 N   0  0  0  0  0  0  0  0  0  0  0  0
  -23.3910  -28.8090   23.3710 O   0  0  0  0  0  0  0  0  0  0  0  0
  -20.8940  -29.8420   21.7570 H   0  0  0  0  0  0  0  0  0  0  0  0
  -18.0070  -28.0910   22.9420 C   0  0  0  0  0  0  0  0  0  0  0  0
  -20.5660  -28.3420   23.2070 C   0  0  0  0  0  3  0  0  0  0  0  0
  -20.6630  -26.9100   22.6330 C   0  0  0  0  0  2  0  0  0  0  0  0
  -19.5600  -26.5900   21.6190 C   0  0  0  0  0  2  0  0  0  0  0  0
  -18.1790  -26.7390   22.2660 C   0  0  0  0  0  2  0  0  0  0  0  0
  -19.1290  -28.8480   23.3700 C   0  0  0  0  0  0  0  0  0  0  0  0
  -18.9190  -30.1080   23.9670 C   0  0  0  0  0  3  0  0  0  0  0  0
  -17.6180  -30.6150   24.1400 C   0  0  0  0  0  3  0  0  0  0  0  0
  -16.5100  -29.8560   23.7270 C   0  0  0  0  0  3  0  0  0  0  0  0
  -16.7040  -28.5970   23.1330 C   0  0  0  0  0  3  0  0  0  0  0  0
  -25.8810  -32.4740   23.8610 C   0  0  0  0  0  3  0  0  0  0  0  0
  -25.5800  -33.8760   24.1810 N   0  0  0  0  0  0  0  0  0  0  0  0
  -25.9230  -34.9260   23.4190 C   0  0  0  0  0  0  0  0  0  0  0  0
  -26.5960  -34.8140   22.3900 O   0  0  0  0  0  0  0  0  0  0  0  0
  -24.9920  -34.0390   24.9840 H   0  0  0  0  0  0  0  0  0  0  0  0
  -24.2080  -36.7310   23.0540 C   0  0  0  0  0  1  0  0  0  0  0  0
  -25.4430  -36.3200   23.8700 C   0  0  0  0  0  3  0  0  0  0  0  0
  -27.5780  -37.1970   24.7060 C   0  0  0  0  0  1  0  0  0  0  0  0
  -26.4830  -37.3670   23.7540 N   0  0  0  0  0  0  0  0  0  0  0  0
  -26.0800  -38.2890   23.9020 H   0  0  0  0  0  0  0  0  0  0  0  0
  -26.3870  -31.7130   25.1480 C   0  0  1  0  0  0  0  0  0  0  0  0
  -25.2870  -31.4950   26.2120 C   0  0  0  0  0  1  0  0  0  0  0  0
  -26.9660  -30.3270   24.7790 C   0  0  0  0  0  1  0  0  0  0  0  0
  -27.5370  -32.5050   25.8140 C   0  0  0  0  0  1  0  0  0  0  0  0
  -28.2060  -19.3610   21.2810 C   0  0  0  0  0  1  0  0  0  0  0  0
  -29.2510  -19.9510   20.3040 C   0  0  0  0  0  3  0  0  0  0  0  0
  -31.4240  -18.5950   20.9520 C   0  0  0  0  0  1  0  0  0  0  0  0
  -31.1720  -19.4070   18.6510 C   0  0  0  0  0  1  0  0  0  0  0  0
  -30.3770  -18.7970   19.8230 C   0  0  2  0  0  0  0  0  0  0  0  0
  -29.9560  -17.2650   19.3850 C   0  0  0  0  0  2  0  0  0  0  0  0
  -30.9980  -14.8420   19.9280 C   0  0  0  0  0  0  0  0  0  0  0  0
  -30.8050  -12.4930   19.0990 C   0  0  0  0  0  2  0  0  0  0  0  0
  -29.8560  -12.5090   17.8790 C   0  0  0  0  0  2  0  0  0  0  0  0
  -28.3820  -12.3970   18.3210 C   0  0  0  0  0  2  0  0  0  0  0  0
  -28.0370  -13.3400   19.5030 C   0  0  0  0  0  3  0  0  0  0  0  0
  -29.1030  -13.2950   20.6210 C   0  0  0  0  0  2  0  0  0  0  0  0
  -30.4030  -13.6020   20.0010 N   0  0  0  0  0  0  0  0  0  0  0  0
  -32.1500  -14.9450   19.4920 O   0  0  0  0  0  0  0  0  0  0  0  0
  -30.2040  -15.9560   20.1620 N   0  0  0  0  0  0  0  0  0  0  0  0
  -29.3630  -15.6710   20.6470 H   0  0  0  0  0  0  0  0  0  0  0  0
  -25.6850  -14.0160   20.2660 C   0  0  0  0  0  0  0  0  0  0  0  0
  -24.5980  -13.2810   20.6560 C   0  0  0  0  0  0  0  0  0  0  0  0
  -25.0100  -11.9140   20.6250 C   0  0  0  0  0  0  0  0  0  0  0  0
  -26.6910  -13.0970   20.0180 N   0  0  0  0  0  0  0  0  0  0  0  0
  -26.2940  -11.8270   20.2950 N   0  0  0  0  0  0  0  0  0  0  0  0
  -24.2410  -10.6780   20.8380 C   0  0  0  0  0  0  0  0  0  0  0  0
  -24.6240   -9.7290   21.8100 C   0  0  0  0  0  3  0  0  0  0  0  0
  -23.8600   -8.5590   22.0090 C   0  0  0  0  0  3  0  0  0  0  0  0
  -22.6980   -8.3330   21.2350 C   0  0  0  0  0  0  0  0  0  0  0  0
  -22.3310   -9.2700   20.2540 C   0  0  0  0  0  3  0  0  0  0  0  0
  -23.0960  -10.4310   20.0550 C   0  0  0  0  0  3  0  0  0  0  0  0
  -21.9100   -7.2130   21.3390 O   0  0  0  0  0  0  0  0  0  0  0  0
  -21.7660   -6.5410   22.5250 C   0  0  0  0  0  0  0  0  0  0  0  0
  -21.2730   -7.1760   23.6870 C   0  0  0  0  0  3  0  0  0  0  0  0
  -21.0800   -6.4310   24.8670 C   0  0  0  0  0  3  0  0  0  0  0  0
  -21.3670   -5.0530   24.8850 C   0  0  0  0  0  0  0  0  0  0  0  0
  -21.8500   -4.4180   23.7270 C   0  0  0  0  0  3  0  0  0  0  0  0
  -22.0470   -5.1600   22.5490 C   0  0  0  0  0  0  0  0  0  0  0  0
  -22.4950   -4.5410   21.4310 F   0  0  0  0  0  0  0  0  0  0  0  0
  -21.1710   -4.3330   26.0140 F   0  0  0  0  0  0  0  0  0  0  0  0
  -23.2260  -13.8090   20.9520 C   0  0  0  0  0  0  0  0  0  0  0  0
  -22.4970  -13.1530   21.8490 N   0  0  0  0  0  0  0  0  0  0  0  0
  -22.8060  -14.8360   20.4230 O   0  0  0  0  0  0  0  0  0  0  0  0
  -22.8490  -12.3190   22.2960 H   0  0  0  0  0  0  0  0  0  0  0  0
  -21.5780  -13.4910   22.0940 H   0  0  0  0  0  0  0  0  0  0  0  0
  -25.8910  -15.3790   20.0810 N   0  0  0  0  0  0  0  0  0  0  0  0
  -25.1400  -16.0510   20.2040 H   0  0  0  0  0  0  0  0  0  0  0  0
  -26.7340  -15.7880   19.6950 H   0  0  0  0  0  0  0  0  0  0  0  0
  1  5  1  0
  2  6  1  0
  2  1  2  0
  3  5  2  0
  3 55  1  0
  4  2  1  0
  6  3  1  0
 10  7  1  6
  8 10  1  0
 10  6  1  0
 10  9  1  0
 12 11  1  0
 12  1  1  0
 12 13  1  0
 14 25  2  0
 15 13  1  0
 15 20  1  0
 16 24  1  0
 16 26  1  0
 17 23  1  0
 17 19  1  0
 18 24  1  0
 19 20  2  0
 19 18  1  0
 21 15  2  0
 22 21  1  0
 22 17  2  0
 23 16  1  0
 24 14  1  0
 26 28  2  0
 27 26  1  0
 29 27  1  0
 30 39  2  0
 30 35  1  0
 31 27  1  0
 31 35  1  0
 32 31  1  0
 33 34  1  0
 33 32  1  0
 34 30  1  0
 35 36  2  0
 36 37  1  0
 38 37  2  0
 39 38  1  0
 40 14  1  0
 40 41  1  0
 40 50  1  0
 41 44  1  0
 42 46  1  0
 42 41  1  0
 43 42  2  0
 46 45  1  0
 48 46  1  0
 48 49  1  0
 48 47  1  0
 50 53  1  1
 50 51  1  0
 52 50  1  0
 55 54  1  0
 58 57  1  6
 58 55  1  0
 58 56  1  0
 59 58  1  0
 59 68  1  0
 60 66  1  0
 60 68  1  0
 61 66  1  0
 62 63  1  0
 62 61  1  0
 64 63  1  0
 64 73  1  0
 64 65  1  0
 66 65  1  0
 67 60  2  0
 68 69  1  0
 70 71  2  0
 71 90  1  0
 72 71  1  0
 72 75  1  0
 73 70  1  0
 73 74  1  0
 74 72  2  0
 75 76  1  0
 76 77  2  0
 78 81  1  0
 78 77  1  0
 79 78  2  0
 80 79  1  0
 80 75  2  0
 81 82  1  0
 82 87  2  0
 82 83  1  0
 83 84  2  0
 84 85  1  0
 85 89  1  0
 86 85  2  0
 87 86  1  0
 88 87  1  0
 90 91  1  0
 91 94  1  0
 91 93  1  0
 92 90  2  0
 95 96  1  0
 95 70  1  0
 97 95  1  0
M  ISO  4  12 101  13 101  60 100  68 100
M  END
>  <TORSDO>  (25) 
F 21

>  <SCORE>  (25) 
-11.345

>  <name>  (25) 
26

>  <ligand_id>  (25) 
26

>  <original_smiles>  (25) 
[H]c1c([H])c([H])c2c(c1[H])C([H])([H])C([H])([H])C([H])([H])C2([H])N([H])C(=O)C1([H])N(C(=O)C([H])(N([H])C(=O)C([H])(N([H])C([H])([H])[H])C([H])([H])[H])C(C([H])([H])[H])(C([H])([H])[H])C([H])([H])[H])C([H])([H])c2c([H])c(OC([H])(c3nc(C([H])(C([H])([H])[H])C(C([H])([H])[H])(C([H])([H])[H])C([H])([H])N([H])C(=O)N4C([H])([H])C([H])([H])C([H])([H])C([H])(n5nc(-c6c([H])c([H])c(Oc7c([H])c([H])c(F)c([H])c7F)c([H])c6[H])c(C(=O)N([H])[H])c5N([H])[H])C4([H])[H])n(C(C([H])([H])[H])(C([H])([H])[H])C([H])([H])[H])c3C([H])([H])[H])C([H])([H])[H])c([H])c([H])c2C1([H])[H]

>  <smiles>  (25) 
[H]c1c([H])c([H])c2c(c1[H])C([H])([H])C([H])([H])C([H])([H])C2([H])N([H])C(=O)C1([H])N(C(=O)C([H])(N([H])C(=O)C([H])(N([H])C([H])([H])[H])C([H])([H])[H])C(C([H])([H])[H])(C([H])([H])[H])C([H])([H])[H])C([H])([H])c2c([H])c(OC([H])(c3nc(C([H])(C([H])([H])[H])C(C([H])([H])[H])(C([H])([H])[H])C([H])([H])N([H])C(=O)N4C([H])([H])C([H])([H])C([H])([H])C([H])(n5nc(-c6c([H])c([H])c(Oc7c([H])c([H])c(F)c([H])c7F)c([H])c6[H])c(C(=O)N([H])[H])c5N([H])[H])C4([H])[H])n(C(C([H])([H])[H])(C([H])([H])[H])C([H])([H])[H])c3C([H])([H])[H])C([H])([H])[H])c([H])c([H])c2C1([H])[H]

$$$$
27:0:0
     RDKit          3D

 97105  0  0  1  0  0  0  0  0999 V2000
  -30.4360  -21.3130   18.1480 C   0  0  0  0  0  3  0  0  0  0  0  0
  -30.9550  -21.3290   19.4580 C   0  0  0  0  0  0  0  0  0  0  0  0
  -30.0540  -20.9410   20.4700 C   0  0  0  0  0  3  0  0  0  0  0  0
  -29.1200  -20.8170   17.9750 C   0  0  0  0  0  0  0  0  0  0  0  0
  -29.2400  -19.8120   20.0620 C   0  0  0  0  0  3  0  0  0  0  0  0
  -32.2760  -22.0040   19.7700 C   0  0  0  0  0  1  0  0  0  0  0  0
  -28.5060  -20.1020   18.9580 N   0  0  0  0  0  0  0  0  0  0  0  0
  -28.3520  -21.0120   16.6650 C   0  0  1  0  0  0  0  0  0  0  0  0
  -29.0280  -21.7800   15.8080 F   0  0  0  0  0  0  0  0  0  0  0  0
  -28.1250  -19.8310   16.0840 F   0  0  0  0  0  0  0  0  0  0  0  0
  -27.1770  -21.6000   16.9080 F   0  0  0  0  0  0  0  0  0  0  0  0
  -30.2250  -17.7500   18.8310 C   0  0  0  0  0  1  0  0  0  0  0  0
  -28.0440  -17.5790   20.0690 C   0  0  0  0  0  1  0  0  0  0  0  0
  -29.4660  -18.1910   20.1110 C   0  0  2  0  0  0  0  0  0  0  0  0
  -30.2450  -17.3730   21.2780 C   0  0  0  0  0  2  0  0  0  0  0  0
  -30.8660  -14.7420   21.1840 C   0  0  0  0  0  0  0  0  0  0  0  0
  -30.7980  -12.4380   20.2160 C   0  0  0  0  0  2  0  0  0  0  0  0
  -29.9940  -12.4670   18.8950 C   0  0  0  0  0  2  0  0  0  0  0  0
  -28.4890  -12.2860   19.1720 C   0  0  0  0  0  2  0  0  0  0  0  0
  -27.9780  -13.2150   20.3030 C   0  0  0  0  0  3  0  0  0  0  0  0
  -28.9060  -13.1640   21.5390 C   0  0  0  0  0  2  0  0  0  0  0  0
  -30.2630  -13.5080   21.0870 N   0  0  0  0  0  0  0  0  0  0  0  0
  -32.0740  -14.8650   20.9640 O   0  0  0  0  0  0  0  0  0  0  0  0
  -30.0400  -15.8410   21.3330 N   0  0  0  0  0  0  0  0  0  0  0  0
  -29.0810  -15.5760   21.4920 H   0  0  0  0  0  0  0  0  0  0  0  0
  -25.5250  -13.8320   20.7510 C   0  0  0  0  0  0  0  0  0  0  0  0
  -24.4210  -13.0690   21.0140 C   0  0  0  0  0  0  0  0  0  0  0  0
  -24.8780  -11.7170   21.0610 C   0  0  0  0  0  0  0  0  0  0  0  0
  -26.5850  -12.9440   20.6460 N   0  0  0  0  0  0  0  0  0  0  0  0
  -26.1940  -11.6690   20.8970 N   0  0  0  0  0  0  0  0  0  0  0  0
  -24.1290  -10.4610   21.1920 C   0  0  0  0  0  0  0  0  0  0  0  0
  -24.4540   -9.5070   22.1810 C   0  0  0  0  0  3  0  0  0  0  0  0
  -23.7070   -8.3160   22.2980 C   0  0  0  0  0  3  0  0  0  0  0  0
  -22.6210   -8.0700   21.4240 C   0  0  0  0  0  0  0  0  0  0  0  0
  -22.3180   -9.0120   20.4250 C   0  0  0  0  0  3  0  0  0  0  0  0
  -23.0660  -10.1950   20.3070 C   0  0  0  0  0  3  0  0  0  0  0  0
  -21.8550   -6.9300   21.4480 O   0  0  0  0  0  0  0  0  0  0  0  0
  -21.6730   -6.2100   22.6010 C   0  0  0  0  0  0  0  0  0  0  0  0
  -21.0760   -6.7790   23.7470 C   0  0  0  0  0  3  0  0  0  0  0  0
  -20.8430   -5.9840   24.8870 C   0  0  0  0  0  3  0  0  0  0  0  0
  -21.1970   -4.6210   24.8800 C   0  0  0  0  0  0  0  0  0  0  0  0
  -21.7870   -4.0520   23.7380 C   0  0  0  0  0  3  0  0  0  0  0  0
  -22.0210   -4.8440   22.6000 C   0  0  0  0  0  0  0  0  0  0  0  0
  -22.5690   -4.2860   21.4950 F   0  0  0  0  0  0  0  0  0  0  0  0
  -20.9670   -3.8540   25.9720 F   0  0  0  0  0  0  0  0  0  0  0  0
  -23.0040  -13.5570   21.1190 C   0  0  0  0  0  0  0  0  0  0  0  0
  -22.1830  -12.8850   21.9180 N   0  0  0  0  0  0  0  0  0  0  0  0
  -22.6320  -14.5690   20.5280 O   0  0  0  0  0  0  0  0  0  0  0  0
  -22.4950  -12.0680   22.4200 H   0  0  0  0  0  0  0  0  0  0  0  0
  -21.2280  -13.1950   22.0300 H   0  0  0  0  0  0  0  0  0  0  0  0
  -25.7070  -15.1980   20.5680 N   0  0  0  0  0  0  0  0  0  0  0  0
  -24.9230  -15.8410   20.5740 H   0  0  0  0  0  0  0  0  0  0  0  0
  -26.5710  -15.6340   20.2830 H   0  0  0  0  0  0  0  0  0  0  0  0
  -29.3150  -22.2370   21.0740 C   0  0  0  0  0  2  0  0  0  0  0  0
  -29.4800  -23.7400   20.4490 C   0  0  0  0  0  3  0  0  0  0  0  0
  -28.4890  -24.9360   20.9090 C   0  0  0  0  0  3  0  0  0  0  0  0
  -28.6830  -26.3720   20.4900 O   0  0  0  0  0  0  0  0  0  0  0  0
  -24.7210  -31.7860   23.3100 C   0  0  0  0  0  0  0  0  0  0  0  0
  -27.5580  -27.2270   20.4150 C   0  0  0  0  0  0  0  0  0  0  0  0
  -23.6190  -30.3480   21.6340 C   0  0  0  0  0  3  0  0  0  0  0  0
  -25.1630  -28.8120   20.2850 C   0  0  0  0  0  0  0  0  0  0  0  0
  -26.1590  -30.7130   21.5540 C   0  0  0  0  0  2  0  0  0  0  0  0
  -26.2980  -29.3260   20.9260 C   0  0  0  0  0  0  0  0  0  0  0  0
  -27.5000  -28.5470   20.9760 C   0  0  0  0  0  3  0  0  0  0  0  0
  -26.4010  -26.7830   19.7360 C   0  0  0  0  0  3  0  0  0  0  0  0
  -25.2190  -27.5480   19.6800 C   0  0  0  0  0  3  0  0  0  0  0  0
  -23.9070  -29.6640   20.2720 C   0  0  0  0  0  2  0  0  0  0  0  0
  -24.8500  -30.9670   22.2240 N   0  0  0  0  0  0  0  0  0  0  0  0
  -23.6100  -32.0440   23.7970 O   0  0  0  0  0  0  0  0  0  0  0  0
  -22.9360  -29.3270   22.5770 C   0  0  0  0  0  0  0  0  0  0  0  0
  -21.6230  -29.1110   22.3890 N   0  0  0  0  0  0  0  0  0  0  0  0
  -23.5920  -28.7310   23.4360 O   0  0  0  0  0  0  0  0  0  0  0  0
  -21.1520  -29.6450   21.6720 H   0  0  0  0  0  0  0  0  0  0  0  0
  -18.2600  -27.8230   22.7470 C   0  0  0  0  0  0  0  0  0  0  0  0
  -20.7950  -28.1600   23.1340 C   0  0  0  0  0  3  0  0  0  0  0  0
  -20.9630  -26.7240   22.5840 C   0  0  0  0  0  2  0  0  0  0  0  0
  -19.9210  -26.3580   21.5220 C   0  0  0  0  0  2  0  0  0  0  0  0
  -18.5060  -26.4720   22.0980 C   0  0  0  0  0  2  0  0  0  0  0  0
  -19.3350  -28.6220   23.2180 C   0  0  0  0  0  0  0  0  0  0  0  0
  -19.0520  -29.8850   23.7820 C   0  0  0  0  0  3  0  0  0  0  0  0
  -17.7270  -30.3490   23.8810 C   0  0  0  0  0  3  0  0  0  0  0  0
  -16.6660  -29.5470   23.4250 C   0  0  0  0  0  3  0  0  0  0  0  0
  -16.9330  -28.2860   22.8630 C   0  0  0  0  0  3  0  0  0  0  0  0
  -25.9620  -32.4540   23.9790 C   0  0  0  0  0  3  0  0  0  0  0  0
  -25.6130  -33.8530   24.2680 N   0  0  0  0  0  0  0  0  0  0  0  0
  -25.9570  -34.8990   23.5040 C   0  0  0  0  0  0  0  0  0  0  0  0
  -26.6710  -34.7880   22.5040 O   0  0  0  0  0  0  0  0  0  0  0  0
  -24.9810  -34.0090   25.0400 H   0  0  0  0  0  0  0  0  0  0  0  0
  -24.2190  -36.6570   23.0420 C   0  0  0  0  0  1  0  0  0  0  0  0
  -25.4280  -36.2860   23.9160 C   0  0  0  0  0  3  0  0  0  0  0  0
  -27.5040  -37.2260   24.8300 C   0  0  0  0  0  1  0  0  0  0  0  0
  -26.4470  -37.3550   23.8300 N   0  0  0  0  0  0  0  0  0  0  0  0
  -26.0200  -38.2700   23.9370 H   0  0  0  0  0  0  0  0  0  0  0  0
  -26.4290  -31.7180   25.2940 C   0  0  1  0  0  0  0  0  0  0  0  0
  -25.2900  -31.4820   26.3150 C   0  0  0  0  0  1  0  0  0  0  0  0
  -27.0530  -30.3440   24.9610 C   0  0  0  0  0  1  0  0  0  0  0  0
  -27.5320  -32.5460   25.9950 C   0  0  0  0  0  1  0  0  0  0  0  0
  1  2  2  0
  2  6  1  0
  2  3  1  0
  3 54  1  0
  4  1  1  0
  4  7  2  0
  5 14  1  0
  5  3  1  0
  7  5  1  0
  8 11  1  1
  8  4  1  0
  9  8  1  0
 10  8  1  0
 14 12  1  6
 13 14  1  0
 14 15  1  0
 15 24  1  0
 16 24  1  0
 17 22  1  0
 18 19  1  0
 18 17  1  0
 20 19  1  0
 20 29  1  0
 20 21  1  0
 22 16  1  0
 22 21  1  0
 23 16  2  0
 24 25  1  0
 26 27  2  0
 27 28  1  0
 27 46  1  0
 28 31  1  0
 29 26  1  0
 29 30  1  0
 30 28  2  0
 31 32  1  0
 32 33  2  0
 34 37  1  0
 34 33  1  0
 35 34  2  0
 36 35  1  0
 36 31  2  0
 37 38  1  0
 38 39  1  0
 39 40  2  0
 41 40  1  0
 41 45  1  0
 42 41  2  0
 43 38  2  0
 43 42  1  0
 44 43  1  0
 46 47  1  0
 47 50  1  0
 47 49  1  0
 48 46  2  0
 51 52  1  0
 51 26  1  0
 53 51  1  0
 55 56  2  0
 55 54  1  0
 57 56  1  0
 58 69  2  0
 59 57  1  0
 59 64  1  0
 60 68  1  0
 60 70  1  0
 61 63  1  0
 62 68  1  0
 63 64  2  0
 63 62  1  0
 65 59  2  0
 66 65  1  0
 66 61  2  0
 67 61  1  0
 67 60  1  0
 68 58  1  0
 70 72  2  0
 71 70  1  0
 73 71  1  0
 74 83  2  0
 74 79  1  0
 75 71  1  0
 75 79  1  0
 76 75  1  0
 77 78  1  0
 77 76  1  0
 78 74  1  0
 79 80  2  0
 80 81  1  0
 82 81  2  0
 83 82  1  0
 84 58  1  0
 84 85  1  0
 84 94  1  0
 85 88  1  0
 86 90  1  0
 86 85  1  0
 87 86  2  0
 90 89  1  0
 92 90  1  0
 92 93  1  0
 92 91  1  0
 94 97  1  1
 94 95  1  0
 96 94  1  0
M  ISO  4  16 100  24 100  56 101  57 101
M  END
>  <TORSDO>  (26) 
F 22

>  <SCORE>  (26) 
-12.209

>  <name>  (26) 
27

>  <ligand_id>  (26) 
27

>  <original_smiles>  (26) 
[H]c1c([H])c([H])c2c(c1[H])C([H])([H])C([H])([H])C([H])([H])C2([H])N([H])C(=O)C1([H])N(C(=O)C([H])(N([H])C(=O)C([H])(N([H])C([H])([H])[H])C([H])([H])[H])C(C([H])([H])[H])(C([H])([H])[H])C([H])([H])[H])C([H])([H])c2c([H])c(OC([H])([H])C([H])([H])C([H])([H])c3c(C(C([H])([H])[H])(C([H])([H])[H])C([H])([H])N([H])C(=O)N4C([H])([H])C([H])([H])C([H])([H])C([H])(n5nc(-c6c([H])c([H])c(Oc7c([H])c([H])c(F)c([H])c7F)c([H])c6[H])c(C(=O)N([H])[H])c5N([H])[H])C4([H])[H])nc(C(F)(F)F)c([H])c3C([H])([H])[H])c([H])c([H])c2C1([H])[H]

>  <smiles>  (26) 
[H]c1c([H])c([H])c2c(c1[H])C([H])([H])C([H])([H])C([H])([H])C2([H])N([H])C(=O)C1([H])N(C(=O)C([H])(N([H])C(=O)C([H])(N([H])C([H])([H])[H])C([H])([H])[H])C(C([H])([H])[H])(C([H])([H])[H])C([H])([H])[H])C([H])([H])c2c([H])c(OC([H])([H])C([H])([H])C([H])([H])c3c(C(C([H])([H])[H])(C([H])([H])[H])C([H])([H])N([H])C(=O)N4C([H])([H])C([H])([H])C([H])([H])C([H])(n5nc(-c6c([H])c([H])c(Oc7c([H])c([H])c(F)c([H])c7F)c([H])c6[H])c(C(=O)N([H])[H])c5N([H])[H])C4([H])[H])nc(C(F)(F)F)c([H])c3C([H])([H])[H])c([H])c([H])c2C1([H])[H]

$$$$
28:0:0
     RDKit          3D

 97105  0  0  1  0  0  0  0  0999 V2000
  -27.8180  -21.3510   21.3810 C   0  0  0  0  0  1  0  0  0  0  0  0
  -29.6710  -22.7260   22.2490 C   0  0  0  0  0  1  0  0  0  0  0  0
  -29.2070  -21.9210   21.0160 C   0  0  1  0  0  0  0  0  0  0  0  0
  -30.2640  -20.7370   20.8500 C   0  0  0  0  0  2  0  0  0  0  0  0
  -30.0170  -19.3410   20.1120 C   0  0  0  0  0  3  0  0  0  0  0  0
  -33.4360  -18.0380   19.9930 C   0  0  0  0  0  3  0  0  0  0  0  0
  -32.4890  -19.0080   19.8680 C   0  0  0  0  0  3  0  0  0  0  0  0
  -31.4790  -17.1030   20.3550 C   0  0  0  0  0  0  0  0  0  0  0  0
  -32.8000  -16.8600   20.3190 N   0  0  0  0  0  0  0  0  0  0  0  0
  -31.2330  -18.4620   20.1620 N   0  0  0  0  0  0  0  0  0  0  0  0
  -30.7360  -15.6450   22.2000 C   0  0  0  0  0  1  0  0  0  0  0  0
  -29.0490  -16.2440   20.4500 C   0  0  0  0  0  1  0  0  0  0  0  0
  -30.5330  -15.8940   20.6810 C   0  0  1  0  0  0  0  0  0  0  0  0
  -30.9740  -14.5900   19.8480 C   0  0  0  0  0  0  0  0  0  0  0  0
  -30.6680  -12.2770   18.9310 C   0  0  0  0  0  2  0  0  0  0  0  0
  -29.6860  -12.2670   17.7390 C   0  0  0  0  0  2  0  0  0  0  0  0
  -28.2270  -12.1460   18.2280 C   0  0  0  0  0  2  0  0  0  0  0  0
  -27.9110  -13.1320   19.3820 C   0  0  0  0  0  3  0  0  0  0  0  0
  -29.0050  -13.0580   20.4720 C   0  0  0  0  0  2  0  0  0  0  0  0
  -30.2980  -13.3860   19.8460 N   0  0  0  0  0  0  0  0  0  0  0  0
  -31.9850  -14.6720   19.1390 O   0  0  0  0  0  0  0  0  0  0  0  0
  -25.5750  -13.8180   20.2200 C   0  0  0  0  0  0  0  0  0  0  0  0
  -24.5120  -13.0850   20.6710 C   0  0  0  0  0  0  0  0  0  0  0  0
  -24.9360  -11.7190   20.6420 C   0  0  0  0  0  0  0  0  0  0  0  0
  -26.5820  -12.9050   19.9440 N   0  0  0  0  0  0  0  0  0  0  0  0
  -26.2030  -11.6400   20.2560 N   0  0  0  0  0  0  0  0  0  0  0  0
  -24.1890  -10.4810   20.8990 C   0  0  0  0  0  0  0  0  0  0  0  0
  -24.6050   -9.5550   21.8810 C   0  0  0  0  0  3  0  0  0  0  0  0
  -23.8610   -8.3810   22.1200 C   0  0  0  0  0  3  0  0  0  0  0  0
  -22.6830   -8.1250   21.3780 C   0  0  0  0  0  0  0  0  0  0  0  0
  -22.2860   -9.0360   20.3840 C   0  0  0  0  0  3  0  0  0  0  0  0
  -23.0330  -10.2020   20.1440 C   0  0  0  0  0  3  0  0  0  0  0  0
  -21.9100   -6.9990   21.5260 O   0  0  0  0  0  0  0  0  0  0  0  0
  -21.8030   -6.3510   22.7290 C   0  0  0  0  0  0  0  0  0  0  0  0
  -21.3390   -7.0070   23.8900 C   0  0  0  0  0  3  0  0  0  0  0  0
  -21.1850   -6.2850   25.0910 C   0  0  0  0  0  3  0  0  0  0  0  0
  -21.4790   -4.9090   25.1280 C   0  0  0  0  0  0  0  0  0  0  0  0
  -21.9300   -4.2540   23.9700 C   0  0  0  0  0  3  0  0  0  0  0  0
  -22.0900   -4.9730   22.7720 C   0  0  0  0  0  0  0  0  0  0  0  0
  -22.5090   -4.3320   21.6550 F   0  0  0  0  0  0  0  0  0  0  0  0
  -21.3200   -4.2120   26.2770 F   0  0  0  0  0  0  0  0  0  0  0  0
  -23.1450  -13.6040   21.0180 C   0  0  0  0  0  0  0  0  0  0  0  0
  -22.4610  -12.9530   21.9530 N   0  0  0  0  0  0  0  0  0  0  0  0
  -22.6980  -14.6230   20.4970 O   0  0  0  0  0  0  0  0  0  0  0  0
  -22.8370  -12.1290   22.4000 H   0  0  0  0  0  0  0  0  0  0  0  0
  -21.5480  -13.2840   22.2290 H   0  0  0  0  0  0  0  0  0  0  0  0
  -25.7620  -15.1800   20.0000 N   0  0  0  0  0  0  0  0  0  0  0  0
  -25.0140  -15.8510   20.1250 H   0  0  0  0  0  0  0  0  0  0  0  0
  -26.6040  -15.5870   19.6140 H   0  0  0  0  0  0  0  0  0  0  0  0
  -28.1030  -19.5240   18.3500 C   0  0  0  0  0  1  0  0  0  0  0  0
  -29.6110  -19.4660   18.6210 C   0  0  0  0  0  2  0  0  0  0  0  0
  -29.1000  -22.8570   19.7320 C   0  0  0  0  0  2  0  0  0  0  0  0
  -29.4450  -24.7440   18.1430 C   0  0  0  0  0  1  0  0  0  0  0  0
  -30.5900  -24.9360   20.3330 C   0  0  0  0  0  1  0  0  0  0  0  0
  -29.2880  -24.4500   19.6550 C   0  0  2  0  0  0  0  0  0  0  0  0
  -28.0640  -25.3160   20.1410 C   0  0  0  0  0  2  0  0  0  0  0  0
  -28.1870  -26.7620   19.9370 O   0  0  0  0  0  0  0  0  0  0  0  0
  -24.5470  -32.0110   23.2190 C   0  0  0  0  0  0  0  0  0  0  0  0
  -27.0290  -27.5380   19.9880 C   0  0  0  0  0  0  0  0  0  0  0  0
  -23.2690  -30.6460   21.6030 C   0  0  0  0  0  3  0  0  0  0  0  0
  -24.6550  -29.1110   20.1050 C   0  0  0  0  0  0  0  0  0  0  0  0
  -25.7940  -30.9680   21.3210 C   0  0  0  0  0  2  0  0  0  0  0  0
  -25.8430  -29.6000   20.6610 C   0  0  0  0  0  0  0  0  0  0  0  0
  -27.0310  -28.8240   20.5970 C   0  0  0  0  0  3  0  0  0  0  0  0
  -25.8180  -27.0860   19.4140 C   0  0  0  0  0  3  0  0  0  0  0  0
  -24.6410  -27.8550   19.4780 C   0  0  0  0  0  3  0  0  0  0  0  0
  -23.4240  -29.9870   20.2070 C   0  0  0  0  0  2  0  0  0  0  0  0
  -24.5580  -31.2230   22.1070 N   0  0  0  0  0  0  0  0  0  0  0  0
  -23.4890  -32.2870   23.8020 O   0  0  0  0  0  0  0  0  0  0  0  0
  -22.6390  -29.6180   22.5720 C   0  0  0  0  0  0  0  0  0  0  0  0
  -21.3170  -29.4080   22.4510 N   0  0  0  0  0  0  0  0  0  0  0  0
  -23.3370  -29.0120   23.3890 O   0  0  0  0  0  0  0  0  0  0  0  0
  -20.8130  -29.9490   21.7620 H   0  0  0  0  0  0  0  0  0  0  0  0
  -17.9900  -28.0780   22.9060 C   0  0  0  0  0  0  0  0  0  0  0  0
  -20.5260  -28.4580   23.2300 C   0  0  0  0  0  3  0  0  0  0  0  0
  -20.7070  -27.0180   22.6980 C   0  0  0  0  0  2  0  0  0  0  0  0
  -19.6470  -26.6160   21.6680 C   0  0  0  0  0  2  0  0  0  0  0  0
  -18.2430  -26.7190   22.2740 C   0  0  0  0  0  2  0  0  0  0  0  0
  -19.0630  -28.9000   23.3400 C   0  0  0  0  0  0  0  0  0  0  0  0
  -18.7750  -30.1690   23.8900 C   0  0  0  0  0  3  0  0  0  0  0  0
  -17.4460  -30.6160   24.0130 C   0  0  0  0  0  3  0  0  0  0  0  0
  -16.3870  -29.7920   23.5960 C   0  0  0  0  0  3  0  0  0  0  0  0
  -16.6590  -28.5250   23.0480 C   0  0  0  0  0  3  0  0  0  0  0  0
  -25.8610  -32.6220   23.8010 C   0  0  0  0  0  3  0  0  0  0  0  0
  -25.5800  -34.0190   24.1570 N   0  0  0  0  0  0  0  0  0  0  0  0
  -25.9050  -35.0770   23.4020 C   0  0  0  0  0  0  0  0  0  0  0  0
  -26.5460  -34.9780   22.3510 O   0  0  0  0  0  0  0  0  0  0  0  0
  -25.0100  -34.1740   24.9760 H   0  0  0  0  0  0  0  0  0  0  0  0
  -24.1930  -36.8970   23.1120 C   0  0  0  0  0  1  0  0  0  0  0  0
  -25.4470  -36.4640   23.8890 C   0  0  0  0  0  3  0  0  0  0  0  0
  -27.6130  -37.3090   24.6790 C   0  0  0  0  0  1  0  0  0  0  0  0
  -26.4900  -37.5060   23.7670 N   0  0  0  0  0  0  0  0  0  0  0  0
  -26.0980  -38.4270   23.9410 H   0  0  0  0  0  0  0  0  0  0  0  0
  -26.4170  -31.8290   25.0470 C   0  0  1  0  0  0  0  0  0  0  0  0
  -25.3610  -31.5830   26.1490 C   0  0  0  0  0  1  0  0  0  0  0  0
  -26.9730  -30.4520   24.6150 C   0  0  0  0  0  1  0  0  0  0  0  0
  -27.5970  -32.6040   25.6790 C   0  0  0  0  0  1  0  0  0  0  0  0
  3  1  1  1
  3  2  1  0
  4  3  1  0
  5 51  1  0
  5 10  1  0
  5  4  1  0
  6  9  1  0
  7  6  2  0
  7 10  1  0
  8 13  1  0
  9  8  2  0
 10  8  1  0
 13 12  1  1
 13 11  1  0
 14 13  1  0
 15 20  1  0
 16 17  1  0
 16 15  1  0
 18 17  1  0
 18 25  1  0
 18 19  1  0
 20 14  1  0
 20 19  1  0
 21 14  2  0
 22 23  2  0
 23 42  1  0
 24 23  1  0
 24 27  1  0
 25 22  1  0
 25 26  1  0
 26 24  2  0
 27 28  1  0
 28 29  2  0
 30 33  1  0
 30 29  1  0
 31 30  2  0
 32 31  1  0
 32 27  2  0
 33 34  1  0
 34 39  2  0
 34 35  1  0
 35 36  2  0
 36 37  1  0
 37 41  1  0
 38 37  2  0
 39 38  1  0
 40 39  1  0
 42 43  1  0
 43 46  1  0
 43 45  1  0
 44 42  2  0
 47 48  1  0
 47 22  1  0
 49 47  1  0
 50 51  1  0
 52  3  1  0
 55 53  1  6
 55 52  1  0
 55 56  1  0
 55 54  1  0
 57 59  1  0
 57 56  1  0
 58 69  2  0
 59 64  1  0
 60 68  1  0
 60 70  1  0
 61 67  1  0
 61 63  1  0
 62 68  1  0
 63 62  1  0
 64 63  2  0
 65 66  1  0
 65 59  2  0
 66 61  2  0
 67 60  1  0
 68 58  1  0
 70 72  2  0
 71 70  1  0
 73 71  1  0
 74 83  2  0
 74 79  1  0
 75 71  1  0
 75 79  1  0
 76 75  1  0
 77 78  1  0
 77 76  1  0
 78 74  1  0
 79 80  2  0
 80 81  1  0
 82 81  2  0
 83 82  1  0
 84 58  1  0
 84 85  1  0
 84 94  1  0
 85 88  1  0
 86 90  1  0
 86 85  1  0
 87 86  2  0
 90 89  1  0
 92 90  1  0
 92 93  1  0
 92 91  1  0
 94 97  1  1
 94 95  1  0
 96 94  1  0
M  ISO  4  13 100  14 100  56 101  57 101
M  END
>  <TORSDO>  (27) 
F 24

>  <SCORE>  (27) 
-12.119

>  <name>  (27) 
28

>  <ligand_id>  (27) 
28

>  <original_smiles>  (27) 
[H]c1nc(C(C(=O)N2C([H])([H])C([H])([H])C([H])([H])C([H])(n3nc(-c4c([H])c([H])c(Oc5c([H])c([H])c(F)c([H])c5F)c([H])c4[H])c(C(=O)N([H])[H])c3N([H])[H])C2([H])[H])(C([H])([H])[H])C([H])([H])[H])n(C([H])(C([H])([H])C([H])([H])[H])C([H])([H])C(C([H])([H])[H])(C([H])([H])[H])C([H])([H])C(C([H])([H])[H])(C([H])([H])[H])C([H])([H])Oc2c([H])c([H])c3c(c2[H])C([H])([H])N(C(=O)C([H])(N([H])C(=O)C([H])(N([H])C([H])([H])[H])C([H])([H])[H])C(C([H])([H])[H])(C([H])([H])[H])C([H])([H])[H])C([H])(C(=O)N([H])C2([H])c4c([H])c([H])c([H])c([H])c4C([H])([H])C([H])([H])C2([H])[H])C3([H])[H])c1[H]

>  <smiles>  (27) 
[H]c1nc(C(C(=O)N2C([H])([H])C([H])([H])C([H])([H])C([H])(n3nc(-c4c([H])c([H])c(Oc5c([H])c([H])c(F)c([H])c5F)c([H])c4[H])c(C(=O)N([H])[H])c3N([H])[H])C2([H])[H])(C([H])([H])[H])C([H])([H])[H])n(C([H])(C([H])([H])C([H])([H])[H])C([H])([H])C(C([H])([H])[H])(C([H])([H])[H])C([H])([H])C(C([H])([H])[H])(C([H])([H])[H])C([H])([H])Oc2c([H])c([H])c3c(c2[H])C([H])([H])N(C(=O)C([H])(N([H])C(=O)C([H])(N([H])C([H])([H])[H])C([H])([H])[H])C(C([H])([H])[H])(C([H])([H])[H])C([H])([H])[H])C([H])(C(=O)N([H])C2([H])c4c([H])c([H])c([H])c([H])c4C([H])([H])C([H])([H])C2([H])[H])C3([H])[H])c1[H]

$$$$
29:0:0
     RDKit          3D

103111  0  0  1  0  0  0  0  0999 V2000
  -29.0760  -21.3170   17.6890 C   0  0  0  0  0  1  0  0  0  0  0  0
  -27.3230  -20.9460   19.4330 C   0  0  0  0  0  1  0  0  0  0  0  0
  -28.8480  -21.0260   19.1890 C   0  0  1  0  0  0  0  0  0  0  0  0
  -29.4160  -17.2670   18.8430 C   0  0  0  0  0  3  0  0  0  0  0  0
  -30.1810  -19.1750   20.6080 C   0  0  0  0  0  3  0  0  0  0  0  0
  -30.1980  -16.8830   19.9640 C   0  0  0  0  0  0  0  0  0  0  0  0
  -29.4140  -19.5620   19.4770 C   0  0  0  0  0  0  0  0  0  0  0  0
  -30.5660  -17.8830   20.8310 N   0  0  0  0  0  0  0  0  0  0  0  0
  -29.0390  -18.5660   18.6120 N   0  0  0  0  0  0  0  0  0  0  0  0
  -30.5240  -15.3760   20.3780 C   0  0  2  0  0  0  0  0  0  0  0  0
  -30.4670  -14.2910   19.1690 C   0  0  0  0  0  0  0  0  0  0  0  0
  -29.8230  -12.2530   17.8460 C   0  0  0  0  0  2  0  0  0  0  0  0
  -28.6330  -12.5400   16.9020 C   0  0  0  0  0  2  0  0  0  0  0  0
  -27.2820  -12.3540   17.6260 C   0  0  0  0  0  2  0  0  0  0  0  0
  -27.2680  -13.0420   19.0130 C   0  0  0  0  0  3  0  0  0  0  0  0
  -28.5340  -12.6500   19.8000 C   0  0  0  0  0  2  0  0  0  0  0  0
  -29.7120  -13.1300   19.0500 N   0  0  0  0  0  0  0  0  0  0  0  0
  -31.2620  -14.5120   18.2460 O   0  0  0  0  0  0  0  0  0  0  0  0
  -25.0970  -13.6100   20.2700 C   0  0  0  0  0  0  0  0  0  0  0  0
  -24.1290  -12.8200   20.8290 C   0  0  0  0  0  0  0  0  0  0  0  0
  -24.5510  -11.4700   20.6180 C   0  0  0  0  0  0  0  0  0  0  0  0
  -26.0500  -12.7410   19.7610 N   0  0  0  0  0  0  0  0  0  0  0  0
  -25.7380  -11.4460   20.0250 N   0  0  0  0  0  0  0  0  0  0  0  0
  -23.8650  -10.2020   20.8970 C   0  0  0  0  0  0  0  0  0  0  0  0
  -24.3840   -9.2690   21.8210 C   0  0  0  0  0  3  0  0  0  0  0  0
  -23.6970   -8.0650   22.0830 C   0  0  0  0  0  3  0  0  0  0  0  0
  -22.4760   -7.7850   21.4250 C   0  0  0  0  0  0  0  0  0  0  0  0
  -21.9770   -8.7070   20.4870 C   0  0  0  0  0  3  0  0  0  0  0  0
  -22.6640   -9.9030   20.2230 C   0  0  0  0  0  3  0  0  0  0  0  0
  -21.7510   -6.6300   21.5980 O   0  0  0  0  0  0  0  0  0  0  0  0
  -21.6880   -5.9970   22.8140 C   0  0  0  0  0  0  0  0  0  0  0  0
  -21.1820   -6.6390   23.9650 C   0  0  0  0  0  3  0  0  0  0  0  0
  -21.0710   -5.9280   25.1760 C   0  0  0  0  0  3  0  0  0  0  0  0
  -21.4560   -4.5760   25.2370 C   0  0  0  0  0  0  0  0  0  0  0  0
  -21.9530   -3.9330   24.0900 C   0  0  0  0  0  3  0  0  0  0  0  0
  -22.0670   -4.6410   22.8810 C   0  0  0  0  0  0  0  0  0  0  0  0
  -22.5270   -4.0100   21.7740 F   0  0  0  0  0  0  0  0  0  0  0  0
  -21.3430   -3.8900   26.3980 F   0  0  0  0  0  0  0  0  0  0  0  0
  -22.8370  -13.2830   21.4370 C   0  0  0  0  0  0  0  0  0  0  0  0
  -22.3240  -12.5530   22.4230 N   0  0  0  0  0  0  0  0  0  0  0  0
  -22.2960  -14.3250   21.0700 O   0  0  0  0  0  0  0  0  0  0  0  0
  -22.7780  -11.7100   22.7440 H   0  0  0  0  0  0  0  0  0  0  0  0
  -21.4670  -12.8480   22.8680 H   0  0  0  0  0  0  0  0  0  0  0  0
  -25.2350  -14.9890   20.1370 N   0  0  0  0  0  0  0  0  0  0  0  0
  -24.5220  -15.6330   20.4550 H   0  0  0  0  0  0  0  0  0  0  0  0
  -26.0030  -15.4520   19.6700 H   0  0  0  0  0  0  0  0  0  0  0  0
  -29.6170  -15.0570   21.6080 C   0  0  1  0  0  0  0  0  0  0  0  0
  -28.3310  -15.2000   21.2800 F   0  0  0  0  0  0  0  0  0  0  0  0
  -29.8410  -13.8320   22.0890 F   0  0  0  0  0  0  0  0  0  0  0  0
  -29.8080  -15.8860   22.6380 F   0  0  0  0  0  0  0  0  0  0  0  0
  -32.0240  -15.3040   20.8630 C   0  0  1  0  0  0  0  0  0  0  0  0
  -32.2490  -15.9290   22.0210 F   0  0  0  0  0  0  0  0  0  0  0  0
  -32.4190  -14.0380   21.0460 F   0  0  0  0  0  0  0  0  0  0  0  0
  -32.8660  -15.8490   19.9760 F   0  0  0  0  0  0  0  0  0  0  0  0
  -29.4070  -22.3020   20.0310 C   0  0  0  0  0  3  0  0  0  0  0  0
  -28.8530  -23.7760   19.6520 C   0  0  0  0  0  2  0  0  0  0  0  0
  -28.7930  -24.9100   20.7610 C   0  0  0  0  0  2  0  0  0  0  0  0
  -28.8730  -26.3150   20.3350 O   0  0  0  0  0  0  0  0  0  0  0  0
  -24.8180  -31.5330   23.2020 C   0  0  0  0  0  0  0  0  0  0  0  0
  -27.7050  -27.0760   20.2950 C   0  0  0  0  0  0  0  0  0  0  0  0
  -23.7310  -30.1050   21.5040 C   0  0  0  0  0  3  0  0  0  0  0  0
  -25.2900  -28.5850   20.1610 C   0  0  0  0  0  0  0  0  0  0  0  0
  -26.2610  -30.5010   21.4390 C   0  0  0  0  0  2  0  0  0  0  0  0
  -26.4110  -29.1240   20.8050 C   0  0  0  0  0  0  0  0  0  0  0  0
  -27.6240  -28.3830   20.8560 C   0  0  0  0  0  3  0  0  0  0  0  0
  -26.5630  -26.5690   19.6410 C   0  0  0  0  0  3  0  0  0  0  0  0
  -25.3660  -27.3110   19.5710 C   0  0  0  0  0  3  0  0  0  0  0  0
  -24.0280  -29.4260   20.1410 C   0  0  0  0  0  2  0  0  0  0  0  0
  -24.9520  -30.7300   22.1070 N   0  0  0  0  0  0  0  0  0  0  0  0
  -23.7030  -31.7840   23.6840 O   0  0  0  0  0  0  0  0  0  0  0  0
  -23.0470  -29.0740   22.4340 C   0  0  0  0  0  0  0  0  0  0  0  0
  -21.7310  -28.8750   22.2500 N   0  0  0  0  0  0  0  0  0  0  0  0
  -23.7030  -28.4550   23.2770 O   0  0  0  0  0  0  0  0  0  0  0  0
  -21.2630  -29.4250   21.5440 H   0  0  0  0  0  0  0  0  0  0  0  0
  -18.3510  -27.6500   22.6250 C   0  0  0  0  0  0  0  0  0  0  0  0
  -20.8980  -27.9210   22.9800 C   0  0  0  0  0  3  0  0  0  0  0  0
  -21.0280  -26.4980   22.3880 C   0  0  0  0  0  2  0  0  0  0  0  0
  -19.9610  -26.1830   21.3340 C   0  0  0  0  0  2  0  0  0  0  0  0
  -18.5580  -26.3110   21.9360 C   0  0  0  0  0  2  0  0  0  0  0  0
  -19.4500  -28.4120   23.1010 C   0  0  0  0  0  0  0  0  0  0  0  0
  -19.2050  -29.6660   23.7030 C   0  0  0  0  0  3  0  0  0  0  0  0
  -17.8920  -30.1560   23.8330 C   0  0  0  0  0  3  0  0  0  0  0  0
  -16.8060  -29.3900   23.3740 C   0  0  0  0  0  3  0  0  0  0  0  0
  -17.0370  -28.1390   22.7760 C   0  0  0  0  0  3  0  0  0  0  0  0
  -26.0540  -32.1970   23.8860 C   0  0  0  0  0  3  0  0  0  0  0  0
  -26.5340  -31.4270   25.1780 C   0  0  1  0  0  0  0  0  0  0  0  0
  -25.4010  -31.1420   26.1900 C   0  0  0  0  0  1  0  0  0  0  0  0
  -27.1820  -30.0750   24.8000 C   0  0  0  0  0  1  0  0  0  0  0  0
  -27.6240  -32.2510   25.9030 C   0  0  0  0  0  1  0  0  0  0  0  0
  -25.6890  -33.5810   24.2150 N   0  0  0  0  0  0  0  0  0  0  0  0
  -26.0400  -34.6530   23.4920 C   0  0  0  0  0  0  0  0  0  0  0  0
  -26.7720  -34.5810   22.5010 O   0  0  0  0  0  0  0  0  0  0  0  0
  -25.0430  -33.7090   24.9790 H   0  0  0  0  0  0  0  0  0  0  0  0
  -24.3050  -36.4180   23.0430 C   0  0  0  0  0  1  0  0  0  0  0  0
  -25.4910  -36.0230   23.9360 C   0  0  0  0  0  3  0  0  0  0  0  0
  -27.5420  -36.9320   24.9350 C   0  0  0  0  0  1  0  0  0  0  0  0
  -26.5070  -37.0980   23.9180 N   0  0  0  0  0  0  0  0  0  0  0  0
  -26.0720  -38.0070   24.0520 H   0  0  0  0  0  0  0  0  0  0  0  0
  -30.9560  -22.2770   20.2560 C   0  0  0  0  0  2  0  0  0  0  0  0
  -33.0400  -23.5850   20.1860 C   0  0  0  0  0  1  0  0  0  0  0  0
  -31.9970  -22.9200   18.0820 C   0  0  0  0  0  1  0  0  0  0  0  0
  -31.7620  -23.2790   19.5010 N   0  0  1  0  0  4  0  0  0  0  0  0
  -31.2420  -24.1430   19.4990 H   0  0  0  0  0  0  0  0  0  0  0  0
  3  1  1  6
  3  2  1  0
  3  7  1  0
  3 55  1  0
  4  6  1  0
  5  8  1  0
  6 10  1  0
  6  8  2  0
  7  5  2  0
  9  4  2  0
  9  7  1  0
 10 51  1  0
 10 47  1  0
 10 11  1  6
 12 17  1  0
 13 14  1  0
 13 12  1  0
 15 14  1  0
 15 22  1  0
 15 16  1  0
 17 11  1  0
 17 16  1  0
 18 11  2  0
 19 20  2  0
 20 39  1  0
 21 20  1  0
 21 24  1  0
 22 23  1  0
 22 19  1  0
 23 21  2  0
 24 25  1  0
 25 26  2  0
 27 30  1  0
 27 26  1  0
 28 27  2  0
 29 28  1  0
 29 24  2  0
 30 31  1  0
 31 36  2  0
 31 32  1  0
 32 33  2  0
 33 34  1  0
 34 38  1  0
 35 34  2  0
 36 35  1  0
 37 36  1  0
 39 40  1  0
 40 42  1  0
 40 43  1  0
 41 39  2  0
 44 19  1  0
 44 45  1  0
 46 44  1  0
 47 49  1  1
 47 50  1  0
 48 47  1  0
 51 53  1  1
 51 52  1  0
 54 51  1  0
 55 56  1  0
 55 99  1  0
 56 57  1  0
 58 57  1  0
 59 70  2  0
 60 58  1  0
 60 65  1  0
 61 69  1  0
 61 71  1  0
 62 64  1  0
 63 69  1  0
 64 65  2  0
 64 63  1  0
 66 60  2  0
 67 66  1  0
 67 62  2  0
 68 62  1  0
 68 61  1  0
 69 59  1  0
 71 73  2  0
 72 71  1  0
 74 72  1  0
 75 84  2  0
 75 80  1  0
 76 72  1  0
 76 80  1  0
 77 76  1  0
 78 79  1  0
 78 77  1  0
 79 75  1  0
 80 81  2  0
 81 82  1  0
 83 82  2  0
 84 83  1  0
 85 59  1  0
 85 90  1  0
 85 86  1  0
 86 89  1  1
 86 87  1  0
 88 86  1  0
 90 93  1  0
 91 95  1  0
 91 90  1  0
 92 91  2  0
 95 94  1  0
 97 95  1  0
 97 98  1  0
 97 96  1  0
101102  1  0
102100  1  0
102 99  1  0
102103  1  6
M  ISO  4  10 100  11 100  57 101  58 101
M  END
>  <TORSDO>  (28) 
F 25

>  <SCORE>  (28) 
-7.899

>  <name>  (28) 
29

>  <ligand_id>  (28) 
29

>  <original_smiles>  (28) 
[H]c1nc(C(C([H])([H])[H])(C([H])([H])[H])C([H])(C([H])([H])C([H])([H])Oc2c([H])c([H])c3c(c2[H])C([H])([H])N(C(=O)C([H])(N([H])C(=O)C([H])(N([H])C([H])([H])[H])C([H])([H])[H])C(C([H])([H])[H])(C([H])([H])[H])C([H])([H])[H])C([H])(C(=O)N([H])C2([H])c4c([H])c([H])c([H])c([H])c4C([H])([H])C([H])([H])C2([H])[H])C3([H])[H])C([H])([H])[N+]([H])(C([H])([H])[H])C([H])([H])[H])c([H])nc1C(C(=O)N1C([H])([H])C([H])([H])C([H])([H])C([H])(n2nc(-c3c([H])c([H])c(Oc4c([H])c([H])c(F)c([H])c4F)c([H])c3[H])c(C(=O)N([H])[H])c2N([H])[H])C1([H])[H])(C(F)(F)F)C(F)(F)F

>  <smiles>  (28) 
[H]c1nc(C(C([H])([H])[H])(C([H])([H])[H])C([H])(C([H])([H])C([H])([H])Oc2c([H])c([H])c3c(c2[H])C([H])([H])N(C(=O)C([H])(N([H])C(=O)C([H])(N([H])C([H])([H])[H])C([H])([H])[H])C(C([H])([H])[H])(C([H])([H])[H])C([H])([H])[H])C([H])(C(=O)N([H])C2([H])c4c([H])c([H])c([H])c([H])c4C([H])([H])C([H])([H])C2([H])[H])C3([H])[H])C([H])([H])[N+]([H])(C([H])([H])[H])C([H])([H])[H])c([H])nc1C(C(=O)N1C([H])([H])C([H])([H])C([H])([H])C([H])(n2nc(-c3c([H])c([H])c(Oc4c([H])c([H])c(F)c([H])c4F)c([H])c3[H])c(C(=O)N([H])[H])c2N([H])[H])C1([H])[H])(C(F)(F)F)C(F)(F)F

$$$$
30:0:0
     RDKit          3D

 99107  0  0  1  0  0  0  0  0999 V2000
  -30.8970  -21.2810   19.9220 C   0  0  0  0  0  3  0  0  0  0  0  0
  -29.5550  -21.9580   19.5600 C   0  0  0  0  0  3  0  0  0  0  0  0
  -29.5960  -23.3090   18.7700 C   0  0  0  0  0  3  0  0  0  0  0  0
  -30.0110  -22.1910   16.5140 C   0  0  0  0  0  1  0  0  0  0  0  0
  -31.9370  -23.3900   17.6090 C   0  0  0  0  0  1  0  0  0  0  0  0
  -30.0290  -24.6610   16.6420 C   0  0  0  0  0  1  0  0  0  0  0  0
  -30.4020  -23.3760   17.4210 C   0  0  2  0  0  0  0  0  0  0  0  0
  -29.7390  -24.5770   19.6760 C   0  0  0  0  0  2  0  0  0  0  0  0
  -28.4440  -25.4220   19.6190 C   0  0  0  0  0  2  0  0  0  0  0  0
  -28.4950  -26.7410   20.1720 O   0  0  0  0  0  0  0  0  0  0  0  0
  -24.6250  -31.8820   23.2490 C   0  0  0  0  0  0  0  0  0  0  0  0
  -27.3030  -27.4540   20.1640 C   0  0  0  0  0  0  0  0  0  0  0  0
  -23.4300  -30.4840   21.5970 C   0  0  0  0  0  3  0  0  0  0  0  0
  -24.8950  -28.9580   20.1790 C   0  0  0  0  0  0  0  0  0  0  0  0
  -25.9580  -30.8480   21.4120 C   0  0  0  0  0  2  0  0  0  0  0  0
  -26.0520  -29.4790   20.7710 C   0  0  0  0  0  0  0  0  0  0  0  0
  -27.2550  -28.7350   20.7620 C   0  0  0  0  0  3  0  0  0  0  0  0
  -26.1130  -26.9480   19.5780 C   0  0  0  0  0  3  0  0  0  0  0  0
  -24.9200  -27.6870   19.5850 C   0  0  0  0  0  3  0  0  0  0  0  0
  -23.6510  -29.8110   20.2180 C   0  0  0  0  0  2  0  0  0  0  0  0
  -24.6910  -31.0860   22.1440 N   0  0  0  0  0  0  0  0  0  0  0  0
  -23.5400  -32.1500   23.7820 O   0  0  0  0  0  0  0  0  0  0  0  0
  -22.7760  -29.4590   22.5510 C   0  0  0  0  0  0  0  0  0  0  0  0
  -21.4510  -29.2840   22.4200 N   0  0  0  0  0  0  0  0  0  0  0  0
  -23.4560  -28.8200   23.3580 O   0  0  0  0  0  0  0  0  0  0  0  0
  -20.9600  -29.8460   21.7380 H   0  0  0  0  0  0  0  0  0  0  0  0
  -18.0670  -28.1140   22.9220 C   0  0  0  0  0  0  0  0  0  0  0  0
  -20.6290  -28.3430   23.1840 C   0  0  0  0  0  3  0  0  0  0  0  0
  -20.7140  -26.9200   22.5880 C   0  0  0  0  0  2  0  0  0  0  0  0
  -19.6040  -26.6200   21.5770 C   0  0  0  0  0  2  0  0  0  0  0  0
  -18.2280  -26.7710   22.2300 C   0  0  0  0  0  2  0  0  0  0  0  0
  -19.1950  -28.8590   23.3560 C   0  0  0  0  0  0  0  0  0  0  0  0
  -18.9930  -30.1190   23.9600 C   0  0  0  0  0  3  0  0  0  0  0  0
  -17.6940  -30.6320   24.1370 C   0  0  0  0  0  3  0  0  0  0  0  0
  -16.5800  -29.8810   23.7220 C   0  0  0  0  0  3  0  0  0  0  0  0
  -16.7680  -28.6250   23.1210 C   0  0  0  0  0  3  0  0  0  0  0  0
  -25.9070  -32.5130   23.8790 C   0  0  0  0  0  3  0  0  0  0  0  0
  -26.4270  -31.7300   25.1470 C   0  0  1  0  0  0  0  0  0  0  0  0
  -25.3330  -31.4730   26.2100 C   0  0  0  0  0  1  0  0  0  0  0  0
  -27.0190  -30.3600   24.7380 C   0  0  0  0  0  1  0  0  0  0  0  0
  -27.5740  -32.5240   25.8170 C   0  0  0  0  0  1  0  0  0  0  0  0
  -25.5900  -33.9070   24.2210 N   0  0  0  0  0  0  0  0  0  0  0  0
  -25.9150  -34.9660   23.4670 C   0  0  0  0  0  0  0  0  0  0  0  0
  -26.5820  -34.8730   22.4330 O   0  0  0  0  0  0  0  0  0  0  0  0
  -25.0030  -34.0540   25.0270 H   0  0  0  0  0  0  0  0  0  0  0  0
  -24.1740  -36.7470   23.1270 C   0  0  0  0  0  1  0  0  0  0  0  0
  -25.4190  -36.3460   23.9340 C   0  0  0  0  0  3  0  0  0  0  0  0
  -27.5530  -37.2360   24.7650 C   0  0  0  0  0  1  0  0  0  0  0  0
  -26.4450  -37.4070   23.8280 N   0  0  0  0  0  0  0  0  0  0  0  0
  -26.0350  -38.3230   23.9840 H   0  0  0  0  0  0  0  0  0  0  0  0
  -30.9160  -20.0980   20.9540 C   0  0  0  0  0  3  0  0  0  0  0  0
  -28.4730  -16.6480   20.5600 C   0  0  0  0  0  3  0  0  0  0  0  0
  -27.9570  -17.9390   20.3900 C   0  0  0  0  0  3  0  0  0  0  0  0
  -29.8600  -16.5310   20.7400 C   0  0  0  0  0  0  0  0  0  0  0  0
  -30.0470  -18.8480   20.6340 C   0  0  0  0  0  0  0  0  0  0  0  0
  -28.7430  -19.0280   20.4540 N   0  0  0  0  0  0  0  0  0  0  0  0
  -30.6340  -17.6460   20.7350 N   0  0  0  0  0  0  0  0  0  0  0  0
  -31.8100  -15.3770   21.9090 C   0  0  0  0  0  1  0  0  0  0  0  0
  -30.4930  -15.1750   21.1300 C   0  0  0  0  0  3  0  0  0  0  0  0
  -30.6910  -14.1620   19.9630 C   0  0  0  0  0  0  0  0  0  0  0  0
  -30.2290  -12.0040   18.8300 C   0  0  0  0  0  2  0  0  0  0  0  0
  -29.2050  -12.1400   17.6890 C   0  0  0  0  0  2  0  0  0  0  0  0
  -27.7640  -12.0200   18.2240 C   0  0  0  0  0  2  0  0  0  0  0  0
  -27.5150  -12.9250   19.4590 C   0  0  0  0  0  3  0  0  0  0  0  0
  -28.6390  -12.7620   20.5040 C   0  0  0  0  0  2  0  0  0  0  0  0
  -29.9320  -13.0300   19.8460 N   0  0  0  0  0  0  0  0  0  0  0  0
  -31.6360  -14.3690   19.1910 O   0  0  0  0  0  0  0  0  0  0  0  0
  -25.1920  -13.5910   20.3400 C   0  0  0  0  0  0  0  0  0  0  0  0
  -24.1380  -12.8460   20.8000 C   0  0  0  0  0  0  0  0  0  0  0  0
  -24.5680  -11.4840   20.7550 C   0  0  0  0  0  0  0  0  0  0  0  0
  -26.1960  -12.6830   20.0410 N   0  0  0  0  0  0  0  0  0  0  0  0
  -25.8300  -11.4110   20.3490 N   0  0  0  0  0  0  0  0  0  0  0  0
  -23.8330  -10.2410   21.0230 C   0  0  0  0  0  0  0  0  0  0  0  0
  -24.3030   -9.2930   21.9600 C   0  0  0  0  0  3  0  0  0  0  0  0
  -23.5730   -8.1120   22.2140 C   0  0  0  0  0  3  0  0  0  0  0  0
  -22.3570   -7.8720   21.5320 C   0  0  0  0  0  0  0  0  0  0  0  0
  -21.9040   -8.8050   20.5850 C   0  0  0  0  0  3  0  0  0  0  0  0
  -22.6360   -9.9790   20.3290 C   0  0  0  0  0  3  0  0  0  0  0  0
  -21.5890   -6.7450   21.7000 O   0  0  0  0  0  0  0  0  0  0  0  0
  -21.5850   -6.0440   22.8780 C   0  0  0  0  0  0  0  0  0  0  0  0
  -21.2290   -6.6480   24.1050 C   0  0  0  0  0  3  0  0  0  0  0  0
  -21.1690   -5.8740   25.2800 C   0  0  0  0  0  3  0  0  0  0  0  0
  -21.4540   -4.4950   25.2310 C   0  0  0  0  0  0  0  0  0  0  0  0
  -21.7980   -3.8900   24.0110 C   0  0  0  0  0  3  0  0  0  0  0  0
  -21.8600   -4.6620   22.8370 C   0  0  0  0  0  0  0  0  0  0  0  0
  -22.1740   -4.0690   21.6610 F   0  0  0  0  0  0  0  0  0  0  0  0
  -21.3860   -3.7510   26.3590 F   0  0  0  0  0  0  0  0  0  0  0  0
  -22.7720  -13.3580   21.1650 C   0  0  0  0  0  0  0  0  0  0  0  0
  -22.0970  -12.6930   22.0970 N   0  0  0  0  0  0  0  0  0  0  0  0
  -22.3120  -14.3770   20.6520 O   0  0  0  0  0  0  0  0  0  0  0  0
  -22.4850  -11.8720   22.5370 H   0  0  0  0  0  0  0  0  0  0  0  0
  -21.1790  -13.0110   22.3770 H   0  0  0  0  0  0  0  0  0  0  0  0
  -25.3780  -14.9550   20.1370 N   0  0  0  0  0  0  0  0  0  0  0  0
  -24.6590  -15.6460   20.3350 H   0  0  0  0  0  0  0  0  0  0  0  0
  -26.2230  -15.3620   19.7560 H   0  0  0  0  0  0  0  0  0  0  0  0
  -32.3980  -21.1190   22.7770 C   0  0  0  0  0  1  0  0  0  0  0  0
  -29.9430  -21.5700   22.8650 C   0  0  0  0  0  1  0  0  0  0  0  0
  -30.8250  -19.3090   23.4320 C   0  0  0  0  0  1  0  0  0  0  0  0
  -31.0040  -20.5150   22.4790 C   0  0  1  0  0  0  0  0  0  0  0  0
  2  1  2  0
  3  2  1  0
  3  8  1  0
  7  4  1  6
  6  7  1  0
  7  5  1  0
  7  3  1  0
  9  8  1  0
  9 10  1  0
 11 22  2  0
 12 10  1  0
 12 17  1  0
 13 21  1  0
 13 23  1  0
 14 20  1  0
 14 16  1  0
 15 21  1  0
 16 15  1  0
 17 16  2  0
 18 19  1  0
 18 12  2  0
 19 14  2  0
 20 13  1  0
 21 11  1  0
 23 25  2  0
 24 23  1  0
 26 24  1  0
 27 36  2  0
 27 32  1  0
 28 24  1  0
 28 32  1  0
 29 28  1  0
 30 31  1  0
 30 29  1  0
 31 27  1  0
 32 33  2  0
 33 34  1  0
 35 34  2  0
 36 35  1  0
 37 11  1  0
 37 42  1  0
 37 38  1  0
 38 41  1  1
 38 39  1  0
 40 38  1  0
 42 45  1  0
 43 47  1  0
 43 42  1  0
 44 43  2  0
 47 46  1  0
 49 47  1  0
 49 50  1  0
 49 48  1  0
 51  1  1  0
 51 99  1  0
 52 54  1  0
 53 56  1  0
 53 52  2  0
 54 59  1  0
 55 57  1  0
 55 51  1  0
 56 55  2  0
 57 54  2  0
 59 58  1  0
 60 59  1  0
 61 66  1  0
 62 63  1  0
 62 61  1  0
 64 63  1  0
 64 71  1  0
 64 65  1  0
 66 60  1  0
 66 65  1  0
 67 60  2  0
 68 69  2  0
 69 88  1  0
 70 69  1  0
 70 73  1  0
 71 68  1  0
 71 72  1  0
 72 70  2  0
 73 74  1  0
 74 75  2  0
 76 79  1  0
 76 75  1  0
 77 76  2  0
 78 77  1  0
 78 73  2  0
 79 80  1  0
 80 81  1  0
 81 82  2  0
 83 82  1  0
 83 87  1  0
 84 83  2  0
 85 80  2  0
 85 84  1  0
 86 85  1  0
 88 89  1  0
 89 92  1  0
 89 91  1  0
 90 88  2  0
 93 94  1  0
 93 68  1  0
 95 93  1  0
 99 96  1  6
 99 97  1  0
 99 98  1  0
M  ISO  4   9 101  10 101  59 100  60 100
M  END
>  <TORSDO>  (29) 
F 25

>  <SCORE>  (29) 
-11.441

>  <name>  (29) 
30

>  <ligand_id>  (29) 
30

>  <original_smiles>  (29) 
[H]c1nc(C([H])(C([H])([H])C([H])([H])C([H])(C([H])([H])C([H])([H])Oc2c([H])c([H])c3c(c2[H])C([H])([H])N(C(=O)C([H])(N([H])C(=O)C([H])(N([H])C([H])([H])[H])C([H])([H])[H])C(C([H])([H])[H])(C([H])([H])[H])C([H])([H])[H])C([H])(C(=O)N([H])C2([H])c4c([H])c([H])c([H])c([H])c4C([H])([H])C([H])([H])C2([H])[H])C3([H])[H])C(C([H])([H])[H])(C([H])([H])[H])C([H])([H])[H])C(C([H])([H])[H])(C([H])([H])[H])C([H])([H])[H])nc(C([H])(C(=O)N2C([H])([H])C([H])([H])C([H])([H])C([H])(n3nc(-c4c([H])c([H])c(Oc5c([H])c([H])c(F)c([H])c5F)c([H])c4[H])c(C(=O)N([H])[H])c3N([H])[H])C2([H])[H])C([H])([H])[H])c1[H]

>  <smiles>  (29) 
[H]c1nc(C([H])(C([H])([H])C([H])([H])C([H])(C([H])([H])C([H])([H])Oc2c([H])c([H])c3c(c2[H])C([H])([H])N(C(=O)C([H])(N([H])C(=O)C([H])(N([H])C([H])([H])[H])C([H])([H])[H])C(C([H])([H])[H])(C([H])([H])[H])C([H])([H])[H])C([H])(C(=O)N([H])C2([H])c4c([H])c([H])c([H])c([H])c4C([H])([H])C([H])([H])C2([H])[H])C3([H])[H])C(C([H])([H])[H])(C([H])([H])[H])C([H])([H])[H])C(C([H])([H])[H])(C([H])([H])[H])C([H])([H])[H])nc(C([H])(C(=O)N2C([H])([H])C([H])([H])C([H])([H])C([H])(n3nc(-c4c([H])c([H])c(Oc5c([H])c([H])c(F)c([H])c5F)c([H])c4[H])c(C(=O)N([H])[H])c3N([H])[H])C2([H])[H])C([H])([H])[H])c1[H]

$$$$
31:0:0
     RDKit          3D

 99107  0  0  1  0  0  0  0  0999 V2000
  -29.8410  -21.5400   20.8270 C   0  0  0  0  0  2  0  0  0  0  0  0
  -30.4410  -19.1840   19.8180 C   0  0  0  0  0  0  0  0  0  0  0  0
  -31.6690  -18.4490   19.8310 C   0  0  0  0  0  0  0  0  0  0  0  0
  -30.7250  -20.3720   20.4530 C   0  0  0  0  0  0  0  0  0  0  0  0
  -32.8890  -21.3520   21.3990 C   0  0  0  0  0  1  0  0  0  0  0  0
  -32.6450  -19.1630   20.3860 N   0  0  0  0  0  0  0  0  0  0  0  0
  -32.0740  -20.3300   20.7660 N   0  0  0  0  0  0  0  0  0  0  0  0
  -29.1260  -18.9730   17.6900 C   0  0  0  0  0  1  0  0  0  0  0  0
  -29.1320  -18.7490   19.2100 C   0  0  0  0  0  2  0  0  0  0  0  0
  -31.9890  -17.1040   19.1840 C   0  0  0  0  0  2  0  0  0  0  0  0
  -32.0390  -14.6890   19.1770 C   0  0  0  0  0  0  0  0  0  0  0  0
  -31.5810  -12.3830   18.3740 C   0  0  0  0  0  2  0  0  0  0  0  0
  -30.4630  -12.3460   17.3130 C   0  0  0  0  0  2  0  0  0  0  0  0
  -29.0810  -12.2420   17.9850 C   0  0  0  0  0  2  0  0  0  0  0  0
  -28.9000  -13.2800   19.1230 C   0  0  0  0  0  3  0  0  0  0  0  0
  -30.1130  -13.2640   20.0760 C   0  0  0  0  0  2  0  0  0  0  0  0
  -31.3320  -13.5200   19.2910 N   0  0  0  0  0  0  0  0  0  0  0  0
  -32.9530  -14.7690   18.3450 O   0  0  0  0  0  0  0  0  0  0  0  0
  -31.6380  -15.8150   19.8570 N   0  0  0  0  0  0  0  0  0  0  0  0
  -26.7850  -14.0030   20.3950 C   0  0  0  0  0  0  0  0  0  0  0  0
  -25.7350  -13.2840   20.9010 C   0  0  0  0  0  0  0  0  0  0  0  0
  -26.0210  -11.9140   20.6270 C   0  0  0  0  0  0  0  0  0  0  0  0
  -27.6510  -13.0680   19.8480 N   0  0  0  0  0  0  0  0  0  0  0  0
  -27.2070  -11.8000   20.0440 N   0  0  0  0  0  0  0  0  0  0  0  0
  -25.2110  -10.7060   20.8360 C   0  0  0  0  0  0  0  0  0  0  0  0
  -25.5490   -9.7530   21.8220 C   0  0  0  0  0  3  0  0  0  0  0  0
  -24.7450   -8.6080   22.0150 C   0  0  0  0  0  3  0  0  0  0  0  0
  -23.5890   -8.4100   21.2220 C   0  0  0  0  0  0  0  0  0  0  0  0
  -23.2700   -9.3520   20.2300 C   0  0  0  0  0  3  0  0  0  0  0  0
  -24.0740  -10.4880   20.0340 C   0  0  0  0  0  3  0  0  0  0  0  0
  -22.7640   -7.3170   21.3230 O   0  0  0  0  0  0  0  0  0  0  0  0
  -22.3510   -6.8340   22.5390 C   0  0  0  0  0  0  0  0  0  0  0  0
  -21.7150   -7.6580   23.4930 C   0  0  0  0  0  3  0  0  0  0  0  0
  -21.2470   -7.1020   24.7010 C   0  0  0  0  0  3  0  0  0  0  0  0
  -21.4060   -5.7260   24.9520 C   0  0  0  0  0  0  0  0  0  0  0  0
  -22.0330   -4.9030   24.0010 C   0  0  0  0  0  3  0  0  0  0  0  0
  -22.5030   -5.4550   22.7970 C   0  0  0  0  0  0  0  0  0  0  0  0
  -23.0880   -4.6550   21.8720 F   0  0  0  0  0  0  0  0  0  0  0  0
  -20.9490   -5.1900   26.1090 F   0  0  0  0  0  0  0  0  0  0  0  0
  -24.4860  -13.8440   21.5240 C   0  0  0  0  0  0  0  0  0  0  0  0
  -23.9360  -13.1560   22.5200 N   0  0  0  0  0  0  0  0  0  0  0  0
  -24.0180  -14.9200   21.1550 O   0  0  0  0  0  0  0  0  0  0  0  0
  -24.3300  -12.2810   22.8300 H   0  0  0  0  0  0  0  0  0  0  0  0
  -23.1110  -13.5130   22.9800 H   0  0  0  0  0  0  0  0  0  0  0  0
  -27.0650  -15.3650   20.3370 N   0  0  0  0  0  0  0  0  0  0  0  0
  -26.4160  -16.0610   20.6850 H   0  0  0  0  0  0  0  0  0  0  0  0
  -27.8850  -15.7650   19.9000 H   0  0  0  0  0  0  0  0  0  0  0  0
  -31.6420  -15.8520   21.3360 C   0  0  0  0  0  2  0  0  0  0  0  0
  -30.4460  -16.5870   23.4850 C   0  0  0  0  0  1  0  0  0  0  0  0
  -30.3950  -16.5410   21.9510 C   0  0  0  0  0  2  0  0  0  0  0  0
  -29.6220  -22.6250   19.7320 C   0  0  0  0  0  2  0  0  0  0  0  0
  -27.1820  -22.7560   20.5580 C   0  0  0  0  0  1  0  0  0  0  0  0
  -28.3330  -23.5280   19.8570 C   0  0  1  0  0  0  0  0  0  0  0  0
  -29.3270  -24.6910   22.0110 C   0  0  0  0  0  1  0  0  0  0  0  0
  -28.5840  -24.8340   20.6680 C   0  0  0  0  0  2  0  0  0  0  0  0
  -27.7770  -23.8600   18.4250 C   0  0  0  0  0  2  0  0  0  0  0  0
  -29.7810  -24.3180   16.8210 C   0  0  0  0  0  1  0  0  0  0  0  0
  -28.4800  -24.8530   17.4350 C   0  0  0  0  0  3  0  0  0  0  0  0
  -28.6990  -26.1860   17.9440 O   0  0  0  0  0  0  0  0  0  0  0  0
  -26.2880  -29.4810   23.7780 C   0  0  0  0  0  0  0  0  0  0  0  0
  -27.6440  -26.8920   18.5040 C   0  0  0  0  0  0  0  0  0  0  0  0
  -24.6040  -29.0150   22.0300 C   0  0  0  0  0  3  0  0  0  0  0  0
  -25.5240  -28.2880   19.7680 C   0  0  0  0  0  0  0  0  0  0  0  0
  -27.0620  -29.3680   21.4110 C   0  0  0  0  0  2  0  0  0  0  0  0
  -26.8360  -28.4420   20.2330 C   0  0  0  0  0  0  0  0  0  0  0  0
  -27.8950  -27.7340   19.6160 C   0  0  0  0  0  3  0  0  0  0  0  0
  -26.3100  -26.7980   18.0290 C   0  0  0  0  0  3  0  0  0  0  0  0
  -25.2560  -27.4610   18.6690 C   0  0  0  0  0  3  0  0  0  0  0  0
  -24.4380  -29.0510   20.4880 C   0  0  0  0  0  2  0  0  0  0  0  0
  -26.0170  -29.2770   22.4590 N   0  0  0  0  0  0  0  0  0  0  0  0
  -25.3840  -29.4940   24.6250 O   0  0  0  0  0  0  0  0  0  0  0  0
  -24.0420  -27.6740   22.5580 C   0  0  0  0  0  0  0  0  0  0  0  0
  -22.7540  -27.4140   22.2830 N   0  0  0  0  0  0  0  0  0  0  0  0
  -24.7650  -26.8860   23.1750 O   0  0  0  0  0  0  0  0  0  0  0  0
  -22.2270  -28.1140   21.7800 H   0  0  0  0  0  0  0  0  0  0  0  0
  -19.6820  -25.5930   21.7450 C   0  0  0  0  0  0  0  0  0  0  0  0
  -22.0250  -26.2010   22.6520 C   0  0  0  0  0  3  0  0  0  0  0  0
  -22.5400  -24.9820   21.8550 C   0  0  0  0  0  2  0  0  0  0  0  0
  -21.7480  -24.7230   20.5680 C   0  0  0  0  0  2  0  0  0  0  0  0
  -20.2680  -24.4840   20.8880 C   0  0  0  0  0  2  0  0  0  0  0  0
  -20.5100  -26.4080   22.5630 C   0  0  0  0  0  0  0  0  0  0  0  0
  -19.9200  -27.4450   23.3170 C   0  0  0  0  0  3  0  0  0  0  0  0
  -18.5330  -27.6740   23.2660 C   0  0  0  0  0  3  0  0  0  0  0  0
  -17.7140  -26.8520   22.4730 C   0  0  0  0  0  3  0  0  0  0  0  0
  -18.2880  -25.8130   21.7180 C   0  0  0  0  0  3  0  0  0  0  0  0
  -27.7430  -29.7350   24.2810 C   0  0  0  0  0  3  0  0  0  0  0  0
  -28.3740  -28.4880   25.0160 C   0  0  1  0  0  0  0  0  0  0  0  0
  -27.4460  -27.8600   26.0830 C   0  0  0  0  0  1  0  0  0  0  0  0
  -28.7430  -27.3790   24.0020 C   0  0  0  0  0  1  0  0  0  0  0  0
  -29.6900  -28.9050   25.7170 C   0  0  0  0  0  1  0  0  0  0  0  0
  -27.7050  -30.9030   25.1710 N   0  0  0  0  0  0  0  0  0  0  0  0
  -28.0850  -32.1380   24.8200 C   0  0  0  0  0  0  0  0  0  0  0  0
  -28.5780  -32.4010   23.7200 O   0  0  0  0  0  0  0  0  0  0  0  0
  -27.2490  -30.7750   26.0630 H   0  0  0  0  0  0  0  0  0  0  0  0
  -26.6420  -34.0880   25.4970 C   0  0  0  0  0  1  0  0  0  0  0  0
  -27.8880  -33.2630   25.8550 C   0  0  0  0  0  3  0  0  0  0  0  0
  -30.2250  -33.5240   26.5770 C   0  0  0  0  0  1  0  0  0  0  0  0
  -29.0570  -34.1630   25.9740 N   0  0  0  0  0  0  0  0  0  0  0  0
  -28.8240  -34.9830   26.5280 H   0  0  0  0  0  0  0  0  0  0  0  0
  2  3  1  0
  2  4  2  0
  3  6  2  0
  4  7  1  0
  4  1  1  0
  6  7  1  0
  7  5  1  0
  8  9  1  0
  9  2  1  0
 10  3  1  0
 10 19  1  0
 11 17  1  0
 11 19  1  0
 12 17  1  0
 13 14  1  0
 13 12  1  0
 15 14  1  0
 15 23  1  0
 15 16  1  0
 17 16  1  0
 18 11  2  0
 19 48  1  0
 20 21  2  0
 21 40  1  0
 22 25  1  0
 22 21  1  0
 23 24  1  0
 23 20  1  0
 24 22  2  0
 25 26  1  0
 26 27  2  0
 28 31  1  0
 28 27  1  0
 29 28  2  0
 30 29  1  0
 30 25  2  0
 31 32  1  0
 32 37  2  0
 32 33  1  0
 33 34  2  0
 34 35  1  0
 35 39  1  0
 36 35  2  0
 37 36  1  0
 38 37  1  0
 40 41  1  0
 41 43  1  0
 41 44  1  0
 42 40  2  0
 45 20  1  0
 45 46  1  0
 47 45  1  0
 48 50  1  0
 50 49  1  0
 51 53  1  0
 51  1  1  0
 53 52  1  1
 53 55  1  0
 55 54  1  0
 56 53  1  0
 58 57  1  0
 58 59  1  0
 58 56  1  0
 59 61  1  0
 60 71  2  0
 61 66  1  0
 62 70  1  0
 62 72  1  0
 63 65  1  0
 63 69  1  0
 64 70  1  0
 65 64  1  0
 66 65  2  0
 67 61  2  0
 67 68  1  0
 68 63  2  0
 69 62  1  0
 70 60  1  0
 72 74  2  0
 73 72  1  0
 75 73  1  0
 76 81  1  0
 77 73  1  0
 78 77  1  0
 79 80  1  0
 79 78  1  0
 80 76  1  0
 81 77  1  0
 81 82  2  0
 83 82  1  0
 84 83  2  0
 85 76  2  0
 85 84  1  0
 86 60  1  0
 86 87  1  0
 86 91  1  0
 87 90  1  1
 87 88  1  0
 89 87  1  0
 91 94  1  0
 92 91  1  0
 92 96  1  0
 93 92  2  0
 96 95  1  0
 96 98  1  0
 98 99  1  0
 98 97  1  0
M  ISO  4  11 100  19 100  58 101  59 101
M  END
>  <TORSDO>  (30) 
F 26

>  <SCORE>  (30) 
-6.344

>  <name>  (30) 
31

>  <ligand_id>  (30) 
31

>  <original_smiles>  (30) 
[H]c1c([H])c([H])c2c(c1[H])C([H])([H])C([H])([H])C([H])([H])C2([H])N([H])C(=O)C1([H])N(C(=O)C([H])(N([H])C(=O)C([H])(N([H])C([H])([H])[H])C([H])([H])[H])C(C([H])([H])[H])(C([H])([H])[H])C([H])([H])[H])C([H])([H])c2c([H])c(OC([H])(C([H])([H])[H])C([H])([H])C(C([H])([H])[H])(C([H])([H])C([H])([H])[H])C([H])([H])C([H])([H])c3c(C([H])([H])C([H])([H])[H])c(C([H])([H])N(C(=O)N4C([H])([H])C([H])([H])C([H])([H])C([H])(n5nc(-c6c([H])c([H])c(Oc7c([H])c([H])c(F)c([H])c7F)c([H])c6[H])c(C(=O)N([H])[H])c5N([H])[H])C4([H])[H])C([H])([H])C([H])([H])C([H])([H])[H])nn3C([H])([H])[H])c([H])c([H])c2C1([H])[H]

>  <smiles>  (30) 
[H]c1c([H])c([H])c2c(c1[H])C([H])([H])C([H])([H])C([H])([H])C2([H])N([H])C(=O)C1([H])N(C(=O)C([H])(N([H])C(=O)C([H])(N([H])C([H])([H])[H])C([H])([H])[H])C(C([H])([H])[H])(C([H])([H])[H])C([H])([H])[H])C([H])([H])c2c([H])c(OC([H])(C([H])([H])[H])C([H])([H])C(C([H])([H])[H])(C([H])([H])C([H])([H])[H])C([H])([H])C([H])([H])c3c(C([H])([H])C([H])([H])[H])c(C([H])([H])N(C(=O)N4C([H])([H])C([H])([H])C([H])([H])C([H])(n5nc(-c6c([H])c([H])c(Oc7c([H])c([H])c(F)c([H])c7F)c([H])c6[H])c(C(=O)N([H])[H])c5N([H])[H])C4([H])[H])C([H])([H])C([H])([H])C([H])([H])[H])nn3C([H])([H])[H])c([H])c([H])c2C1([H])[H]

$$$$
32:0:0
     RDKit          3D

 95103  0  0  1  0  0  0  0  0999 V2000
  -28.6900  -20.6620   20.1010 C   0  0  0  0  0  2  0  0  0  0  0  0
  -28.5510  -18.2890   21.1890 C   0  0  0  0  0  2  0  0  0  0  0  0
  -30.1490  -17.3850   20.1800 C   0  0  0  0  0  0  0  0  0  0  0  0
  -29.1940  -17.1090   21.1280 N   0  0  0  0  0  0  0  0  0  0  0  0
  -30.0640  -18.6450   19.7020 N   0  0  0  0  0  2  0  0  0  0  0  0
  -29.0570  -19.2410   20.3910 N   0  0  0  0  0  0  0  0  0  0  0  0
  -32.6010  -17.3150   20.0310 C   0  0  0  0  0  1  0  0  0  0  0  0
  -31.3100  -16.4850   19.6810 C   0  0  1  0  0  0  0  0  0  0  0  0
  -31.5470  -15.0110   20.3100 C   0  0  0  0  0  0  0  0  0  0  0  0
  -31.1090  -12.7900   19.3540 C   0  0  0  0  0  2  0  0  0  0  0  0
  -30.1970  -12.8230   18.1160 C   0  0  0  0  0  2  0  0  0  0  0  0
  -28.7150  -12.7950   18.5250 C   0  0  0  0  0  2  0  0  0  0  0  0
  -28.3560  -13.7210   19.7200 C   0  0  0  0  0  3  0  0  0  0  0  0
  -29.4130  -13.6830   20.8410 C   0  0  0  0  0  2  0  0  0  0  0  0
  -30.7200  -13.9210   20.2160 N   0  0  0  0  0  0  0  0  0  0  0  0
  -32.7330  -14.7590   20.5120 O   0  0  0  0  0  0  0  0  0  0  0  0
  -25.9950  -14.3760   20.4700 C   0  0  0  0  0  0  0  0  0  0  0  0
  -24.8880  -13.6300   20.7670 C   0  0  0  0  0  0  0  0  0  0  0  0
  -25.2930  -12.2640   20.6690 C   0  0  0  0  0  0  0  0  0  0  0  0
  -27.0040  -13.4660   20.2040 N   0  0  0  0  0  0  0  0  0  0  0  0
  -26.5890  -12.1870   20.3930 N   0  0  0  0  0  0  0  0  0  0  0  0
  -24.5100  -11.0250   20.7660 C   0  0  0  0  0  0  0  0  0  0  0  0
  -24.8830   -9.9830   21.6410 C   0  0  0  0  0  3  0  0  0  0  0  0
  -24.1020   -8.8100   21.7330 C   0  0  0  0  0  3  0  0  0  0  0  0
  -22.9320   -8.6730   20.9470 C   0  0  0  0  0  0  0  0  0  0  0  0
  -22.5800   -9.7050   20.0590 C   0  0  0  0  0  3  0  0  0  0  0  0
  -23.3610  -10.8680   19.9650 C   0  0  0  0  0  3  0  0  0  0  0  0
  -22.1270   -7.5610   20.9520 O   0  0  0  0  0  0  0  0  0  0  0  0
  -22.0000   -6.7700   22.0650 C   0  0  0  0  0  0  0  0  0  0  0  0
  -21.5500   -7.2880   23.3000 C   0  0  0  0  0  3  0  0  0  0  0  0
  -21.3650   -6.4270   24.3990 C   0  0  0  0  0  3  0  0  0  0  0  0
  -21.6210   -5.0480   24.2650 C   0  0  0  0  0  0  0  0  0  0  0  0
  -22.0640   -4.5300   23.0350 C   0  0  0  0  0  3  0  0  0  0  0  0
  -22.2490   -5.3890   21.9380 C   0  0  0  0  0  0  0  0  0  0  0  0
  -22.6560   -4.8810   20.7500 F   0  0  0  0  0  0  0  0  0  0  0  0
  -21.4380   -4.2180   25.3190 F   0  0  0  0  0  0  0  0  0  0  0  0
  -23.5060  -14.1520   21.0300 C   0  0  0  0  0  0  0  0  0  0  0  0
  -22.7360  -13.4520   21.8570 N   0  0  0  0  0  0  0  0  0  0  0  0
  -23.1180  -15.2120   20.5420 O   0  0  0  0  0  0  0  0  0  0  0  0
  -23.0630  -12.5940   22.2720 H   0  0  0  0  0  0  0  0  0  0  0  0
  -21.8060  -13.7810   22.0770 H   0  0  0  0  0  0  0  0  0  0  0  0
  -26.2230  -15.7460   20.3770 N   0  0  0  0  0  0  0  0  0  0  0  0
  -25.4910  -16.4300   20.5290 H   0  0  0  0  0  0  0  0  0  0  0  0
  -27.1230  -16.1630   20.1730 H   0  0  0  0  0  0  0  0  0  0  0  0
  -31.2920  -16.3950   18.1190 C   0  0  1  0  0  0  0  0  0  0  0  0
  -31.4650  -17.5820   17.5310 F   0  0  0  0  0  0  0  0  0  0  0  0
  -32.2840  -15.6190   17.6740 F   0  0  0  0  0  0  0  0  0  0  0  0
  -30.1430  -15.9090   17.6600 F   0  0  0  0  0  0  0  0  0  0  0  0
  -27.7810  -21.9140   22.1310 C   0  0  0  0  0  1  0  0  0  0  0  0
  -30.1920  -21.2810   22.0640 C   0  0  0  0  0  1  0  0  0  0  0  0
  -28.9980  -21.7580   21.1970 C   0  0  1  0  0  0  0  0  0  0  0  0
  -29.4220  -23.1880   20.6470 C   0  0  0  0  0  2  0  0  0  0  0  0
  -28.4240  -24.2410   20.0300 C   0  0  0  0  0  2  0  0  0  0  0  0
  -28.6860  -25.7150   20.5280 C   0  0  0  0  0  2  0  0  0  0  0  0
  -28.5010  -26.8250   19.6110 O   0  0  0  0  0  0  0  0  0  0  0  0
  -24.5700  -31.7250   23.0850 C   0  0  0  0  0  0  0  0  0  0  0  0
  -27.3300  -27.5500   19.7200 C   0  0  0  0  0  0  0  0  0  0  0  0
  -23.4010  -30.3870   21.3660 C   0  0  0  0  0  3  0  0  0  0  0  0
  -24.8960  -28.9960   19.8320 C   0  0  0  0  0  0  0  0  0  0  0  0
  -25.9120  -30.8450   21.1730 C   0  0  0  0  0  2  0  0  0  0  0  0
  -26.0420  -29.5170   20.4470 C   0  0  0  0  0  0  0  0  0  0  0  0
  -27.2670  -28.8030   20.3840 C   0  0  0  0  0  3  0  0  0  0  0  0
  -26.1680  -27.0530   19.0990 C   0  0  0  0  0  3  0  0  0  0  0  0
  -24.9550  -27.7670   19.1530 C   0  0  0  0  0  3  0  0  0  0  0  0
  -23.6230  -29.8080   19.9420 C   0  0  0  0  0  2  0  0  0  0  0  0
  -24.6460  -30.9990   21.9340 N   0  0  0  0  0  0  0  0  0  0  0  0
  -23.4840  -31.9190   23.6510 O   0  0  0  0  0  0  0  0  0  0  0  0
  -22.7980  -29.2810   22.2640 C   0  0  0  0  0  0  0  0  0  0  0  0
  -21.4760  -29.0730   22.1520 N   0  0  0  0  0  0  0  0  0  0  0  0
  -23.5160  -28.6170   23.0160 O   0  0  0  0  0  0  0  0  0  0  0  0
  -20.9550  -29.6630   21.5190 H   0  0  0  0  0  0  0  0  0  0  0  0
  -18.1450  -27.7560   22.6440 C   0  0  0  0  0  0  0  0  0  0  0  0
  -20.7030  -28.0580   22.8680 C   0  0  0  0  0  3  0  0  0  0  0  0
  -20.8240  -26.6790   22.1790 C   0  0  0  0  0  2  0  0  0  0  0  0
  -19.7020  -26.4080   21.1720 C   0  0  0  0  0  2  0  0  0  0  0  0
  -18.3350  -26.4680   21.8610 C   0  0  0  0  0  2  0  0  0  0  0  0
  -19.2580  -28.5100   23.1030 C   0  0  0  0  0  0  0  0  0  0  0  0
  -19.0270  -29.7180   23.7960 C   0  0  0  0  0  3  0  0  0  0  0  0
  -17.7170  -30.1730   24.0340 C   0  0  0  0  0  3  0  0  0  0  0  0
  -16.6190  -29.4150   23.5910 C   0  0  0  0  0  3  0  0  0  0  0  0
  -16.8340  -28.2070   22.9020 C   0  0  0  0  0  3  0  0  0  0  0  0
  -25.8360  -32.3650   23.7360 C   0  0  0  0  0  3  0  0  0  0  0  0
  -26.3590  -31.5700   24.9930 C   0  0  1  0  0  0  0  0  0  0  0  0
  -25.2650  -31.2890   26.0500 C   0  0  0  0  0  1  0  0  0  0  0  0
  -26.9630  -30.2110   24.5680 C   0  0  0  0  0  1  0  0  0  0  0  0
  -27.4960  -32.3620   25.6800 C   0  0  0  0  0  1  0  0  0  0  0  0
  -25.4960  -33.7470   24.1000 N   0  0  0  0  0  0  0  0  0  0  0  0
  -25.8340  -34.8280   23.3840 C   0  0  0  0  0  0  0  0  0  0  0  0
  -26.5340  -34.7670   22.3690 O   0  0  0  0  0  0  0  0  0  0  0  0
  -24.8770  -33.8670   24.8880 H   0  0  0  0  0  0  0  0  0  0  0  0
  -24.0950  -36.6100   23.0290 C   0  0  0  0  0  1  0  0  0  0  0  0
  -25.3130  -36.1940   23.8700 C   0  0  0  0  0  3  0  0  0  0  0  0
  -27.4020  -37.0770   24.8080 C   0  0  0  0  0  1  0  0  0  0  0  0
  -26.3340  -37.2620   23.8300 N   0  0  0  0  0  0  0  0  0  0  0  0
  -25.9110  -38.1720   23.9920 H   0  0  0  0  0  0  0  0  0  0  0  0
  1  6  1  0
  1 51  1  0
  3  4  2  0
  4  2  1  0
  5  3  1  0
  5  6  1  0
  6  2  1  0
  8  7  1  6
  8  3  1  0
  8  9  1  0
  9 16  2  0
 10 15  1  0
 11 12  1  0
 11 10  1  0
 13 12  1  0
 13 20  1  0
 13 14  1  0
 15  9  1  0
 15 14  1  0
 17 18  2  0
 18 37  1  0
 19 22  1  0
 19 18  1  0
 20 21  1  0
 20 17  1  0
 21 19  2  0
 22 23  1  0
 23 24  2  0
 25 28  1  0
 25 24  1  0
 26 25  2  0
 27 26  1  0
 27 22  2  0
 28 29  1  0
 29 30  1  0
 30 31  2  0
 32 31  1  0
 32 36  1  0
 33 32  2  0
 34 29  2  0
 34 33  1  0
 35 34  1  0
 37 38  1  0
 38 41  1  0
 38 40  1  0
 39 37  2  0
 42 17  1  0
 42 43  1  0
 44 42  1  0
 45  8  1  0
 45 46  1  6
 47 45  1  0
 48 45  1  0
 51 50  1  1
 51 49  1  0
 52 51  1  0
 53 54  1  0
 53 52  1  0
 55 57  1  0
 55 54  1  0
 56 67  2  0
 57 62  1  0
 58 66  1  0
 58 68  1  0
 59 65  1  0
 59 61  1  0
 60 66  1  0
 61 60  1  0
 62 61  2  0
 63 64  1  0
 63 57  2  0
 64 59  2  0
 65 58  1  0
 66 56  1  0
 68 70  2  0
 69 68  1  0
 71 69  1  0
 72 81  2  0
 72 77  1  0
 73 69  1  0
 73 77  1  0
 74 73  1  0
 75 76  1  0
 75 74  1  0
 76 72  1  0
 77 78  2  0
 78 79  1  0
 80 79  2  0
 81 80  1  0
 82 56  1  0
 82 87  1  0
 82 83  1  0
 83 86  1  1
 83 84  1  0
 85 83  1  0
 87 90  1  0
 88 92  1  0
 88 87  1  0
 89 88  2  0
 92 91  1  0
 94 92  1  0
 94 95  1  0
 94 93  1  0
M  ISO  4   8 100   9 100  54 101  55 101
M  END
>  <TORSDO>  (31) 
F 23

>  <SCORE>  (31) 
-10.313

>  <name>  (31) 
32

>  <ligand_id>  (31) 
32

>  <original_smiles>  (31) 
[H]c1c([H])c([H])c2c(c1[H])C([H])([H])C([H])([H])C([H])([H])C2([H])N([H])C(=O)C1([H])N(C(=O)C([H])(N([H])C(=O)C([H])(N([H])C([H])([H])[H])C([H])([H])[H])C(C([H])([H])[H])(C([H])([H])[H])C([H])([H])[H])C([H])([H])c2c([H])c(OC([H])([H])C([H])([H])C([H])([H])C(C([H])([H])[H])(C([H])([H])[H])C([H])([H])n3nc(C(C(=O)N4C([H])([H])C([H])([H])C([H])([H])C([H])(n5nc(-c6c([H])c([H])c(Oc7c([H])c([H])c(F)c([H])c7F)c([H])c6[H])c(C(=O)N([H])[H])c5N([H])[H])C4([H])[H])(C([H])([H])[H])C(F)(F)F)nc3[H])c([H])c([H])c2C1([H])[H]

>  <smiles>  (31) 
[H]c1c([H])c([H])c2c(c1[H])C([H])([H])C([H])([H])C([H])([H])C2([H])N([H])C(=O)C1([H])N(C(=O)C([H])(N([H])C(=O)C([H])(N([H])C([H])([H])[H])C([H])([H])[H])C(C([H])([H])[H])(C([H])([H])[H])C([H])([H])[H])C([H])([H])c2c([H])c(OC([H])([H])C([H])([H])C([H])([H])C(C([H])([H])[H])(C([H])([H])[H])C([H])([H])n3nc(C(C(=O)N4C([H])([H])C([H])([H])C([H])([H])C([H])(n5nc(-c6c([H])c([H])c(Oc7c([H])c([H])c(F)c([H])c7F)c([H])c6[H])c(C(=O)N([H])[H])c5N([H])[H])C4([H])[H])(C([H])([H])[H])C(F)(F)F)nc3[H])c([H])c([H])c2C1([H])[H]

$$$$
33:0:0
     RDKit          3D

 88 96  0  0  1  0  0  0  0  0999 V2000
  -28.7070  -21.6110   20.0540 C   0  0  0  0  0  3  0  0  0  0  0  0
  -29.1260  -23.2610   20.0810 C   0  0  0  0  0  3  0  0  0  0  0  0
  -28.0540  -24.5820   19.9900 C   0  0  0  0  0  2  0  0  0  0  0  0
  -28.3170  -26.1240   20.1370 O   0  0  0  0  0  0  0  0  0  0  0  0
  -24.5500  -31.7000   23.2180 C   0  0  0  0  0  0  0  0  0  0  0  0
  -27.2490  -27.1030   20.0940 C   0  0  0  0  0  0  0  0  0  0  0  0
  -23.3980  -30.3310   21.5240 C   0  0  0  0  0  3  0  0  0  0  0  0
  -24.8940  -28.8230   20.0780 C   0  0  0  0  0  0  0  0  0  0  0  0
  -25.9500  -30.6440   21.4000 C   0  0  0  0  0  2  0  0  0  0  0  0
  -26.0590  -29.2690   20.7130 C   0  0  0  0  0  0  0  0  0  0  0  0
  -27.2380  -28.4270   20.6990 C   0  0  0  0  0  3  0  0  0  0  0  0
  -26.0520  -26.7650   19.4230 C   0  0  0  0  0  3  0  0  0  0  0  0
  -24.9040  -27.5870   19.4170 C   0  0  0  0  0  3  0  0  0  0  0  0
  -23.6510  -29.6990   20.1290 C   0  0  0  0  0  2  0  0  0  0  0  0
  -24.6520  -30.9120   22.1040 N   0  0  0  0  0  0  0  0  0  0  0  0
  -23.4510  -31.9510   23.7370 O   0  0  0  0  0  0  0  0  0  0  0  0
  -22.7210  -29.2850   22.4470 C   0  0  0  0  0  0  0  0  0  0  0  0
  -21.3980  -29.0970   22.2960 N   0  0  0  0  0  0  0  0  0  0  0  0
  -23.3910  -28.6470   23.2620 O   0  0  0  0  0  0  0  0  0  0  0  0
  -20.9120  -29.6680   21.6180 H   0  0  0  0  0  0  0  0  0  0  0  0
  -18.0240  -27.8530   22.7400 C   0  0  0  0  0  0  0  0  0  0  0  0
  -20.5800  -28.1240   23.0270 C   0  0  0  0  0  3  0  0  0  0  0  0
  -20.6950  -26.7160   22.3980 C   0  0  0  0  0  2  0  0  0  0  0  0
  -19.5990  -26.4240   21.3680 C   0  0  0  0  0  2  0  0  0  0  0  0
  -18.2140  -26.5310   22.0140 C   0  0  0  0  0  2  0  0  0  0  0  0
  -19.1350  -28.6080   23.2020 C   0  0  0  0  0  0  0  0  0  0  0  0
  -18.9020  -29.8430   23.8430 C   0  0  0  0  0  3  0  0  0  0  0  0
  -17.5910  -30.3260   24.0230 C   0  0  0  0  0  3  0  0  0  0  0  0
  -16.4960  -29.5680   23.5760 C   0  0  0  0  0  3  0  0  0  0  0  0
  -16.7130  -28.3320   22.9410 C   0  0  0  0  0  3  0  0  0  0  0  0
  -25.8060  -32.3400   23.8820 C   0  0  0  0  0  3  0  0  0  0  0  0
  -26.2850  -31.5660   25.1720 C   0  0  1  0  0  0  0  0  0  0  0  0
  -25.1600  -31.3150   26.2030 C   0  0  0  0  0  1  0  0  0  0  0  0
  -26.8910  -30.1950   24.7960 C   0  0  0  0  0  1  0  0  0  0  0  0
  -27.4080  -32.3650   25.8750 C   0  0  0  0  0  1  0  0  0  0  0  0
  -25.4780  -33.7360   24.2140 N   0  0  0  0  0  0  0  0  0  0  0  0
  -25.8050  -34.7970   23.4630 C   0  0  0  0  0  0  0  0  0  0  0  0
  -26.4790  -34.7030   22.4350 O   0  0  0  0  0  0  0  0  0  0  0  0
  -24.8770  -33.8810   25.0120 H   0  0  0  0  0  0  0  0  0  0  0  0
  -24.0570  -36.5760   23.1180 C   0  0  0  0  0  1  0  0  0  0  0  0
  -25.3040  -36.1810   23.9250 C   0  0  0  0  0  3  0  0  0  0  0  0
  -27.4280  -37.0910   24.7580 C   0  0  0  0  0  1  0  0  0  0  0  0
  -26.3260  -37.2450   23.8120 N   0  0  0  0  0  0  0  0  0  0  0  0
  -25.9080  -38.1610   23.9560 H   0  0  0  0  0  0  0  0  0  0  0  0
  -29.6320  -20.3500   19.9320 O   0  0  0  0  0  0  0  0  0  0  0  0
  -27.9400  -18.4910   19.4090 C   0  0  0  0  0  0  0  0  0  0  0  0
  -29.2480  -18.9290   19.7700 C   0  0  0  0  0  0  0  0  0  0  0  0
  -29.7890  -16.4790   19.8660 C   0  0  0  0  0  0  0  0  0  0  0  0
  -26.7430  -19.3840   19.1360 C   0  0  0  0  0  1  0  0  0  0  0  0
  -27.6290  -17.1790   19.3060 N   0  0  0  0  0  0  0  0  0  0  0  0
  -30.1660  -17.8470   19.9930 N   0  0  0  0  0  0  0  0  0  0  0  0
  -28.5220  -16.2080   19.5160 N   0  0  0  0  0  0  0  0  0  0  0  0
  -30.7530  -15.0590   20.0200 C   0  0  0  0  0  0  0  0  0  0  0  0
  -30.8750  -12.5290   19.7390 C   0  0  0  0  0  2  0  0  0  0  0  0
  -30.0360  -12.1060   18.5050 C   0  0  0  0  0  2  0  0  0  0  0  0
  -28.5480  -11.9180   18.8690 C   0  0  0  0  0  2  0  0  0  0  0  0
  -28.0140  -13.0660   19.7630 C   0  0  0  0  0  3  0  0  0  0  0  0
  -28.9850  -13.3750   20.9180 C   0  0  0  0  0  2  0  0  0  0  0  0
  -30.2690  -13.7690   20.3150 N   0  0  0  0  0  0  0  0  0  0  0  0
  -31.9620  -15.1250   19.7430 O   0  0  0  0  0  0  0  0  0  0  0  0
  -25.6390  -13.7380   20.4480 C   0  0  0  0  0  0  0  0  0  0  0  0
  -24.5380  -13.0080   20.7960 C   0  0  0  0  0  0  0  0  0  0  0  0
  -24.9530  -11.6410   20.7840 C   0  0  0  0  0  0  0  0  0  0  0  0
  -26.6550  -12.8220   20.2350 N   0  0  0  0  0  0  0  0  0  0  0  0
  -26.2480  -11.5540   20.5000 N   0  0  0  0  0  0  0  0  0  0  0  0
  -24.1760  -10.4110   20.9680 C   0  0  0  0  0  0  0  0  0  0  0  0
  -24.4870   -9.4870   21.9890 C   0  0  0  0  0  3  0  0  0  0  0  0
  -23.7100   -8.3210   22.1590 C   0  0  0  0  0  3  0  0  0  0  0  0
  -22.6080   -8.0720   21.3050 C   0  0  0  0  0  0  0  0  0  0  0  0
  -22.3170   -8.9850   20.2770 C   0  0  0  0  0  3  0  0  0  0  0  0
  -23.0950  -10.1420   20.1050 C   0  0  0  0  0  3  0  0  0  0  0  0
  -21.8140   -6.9530   21.3780 O   0  0  0  0  0  0  0  0  0  0  0  0
  -21.5290   -6.3500   22.5770 C   0  0  0  0  0  0  0  0  0  0  0  0
  -20.8880   -7.0440   23.6260 C   0  0  0  0  0  3  0  0  0  0  0  0
  -20.5510   -6.3670   24.8150 C   0  0  0  0  0  3  0  0  0  0  0  0
  -20.8440   -4.9970   24.9530 C   0  0  0  0  0  0  0  0  0  0  0  0
  -21.4770   -4.3030   23.9070 C   0  0  0  0  0  3  0  0  0  0  0  0
  -21.8150   -4.9780   22.7210 C   0  0  0  0  0  0  0  0  0  0  0  0
  -22.4060   -4.3000   21.7080 F   0  0  0  0  0  0  0  0  0  0  0  0
  -20.5130   -4.3440   26.0910 F   0  0  0  0  0  0  0  0  0  0  0  0
  -23.1560  -13.5430   21.0400 C   0  0  0  0  0  0  0  0  0  0  0  0
  -22.3940  -12.8960   21.9150 N   0  0  0  0  0  0  0  0  0  0  0  0
  -22.7650  -14.5720   20.4940 O   0  0  0  0  0  0  0  0  0  0  0  0
  -22.7250  -12.0670   22.3840 H   0  0  0  0  0  0  0  0  0  0  0  0
  -21.4690  -13.2420   22.1250 H   0  0  0  0  0  0  0  0  0  0  0  0
  -25.8510  -15.1000   20.2800 N   0  0  0  0  0  0  0  0  0  0  0  0
  -25.1280  -15.7570   20.5450 H   0  0  0  0  0  0  0  0  0  0  0  0
  -26.7870  -15.4910   20.3880 H   0  0  0  0  0  0  0  0  0  0  0  0
  1  2  2  0
  3  2  1  0
  3  4  1  0
  5 16  2  0
  6  4  1  0
  6 11  1  0
  7 15  1  0
  7 17  1  0
  8 14  1  0
  8 10  1  0
  9 15  1  0
 10  9  1  0
 11 10  2  0
 12  6  2  0
 13 12  1  0
 13  8  2  0
 14  7  1  0
 15  5  1  0
 17 19  2  0
 18 17  1  0
 20 18  1  0
 21 30  2  0
 21 26  1  0
 22 18  1  0
 22 26  1  0
 23 22  1  0
 24 25  1  0
 24 23  1  0
 25 21  1  0
 26 27  2  0
 27 28  1  0
 29 28  2  0
 30 29  1  0
 31  5  1  0
 31 36  1  0
 31 32  1  0
 32 35  1  1
 32 33  1  0
 34 32  1  0
 36 39  1  0
 37 41  1  0
 37 36  1  0
 38 37  2  0
 41 40  1  0
 43 41  1  0
 43 44  1  0
 43 42  1  0
 45  1  1  0
 46 47  1  0
 47 45  1  0
 47 51  2  0
 48 51  1  0
 48 53  1  0
 49 46  1  0
 50 46  2  0
 50 52  1  0
 52 48  2  0
 53 59  1  0
 54 59  1  0
 55 56  1  0
 55 54  1  0
 57 56  1  0
 57 64  1  0
 57 58  1  0
 59 58  1  0
 60 53  2  0
 61 62  2  0
 62 81  1  0
 63 62  1  0
 63 66  1  0
 64 61  1  0
 64 65  1  0
 65 63  2  0
 66 67  1  0
 67 68  2  0
 69 72  1  0
 69 68  1  0
 70 69  2  0
 71 70  1  0
 71 66  2  0
 72 73  1  0
 73 78  2  0
 73 74  1  0
 74 75  2  0
 75 76  1  0
 76 80  1  0
 77 76  2  0
 78 77  1  0
 79 78  1  0
 81 82  1  0
 82 85  1  0
 82 84  1  0
 83 81  2  0
 86 88  1  0
 86 61  1  0
 86 87  1  0
M  ISO  4   3 101   4 101  48 100  53 100
M  END
>  <TORSDO>  (32) 
F 20

>  <SCORE>  (32) 
-14.432

>  <name>  (32) 
33

>  <ligand_id>  (32) 
33

>  <original_smiles>  (32) 
[H]c1c([H])c([H])c2c(c1[H])C([H])([H])C([H])([H])C([H])([H])C2([H])N([H])C(=O)C1([H])N(C(=O)C([H])(N([H])C(=O)C([H])(N([H])C([H])([H])[H])C([H])([H])[H])C(C([H])([H])[H])(C([H])([H])[H])C([H])([H])[H])C([H])([H])c2c([H])c(OC([H])([H])C([H])([H])C([H])([H])Oc3nc(C(=O)N4C([H])([H])C([H])([H])C([H])([H])C([H])(n5nc(-c6c([H])c([H])c(Oc7c([H])c([H])c(F)c([H])c7F)c([H])c6[H])c(C(=O)N([H])[H])c5N([H])[H])C4([H])[H])nnc3C([H])([H])[H])c([H])c([H])c2C1([H])[H]

>  <smiles>  (32) 
[H]c1c([H])c([H])c2c(c1[H])C([H])([H])C([H])([H])C([H])([H])C2([H])N([H])C(=O)C1([H])N(C(=O)C([H])(N([H])C(=O)C([H])(N([H])C([H])([H])[H])C([H])([H])[H])C(C([H])([H])[H])(C([H])([H])[H])C([H])([H])[H])C([H])([H])c2c([H])c(OC([H])([H])C([H])([H])C([H])([H])Oc3nc(C(=O)N4C([H])([H])C([H])([H])C([H])([H])C([H])(n5nc(-c6c([H])c([H])c(Oc7c([H])c([H])c(F)c([H])c7F)c([H])c6[H])c(C(=O)N([H])[H])c5N([H])[H])C4([H])[H])nnc3C([H])([H])[H])c([H])c([H])c2C1([H])[H]

$$$$
34:0:0
     RDKit          3D

 99108  0  0  1  0  0  0  0  0999 V2000
  -30.5870  -18.8730   21.9070 C   0  0  0  0  0  3  0  0  0  0  0  0
  -31.1200  -19.6620   20.9230 C   0  0  0  0  0  0  0  0  0  0  0  0
  -31.0000  -17.5070   20.1910 C   0  0  0  0  0  3  0  0  0  0  0  0
  -30.5610  -17.5580   21.4810 N   0  0  0  0  0  0  0  0  0  0  0  0
  -31.3410  -18.7820   19.8840 N   0  0  0  0  0  0  0  0  0  0  0  0
  -31.7090  -19.0610   18.9840 H   0  0  0  0  0  0  0  0  0  0  0  0
  -31.2000  -16.9740   17.7400 C   0  0  0  0  0  1  0  0  0  0  0  0
  -30.9450  -16.3700   19.1460 C   0  0  0  0  0  3  0  0  0  0  0  0
  -31.8620  -15.0880   19.2650 C   0  0  0  0  0  0  0  0  0  0  0  0
  -31.6140  -12.7320   18.5600 C   0  0  0  0  0  2  0  0  0  0  0  0
  -30.6020  -12.7020   17.3880 C   0  0  0  0  0  2  0  0  0  0  0  0
  -29.1390  -12.6540   17.8910 C   0  0  0  0  0  2  0  0  0  0  0  0
  -28.8570  -13.6790   19.0220 C   0  0  0  0  0  3  0  0  0  0  0  0
  -29.9740  -13.6210   20.0860 C   0  0  0  0  0  2  0  0  0  0  0  0
  -31.2660  -13.8670   19.4310 N   0  0  0  0  0  0  0  0  0  0  0  0
  -33.0400  -15.1760   18.8980 O   0  0  0  0  0  0  0  0  0  0  0  0
  -26.5880  -14.4820   19.9250 C   0  0  0  0  0  0  0  0  0  0  0  0
  -25.4880  -13.7960   20.3660 C   0  0  0  0  0  0  0  0  0  0  0  0
  -25.8310  -12.4110   20.2910 C   0  0  0  0  0  0  0  0  0  0  0  0
  -27.5320  -13.5160   19.6060 N   0  0  0  0  0  0  0  0  0  0  0  0
  -27.0860  -12.2660   19.8880 N   0  0  0  0  0  0  0  0  0  0  0  0
  -25.0210  -11.2110   20.5240 C   0  0  0  0  0  0  0  0  0  0  0  0
  -25.3930  -10.2480   21.4880 C   0  0  0  0  0  3  0  0  0  0  0  0
  -24.5880   -9.1090   21.7070 C   0  0  0  0  0  3  0  0  0  0  0  0
  -23.3990   -8.9250   20.9620 C   0  0  0  0  0  0  0  0  0  0  0  0
  -23.0470   -9.8760   19.9900 C   0  0  0  0  0  3  0  0  0  0  0  0
  -23.8490  -11.0070   19.7680 C   0  0  0  0  0  3  0  0  0  0  0  0
  -22.5690   -7.8390   21.0900 O   0  0  0  0  0  0  0  0  0  0  0  0
  -22.3630   -7.2290   22.3000 C   0  0  0  0  0  0  0  0  0  0  0  0
  -21.8940   -7.9440   23.4240 C   0  0  0  0  0  3  0  0  0  0  0  0
  -21.6310   -7.2650   24.6300 C   0  0  0  0  0  3  0  0  0  0  0  0
  -21.8260   -5.8740   24.7140 C   0  0  0  0  0  0  0  0  0  0  0  0
  -22.2860   -5.1580   23.5950 C   0  0  0  0  0  3  0  0  0  0  0  0
  -22.5520   -5.8340   22.3900 C   0  0  0  0  0  0  0  0  0  0  0  0
  -22.9750   -5.1380   21.3080 F   0  0  0  0  0  0  0  0  0  0  0  0
  -21.5650   -5.2210   25.8710 F   0  0  0  0  0  0  0  0  0  0  0  0
  -24.1560  -14.3820   20.7390 C   0  0  0  0  0  0  0  0  0  0  0  0
  -23.4460  -13.7450   21.6660 N   0  0  0  0  0  0  0  0  0  0  0  0
  -23.7570  -15.4330   20.2400 O   0  0  0  0  0  0  0  0  0  0  0  0
  -23.7840  -12.8940   22.0870 H   0  0  0  0  0  0  0  0  0  0  0  0
  -22.5500  -14.1130   21.9550 H   0  0  0  0  0  0  0  0  0  0  0  0
  -26.8570  -15.8370   19.7470 N   0  0  0  0  0  4  0  0  0  0  0  0
  -26.1610  -16.5500   19.9280 H   0  0  0  0  0  0  0  0  0  0  0  0
  -27.7090  -16.2130   19.3520 H   0  0  0  0  0  0  0  0  0  0  0  0
  -31.5210  -21.6120   22.4160 C   0  0  0  0  0  1  0  0  0  0  0  0
  -31.5010  -21.1500   20.9380 C   0  0  1  0  0  0  0  0  0  0  0  0
  -34.0500  -20.5210   21.1460 C   0  0  0  0  0  1  0  0  0  0  0  0
  -32.9490  -21.2850   20.3820 C   0  0  0  0  0  2  0  0  0  0  0  0
  -30.5360  -22.0740   20.0700 C   0  0  0  0  0  2  0  0  0  0  0  0
  -29.7420  -23.2650   20.7380 C   0  0  0  0  0  3  0  0  0  0  0  0
  -29.3760  -24.4760   19.8120 C   0  0  0  0  0  3  0  0  0  0  0  0
  -28.5950  -25.6350   20.5140 C   0  0  0  0  0  2  0  0  0  0  0  0
  -28.5530  -26.8810   19.7740 O   0  0  0  0  0  0  0  0  0  0  0  0
  -24.6530  -31.7950   23.2140 C   0  0  0  0  0  0  0  0  0  0  0  0
  -27.3750  -27.6010   19.8540 C   0  0  0  0  0  0  0  0  0  0  0  0
  -23.4620  -30.4650   21.5010 C   0  0  0  0  0  3  0  0  0  0  0  0
  -24.9400  -29.0530   19.9680 C   0  0  0  0  0  0  0  0  0  0  0  0
  -25.9750  -30.9020   21.2970 C   0  0  0  0  0  2  0  0  0  0  0  0
  -26.0900  -29.5710   20.5760 C   0  0  0  0  0  0  0  0  0  0  0  0
  -27.3130  -28.8570   20.5120 C   0  0  0  0  0  3  0  0  0  0  0  0
  -26.2070  -27.1020   19.2420 C   0  0  0  0  0  3  0  0  0  0  0  0
  -24.9950  -27.8190   19.2940 C   0  0  0  0  0  3  0  0  0  0  0  0
  -23.6720  -29.8760   20.0790 C   0  0  0  0  0  2  0  0  0  0  0  0
  -24.7140  -31.0670   22.0630 N   0  0  0  0  0  0  0  0  0  0  0  0
  -23.5730  -32.0040   23.7830 O   0  0  0  0  0  0  0  0  0  0  0  0
  -22.8490  -29.3720   22.4050 C   0  0  0  0  0  0  0  0  0  0  0  0
  -21.5290  -29.1580   22.2760 N   0  0  0  0  0  0  0  0  0  0  0  0
  -23.5580  -28.7220   23.1780 O   0  0  0  0  0  0  0  0  0  0  0  0
  -21.0170  -29.7410   21.6300 H   0  0  0  0  0  0  0  0  0  0  0  0
  -18.1990  -27.8310   22.7250 C   0  0  0  0  0  0  0  0  0  0  0  0
  -20.7490  -28.1510   22.9940 C   0  0  0  0  0  3  0  0  0  0  0  0
  -20.8900  -26.7600   22.3320 C   0  0  0  0  0  2  0  0  0  0  0  0
  -19.7900  -26.4660   21.3070 C   0  0  0  0  0  2  0  0  0  0  0  0
  -18.4090  -26.5310   21.9660 C   0  0  0  0  0  2  0  0  0  0  0  0
  -19.2980  -28.5990   23.1930 C   0  0  0  0  0  0  0  0  0  0  0  0
  -19.0470  -29.8180   23.8610 C   0  0  0  0  0  3  0  0  0  0  0  0
  -17.7290  -30.2680   24.0650 C   0  0  0  0  0  3  0  0  0  0  0  0
  -16.6450  -29.4960   23.6130 C   0  0  0  0  0  3  0  0  0  0  0  0
  -16.8800  -28.2810   22.9480 C   0  0  0  0  0  3  0  0  0  0  0  0
  -25.9310  -32.4190   23.8580 C   0  0  0  0  0  3  0  0  0  0  0  0
  -26.4430  -31.6260   25.1220 C   0  0  1  0  0  0  0  0  0  0  0  0
  -25.3370  -31.3310   26.1610 C   0  0  0  0  0  1  0  0  0  0  0  0
  -27.0690  -30.2750   24.7030 C   0  0  0  0  0  1  0  0  0  0  0  0
  -27.5590  -32.4300   25.8300 C   0  0  0  0  0  1  0  0  0  0  0  0
  -25.6140  -33.8100   24.2110 N   0  0  0  0  0  0  0  0  0  0  0  0
  -25.9630  -34.8790   23.4830 C   0  0  0  0  0  0  0  0  0  0  0  0
  -26.6550  -34.7980   22.4650 O   0  0  0  0  0  0  0  0  0  0  0  0
  -25.0000  -33.9470   25.0010 H   0  0  0  0  0  0  0  0  0  0  0  0
  -24.2420  -36.6800   23.1240 C   0  0  0  0  0  1  0  0  0  0  0  0
  -25.4630  -36.2570   23.9580 C   0  0  0  0  0  3  0  0  0  0  0  0
  -27.5860  -37.1120   24.8490 C   0  0  0  0  0  1  0  0  0  0  0  0
  -26.4980  -37.3120   23.8950 N   0  0  0  0  0  0  0  0  0  0  0  0
  -26.0890  -38.2270   24.0660 H   0  0  0  0  0  0  0  0  0  0  0  0
  -29.5590  -16.9160   23.7040 C   0  0  0  0  0  1  0  0  0  0  0  0
  -30.0630  -16.4120   22.3210 C   0  0  2  0  0  0  0  0  0  0  0  0
  -32.5950  -16.0270   22.8870 C   0  0  0  0  0  1  0  0  0  0  0  0
  -31.2030  -15.4070   22.6450 C   0  0  0  0  0  2  0  0  0  0  0  0
  -27.9600  -16.5450   20.7620 C   0  0  0  0  0  3  0  0  0  0  0  0
  -28.8490  -15.6830   21.6700 C   0  0  0  0  0  3  0  0  0  0  0  0
  2 46  1  0
  2  1  2  0
  3  5  1  0
  3  4  1  0
  4  1  1  0
  4 95  1  0
  5  2  1  0
  6  5  1  0
  8  7  1  0
  8  9  1  0
  8  3  1  0
  9 15  1  0
 10 15  1  0
 11 12  1  0
 11 10  1  0
 13 12  1  0
 13 20  1  0
 13 14  1  0
 15 14  1  0
 16  9  2  0
 17 18  2  0
 18 37  1  0
 19 18  1  0
 19 22  1  0
 20 21  1  0
 20 17  1  0
 21 19  2  0
 22 23  1  0
 23 24  2  0
 25 28  1  0
 25 24  1  0
 26 25  2  0
 27 26  1  0
 27 22  2  0
 28 29  1  0
 29 34  2  0
 29 30  1  0
 30 31  2  0
 31 32  1  0
 32 36  1  0
 33 32  2  0
 34 33  1  0
 35 34  1  0
 37 38  1  0
 38 41  1  0
 38 40  1  0
 39 37  2  0
 42 17  1  0
 42 43  1  0
 42 98  1  0
 44 42  1  0
 46 45  1  1
 48 46  1  0
 48 47  1  0
 49 50  1  0
 49 46  1  0
 51 52  1  0
 51 50  2  0
 53 55  1  0
 53 52  1  0
 54 65  2  0
 55 60  1  0
 56 64  1  0
 56 66  1  0
 57 63  1  0
 57 59  1  0
 58 64  1  0
 59 58  1  0
 60 59  2  0
 61 62  1  0
 61 55  2  0
 62 57  2  0
 63 56  1  0
 64 54  1  0
 66 68  2  0
 67 66  1  0
 69 67  1  0
 70 79  2  0
 70 75  1  0
 71 67  1  0
 71 75  1  0
 72 71  1  0
 73 74  1  0
 73 72  1  0
 74 70  1  0
 75 76  2  0
 76 77  1  0
 78 77  2  0
 79 78  1  0
 80 54  1  0
 80 85  1  0
 80 81  1  0
 81 84  1  1
 81 82  1  0
 83 81  1  0
 85 88  1  0
 86 90  1  0
 86 85  1  0
 87 86  2  0
 90 89  1  0
 92 90  1  0
 92 93  1  0
 92 91  1  0
 95 97  1  0
 95 94  1  1
 97 96  1  0
 98 99  2  0
 99 95  1  0
M  ISO  4   8 100   9 100  52 101  53 101
M  END
>  <TORSDO>  (33) 
F 26

>  <SCORE>  (33) 
-0.790

>  <name>  (33) 
34

>  <ligand_id>  (33) 
34

>  <original_smiles>  (33) 
[H]c1c([H])c([H])c2c(c1[H])C([H])([H])C([H])([H])C([H])([H])C2([H])N([H])C(=O)C1([H])N(C(=O)C([H])(N([H])C(=O)C([H])(N([H])C([H])([H])[H])C([H])([H])[H])C(C([H])([H])[H])(C([H])([H])[H])C([H])([H])[H])C([H])([H])c2c([H])c(OC([H])([H])C([H])([H])C([H])([H])C([H])([H])C(c3c([H])n(C(C([H])([H])[H])(C([H])([H])C([H])([H])[H])C([H])([H])C([H])([H])[H])c(C([H])(C(=O)N4C([H])([H])C([H])([H])C([H])([H])C([H])(n5nc(-c6c([H])c([H])c(Oc7c([H])c([H])c(F)c([H])c7F)c([H])c6[H])c(C(=O)N([H])[H])c5N([H])[H])C4([H])[H])C([H])([H])[H])[n+]3[H])(C([H])([H])[H])C([H])([H])C([H])([H])[H])c([H])c([H])c2C1([H])[H]

>  <smiles>  (33) 
[H]c1c([H])c([H])c2c(c1[H])C([H])([H])C([H])([H])C([H])([H])C2([H])N([H])C(=O)C1([H])N(C(=O)C([H])(N([H])C(=O)C([H])(N([H])C([H])([H])[H])C([H])([H])[H])C(C([H])([H])[H])(C([H])([H])[H])C([H])([H])[H])C([H])([H])c2c([H])c(OC([H])([H])C([H])([H])C([H])([H])C([H])([H])C(c3c([H])n(C(C([H])([H])[H])(C([H])([H])C([H])([H])[H])C([H])([H])C([H])([H])[H])c(C([H])(C(=O)N4C([H])([H])C([H])([H])C([H])([H])C([H])(n5nc(-c6c([H])c([H])c(Oc7c([H])c([H])c(F)c([H])c7F)c([H])c6[H])c(C(=O)N([H])[H])c5N([H])[H])C4([H])[H])C([H])([H])[H])[n+]3[H])(C([H])([H])[H])C([H])([H])C([H])([H])[H])c([H])c([H])c2C1([H])[H]

$$$$
35:0:0
     RDKit          3D

101109  0  0  1  0  0  0  0  0999 V2000
  -29.4330  -22.0950   19.1700 C   0  0  0  0  0  2  0  0  0  0  0  0
  -27.9700  -23.9700   18.1240 C   0  0  0  0  0  0  0  0  0  0  0  0
  -28.8740  -25.3760   16.5340 C   0  0  0  0  0  0  0  0  0  0  0  0
  -29.1790  -23.2140   18.1560 C   0  0  0  0  0  0  0  0  0  0  0  0
  -30.0960  -24.6570   16.5820 C   0  0  0  0  0  0  0  0  0  0  0  0
  -26.7880  -23.7480   19.0560 C   0  0  0  0  0  1  0  0  0  0  0  0
  -28.6670  -26.6200   15.6910 C   0  0  0  0  0  1  0  0  0  0  0  0
  -27.8110  -25.0160   17.2840 N   0  0  0  0  0  0  0  0  0  0  0  0
  -30.2330  -23.5570   17.3710 N   0  0  0  0  0  0  0  0  0  0  0  0
  -31.3420  -25.1450   15.8550 C   0  0  0  0  0  2  0  0  0  0  0  0
  -31.1970  -26.5280   15.1560 C   0  0  0  0  0  2  0  0  0  0  0  0
  -32.9870  -27.5660   16.4870 C   0  0  0  0  0  0  0  0  0  0  0  0
  -34.5240  -28.3790   18.2370 C   0  0  0  0  0  2  0  0  0  0  0  0
  -34.6820  -27.3910   19.4060 C   0  0  0  0  0  2  0  0  0  0  0  0
  -33.5900  -27.6170   20.4650 C   0  0  0  0  0  2  0  0  0  0  0  0
  -32.1710  -27.6840   19.8470 C   0  0  0  0  0  3  0  0  0  0  0  0
  -32.1310  -28.6190   18.6210 C   0  0  0  0  0  2  0  0  0  0  0  0
  -33.1800  -28.2240   17.6640 N   0  0  0  0  0  0  0  0  0  0  0  0
  -33.8810  -26.9130   15.9400 O   0  0  0  0  0  0  0  0  0  0  0  0
  -31.7540  -27.6710   15.9240 N   0  0  0  0  0  0  0  0  0  0  0  0
  -29.8230  -27.7360   20.9020 C   0  0  0  0  0  0  0  0  0  0  0  0
  -29.3510  -28.2800   22.0650 C   0  0  0  0  0  0  0  0  0  0  0  0
  -30.4680  -28.9270   22.6770 C   0  0  0  0  0  0  0  0  0  0  0  0
  -31.1680  -28.0640   20.8420 N   0  0  0  0  0  0  0  0  0  0  0  0
  -31.5390  -28.8320   21.8990 N   0  0  0  0  0  0  0  0  0  0  0  0
  -30.5890  -29.5800   23.9860 C   0  0  0  0  0  0  0  0  0  0  0  0
  -30.8510  -30.9640   24.0900 C   0  0  0  0  0  3  0  0  0  0  0  0
  -30.9530  -31.5800   25.3560 C   0  0  0  0  0  3  0  0  0  0  0  0
  -30.7860  -30.8120   26.5330 C   0  0  0  0  0  0  0  0  0  0  0  0
  -30.5500  -29.4310   26.4250 C   0  0  0  0  0  3  0  0  0  0  0  0
  -30.4540  -28.8180   25.1630 C   0  0  0  0  0  3  0  0  0  0  0  0
  -30.8860  -31.3190   27.8080 O   0  0  0  0  0  0  0  0  0  0  0  0
  -30.3540  -32.5370   28.1470 C   0  0  0  0  0  0  0  0  0  0  0  0
  -29.0080  -32.8660   27.8810 C   0  0  0  0  0  3  0  0  0  0  0  0
  -28.4830  -34.0980   28.3190 C   0  0  0  0  0  3  0  0  0  0  0  0
  -29.3030  -35.0040   29.0200 C   0  0  0  0  0  0  0  0  0  0  0  0
  -30.6440  -34.6770   29.2860 C   0  0  0  0  0  3  0  0  0  0  0  0
  -31.1670  -33.4460   28.8550 C   0  0  0  0  0  0  0  0  0  0  0  0
  -32.4540  -33.1270   29.1370 F   0  0  0  0  0  0  0  0  0  0  0  0
  -28.8000  -36.1870   29.4400 F   0  0  0  0  0  0  0  0  0  0  0  0
  -27.9700  -28.1270   22.6300 C   0  0  0  0  0  0  0  0  0  0  0  0
  -27.4790  -29.1450   23.3290 N   0  0  0  0  0  0  0  0  0  0  0  0
  -27.2960  -27.1220   22.4150 O   0  0  0  0  0  0  0  0  0  0  0  0
  -28.0220  -29.9810   23.4800 H   0  0  0  0  0  0  0  0  0  0  0  0
  -26.5490  -29.0860   23.7180 H   0  0  0  0  0  0  0  0  0  0  0  0
  -29.2200  -26.9720   19.9070 N   0  0  0  0  0  0  0  0  0  0  0  0
  -28.2490  -26.6830   19.9780 H   0  0  0  0  0  0  0  0  0  0  0  0
  -29.7040  -26.5430   19.1300 H   0  0  0  0  0  0  0  0  0  0  0  0
  -31.7790  -29.2760   13.9910 C   0  0  0  0  0  1  0  0  0  0  0  0
  -29.8400  -29.3130   15.6560 C   0  0  0  0  0  1  0  0  0  0  0  0
  -31.3370  -29.0120   15.4410 C   0  0  0  0  0  3  0  0  0  0  0  0
  -28.6450  -20.7670   18.9670 C   0  0  0  0  0  2  0  0  0  0  0  0
  -28.6570  -18.6990   20.4030 C   0  0  0  0  0  1  0  0  0  0  0  0
  -29.4190  -19.4170   19.2500 C   0  0  2  0  0  0  0  0  0  0  0  0
  -31.1050  -21.1010   20.2940 C   0  0  0  0  0  1  0  0  0  0  0  0
  -31.9420  -19.6190   18.5130 C   0  0  0  0  0  1  0  0  0  0  0  0
  -30.9480  -19.6790   19.6970 C   0  0  2  0  0  0  0  0  0  0  0  0
  -31.5110  -18.6970   20.7800 C   0  0  0  0  0  2  0  0  0  0  0  0
  -30.6620  -17.5600   20.9140 O   0  0  0  0  0  0  0  0  0  0  0  0
  -34.5500  -12.2100   18.1140 C   0  0  0  0  0  0  0  0  0  0  0  0
  -31.1730  -16.2850   20.9580 C   0  0  0  0  0  0  0  0  0  0  0  0
  -33.1310  -11.6500   20.0650 C   0  0  0  0  0  3  0  0  0  0  0  0
  -32.1070  -13.6370   21.2890 C   0  0  0  0  0  0  0  0  0  0  0  0
  -34.0340  -14.0200   19.7460 C   0  0  0  0  0  2  0  0  0  0  0  0
  -32.7930  -14.5250   20.4500 C   0  0  0  0  0  0  0  0  0  0  0  0
  -32.3370  -15.8520   20.2800 C   0  0  0  0  0  3  0  0  0  0  0  0
  -30.4930  -15.3790   21.7970 C   0  0  0  0  0  3  0  0  0  0  0  0
  -30.9480  -14.0580   21.9640 C   0  0  0  0  0  3  0  0  0  0  0  0
  -32.6720  -12.2410   21.4240 C   0  0  0  0  0  2  0  0  0  0  0  0
  -33.9170  -12.6300   19.2460 N   0  0  0  0  0  0  0  0  0  0  0  0
  -34.5280  -11.0200   17.7710 O   0  0  0  0  0  0  0  0  0  0  0  0
  -31.8930  -11.0930   19.3260 C   0  0  0  0  0  0  0  0  0  0  0  0
  -30.8570  -10.7220   20.0970 N   0  0  0  0  0  0  0  0  0  0  0  0
  -31.8650  -11.0310   18.0940 O   0  0  0  0  0  0  0  0  0  0  0  0
  -30.9640  -10.7950   21.0990 H   0  0  0  0  0  0  0  0  0  0  0  0
  -27.3220  -10.5820   20.8380 C   0  0  0  0  0  0  0  0  0  0  0  0
  -29.5710  -10.2090   19.6210 C   0  0  0  0  0  3  0  0  0  0  0  0
  -28.9960  -11.1010   18.4980 C   0  0  0  0  0  2  0  0  0  0  0  0
  -28.0430  -12.1830   19.0140 C   0  0  0  0  0  2  0  0  0  0  0  0
  -26.8650  -11.5510   19.7590 C   0  0  0  0  0  2  0  0  0  0  0  0
  -28.5990   -9.9660   20.7810 C   0  0  0  0  0  0  0  0  0  0  0  0
  -28.9900   -9.1010   21.8270 C   0  0  0  0  0  3  0  0  0  0  0  0
  -28.1300   -8.8500   22.9120 C   0  0  0  0  0  3  0  0  0  0  0  0
  -26.8600   -9.4500   22.9570 C   0  0  0  0  0  3  0  0  0  0  0  0
  -26.4570  -10.3110   21.9190 C   0  0  0  0  0  3  0  0  0  0  0  0
  -35.3540  -13.1970   17.2110 C   0  0  0  0  0  3  0  0  0  0  0  0
  -34.4750  -13.8710   16.0870 C   0  0  1  0  0  0  0  0  0  0  0  0
  -33.6640  -12.8620   15.2440 C   0  0  0  0  0  1  0  0  0  0  0  0
  -33.4780  -14.8790   16.7050 C   0  0  0  0  0  1  0  0  0  0  0  0
  -35.3810  -14.6780   15.1270 C   0  0  0  0  0  1  0  0  0  0  0  0
  -36.4700  -12.4460   16.6230 N   0  0  0  0  0  0  0  0  0  0  0  0
  -37.7320  -12.4760   17.0740 C   0  0  0  0  0  0  0  0  0  0  0  0
  -38.0950  -13.2090   17.9980 O   0  0  0  0  0  0  0  0  0  0  0  0
  -36.2370  -11.7840   15.8960 H   0  0  0  0  0  0  0  0  0  0  0  0
  -38.9590  -10.2890   17.2500 C   0  0  0  0  0  1  0  0  0  0  0  0
  -38.7520  -11.5460   16.3910 C   0  0  0  0  0  3  0  0  0  0  0  0
  -39.9940  -13.2280   15.1040 C   0  0  0  0  0  1  0  0  0  0  0  0
  -40.0570  -12.1930   16.1330 N   0  0  0  0  0  0  0  0  0  0  0  0
  -40.7490  -11.5060   15.8480 H   0  0  0  0  0  0  0  0  0  0  0  0
  -27.9140  -18.0320   17.5420 C   0  0  0  0  0  1  0  0  0  0  0  0
  -29.3200  -18.4610   18.0140 C   0  0  0  0  0  2  0  0  0  0  0  0
  2  4  1  0
  2  6  1  0
  3  5  2  0
  3  8  1  0
  4  1  1  0
  5  9  1  0
  7  3  1  0
  8  2  2  0
  9  4  2  0
 10  5  1  0
 11 10  1  0
 11 20  1  0
 12 18  1  0
 13 14  1  0
 14 15  1  0
 16 17  1  0
 16 15  1  0
 16 24  1  0
 18 13  1  0
 18 17  1  0
 19 12  2  0
 20 12  1  0
 21 22  2  0
 22 41  1  0
 22 23  1  0
 23 26  1  0
 24 21  1  0
 24 25  1  0
 25 23  2  0
 26 27  2  0
 26 31  1  0
 27 28  1  0
 28 29  2  0
 29 32  1  0
 30 29  1  0
 31 30  2  0
 32 33  1  0
 33 38  1  0
 34 33  2  0
 34 35  1  0
 35 36  2  0
 36 37  1  0
 36 40  1  0
 38 39  1  0
 38 37  2  0
 41 42  1  0
 42 44  1  0
 42 45  1  0
 43 41  2  0
 46 47  1  0
 46 21  1  0
 48 46  1  0
 49 51  1  0
 51 50  1  0
 51 20  1  0
 52  1  1  0
 52 54  1  0
 54 57  1  0
 54 53  1  1
 57 56  1  6
 57 55  1  0
 57 58  1  0
 58 59  1  0
 59 61  1  0
 60 70  1  0
 61 67  1  0
 62 72  1  0
 62 69  1  0
 63 69  1  0
 63 68  1  0
 64 65  1  0
 65 63  2  0
 66 65  1  0
 66 61  2  0
 67 68  2  0
 70 64  1  0
 70 62  1  0
 71 60  2  0
 72 73  1  0
 73 75  1  0
 74 72  2  0
 76 85  1  0
 77 73  1  0
 77 81  1  0
 78 79  1  0
 78 77  1  0
 79 80  1  0
 80 76  1  0
 81 76  2  0
 81 82  1  0
 82 83  2  0
 83 84  1  0
 85 84  2  0
 86 60  1  0
 87 89  1  1
 87 86  1  0
 88 87  1  0
 90 87  1  0
 91 92  1  0
 91 86  1  0
 92 93  2  0
 94 91  1  0
 96 92  1  0
 96 95  1  0
 97 98  1  0
 98 96  1  0
 99 98  1  0
100101  1  0
101 54  1  0
M  ISO  4  12 100  20 100  58 101  59 101
M  END
>  <TORSDO>  (34) 
F 25

>  <SCORE>  (34) 
-4.562

>  <name>  (34) 
35

>  <ligand_id>  (34) 
35

>  <original_smiles>  (34) 
[H]c1c([H])c([H])c2c(c1[H])C([H])([H])C([H])([H])C([H])([H])C2([H])N([H])C(=O)C1([H])N(C(=O)C([H])(N([H])C(=O)C([H])(N([H])C([H])([H])[H])C([H])([H])[H])C(C([H])([H])[H])(C([H])([H])[H])C([H])([H])[H])C([H])([H])c2c([H])c(OC([H])([H])C(C([H])([H])[H])(C([H])([H])[H])C(C([H])([H])[H])(C([H])([H])C([H])([H])[H])C([H])([H])C([H])([H])c3nc(C([H])([H])C([H])([H])N(C(=O)N4C([H])([H])C([H])([H])C([H])([H])C([H])(n5nc(-c6c([H])c([H])c(Oc7c([H])c([H])c(F)c([H])c7F)c([H])c6[H])c(C(=O)N([H])[H])c5N([H])[H])C4([H])[H])C([H])(C([H])([H])[H])C([H])([H])[H])c(C([H])([H])[H])nc3C([H])([H])[H])c([H])c([H])c2C1([H])[H]

>  <smiles>  (34) 
[H]c1c([H])c([H])c2c(c1[H])C([H])([H])C([H])([H])C([H])([H])C2([H])N([H])C(=O)C1([H])N(C(=O)C([H])(N([H])C(=O)C([H])(N([H])C([H])([H])[H])C([H])([H])[H])C(C([H])([H])[H])(C([H])([H])[H])C([H])([H])[H])C([H])([H])c2c([H])c(OC([H])([H])C(C([H])([H])[H])(C([H])([H])[H])C(C([H])([H])[H])(C([H])([H])C([H])([H])[H])C([H])([H])C([H])([H])c3nc(C([H])([H])C([H])([H])N(C(=O)N4C([H])([H])C([H])([H])C([H])([H])C([H])(n5nc(-c6c([H])c([H])c(Oc7c([H])c([H])c(F)c([H])c7F)c([H])c6[H])c(C(=O)N([H])[H])c5N([H])[H])C4([H])[H])C([H])(C([H])([H])[H])C([H])([H])[H])c(C([H])([H])[H])nc3C([H])([H])[H])c([H])c([H])c2C1([H])[H]

$$$$
36:0:0
     RDKit          3D

 98106  0  0  1  0  0  0  0  0999 V2000
  -30.2810  -20.4870   21.0860 C   0  0  0  0  0  3  0  0  0  0  0  0
  -28.6990  -19.3030   19.2940 C   0  0  0  0  0  3  0  0  0  0  0  0
  -29.4420  -21.3140   20.2650 C   0  0  0  0  0  0  0  0  0  0  0  0
  -29.6160  -18.4860   20.0310 C   0  0  0  0  0  0  0  0  0  0  0  0
  -28.6140  -20.6640   19.4030 N   0  0  0  0  0  0  0  0  0  0  0  0
  -30.3690  -19.1140   20.9810 N   0  0  0  0  0  0  0  0  0  0  0  0
  -30.7330  -23.3980   21.0070 C   0  0  0  0  0  1  0  0  0  0  0  0
  -29.9080  -23.2700   18.7070 C   0  0  0  0  0  1  0  0  0  0  0  0
  -29.5230  -22.9180   20.1650 C   0  0  1  0  0  0  0  0  0  0  0  0
  -27.0990  -23.6670   19.5290 C   0  0  0  0  0  1  0  0  0  0  0  0
  -27.6300  -23.1050   21.8680 C   0  0  0  0  0  1  0  0  0  0  0  0
  -28.2050  -23.7850   20.5970 C   0  0  1  0  0  0  0  0  0  0  0  0
  -28.3370  -25.3620   20.9950 C   0  0  0  0  0  2  0  0  0  0  0  0
  -28.3070  -26.5120   20.0650 O   0  0  0  0  0  0  0  0  0  0  0  0
  -24.5960  -31.8760   23.2380 C   0  0  0  0  0  0  0  0  0  0  0  0
  -27.1940  -27.3650   20.1110 C   0  0  0  0  0  0  0  0  0  0  0  0
  -23.3820  -30.4960   21.5880 C   0  0  0  0  0  3  0  0  0  0  0  0
  -24.8290  -28.9640   20.1380 C   0  0  0  0  0  0  0  0  0  0  0  0
  -25.9190  -30.8210   21.3960 C   0  0  0  0  0  2  0  0  0  0  0  0
  -25.9980  -29.4490   20.7380 C   0  0  0  0  0  0  0  0  0  0  0  0
  -27.1860  -28.6580   20.7200 C   0  0  0  0  0  3  0  0  0  0  0  0
  -26.0060  -26.9370   19.4840 C   0  0  0  0  0  3  0  0  0  0  0  0
  -24.8310  -27.7130   19.5050 C   0  0  0  0  0  3  0  0  0  0  0  0
  -23.5900  -29.8360   20.2000 C   0  0  0  0  0  2  0  0  0  0  0  0
  -24.6520  -31.0800   22.1320 N   0  0  0  0  0  0  0  0  0  0  0  0
  -23.5160  -32.1450   23.7840 O   0  0  0  0  0  0  0  0  0  0  0  0
  -22.7260  -29.4680   22.5400 C   0  0  0  0  0  0  0  0  0  0  0  0
  -21.4000  -29.2910   22.4170 N   0  0  0  0  0  0  0  0  0  0  0  0
  -23.4090  -28.8310   23.3460 O   0  0  0  0  0  0  0  0  0  0  0  0
  -20.9070  -29.8570   21.7390 H   0  0  0  0  0  0  0  0  0  0  0  0
  -18.0250  -28.0930   22.9260 C   0  0  0  0  0  0  0  0  0  0  0  0
  -20.5850  -28.3450   23.1820 C   0  0  0  0  0  3  0  0  0  0  0  0
  -20.6820  -26.9210   22.5880 C   0  0  0  0  0  2  0  0  0  0  0  0
  -19.5730  -26.6130   21.5770 C   0  0  0  0  0  2  0  0  0  0  0  0
  -18.1960  -26.7520   22.2320 C   0  0  0  0  0  2  0  0  0  0  0  0
  -19.1470  -28.8490   23.3580 C   0  0  0  0  0  0  0  0  0  0  0  0
  -18.9340  -30.1040   23.9670 C   0  0  0  0  0  3  0  0  0  0  0  0
  -17.6310  -30.6050   24.1470 C   0  0  0  0  0  3  0  0  0  0  0  0
  -16.5240  -29.8470   23.7310 C   0  0  0  0  0  3  0  0  0  0  0  0
  -16.7210  -28.5930   23.1260 C   0  0  0  0  0  3  0  0  0  0  0  0
  -25.8830  -32.4990   23.8600 C   0  0  0  0  0  3  0  0  0  0  0  0
  -25.5830  -33.8980   24.1920 N   0  0  0  0  0  0  0  0  0  0  0  0
  -25.9190  -34.9500   23.4320 C   0  0  0  0  0  0  0  0  0  0  0  0
  -26.5830  -34.8440   22.3970 O   0  0  0  0  0  0  0  0  0  0  0  0
  -24.9910  -34.0560   24.9930 H   0  0  0  0  0  0  0  0  0  0  0  0
  -24.2020  -36.7570   23.0840 C   0  0  0  0  0  1  0  0  0  0  0  0
  -25.4420  -36.3400   23.8920 C   0  0  0  0  0  3  0  0  0  0  0  0
  -27.5800  -37.2140   24.7250 C   0  0  0  0  0  1  0  0  0  0  0  0
  -26.4800  -37.3870   23.7800 N   0  0  0  0  0  0  0  0  0  0  0  0
  -26.0800  -38.3100   23.9270 H   0  0  0  0  0  0  0  0  0  0  0  0
  -26.3980  -31.7230   25.1360 C   0  0  1  0  0  0  0  0  0  0  0  0
  -25.3050  -31.4920   26.2040 C   0  0  0  0  0  1  0  0  0  0  0  0
  -26.9700  -30.3400   24.7430 C   0  0  0  0  0  1  0  0  0  0  0  0
  -27.5530  -32.5090   25.7980 C   0  0  0  0  0  1  0  0  0  0  0  0
  -28.9750  -16.5480   18.4730 C   0  0  0  0  0  1  0  0  0  0  0  0
  -29.9810  -16.9920   19.5720 C   0  0  2  0  0  0  0  0  0  0  0  0
  -30.6680  -14.7080   20.6240 C   0  0  0  0  0  0  0  0  0  0  0  0
  -30.4700  -12.4100   19.7170 C   0  0  0  0  0  2  0  0  0  0  0  0
  -29.6000  -12.4550   18.4420 C   0  0  0  0  0  2  0  0  0  0  0  0
  -28.1060  -12.3360   18.7990 C   0  0  0  0  0  2  0  0  0  0  0  0
  -27.6770  -13.2470   19.9790 C   0  0  0  0  0  3  0  0  0  0  0  0
  -28.6850  -13.2010   21.1520 C   0  0  0  0  0  2  0  0  0  0  0  0
  -30.0160  -13.4990   20.6090 N   0  0  0  0  0  0  0  0  0  0  0  0
  -31.8770  -14.7510   20.4130 O   0  0  0  0  0  0  0  0  0  0  0  0
  -29.8990  -15.8460   20.5780 N   0  0  0  0  0  0  0  0  0  0  0  0
  -28.9740  -15.7220   20.9550 H   0  0  0  0  0  0  0  0  0  0  0  0
  -25.2580  -13.8420   20.5940 C   0  0  0  0  0  0  0  0  0  0  0  0
  -24.1800  -13.0700   20.9270 C   0  0  0  0  0  0  0  0  0  0  0  0
  -24.6480  -11.7200   20.9380 C   0  0  0  0  0  0  0  0  0  0  0  0
  -26.3140  -12.9630   20.4170 N   0  0  0  0  0  0  0  0  0  0  0  0
  -25.9510  -11.6840   20.6860 N   0  0  0  0  0  0  0  0  0  0  0  0
  -23.9160  -10.4590   21.1140 C   0  0  0  0  0  0  0  0  0  0  0  0
  -24.3150   -9.5000   22.0710 C   0  0  0  0  0  3  0  0  0  0  0  0
  -23.5860   -8.3020   22.2340 C   0  0  0  0  0  3  0  0  0  0  0  0
  -22.4450   -8.0530   21.4350 C   0  0  0  0  0  0  0  0  0  0  0  0
  -22.0640   -8.9990   20.4680 C   0  0  0  0  0  3  0  0  0  0  0  0
  -22.7940  -10.1890   20.3050 C   0  0  0  0  0  3  0  0  0  0  0  0
  -21.6900   -6.9080   21.5060 O   0  0  0  0  0  0  0  0  0  0  0  0
  -21.6040   -6.1690   22.6600 C   0  0  0  0  0  0  0  0  0  0  0  0
  -21.1260   -6.7270   23.8650 C   0  0  0  0  0  3  0  0  0  0  0  0
  -20.9910   -5.9170   25.0110 C   0  0  0  0  0  3  0  0  0  0  0  0
  -21.3210   -4.5490   24.9490 C   0  0  0  0  0  0  0  0  0  0  0  0
  -21.7920   -3.9910   23.7470 C   0  0  0  0  0  3  0  0  0  0  0  0
  -21.9290   -4.7990   22.6050 C   0  0  0  0  0  0  0  0  0  0  0  0
  -22.3640   -4.2510   21.4450 F   0  0  0  0  0  0  0  0  0  0  0  0
  -21.1810   -3.7680   26.0450 F   0  0  0  0  0  0  0  0  0  0  0  0
  -22.7720  -13.5430   21.1270 C   0  0  0  0  0  0  0  0  0  0  0  0
  -22.0100  -12.8520   21.9680 N   0  0  0  0  0  0  0  0  0  0  0  0
  -22.3530  -14.5590   20.5750 O   0  0  0  0  0  0  0  0  0  0  0  0
  -22.3650  -12.0310   22.4330 H   0  0  0  0  0  0  0  0  0  0  0  0
  -21.0580  -13.1430   22.1440 H   0  0  0  0  0  0  0  0  0  0  0  0
  -25.4280  -15.2120   20.4030 N   0  0  0  0  0  0  0  0  0  0  0  0
  -24.6480  -15.8570   20.4480 H   0  0  0  0  0  0  0  0  0  0  0  0
  -26.2780  -15.6420   20.0630 H   0  0  0  0  0  0  0  0  0  0  0  0
  -31.3740  -17.0900   18.8480 C   0  0  2  0  0  0  0  0  0  0  0  0
  -32.3780  -17.2870   19.7050 F   0  0  0  0  0  0  0  0  0  0  0  0
  -31.3730  -18.1280   18.0090 F   0  0  0  0  0  0  0  0  0  0  0  0
  -31.6480  -16.0230   18.0900 F   0  0  0  0  0  0  0  0  0  0  0  0
  2  5  2  0
  2  4  1  0
  3  1  2  0
  4  6  2  0
  5  3  1  0
  6  1  1  0
  9  8  1  6
  9  3  1  0
  9 12  1  0
  9  7  1  0
 12 10  1  6
 12 13  1  0
 12 11  1  0
 14 16  1  0
 14 13  1  0
 15 26  2  0
 16 21  1  0
 17 25  1  0
 17 27  1  0
 18 24  1  0
 18 20  1  0
 19 25  1  0
 20 19  1  0
 21 20  2  0
 22 23  1  0
 22 16  2  0
 23 18  2  0
 24 17  1  0
 25 15  1  0
 27 29  2  0
 28 27  1  0
 30 28  1  0
 31 40  2  0
 31 36  1  0
 32 28  1  0
 32 36  1  0
 33 32  1  0
 34 35  1  0
 34 33  1  0
 35 31  1  0
 36 37  2  0
 37 38  1  0
 39 38  2  0
 40 39  1  0
 41 15  1  0
 41 42  1  0
 41 51  1  0
 42 45  1  0
 43 47  1  0
 43 42  1  0
 44 43  2  0
 47 46  1  0
 49 47  1  0
 49 50  1  0
 49 48  1  0
 51 54  1  1
 51 52  1  0
 53 51  1  0
 56 55  1  6
 56  4  1  0
 56 65  1  0
 58 63  1  0
 59 60  1  0
 59 58  1  0
 61 60  1  0
 61 70  1  0
 61 62  1  0
 63 57  1  0
 63 62  1  0
 64 57  2  0
 65 57  1  0
 65 66  1  0
 67 68  2  0
 68 69  1  0
 68 87  1  0
 69 72  1  0
 70 67  1  0
 70 71  1  0
 71 69  2  0
 72 73  1  0
 73 74  2  0
 75 78  1  0
 75 74  1  0
 76 75  2  0
 77 76  1  0
 77 72  2  0
 78 79  1  0
 79 80  1  0
 80 81  2  0
 82 81  1  0
 82 86  1  0
 83 82  2  0
 84 79  2  0
 84 83  1  0
 85 84  1  0
 87 88  1  0
 88 91  1  0
 88 90  1  0
 89 87  2  0
 92 93  1  0
 92 67  1  0
 94 92  1  0
 95 56  1  0
 95 96  1  1
 97 95  1  0
 98 95  1  0
M  ISO  4  13 101  14 101  57 100  65 100
M  END
>  <TORSDO>  (35) 
F 21

>  <SCORE>  (35) 
-13.528

>  <name>  (35) 
36

>  <ligand_id>  (35) 
36

>  <original_smiles>  (35) 
[H]c1nc(C(C([H])([H])[H])(C([H])([H])[H])C(C([H])([H])[H])(C([H])([H])[H])C([H])([H])Oc2c([H])c([H])c3c(c2[H])C([H])([H])N(C(=O)C([H])(N([H])C(=O)C([H])(N([H])C([H])([H])[H])C([H])([H])[H])C(C([H])([H])[H])(C([H])([H])[H])C([H])([H])[H])C([H])(C(=O)N([H])C2([H])c4c([H])c([H])c([H])c([H])c4C([H])([H])C([H])([H])C2([H])[H])C3([H])[H])c([H])nc1C(N([H])C(=O)N1C([H])([H])C([H])([H])C([H])([H])C([H])(n2nc(-c3c([H])c([H])c(Oc4c([H])c([H])c(F)c([H])c4F)c([H])c3[H])c(C(=O)N([H])[H])c2N([H])[H])C1([H])[H])(C([H])([H])[H])C(F)(F)F

>  <smiles>  (35) 
[H]c1nc(C(C([H])([H])[H])(C([H])([H])[H])C(C([H])([H])[H])(C([H])([H])[H])C([H])([H])Oc2c([H])c([H])c3c(c2[H])C([H])([H])N(C(=O)C([H])(N([H])C(=O)C([H])(N([H])C([H])([H])[H])C([H])([H])[H])C(C([H])([H])[H])(C([H])([H])[H])C([H])([H])[H])C([H])(C(=O)N([H])C2([H])c4c([H])c([H])c([H])c([H])c4C([H])([H])C([H])([H])C2([H])[H])C3([H])[H])c([H])nc1C(N([H])C(=O)N1C([H])([H])C([H])([H])C([H])([H])C([H])(n2nc(-c3c([H])c([H])c(Oc4c([H])c([H])c(F)c([H])c4F)c([H])c3[H])c(C(=O)N([H])[H])c2N([H])[H])C1([H])[H])(C([H])([H])[H])C(F)(F)F

$$$$
37:0:0
     RDKit          3D

101109  0  0  1  0  0  0  0  0999 V2000
  -29.9040  -22.3340   18.3060 C   0  0  0  0  0  1  0  0  0  0  0  0
  -30.5330  -22.3650   19.7200 C   0  0  2  0  0  0  0  0  0  0  0  0
  -30.1110  -19.5900   19.4910 C   0  0  0  0  0  3  0  0  0  0  0  0
  -30.6270  -18.3230   20.0510 C   0  0  0  0  0  0  0  0  0  0  0  0
  -30.6150  -20.7500   20.1220 C   0  0  0  0  0  0  0  0  0  0  0  0
  -31.4180  -18.7260   21.0490 N   0  0  0  0  0  0  0  0  0  0  0  0
  -31.4380  -20.1230   21.0720 N   0  0  0  0  0  0  0  0  0  0  0  0
  -30.1770  -16.6480   18.2210 C   0  0  0  0  0  1  0  0  0  0  0  0
  -28.6040  -16.8910   20.0520 C   0  0  0  0  0  1  0  0  0  0  0  0
  -30.0960  -16.7710   19.7690 C   0  0  2  0  0  0  0  0  0  0  0  0
  -30.6780  -15.2500   20.2690 C   0  0  0  0  0  0  0  0  0  0  0  0
  -30.4490  -12.9340   19.2570 C   0  0  0  0  0  2  0  0  0  0  0  0
  -29.4780  -12.9270   18.0580 C   0  0  0  0  0  2  0  0  0  0  0  0
  -28.0360  -12.6590   18.5330 C   0  0  0  0  0  2  0  0  0  0  0  0
  -27.6470  -13.5290   19.7540 C   0  0  0  0  0  3  0  0  0  0  0  0
  -28.7540  -13.5930   20.8300 C   0  0  0  0  0  2  0  0  0  0  0  0
  -30.0090  -14.0170   20.1840 N   0  0  0  0  0  0  0  0  0  0  0  0
  -31.9110  -15.1440   20.2790 O   0  0  0  0  0  0  0  0  0  0  0  0
  -25.3030  -14.1010   20.5850 C   0  0  0  0  0  0  0  0  0  0  0  0
  -24.2430  -13.3160   20.9390 C   0  0  0  0  0  0  0  0  0  0  0  0
  -24.7070  -11.9690   20.8510 C   0  0  0  0  0  0  0  0  0  0  0  0
  -26.3360  -13.2240   20.2950 N   0  0  0  0  0  0  0  0  0  0  0  0
  -25.9910  -11.9350   20.5230 N   0  0  0  0  0  0  0  0  0  0  0  0
  -23.9870  -10.7030   21.0010 C   0  0  0  0  0  0  0  0  0  0  0  0
  -24.4560   -9.6880   21.8630 C   0  0  0  0  0  3  0  0  0  0  0  0
  -23.7360   -8.4840   22.0060 C   0  0  0  0  0  3  0  0  0  0  0  0
  -22.5330   -8.2900   21.2870 C   0  0  0  0  0  0  0  0  0  0  0  0
  -22.0830   -9.2940   20.4130 C   0  0  0  0  0  3  0  0  0  0  0  0
  -22.8040  -10.4900   20.2670 C   0  0  0  0  0  3  0  0  0  0  0  0
  -21.7780   -7.1430   21.3460 O   0  0  0  0  0  0  0  0  0  0  0  0
  -21.6870   -6.4030   22.4980 C   0  0  0  0  0  0  0  0  0  0  0  0
  -21.1840   -6.9520   23.6970 C   0  0  0  0  0  3  0  0  0  0  0  0
  -21.0430   -6.1380   24.8390 C   0  0  0  0  0  3  0  0  0  0  0  0
  -21.3920   -4.7750   24.7800 C   0  0  0  0  0  0  0  0  0  0  0  0
  -21.8890   -4.2270   23.5850 C   0  0  0  0  0  3  0  0  0  0  0  0
  -22.0320   -5.0380   22.4460 C   0  0  0  0  0  0  0  0  0  0  0  0
  -22.4910   -4.4990   21.2910 F   0  0  0  0  0  0  0  0  0  0  0  0
  -21.2470   -3.9900   25.8730 F   0  0  0  0  0  0  0  0  0  0  0  0
  -22.8510  -13.7870   21.2410 C   0  0  0  0  0  0  0  0  0  0  0  0
  -22.1470  -13.0840   22.1210 N   0  0  0  0  0  0  0  0  0  0  0  0
  -22.3960  -14.8110   20.7340 O   0  0  0  0  0  0  0  0  0  0  0  0
  -22.5280  -12.2560   22.5570 H   0  0  0  0  0  0  0  0  0  0  0  0
  -21.2120  -13.3810   22.3660 H   0  0  0  0  0  0  0  0  0  0  0  0
  -25.4570  -15.4780   20.4540 N   0  0  0  0  0  0  0  0  0  0  0  0
  -24.6870  -16.1200   20.6160 H   0  0  0  0  0  0  0  0  0  0  0  0
  -26.3010  -15.9420   20.1480 H   0  0  0  0  0  0  0  0  0  0  0  0
  -31.9580  -20.5100   23.4740 C   0  0  0  0  0  1  0  0  0  0  0  0
  -32.3470  -20.7620   22.0100 C   0  0  0  0  0  2  0  0  0  0  0  0
  -28.4180  -22.9570   21.1730 C   0  0  0  0  0  1  0  0  0  0  0  0
  -29.6630  -23.5920   20.5320 C   0  0  0  0  0  3  0  0  0  0  0  0
  -29.1710  -25.0700   19.8510 C   0  0  0  0  0  2  0  0  0  0  0  0
  -28.9600  -26.4730   20.4730 O   0  0  0  0  0  0  0  0  0  0  0  0
  -24.8550  -31.7940   23.3730 C   0  0  0  0  0  0  0  0  0  0  0  0
  -27.8350  -27.3560   20.3190 C   0  0  0  0  0  0  0  0  0  0  0  0
  -23.8130  -30.4110   21.6140 C   0  0  0  0  0  3  0  0  0  0  0  0
  -25.4140  -28.9650   20.2130 C   0  0  0  0  0  0  0  0  0  0  0  0
  -26.3530  -30.8110   21.6010 C   0  0  0  0  0  2  0  0  0  0  0  0
  -26.5300  -29.4530   20.9050 C   0  0  0  0  0  0  0  0  0  0  0  0
  -27.7340  -28.6610   20.9440 C   0  0  0  0  0  3  0  0  0  0  0  0
  -26.6910  -26.9600   19.5920 C   0  0  0  0  0  3  0  0  0  0  0  0
  -25.5080  -27.7340   19.5420 C   0  0  0  0  0  3  0  0  0  0  0  0
  -24.1390  -29.7950   20.2260 C   0  0  0  0  0  2  0  0  0  0  0  0
  -25.0230  -31.0260   22.2540 N   0  0  0  0  0  0  0  0  0  0  0  0
  -23.7290  -32.0070   23.8490 O   0  0  0  0  0  0  0  0  0  0  0  0
  -23.1320  -29.3390   22.5010 C   0  0  0  0  0  0  0  0  0  0  0  0
  -21.8030  -29.1830   22.3620 N   0  0  0  0  0  0  0  0  0  0  0  0
  -23.8020  -28.6510   23.2760 O   0  0  0  0  0  0  0  0  0  0  0  0
  -21.3200  -29.7900   21.7160 H   0  0  0  0  0  0  0  0  0  0  0  0
  -18.4090  -28.0090   22.8240 C   0  0  0  0  0  0  0  0  0  0  0  0
  -20.9780  -28.1940   23.0600 C   0  0  0  0  0  3  0  0  0  0  0  0
  -21.0390  -26.8210   22.3530 C   0  0  0  0  0  2  0  0  0  0  0  0
  -19.9100  -26.6170   21.3360 C   0  0  0  0  0  2  0  0  0  0  0  0
  -18.5430  -26.7270   22.0190 C   0  0  0  0  0  2  0  0  0  0  0  0
  -19.5520  -28.7060   23.3000 C   0  0  0  0  0  0  0  0  0  0  0  0
  -19.3710  -29.9110   24.0140 C   0  0  0  0  0  3  0  0  0  0  0  0
  -18.0800  -30.4170   24.2550 C   0  0  0  0  0  3  0  0  0  0  0  0
  -16.9530  -29.7150   23.7950 C   0  0  0  0  0  3  0  0  0  0  0  0
  -17.1180  -28.5130   23.0860 C   0  0  0  0  0  3  0  0  0  0  0  0
  -26.0650  -32.4610   24.0960 C   0  0  0  0  0  3  0  0  0  0  0  0
  -26.5020  -31.6950   25.4060 C   0  0  1  0  0  0  0  0  0  0  0  0
  -25.3390  -31.4230   26.3890 C   0  0  0  0  0  1  0  0  0  0  0  0
  -27.1480  -30.3340   25.0600 C   0  0  0  0  0  1  0  0  0  0  0  0
  -27.5790  -32.5140   26.1580 C   0  0  0  0  0  1  0  0  0  0  0  0
  -25.6890  -33.8480   24.4160 N   0  0  0  0  0  0  0  0  0  0  0  0
  -26.0330  -34.9190   23.6900 C   0  0  0  0  0  0  0  0  0  0  0  0
  -26.7660  -34.8470   22.7010 O   0  0  0  0  0  0  0  0  0  0  0  0
  -25.0390  -33.9750   25.1780 H   0  0  0  0  0  0  0  0  0  0  0  0
  -24.2760  -36.6670   23.2480 C   0  0  0  0  0  1  0  0  0  0  0  0
  -25.4760  -36.2890   24.1310 C   0  0  0  0  0  3  0  0  0  0  0  0
  -27.5180  -37.2380   25.1130 C   0  0  0  0  0  1  0  0  0  0  0  0
  -26.4830  -37.3730   24.0910 N   0  0  0  0  0  0  0  0  0  0  0  0
  -26.0390  -38.2800   24.2060 H   0  0  0  0  0  0  0  0  0  0  0  0
  -32.0520  -22.8290   19.7510 C   0  0  0  0  0  2  0  0  0  0  0  0
  -34.3310  -23.5620   19.1020 C   0  0  0  0  0  1  0  0  0  0  0  0
  -32.9510  -22.3870   17.3880 C   0  0  0  0  0  1  0  0  0  0  0  0
  -32.8890  -23.4010   18.5500 C   0  0  1  0  0  0  0  0  0  0  0  0
  -32.3870  -24.7940   18.0710 C   0  0  0  0  0  2  0  0  0  0  0  0
  -33.1870  -25.4650   15.8080 C   0  0  0  0  0  1  0  0  0  0  0  0
  -33.4750  -26.9820   17.7080 C   0  0  0  0  0  1  0  0  0  0  0  0
  -33.3810  -25.5690   17.2760 N   0  0  1  0  0  4  0  0  0  0  0  0
  -34.2820  -25.1610   17.4840 H   0  0  0  0  0  0  0  0  0  0  0  0
  2  1  1  6
  2 93  1  0
  2  5  1  0
  2 50  1  0
  3  4  1  0
  3  5  2  0
  4  6  2  0
  5  7  1  0
  6  7  1  0
  7 48  1  0
 10  8  1  6
 10  4  1  0
 10  9  1  0
 10 11  1  0
 11 18  2  0
 12 17  1  0
 13 14  1  0
 13 12  1  0
 15 14  1  0
 15 22  1  0
 15 16  1  0
 17 11  1  0
 17 16  1  0
 19 20  2  0
 20 39  1  0
 21 20  1  0
 21 24  1  0
 22 23  1  0
 22 19  1  0
 23 21  2  0
 24 25  1  0
 25 26  2  0
 27 30  1  0
 27 26  1  0
 28 27  2  0
 29 28  1  0
 29 24  2  0
 30 31  1  0
 31 32  1  0
 32 33  2  0
 34 33  1  0
 34 38  1  0
 35 34  2  0
 36 31  2  0
 36 35  1  0
 37 36  1  0
 39 40  1  0
 40 43  1  0
 40 42  1  0
 41 39  2  0
 44 19  1  0
 44 45  1  0
 46 44  1  0
 48 47  1  0
 50 49  1  0
 51 52  1  0
 51 50  1  0
 53 64  2  0
 54 52  1  0
 54 59  1  0
 55 63  1  0
 55 65  1  0
 56 62  1  0
 56 58  1  0
 57 63  1  0
 58 59  2  0
 58 57  1  0
 60 54  2  0
 61 60  1  0
 61 56  2  0
 62 55  1  0
 63 53  1  0
 65 67  2  0
 66 65  1  0
 68 66  1  0
 69 78  2  0
 69 74  1  0
 70 66  1  0
 70 74  1  0
 71 70  1  0
 72 73  1  0
 72 71  1  0
 73 69  1  0
 74 75  2  0
 75 76  1  0
 77 76  2  0
 78 77  1  0
 79 53  1  0
 79 84  1  0
 79 80  1  0
 80 83  1  1
 80 81  1  0
 82 80  1  0
 84 87  1  0
 85 89  1  0
 85 84  1  0
 86 85  2  0
 89 88  1  0
 91 89  1  0
 91 92  1  0
 91 90  1  0
 96 95  1  6
 96 94  1  0
 96 93  1  0
 97 96  1  0
 98100  1  0
100101  1  6
100 99  1  0
100 97  1  0
M  ISO  4  10 100  11 100  51 101  52 101
M  END
>  <TORSDO>  (36) 
F 25

>  <SCORE>  (36) 
-13.133

>  <name>  (36) 
37

>  <ligand_id>  (36) 
37

>  <original_smiles>  (36) 
[H]c1c([H])c([H])c2c(c1[H])C([H])([H])C([H])([H])C([H])([H])C2([H])N([H])C(=O)C1([H])N(C(=O)C([H])(N([H])C(=O)C([H])(N([H])C([H])([H])[H])C([H])([H])[H])C(C([H])([H])[H])(C([H])([H])[H])C([H])([H])[H])C([H])([H])c2c([H])c(OC([H])([H])C([H])(C([H])([H])[H])C(c3c([H])c(C(C(=O)N4C([H])([H])C([H])([H])C([H])([H])C([H])(n5nc(-c6c([H])c([H])c(Oc7c([H])c([H])c(F)c([H])c7F)c([H])c6[H])c(C(=O)N([H])[H])c5N([H])[H])C4([H])[H])(C([H])([H])[H])C([H])([H])[H])nn3C([H])([H])C([H])([H])[H])(C([H])([H])[H])C([H])([H])C(C([H])([H])[H])(C([H])([H])[H])C([H])([H])[N+]([H])(C([H])([H])[H])C([H])([H])[H])c([H])c([H])c2C1([H])[H]

>  <smiles>  (36) 
[H]c1c([H])c([H])c2c(c1[H])C([H])([H])C([H])([H])C([H])([H])C2([H])N([H])C(=O)C1([H])N(C(=O)C([H])(N([H])C(=O)C([H])(N([H])C([H])([H])[H])C([H])([H])[H])C(C([H])([H])[H])(C([H])([H])[H])C([H])([H])[H])C([H])([H])c2c([H])c(OC([H])([H])C([H])(C([H])([H])[H])C(c3c([H])c(C(C(=O)N4C([H])([H])C([H])([H])C([H])([H])C([H])(n5nc(-c6c([H])c([H])c(Oc7c([H])c([H])c(F)c([H])c7F)c([H])c6[H])c(C(=O)N([H])[H])c5N([H])[H])C4([H])[H])(C([H])([H])[H])C([H])([H])[H])nn3C([H])([H])C([H])([H])[H])(C([H])([H])[H])C([H])([H])C(C([H])([H])[H])(C([H])([H])[H])C([H])([H])[N+]([H])(C([H])([H])[H])C([H])([H])[H])c([H])c([H])c2C1([H])[H]

$$$$
38:0:0
     RDKit          3D

 92100  0  0  1  0  0  0  0  0999 V2000
  -29.3360  -20.5340   21.5500 C   0  0  0  0  0  3  0  0  0  0  0  0
  -30.0840  -19.9650   20.4810 C   0  0  0  0  0  0  0  0  0  0  0  0
  -29.4190  -22.6900   20.5820 C   0  0  0  0  0  0  0  0  0  0  0  0
  -30.1160  -22.1050   19.4810 C   0  0  0  0  0  0  0  0  0  0  0  0
  -29.0030  -21.8670   21.5930 N   0  0  0  0  0  0  0  0  0  0  0  0
  -30.4270  -20.7760   19.4390 N   0  0  0  0  0  0  0  0  0  0  0  0
  -30.0150  -22.5900   16.9800 C   0  0  0  0  0  1  0  0  0  0  0  0
  -30.6830  -22.9190   18.3230 C   0  0  0  0  0  2  0  0  0  0  0  0
  -32.2010  -18.9060   21.2290 C   0  0  0  0  0  1  0  0  0  0  0  0
  -30.8550  -18.5920   20.5150 C   0  0  0  0  0  3  0  0  0  0  0  0
  -30.2170  -17.2020   21.0620 C   0  0  0  0  0  2  0  0  0  0  0  0
  -30.6980  -14.7050   20.3690 C   0  0  0  0  0  0  0  0  0  0  0  0
  -30.4160  -12.4420   19.3860 C   0  0  0  0  0  2  0  0  0  0  0  0
  -29.4960  -12.4990   18.1510 C   0  0  0  0  0  2  0  0  0  0  0  0
  -28.0090  -12.4220   18.5610 C   0  0  0  0  0  2  0  0  0  0  0  0
  -27.6410  -13.3140   19.7810 C   0  0  0  0  0  3  0  0  0  0  0  0
  -28.6960  -13.2410   20.9010 C   0  0  0  0  0  2  0  0  0  0  0  0
  -30.0040  -13.5240   20.3010 N   0  0  0  0  0  0  0  0  0  0  0  0
  -31.9170  -14.7220   20.1790 O   0  0  0  0  0  0  0  0  0  0  0  0
  -29.5880  -16.1940   18.8690 C   0  0  0  0  0  1  0  0  0  0  0  0
  -29.9830  -15.9000   20.2660 N   0  0  0  0  0  0  0  0  0  0  0  0
  -25.2550  -13.9110   20.5080 C   0  0  0  0  0  0  0  0  0  0  0  0
  -24.1890  -13.1380   20.8780 C   0  0  0  0  0  0  0  0  0  0  0  0
  -24.6570  -11.7880   20.8620 C   0  0  0  0  0  0  0  0  0  0  0  0
  -26.3000  -13.0300   20.2800 N   0  0  0  0  0  0  0  0  0  0  0  0
  -25.9480  -11.7500   20.5610 N   0  0  0  0  0  0  0  0  0  0  0  0
  -23.9340  -10.5250   21.0540 C   0  0  0  0  0  0  0  0  0  0  0  0
  -24.3730   -9.5550   21.9830 C   0  0  0  0  0  3  0  0  0  0  0  0
  -23.6500   -8.3570   22.1630 C   0  0  0  0  0  3  0  0  0  0  0  0
  -22.4730   -8.1190   21.4150 C   0  0  0  0  0  0  0  0  0  0  0  0
  -22.0550   -9.0770   20.4720 C   0  0  0  0  0  3  0  0  0  0  0  0
  -22.7800  -10.2660   20.2900 C   0  0  0  0  0  3  0  0  0  0  0  0
  -21.7180   -6.9750   21.5070 O   0  0  0  0  0  0  0  0  0  0  0  0
  -21.6840   -6.2260   22.6550 C   0  0  0  0  0  0  0  0  0  0  0  0
  -21.2800   -6.7750   23.8920 C   0  0  0  0  0  3  0  0  0  0  0  0
  -21.1920   -5.9510   25.0310 C   0  0  0  0  0  3  0  0  0  0  0  0
  -21.4970   -4.5800   24.9370 C   0  0  0  0  0  0  0  0  0  0  0  0
  -21.8920   -4.0310   23.7050 C   0  0  0  0  0  3  0  0  0  0  0  0
  -21.9830   -4.8510   22.5680 C   0  0  0  0  0  0  0  0  0  0  0  0
  -22.3440   -4.3130   21.3770 F   0  0  0  0  0  0  0  0  0  0  0  0
  -21.4050   -3.7860   26.0280 F   0  0  0  0  0  0  0  0  0  0  0  0
  -22.7890  -13.6130   21.1350 C   0  0  0  0  0  0  0  0  0  0  0  0
  -22.0560  -12.9220   22.0010 N   0  0  0  0  0  0  0  0  0  0  0  0
  -22.3520  -14.6320   20.6020 O   0  0  0  0  0  0  0  0  0  0  0  0
  -22.4210  -12.0970   22.4530 H   0  0  0  0  0  0  0  0  0  0  0  0
  -21.1170  -13.2270   22.2120 H   0  0  0  0  0  0  0  0  0  0  0  0
  -25.4220  -15.2810   20.3230 N   0  0  0  0  0  0  0  0  0  0  0  0
  -24.6660  -15.9500   20.4240 H   0  0  0  0  0  0  0  0  0  0  0  0
  -26.2950  -15.7110   20.0460 H   0  0  0  0  0  0  0  0  0  0  0  0
  -29.3170  -24.2430   20.8120 C   0  0  0  0  0  3  0  0  0  0  0  0
  -28.1910  -25.1070   20.1170 C   0  0  0  0  0  3  0  0  0  0  0  0
  -28.3380  -26.5680   20.2570 O   0  0  0  0  0  0  0  0  0  0  0  0
  -24.5890  -31.9090   23.2440 C   0  0  0  0  0  0  0  0  0  0  0  0
  -27.2010  -27.3820   20.1860 C   0  0  0  0  0  0  0  0  0  0  0  0
  -23.3790  -30.5150   21.6020 C   0  0  0  0  0  3  0  0  0  0  0  0
  -24.8270  -28.9700   20.1700 C   0  0  0  0  0  0  0  0  0  0  0  0
  -25.9110  -30.8500   21.4000 C   0  0  0  0  0  2  0  0  0  0  0  0
  -25.9940  -29.4710   20.7590 C   0  0  0  0  0  0  0  0  0  0  0  0
  -27.1840  -28.6910   20.7520 C   0  0  0  0  0  3  0  0  0  0  0  0
  -26.0130  -26.9250   19.5710 C   0  0  0  0  0  3  0  0  0  0  0  0
  -24.8370  -27.7020   19.5660 C   0  0  0  0  0  3  0  0  0  0  0  0
  -23.5890  -29.8410   20.2190 C   0  0  0  0  0  2  0  0  0  0  0  0
  -24.6460  -31.1070   22.1410 N   0  0  0  0  0  0  0  0  0  0  0  0
  -23.5090  -32.1840   23.7850 O   0  0  0  0  0  0  0  0  0  0  0  0
  -22.7220  -29.4940   22.5630 C   0  0  0  0  0  0  0  0  0  0  0  0
  -21.3970  -29.3170   22.4420 N   0  0  0  0  0  0  0  0  0  0  0  0
  -23.4050  -28.8650   23.3760 O   0  0  0  0  0  0  0  0  0  0  0  0
  -20.9040  -29.8790   21.7630 H   0  0  0  0  0  0  0  0  0  0  0  0
  -18.0210  -28.1210   22.9430 C   0  0  0  0  0  0  0  0  0  0  0  0
  -20.5790  -28.3770   23.2140 C   0  0  0  0  0  3  0  0  0  0  0  0
  -20.6810  -26.9460   22.6390 C   0  0  0  0  0  2  0  0  0  0  0  0
  -19.5770  -26.6230   21.6260 C   0  0  0  0  0  2  0  0  0  0  0  0
  -18.1960  -26.7700   22.2700 C   0  0  0  0  0  2  0  0  0  0  0  0
  -19.1400  -28.8810   23.3740 C   0  0  0  0  0  0  0  0  0  0  0  0
  -18.9220  -30.1450   23.9640 C   0  0  0  0  0  3  0  0  0  0  0  0
  -17.6170  -30.6470   24.1310 C   0  0  0  0  0  3  0  0  0  0  0  0
  -16.5130  -29.8840   23.7140 C   0  0  0  0  0  3  0  0  0  0  0  0
  -16.7170  -28.6230   23.1260 C   0  0  0  0  0  3  0  0  0  0  0  0
  -25.8760  -32.5390   23.8610 C   0  0  0  0  0  3  0  0  0  0  0  0
  -25.5680  -33.9370   24.1910 N   0  0  0  0  0  0  0  0  0  0  0  0
  -25.9000  -34.9900   23.4330 C   0  0  0  0  0  0  0  0  0  0  0  0
  -26.5690  -34.8860   22.4010 O   0  0  0  0  0  0  0  0  0  0  0  0
  -24.9690  -34.0900   24.9890 H   0  0  0  0  0  0  0  0  0  0  0  0
  -24.1740  -36.7860   23.0800 C   0  0  0  0  0  1  0  0  0  0  0  0
  -25.4130  -36.3770   23.8910 C   0  0  0  0  0  3  0  0  0  0  0  0
  -27.5500  -37.2600   24.7230 C   0  0  0  0  0  1  0  0  0  0  0  0
  -26.4470  -37.4300   23.7800 N   0  0  0  0  0  0  0  0  0  0  0  0
  -26.0410  -38.3490   23.9300 H   0  0  0  0  0  0  0  0  0  0  0  0
  -26.3930  -31.7640   25.1350 C   0  0  1  0  0  0  0  0  0  0  0  0
  -25.3020  -31.5310   26.2050 C   0  0  0  0  0  1  0  0  0  0  0  0
  -26.9710  -30.3850   24.7390 C   0  0  0  0  0  1  0  0  0  0  0  0
  -27.5440  -32.5570   25.7970 C   0  0  0  0  0  1  0  0  0  0  0  0
  1  5  1  0
  2 10  1  0
  2  1  2  0
  3 50  1  0
  3  5  2  0
  4  3  1  0
  6  4  2  0
  6  2  1  0
  7  8  1  0
  8  4  1  0
 10 11  1  0
 10  9  1  0
 13 18  1  0
 14 15  1  0
 14 13  1  0
 16 15  1  0
 16 25  1  0
 16 17  1  0
 18 12  1  0
 18 17  1  0
 19 12  2  0
 20 21  1  0
 21 12  1  0
 21 11  1  0
 22 23  2  0
 23 42  1  0
 24 23  1  0
 24 27  1  0
 25 22  1  0
 25 26  1  0
 26 24  2  0
 27 28  1  0
 28 29  2  0
 30 33  1  0
 30 29  1  0
 31 30  2  0
 32 31  1  0
 32 27  2  0
 33 34  1  0
 34 35  1  0
 35 36  2  0
 37 36  1  0
 37 41  1  0
 38 37  2  0
 39 34  2  0
 39 38  1  0
 40 39  1  0
 42 43  1  0
 43 46  1  0
 43 45  1  0
 44 42  2  0
 47 48  1  0
 47 22  1  0
 49 47  1  0
 51 52  1  0
 51 50  2  0
 53 64  2  0
 54 52  1  0
 54 59  1  0
 55 63  1  0
 55 65  1  0
 56 62  1  0
 56 58  1  0
 57 63  1  0
 58 57  1  0
 59 58  2  0
 60 54  2  0
 61 60  1  0
 61 56  2  0
 62 55  1  0
 63 53  1  0
 65 67  2  0
 66 65  1  0
 68 66  1  0
 69 78  2  0
 69 74  1  0
 70 66  1  0
 70 74  1  0
 71 70  1  0
 72 73  1  0
 72 71  1  0
 73 69  1  0
 74 75  2  0
 75 76  1  0
 77 76  2  0
 78 77  1  0
 79 53  1  0
 79 80  1  0
 79 89  1  0
 80 83  1  0
 81 85  1  0
 81 80  1  0
 82 81  2  0
 85 84  1  0
 87 85  1  0
 87 88  1  0
 87 86  1  0
 89 92  1  1
 89 90  1  0
 91 89  1  0
M  ISO  4  12 100  21 100  51 101  52 101
M  END
>  <TORSDO>  (37) 
F 21

>  <SCORE>  (37) 
-13.424

>  <name>  (37) 
38

>  <ligand_id>  (37) 
38

>  <original_smiles>  (37) 
[H]c1nc(C([H])([H])C([H])([H])Oc2c([H])c([H])c3c(c2[H])C([H])([H])N(C(=O)C([H])(N([H])C(=O)C([H])(N([H])C([H])([H])[H])C([H])([H])[H])C(C([H])([H])[H])(C([H])([H])[H])C([H])([H])[H])C([H])(C(=O)N([H])C2([H])c4c([H])c([H])c([H])c([H])c4C([H])([H])C([H])([H])C2([H])[H])C3([H])[H])c(C([H])([H])C([H])([H])[H])nc1C([H])(C([H])([H])[H])C([H])([H])N(C(=O)N1C([H])([H])C([H])([H])C([H])([H])C([H])(n2nc(-c3c([H])c([H])c(Oc4c([H])c([H])c(F)c([H])c4F)c([H])c3[H])c(C(=O)N([H])[H])c2N([H])[H])C1([H])[H])C([H])([H])[H]

>  <smiles>  (37) 
[H]c1nc(C([H])([H])C([H])([H])Oc2c([H])c([H])c3c(c2[H])C([H])([H])N(C(=O)C([H])(N([H])C(=O)C([H])(N([H])C([H])([H])[H])C([H])([H])[H])C(C([H])([H])[H])(C([H])([H])[H])C([H])([H])[H])C([H])(C(=O)N([H])C2([H])c4c([H])c([H])c([H])c([H])c4C([H])([H])C([H])([H])C2([H])[H])C3([H])[H])c(C([H])([H])C([H])([H])[H])nc1C([H])(C([H])([H])[H])C([H])([H])N(C(=O)N1C([H])([H])C([H])([H])C([H])([H])C([H])(n2nc(-c3c([H])c([H])c(Oc4c([H])c([H])c(F)c([H])c4F)c([H])c3[H])c(C(=O)N([H])[H])c2N([H])[H])C1([H])[H])C([H])([H])[H]

$$$$
39:0:0
     RDKit          3D

 91 99  0  0  1  0  0  0  0  0999 V2000
  -30.1950  -22.5400   21.5440 C   0  0  0  0  0  0  0  0  0  0  0  0
  -29.7670  -20.6620   20.5720 C   0  0  0  0  0  0  0  0  0  0  0  0
  -30.1810  -23.9310   22.1080 C   0  0  0  0  0  1  0  0  0  0  0  0
  -31.0920  -21.6730   21.9970 N   0  0  0  0  0  0  0  0  0  0  0  0
  -30.8120  -20.4940   21.3950 N   0  0  0  0  0  0  0  0  0  0  0  0
  -29.3280  -22.0650   20.6060 N   0  0  0  0  0  0  0  0  0  0  0  0
  -29.3410  -19.3470   18.3810 C   0  0  0  0  0  1  0  0  0  0  0  0
  -27.9160  -18.8710   20.3910 C   0  0  0  0  0  1  0  0  0  0  0  0
  -29.3430  -19.2040   19.9150 C   0  0  2  0  0  0  0  0  0  0  0  0
  -30.3270  -17.8290   20.2620 C   0  0  0  0  0  2  0  0  0  0  0  0
  -30.7330  -15.0800   20.1240 C   0  0  0  0  0  0  0  0  0  0  0  0
  -30.6530  -12.6850   19.2860 C   0  0  0  0  0  2  0  0  0  0  0  0
  -29.7170  -12.5940   18.0600 C   0  0  0  0  0  2  0  0  0  0  0  0
  -28.2500  -12.3910   18.4970 C   0  0  0  0  0  2  0  0  0  0  0  0
  -27.8450  -13.3340   19.6640 C   0  0  0  0  0  3  0  0  0  0  0  0
  -28.9110  -13.3780   20.7750 C   0  0  0  0  0  2  0  0  0  0  0  0
  -30.1600  -13.8050   20.1390 N   0  0  0  0  0  0  0  0  0  0  0  0
  -31.9270  -15.1380   19.8100 O   0  0  0  0  0  0  0  0  0  0  0  0
  -29.9460  -16.2750   20.2730 N   0  0  0  0  0  0  0  0  0  0  0  0
  -28.9770  -16.1040   20.5040 H   0  0  0  0  0  0  0  0  0  0  0  0
  -25.5050  -13.9400   20.4950 C   0  0  0  0  0  0  0  0  0  0  0  0
  -24.4360  -13.1800   20.8880 C   0  0  0  0  0  0  0  0  0  0  0  0
  -24.8680  -11.8200   20.7980 C   0  0  0  0  0  0  0  0  0  0  0  0
  -26.5150  -13.0440   20.1870 N   0  0  0  0  0  0  0  0  0  0  0  0
  -26.1460  -11.7620   20.4360 N   0  0  0  0  0  0  0  0  0  0  0  0
  -24.1140  -10.5700   20.9750 C   0  0  0  0  0  0  0  0  0  0  0  0
  -24.5350   -9.5720   21.8830 C   0  0  0  0  0  3  0  0  0  0  0  0
  -23.7810   -8.3890   22.0500 C   0  0  0  0  0  3  0  0  0  0  0  0
  -22.5930   -8.1920   21.3080 C   0  0  0  0  0  0  0  0  0  0  0  0
  -22.1940   -9.1730   20.3830 C   0  0  0  0  0  3  0  0  0  0  0  0
  -22.9480  -10.3480   20.2140 C   0  0  0  0  0  3  0  0  0  0  0  0
  -21.8140   -7.0620   21.3840 O   0  0  0  0  0  0  0  0  0  0  0  0
  -21.7410   -6.3140   22.5310 C   0  0  0  0  0  0  0  0  0  0  0  0
  -21.3000   -6.8660   23.7550 C   0  0  0  0  0  3  0  0  0  0  0  0
  -21.1730   -6.0450   24.8940 C   0  0  0  0  0  3  0  0  0  0  0  0
  -21.4770   -4.6730   24.8110 C   0  0  0  0  0  0  0  0  0  0  0  0
  -21.9030   -4.1190   23.5910 C   0  0  0  0  0  3  0  0  0  0  0  0
  -22.0340   -4.9380   22.4550 C   0  0  0  0  0  0  0  0  0  0  0  0
  -22.4270   -4.3950   21.2790 F   0  0  0  0  0  0  0  0  0  0  0  0
  -21.3450   -3.8810   25.9020 F   0  0  0  0  0  0  0  0  0  0  0  0
  -23.0610  -13.6810   21.2160 C   0  0  0  0  0  0  0  0  0  0  0  0
  -22.3430  -12.9930   22.1010 N   0  0  0  0  0  0  0  0  0  0  0  0
  -22.6280  -14.7200   20.7250 O   0  0  0  0  0  0  0  0  0  0  0  0
  -22.7000  -12.1550   22.5340 H   0  0  0  0  0  0  0  0  0  0  0  0
  -21.4200  -13.3160   22.3490 H   0  0  0  0  0  0  0  0  0  0  0  0
  -25.6950  -15.3080   20.3400 N   0  0  0  0  0  0  0  0  0  0  0  0
  -24.9330  -15.9700   20.4440 H   0  0  0  0  0  0  0  0  0  0  0  0
  -26.4950  -15.7050   19.8630 H   0  0  0  0  0  0  0  0  0  0  0  0
  -28.2100  -23.0590   20.0830 C   0  0  0  0  0  2  0  0  0  0  0  0
  -28.4340  -24.6780   19.5460 C   0  0  0  0  0  2  0  0  0  0  0  0
  -28.3250  -26.1200   20.1710 O   0  0  0  0  0  0  0  0  0  0  0  0
  -24.6160  -31.7610   23.0730 C   0  0  0  0  0  0  0  0  0  0  0  0
  -27.2660  -27.0990   20.0250 C   0  0  0  0  0  0  0  0  0  0  0  0
  -23.4470  -30.3850   21.3940 C   0  0  0  0  0  3  0  0  0  0  0  0
  -24.9270  -28.8480   19.9510 C   0  0  0  0  0  0  0  0  0  0  0  0
  -25.9960  -30.6660   21.2770 C   0  0  0  0  0  2  0  0  0  0  0  0
  -26.0880  -29.2880   20.5960 C   0  0  0  0  0  0  0  0  0  0  0  0
  -27.2490  -28.4280   20.6230 C   0  0  0  0  0  3  0  0  0  0  0  0
  -26.0790  -26.7630   19.3380 C   0  0  0  0  0  3  0  0  0  0  0  0
  -24.9390  -27.6000   19.3050 C   0  0  0  0  0  3  0  0  0  0  0  0
  -23.6900  -29.7410   20.0020 C   0  0  0  0  0  2  0  0  0  0  0  0
  -24.7030  -30.9660   21.9640 N   0  0  0  0  0  0  0  0  0  0  0  0
  -23.5230  -32.0240   23.6000 O   0  0  0  0  0  0  0  0  0  0  0  0
  -22.7780  -29.3500   22.3320 C   0  0  0  0  0  0  0  0  0  0  0  0
  -21.4490  -29.1820   22.2080 N   0  0  0  0  0  0  0  0  0  0  0  0
  -23.4540  -28.7100   23.1430 O   0  0  0  0  0  0  0  0  0  0  0  0
  -20.9560  -29.7560   21.5370 H   0  0  0  0  0  0  0  0  0  0  0  0
  -18.0690  -27.9970   22.7380 C   0  0  0  0  0  0  0  0  0  0  0  0
  -20.6360  -28.2270   22.9660 C   0  0  0  0  0  3  0  0  0  0  0  0
  -20.7100  -26.8120   22.3460 C   0  0  0  0  0  2  0  0  0  0  0  0
  -19.5840  -26.5350   21.3430 C   0  0  0  0  0  2  0  0  0  0  0  0
  -18.2160  -26.6720   22.0120 C   0  0  0  0  0  2  0  0  0  0  0  0
  -19.2040  -28.7350   23.1720 C   0  0  0  0  0  0  0  0  0  0  0  0
  -19.0070  -29.9830   23.8040 C   0  0  0  0  0  3  0  0  0  0  0  0
  -17.7090  -30.4880   24.0150 C   0  0  0  0  0  3  0  0  0  0  0  0
  -16.5900  -29.7470   23.5930 C   0  0  0  0  0  3  0  0  0  0  0  0
  -16.7720  -28.5040   22.9590 C   0  0  0  0  0  3  0  0  0  0  0  0
  -25.8880  -32.3940   23.7160 C   0  0  0  0  0  3  0  0  0  0  0  0
  -26.3980  -31.6110   24.9900 C   0  0  1  0  0  0  0  0  0  0  0  0
  -25.3010  -31.3450   26.0490 C   0  0  0  0  0  1  0  0  0  0  0  0
  -27.0090  -30.2430   24.6020 C   0  0  0  0  0  1  0  0  0  0  0  0
  -27.5270  -32.4160   25.6740 C   0  0  0  0  0  1  0  0  0  0  0  0
  -25.5600  -33.7870   24.0680 N   0  0  0  0  0  0  0  0  0  0  0  0
  -25.8920  -34.8610   23.3360 C   0  0  0  0  0  0  0  0  0  0  0  0
  -26.5790  -34.7860   22.3140 O   0  0  0  0  0  0  0  0  0  0  0  0
  -24.9590  -33.9190   24.8670 H   0  0  0  0  0  0  0  0  0  0  0  0
  -24.1600  -36.6540   22.9950 C   0  0  0  0  0  1  0  0  0  0  0  0
  -25.3860  -36.2340   23.8200 C   0  0  0  0  0  3  0  0  0  0  0  0
  -27.4930  -37.1240   24.7150 C   0  0  0  0  0  1  0  0  0  0  0  0
  -26.4100  -37.3000   23.7500 N   0  0  0  0  0  0  0  0  0  0  0  0
  -25.9880  -38.2110   23.9070 H   0  0  0  0  0  0  0  0  0  0  0  0
  1  4  2  0
  1  3  1  0
  2  6  1  0
  2  5  2  0
  5  4  1  0
  6  1  1  0
  9  7  1  6
  9 10  1  0
  9  8  1  0
  9  2  1  0
 10 19  1  0
 11 17  1  0
 11 19  1  0
 12 17  1  0
 13 14  1  0
 13 12  1  0
 15 14  1  0
 15 24  1  0
 15 16  1  0
 17 16  1  0
 18 11  2  0
 19 20  1  0
 21 22  2  0
 22 41  1  0
 23 22  1  0
 23 26  1  0
 24 25  1  0
 24 21  1  0
 25 23  2  0
 26 27  1  0
 27 28  2  0
 29 32  1  0
 29 28  1  0
 30 29  2  0
 31 30  1  0
 31 26  2  0
 32 33  1  0
 33 34  1  0
 34 35  2  0
 36 35  1  0
 36 40  1  0
 37 36  2  0
 38 33  2  0
 38 37  1  0
 39 38  1  0
 41 42  1  0
 42 45  1  0
 42 44  1  0
 43 41  2  0
 46 47  1  0
 46 21  1  0
 48 46  1  0
 49  6  1  0
 50 49  1  0
 50 51  1  0
 52 63  2  0
 53 51  1  0
 53 58  1  0
 54 62  1  0
 54 64  1  0
 55 61  1  0
 55 57  1  0
 56 62  1  0
 57 58  2  0
 57 56  1  0
 59 53  2  0
 60 59  1  0
 60 55  2  0
 61 54  1  0
 62 52  1  0
 64 66  2  0
 65 64  1  0
 67 65  1  0
 68 77  2  0
 68 73  1  0
 69 65  1  0
 69 73  1  0
 70 69  1  0
 71 72  1  0
 71 70  1  0
 72 68  1  0
 73 74  2  0
 74 75  1  0
 76 75  2  0
 77 76  1  0
 78 52  1  0
 78 83  1  0
 78 79  1  0
 79 82  1  1
 79 80  1  0
 81 79  1  0
 83 86  1  0
 84 88  1  0
 84 83  1  0
 85 84  2  0
 88 87  1  0
 90 88  1  0
 90 91  1  0
 90 89  1  0
M  ISO  4  11 100  19 100  50 101  51 101
M  END
>  <TORSDO>  (38) 
F 20

>  <SCORE>  (38) 
-15.262

>  <name>  (38) 
39

>  <ligand_id>  (38) 
39

>  <original_smiles>  (38) 
[H]c1c([H])c([H])c2c(c1[H])C([H])([H])C([H])([H])C([H])([H])C2([H])N([H])C(=O)C1([H])N(C(=O)C([H])(N([H])C(=O)C([H])(N([H])C([H])([H])[H])C([H])([H])[H])C(C([H])([H])[H])(C([H])([H])[H])C([H])([H])[H])C([H])([H])c2c([H])c(OC([H])([H])C([H])([H])n3c(C([H])([H])[H])nnc3C(C([H])([H])[H])(C([H])([H])[H])C([H])([H])N([H])C(=O)N3C([H])([H])C([H])([H])C([H])([H])C([H])(n4nc(-c5c([H])c([H])c(Oc6c([H])c([H])c(F)c([H])c6F)c([H])c5[H])c(C(=O)N([H])[H])c4N([H])[H])C3([H])[H])c([H])c([H])c2C1([H])[H]

>  <smiles>  (38) 
[H]c1c([H])c([H])c2c(c1[H])C([H])([H])C([H])([H])C([H])([H])C2([H])N([H])C(=O)C1([H])N(C(=O)C([H])(N([H])C(=O)C([H])(N([H])C([H])([H])[H])C([H])([H])[H])C(C([H])([H])[H])(C([H])([H])[H])C([H])([H])[H])C([H])([H])c2c([H])c(OC([H])([H])C([H])([H])n3c(C([H])([H])[H])nnc3C(C([H])([H])[H])(C([H])([H])[H])C([H])([H])N([H])C(=O)N3C([H])([H])C([H])([H])C([H])([H])C([H])(n4nc(-c5c([H])c([H])c(Oc6c([H])c([H])c(F)c([H])c6F)c([H])c5[H])c(C(=O)N([H])[H])c4N([H])[H])C3([H])[H])c([H])c([H])c2C1([H])[H]

$$$$
40:0:0
     RDKit          3D

100108  0  0  1  0  0  0  0  0999 V2000
  -30.0070  -21.0840   19.0380 C   0  0  0  0  0  0  0  0  0  0  0  0
  -29.7950  -20.6150   17.7630 C   0  0  0  0  0  0  0  0  0  0  0  0
  -29.0920  -19.0240   19.1870 C   0  0  0  0  0  3  0  0  0  0  0  0
  -29.7740  -20.0670   21.3490 C   0  0  0  0  0  1  0  0  0  0  0  0
  -29.6130  -20.0590   19.8910 N   0  0  0  0  0  0  0  0  0  0  0  0
  -29.2180  -19.3880   17.9090 N   0  0  0  0  0  0  0  0  0  0  0  0
  -28.8930  -18.8030   17.1490 H   0  0  0  0  0  0  0  0  0  0  0  0
  -27.9380  -17.0190   18.2550 C   0  0  0  0  0  1  0  0  0  0  0  0
  -27.0620  -18.1230   20.3010 C   0  0  0  0  0  1  0  0  0  0  0  0
  -28.3780  -17.7160   19.5860 C   0  0  2  0  0  0  0  0  0  0  0  0
  -29.1250  -16.6560   20.5300 C   0  0  0  0  0  2  0  0  0  0  0  0
  -31.5560  -17.2350   20.7680 C   0  0  0  0  0  1  0  0  0  0  0  0
  -30.8700  -16.0190   18.7330 C   0  0  0  0  0  1  0  0  0  0  0  0
  -30.5890  -16.1260   20.2450 C   0  0  2  0  0  0  0  0  0  0  0  0
  -31.0600  -14.7180   20.8570 C   0  0  0  0  0  0  0  0  0  0  0  0
  -30.7970  -12.3940   20.1040 C   0  0  0  0  0  2  0  0  0  0  0  0
  -30.0160  -12.3800   18.7780 C   0  0  0  0  0  2  0  0  0  0  0  0
  -28.4940  -12.3450   19.0230 C   0  0  0  0  0  2  0  0  0  0  0  0
  -28.0100  -13.3130   20.1360 C   0  0  0  0  0  3  0  0  0  0  0  0
  -28.9590  -13.3390   21.3550 C   0  0  0  0  0  2  0  0  0  0  0  0
  -30.3240  -13.5620   20.8710 N   0  0  0  0  0  0  0  0  0  0  0  0
  -32.2800  -14.6160   20.9550 O   0  0  0  0  0  0  0  0  0  0  0  0
  -25.5680  -13.9360   20.6600 C   0  0  0  0  0  0  0  0  0  0  0  0
  -24.4610  -13.1890   20.9140 C   0  0  0  0  0  0  0  0  0  0  0  0
  -24.9110  -11.8340   20.9560 C   0  0  0  0  0  0  0  0  0  0  0  0
  -26.6240  -13.0510   20.5220 N   0  0  0  0  0  0  0  0  0  0  0  0
  -26.2250  -11.7770   20.7700 N   0  0  0  0  0  0  0  0  0  0  0  0
  -24.1510  -10.5910   21.1120 C   0  0  0  0  0  0  0  0  0  0  0  0
  -24.4940   -9.6370   22.0930 C   0  0  0  0  0  3  0  0  0  0  0  0
  -23.7340   -8.4580   22.2370 C   0  0  0  0  0  3  0  0  0  0  0  0
  -22.6180   -8.2270   21.3980 C   0  0  0  0  0  0  0  0  0  0  0  0
  -22.2910   -9.1750   20.4110 C   0  0  0  0  0  3  0  0  0  0  0  0
  -23.0520  -10.3460   20.2650 C   0  0  0  0  0  3  0  0  0  0  0  0
  -21.8410   -7.0970   21.4430 O   0  0  0  0  0  0  0  0  0  0  0  0
  -21.7190   -6.3560   22.5900 C   0  0  0  0  0  0  0  0  0  0  0  0
  -21.2390   -6.9210   23.7920 C   0  0  0  0  0  3  0  0  0  0  0  0
  -21.0590   -6.1070   24.9280 C   0  0  0  0  0  3  0  0  0  0  0  0
  -21.3520   -4.7310   24.8620 C   0  0  0  0  0  0  0  0  0  0  0  0
  -21.8270   -4.1680   23.6650 C   0  0  0  0  0  3  0  0  0  0  0  0
  -22.0080   -4.9780   22.5310 C   0  0  0  0  0  0  0  0  0  0  0  0
  -22.4430   -4.4270   21.3720 F   0  0  0  0  0  0  0  0  0  0  0  0
  -21.1720   -3.9490   25.9530 F   0  0  0  0  0  0  0  0  0  0  0  0
  -23.0540  -13.6990   21.0350 C   0  0  0  0  0  0  0  0  0  0  0  0
  -22.2430  -13.0480   21.8540 N   0  0  0  0  0  0  0  0  0  0  0  0
  -22.6850  -14.7100   20.4360 O   0  0  0  0  0  0  0  0  0  0  0  0
  -22.5530  -12.2280   22.3570 H   0  0  0  0  0  0  0  0  0  0  0  0
  -21.2950  -13.3750   21.9830 H   0  0  0  0  0  0  0  0  0  0  0  0
  -25.7370  -15.3050   20.5310 N   0  0  0  0  0  0  0  0  0  0  0  0
  -24.9700  -15.9570   20.6340 H   0  0  0  0  0  0  0  0  0  0  0  0
  -26.6280  -15.7620   20.4220 H   0  0  0  0  0  0  0  0  0  0  0  0
  -28.8690  -21.5770   15.6270 C   0  0  0  0  0  1  0  0  0  0  0  0
  -30.1210  -21.1680   16.4130 C   0  0  0  0  0  2  0  0  0  0  0  0
  -30.6590  -22.3770   19.4920 C   0  0  0  0  0  2  0  0  0  0  0  0
  -29.6310  -24.3520   18.2510 C   0  0  0  0  0  1  0  0  0  0  0  0
  -28.3640  -23.3200   20.1760 C   0  0  0  0  0  1  0  0  0  0  0  0
  -29.7730  -23.6690   19.6340 C   0  0  1  0  0  0  0  0  0  0  0  0
  -30.5150  -24.6220   20.6340 C   0  0  0  0  0  2  0  0  0  0  0  0
  -30.4690  -26.1670   20.4740 C   0  0  0  0  0  2  0  0  0  0  0  0
  -29.2900  -26.9230   21.0950 C   0  0  0  0  0  2  0  0  0  0  0  0
  -28.1890  -26.6920   20.2440 O   0  0  0  0  0  0  0  0  0  0  0  0
  -24.4500  -31.9740   23.2870 C   0  0  0  0  0  0  0  0  0  0  0  0
  -27.0720  -27.4810   20.3230 C   0  0  0  0  0  0  0  0  0  0  0  0
  -23.2390  -30.5560   21.6550 C   0  0  0  0  0  3  0  0  0  0  0  0
  -24.6870  -28.9780   20.2780 C   0  0  0  0  0  0  0  0  0  0  0  0
  -25.7630  -30.8930   21.4740 C   0  0  0  0  0  2  0  0  0  0  0  0
  -25.8380  -29.5090   20.8750 C   0  0  0  0  0  0  0  0  0  0  0  0
  -27.0320  -28.7650   20.9080 C   0  0  0  0  0  3  0  0  0  0  0  0
  -25.9080  -26.9570   19.7270 C   0  0  0  0  0  3  0  0  0  0  0  0
  -24.7160  -27.6970   19.7020 C   0  0  0  0  0  3  0  0  0  0  0  0
  -23.4520  -29.8480   20.2890 C   0  0  0  0  0  2  0  0  0  0  0  0
  -24.5010  -31.1550   22.1990 N   0  0  0  0  0  0  0  0  0  0  0  0
  -23.3680  -32.2700   23.8120 O   0  0  0  0  0  0  0  0  0  0  0  0
  -22.5730  -29.5580   22.6270 C   0  0  0  0  0  0  0  0  0  0  0  0
  -21.2490  -29.3950   22.4930 N   0  0  0  0  0  0  0  0  0  0  0  0
  -23.2450  -28.9370   23.4560 O   0  0  0  0  0  0  0  0  0  0  0  0
  -20.7750  -29.9480   21.7930 H   0  0  0  0  0  0  0  0  0  0  0  0
  -17.8500  -28.2860   22.9960 C   0  0  0  0  0  0  0  0  0  0  0  0
  -20.4110  -28.4860   23.2720 C   0  0  0  0  0  3  0  0  0  0  0  0
  -20.4790  -27.0460   22.7110 C   0  0  0  0  0  2  0  0  0  0  0  0
  -19.3720  -26.7390   21.6960 C   0  0  0  0  0  2  0  0  0  0  0  0
  -17.9930  -26.9260   22.3340 C   0  0  0  0  0  2  0  0  0  0  0  0
  -18.9850  -29.0260   23.4220 C   0  0  0  0  0  0  0  0  0  0  0  0
  -18.7950  -30.3010   23.9960 C   0  0  0  0  0  3  0  0  0  0  0  0
  -17.5020  -30.8350   24.1490 C   0  0  0  0  0  3  0  0  0  0  0  0
  -16.3810  -30.0910   23.7420 C   0  0  0  0  0  3  0  0  0  0  0  0
  -16.5550  -28.8190   23.1700 C   0  0  0  0  0  3  0  0  0  0  0  0
  -25.7420  -32.5940   23.9040 C   0  0  0  0  0  3  0  0  0  0  0  0
  -26.2460  -31.8270   25.1870 C   0  0  1  0  0  0  0  0  0  0  0  0
  -25.1430  -31.5830   26.2420 C   0  0  0  0  0  1  0  0  0  0  0  0
  -26.8450  -30.4540   24.8050 C   0  0  0  0  0  1  0  0  0  0  0  0
  -27.3860  -32.6270   25.8650 C   0  0  0  0  0  1  0  0  0  0  0  0
  -25.4500  -33.9980   24.2210 N   0  0  0  0  0  0  0  0  0  0  0  0
  -25.8180  -35.0370   23.4580 C   0  0  0  0  0  0  0  0  0  0  0  0
  -26.5100  -34.9140   22.4430 O   0  0  0  0  0  0  0  0  0  0  0  0
  -24.8350  -34.1680   25.0030 H   0  0  0  0  0  0  0  0  0  0  0  0
  -24.1330  -36.8540   23.0290 C   0  0  0  0  0  1  0  0  0  0  0  0
  -25.3360  -36.4350   23.8890 C   0  0  0  0  0  3  0  0  0  0  0  0
  -27.4560  -37.2870   24.7920 C   0  0  0  0  0  1  0  0  0  0  0  0
  -26.3920  -37.4690   23.8070 N   0  0  0  0  0  0  0  0  0  0  0  0
  -25.9970  -38.3980   23.9310 H   0  0  0  0  0  0  0  0  0  0  0  0
  1 53  1  0
  1  5  1  0
  2  6  1  0
  2  1  2  0
  3 10  1  0
  3  5  1  0
  5  4  1  0
  6  3  1  0
  7  6  1  0
 10  8  1  6
 10  9  1  0
 10 11  1  0
 14 13  1  6
 14 11  1  0
 14 12  1  0
 14 15  1  0
 15 21  1  0
 15 22  2  0
 16 21  1  0
 17 18  1  0
 17 16  1  0
 19 18  1  0
 19 26  1  0
 19 20  1  0
 21 20  1  0
 23 24  2  0
 24 25  1  0
 24 43  1  0
 25 28  1  0
 26 23  1  0
 26 27  1  0
 27 25  2  0
 28 29  1  0
 29 30  2  0
 31 34  1  0
 31 30  1  0
 32 31  2  0
 33 32  1  0
 33 28  2  0
 34 35  1  0
 35 36  1  0
 36 37  2  0
 38 37  1  0
 38 42  1  0
 39 38  2  0
 40 35  2  0
 40 39  1  0
 41 40  1  0
 43 44  1  0
 44 47  1  0
 44 46  1  0
 45 43  2  0
 48 49  1  0
 48 23  1  0
 50 48  1  0
 51 52  1  0
 52  2  1  0
 53 56  1  0
 56 54  1  6
 56 55  1  0
 56 57  1  0
 58 57  1  0
 58 59  1  0
 60 62  1  0
 60 59  1  0
 61 72  2  0
 62 67  1  0
 63 71  1  0
 63 73  1  0
 64 70  1  0
 64 66  1  0
 65 71  1  0
 66 67  2  0
 66 65  1  0
 68 62  2  0
 69 68  1  0
 69 64  2  0
 70 63  1  0
 71 61  1  0
 73 75  2  0
 74 73  1  0
 76 74  1  0
 77 86  2  0
 77 82  1  0
 78 74  1  0
 78 82  1  0
 79 78  1  0
 80 81  1  0
 80 79  1  0
 81 77  1  0
 82 83  2  0
 83 84  1  0
 85 84  2  0
 86 85  1  0
 87 61  1  0
 87 92  1  0
 87 88  1  0
 88 91  1  1
 88 89  1  0
 90 88  1  0
 92 95  1  0
 93 97  1  0
 93 92  1  0
 94 93  2  0
 97 96  1  0
 99 97  1  0
 99100  1  0
 99 98  1  0
M  ISO  4  14 100  15 100  59 101  60 101
M  END
>  <TORSDO>  (39) 
F 25

>  <SCORE>  (39) 
-11.060

>  <name>  (39) 
40

>  <ligand_id>  (39) 
40

>  <original_smiles>  (39) 
[H]c1c([H])c([H])c2c(c1[H])C([H])([H])C([H])([H])C([H])([H])C2([H])N([H])C(=O)C1([H])N(C(=O)C([H])(N([H])C(=O)C([H])(N([H])C([H])([H])[H])C([H])([H])[H])C(C([H])([H])[H])(C([H])([H])[H])C([H])([H])[H])C([H])([H])c2c([H])c(OC([H])([H])C([H])([H])C([H])([H])C(C([H])([H])[H])(C([H])([H])[H])C([H])([H])c3c(C([H])([H])C([H])([H])[H])[n+]([H])c(C(C([H])([H])[H])(C([H])([H])[H])C([H])([H])C(C(=O)N4C([H])([H])C([H])([H])C([H])([H])C([H])(n5nc(-c6c([H])c([H])c(Oc7c([H])c([H])c(F)c([H])c7F)c([H])c6[H])c(C(=O)N([H])[H])c5N([H])[H])C4([H])[H])(C([H])([H])[H])C([H])([H])[H])n3C([H])([H])[H])c([H])c([H])c2C1([H])[H]

>  <smiles>  (39) 
[H]c1c([H])c([H])c2c(c1[H])C([H])([H])C([H])([H])C([H])([H])C2([H])N([H])C(=O)C1([H])N(C(=O)C([H])(N([H])C(=O)C([H])(N([H])C([H])([H])[H])C([H])([H])[H])C(C([H])([H])[H])(C([H])([H])[H])C([H])([H])[H])C([H])([H])c2c([H])c(OC([H])([H])C([H])([H])C([H])([H])C(C([H])([H])[H])(C([H])([H])[H])C([H])([H])c3c(C([H])([H])C([H])([H])[H])[n+]([H])c(C(C([H])([H])[H])(C([H])([H])[H])C([H])([H])C(C(=O)N4C([H])([H])C([H])([H])C([H])([H])C([H])(n5nc(-c6c([H])c([H])c(Oc7c([H])c([H])c(F)c([H])c7F)c([H])c6[H])c(C(=O)N([H])[H])c5N([H])[H])C4([H])[H])(C([H])([H])[H])C([H])([H])[H])n3C([H])([H])[H])c([H])c([H])c2C1([H])[H]

$$$$
41:0:0
     RDKit          3D

 98106  0  0  1  0  0  0  0  0999 V2000
  -31.9470  -18.7670   22.3510 C   0  0  0  0  0  3  0  0  0  0  0  0
  -31.6380  -20.1060   22.3070 C   0  0  0  0  0  0  0  0  0  0  0  0
  -30.3060  -20.1110   21.7240 C   0  0  0  0  0  0  0  0  0  0  0  0
  -29.9080  -18.8590   21.4780 N   0  0  0  0  0  0  0  0  0  0  0  0
  -30.9000  -18.0360   21.8610 N   0  0  0  0  0  0  0  0  0  0  0  0
  -34.0260  -20.6460   22.9850 C   0  0  0  0  0  1  0  0  0  0  0  0
  -32.1460  -21.6590   24.2310 C   0  0  0  0  0  1  0  0  0  0  0  0
  -32.7080  -22.3970   21.8670 C   0  0  0  0  0  1  0  0  0  0  0  0
  -32.5880  -21.2000   22.8260 C   0  0  2  0  0  0  0  0  0  0  0  0
  -28.0900  -20.6440   20.5770 C   0  0  0  0  0  1  0  0  0  0  0  0
  -28.6470  -21.7860   22.6730 C   0  0  0  0  0  1  0  0  0  0  0  0
  -29.2880  -21.2320   21.3810 C   0  0  1  0  0  0  0  0  0  0  0  0
  -29.9230  -22.3610   20.4950 C   0  0  0  0  0  2  0  0  0  0  0  0
  -29.2410  -23.7460   20.6580 C   0  0  0  0  0  2  0  0  0  0  0  0
  -29.3240  -24.7500   19.4870 C   0  0  0  0  0  2  0  0  0  0  0  0
  -28.3720  -25.9290   19.7790 C   0  0  0  0  0  2  0  0  0  0  0  0
  -28.2440  -26.8990   18.7320 O   0  0  0  0  0  0  0  0  0  0  0  0
  -24.6680  -31.5190   22.7960 C   0  0  0  0  0  0  0  0  0  0  0  0
  -27.1030  -27.6500   18.8940 C   0  0  0  0  0  0  0  0  0  0  0  0
  -23.3470  -30.3330   21.0730 C   0  0  0  0  0  3  0  0  0  0  0  0
  -24.6990  -29.0640   19.3220 C   0  0  0  0  0  0  0  0  0  0  0  0
  -25.8430  -30.7890   20.7240 C   0  0  0  0  0  2  0  0  0  0  0  0
  -25.8950  -29.5320   19.8820 C   0  0  0  0  0  0  0  0  0  0  0  0
  -27.1050  -28.8310   19.6690 C   0  0  0  0  0  3  0  0  0  0  0  0
  -25.8940  -27.2020   18.3180 C   0  0  0  0  0  3  0  0  0  0  0  0
  -24.6910  -27.8990   18.5370 C   0  0  0  0  0  3  0  0  0  0  0  0
  -23.4480  -29.8680   19.5960 C   0  0  0  0  0  2  0  0  0  0  0  0
  -24.6420  -30.8860   21.5890 N   0  0  0  0  0  0  0  0  0  0  0  0
  -23.6340  -31.6830   23.4570 O   0  0  0  0  0  0  0  0  0  0  0  0
  -22.7980  -29.1670   21.9250 C   0  0  0  0  0  0  0  0  0  0  0  0
  -21.4670  -28.9810   21.8950 N   0  0  0  0  0  0  0  0  0  0  0  0
  -23.5580  -28.4410   22.5700 O   0  0  0  0  0  0  0  0  0  0  0  0
  -20.9120  -29.6250   21.3490 H   0  0  0  0  0  0  0  0  0  0  0  0
  -18.1580  -27.7010   22.5660 C   0  0  0  0  0  0  0  0  0  0  0  0
  -20.7320  -27.9240   22.5890 C   0  0  0  0  0  3  0  0  0  0  0  0
  -20.7510  -26.6050   21.7790 C   0  0  0  0  0  2  0  0  0  0  0  0
  -19.5400  -26.4480   20.8570 C   0  0  0  0  0  2  0  0  0  0  0  0
  -18.2410  -26.4800   21.6660 C   0  0  0  0  0  2  0  0  0  0  0  0
  -19.3260  -28.3870   22.9880 C   0  0  0  0  0  0  0  0  0  0  0  0
  -19.1910  -29.5360   23.7960 C   0  0  0  0  0  3  0  0  0  0  0  0
  -17.9190  -29.9990   24.1830 C   0  0  0  0  0  3  0  0  0  0  0  0
  -16.7670  -29.3060   23.7780 C   0  0  0  0  0  3  0  0  0  0  0  0
  -16.8870  -28.1570   22.9760 C   0  0  0  0  0  3  0  0  0  0  0  0
  -25.9940  -32.0900   23.3910 C   0  0  0  0  0  3  0  0  0  0  0  0
  -26.6440  -31.1450   24.4760 C   0  0  1  0  0  0  0  0  0  0  0  0
  -25.6630  -30.7170   25.5920 C   0  0  0  0  0  1  0  0  0  0  0  0
  -27.2040  -29.8630   23.8170 C   0  0  0  0  0  1  0  0  0  0  0  0
  -27.8420  -31.8600   25.1430 C   0  0  0  0  0  1  0  0  0  0  0  0
  -25.6920  -33.4100   23.9620 N   0  0  0  0  0  0  0  0  0  0  0  0
  -25.9620  -34.5760   23.3610 C   0  0  0  0  0  0  0  0  0  0  0  0
  -26.5670  -34.6520   22.2880 O   0  0  0  0  0  0  0  0  0  0  0  0
  -25.1480  -33.4230   24.8110 H   0  0  0  0  0  0  0  0  0  0  0  0
  -24.1990  -36.3670   23.3950 C   0  0  0  0  0  1  0  0  0  0  0  0
  -25.4870  -35.8620   24.0640 C   0  0  0  0  0  3  0  0  0  0  0  0
  -27.6570  -36.6430   24.9090 C   0  0  0  0  0  1  0  0  0  0  0  0
  -26.5020  -36.9390   24.0660 N   0  0  0  0  0  0  0  0  0  0  0  0
  -26.0960  -37.8170   24.3810 H   0  0  0  0  0  0  0  0  0  0  0  0
  -30.7740  -16.5770   21.7780 C   0  0  0  0  0  2  0  0  0  0  0  0
  -29.3210  -16.2260   19.6590 C   0  0  0  0  0  1  0  0  0  0  0  0
  -30.6830  -15.9950   20.3390 C   0  0  2  0  0  0  0  0  0  0  0  0
  -31.2320  -14.5310   20.2470 C   0  0  0  0  0  0  0  0  0  0  0  0
  -30.8980  -12.1800   19.6100 C   0  0  0  0  0  2  0  0  0  0  0  0
  -30.0070  -12.1090   18.3560 C   0  0  0  0  0  2  0  0  0  0  0  0
  -28.5280  -12.0010   18.7680 C   0  0  0  0  0  2  0  0  0  0  0  0
  -28.1220  -13.0810   19.8030 C   0  0  0  0  0  3  0  0  0  0  0  0
  -29.1590  -13.2230   20.9460 C   0  0  0  0  0  2  0  0  0  0  0  0
  -30.4960  -13.3860   20.3600 N   0  0  0  0  0  0  0  0  0  0  0  0
  -32.4080  -14.4760   19.8740 O   0  0  0  0  0  0  0  0  0  0  0  0
  -25.7890  -13.8040   20.6000 C   0  0  0  0  0  0  0  0  0  0  0  0
  -24.6820  -13.0840   20.9600 C   0  0  0  0  0  0  0  0  0  0  0  0
  -25.0610  -11.7090   20.8690 C   0  0  0  0  0  0  0  0  0  0  0  0
  -26.7710  -12.8700   20.3100 N   0  0  0  0  0  0  0  0  0  0  0  0
  -26.3410  -11.6040   20.5370 N   0  0  0  0  0  0  0  0  0  0  0  0
  -24.2620  -10.4870   21.0180 C   0  0  0  0  0  0  0  0  0  0  0  0
  -24.6480   -9.4600   21.9080 C   0  0  0  0  0  3  0  0  0  0  0  0
  -23.8570   -8.2990   22.0460 C   0  0  0  0  0  3  0  0  0  0  0  0
  -22.6640   -8.1610   21.2980 C   0  0  0  0  0  0  0  0  0  0  0  0
  -22.2970   -9.1760   20.3960 C   0  0  0  0  0  3  0  0  0  0  0  0
  -23.0890  -10.3270   20.2550 C   0  0  0  0  0  3  0  0  0  0  0  0
  -21.8450   -7.0600   21.3520 O   0  0  0  0  0  0  0  0  0  0  0  0
  -21.7500   -6.2860   22.4810 C   0  0  0  0  0  0  0  0  0  0  0  0
  -21.3550   -6.8260   23.7250 C   0  0  0  0  0  3  0  0  0  0  0  0
  -21.2070   -5.9810   24.8430 C   0  0  0  0  0  3  0  0  0  0  0  0
  -21.4400   -4.5980   24.7180 C   0  0  0  0  0  0  0  0  0  0  0  0
  -21.8300   -4.0590   23.4790 C   0  0  0  0  0  3  0  0  0  0  0  0
  -21.9810   -4.9000   22.3640 C   0  0  0  0  0  0  0  0  0  0  0  0
  -22.3340   -4.3720   21.1670 F   0  0  0  0  0  0  0  0  0  0  0  0
  -21.2900   -3.7860   25.7910 F   0  0  0  0  0  0  0  0  0  0  0  0
  -23.3200  -13.6330   21.2710 C   0  0  0  0  0  0  0  0  0  0  0  0
  -22.5720  -12.9610   22.1400 N   0  0  0  0  0  0  0  0  0  0  0  0
  -22.9290  -14.6920   20.7820 O   0  0  0  0  0  0  0  0  0  0  0  0
  -22.8980  -12.1040   22.5620 H   0  0  0  0  0  0  0  0  0  0  0  0
  -21.6550  -13.3100   22.3850 H   0  0  0  0  0  0  0  0  0  0  0  0
  -26.0340  -15.1670   20.4680 N   0  0  0  0  0  0  0  0  0  0  0  0
  -25.3150  -15.8670   20.6170 H   0  0  0  0  0  0  0  0  0  0  0  0
  -26.9050  -15.5590   20.1340 H   0  0  0  0  0  0  0  0  0  0  0  0
  -31.5600  -16.7550   19.5070 O   0  0  0  0  0  0  0  0  0  0  0  0
  -32.3150  -16.1690   19.4130 H   0  0  0  0  0  0  0  0  0  0  0  0
  2  1  2  0
  2  9  1  0
  3  2  1  0
  4  3  2  0
  4  5  1  0
  5  1  1  0
  9  8  1  6
  9  6  1  0
  9  7  1  0
 12 10  1  6
 12  3  1  0
 12 11  1  0
 13 14  1  0
 13 12  1  0
 15 16  1  0
 15 14  1  0
 17 19  1  0
 17 16  1  0
 18 29  2  0
 19 24  1  0
 20 28  1  0
 20 30  1  0
 21 27  1  0
 21 23  1  0
 22 28  1  0
 23 22  1  0
 24 23  2  0
 25 26  1  0
 25 19  2  0
 26 21  2  0
 27 20  1  0
 28 18  1  0
 30 32  2  0
 31 30  1  0
 33 31  1  0
 34 43  2  0
 34 39  1  0
 35 31  1  0
 35 39  1  0
 36 35  1  0
 37 38  1  0
 37 36  1  0
 38 34  1  0
 39 40  2  0
 40 41  1  0
 42 41  2  0
 43 42  1  0
 44 18  1  0
 44 49  1  0
 44 45  1  0
 45 48  1  1
 45 46  1  0
 47 45  1  0
 49 52  1  0
 50 49  1  0
 50 54  1  0
 51 50  2  0
 54 53  1  0
 54 56  1  0
 56 57  1  0
 56 55  1  0
 58  5  1  0
 60 59  1  6
 60 58  1  0
 61 60  1  0
 61 67  1  0
 62 67  1  0
 63 64  1  0
 63 62  1  0
 65 64  1  0
 65 72  1  0
 65 66  1  0
 67 66  1  0
 68 61  2  0
 69 70  2  0
 70 89  1  0
 71 70  1  0
 71 74  1  0
 72 73  1  0
 72 69  1  0
 73 71  2  0
 74 75  1  0
 75 76  2  0
 77 80  1  0
 77 76  1  0
 78 77  2  0
 79 78  1  0
 79 74  2  0
 80 81  1  0
 81 82  1  0
 82 83  2  0
 84 83  1  0
 84 88  1  0
 85 84  2  0
 86 81  2  0
 86 85  1  0
 87 86  1  0
 89 90  1  0
 90 93  1  0
 90 92  1  0
 91 89  2  0
 94 69  1  0
 94 95  1  0
 96 94  1  0
 97 60  1  0
 98 97  1  0
M  ISO  4  16 101  17 101  60 100  61 100
M  END
>  <TORSDO>  (40) 
F 25

>  <SCORE>  (40) 
-8.860

>  <name>  (40) 
41

>  <ligand_id>  (40) 
41

>  <original_smiles>  (40) 
[H]OC(C(=O)N1C([H])([H])C([H])([H])C([H])([H])C([H])(n2nc(-c3c([H])c([H])c(Oc4c([H])c([H])c(F)c([H])c4F)c([H])c3[H])c(C(=O)N([H])[H])c2N([H])[H])C1([H])[H])(C([H])([H])[H])C([H])([H])n1nc(C(C([H])([H])[H])(C([H])([H])[H])C([H])([H])C([H])([H])C([H])([H])C([H])([H])Oc2c([H])c([H])c3c(c2[H])C([H])([H])N(C(=O)C([H])(N([H])C(=O)C([H])(N([H])C([H])([H])[H])C([H])([H])[H])C(C([H])([H])[H])(C([H])([H])[H])C([H])([H])[H])C([H])(C(=O)N([H])C2([H])c4c([H])c([H])c([H])c([H])c4C([H])([H])C([H])([H])C2([H])[H])C3([H])[H])c(C(C([H])([H])[H])(C([H])([H])[H])C([H])([H])[H])c1[H]

>  <smiles>  (40) 
[H]OC(C(=O)N1C([H])([H])C([H])([H])C([H])([H])C([H])(n2nc(-c3c([H])c([H])c(Oc4c([H])c([H])c(F)c([H])c4F)c([H])c3[H])c(C(=O)N([H])[H])c2N([H])[H])C1([H])[H])(C([H])([H])[H])C([H])([H])n1nc(C(C([H])([H])[H])(C([H])([H])[H])C([H])([H])C([H])([H])C([H])([H])C([H])([H])Oc2c([H])c([H])c3c(c2[H])C([H])([H])N(C(=O)C([H])(N([H])C(=O)C([H])(N([H])C([H])([H])[H])C([H])([H])[H])C(C([H])([H])[H])(C([H])([H])[H])C([H])([H])[H])C([H])(C(=O)N([H])C2([H])c4c([H])c([H])c([H])c([H])c4C([H])([H])C([H])([H])C2([H])[H])C3([H])[H])c(C(C([H])([H])[H])(C([H])([H])[H])C([H])([H])[H])c1[H]

$$$$
42:0:0
     RDKit          3D

 92100  0  0  1  0  0  0  0  0999 V2000
  -30.7940  -20.9180   20.1310 C   0  0  0  0  0  3  0  0  0  0  0  0
  -29.3750  -20.9620   20.2050 C   0  0  0  0  0  0  0  0  0  0  0  0
  -31.1410  -19.5950   19.9550 C   0  0  0  0  0  0  0  0  0  0  0  0
  -32.5080  -19.0330   19.7140 C   0  0  0  0  0  1  0  0  0  0  0  0
  -28.9170  -19.6780   20.1300 N   0  0  0  0  0  0  0  0  0  0  0  0
  -29.9880  -18.8120   19.9700 N   0  0  0  0  0  0  0  0  0  0  0  0
  -27.2160  -22.0350   19.4490 C   0  0  0  0  0  1  0  0  0  0  0  0
  -27.9040  -22.1020   21.8660 C   0  0  0  0  0  1  0  0  0  0  0  0
  -28.4130  -22.2070   20.4150 C   0  0  1  0  0  0  0  0  0  0  0  0
  -29.0200  -23.7100   20.2130 C   0  0  0  0  0  3  0  0  0  0  0  0
  -27.9970  -24.9490   20.0030 C   0  0  0  0  0  3  0  0  0  0  0  0
  -28.3220  -26.4160   20.1010 O   0  0  0  0  0  0  0  0  0  0  0  0
  -24.6420  -31.8570   23.2220 C   0  0  0  0  0  0  0  0  0  0  0  0
  -27.2360  -27.3270   20.0600 C   0  0  0  0  0  0  0  0  0  0  0  0
  -23.4370  -30.4990   21.5540 C   0  0  0  0  0  3  0  0  0  0  0  0
  -24.8850  -28.9840   20.0900 C   0  0  0  0  0  0  0  0  0  0  0  0
  -25.9850  -30.8070   21.3790 C   0  0  0  0  0  2  0  0  0  0  0  0
  -26.0640  -29.4460   20.6930 C   0  0  0  0  0  0  0  0  0  0  0  0
  -27.2450  -28.6330   20.6630 C   0  0  0  0  0  3  0  0  0  0  0  0
  -26.0290  -26.9430   19.4290 C   0  0  0  0  0  3  0  0  0  0  0  0
  -24.8750  -27.7410   19.4490 C   0  0  0  0  0  3  0  0  0  0  0  0
  -23.6490  -29.8570   20.1600 C   0  0  0  0  0  2  0  0  0  0  0  0
  -24.7070  -31.0710   22.1060 N   0  0  0  0  0  0  0  0  0  0  0  0
  -23.5590  -32.1260   23.7600 O   0  0  0  0  0  0  0  0  0  0  0  0
  -22.7730  -29.4610   22.4900 C   0  0  0  0  0  0  0  0  0  0  0  0
  -21.4450  -29.2940   22.3640 N   0  0  0  0  0  0  0  0  0  0  0  0
  -23.4500  -28.8090   23.2900 O   0  0  0  0  0  0  0  0  0  0  0  0
  -20.9550  -29.8750   21.6970 H   0  0  0  0  0  0  0  0  0  0  0  0
  -18.0610  -28.1130   22.8670 C   0  0  0  0  0  0  0  0  0  0  0  0
  -20.6250  -28.3420   23.1160 C   0  0  0  0  0  3  0  0  0  0  0  0
  -20.7080  -26.9270   22.4980 C   0  0  0  0  0  2  0  0  0  0  0  0
  -19.5910  -26.6410   21.4890 C   0  0  0  0  0  2  0  0  0  0  0  0
  -18.2170  -26.7820   22.1510 C   0  0  0  0  0  2  0  0  0  0  0  0
  -19.1910  -28.8530   23.3060 C   0  0  0  0  0  0  0  0  0  0  0  0
  -18.9900  -30.1000   23.9380 C   0  0  0  0  0  3  0  0  0  0  0  0
  -17.6920  -30.6060   24.1360 C   0  0  0  0  0  3  0  0  0  0  0  0
  -16.5750  -29.8630   23.7110 C   0  0  0  0  0  3  0  0  0  0  0  0
  -16.7620  -28.6190   23.0820 C   0  0  0  0  0  3  0  0  0  0  0  0
  -25.9240  -32.4750   23.8580 C   0  0  0  0  0  3  0  0  0  0  0  0
  -25.6180  -33.8690   24.2080 N   0  0  0  0  0  0  0  0  0  0  0  0
  -25.9400  -34.9310   23.4580 C   0  0  0  0  0  0  0  0  0  0  0  0
  -26.5970  -34.8390   22.4170 O   0  0  0  0  0  0  0  0  0  0  0  0
  -25.0340  -34.0170   25.0190 H   0  0  0  0  0  0  0  0  0  0  0  0
  -24.2070  -36.7310   23.1570 C   0  0  0  0  0  1  0  0  0  0  0  0
  -25.4620  -36.3130   23.9400 C   0  0  0  0  0  3  0  0  0  0  0  0
  -27.6100  -37.1950   24.7460 C   0  0  0  0  0  1  0  0  0  0  0  0
  -26.4940  -37.3650   23.8190 N   0  0  0  0  0  0  0  0  0  0  0  0
  -26.0900  -38.2840   23.9760 H   0  0  0  0  0  0  0  0  0  0  0  0
  -26.4280  -31.6850   25.1280 C   0  0  1  0  0  0  0  0  0  0  0  0
  -25.3230  -31.4410   26.1820 C   0  0  0  0  0  1  0  0  0  0  0  0
  -27.0070  -30.3080   24.7270 C   0  0  0  0  0  1  0  0  0  0  0  0
  -27.5770  -32.4680   25.8060 C   0  0  0  0  0  1  0  0  0  0  0  0
  -29.8250  -17.3360   19.6220 C   0  0  0  0  0  2  0  0  0  0  0  0
  -30.9170  -16.5920   21.8690 C   0  0  0  0  0  1  0  0  0  0  0  0
  -30.0420  -16.1380   20.6830 C   0  0  1  0  0  0  0  0  0  0  0  0
  -28.8380  -15.9320   21.2140 F   0  0  0  0  0  0  0  0  0  0  0  0
  -30.6400  -14.7490   20.1100 C   0  0  0  0  0  0  0  0  0  0  0  0
  -30.3740  -12.4940   19.0580 C   0  0  0  0  0  2  0  0  0  0  0  0
  -29.3910  -12.6080   17.8720 C   0  0  0  0  0  2  0  0  0  0  0  0
  -27.9350  -12.4470   18.3510 C   0  0  0  0  0  2  0  0  0  0  0  0
  -27.6210  -13.3010   19.6090 C   0  0  0  0  0  3  0  0  0  0  0  0
  -28.7210  -13.1400   20.6800 C   0  0  0  0  0  2  0  0  0  0  0  0
  -29.9970  -13.5260   20.0590 N   0  0  0  0  0  0  0  0  0  0  0  0
  -31.7720  -14.8240   19.6180 O   0  0  0  0  0  0  0  0  0  0  0  0
  -25.2580  -13.8950   20.4160 C   0  0  0  0  0  0  0  0  0  0  0  0
  -24.2020  -13.1210   20.8180 C   0  0  0  0  0  0  0  0  0  0  0  0
  -24.6600  -11.7690   20.7610 C   0  0  0  0  0  0  0  0  0  0  0  0
  -26.2910  -13.0140   20.1400 N   0  0  0  0  0  0  0  0  0  0  0  0
  -25.9390  -11.7300   20.4040 N   0  0  0  0  0  0  0  0  0  0  0  0
  -23.9370  -10.5070   20.9730 C   0  0  0  0  0  0  0  0  0  0  0  0
  -24.3910   -9.5420   21.8970 C   0  0  0  0  0  3  0  0  0  0  0  0
  -23.6690   -8.3450   22.0960 C   0  0  0  0  0  3  0  0  0  0  0  0
  -22.4780   -8.1070   21.3710 C   0  0  0  0  0  0  0  0  0  0  0  0
  -22.0420   -9.0620   20.4340 C   0  0  0  0  0  3  0  0  0  0  0  0
  -22.7640  -10.2490   20.2350 C   0  0  0  0  0  3  0  0  0  0  0  0
  -21.7240   -6.9630   21.4780 O   0  0  0  0  0  0  0  0  0  0  0  0
  -21.6930   -6.2290   22.6360 C   0  0  0  0  0  0  0  0  0  0  0  0
  -21.2740   -6.7890   23.8620 C   0  0  0  0  0  3  0  0  0  0  0  0
  -21.1910   -5.9810   25.0140 C   0  0  0  0  0  3  0  0  0  0  0  0
  -21.5160   -4.6130   24.9400 C   0  0  0  0  0  0  0  0  0  0  0  0
  -21.9290   -4.0520   23.7180 C   0  0  0  0  0  3  0  0  0  0  0  0
  -22.0140   -4.8580   22.5690 C   0  0  0  0  0  0  0  0  0  0  0  0
  -22.3910   -4.3070   21.3890 F   0  0  0  0  0  0  0  0  0  0  0  0
  -21.4310   -3.8330   26.0430 F   0  0  0  0  0  0  0  0  0  0  0  0
  -22.8200  -13.6010   21.1500 C   0  0  0  0  0  0  0  0  0  0  0  0
  -22.1250  -12.8960   22.0380 N   0  0  0  0  0  0  0  0  0  0  0  0
  -22.3640  -14.6330   20.6590 O   0  0  0  0  0  0  0  0  0  0  0  0
  -22.5090  -12.0620   22.4570 H   0  0  0  0  0  0  0  0  0  0  0  0
  -21.1970  -13.1950   22.3010 H   0  0  0  0  0  0  0  0  0  0  0  0
  -25.4190  -15.2660   20.2490 N   0  0  0  0  0  0  0  0  0  0  0  0
  -24.6700  -15.9260   20.4210 H   0  0  0  0  0  0  0  0  0  0  0  0
  -26.2940  -15.7110   20.0010 H   0  0  0  0  0  0  0  0  0  0  0  0
  1  2  1  0
  2  9  1  0
  3  6  1  0
  3  1  2  0
  4  3  1  0
  5  2  2  0
  6  5  1  0
  9  7  1  6
  9  8  1  0
 10  9  1  0
 11 12  1  0
 11 10  2  0
 13 24  2  0
 14 12  1  0
 14 19  1  0
 15 23  1  0
 15 25  1  0
 16 22  1  0
 16 18  1  0
 17 23  1  0
 18 17  1  0
 19 18  2  0
 20 21  1  0
 20 14  2  0
 21 16  2  0
 22 15  1  0
 23 13  1  0
 25 27  2  0
 26 25  1  0
 28 26  1  0
 29 38  2  0
 29 34  1  0
 30 26  1  0
 30 34  1  0
 31 30  1  0
 32 33  1  0
 32 31  1  0
 33 29  1  0
 34 35  2  0
 35 36  1  0
 37 36  2  0
 38 37  1  0
 39 13  1  0
 39 40  1  0
 39 49  1  0
 40 43  1  0
 41 45  1  0
 41 40  1  0
 42 41  2  0
 45 44  1  0
 47 45  1  0
 47 48  1  0
 47 46  1  0
 49 52  1  1
 49 50  1  0
 51 49  1  0
 53  6  1  0
 53 55  1  0
 55 56  1  0
 55 54  1  1
 57 55  1  0
 58 63  1  0
 59 60  1  0
 59 58  1  0
 61 60  1  0
 61 68  1  0
 61 62  1  0
 63 57  1  0
 63 62  1  0
 64 57  2  0
 65 66  2  0
 66 85  1  0
 67 66  1  0
 67 70  1  0
 68 69  1  0
 68 65  1  0
 69 67  2  0
 70 71  1  0
 71 72  2  0
 73 76  1  0
 73 72  1  0
 74 73  2  0
 75 74  1  0
 75 70  2  0
 76 77  1  0
 77 78  1  0
 78 79  2  0
 80 79  1  0
 80 84  1  0
 81 80  2  0
 82 77  2  0
 82 81  1  0
 83 82  1  0
 85 86  1  0
 86 89  1  0
 86 88  1  0
 87 85  2  0
 90 65  1  0
 90 91  1  0
 92 90  1  0
M  ISO  4  11 101  12 101  55 100  57 100
M  END
>  <TORSDO>  (41) 
F 21

>  <SCORE>  (41) 
-13.731

>  <name>  (41) 
42

>  <ligand_id>  (41) 
42

>  <original_smiles>  (41) 
[H]c1c([H])c([H])c2c(c1[H])C([H])([H])C([H])([H])C([H])([H])C2([H])N([H])C(=O)C1([H])N(C(=O)C([H])(N([H])C(=O)C([H])(N([H])C([H])([H])[H])C([H])([H])[H])C(C([H])([H])[H])(C([H])([H])[H])C([H])([H])[H])C([H])([H])c2c([H])c(OC([H])([H])C([H])([H])C(c3nn(C([H])([H])C(F)(C(=O)N4C([H])([H])C([H])([H])C([H])([H])C([H])(n5nc(-c6c([H])c([H])c(Oc7c([H])c([H])c(F)c([H])c7F)c([H])c6[H])c(C(=O)N([H])[H])c5N([H])[H])C4([H])[H])C([H])([H])[H])c(C([H])([H])[H])c3[H])(C([H])([H])[H])C([H])([H])[H])c([H])c([H])c2C1([H])[H]

>  <smiles>  (41) 
[H]c1c([H])c([H])c2c(c1[H])C([H])([H])C([H])([H])C([H])([H])C2([H])N([H])C(=O)C1([H])N(C(=O)C([H])(N([H])C(=O)C([H])(N([H])C([H])([H])[H])C([H])([H])[H])C(C([H])([H])[H])(C([H])([H])[H])C([H])([H])[H])C([H])([H])c2c([H])c(OC([H])([H])C([H])([H])C(c3nn(C([H])([H])C(F)(C(=O)N4C([H])([H])C([H])([H])C([H])([H])C([H])(n5nc(-c6c([H])c([H])c(Oc7c([H])c([H])c(F)c([H])c7F)c([H])c6[H])c(C(=O)N([H])[H])c5N([H])[H])C4([H])[H])C([H])([H])[H])c(C([H])([H])[H])c3[H])(C([H])([H])[H])C([H])([H])[H])c([H])c([H])c2C1([H])[H]

$$$$
43:0:0
     RDKit          3D

 98106  0  0  1  0  0  0  0  0999 V2000
  -27.3660  -20.7350   18.7240 C   0  0  0  0  0  1  0  0  0  0  0  0
  -28.5900  -21.0370   19.6300 C   0  0  2  0  0  0  0  0  0  0  0  0
  -29.3170  -18.7700   18.6330 C   0  0  0  0  0  2  0  0  0  0  0  0
  -30.7200  -17.8120   19.9770 C   0  0  0  0  0  0  0  0  0  0  0  0
  -30.5820  -19.1940   20.3030 C   0  0  0  0  0  0  0  0  0  0  0  0
  -29.9270  -17.6070   18.8550 N   0  0  0  0  0  2  0  0  0  0  0  0
  -29.4820  -19.7530   19.5520 N   0  0  0  0  0  0  0  0  0  0  0  0
  -31.4220  -20.0070   21.2620 C   0  0  1  0  0  0  0  0  0  0  0  0
  -32.7120  -19.9280   20.9620 F   0  0  0  0  0  0  0  0  0  0  0  0
  -31.1660  -21.3070   21.2060 F   0  0  0  0  0  0  0  0  0  0  0  0
  -31.2840  -19.6230   22.5290 F   0  0  0  0  0  0  0  0  0  0  0  0
  -33.0250  -17.1320   20.7840 C   0  0  0  0  0  1  0  0  0  0  0  0
  -31.0630  -16.3250   22.0240 C   0  0  0  0  0  1  0  0  0  0  0  0
  -31.5760  -16.6070   20.5940 C   0  0  1  0  0  0  0  0  0  0  0  0
  -31.7980  -15.2340   19.7200 C   0  0  0  0  0  0  0  0  0  0  0  0
  -31.3390  -12.9470   18.7580 C   0  0  0  0  0  2  0  0  0  0  0  0
  -30.3380  -12.9990   17.5820 C   0  0  0  0  0  2  0  0  0  0  0  0
  -28.8860  -12.9240   18.0960 C   0  0  0  0  0  2  0  0  0  0  0  0
  -28.6420  -13.8880   19.2830 C   0  0  0  0  0  3  0  0  0  0  0  0
  -29.7550  -13.7560   20.3430 C   0  0  0  0  0  2  0  0  0  0  0  0
  -31.0440  -14.0660   19.7030 N   0  0  0  0  0  0  0  0  0  0  0  0
  -32.8210  -15.2200   19.0210 O   0  0  0  0  0  0  0  0  0  0  0  0
  -26.4130  -14.6760   20.2790 C   0  0  0  0  0  0  0  0  0  0  0  0
  -25.3050  -13.9980   20.6950 C   0  0  0  0  0  0  0  0  0  0  0  0
  -25.5970  -12.6090   20.5190 C   0  0  0  0  0  0  0  0  0  0  0  0
  -27.3190  -13.7100   19.8710 N   0  0  0  0  0  0  0  0  0  0  0  0
  -26.8400  -12.4550   20.0730 N   0  0  0  0  0  0  0  0  0  0  0  0
  -24.7470  -11.4250   20.6840 C   0  0  0  0  0  0  0  0  0  0  0  0
  -25.1080  -10.3710   21.5530 C   0  0  0  0  0  3  0  0  0  0  0  0
  -24.2630   -9.2510   21.7090 C   0  0  0  0  0  3  0  0  0  0  0  0
  -23.0430   -9.1780   20.9990 C   0  0  0  0  0  0  0  0  0  0  0  0
  -22.6970  -10.2200   20.1180 C   0  0  0  0  0  3  0  0  0  0  0  0
  -23.5410  -11.3310   19.9580 C   0  0  0  0  0  3  0  0  0  0  0  0
  -22.1740   -8.1170   21.0660 O   0  0  0  0  0  0  0  0  0  0  0  0
  -22.0350   -7.3720   22.2090 C   0  0  0  0  0  0  0  0  0  0  0  0
  -21.6780   -7.9590   23.4440 C   0  0  0  0  0  3  0  0  0  0  0  0
  -21.4760   -7.1480   24.5770 C   0  0  0  0  0  3  0  0  0  0  0  0
  -21.6230   -5.7520   24.4810 C   0  0  0  0  0  0  0  0  0  0  0  0
  -21.9780   -5.1640   23.2550 C   0  0  0  0  0  3  0  0  0  0  0  0
  -22.1800   -5.9730   22.1210 C   0  0  0  0  0  0  0  0  0  0  0  0
  -22.4940   -5.3970   20.9350 F   0  0  0  0  0  0  0  0  0  0  0  0
  -21.4290   -4.9720   25.5710 F   0  0  0  0  0  0  0  0  0  0  0  0
  -24.0010  -14.5970   21.1430 C   0  0  0  0  0  0  0  0  0  0  0  0
  -23.3010  -13.9430   22.0590 N   0  0  0  0  0  0  0  0  0  0  0  0
  -23.6190  -15.6840   20.7050 O   0  0  0  0  0  0  0  0  0  0  0  0
  -23.6220  -13.0600   22.4310 H   0  0  0  0  0  0  0  0  0  0  0  0
  -22.4280  -14.3240   22.3960 H   0  0  0  0  0  0  0  0  0  0  0  0
  -26.7220  -16.0330   20.1850 N   0  0  0  0  0  0  0  0  0  0  0  0
  -26.0490  -16.7570   20.4120 H   0  0  0  0  0  0  0  0  0  0  0  0
  -27.5850  -16.4030   19.8070 H   0  0  0  0  0  0  0  0  0  0  0  0
  -28.4900  -21.6260   22.3030 C   0  0  0  0  0  1  0  0  0  0  0  0
  -27.8320  -21.1270   21.0120 C   0  0  0  0  0  2  0  0  0  0  0  0
  -29.2670  -22.4840   19.2220 C   0  0  0  0  0  2  0  0  0  0  0  0
  -27.2670  -23.6570   17.8020 C   0  0  0  0  0  1  0  0  0  0  0  0
  -29.6230  -24.3030   17.4270 C   0  0  0  0  0  1  0  0  0  0  0  0
  -28.6260  -23.8620   18.5230 C   0  0  2  0  0  0  0  0  0  0  0  0
  -28.4230  -25.1680   19.4800 C   0  0  0  0  0  2  0  0  0  0  0  0
  -28.4630  -26.5910   18.9680 O   0  0  0  0  0  0  0  0  0  0  0  0
  -24.6720  -31.4900   22.7820 C   0  0  0  0  0  0  0  0  0  0  0  0
  -27.3320  -27.4160   19.1250 C   0  0  0  0  0  0  0  0  0  0  0  0
  -23.4590  -30.2320   21.0370 C   0  0  0  0  0  3  0  0  0  0  0  0
  -24.9130  -28.9200   19.3970 C   0  0  0  0  0  0  0  0  0  0  0  0
  -25.9710  -30.7060   20.7800 C   0  0  0  0  0  2  0  0  0  0  0  0
  -26.0900  -29.4050   19.9830 C   0  0  0  0  0  0  0  0  0  0  0  0
  -27.3120  -28.6720   19.8260 C   0  0  0  0  0  3  0  0  0  0  0  0
  -26.1210  -26.9910   18.5500 C   0  0  0  0  0  3  0  0  0  0  0  0
  -24.9290  -27.7180   18.6760 C   0  0  0  0  0  3  0  0  0  0  0  0
  -23.6470  -29.7230   19.5850 C   0  0  0  0  0  2  0  0  0  0  0  0
  -24.7220  -30.8280   21.5880 N   0  0  0  0  0  0  0  0  0  0  0  0
  -23.6040  -31.6390   23.3910 O   0  0  0  0  0  0  0  0  0  0  0  0
  -22.8870  -29.0830   21.9040 C   0  0  0  0  0  0  0  0  0  0  0  0
  -21.5650  -28.8620   21.8250 N   0  0  0  0  0  0  0  0  0  0  0  0
  -23.6290  -28.3960   22.6110 O   0  0  0  0  0  0  0  0  0  0  0  0
  -21.0190  -29.4760   21.2390 H   0  0  0  0  0  0  0  0  0  0  0  0
  -18.2830  -27.4120   22.3090 C   0  0  0  0  0  0  0  0  0  0  0  0
  -20.8300  -27.8000   22.5160 C   0  0  0  0  0  3  0  0  0  0  0  0
  -20.9930  -26.4460   21.7860 C   0  0  0  0  0  2  0  0  0  0  0  0
  -19.8700  -26.1660   20.7830 C   0  0  0  0  0  2  0  0  0  0  0  0
  -18.5090  -26.1550   21.4850 C   0  0  0  0  0  2  0  0  0  0  0  0
  -19.3730  -28.1910   22.7820 C   0  0  0  0  0  0  0  0  0  0  0  0
  -19.1070  -29.3640   23.5210 C   0  0  0  0  0  3  0  0  0  0  0  0
  -17.7840  -29.7640   23.7830 C   0  0  0  0  0  3  0  0  0  0  0  0
  -16.7090  -28.9830   23.3210 C   0  0  0  0  0  3  0  0  0  0  0  0
  -16.9600  -27.8070   22.5930 C   0  0  0  0  0  3  0  0  0  0  0  0
  -25.9480  -32.1130   23.4260 C   0  0  0  0  0  3  0  0  0  0  0  0
  -26.5860  -31.2080   24.5520 C   0  0  1  0  0  0  0  0  0  0  0  0
  -25.5820  -30.7650   25.6430 C   0  0  0  0  0  1  0  0  0  0  0  0
  -27.2090  -29.9290   23.9410 C   0  0  0  0  0  1  0  0  0  0  0  0
  -27.7400  -31.9700   25.2460 C   0  0  0  0  0  1  0  0  0  0  0  0
  -25.5820  -33.4310   23.9670 N   0  0  0  0  0  0  0  0  0  0  0  0
  -25.8310  -34.5990   23.3640 C   0  0  0  0  0  0  0  0  0  0  0  0
  -26.4640  -34.6850   22.3090 O   0  0  0  0  0  0  0  0  0  0  0  0
  -25.0200  -33.4300   24.8050 H   0  0  0  0  0  0  0  0  0  0  0  0
  -24.0030  -36.3260   23.3380 C   0  0  0  0  0  1  0  0  0  0  0  0
  -25.2940  -35.8780   24.0400 C   0  0  0  0  0  3  0  0  0  0  0  0
  -27.4150  -36.7530   24.9150 C   0  0  0  0  0  1  0  0  0  0  0  0
  -26.2660  -36.9920   24.0430 N   0  0  0  0  0  0  0  0  0  0  0  0
  -25.8210  -37.8580   24.3370 H   0  0  0  0  0  0  0  0  0  0  0  0
  2  1  1  6
  2 52  1  0
  3  6  1  0
  3  7  1  0
  4  5  2  0
  4 14  1  0
  5  8  1  0
  6  4  1  0
  7  2  1  0
  7  5  1  0
  8 11  1  1
  9  8  1  0
 10  8  1  0
 14 12  1  1
 14 13  1  0
 15 14  1  0
 16 21  1  0
 17 18  1  0
 17 16  1  0
 19 18  1  0
 19 26  1  0
 19 20  1  0
 21 15  1  0
 21 20  1  0
 22 15  2  0
 23 24  2  0
 24 43  1  0
 25 28  1  0
 25 24  1  0
 26 27  1  0
 26 23  1  0
 27 25  2  0
 28 29  1  0
 29 30  2  0
 31 34  1  0
 31 30  1  0
 32 31  2  0
 33 32  1  0
 33 28  2  0
 34 35  1  0
 35 36  1  0
 36 37  2  0
 38 37  1  0
 38 42  1  0
 39 38  2  0
 40 35  2  0
 40 39  1  0
 41 40  1  0
 43 44  1  0
 44 47  1  0
 44 46  1  0
 45 43  2  0
 48 23  1  0
 48 49  1  0
 50 48  1  0
 52 51  1  0
 53  2  1  0
 56 54  1  6
 55 56  1  0
 56 53  1  0
 56 57  1  0
 58 60  1  0
 58 57  1  0
 59 70  2  0
 60 65  1  0
 61 69  1  0
 61 71  1  0
 62 68  1  0
 62 64  1  0
 63 69  1  0
 64 63  1  0
 65 64  2  0
 66 67  1  0
 66 60  2  0
 67 62  2  0
 68 61  1  0
 69 59  1  0
 71 73  2  0
 72 71  1  0
 74 72  1  0
 75 84  2  0
 75 80  1  0
 76 72  1  0
 76 80  1  0
 77 76  1  0
 78 79  1  0
 78 77  1  0
 79 75  1  0
 80 81  2  0
 81 82  1  0
 83 82  2  0
 84 83  1  0
 85 59  1  0
 85 90  1  0
 85 86  1  0
 86 89  1  1
 86 87  1  0
 88 86  1  0
 90 93  1  0
 91 90  1  0
 91 95  1  0
 92 91  2  0
 95 94  1  0
 95 97  1  0
 97 98  1  0
 97 96  1  0
M  ISO  4  14 100  15 100  57 101  58 101
M  END
>  <TORSDO>  (42) 
F 23

>  <SCORE>  (42) 
-8.803

>  <name>  (42) 
43

>  <ligand_id>  (42) 
43

>  <original_smiles>  (42) 
[H]c1c([H])c([H])c2c(c1[H])C([H])([H])C([H])([H])C([H])([H])C2([H])N([H])C(=O)C1([H])N(C(=O)C([H])(N([H])C(=O)C([H])(N([H])C([H])([H])[H])C([H])([H])[H])C(C([H])([H])[H])(C([H])([H])[H])C([H])([H])[H])C([H])([H])c2c([H])c(OC([H])([H])C(C([H])([H])[H])(C([H])([H])[H])C([H])([H])C(n3c([H])nc(C(C(=O)N4C([H])([H])C([H])([H])C([H])([H])C([H])(n5nc(-c6c([H])c([H])c(Oc7c([H])c([H])c(F)c([H])c7F)c([H])c6[H])c(C(=O)N([H])[H])c5N([H])[H])C4([H])[H])(C([H])([H])[H])C([H])([H])[H])c3C(F)(F)F)(C([H])([H])[H])C([H])([H])C([H])([H])[H])c([H])c([H])c2C1([H])[H]

>  <smiles>  (42) 
[H]c1c([H])c([H])c2c(c1[H])C([H])([H])C([H])([H])C([H])([H])C2([H])N([H])C(=O)C1([H])N(C(=O)C([H])(N([H])C(=O)C([H])(N([H])C([H])([H])[H])C([H])([H])[H])C(C([H])([H])[H])(C([H])([H])[H])C([H])([H])[H])C([H])([H])c2c([H])c(OC([H])([H])C(C([H])([H])[H])(C([H])([H])[H])C([H])([H])C(n3c([H])nc(C(C(=O)N4C([H])([H])C([H])([H])C([H])([H])C([H])(n5nc(-c6c([H])c([H])c(Oc7c([H])c([H])c(F)c([H])c7F)c([H])c6[H])c(C(=O)N([H])[H])c5N([H])[H])C4([H])[H])(C([H])([H])[H])C([H])([H])[H])c3C(F)(F)F)(C([H])([H])[H])C([H])([H])C([H])([H])[H])c([H])c([H])c2C1([H])[H]

$$$$
45:0:0
     RDKit          3D

 92100  0  0  1  0  0  0  0  0999 V2000
  -27.7530  -21.8430   21.8910 C   0  0  0  0  0  1  0  0  0  0  0  0
  -27.5650  -21.0990   19.5520 C   0  0  0  0  0  1  0  0  0  0  0  0
  -28.5600  -21.6790   20.5810 C   0  0  1  0  0  0  0  0  0  0  0  0
  -29.1140  -23.0680   19.9700 C   0  0  0  0  0  2  0  0  0  0  0  0
  -29.2650  -24.4530   20.7530 C   0  0  0  0  0  2  0  0  0  0  0  0
  -28.2400  -25.6580   20.6870 C   0  0  0  0  0  2  0  0  0  0  0  0
  -28.6220  -26.9900   20.1830 O   0  0  0  0  0  0  0  0  0  0  0  0
  -24.6960  -32.0060   23.4180 C   0  0  0  0  0  0  0  0  0  0  0  0
  -27.5140  -27.8280   20.1020 C   0  0  0  0  0  0  0  0  0  0  0  0
  -23.5500  -30.6170   21.7320 C   0  0  0  0  0  3  0  0  0  0  0  0
  -25.0650  -29.2590   20.1910 C   0  0  0  0  0  0  0  0  0  0  0  0
  -26.0550  -31.1220   21.5180 C   0  0  0  0  0  2  0  0  0  0  0  0
  -26.2080  -29.7930   20.8030 C   0  0  0  0  0  0  0  0  0  0  0  0
  -27.4410  -29.0870   20.7550 C   0  0  0  0  0  3  0  0  0  0  0  0
  -26.3640  -27.3670   19.4210 C   0  0  0  0  0  3  0  0  0  0  0  0
  -25.1450  -28.0550   19.4810 C   0  0  0  0  0  3  0  0  0  0  0  0
  -23.7730  -30.0340   20.3150 C   0  0  0  0  0  2  0  0  0  0  0  0
  -24.7840  -31.2650   22.2790 N   0  0  0  0  0  0  0  0  0  0  0  0
  -23.6110  -32.1870   23.9840 O   0  0  0  0  0  0  0  0  0  0  0  0
  -22.9750  -29.5130   22.6490 C   0  0  0  0  0  0  0  0  0  0  0  0
  -21.6870  -29.1880   22.4610 N   0  0  0  0  0  0  0  0  0  0  0  0
  -23.6910  -28.9530   23.4850 O   0  0  0  0  0  0  0  0  0  0  0  0
  -21.1640  -29.7030   21.7650 H   0  0  0  0  0  0  0  0  0  0  0  0
  -18.4760  -27.5390   22.7320 C   0  0  0  0  0  0  0  0  0  0  0  0
  -20.9480  -28.1500   23.1850 C   0  0  0  0  0  3  0  0  0  0  0  0
  -21.2880  -26.7420   22.6460 C   0  0  0  0  0  2  0  0  0  0  0  0
  -20.3200  -26.2620   21.5590 C   0  0  0  0  0  2  0  0  0  0  0  0
  -18.8870  -26.2210   22.0960 C   0  0  0  0  0  2  0  0  0  0  0  0
  -19.4450  -28.4530   23.2290 C   0  0  0  0  0  0  0  0  0  0  0  0
  -19.0130  -29.6780   23.7790 C   0  0  0  0  0  3  0  0  0  0  0  0
  -17.6430  -29.9990   23.8330 C   0  0  0  0  0  3  0  0  0  0  0  0
  -16.6880  -29.0890   23.3550 C   0  0  0  0  0  3  0  0  0  0  0  0
  -17.1050  -27.8580   22.8130 C   0  0  0  0  0  3  0  0  0  0  0  0
  -25.9530  -32.6860   24.0480 C   0  0  0  0  0  3  0  0  0  0  0  0
  -25.6080  -34.0880   24.3220 N   0  0  0  0  0  0  0  0  0  0  0  0
  -25.9390  -35.1220   23.5370 C   0  0  0  0  0  0  0  0  0  0  0  0
  -26.6390  -35.0000   22.5280 O   0  0  0  0  0  0  0  0  0  0  0  0
  -24.9920  -34.2560   25.1040 H   0  0  0  0  0  0  0  0  0  0  0  0
  -24.1830  -36.8620   23.0800 C   0  0  0  0  0  1  0  0  0  0  0  0
  -25.4110  -36.5140   23.9360 C   0  0  0  0  0  3  0  0  0  0  0  0
  -27.5080  -37.4720   24.7830 C   0  0  0  0  0  1  0  0  0  0  0  0
  -26.4250  -37.5850   23.8070 N   0  0  0  0  0  0  0  0  0  0  0  0
  -25.9970  -38.5010   23.9120 H   0  0  0  0  0  0  0  0  0  0  0  0
  -26.4600  -31.9660   25.3570 C   0  0  1  0  0  0  0  0  0  0  0  0
  -25.3450  -31.7220   26.4000 C   0  0  0  0  0  1  0  0  0  0  0  0
  -27.0960  -30.5970   25.0160 C   0  0  0  0  0  1  0  0  0  0  0  0
  -27.5630  -32.8160   26.0280 C   0  0  0  0  0  1  0  0  0  0  0  0
  -29.6840  -20.6100   20.8630 C   0  0  0  0  0  2  0  0  0  0  0  0
  -28.7860  -18.1870   21.1530 C   0  0  0  0  0  2  0  0  0  0  0  0
  -30.0810  -17.2550   19.8060 C   0  0  0  0  0  0  0  0  0  0  0  0
  -29.1380  -16.9520   20.7560 N   0  0  0  0  0  0  0  0  0  0  0  0
  -30.1730  -18.5760   19.5580 N   0  0  0  0  0  2  0  0  0  0  0  0
  -29.4510  -19.1730   20.5350 N   0  0  0  0  0  0  0  0  0  0  0  0
  -31.7240  -16.7290   17.9800 C   0  0  0  0  0  1  0  0  0  0  0  0
  -32.4360  -17.1420   20.3920 C   0  0  0  0  0  1  0  0  0  0  0  0
  -31.3560  -16.4660   19.4740 C   0  0  1  0  0  0  0  0  0  0  0  0
  -31.5900  -14.8980   19.6360 C   0  0  0  0  0  0  0  0  0  0  0  0
  -30.9970  -12.6370   18.8880 C   0  0  0  0  0  2  0  0  0  0  0  0
  -30.0450  -12.7140   17.6840 C   0  0  0  0  0  2  0  0  0  0  0  0
  -28.5970  -12.6530   18.1900 C   0  0  0  0  0  2  0  0  0  0  0  0
  -28.3220  -13.6640   19.3380 C   0  0  0  0  0  3  0  0  0  0  0  0
  -29.4400  -13.6890   20.4030 C   0  0  0  0  0  2  0  0  0  0  0  0
  -30.7280  -13.8340   19.7240 N   0  0  0  0  0  0  0  0  0  0  0  0
  -32.7540  -14.6260   19.3400 O   0  0  0  0  0  0  0  0  0  0  0  0
  -26.0500  -14.3650   20.2920 C   0  0  0  0  0  0  0  0  0  0  0  0
  -24.9640  -13.6420   20.7060 C   0  0  0  0  0  0  0  0  0  0  0  0
  -25.3290  -12.2660   20.5820 C   0  0  0  0  0  0  0  0  0  0  0  0
  -27.0100  -13.4330   19.9350 N   0  0  0  0  0  0  0  0  0  0  0  0
  -26.5890  -12.1630   20.1740 N   0  0  0  0  0  0  0  0  0  0  0  0
  -24.5290  -11.0480   20.7790 C   0  0  0  0  0  0  0  0  0  0  0  0
  -24.8940  -10.0640   21.7230 C   0  0  0  0  0  3  0  0  0  0  0  0
  -24.0960   -8.9130   21.9050 C   0  0  0  0  0  3  0  0  0  0  0  0
  -22.9170   -8.7400   21.1420 C   0  0  0  0  0  0  0  0  0  0  0  0
  -22.5700   -9.7120   20.1870 C   0  0  0  0  0  3  0  0  0  0  0  0
  -23.3680  -10.8530   20.0040 C   0  0  0  0  0  3  0  0  0  0  0  0
  -22.0940   -7.6440   21.2330 O   0  0  0  0  0  0  0  0  0  0  0  0
  -21.9130   -6.9750   22.4180 C   0  0  0  0  0  0  0  0  0  0  0  0
  -21.4400   -7.6290   23.5760 C   0  0  0  0  0  3  0  0  0  0  0  0
  -21.2020   -6.8900   24.7520 C   0  0  0  0  0  3  0  0  0  0  0  0
  -21.4230   -5.5010   24.7730 C   0  0  0  0  0  0  0  0  0  0  0  0
  -21.8890   -4.8470   23.6170 C   0  0  0  0  0  3  0  0  0  0  0  0
  -22.1300   -5.5820   22.4420 C   0  0  0  0  0  0  0  0  0  0  0  0
  -22.5590   -4.9440   21.3270 F   0  0  0  0  0  0  0  0  0  0  0  0
  -21.1890   -4.7900   25.8980 F   0  0  0  0  0  0  0  0  0  0  0  0
  -23.6310  -14.2000   21.1070 C   0  0  0  0  0  0  0  0  0  0  0  0
  -22.9360  -13.5390   22.0270 N   0  0  0  0  0  0  0  0  0  0  0  0
  -23.2150  -15.2580   20.6390 O   0  0  0  0  0  0  0  0  0  0  0  0
  -23.2850  -12.6820   22.4300 H   0  0  0  0  0  0  0  0  0  0  0  0
  -22.0430  -13.8990   22.3350 H   0  0  0  0  0  0  0  0  0  0  0  0
  -26.2940  -15.7270   20.1680 N   0  0  0  0  0  0  0  0  0  0  0  0
  -25.5930  -16.4230   20.3970 H   0  0  0  0  0  0  0  0  0  0  0  0
  -27.1860  -16.1360   19.9150 H   0  0  0  0  0  0  0  0  0  0  0  0
  3  2  1  6
  3 48  1  0
  3  1  1  0
  4  3  1  0
  4  5  1  0
  6  5  1  0
  7  6  1  0
  8 19  2  0
  9  7  1  0
  9 14  1  0
 10 18  1  0
 10 20  1  0
 11 17  1  0
 11 13  1  0
 12 18  1  0
 13 12  1  0
 14 13  2  0
 15 16  1  0
 15  9  2  0
 16 11  2  0
 17 10  1  0
 18  8  1  0
 20 22  2  0
 21 20  1  0
 23 21  1  0
 24 33  2  0
 24 29  1  0
 25 21  1  0
 25 29  1  0
 26 25  1  0
 27 28  1  0
 27 26  1  0
 28 24  1  0
 29 30  2  0
 30 31  1  0
 32 31  2  0
 33 32  1  0
 34  8  1  0
 34 35  1  0
 34 44  1  0
 35 38  1  0
 36 40  1  0
 36 35  1  0
 37 36  2  0
 40 39  1  0
 42 43  1  0
 42 40  1  0
 42 41  1  0
 44 47  1  1
 44 45  1  0
 46 44  1  0
 50 51  2  0
 51 49  1  0
 52 50  1  0
 52 53  1  0
 53 48  1  0
 53 49  1  0
 56 54  1  6
 56 57  1  0
 56 50  1  0
 56 55  1  0
 57 63  1  0
 58 63  1  0
 59 60  1  0
 59 58  1  0
 61 60  1  0
 61 68  1  0
 61 62  1  0
 63 62  1  0
 64 57  2  0
 65 66  2  0
 66 85  1  0
 67 66  1  0
 67 70  1  0
 68 69  1  0
 68 65  1  0
 69 67  2  0
 70 71  1  0
 71 72  2  0
 73 76  1  0
 73 72  1  0
 74 73  2  0
 75 74  1  0
 75 70  2  0
 76 77  1  0
 77 82  2  0
 77 78  1  0
 78 79  2  0
 79 80  1  0
 80 84  1  0
 81 80  2  0
 82 81  1  0
 83 82  1  0
 85 86  1  0
 86 89  1  0
 86 88  1  0
 87 85  2  0
 90 65  1  0
 90 91  1  0
 92 90  1  0
M  ISO  4   6 101   7 101  56 100  57 100
M  END
>  <TORSDO>  (43) 
F 22

>  <SCORE>  (43) 
-11.211

>  <name>  (43) 
45

>  <ligand_id>  (43) 
45

>  <original_smiles>  (43) 
[H]c1c([H])c([H])c2c(c1[H])C([H])([H])C([H])([H])C([H])([H])C2([H])N([H])C(=O)C1([H])N(C(=O)C([H])(N([H])C(=O)C([H])(N([H])C([H])([H])[H])C([H])([H])[H])C(C([H])([H])[H])(C([H])([H])[H])C([H])([H])[H])C([H])([H])c2c([H])c(OC([H])([H])C([H])([H])C([H])([H])C(C([H])([H])[H])(C([H])([H])[H])C([H])([H])n3nc(C(C(=O)N4C([H])([H])C([H])([H])C([H])([H])C([H])(n5nc(-c6c([H])c([H])c(Oc7c([H])c([H])c(F)c([H])c7F)c([H])c6[H])c(C(=O)N([H])[H])c5N([H])[H])C4([H])[H])(C([H])([H])[H])C([H])([H])[H])nc3[H])c([H])c([H])c2C1([H])[H]

>  <smiles>  (43) 
[H]c1c([H])c([H])c2c(c1[H])C([H])([H])C([H])([H])C([H])([H])C2([H])N([H])C(=O)C1([H])N(C(=O)C([H])(N([H])C(=O)C([H])(N([H])C([H])([H])[H])C([H])([H])[H])C(C([H])([H])[H])(C([H])([H])[H])C([H])([H])[H])C([H])([H])c2c([H])c(OC([H])([H])C([H])([H])C([H])([H])C(C([H])([H])[H])(C([H])([H])[H])C([H])([H])n3nc(C(C(=O)N4C([H])([H])C([H])([H])C([H])([H])C([H])(n5nc(-c6c([H])c([H])c(Oc7c([H])c([H])c(F)c([H])c7F)c([H])c6[H])c(C(=O)N([H])[H])c5N([H])[H])C4([H])[H])(C([H])([H])[H])C([H])([H])[H])nc3[H])c([H])c([H])c2C1([H])[H]

$$$$
46:0:0
     RDKit          3D

 95103  0  0  1  0  0  0  0  0999 V2000
  -30.0870  -21.9870   19.6850 C   0  0  0  0  0  3  0  0  0  0  0  0
  -30.1370  -22.8250   20.7770 C   0  0  0  0  0  0  0  0  0  0  0  0
  -30.3210  -21.9010   21.8770 C   0  0  0  0  0  0  0  0  0  0  0  0
  -30.3330  -20.6460   21.4400 N   0  0  0  0  0  0  0  0  0  0  0  0
  -30.2290  -20.6660   20.1040 N   0  0  0  0  0  0  0  0  0  0  0  0
  -31.2700  -20.8740   24.0100 C   0  0  0  0  0  1  0  0  0  0  0  0
  -29.1730  -22.2390   24.1130 C   0  0  0  0  0  1  0  0  0  0  0  0
  -31.4130  -23.3110   23.6730 C   0  0  0  0  0  1  0  0  0  0  0  0
  -30.5240  -22.0920   23.3870 C   0  0  2  0  0  0  0  0  0  0  0  0
  -30.1480  -24.3690   20.7010 C   0  0  0  0  0  2  0  0  0  0  0  0
  -28.7720  -25.1100   20.6090 C   0  0  0  0  0  2  0  0  0  0  0  0
  -28.9040  -26.5340   20.3150 O   0  0  0  0  0  0  0  0  0  0  0  0
  -24.8600  -31.6240   23.2230 C   0  0  0  0  0  0  0  0  0  0  0  0
  -27.7350  -27.2800   20.2090 C   0  0  0  0  0  0  0  0  0  0  0  0
  -23.7660  -30.2270   21.5040 C   0  0  0  0  0  3  0  0  0  0  0  0
  -25.3170  -28.7750   20.0860 C   0  0  0  0  0  0  0  0  0  0  0  0
  -26.2810  -30.6700   21.3960 C   0  0  0  0  0  2  0  0  0  0  0  0
  -26.4330  -29.3030   20.7470 C   0  0  0  0  0  0  0  0  0  0  0  0
  -27.6470  -28.5700   20.7910 C   0  0  0  0  0  3  0  0  0  0  0  0
  -26.6050  -26.7850   19.5190 C   0  0  0  0  0  3  0  0  0  0  0  0
  -25.4080  -27.5280   19.4430 C   0  0  0  0  0  3  0  0  0  0  0  0
  -24.0470  -29.6000   20.1090 C   0  0  0  0  0  2  0  0  0  0  0  0
  -24.9870  -30.8520   22.1070 N   0  0  0  0  0  0  0  0  0  0  0  0
  -23.7500  -31.8450   23.7240 O   0  0  0  0  0  0  0  0  0  0  0  0
  -23.1050  -29.1610   22.4120 C   0  0  0  0  0  0  0  0  0  0  0  0
  -21.7800  -28.9910   22.2710 N   0  0  0  0  0  0  0  0  0  0  0  0
  -23.7790  -28.5020   23.2060 O   0  0  0  0  0  0  0  0  0  0  0  0
  -21.2990  -29.5780   21.6050 H   0  0  0  0  0  0  0  0  0  0  0  0
  -18.3920  -27.8080   22.7080 C   0  0  0  0  0  0  0  0  0  0  0  0
  -20.9540  -28.0230   22.9920 C   0  0  0  0  0  3  0  0  0  0  0  0
  -21.0430  -26.6230   22.3420 C   0  0  0  0  0  2  0  0  0  0  0  0
  -19.9370  -26.3630   21.3170 C   0  0  0  0  0  2  0  0  0  0  0  0
  -18.5560  -26.4920   21.9670 C   0  0  0  0  0  2  0  0  0  0  0  0
  -19.5180  -28.5330   23.1760 C   0  0  0  0  0  0  0  0  0  0  0  0
  -19.3120  -29.7700   23.8270 C   0  0  0  0  0  3  0  0  0  0  0  0
  -18.0120  -30.2680   24.0280 C   0  0  0  0  0  3  0  0  0  0  0  0
  -16.9000  -29.5380   23.5760 C   0  0  0  0  0  3  0  0  0  0  0  0
  -17.0910  -28.3120   22.9130 C   0  0  0  0  0  3  0  0  0  0  0  0
  -26.0970  -32.2820   23.9090 C   0  0  0  0  0  3  0  0  0  0  0  0
  -25.7160  -33.6460   24.3010 N   0  0  0  0  0  0  0  0  0  0  0  0
  -26.0290  -34.7500   23.6110 C   0  0  0  0  0  0  0  0  0  0  0  0
  -26.7400  -34.7290   22.6020 O   0  0  0  0  0  0  0  0  0  0  0  0
  -25.0960  -33.7360   25.0900 H   0  0  0  0  0  0  0  0  0  0  0  0
  -24.2410  -36.4910   23.2870 C   0  0  0  0  0  1  0  0  0  0  0  0
  -25.4680  -36.0900   24.1230 C   0  0  0  0  0  3  0  0  0  0  0  0
  -27.5300  -37.0110   25.0850 C   0  0  0  0  0  1  0  0  0  0  0  0
  -26.4590  -37.1890   24.1080 N   0  0  0  0  0  0  0  0  0  0  0  0
  -26.0060  -38.0800   24.2970 H   0  0  0  0  0  0  0  0  0  0  0  0
  -26.6060  -31.4750   25.1640 C   0  0  1  0  0  0  0  0  0  0  0  0
  -25.4970  -31.1450   26.1900 C   0  0  0  0  0  1  0  0  0  0  0  0
  -27.2600  -30.1490   24.7150 C   0  0  0  0  0  1  0  0  0  0  0  0
  -27.6990  -32.2830   25.9010 C   0  0  0  0  0  1  0  0  0  0  0  0
  -30.5440  -19.4450   19.3270 C   0  0  0  0  0  2  0  0  0  0  0  0
  -28.5770  -18.1020   20.4970 C   0  0  0  0  0  1  0  0  0  0  0  0
  -29.8650  -18.0470   19.6510 C   0  0  1  0  0  0  0  0  0  0  0  0
  -29.4590  -17.5700   18.4710 F   0  0  0  0  0  0  0  0  0  0  0  0
  -30.9310  -17.0190   20.1940 C   0  0  0  0  0  2  0  0  0  0  0  0
  -31.0130  -14.5200   19.9490 C   0  0  0  0  0  0  0  0  0  0  0  0
  -30.6570  -12.2780   18.9400 C   0  0  0  0  0  2  0  0  0  0  0  0
  -29.6530  -12.3080   17.7680 C   0  0  0  0  0  2  0  0  0  0  0  0
  -28.2060  -12.2040   18.2810 C   0  0  0  0  0  2  0  0  0  0  0  0
  -27.9170  -13.1660   19.4540 C   0  0  0  0  0  3  0  0  0  0  0  0
  -29.0040  -13.0200   20.5280 C   0  0  0  0  0  2  0  0  0  0  0  0
  -30.3010  -13.3460   19.9050 N   0  0  0  0  0  0  0  0  0  0  0  0
  -32.0700  -14.6150   19.3110 O   0  0  0  0  0  0  0  0  0  0  0  0
  -30.0010  -15.5970   21.9460 C   0  0  0  0  0  1  0  0  0  0  0  0
  -30.4740  -15.6360   20.5540 N   0  0  0  0  0  0  0  0  0  0  0  0
  -25.6090  -13.8890   20.3300 C   0  0  0  0  0  0  0  0  0  0  0  0
  -24.5150  -13.1730   20.7240 C   0  0  0  0  0  0  0  0  0  0  0  0
  -24.8860  -11.7940   20.6190 C   0  0  0  0  0  0  0  0  0  0  0  0
  -26.5790  -12.9580   20.0030 N   0  0  0  0  0  0  0  0  0  0  0  0
  -26.1510  -11.6890   20.2340 N   0  0  0  0  0  0  0  0  0  0  0  0
  -24.1020  -10.5680   20.8150 C   0  0  0  0  0  0  0  0  0  0  0  0
  -24.4840   -9.5820   21.7530 C   0  0  0  0  0  3  0  0  0  0  0  0
  -23.7000   -8.4230   21.9330 C   0  0  0  0  0  3  0  0  0  0  0  0
  -22.5160   -8.2430   21.1780 C   0  0  0  0  0  0  0  0  0  0  0  0
  -22.1470   -9.2240   20.2380 C   0  0  0  0  0  3  0  0  0  0  0  0
  -22.9340  -10.3730   20.0560 C   0  0  0  0  0  3  0  0  0  0  0  0
  -21.7080   -7.1360   21.2640 O   0  0  0  0  0  0  0  0  0  0  0  0
  -21.5790   -6.4240   22.4310 C   0  0  0  0  0  0  0  0  0  0  0  0
  -21.1300   -7.0290   23.6260 C   0  0  0  0  0  3  0  0  0  0  0  0
  -20.9500   -6.2500   24.7840 C   0  0  0  0  0  3  0  0  0  0  0  0
  -21.2050   -4.8670   24.7500 C   0  0  0  0  0  0  0  0  0  0  0  0
  -21.6480   -4.2620   23.5620 C   0  0  0  0  0  3  0  0  0  0  0  0
  -21.8340   -5.0380   22.4040 C   0  0  0  0  0  0  0  0  0  0  0  0
  -22.2440   -4.4450   21.2570 F   0  0  0  0  0  0  0  0  0  0  0  0
  -21.0210   -4.1180   25.8630 F   0  0  0  0  0  0  0  0  0  0  0  0
  -23.1670  -13.7250   21.0880 C   0  0  0  0  0  0  0  0  0  0  0  0
  -22.4730  -13.0700   22.0060 N   0  0  0  0  0  0  0  0  0  0  0  0
  -22.7500  -14.7760   20.5970 O   0  0  0  0  0  0  0  0  0  0  0  0
  -22.8230  -12.2230   22.4290 H   0  0  0  0  0  0  0  0  0  0  0  0
  -21.5790  -13.4310   22.3070 H   0  0  0  0  0  0  0  0  0  0  0  0
  -25.8650  -15.2530   20.1980 N   0  0  0  0  0  0  0  0  0  0  0  0
  -25.2130  -15.9730   20.4780 H   0  0  0  0  0  0  0  0  0  0  0  0
  -26.7440  -15.6250   19.8690 H   0  0  0  0  0  0  0  0  0  0  0  0
  1  5  1  0
  1  2  2  0
  2  3  1  0
  3  9  1  0
  4  3  2  0
  5  4  1  0
  9  8  1  6
  9  6  1  0
  9  7  1  0
 10  2  1  0
 11 10  1  0
 12 11  1  0
 13 24  2  0
 14 12  1  0
 14 19  1  0
 15 23  1  0
 15 25  1  0
 16 22  1  0
 16 18  1  0
 17 23  1  0
 18 19  2  0
 18 17  1  0
 20 14  2  0
 21 20  1  0
 21 16  2  0
 22 15  1  0
 23 13  1  0
 25 27  2  0
 26 25  1  0
 28 26  1  0
 29 38  2  0
 29 34  1  0
 30 26  1  0
 30 34  1  0
 31 30  1  0
 32 33  1  0
 32 31  1  0
 33 29  1  0
 34 35  2  0
 35 36  1  0
 37 36  2  0
 38 37  1  0
 39 13  1  0
 39 40  1  0
 39 49  1  0
 40 43  1  0
 41 45  1  0
 41 40  1  0
 42 41  2  0
 45 44  1  0
 47 45  1  0
 47 48  1  0
 47 46  1  0
 49 52  1  1
 49 50  1  0
 51 49  1  0
 53 55  1  0
 53  5  1  0
 55 57  1  0
 55 54  1  1
 56 55  1  0
 57 67  1  0
 58 67  1  0
 59 64  1  0
 60 61  1  0
 60 59  1  0
 62 61  1  0
 62 71  1  0
 62 63  1  0
 64 58  1  0
 64 63  1  0
 65 58  2  0
 67 66  1  0
 68 69  2  0
 69 88  1  0
 70 69  1  0
 70 73  1  0
 71 72  1  0
 71 68  1  0
 72 70  2  0
 73 74  1  0
 74 75  2  0
 76 79  1  0
 76 75  1  0
 77 76  2  0
 78 77  1  0
 78 73  2  0
 79 80  1  0
 80 81  1  0
 81 82  2  0
 83 82  1  0
 83 87  1  0
 84 83  2  0
 85 80  2  0
 85 84  1  0
 86 85  1  0
 88 89  1  0
 89 92  1  0
 89 91  1  0
 90 88  2  0
 93 68  1  0
 93 94  1  0
 95 93  1  0
M  ISO  4  11 101  12 101  58 100  67 100
M  END
>  <TORSDO>  (44) 
F 22

>  <SCORE>  (44) 
-9.894

>  <name>  (44) 
46

>  <ligand_id>  (44) 
46

>  <original_smiles>  (44) 
[H]c1c([H])c([H])c2c(c1[H])C([H])([H])C([H])([H])C([H])([H])C2([H])N([H])C(=O)C1([H])N(C(=O)C([H])(N([H])C(=O)C([H])(N([H])C([H])([H])[H])C([H])([H])[H])C(C([H])([H])[H])(C([H])([H])[H])C([H])([H])[H])C([H])([H])c2c([H])c(OC([H])([H])C([H])([H])c3c(C(C([H])([H])[H])(C([H])([H])[H])C([H])([H])[H])nn(C([H])([H])C(F)(C([H])([H])[H])C([H])([H])N(C(=O)N4C([H])([H])C([H])([H])C([H])([H])C([H])(n5nc(-c6c([H])c([H])c(Oc7c([H])c([H])c(F)c([H])c7F)c([H])c6[H])c(C(=O)N([H])[H])c5N([H])[H])C4([H])[H])C([H])([H])[H])c3[H])c([H])c([H])c2C1([H])[H]

>  <smiles>  (44) 
[H]c1c([H])c([H])c2c(c1[H])C([H])([H])C([H])([H])C([H])([H])C2([H])N([H])C(=O)C1([H])N(C(=O)C([H])(N([H])C(=O)C([H])(N([H])C([H])([H])[H])C([H])([H])[H])C(C([H])([H])[H])(C([H])([H])[H])C([H])([H])[H])C([H])([H])c2c([H])c(OC([H])([H])C([H])([H])c3c(C(C([H])([H])[H])(C([H])([H])[H])C([H])([H])[H])nn(C([H])([H])C(F)(C([H])([H])[H])C([H])([H])N(C(=O)N4C([H])([H])C([H])([H])C([H])([H])C([H])(n5nc(-c6c([H])c([H])c(Oc7c([H])c([H])c(F)c([H])c7F)c([H])c6[H])c(C(=O)N([H])[H])c5N([H])[H])C4([H])[H])C([H])([H])[H])c3[H])c([H])c([H])c2C1([H])[H]

$$$$
47:0:0
     RDKit          3D

 98106  0  0  1  0  0  0  0  0999 V2000
  -29.4470  -21.8630   23.3130 C   0  0  0  0  0  2  0  0  0  0  0  0
  -28.2490  -21.9360   21.0820 C   0  0  0  0  0  1  0  0  0  0  0  0
  -30.6570  -22.4770   21.1740 C   0  0  0  0  0  1  0  0  0  0  0  0
  -29.3260  -22.6410   21.9440 C   0  0  2  0  0  0  0  0  0  0  0  0
  -29.8480  -24.8460   23.2270 C   0  0  0  0  0  1  0  0  0  0  0  0
  -27.4740  -24.3340   22.5890 C   0  0  0  0  0  1  0  0  0  0  0  0
  -28.9530  -24.1900   22.1380 C   0  0  2  0  0  0  0  0  0  0  0  0
  -29.0900  -25.0310   20.8110 C   0  0  0  0  0  2  0  0  0  0  0  0
  -28.9960  -26.5790   20.9320 C   0  0  0  0  0  2  0  0  0  0  0  0
  -28.5270  -27.1350   19.7010 O   0  0  0  0  0  0  0  0  0  0  0  0
  -24.5040  -31.8620   23.1990 C   0  0  0  0  0  0  0  0  0  0  0  0
  -27.3330  -27.8110   19.7910 C   0  0  0  0  0  0  0  0  0  0  0  0
  -23.3490  -30.5350   21.4540 C   0  0  0  0  0  3  0  0  0  0  0  0
  -24.8640  -29.1710   19.9150 C   0  0  0  0  0  0  0  0  0  0  0  0
  -25.8480  -31.0280   21.2780 C   0  0  0  0  0  2  0  0  0  0  0  0
  -25.9920  -29.7090   20.5480 C   0  0  0  0  0  0  0  0  0  0  0  0
  -27.2290  -29.0310   20.4930 C   0  0  0  0  0  3  0  0  0  0  0  0
  -26.1950  -27.2820   19.1500 C   0  0  0  0  0  3  0  0  0  0  0  0
  -24.9590  -27.9530   19.2140 C   0  0  0  0  0  3  0  0  0  0  0  0
  -23.5800  -29.9580   20.0280 C   0  0  0  0  0  2  0  0  0  0  0  0
  -24.5840  -31.1530   22.0370 N   0  0  0  0  0  0  0  0  0  0  0  0
  -23.4170  -32.0450   23.7610 O   0  0  0  0  0  0  0  0  0  0  0  0
  -22.7440  -29.4230   22.3400 C   0  0  0  0  0  0  0  0  0  0  0  0
  -21.4290  -29.1900   22.1920 N   0  0  0  0  0  0  0  0  0  0  0  0
  -23.4560  -28.7750   23.1130 O   0  0  0  0  0  0  0  0  0  0  0  0
  -20.9190  -29.7630   21.5350 H   0  0  0  0  0  0  0  0  0  0  0  0
  -18.1150  -27.8140   22.5820 C   0  0  0  0  0  0  0  0  0  0  0  0
  -20.6560  -28.1650   22.8900 C   0  0  0  0  0  3  0  0  0  0  0  0
  -20.8260  -26.7860   22.2090 C   0  0  0  0  0  2  0  0  0  0  0  0
  -19.7410  -26.4910   21.1690 C   0  0  0  0  0  2  0  0  0  0  0  0
  -18.3530  -26.5290   21.8110 C   0  0  0  0  0  2  0  0  0  0  0  0
  -19.1950  -28.5920   23.0750 C   0  0  0  0  0  0  0  0  0  0  0  0
  -18.9150  -29.8010   23.7490 C   0  0  0  0  0  3  0  0  0  0  0  0
  -17.5850  -30.2250   23.9430 C   0  0  0  0  0  3  0  0  0  0  0  0
  -16.5210  -29.4400   23.4680 C   0  0  0  0  0  3  0  0  0  0  0  0
  -16.7870  -28.2390   22.7910 C   0  0  0  0  0  3  0  0  0  0  0  0
  -25.7690  -32.4900   23.8640 C   0  0  0  0  0  3  0  0  0  0  0  0
  -26.2760  -31.6900   25.1260 C   0  0  1  0  0  0  0  0  0  0  0  0
  -25.1630  -31.3890   26.1560 C   0  0  0  0  0  1  0  0  0  0  0  0
  -26.9010  -30.3400   24.7000 C   0  0  0  0  0  1  0  0  0  0  0  0
  -27.3920  -32.4890   25.8400 C   0  0  0  0  0  1  0  0  0  0  0  0
  -25.4330  -33.8750   24.2280 N   0  0  0  0  0  0  0  0  0  0  0  0
  -25.7810  -34.9530   23.5130 C   0  0  0  0  0  0  0  0  0  0  0  0
  -26.4880  -34.8900   22.5040 O   0  0  0  0  0  0  0  0  0  0  0  0
  -24.8040  -33.9990   25.0070 H   0  0  0  0  0  0  0  0  0  0  0  0
  -24.0370  -36.7300   23.1580 C   0  0  0  0  0  1  0  0  0  0  0  0
  -25.2590  -36.3190   23.9960 C   0  0  0  0  0  3  0  0  0  0  0  0
  -27.3610  -37.1960   24.9140 C   0  0  0  0  0  1  0  0  0  0  0  0
  -26.2770  -37.3920   23.9560 N   0  0  0  0  0  0  0  0  0  0  0  0
  -25.8490  -38.2950   24.1460 H   0  0  0  0  0  0  0  0  0  0  0  0
  -30.0290  -20.4210   23.2850 C   0  0  0  0  0  2  0  0  0  0  0  0
  -31.5770  -20.2950   23.1830 C   0  0  0  0  0  2  0  0  0  0  0  0
  -32.0030  -19.2980   22.1400 C   0  0  0  0  0  0  0  0  0  0  0  0
  -31.6530  -17.6900   20.8340 C   0  0  0  0  0  3  0  0  0  0  0  0
  -31.5730  -18.0100   22.1380 N   0  0  0  0  0  0  0  0  0  0  0  0
  -32.6460  -19.6560   21.0400 N   0  0  0  0  0  2  0  0  0  0  0  0
  -32.3780  -18.6400   20.1750 N   0  0  0  0  0  0  0  0  0  0  0  0
  -30.1650  -17.1170   18.8840 C   0  0  0  0  0  1  0  0  0  0  0  0
  -29.4920  -16.5500   21.1500 C   0  0  0  0  0  1  0  0  0  0  0  0
  -30.7410  -16.5920   20.2280 C   0  0  2  0  0  0  0  0  0  0  0  0
  -31.4950  -15.1990   19.9710 C   0  0  0  0  0  0  0  0  0  0  0  0
  -31.2920  -12.8630   19.1180 C   0  0  0  0  0  2  0  0  0  0  0  0
  -30.3060  -12.8430   17.9250 C   0  0  0  0  0  2  0  0  0  0  0  0
  -28.8320  -12.7290   18.3780 C   0  0  0  0  0  2  0  0  0  0  0  0
  -28.5010  -13.7170   19.5220 C   0  0  0  0  0  3  0  0  0  0  0  0
  -29.5880  -13.5890   20.6100 C   0  0  0  0  0  2  0  0  0  0  0  0
  -30.8820  -13.9630   20.0230 N   0  0  0  0  0  0  0  0  0  0  0  0
  -32.6400  -15.2680   19.5160 O   0  0  0  0  0  0  0  0  0  0  0  0
  -26.2220  -14.5030   20.4560 C   0  0  0  0  0  0  0  0  0  0  0  0
  -25.1070  -13.8060   20.8510 C   0  0  0  0  0  0  0  0  0  0  0  0
  -25.4330  -12.4280   20.6730 C   0  0  0  0  0  0  0  0  0  0  0  0
  -27.1590  -13.5460   20.0800 N   0  0  0  0  0  0  0  0  0  0  0  0
  -26.6880  -12.2900   20.2610 N   0  0  0  0  0  0  0  0  0  0  0  0
  -24.6020  -11.2280   20.8140 C   0  0  0  0  0  0  0  0  0  0  0  0
  -24.9520  -10.1910   21.7040 C   0  0  0  0  0  3  0  0  0  0  0  0
  -24.1250   -9.0560   21.8360 C   0  0  0  0  0  3  0  0  0  0  0  0
  -22.9380   -8.9480   21.0740 C   0  0  0  0  0  0  0  0  0  0  0  0
  -22.6070   -9.9770   20.1760 C   0  0  0  0  0  3  0  0  0  0  0  0
  -23.4320  -11.1040   20.0400 C   0  0  0  0  0  3  0  0  0  0  0  0
  -22.0930   -7.8650   21.1040 O   0  0  0  0  0  0  0  0  0  0  0  0
  -21.8550   -7.1690   22.2610 C   0  0  0  0  0  0  0  0  0  0  0  0
  -21.3040   -7.7930   23.4010 C   0  0  0  0  0  3  0  0  0  0  0  0
  -21.0040   -7.0280   24.5460 C   0  0  0  0  0  3  0  0  0  0  0  0
  -21.2520   -5.6420   24.5490 C   0  0  0  0  0  0  0  0  0  0  0  0
  -21.7950   -5.0180   23.4110 C   0  0  0  0  0  3  0  0  0  0  0  0
  -22.0910   -5.7800   22.2680 C   0  0  0  0  0  0  0  0  0  0  0  0
  -22.5900   -5.1700   21.1650 F   0  0  0  0  0  0  0  0  0  0  0  0
  -20.9580   -4.9050   25.6470 F   0  0  0  0  0  0  0  0  0  0  0  0
  -23.7870  -14.3890   21.2660 C   0  0  0  0  0  0  0  0  0  0  0  0
  -23.0670  -13.7020   22.1470 N   0  0  0  0  0  0  0  0  0  0  0  0
  -23.4070  -15.4800   20.8470 O   0  0  0  0  0  0  0  0  0  0  0  0
  -23.3880  -12.8100   22.4890 H   0  0  0  0  0  0  0  0  0  0  0  0
  -22.1870  -14.0740   22.4740 H   0  0  0  0  0  0  0  0  0  0  0  0
  -26.4850  -15.8640   20.3610 N   0  0  0  0  0  0  0  0  0  0  0  0
  -25.7510  -16.5560   20.4710 H   0  0  0  0  0  0  0  0  0  0  0  0
  -27.3470  -16.2580   20.0110 H   0  0  0  0  0  0  0  0  0  0  0  0
  -31.9630  -20.0440   18.1510 C   0  0  0  0  0  1  0  0  0  0  0  0
  -32.7620  -18.8840   18.7880 C   0  0  0  0  0  2  0  0  0  0  0  0
  4  2  1  6
  3  4  1  0
  4  7  1  0
  4  1  1  0
  7  6  1  1
  7  5  1  0
  8  9  1  0
  8  7  1  0
 10 12  1  0
 10  9  1  0
 11 22  2  0
 12 17  1  0
 13 21  1  0
 13 23  1  0
 14 20  1  0
 14 16  1  0
 15 21  1  0
 16 15  1  0
 17 16  2  0
 18 19  1  0
 18 12  2  0
 19 14  2  0
 20 13  1  0
 21 11  1  0
 23 25  2  0
 24 23  1  0
 26 24  1  0
 27 36  2  0
 27 32  1  0
 28 24  1  0
 28 32  1  0
 29 28  1  0
 30 31  1  0
 30 29  1  0
 31 27  1  0
 32 33  2  0
 33 34  1  0
 35 34  2  0
 36 35  1  0
 37 11  1  0
 37 42  1  0
 37 38  1  0
 38 41  1  1
 38 39  1  0
 40 38  1  0
 42 45  1  0
 43 47  1  0
 43 42  1  0
 44 43  2  0
 47 46  1  0
 49 47  1  0
 49 50  1  0
 49 48  1  0
 51  1  1  0
 52 51  1  0
 53 52  1  0
 54 60  1  0
 54 55  1  0
 55 53  2  0
 56 53  1  0
 57 54  1  0
 57 56  1  0
 60 58  1  6
 60 59  1  0
 61 67  1  0
 61 60  1  0
 62 67  1  0
 63 64  1  0
 63 62  1  0
 65 64  1  0
 65 72  1  0
 65 66  1  0
 67 66  1  0
 68 61  2  0
 69 70  2  0
 70 89  1  0
 71 74  1  0
 71 70  1  0
 72 73  1  0
 72 69  1  0
 73 71  2  0
 74 75  1  0
 75 76  2  0
 77 80  1  0
 77 76  1  0
 78 77  2  0
 79 78  1  0
 79 74  2  0
 80 81  1  0
 81 86  2  0
 81 82  1  0
 82 83  2  0
 83 84  1  0
 84 88  1  0
 85 84  2  0
 86 85  1  0
 87 86  1  0
 89 90  1  0
 90 93  1  0
 90 92  1  0
 91 89  2  0
 94 69  1  0
 94 95  1  0
 96 94  1  0
 97 98  1  0
 98 57  1  0
M  ISO  4   9 101  10 101  60 100  61 100
M  END
>  <TORSDO>  (45) 
F 25

>  <SCORE>  (45) 
-10.058

>  <name>  (45) 
47

>  <ligand_id>  (45) 
47

>  <original_smiles>  (45) 
[H]c1c([H])c([H])c2c(c1[H])C([H])([H])C([H])([H])C([H])([H])C2([H])N([H])C(=O)C1([H])N(C(=O)C([H])(N([H])C(=O)C([H])(N([H])C([H])([H])[H])C([H])([H])[H])C(C([H])([H])[H])(C([H])([H])[H])C([H])([H])[H])C([H])([H])c2c([H])c(OC([H])([H])C([H])([H])C(C([H])([H])[H])(C([H])([H])[H])C(C([H])([H])[H])(C([H])([H])[H])C([H])([H])C([H])([H])C([H])([H])c3nc(C(C(=O)N4C([H])([H])C([H])([H])C([H])([H])C([H])(n5nc(-c6c([H])c([H])c(Oc7c([H])c([H])c(F)c([H])c7F)c([H])c6[H])c(C(=O)N([H])[H])c5N([H])[H])C4([H])[H])(C([H])([H])[H])C([H])([H])[H])n(C([H])([H])C([H])([H])[H])n3)c([H])c([H])c2C1([H])[H]

>  <smiles>  (45) 
[H]c1c([H])c([H])c2c(c1[H])C([H])([H])C([H])([H])C([H])([H])C2([H])N([H])C(=O)C1([H])N(C(=O)C([H])(N([H])C(=O)C([H])(N([H])C([H])([H])[H])C([H])([H])[H])C(C([H])([H])[H])(C([H])([H])[H])C([H])([H])[H])C([H])([H])c2c([H])c(OC([H])([H])C([H])([H])C(C([H])([H])[H])(C([H])([H])[H])C(C([H])([H])[H])(C([H])([H])[H])C([H])([H])C([H])([H])C([H])([H])c3nc(C(C(=O)N4C([H])([H])C([H])([H])C([H])([H])C([H])(n5nc(-c6c([H])c([H])c(Oc7c([H])c([H])c(F)c([H])c7F)c([H])c6[H])c(C(=O)N([H])[H])c5N([H])[H])C4([H])[H])(C([H])([H])[H])C([H])([H])[H])n(C([H])([H])C([H])([H])[H])n3)c([H])c([H])c2C1([H])[H]

$$$$
48:0:0
     RDKit          3D

 95103  0  0  1  0  0  0  0  0999 V2000
  -29.1310  -22.7770   23.6530 C   0  0  0  0  0  1  0  0  0  0  0  0
  -28.7920  -22.6290   22.1530 C   0  0  1  0  0  0  0  0  0  0  0  0
  -27.5460  -22.1470   22.1150 F   0  0  0  0  0  0  0  0  0  0  0  0
  -28.6980  -24.0380   21.4460 C   0  0  2  0  0  0  0  0  0  0  0  0
  -27.7440  -24.7100   22.0970 F   0  0  0  0  0  0  0  0  0  0  0  0
  -28.2990  -23.8830   20.1820 F   0  0  0  0  0  0  0  0  0  0  0  0
  -29.9650  -24.9490   21.4570 C   0  0  0  0  0  2  0  0  0  0  0  0
  -29.7400  -26.4990   21.4340 C   0  0  0  0  0  2  0  0  0  0  0  0
  -29.2830  -27.0460   20.1880 O   0  0  0  0  0  0  0  0  0  0  0  0
  -24.8860  -31.7560   23.3340 C   0  0  0  0  0  0  0  0  0  0  0  0
  -28.0860  -27.7310   20.2110 C   0  0  0  0  0  0  0  0  0  0  0  0
  -23.9040  -30.3380   21.5610 C   0  0  0  0  0  3  0  0  0  0  0  0
  -25.5690  -29.0190   20.1460 C   0  0  0  0  0  0  0  0  0  0  0  0
  -26.3910  -30.9370   21.5220 C   0  0  0  0  0  2  0  0  0  0  0  0
  -26.6390  -29.6110   20.8320 C   0  0  0  0  0  0  0  0  0  0  0  0
  -27.9020  -28.9710   20.8720 C   0  0  0  0  0  3  0  0  0  0  0  0
  -27.0080  -27.1650   19.5050 C   0  0  0  0  0  3  0  0  0  0  0  0
  -25.7490  -27.7940   19.4800 C   0  0  0  0  0  3  0  0  0  0  0  0
  -24.2480  -29.7550   20.1640 C   0  0  0  0  0  2  0  0  0  0  0  0
  -25.0740  -31.0240   22.1980 N   0  0  0  0  0  0  0  0  0  0  0  0
  -23.7580  -31.8980   23.8260 O   0  0  0  0  0  0  0  0  0  0  0  0
  -23.3050  -29.2110   22.4350 C   0  0  0  0  0  0  0  0  0  0  0  0
  -22.0020  -28.9410   22.2560 N   0  0  0  0  0  0  0  0  0  0  0  0
  -24.0120  -28.5860   23.2280 O   0  0  0  0  0  0  0  0  0  0  0  0
  -21.4870  -29.5050   21.5940 H   0  0  0  0  0  0  0  0  0  0  0  0
  -18.7090  -27.4910   22.5980 C   0  0  0  0  0  0  0  0  0  0  0  0
  -21.2390  -27.8970   22.9410 C   0  0  0  0  0  3  0  0  0  0  0  0
  -21.4470  -26.5230   22.2650 C   0  0  0  0  0  2  0  0  0  0  0  0
  -20.3870  -26.2020   21.2070 C   0  0  0  0  0  2  0  0  0  0  0  0
  -18.9880  -26.2090   21.8320 C   0  0  0  0  0  2  0  0  0  0  0  0
  -19.7670  -28.2910   23.1050 C   0  0  0  0  0  0  0  0  0  0  0  0
  -19.4540  -29.4920   23.7810 C   0  0  0  0  0  3  0  0  0  0  0  0
  -18.1160  -29.8930   23.9540 C   0  0  0  0  0  3  0  0  0  0  0  0
  -17.0740  -29.0900   23.4620 C   0  0  0  0  0  3  0  0  0  0  0  0
  -17.3700  -27.8900   22.7910 C   0  0  0  0  0  3  0  0  0  0  0  0
  -26.0750  -32.4710   24.0510 C   0  0  0  0  0  3  0  0  0  0  0  0
  -25.6420  -33.8390   24.3680 N   0  0  0  0  0  0  0  0  0  0  0  0
  -25.9430  -34.9190   23.6360 C   0  0  0  0  0  0  0  0  0  0  0  0
  -26.6840  -34.8760   22.6490 O   0  0  0  0  0  0  0  0  0  0  0  0
  -24.9870  -33.9400   25.1280 H   0  0  0  0  0  0  0  0  0  0  0  0
  -24.1080  -36.5770   23.1840 C   0  0  0  0  0  1  0  0  0  0  0  0
  -25.3260  -36.2620   24.0670 C   0  0  0  0  0  3  0  0  0  0  0  0
  -27.3380  -37.2970   25.0220 C   0  0  0  0  0  1  0  0  0  0  0  0
  -26.2800  -37.3910   24.0180 N   0  0  0  0  0  0  0  0  0  0  0  0
  -25.7980  -38.2760   24.1480 H   0  0  0  0  0  0  0  0  0  0  0  0
  -26.5550  -31.7200   25.3540 C   0  0  1  0  0  0  0  0  0  0  0  0
  -25.4100  -31.3900   26.3390 C   0  0  0  0  0  1  0  0  0  0  0  0
  -27.2630  -30.3940   24.9900 C   0  0  0  0  0  1  0  0  0  0  0  0
  -27.5960  -32.5860   26.1020 C   0  0  0  0  0  1  0  0  0  0  0  0
  -29.6630  -21.5160   21.4700 C   0  0  0  0  0  2  0  0  0  0  0  0
  -29.6220  -20.1430   22.2260 C   0  0  0  0  0  2  0  0  0  0  0  0
  -31.1410  -18.4350   21.0360 C   0  0  0  0  0  3  0  0  0  0  0  0
  -29.0340  -17.9840   21.0690 C   0  0  0  0  0  3  0  0  0  0  0  0
  -30.9370  -17.2320   20.3670 C   0  0  0  0  0  0  0  0  0  0  0  0
  -29.5680  -16.9560   20.4050 N   0  0  0  0  0  0  0  0  0  0  0  0
  -29.9090  -18.9270   21.4510 N   0  0  0  0  0  0  0  0  0  0  0  0
  -33.2820  -17.2450   19.5570 C   0  0  0  0  0  1  0  0  0  0  0  0
  -31.5450  -16.5650   18.0290 C   0  0  0  0  0  1  0  0  0  0  0  0
  -31.9410  -16.4390   19.5190 C   0  0  2  0  0  0  0  0  0  0  0  0
  -32.2840  -14.9290   19.9360 C   0  0  0  0  0  0  0  0  0  0  0  0
  -31.7220  -12.7200   19.0250 C   0  0  0  0  0  2  0  0  0  0  0  0
  -30.8250  -12.8680   17.7820 C   0  0  0  0  0  2  0  0  0  0  0  0
  -29.3410  -12.9040   18.1900 C   0  0  0  0  0  2  0  0  0  0  0  0
  -29.0450  -13.8430   19.3910 C   0  0  0  0  0  3  0  0  0  0  0  0
  -30.0950  -13.7210   20.5120 C   0  0  0  0  0  2  0  0  0  0  0  0
  -31.4270  -13.8620   19.9100 N   0  0  0  0  0  0  0  0  0  0  0  0
  -33.4890  -14.6790   19.9300 O   0  0  0  0  0  0  0  0  0  0  0  0
  -26.7150  -14.6700   20.0700 C   0  0  0  0  0  0  0  0  0  0  0  0
  -25.5740  -13.9990   20.4130 C   0  0  0  0  0  0  0  0  0  0  0  0
  -25.9160  -12.6120   20.4170 C   0  0  0  0  0  0  0  0  0  0  0  0
  -27.6800  -13.6940   19.8740 N   0  0  0  0  0  0  0  0  0  0  0  0
  -27.2050  -12.4530   20.1490 N   0  0  0  0  0  0  0  0  0  0  0  0
  -25.0780  -11.4220   20.6030 C   0  0  0  0  0  0  0  0  0  0  0  0
  -25.3930  -10.4420   21.5690 C   0  0  0  0  0  3  0  0  0  0  0  0
  -24.5600   -9.3160   21.7430 C   0  0  0  0  0  3  0  0  0  0  0  0
  -23.3980   -9.1640   20.9500 C   0  0  0  0  0  0  0  0  0  0  0  0
  -23.1020  -10.1310   19.9740 C   0  0  0  0  0  3  0  0  0  0  0  0
  -23.9360  -11.2480   19.7970 C   0  0  0  0  0  3  0  0  0  0  0  0
  -22.5430   -8.0920   21.0350 O   0  0  0  0  0  0  0  0  0  0  0  0
  -22.3240   -7.4390   22.2210 C   0  0  0  0  0  0  0  0  0  0  0  0
  -21.8900   -8.1240   23.3790 C   0  0  0  0  0  3  0  0  0  0  0  0
  -21.6050   -7.4040   24.5560 C   0  0  0  0  0  3  0  0  0  0  0  0
  -21.7480   -6.0040   24.5780 C   0  0  0  0  0  0  0  0  0  0  0  0
  -22.1770   -5.3210   23.4260 C   0  0  0  0  0  3  0  0  0  0  0  0
  -22.4620   -6.0370   22.2510 C   0  0  0  0  0  0  0  0  0  0  0  0
  -22.8530   -5.3720   21.1370 F   0  0  0  0  0  0  0  0  0  0  0  0
  -21.4700   -5.3120   25.7070 F   0  0  0  0  0  0  0  0  0  0  0  0
  -24.2180  -14.6020   20.6400 C   0  0  0  0  0  0  0  0  0  0  0  0
  -23.4220  -14.0080   21.5230 N   0  0  0  0  0  0  0  0  0  0  0  0
  -23.8740  -15.6360   20.0690 O   0  0  0  0  0  0  0  0  0  0  0  0
  -23.7160  -13.1740   22.0100 H   0  0  0  0  0  0  0  0  0  0  0  0
  -22.5090  -14.3960   21.7170 H   0  0  0  0  0  0  0  0  0  0  0  0
  -27.0100  -16.0180   19.8890 N   0  0  0  0  0  0  0  0  0  0  0  0
  -26.3260  -16.7470   20.0580 H   0  0  0  0  0  0  0  0  0  0  0  0
  -27.9640  -16.3680   19.8620 H   0  0  0  0  0  0  0  0  0  0  0  0
  2  1  1  1
  3  2  1  0
  4  7  1  0
  4  5  1  1
  4  2  1  0
  6  4  1  0
  8  7  1  0
  9 11  1  0
  9  8  1  0
 10 21  2  0
 11 16  1  0
 12 20  1  0
 12 22  1  0
 13 19  1  0
 13 15  1  0
 14 20  1  0
 15 16  2  0
 15 14  1  0
 17 11  2  0
 18 17  1  0
 18 13  2  0
 19 12  1  0
 20 10  1  0
 22 24  2  0
 23 22  1  0
 25 23  1  0
 26 35  2  0
 26 31  1  0
 27 23  1  0
 27 31  1  0
 28 27  1  0
 29 30  1  0
 29 28  1  0
 30 26  1  0
 31 32  2  0
 32 33  1  0
 34 33  2  0
 35 34  1  0
 36 10  1  0
 36 37  1  0
 36 46  1  0
 37 40  1  0
 38 42  1  0
 38 37  1  0
 39 38  2  0
 42 41  1  0
 44 42  1  0
 44 45  1  0
 44 43  1  0
 46 49  1  1
 46 47  1  0
 48 46  1  0
 50  2  1  0
 50 51  1  0
 52 56  1  0
 53 56  1  0
 54 55  1  0
 54 52  2  0
 55 53  2  0
 56 51  1  0
 59 58  1  6
 59 57  1  0
 59 60  1  0
 59 54  1  0
 61 66  1  0
 62 63  1  0
 62 61  1  0
 64 63  1  0
 64 71  1  0
 64 65  1  0
 66 60  1  0
 66 65  1  0
 67 60  2  0
 68 69  2  0
 69 70  1  0
 69 88  1  0
 70 73  1  0
 71 68  1  0
 71 72  1  0
 72 70  2  0
 73 74  1  0
 74 75  2  0
 76 79  1  0
 76 75  1  0
 77 76  2  0
 78 77  1  0
 78 73  2  0
 79 80  1  0
 80 85  2  0
 80 81  1  0
 81 82  2  0
 82 83  1  0
 83 87  1  0
 84 83  2  0
 85 84  1  0
 86 85  1  0
 88 89  1  0
 89 92  1  0
 89 91  1  0
 90 88  2  0
 93 94  1  0
 93 68  1  0
 95 93  1  0
M  ISO  4   8 101   9 101  59 100  60 100
M  END
>  <TORSDO>  (46) 
F 23

>  <SCORE>  (46) 
-8.869

>  <name>  (46) 
48

>  <ligand_id>  (46) 
48

>  <original_smiles>  (46) 
[H]c1c([H])c([H])c2c(c1[H])C([H])([H])C([H])([H])C([H])([H])C2([H])N([H])C(=O)C1([H])N(C(=O)C([H])(N([H])C(=O)C([H])(N([H])C([H])([H])[H])C([H])([H])[H])C(C([H])([H])[H])(C([H])([H])[H])C([H])([H])[H])C([H])([H])c2c([H])c(OC([H])([H])C([H])([H])C(F)(F)C(F)(C([H])([H])[H])C([H])([H])C([H])([H])n3c([H])nc(C(C(=O)N4C([H])([H])C([H])([H])C([H])([H])C([H])(n5nc(-c6c([H])c([H])c(Oc7c([H])c([H])c(F)c([H])c7F)c([H])c6[H])c(C(=O)N([H])[H])c5N([H])[H])C4([H])[H])(C([H])([H])[H])C([H])([H])[H])c3[H])c([H])c([H])c2C1([H])[H]

>  <smiles>  (46) 
[H]c1c([H])c([H])c2c(c1[H])C([H])([H])C([H])([H])C([H])([H])C2([H])N([H])C(=O)C1([H])N(C(=O)C([H])(N([H])C(=O)C([H])(N([H])C([H])([H])[H])C([H])([H])[H])C(C([H])([H])[H])(C([H])([H])[H])C([H])([H])[H])C([H])([H])c2c([H])c(OC([H])([H])C([H])([H])C(F)(F)C(F)(C([H])([H])[H])C([H])([H])C([H])([H])n3c([H])nc(C(C(=O)N4C([H])([H])C([H])([H])C([H])([H])C([H])(n5nc(-c6c([H])c([H])c(Oc7c([H])c([H])c(F)c([H])c7F)c([H])c6[H])c(C(=O)N([H])[H])c5N([H])[H])C4([H])[H])(C([H])([H])[H])C([H])([H])[H])c3[H])c([H])c([H])c2C1([H])[H]

$$$$
49:0:0
     RDKit          3D

 96104  0  0  1  0  0  0  0  0999 V2000
  -30.4380  -19.0400   21.8610 C   0  0  0  0  0  3  0  0  0  0  0  0
  -30.5390  -20.3440   22.2590 C   0  0  0  0  0  0  0  0  0  0  0  0
  -29.8100  -20.2930   20.1440 C   0  0  0  0  0  3  0  0  0  0  0  0
  -30.0340  -18.9650   20.5390 N   0  0  0  0  0  0  0  0  0  0  0  0
  -30.1190  -21.0630   21.1880 N   0  0  0  0  0  0  0  0  0  0  0  0
  -30.0390  -22.0720   21.1780 H   0  0  0  0  0  0  0  0  0  0  0  0
  -31.2080  -19.8970   24.6290 C   0  0  0  0  0  1  0  0  0  0  0  0
  -29.8270  -21.9150   24.0370 C   0  0  0  0  0  1  0  0  0  0  0  0
  -32.2460  -21.7870   23.3620 C   0  0  0  0  0  1  0  0  0  0  0  0
  -30.9510  -20.9800   23.5640 C   0  0  2  0  0  0  0  0  0  0  0  0
  -28.4440  -17.3990   19.3260 C   0  0  0  0  0  1  0  0  0  0  0  0
  -29.9110  -17.6060   19.7550 C   0  0  0  0  0  3  0  0  0  0  0  0
  -29.8750  -15.7990   21.6860 C   0  0  0  0  0  1  0  0  0  0  0  0
  -32.0690  -16.4640   20.7340 C   0  0  0  0  0  1  0  0  0  0  0  0
  -30.5680  -16.1910   20.3580 C   0  0  2  0  0  0  0  0  0  0  0  0
  -30.7160  -14.8900   19.3710 C   0  0  0  0  0  0  0  0  0  0  0  0
  -30.3340  -12.6200   18.3570 C   0  0  0  0  0  2  0  0  0  0  0  0
  -29.2150  -12.6610   17.2910 C   0  0  0  0  0  2  0  0  0  0  0  0
  -27.8320  -12.4510   17.9340 C   0  0  0  0  0  2  0  0  0  0  0  0
  -27.6430  -13.3300   19.1960 C   0  0  0  0  0  3  0  0  0  0  0  0
  -28.8630  -13.2270   20.1350 C   0  0  0  0  0  2  0  0  0  0  0  0
  -30.0590  -13.6630   19.3890 N   0  0  0  0  0  0  0  0  0  0  0  0
  -31.6110  -15.0080   18.5270 O   0  0  0  0  0  0  0  0  0  0  0  0
  -25.4440  -13.8980   20.3960 C   0  0  0  0  0  0  0  0  0  0  0  0
  -24.4350  -13.1130   20.8840 C   0  0  0  0  0  0  0  0  0  0  0  0
  -24.8350  -11.7630   20.6450 C   0  0  0  0  0  0  0  0  0  0  0  0
  -26.3940  -13.0260   19.8910 N   0  0  0  0  0  0  0  0  0  0  0  0
  -26.0450  -11.7300   20.0970 N   0  0  0  0  0  0  0  0  0  0  0  0
  -24.1110  -10.5030   20.8510 C   0  0  0  0  0  0  0  0  0  0  0  0
  -24.5780   -9.5170   21.7480 C   0  0  0  0  0  3  0  0  0  0  0  0
  -23.8520   -8.3220   21.9380 C   0  0  0  0  0  3  0  0  0  0  0  0
  -22.6440   -8.1050   21.2350 C   0  0  0  0  0  0  0  0  0  0  0  0
  -22.1940   -9.0790   20.3260 C   0  0  0  0  0  3  0  0  0  0  0  0
  -22.9210  -10.2660   20.1340 C   0  0  0  0  0  3  0  0  0  0  0  0
  -21.8840   -6.9650   21.3400 O   0  0  0  0  0  0  0  0  0  0  0  0
  -21.7510   -6.2960   22.5310 C   0  0  0  0  0  0  0  0  0  0  0  0
  -21.2050   -6.9160   23.6760 C   0  0  0  0  0  3  0  0  0  0  0  0
  -21.0210   -6.1710   24.8580 C   0  0  0  0  0  3  0  0  0  0  0  0
  -21.3750   -4.8090   24.8960 C   0  0  0  0  0  0  0  0  0  0  0  0
  -21.9180   -4.1900   23.7560 C   0  0  0  0  0  3  0  0  0  0  0  0
  -22.1020   -4.9320   22.5750 C   0  0  0  0  0  0  0  0  0  0  0  0
  -22.6040   -4.3260   21.4730 F   0  0  0  0  0  0  0  0  0  0  0  0
  -21.1920   -4.0910   26.0290 F   0  0  0  0  0  0  0  0  0  0  0  0
  -23.1300  -13.5900   21.4530 C   0  0  0  0  0  0  0  0  0  0  0  0
  -22.5540  -12.8360   22.3820 N   0  0  0  0  0  0  0  0  0  0  0  0
  -22.6370  -14.6630   21.1100 O   0  0  0  0  0  0  0  0  0  0  0  0
  -22.9650  -11.9650   22.6830 H   0  0  0  0  0  0  0  0  0  0  0  0
  -21.6850  -13.1370   22.8010 H   0  0  0  0  0  0  0  0  0  0  0  0
  -25.6230  -15.2760   20.3160 N   0  0  0  0  0  0  0  0  0  0  0  0
  -24.9160  -15.9320   20.6290 H   0  0  0  0  0  0  0  0  0  0  0  0
  -26.4160  -15.7280   19.8810 H   0  0  0  0  0  0  0  0  0  0  0  0
  -29.2420  -21.0470   18.9180 C   0  0  0  0  0  2  0  0  0  0  0  0
  -29.4970  -22.6440   18.7100 C   0  0  0  0  0  2  0  0  0  0  0  0
  -28.7170  -23.8680   19.4330 C   0  0  0  0  0  2  0  0  0  0  0  0
  -28.7040  -25.3030   18.6790 C   0  0  0  0  0  2  0  0  0  0  0  0
  -28.5370  -26.6220   19.3680 O   0  0  0  0  0  0  0  0  0  0  0  0
  -24.5590  -31.4590   22.9710 C   0  0  0  0  0  0  0  0  0  0  0  0
  -27.3560  -27.3890   19.3910 C   0  0  0  0  0  0  0  0  0  0  0  0
  -23.4020  -30.1810   21.2040 C   0  0  0  0  0  3  0  0  0  0  0  0
  -24.9060  -28.8750   19.5940 C   0  0  0  0  0  0  0  0  0  0  0  0
  -25.9190  -30.6540   21.0220 C   0  0  0  0  0  2  0  0  0  0  0  0
  -26.0590  -29.3580   20.2230 C   0  0  0  0  0  0  0  0  0  0  0  0
  -27.2810  -28.6260   20.1120 C   0  0  0  0  0  3  0  0  0  0  0  0
  -26.1700  -26.9590   18.7540 C   0  0  0  0  0  3  0  0  0  0  0  0
  -24.9640  -27.6860   18.8500 C   0  0  0  0  0  3  0  0  0  0  0  0
  -23.6230  -29.6690   19.7560 C   0  0  0  0  0  2  0  0  0  0  0  0
  -24.6470  -30.7790   21.7910 N   0  0  0  0  0  0  0  0  0  0  0  0
  -23.4730  -31.6170   23.5480 O   0  0  0  0  0  0  0  0  0  0  0  0
  -22.8160  -29.0300   22.0580 C   0  0  0  0  0  0  0  0  0  0  0  0
  -21.5010  -28.7850   21.9220 N   0  0  0  0  0  0  0  0  0  0  0  0
  -23.5430  -28.3670   22.8020 O   0  0  0  0  0  0  0  0  0  0  0  0
  -20.9720  -29.3810   21.3010 H   0  0  0  0  0  0  0  0  0  0  0  0
  -18.2090  -27.3350   22.3170 C   0  0  0  0  0  0  0  0  0  0  0  0
  -20.7510  -27.7220   22.5940 C   0  0  0  0  0  3  0  0  0  0  0  0
  -20.9290  -26.3670   21.8700 C   0  0  0  0  0  2  0  0  0  0  0  0
  -19.8350  -26.0880   20.8350 C   0  0  0  0  0  2  0  0  0  0  0  0
  -18.4560  -26.0790   21.5020 C   0  0  0  0  0  2  0  0  0  0  0  0
  -19.2850  -28.1160   22.8170 C   0  0  0  0  0  0  0  0  0  0  0  0
  -18.9980  -29.2940   23.5410 C   0  0  0  0  0  3  0  0  0  0  0  0
  -17.6670  -29.6920   23.7710 C   0  0  0  0  0  3  0  0  0  0  0  0
  -16.6060  -28.9070   23.2870 C   0  0  0  0  0  3  0  0  0  0  0  0
  -16.8780  -27.7310   22.5650 C   0  0  0  0  0  3  0  0  0  0  0  0
  -25.8160  -32.0930   23.6420 C   0  0  0  0  0  3  0  0  0  0  0  0
  -25.4690  -33.4680   24.0290 N   0  0  0  0  0  0  0  0  0  0  0  0
  -25.7900  -34.5610   23.3250 C   0  0  0  0  0  0  0  0  0  0  0  0
  -26.4780  -34.5190   22.3020 O   0  0  0  0  0  0  0  0  0  0  0  0
  -24.8520  -33.5720   24.8210 H   0  0  0  0  0  0  0  0  0  0  0  0
  -24.0310  -36.3370   23.0250 C   0  0  0  0  0  1  0  0  0  0  0  0
  -25.2680  -35.9180   23.8360 C   0  0  0  0  0  3  0  0  0  0  0  0
  -27.3640  -36.8140   24.7490 C   0  0  0  0  0  1  0  0  0  0  0  0
  -26.2800  -36.9950   23.7880 N   0  0  0  0  0  0  0  0  0  0  0  0
  -25.8510  -37.9000   23.9630 H   0  0  0  0  0  0  0  0  0  0  0  0
  -26.3300  -31.2790   24.8930 C   0  0  1  0  0  0  0  0  0  0  0  0
  -25.2200  -30.9500   25.9200 C   0  0  0  0  0  1  0  0  0  0  0  0
  -26.9700  -29.9430   24.4510 C   0  0  0  0  0  1  0  0  0  0  0  0
  -27.4400  -32.0790   25.6180 C   0  0  0  0  0  1  0  0  0  0  0  0
  1  2  2  0
  2 10  1  0
  3 52  1  0
  3  4  1  0
  3  5  1  0
  4  1  1  0
  5  2  1  0
  6  5  1  0
 10  9  1  6
 10  8  1  0
 10  7  1  0
 12 11  1  0
 12 15  1  0
 12  4  1  0
 15 14  1  1
 15 13  1  0
 16 22  1  0
 16 15  1  0
 17 22  1  0
 18 19  1  0
 18 17  1  0
 20 19  1  0
 20 27  1  0
 20 21  1  0
 22 21  1  0
 23 16  2  0
 24 25  2  0
 25 44  1  0
 26 29  1  0
 26 25  1  0
 27 28  1  0
 27 24  1  0
 28 26  2  0
 29 30  1  0
 30 31  2  0
 32 35  1  0
 32 31  1  0
 33 32  2  0
 34 33  1  0
 34 29  2  0
 35 36  1  0
 36 41  2  0
 36 37  1  0
 37 38  2  0
 38 39  1  0
 39 43  1  0
 40 39  2  0
 41 40  1  0
 42 41  1  0
 44 45  1  0
 45 47  1  0
 45 48  1  0
 46 44  2  0
 49 24  1  0
 49 50  1  0
 51 49  1  0
 53 52  1  0
 53 54  1  0
 55 56  1  0
 55 54  1  0
 56 58  1  0
 57 68  2  0
 58 63  1  0
 59 67  1  0
 59 69  1  0
 60 66  1  0
 60 62  1  0
 61 67  1  0
 62 61  1  0
 63 62  2  0
 64 65  1  0
 64 58  2  0
 65 60  2  0
 66 59  1  0
 67 57  1  0
 69 71  2  0
 70 69  1  0
 72 70  1  0
 73 82  2  0
 73 78  1  0
 74 70  1  0
 74 78  1  0
 75 74  1  0
 76 77  1  0
 76 75  1  0
 77 73  1  0
 78 79  2  0
 79 80  1  0
 81 80  2  0
 82 81  1  0
 83 57  1  0
 83 84  1  0
 83 93  1  0
 84 87  1  0
 85 89  1  0
 85 84  1  0
 86 85  2  0
 89 88  1  0
 91 89  1  0
 91 92  1  0
 91 90  1  0
 93 96  1  1
 93 94  1  0
 95 93  1  0
M  ISO  4  15 100  16 100  55 101  56 101
M  END
>  <TORSDO>  (47) 
F 23

>  <SCORE>  (47) 
-9.784

>  <name>  (47) 
49

>  <ligand_id>  (47) 
49

>  <original_smiles>  (47) 
[H]c1c([H])c([H])c2c(c1[H])C([H])([H])C([H])([H])C([H])([H])C2([H])N([H])C(=O)C1([H])N(C(=O)C([H])(N([H])C(=O)C([H])(N([H])C([H])([H])[H])C([H])([H])[H])C(C([H])([H])[H])(C([H])([H])[H])C([H])([H])[H])C([H])([H])c2c([H])c(OC([H])([H])C([H])([H])C([H])([H])C([H])([H])c3n(C([H])(C([H])([H])[H])C(C(=O)N4C([H])([H])C([H])([H])C([H])([H])C([H])(n5nc(-c6c([H])c([H])c(Oc7c([H])c([H])c(F)c([H])c7F)c([H])c6[H])c(C(=O)N([H])[H])c5N([H])[H])C4([H])[H])(C([H])([H])[H])C([H])([H])[H])c([H])c(C(C([H])([H])[H])(C([H])([H])[H])C([H])([H])[H])[n+]3[H])c([H])c([H])c2C1([H])[H]

>  <smiles>  (47) 
[H]c1c([H])c([H])c2c(c1[H])C([H])([H])C([H])([H])C([H])([H])C2([H])N([H])C(=O)C1([H])N(C(=O)C([H])(N([H])C(=O)C([H])(N([H])C([H])([H])[H])C([H])([H])[H])C(C([H])([H])[H])(C([H])([H])[H])C([H])([H])[H])C([H])([H])c2c([H])c(OC([H])([H])C([H])([H])C([H])([H])C([H])([H])c3n(C([H])(C([H])([H])[H])C(C(=O)N4C([H])([H])C([H])([H])C([H])([H])C([H])(n5nc(-c6c([H])c([H])c(Oc7c([H])c([H])c(F)c([H])c7F)c([H])c6[H])c(C(=O)N([H])[H])c5N([H])[H])C4([H])[H])(C([H])([H])[H])C([H])([H])[H])c([H])c(C(C([H])([H])[H])(C([H])([H])[H])C([H])([H])[H])[n+]3[H])c([H])c([H])c2C1([H])[H]

$$$$
50:0:0
     RDKit          3D

 97105  0  0  1  0  0  0  0  0999 V2000
  -29.5310  -21.1440   20.2950 C   0  0  0  0  0  2  0  0  0  0  0  0
  -31.3490  -21.4190   23.4310 C   0  0  0  0  0  3  0  0  0  0  0  0
  -31.6690  -19.8540   21.2470 C   0  0  0  0  0  0  0  0  0  0  0  0
  -32.6160  -19.8970   22.3010 C   0  0  0  0  0  0  0  0  0  0  0  0
  -30.5970  -20.7990   21.3560 C   0  0  0  0  0  0  0  0  0  0  0  0
  -32.4430  -20.6760   23.3830 N   0  0  0  0  0  0  0  0  0  0  0  0
  -30.4430  -21.5290   22.4770 N   0  0  0  0  0  0  0  0  0  0  0  0
  -35.0540  -20.0490   21.6440 C   0  0  0  0  0  1  0  0  0  0  0  0
  -33.9590  -19.1730   22.2630 C   0  0  0  0  0  2  0  0  0  0  0  0
  -31.8760  -18.8600   20.0850 C   0  0  0  0  0  2  0  0  0  0  0  0
  -31.2040  -17.4590   20.3110 C   0  0  0  0  0  2  0  0  0  0  0  0
  -32.4860  -15.2760   20.0430 C   0  0  0  0  0  0  0  0  0  0  0  0
  -32.1010  -12.9640   19.2840 C   0  0  0  0  0  2  0  0  0  0  0  0
  -31.2280  -13.0180   18.0110 C   0  0  0  0  0  2  0  0  0  0  0  0
  -29.7290  -13.0660   18.3690 C   0  0  0  0  0  2  0  0  0  0  0  0
  -29.3930  -14.1030   19.4760 C   0  0  0  0  0  3  0  0  0  0  0  0
  -30.3900  -14.0060   20.6540 C   0  0  0  0  0  2  0  0  0  0  0  0
  -31.7430  -14.1350   20.1000 N   0  0  0  0  0  0  0  0  0  0  0  0
  -33.7050  -15.2460   19.8560 O   0  0  0  0  0  0  0  0  0  0  0  0
  -31.9390  -16.6550   18.1100 C   0  0  0  0  0  1  0  0  0  0  0  0
  -31.8060  -16.3480   19.5410 N   0  0  0  0  0  0  0  0  0  0  0  0
  -27.0610  -14.9900   20.0980 C   0  0  0  0  0  0  0  0  0  0  0  0
  -25.8980  -14.3490   20.4360 C   0  0  0  0  0  0  0  0  0  0  0  0
  -26.2030  -12.9550   20.4420 C   0  0  0  0  0  0  0  0  0  0  0  0
  -28.0040  -13.9910   19.9170 N   0  0  0  0  0  0  0  0  0  0  0  0
  -27.4900  -12.7620   20.1830 N   0  0  0  0  0  0  0  0  0  0  0  0
  -25.3330  -11.7850   20.6200 C   0  0  0  0  0  0  0  0  0  0  0  0
  -25.6010  -10.8040   21.6000 C   0  0  0  0  0  3  0  0  0  0  0  0
  -24.7370   -9.7010   21.7640 C   0  0  0  0  0  3  0  0  0  0  0  0
  -23.5900   -9.5700   20.9470 C   0  0  0  0  0  0  0  0  0  0  0  0
  -23.3410  -10.5360   19.9550 C   0  0  0  0  0  3  0  0  0  0  0  0
  -24.2060  -11.6300   19.7900 C   0  0  0  0  0  3  0  0  0  0  0  0
  -22.7110   -8.5160   21.0150 O   0  0  0  0  0  0  0  0  0  0  0  0
  -22.4650   -7.8600   22.1950 C   0  0  0  0  0  0  0  0  0  0  0  0
  -22.0010   -8.5400   23.3420 C   0  0  0  0  0  3  0  0  0  0  0  0
  -21.6920   -7.8160   24.5120 C   0  0  0  0  0  3  0  0  0  0  0  0
  -21.8450   -6.4160   24.5350 C   0  0  0  0  0  0  0  0  0  0  0  0
  -22.3030   -5.7380   23.3920 C   0  0  0  0  0  3  0  0  0  0  0  0
  -22.6100   -6.4580   22.2250 C   0  0  0  0  0  0  0  0  0  0  0  0
  -23.0310   -5.7980   21.1190 F   0  0  0  0  0  0  0  0  0  0  0  0
  -21.5440   -5.7190   25.6560 F   0  0  0  0  0  0  0  0  0  0  0  0
  -24.5550  -14.9860   20.6500 C   0  0  0  0  0  0  0  0  0  0  0  0
  -23.7340  -14.4010   21.5170 N   0  0  0  0  0  0  0  0  0  0  0  0
  -24.2420  -16.0320   20.0840 O   0  0  0  0  0  0  0  0  0  0  0  0
  -23.9980  -13.5490   21.9900 H   0  0  0  0  0  0  0  0  0  0  0  0
  -22.8300  -14.8070   21.7080 H   0  0  0  0  0  0  0  0  0  0  0  0
  -27.3900  -16.3290   19.9100 N   0  0  0  0  0  0  0  0  0  0  0  0
  -26.7060  -17.0750   19.9920 H   0  0  0  0  0  0  0  0  0  0  0  0
  -28.3000  -16.6570   19.6120 H   0  0  0  0  0  0  0  0  0  0  0  0
  -31.0460  -22.6480   18.9240 C   0  0  0  0  0  1  0  0  0  0  0  0
  -29.6860  -22.5810   19.6590 C   0  0  0  0  0  3  0  0  0  0  0  0
  -27.8430  -21.8910   18.0360 C   0  0  0  0  0  1  0  0  0  0  0  0
  -28.9260  -24.0800   17.6630 C   0  0  0  0  0  1  0  0  0  0  0  0
  -28.4700  -23.0970   18.7700 C   0  0  2  0  0  0  0  0  0  0  0  0
  -27.3310  -23.8000   19.6000 C   0  0  0  0  0  2  0  0  0  0  0  0
  -27.6420  -25.1220   20.3750 C   0  0  0  0  0  2  0  0  0  0  0  0
  -27.6650  -26.3310   19.5740 O   0  0  0  0  0  0  0  0  0  0  0  0
  -24.4700  -31.6790   23.0710 C   0  0  0  0  0  0  0  0  0  0  0  0
  -26.5590  -27.1560   19.6800 C   0  0  0  0  0  0  0  0  0  0  0  0
  -23.0480  -30.4100   21.4970 C   0  0  0  0  0  3  0  0  0  0  0  0
  -24.2810  -28.8240   19.9190 C   0  0  0  0  0  0  0  0  0  0  0  0
  -25.5710  -30.6060   21.1060 C   0  0  0  0  0  2  0  0  0  0  0  0
  -25.5150  -29.2540   20.4190 C   0  0  0  0  0  0  0  0  0  0  0  0
  -26.6600  -28.4320   20.2860 C   0  0  0  0  0  3  0  0  0  0  0  0
  -25.3060  -26.7430   19.1800 C   0  0  0  0  0  3  0  0  0  0  0  0
  -24.1710  -27.5680   19.2980 C   0  0  0  0  0  3  0  0  0  0  0  0
  -23.1030  -29.7600   20.0880 C   0  0  0  0  0  2  0  0  0  0  0  0
  -24.3870  -30.9110   21.9470 N   0  0  0  0  0  0  0  0  0  0  0  0
  -23.4560  -32.0040   23.7040 O   0  0  0  0  0  0  0  0  0  0  0  0
  -22.4060  -29.4050   22.4790 C   0  0  0  0  0  0  0  0  0  0  0  0
  -21.0750  -29.2450   22.3900 N   0  0  0  0  0  0  0  0  0  0  0  0
  -23.1020  -28.7710   23.2780 O   0  0  0  0  0  0  0  0  0  0  0  0
  -20.5750  -29.8090   21.7180 H   0  0  0  0  0  0  0  0  0  0  0  0
  -17.7150  -28.0150   22.8990 C   0  0  0  0  0  0  0  0  0  0  0  0
  -20.2650  -28.3250   23.1880 C   0  0  0  0  0  3  0  0  0  0  0  0
  -20.3970  -26.8730   22.6690 C   0  0  0  0  0  2  0  0  0  0  0  0
  -19.3120  -26.4950   21.6550 C   0  0  0  0  0  2  0  0  0  0  0  0
  -17.9200  -26.6440   22.2780 C   0  0  0  0  0  2  0  0  0  0  0  0
  -18.8180  -28.8110   23.3100 C   0  0  0  0  0  0  0  0  0  0  0  0
  -18.5720  -30.0920   23.8490 C   0  0  0  0  0  3  0  0  0  0  0  0
  -17.2580  -30.5790   23.9820 C   0  0  0  0  0  3  0  0  0  0  0  0
  -16.1700  -29.7810   23.5870 C   0  0  0  0  0  3  0  0  0  0  0  0
  -16.4000  -28.5020   23.0500 C   0  0  0  0  0  3  0  0  0  0  0  0
  -25.8410  -32.2050   23.6010 C   0  0  0  0  0  3  0  0  0  0  0  0
  -25.6390  -33.5910   24.0490 N   0  0  0  0  0  0  0  0  0  0  0  0
  -25.9980  -34.6760   23.3500 C   0  0  0  0  0  0  0  0  0  0  0  0
  -26.6030  -34.6120   22.2750 O   0  0  0  0  0  0  0  0  0  0  0  0
  -25.0990  -33.7210   24.8910 H   0  0  0  0  0  0  0  0  0  0  0  0
  -24.3740  -36.5920   23.2230 C   0  0  0  0  0  1  0  0  0  0  0  0
  -25.6240  -36.0510   23.9340 C   0  0  0  0  0  3  0  0  0  0  0  0
  -27.8510  -36.7350   24.7110 C   0  0  0  0  0  1  0  0  0  0  0  0
  -26.7160  -37.0450   23.8450 N   0  0  0  0  0  0  0  0  0  0  0  0
  -26.3780  -37.9720   24.0900 H   0  0  0  0  0  0  0  0  0  0  0  0
  -26.4410  -31.3260   24.7660 C   0  0  1  0  0  0  0  0  0  0  0  0
  -25.4490  -31.0660   25.9230 C   0  0  0  0  0  1  0  0  0  0  0  0
  -26.9080  -29.9520   24.2290 C   0  0  0  0  0  1  0  0  0  0  0  0
  -27.6920  -32.0180   25.3570 C   0  0  0  0  0  1  0  0  0  0  0  0
  1  5  1  0
  3  5  2  0
  3  4  1  0
  4  6  2  0
  5  7  1  0
  6  2  1  0
  7  2  2  0
  8  9  1  0
  9  4  1  0
 10 11  1  0
 10  3  1  0
 12 18  1  0
 13 18  1  0
 14 15  1  0
 14 13  1  0
 16 15  1  0
 16 25  1  0
 16 17  1  0
 18 17  1  0
 19 12  2  0
 20 21  1  0
 21 12  1  0
 21 11  1  0
 22 23  2  0
 23 24  1  0
 23 42  1  0
 24 27  1  0
 25 22  1  0
 25 26  1  0
 26 24  2  0
 27 28  1  0
 28 29  2  0
 30 33  1  0
 30 29  1  0
 31 30  2  0
 32 31  1  0
 32 27  2  0
 33 34  1  0
 34 39  2  0
 34 35  1  0
 35 36  2  0
 36 37  1  0
 37 41  1  0
 38 37  2  0
 39 38  1  0
 40 39  1  0
 42 43  1  0
 43 46  1  0
 43 45  1  0
 44 42  2  0
 47 48  1  0
 47 22  1  0
 49 47  1  0
 51 50  1  0
 51  1  1  0
 54 52  1  6
 53 54  1  0
 54 55  1  0
 54 51  1  0
 55 56  1  0
 57 59  1  0
 57 56  1  0
 58 69  2  0
 59 64  1  0
 60 68  1  0
 60 70  1  0
 61 67  1  0
 61 63  1  0
 62 68  1  0
 63 62  1  0
 64 63  2  0
 65 66  1  0
 65 59  2  0
 66 61  2  0
 67 60  1  0
 68 58  1  0
 70 72  2  0
 71 70  1  0
 73 71  1  0
 74 83  2  0
 74 79  1  0
 75 71  1  0
 75 79  1  0
 76 75  1  0
 77 78  1  0
 77 76  1  0
 78 74  1  0
 79 80  2  0
 80 81  1  0
 82 81  2  0
 83 82  1  0
 84 58  1  0
 84 85  1  0
 84 94  1  0
 85 88  1  0
 86 90  1  0
 86 85  1  0
 87 86  2  0
 90 89  1  0
 92 90  1  0
 92 93  1  0
 92 91  1  0
 94 97  1  1
 94 95  1  0
 96 94  1  0
M  ISO  4  12 100  21 100  56 101  57 101
M  END
>  <TORSDO>  (48) 
F 24

>  <SCORE>  (48) 
-9.667

>  <name>  (48) 
50

>  <ligand_id>  (48) 
50

>  <original_smiles>  (48) 
[H]c1nc(C([H])([H])C([H])([H])[H])c(C([H])([H])C([H])([H])N(C(=O)N2C([H])([H])C([H])([H])C([H])([H])C([H])(n3nc(-c4c([H])c([H])c(Oc5c([H])c([H])c(F)c([H])c5F)c([H])c4[H])c(C(=O)N([H])[H])c3N([H])[H])C2([H])[H])C([H])([H])[H])c(C([H])([H])C([H])(C([H])([H])[H])C(C([H])([H])[H])(C([H])([H])[H])C([H])([H])C([H])([H])Oc2c([H])c([H])c3c(c2[H])C([H])([H])N(C(=O)C([H])(N([H])C(=O)C([H])(N([H])C([H])([H])[H])C([H])([H])[H])C(C([H])([H])[H])(C([H])([H])[H])C([H])([H])[H])C([H])(C(=O)N([H])C2([H])c4c([H])c([H])c([H])c([H])c4C([H])([H])C([H])([H])C2([H])[H])C3([H])[H])n1

>  <smiles>  (48) 
[H]c1nc(C([H])([H])C([H])([H])[H])c(C([H])([H])C([H])([H])N(C(=O)N2C([H])([H])C([H])([H])C([H])([H])C([H])(n3nc(-c4c([H])c([H])c(Oc5c([H])c([H])c(F)c([H])c5F)c([H])c4[H])c(C(=O)N([H])[H])c3N([H])[H])C2([H])[H])C([H])([H])[H])c(C([H])([H])C([H])(C([H])([H])[H])C(C([H])([H])[H])(C([H])([H])[H])C([H])([H])C([H])([H])Oc2c([H])c([H])c3c(c2[H])C([H])([H])N(C(=O)C([H])(N([H])C(=O)C([H])(N([H])C([H])([H])[H])C([H])([H])[H])C(C([H])([H])[H])(C([H])([H])[H])C([H])([H])[H])C([H])(C(=O)N([H])C2([H])c4c([H])c([H])c([H])c([H])c4C([H])([H])C([H])([H])C2([H])[H])C3([H])[H])n1

$$$$
51:0:0
     RDKit          3D

100108  0  0  1  0  0  0  0  0999 V2000
  -29.6670  -21.7670   21.7660 C   0  0  0  0  0  0  0  0  0  0  0  0
  -29.5040  -21.2700   20.4590 C   0  0  0  0  0  0  0  0  0  0  0  0
  -30.3980  -20.9480   22.6680 C   0  0  0  0  0  0  0  0  0  0  0  0
  -30.6900  -19.3770   21.0010 C   0  0  0  0  0  0  0  0  0  0  0  0
  -30.0250  -20.0770   20.0850 N   0  0  0  0  0  0  0  0  0  0  0  0
  -30.8890  -19.7540   22.2560 N   0  0  0  0  0  0  0  0  0  0  0  0
  -28.9470  -23.2840   22.2010 Cl  0  0  0  0  0  0  0  0  0  0  0  0
  -29.2130  -21.2970   24.8740 C   0  0  0  0  0  1  0  0  0  0  0  0
  -31.3540  -22.5910   24.3990 C   0  0  0  0  0  1  0  0  0  0  0  0
  -31.4250  -20.1740   24.8910 C   0  0  0  0  0  1  0  0  0  0  0  0
  -30.5870  -21.2670   24.1730 C   0  0  2  0  0  0  0  0  0  0  0  0
  -28.6670  -22.0250   19.4180 C   0  0  0  0  0  2  0  0  0  0  0  0
  -29.4650  -23.0560   18.5720 C   0  0  0  0  0  2  0  0  0  0  0  0
  -29.7330  -24.3870   16.4440 C   0  0  0  0  0  1  0  0  0  0  0  0
  -27.9620  -22.6700   16.5800 C   0  0  0  0  0  1  0  0  0  0  0  0
  -28.6940  -23.7600   17.4030 C   0  0  1  0  0  0  0  0  0  0  0  0
  -26.7270  -25.3540   16.8010 C   0  0  0  0  0  1  0  0  0  0  0  0
  -27.6740  -24.8530   17.9180 C   0  0  0  0  0  3  0  0  0  0  0  0
  -28.3090  -26.0970   18.6190 C   0  0  0  0  0  2  0  0  0  0  0  0
  -27.7300  -26.4830   19.8640 O   0  0  0  0  0  0  0  0  0  0  0  0
  -24.4490  -31.8160   23.2110 C   0  0  0  0  0  0  0  0  0  0  0  0
  -26.6270  -27.3040   19.8790 C   0  0  0  0  0  0  0  0  0  0  0  0
  -23.0550  -30.5110   21.6390 C   0  0  0  0  0  3  0  0  0  0  0  0
  -24.3200  -28.9250   20.0900 C   0  0  0  0  0  0  0  0  0  0  0  0
  -25.5760  -30.7380   21.2670 C   0  0  0  0  0  2  0  0  0  0  0  0
  -25.5430  -29.3780   20.6020 C   0  0  0  0  0  0  0  0  0  0  0  0
  -26.6970  -28.5700   20.5030 C   0  0  0  0  0  3  0  0  0  0  0  0
  -25.3820  -26.8520   19.3920 C   0  0  0  0  0  3  0  0  0  0  0  0
  -24.2330  -27.6590   19.4860 C   0  0  0  0  0  3  0  0  0  0  0  0
  -23.1300  -29.8460   20.2380 C   0  0  0  0  0  2  0  0  0  0  0  0
  -24.3840  -31.0350   22.0960 N   0  0  0  0  0  0  0  0  0  0  0  0
  -23.4260  -32.1360   23.8310 O   0  0  0  0  0  0  0  0  0  0  0  0
  -22.4190  -29.5090   22.6300 C   0  0  0  0  0  0  0  0  0  0  0  0
  -21.0970  -29.3030   22.5060 N   0  0  0  0  0  0  0  0  0  0  0  0
  -23.1090  -28.9160   23.4630 O   0  0  0  0  0  0  0  0  0  0  0  0
  -20.5980  -29.8340   21.8060 H   0  0  0  0  0  0  0  0  0  0  0  0
  -17.7710  -27.9550   22.9290 C   0  0  0  0  0  0  0  0  0  0  0  0
  -20.2930  -28.3760   23.3030 C   0  0  0  0  0  3  0  0  0  0  0  0
  -20.5000  -26.9160   22.8420 C   0  0  0  0  0  2  0  0  0  0  0  0
  -19.4730  -26.4600   21.8000 C   0  0  0  0  0  2  0  0  0  0  0  0
  -18.0530  -26.5740   22.3630 C   0  0  0  0  0  2  0  0  0  0  0  0
  -18.8230  -28.8080   23.3560 C   0  0  0  0  0  0  0  0  0  0  0  0
  -18.5070  -30.0950   23.8420 C   0  0  0  0  0  3  0  0  0  0  0  0
  -17.1720  -30.5350   23.9030 C   0  0  0  0  0  3  0  0  0  0  0  0
  -16.1330  -29.6810   23.4940 C   0  0  0  0  0  3  0  0  0  0  0  0
  -16.4320  -28.3930   23.0150 C   0  0  0  0  0  3  0  0  0  0  0  0
  -25.8090  -32.3650   23.7470 C   0  0  0  0  0  3  0  0  0  0  0  0
  -25.5950  -33.7650   24.1390 N   0  0  0  0  0  0  0  0  0  0  0  0
  -25.9270  -34.8240   23.3870 C   0  0  0  0  0  0  0  0  0  0  0  0
  -26.5180  -34.7200   22.3080 O   0  0  0  0  0  0  0  0  0  0  0  0
  -25.0700  -33.9220   24.9860 H   0  0  0  0  0  0  0  0  0  0  0  0
  -24.2710  -36.7070   23.2030 C   0  0  0  0  0  1  0  0  0  0  0  0
  -25.5430  -36.2190   23.9150 C   0  0  0  0  0  3  0  0  0  0  0  0
  -27.7730  -36.9720   24.6130 C   0  0  0  0  0  1  0  0  0  0  0  0
  -26.6170  -37.2240   23.7570 N   0  0  0  0  0  0  0  0  0  0  0  0
  -26.2700  -38.1570   23.9600 H   0  0  0  0  0  0  0  0  0  0  0  0
  -26.3860  -31.5300   24.9560 C   0  0  1  0  0  0  0  0  0  0  0  0
  -25.3690  -31.3050   26.1000 C   0  0  0  0  0  1  0  0  0  0  0  0
  -26.8690  -30.1400   24.4770 C   0  0  0  0  0  1  0  0  0  0  0  0
  -27.6230  -32.2460   25.5470 C   0  0  0  0  0  1  0  0  0  0  0  0
  -31.2080  -17.9870   20.6140 C   0  0  0  0  0  2  0  0  0  0  0  0
  -30.1790  -16.8430   20.8670 C   0  0  0  0  0  2  0  0  0  0  0  0
  -31.0820  -14.5650   20.3160 C   0  0  0  0  0  0  0  0  0  0  0  0
  -30.7490  -12.3190   19.3880 C   0  0  0  0  0  2  0  0  0  0  0  0
  -29.8420  -12.4560   18.1460 C   0  0  0  0  0  2  0  0  0  0  0  0
  -28.3510  -12.4200   18.5420 C   0  0  0  0  0  2  0  0  0  0  0  0
  -28.0060  -13.3300   19.7550 C   0  0  0  0  0  3  0  0  0  0  0  0
  -29.0460  -13.1970   20.8920 C   0  0  0  0  0  2  0  0  0  0  0  0
  -30.3800  -13.3990   20.3090 N   0  0  0  0  0  0  0  0  0  0  0  0
  -32.2970  -14.6190   20.1270 O   0  0  0  0  0  0  0  0  0  0  0  0
  -30.1980  -15.9990   18.5740 C   0  0  0  0  0  1  0  0  0  0  0  0
  -30.3350  -15.6550   20.0010 N   0  0  0  0  0  0  0  0  0  0  0  0
  -25.6320  -14.0440   20.4230 C   0  0  0  0  0  0  0  0  0  0  0  0
  -24.5270  -13.3200   20.7790 C   0  0  0  0  0  0  0  0  0  0  0  0
  -24.9350  -11.9520   20.7760 C   0  0  0  0  0  0  0  0  0  0  0  0
  -26.6430  -13.1160   20.2240 N   0  0  0  0  0  0  0  0  0  0  0  0
  -26.2280  -11.8540   20.4970 N   0  0  0  0  0  0  0  0  0  0  0  0
  -24.1570  -10.7230   20.9690 C   0  0  0  0  0  0  0  0  0  0  0  0
  -24.5330   -9.7560   21.9280 C   0  0  0  0  0  3  0  0  0  0  0  0
  -23.7580   -8.5910   22.1100 C   0  0  0  0  0  3  0  0  0  0  0  0
  -22.5930   -8.3860   21.3320 C   0  0  0  0  0  0  0  0  0  0  0  0
  -22.2370   -9.3400   20.3610 C   0  0  0  0  0  3  0  0  0  0  0  0
  -23.0130  -10.4970   20.1770 C   0  0  0  0  0  3  0  0  0  0  0  0
  -21.7950   -7.2710   21.4190 O   0  0  0  0  0  0  0  0  0  0  0  0
  -21.6830   -6.5560   22.5850 C   0  0  0  0  0  0  0  0  0  0  0  0
  -21.2500   -7.1540   23.7890 C   0  0  0  0  0  3  0  0  0  0  0  0
  -21.0820   -6.3660   24.9460 C   0  0  0  0  0  3  0  0  0  0  0  0
  -21.3400   -4.9830   24.8990 C   0  0  0  0  0  0  0  0  0  0  0  0
  -21.7660   -4.3850   23.7000 C   0  0  0  0  0  3  0  0  0  0  0  0
  -21.9350   -5.1700   22.5450 C   0  0  0  0  0  0  0  0  0  0  0  0
  -22.3250   -4.5860   21.3860 F   0  0  0  0  0  0  0  0  0  0  0  0
  -21.1690   -4.2240   26.0070 F   0  0  0  0  0  0  0  0  0  0  0  0
  -23.1460  -13.8560   21.0190 C   0  0  0  0  0  0  0  0  0  0  0  0
  -22.3840  -13.2050   21.8890 N   0  0  0  0  0  0  0  0  0  0  0  0
  -22.7540  -14.8850   20.4680 O   0  0  0  0  0  0  0  0  0  0  0  0
  -22.7150  -12.3680   22.3450 H   0  0  0  0  0  0  0  0  0  0  0  0
  -21.4550  -13.5420   22.0980 H   0  0  0  0  0  0  0  0  0  0  0  0
  -25.8540  -15.4030   20.2300 N   0  0  0  0  0  0  0  0  0  0  0  0
  -25.1090  -16.0870   20.3110 H   0  0  0  0  0  0  0  0  0  0  0  0
  -26.7370  -15.8070   19.9420 H   0  0  0  0  0  0  0  0  0  0  0  0
  1  7  1  0
  1  3  1  0
  2  1  2  0
  3 11  1  0
  4  6  1  0
  5  2  1  0
  5  4  2  0
  6  3  2  0
 11  9  1  6
 11  8  1  0
 11 10  1  0
 12  2  1  0
 13 12  1  0
 16 14  1  6
 15 16  1  0
 16 18  1  0
 16 13  1  0
 18 17  1  0
 18 19  1  0
 19 20  1  0
 20 22  1  0
 21 32  2  0
 22 27  1  0
 23 31  1  0
 23 33  1  0
 24 30  1  0
 24 26  1  0
 25 31  1  0
 26 25  1  0
 27 26  2  0
 28 29  1  0
 28 22  2  0
 29 24  2  0
 30 23  1  0
 31 21  1  0
 33 35  2  0
 34 33  1  0
 36 34  1  0
 37 46  2  0
 37 42  1  0
 38 34  1  0
 38 42  1  0
 39 38  1  0
 40 41  1  0
 40 39  1  0
 41 37  1  0
 42 43  2  0
 43 44  1  0
 45 44  2  0
 46 45  1  0
 47 21  1  0
 47 48  1  0
 47 57  1  0
 48 51  1  0
 49 53  1  0
 49 48  1  0
 50 49  2  0
 53 52  1  0
 55 53  1  0
 55 56  1  0
 55 54  1  0
 57 60  1  1
 57 58  1  0
 59 57  1  0
 61 62  1  0
 61  4  1  0
 64 69  1  0
 65 66  1  0
 65 64  1  0
 67 66  1  0
 67 76  1  0
 67 68  1  0
 69 63  1  0
 69 68  1  0
 70 63  2  0
 71 72  1  0
 72 63  1  0
 72 62  1  0
 73 74  2  0
 74 93  1  0
 75 74  1  0
 75 78  1  0
 76 73  1  0
 76 77  1  0
 77 75  2  0
 78 79  1  0
 79 80  2  0
 81 84  1  0
 81 80  1  0
 82 81  2  0
 83 82  1  0
 83 78  2  0
 84 85  1  0
 85 86  1  0
 86 87  2  0
 88 87  1  0
 88 92  1  0
 89 88  2  0
 90 85  2  0
 90 89  1  0
 91 90  1  0
 93 94  1  0
 94 97  1  0
 94 96  1  0
 95 93  2  0
 98 99  1  0
 98 73  1  0
100 98  1  0
M  ISO  4  19 101  20 101  63 100  72 100
M  END
>  <TORSDO>  (49) 
F 24

>  <SCORE>  (49) 
-8.783

>  <name>  (49) 
51

>  <ligand_id>  (49) 
51

>  <original_smiles>  (49) 
[H]c1c([H])c([H])c2c(c1[H])C([H])([H])C([H])([H])C([H])([H])C2([H])N([H])C(=O)C1([H])N(C(=O)C([H])(N([H])C(=O)C([H])(N([H])C([H])([H])[H])C([H])([H])[H])C(C([H])([H])[H])(C([H])([H])[H])C([H])([H])[H])C([H])([H])c2c([H])c(OC([H])([H])C([H])(C([H])([H])[H])C(C([H])([H])[H])(C([H])([H])[H])C([H])([H])C([H])([H])c3nc(C([H])([H])C([H])([H])N(C(=O)N4C([H])([H])C([H])([H])C([H])([H])C([H])(n5nc(-c6c([H])c([H])c(Oc7c([H])c([H])c(F)c([H])c7F)c([H])c6[H])c(C(=O)N([H])[H])c5N([H])[H])C4([H])[H])C([H])([H])[H])nc(C(C([H])([H])[H])(C([H])([H])[H])C([H])([H])[H])c3Cl)c([H])c([H])c2C1([H])[H]

>  <smiles>  (49) 
[H]c1c([H])c([H])c2c(c1[H])C([H])([H])C([H])([H])C([H])([H])C2([H])N([H])C(=O)C1([H])N(C(=O)C([H])(N([H])C(=O)C([H])(N([H])C([H])([H])[H])C([H])([H])[H])C(C([H])([H])[H])(C([H])([H])[H])C([H])([H])[H])C([H])([H])c2c([H])c(OC([H])([H])C([H])(C([H])([H])[H])C(C([H])([H])[H])(C([H])([H])[H])C([H])([H])C([H])([H])c3nc(C([H])([H])C([H])([H])N(C(=O)N4C([H])([H])C([H])([H])C([H])([H])C([H])(n5nc(-c6c([H])c([H])c(Oc7c([H])c([H])c(F)c([H])c7F)c([H])c6[H])c(C(=O)N([H])[H])c5N([H])[H])C4([H])[H])C([H])([H])[H])nc(C(C([H])([H])[H])(C([H])([H])[H])C([H])([H])[H])c3Cl)c([H])c([H])c2C1([H])[H]

$$$$
52:0:0
     RDKit          3D

 93101  0  0  1  0  0  0  0  0999 V2000
  -30.5920  -20.5690   19.9310 C   0  0  0  0  0  3  0  0  0  0  0  0
  -29.2940  -20.8650   19.4570 C   0  0  0  0  0  0  0  0  0  0  0  0
  -28.5530  -19.6910   19.1430 C   0  0  0  0  0  0  0  0  0  0  0  0
  -30.2730  -18.2550   19.8100 C   0  0  0  0  0  0  0  0  0  0  0  0
  -27.1510  -19.7510   18.5640 C   0  0  0  0  0  1  0  0  0  0  0  0
  -31.0530  -19.3010   20.1170 N   0  0  0  0  0  0  0  0  0  0  0  0
  -29.0460  -18.4310   19.3100 N   0  0  0  0  0  0  0  0  0  0  0  0
  -28.8350  -22.3390   19.0770 C   0  0  0  0  0  2  0  0  0  0  0  0
  -28.6820  -23.5550   20.1130 C   0  0  0  0  0  2  0  0  0  0  0  0
  -28.4290  -24.9910   19.4350 C   0  0  0  0  0  2  0  0  0  0  0  0
  -28.2760  -26.2550   20.2180 O   0  0  0  0  0  0  0  0  0  0  0  0
  -24.5430  -31.6700   23.2010 C   0  0  0  0  0  0  0  0  0  0  0  0
  -27.1470  -27.0950   20.1370 C   0  0  0  0  0  0  0  0  0  0  0  0
  -23.3440  -30.2900   21.5440 C   0  0  0  0  0  3  0  0  0  0  0  0
  -24.7980  -28.7420   20.1210 C   0  0  0  0  0  0  0  0  0  0  0  0
  -25.8940  -30.5880   21.3890 C   0  0  0  0  0  2  0  0  0  0  0  0
  -25.9680  -29.2160   20.7260 C   0  0  0  0  0  0  0  0  0  0  0  0
  -27.1400  -28.4000   20.7270 C   0  0  0  0  0  3  0  0  0  0  0  0
  -25.9460  -26.6820   19.5150 C   0  0  0  0  0  3  0  0  0  0  0  0
  -24.7900  -27.4810   19.5080 C   0  0  0  0  0  3  0  0  0  0  0  0
  -23.5650  -29.6200   20.1610 C   0  0  0  0  0  2  0  0  0  0  0  0
  -24.6120  -30.8660   22.0990 N   0  0  0  0  0  0  0  0  0  0  0  0
  -23.4560  -31.9490   23.7280 O   0  0  0  0  0  0  0  0  0  0  0  0
  -22.6660  -29.2720   22.4920 C   0  0  0  0  0  0  0  0  0  0  0  0
  -21.3490  -29.0700   22.3250 N   0  0  0  0  0  0  0  0  0  0  0  0
  -23.3280  -28.6630   23.3370 O   0  0  0  0  0  0  0  0  0  0  0  0
  -20.8700  -29.6290   21.6330 H   0  0  0  0  0  0  0  0  0  0  0  0
  -17.9890  -27.7950   22.6870 C   0  0  0  0  0  0  0  0  0  0  0  0
  -20.5230  -28.1190   23.0710 C   0  0  0  0  0  3  0  0  0  0  0  0
  -20.6890  -26.6800   22.5220 C   0  0  0  0  0  2  0  0  0  0  0  0
  -19.6420  -26.3170   21.4670 C   0  0  0  0  0  2  0  0  0  0  0  0
  -18.2270  -26.4380   22.0430 C   0  0  0  0  0  2  0  0  0  0  0  0
  -19.0680  -28.5890   23.1550 C   0  0  0  0  0  0  0  0  0  0  0  0
  -18.7910  -29.8540   23.7180 C   0  0  0  0  0  3  0  0  0  0  0  0
  -17.4690  -30.3290   23.8130 C   0  0  0  0  0  3  0  0  0  0  0  0
  -16.4020  -29.5320   23.3570 C   0  0  0  0  0  3  0  0  0  0  0  0
  -16.6650  -28.2680   22.8010 C   0  0  0  0  0  3  0  0  0  0  0  0
  -25.8250  -32.2870   23.8390 C   0  0  0  0  0  3  0  0  0  0  0  0
  -25.5000  -33.6650   24.2370 N   0  0  0  0  0  0  0  0  0  0  0  0
  -25.7950  -34.7540   23.5180 C   0  0  0  0  0  0  0  0  0  0  0  0
  -26.4360  -34.7090   22.4650 O   0  0  0  0  0  0  0  0  0  0  0  0
  -24.9230  -33.7730   25.0580 H   0  0  0  0  0  0  0  0  0  0  0  0
  -24.0160  -36.5240   23.3050 C   0  0  0  0  0  1  0  0  0  0  0  0
  -25.2960  -36.1120   24.0500 C   0  0  0  0  0  3  0  0  0  0  0  0
  -27.4410  -37.0140   24.8390 C   0  0  0  0  0  1  0  0  0  0  0  0
  -26.3000  -37.1930   23.9420 N   0  0  0  0  0  0  0  0  0  0  0  0
  -25.8800  -38.0960   24.1420 H   0  0  0  0  0  0  0  0  0  0  0  0
  -26.3620  -31.4650   25.0760 C   0  0  1  0  0  0  0  0  0  0  0  0
  -25.2730  -31.1410   26.1240 C   0  0  0  0  0  1  0  0  0  0  0  0
  -26.9910  -30.1290   24.6180 C   0  0  0  0  0  1  0  0  0  0  0  0
  -27.4810  -32.2620   25.7860 C   0  0  0  0  0  1  0  0  0  0  0  0
  -30.7390  -16.8100   20.2850 C   0  0  0  0  0  3  0  0  0  0  0  0
  -30.9440  -17.7580   22.7000 C   0  0  0  0  0  1  0  0  0  0  0  0
  -31.3750  -15.3400   22.2860 C   0  0  0  0  0  1  0  0  0  0  0  0
  -29.0430  -16.2460   22.1690 C   0  0  0  0  0  1  0  0  0  0  0  0
  -30.5260  -16.5490   21.8320 C   0  0  2  0  0  0  0  0  0  0  0  0
  -30.2640  -15.6150   19.5800 O   0  0  0  0  0  0  0  0  0  0  0  0
  -31.0830  -14.5310   19.1860 C   0  0  0  0  0  0  0  0  0  0  0  0
  -30.6990  -12.2050   18.3280 C   0  0  0  0  0  2  0  0  0  0  0  0
  -29.6310  -12.2770   17.2140 C   0  0  0  0  0  2  0  0  0  0  0  0
  -28.2000  -12.2460   17.7930 C   0  0  0  0  0  2  0  0  0  0  0  0
  -28.0120  -13.2310   18.9780 C   0  0  0  0  0  3  0  0  0  0  0  0
  -29.1560  -13.0780   19.9960 C   0  0  0  0  0  2  0  0  0  0  0  0
  -30.4120  -13.2910   19.2760 N   0  0  0  0  0  0  0  0  0  0  0  0
  -32.2100  -14.6580   18.7000 O   0  0  0  0  0  0  0  0  0  0  0  0
  -25.7760  -14.0520   19.9450 C   0  0  0  0  0  0  0  0  0  0  0  0
  -24.6950  -13.3790   20.4550 C   0  0  0  0  0  0  0  0  0  0  0  0
  -25.0360  -11.9930   20.4070 C   0  0  0  0  0  0  0  0  0  0  0  0
  -26.7070  -13.0790   19.6160 N   0  0  0  0  0  0  0  0  0  0  0  0
  -26.2720  -11.8370   19.9520 N   0  0  0  0  0  0  0  0  0  0  0  0
  -24.2300  -10.8020   20.7110 C   0  0  0  0  0  0  0  0  0  0  0  0
  -24.6580   -9.8400   21.6540 C   0  0  0  0  0  3  0  0  0  0  0  0
  -23.8580   -8.7130   21.9410 C   0  0  0  0  0  3  0  0  0  0  0  0
  -22.6140   -8.5410   21.2890 C   0  0  0  0  0  0  0  0  0  0  0  0
  -22.2030   -9.4890   20.3350 C   0  0  0  0  0  3  0  0  0  0  0  0
  -23.0040  -10.6080   20.0460 C   0  0  0  0  0  3  0  0  0  0  0  0
  -21.7830   -7.4630   21.4850 O   0  0  0  0  0  0  0  0  0  0  0  0
  -21.7260   -6.8120   22.6910 C   0  0  0  0  0  0  0  0  0  0  0  0
  -21.3950   -7.4840   23.8880 C   0  0  0  0  0  3  0  0  0  0  0  0
  -21.2790   -6.7630   25.0930 C   0  0  0  0  0  3  0  0  0  0  0  0
  -21.4810   -5.3700   25.1030 C   0  0  0  0  0  0  0  0  0  0  0  0
  -21.8030   -4.6970   23.9100 C   0  0  0  0  0  3  0  0  0  0  0  0
  -21.9230   -5.4160   22.7090 C   0  0  0  0  0  0  0  0  0  0  0  0
  -22.2130   -4.7600   21.5600 F   0  0  0  0  0  0  0  0  0  0  0  0
  -21.3610   -4.6750   26.2580 F   0  0  0  0  0  0  0  0  0  0  0  0
  -23.3850  -13.9820   20.8720 C   0  0  0  0  0  0  0  0  0  0  0  0
  -22.7240  -13.3870   21.8600 N   0  0  0  0  0  0  0  0  0  0  0  0
  -22.9620  -15.0140   20.3550 O   0  0  0  0  0  0  0  0  0  0  0  0
  -23.0810  -12.5520   22.3010 H   0  0  0  0  0  0  0  0  0  0  0  0
  -21.8490  -13.7760   22.1810 H   0  0  0  0  0  0  0  0  0  0  0  0
  -26.0310  -15.3970   19.7160 N   0  0  0  0  0  0  0  0  0  0  0  0
  -25.3400  -16.1160   19.9000 H   0  0  0  0  0  0  0  0  0  0  0  0
  -26.8840  -15.7610   19.3120 H   0  0  0  0  0  0  0  0  0  0  0  0
  1  6  1  0
  2  1  2  0
  3  7  2  0
  3  2  1  0
  4  6  2  0
  4 52  1  0
  5  3  1  0
  7  4  1  0
  8  2  1  0
  8  9  1  0
 10  9  1  0
 10 11  1  0
 12 23  2  0
 13 11  1  0
 13 18  1  0
 14 22  1  0
 14 24  1  0
 15 21  1  0
 15 17  1  0
 16 22  1  0
 17 18  2  0
 17 16  1  0
 19 13  2  0
 20 19  1  0
 20 15  2  0
 21 14  1  0
 22 12  1  0
 24 26  2  0
 25 24  1  0
 27 25  1  0
 28 37  2  0
 28 33  1  0
 29 25  1  0
 29 33  1  0
 30 29  1  0
 31 32  1  0
 31 30  1  0
 32 28  1  0
 33 34  2  0
 34 35  1  0
 36 35  2  0
 37 36  1  0
 38 12  1  0
 38 39  1  0
 38 48  1  0
 39 42  1  0
 40 44  1  0
 40 39  1  0
 41 40  2  0
 44 43  1  0
 46 44  1  0
 46 47  1  0
 46 45  1  0
 48 51  1  1
 48 49  1  0
 50 48  1  0
 52 57  1  0
 52 56  1  0
 56 55  1  6
 56 54  1  0
 56 53  1  0
 58 64  1  0
 58 57  1  0
 59 64  1  0
 60 61  1  0
 60 59  1  0
 62 61  1  0
 62 69  1  0
 62 63  1  0
 64 63  1  0
 65 58  2  0
 66 67  2  0
 67 86  1  0
 68 67  1  0
 68 71  1  0
 69 66  1  0
 69 70  1  0
 70 68  2  0
 71 72  1  0
 72 73  2  0
 74 77  1  0
 74 73  1  0
 75 74  2  0
 76 75  1  0
 76 71  2  0
 77 78  1  0
 78 83  2  0
 78 79  1  0
 79 80  2  0
 80 81  1  0
 81 85  1  0
 82 81  2  0
 83 82  1  0
 84 83  1  0
 86 87  1  0
 87 90  1  0
 87 89  1  0
 88 86  2  0
 91 92  1  0
 91 66  1  0
 93 91  1  0
M  ISO  4  10 101  11 101  57 100  58 100
M  END
>  <TORSDO>  (50) 
F 22

>  <SCORE>  (50) 
-9.499

>  <name>  (50) 
52

>  <ligand_id>  (50) 
52

>  <original_smiles>  (50) 
[H]c1nc(C([H])(OC(=O)N2C([H])([H])C([H])([H])C([H])([H])C([H])(n3nc(-c4c([H])c([H])c(Oc5c([H])c([H])c(F)c([H])c5F)c([H])c4[H])c(C(=O)N([H])[H])c3N([H])[H])C2([H])[H])C(C([H])([H])[H])(C([H])([H])[H])C([H])([H])[H])nc(C([H])([H])[H])c1C([H])([H])C([H])([H])C([H])([H])Oc1c([H])c([H])c2c(c1[H])C([H])([H])N(C(=O)C([H])(N([H])C(=O)C([H])(N([H])C([H])([H])[H])C([H])([H])[H])C(C([H])([H])[H])(C([H])([H])[H])C([H])([H])[H])C([H])(C(=O)N([H])C1([H])c3c([H])c([H])c([H])c([H])c3C([H])([H])C([H])([H])C1([H])[H])C2([H])[H]

>  <smiles>  (50) 
[H]c1nc(C([H])(OC(=O)N2C([H])([H])C([H])([H])C([H])([H])C([H])(n3nc(-c4c([H])c([H])c(Oc5c([H])c([H])c(F)c([H])c5F)c([H])c4[H])c(C(=O)N([H])[H])c3N([H])[H])C2([H])[H])C(C([H])([H])[H])(C([H])([H])[H])C([H])([H])[H])nc(C([H])([H])[H])c1C([H])([H])C([H])([H])C([H])([H])Oc1c([H])c([H])c2c(c1[H])C([H])([H])N(C(=O)C([H])(N([H])C(=O)C([H])(N([H])C([H])([H])[H])C([H])([H])[H])C(C([H])([H])[H])(C([H])([H])[H])C([H])([H])[H])C([H])(C(=O)N([H])C1([H])c3c([H])c([H])c([H])c([H])c3C([H])([H])C([H])([H])C1([H])[H])C2([H])[H]

$$$$
54:0:0
     RDKit          3D

 93101  0  0  1  0  0  0  0  0999 V2000
  -29.7860  -18.9040   20.3780 C   0  0  0  0  0  0  0  0  0  0  0  0
  -28.2230  -20.3070   20.0810 C   0  0  0  0  0  3  0  0  0  0  0  0
  -26.8850  -20.9120   19.8070 C   0  0  0  0  0  1  0  0  0  0  0  0
  -28.4690  -18.9850   20.0120 N   0  0  0  0  0  0  0  0  0  0  0  0
  -30.2920  -20.1350   20.7000 N   0  0  0  0  0  2  0  0  0  0  0  0
  -29.2710  -21.0620   20.4590 N   0  0  0  0  0  0  0  0  0  0  0  0
  -29.3220  -22.5510   20.8650 C   0  0  0  0  0  2  0  0  0  0  0  0
  -28.9200  -23.8060   19.8980 C   0  0  0  0  0  2  0  0  0  0  0  0
  -28.4190  -25.2140   20.5680 C   0  0  0  0  0  2  0  0  0  0  0  0
  -28.5000  -26.5890   19.9460 O   0  0  0  0  0  0  0  0  0  0  0  0
  -24.6350  -31.8850   23.1450 C   0  0  0  0  0  0  0  0  0  0  0  0
  -27.3760  -27.4470   19.9770 C   0  0  0  0  0  0  0  0  0  0  0  0
  -23.4790  -30.5060   21.4550 C   0  0  0  0  0  3  0  0  0  0  0  0
  -24.9790  -29.0310   19.9910 C   0  0  0  0  0  0  0  0  0  0  0  0
  -26.0130  -30.8870   21.2980 C   0  0  0  0  0  2  0  0  0  0  0  0
  -26.1340  -29.5250   20.6110 C   0  0  0  0  0  0  0  0  0  0  0  0
  -27.3370  -28.7480   20.5880 C   0  0  0  0  0  3  0  0  0  0  0  0
  -26.1980  -27.0160   19.3360 C   0  0  0  0  0  3  0  0  0  0  0  0
  -25.0160  -27.7850   19.3430 C   0  0  0  0  0  3  0  0  0  0  0  0
  -23.7200  -29.8790   20.0560 C   0  0  0  0  0  2  0  0  0  0  0  0
  -24.7270  -31.1110   22.0230 N   0  0  0  0  0  0  0  0  0  0  0  0
  -23.5420  -32.1150   23.6840 O   0  0  0  0  0  0  0  0  0  0  0  0
  -22.8370  -29.4440   22.3810 C   0  0  0  0  0  0  0  0  0  0  0  0
  -21.5120  -29.2520   22.2620 N   0  0  0  0  0  0  0  0  0  0  0  0
  -23.5320  -28.7950   23.1670 O   0  0  0  0  0  0  0  0  0  0  0  0
  -21.0080  -29.8330   21.6060 H   0  0  0  0  0  0  0  0  0  0  0  0
  -18.1540  -28.0140   22.7940 C   0  0  0  0  0  0  0  0  0  0  0  0
  -20.7170  -28.2720   23.0060 C   0  0  0  0  0  3  0  0  0  0  0  0
  -20.8080  -26.8730   22.3560 C   0  0  0  0  0  2  0  0  0  0  0  0
  -19.6800  -26.5950   21.3570 C   0  0  0  0  0  2  0  0  0  0  0  0
  -18.3160  -26.7020   22.0430 C   0  0  0  0  0  2  0  0  0  0  0  0
  -19.2810  -28.7570   23.2330 C   0  0  0  0  0  0  0  0  0  0  0  0
  -19.0730  -29.9860   23.8990 C   0  0  0  0  0  3  0  0  0  0  0  0
  -17.7720  -30.4690   24.1280 C   0  0  0  0  0  3  0  0  0  0  0  0
  -16.6590  -29.7220   23.7020 C   0  0  0  0  0  3  0  0  0  0  0  0
  -16.8520  -28.4960   23.0420 C   0  0  0  0  0  3  0  0  0  0  0  0
  -25.8960  -32.5350   23.7930 C   0  0  0  0  0  3  0  0  0  0  0  0
  -25.5550  -33.9240   24.1330 N   0  0  0  0  0  0  0  0  0  0  0  0
  -25.8960  -34.9940   23.4010 C   0  0  0  0  0  0  0  0  0  0  0  0
  -26.5960  -34.9140   22.3890 O   0  0  0  0  0  0  0  0  0  0  0  0
  -24.9350  -34.0590   24.9170 H   0  0  0  0  0  0  0  0  0  0  0  0
  -24.1620  -36.7770   23.0140 C   0  0  0  0  0  1  0  0  0  0  0  0
  -25.3760  -36.3700   23.8640 C   0  0  0  0  0  3  0  0  0  0  0  0
  -27.4660  -37.2660   24.7890 C   0  0  0  0  0  1  0  0  0  0  0  0
  -26.3990  -37.4360   23.8060 N   0  0  0  0  0  0  0  0  0  0  0  0
  -25.9760  -38.3490   23.9500 H   0  0  0  0  0  0  0  0  0  0  0  0
  -26.4050  -31.7630   25.0730 C   0  0  1  0  0  0  0  0  0  0  0  0
  -25.3010  -31.4990   26.1230 C   0  0  0  0  0  1  0  0  0  0  0  0
  -27.0180  -30.3970   24.6830 C   0  0  0  0  0  1  0  0  0  0  0  0
  -27.5320  -32.5720   25.7580 C   0  0  0  0  0  1  0  0  0  0  0  0
  -30.6550  -17.5790   20.1640 C   0  0  0  0  0  3  0  0  0  0  0  0
  -31.0150  -15.1040   21.0580 C   0  0  0  0  0  0  0  0  0  0  0  0
  -30.9760  -12.7020   20.3630 C   0  0  0  0  0  2  0  0  0  0  0  0
  -30.2500  -12.5900   19.0050 C   0  0  0  0  0  2  0  0  0  0  0  0
  -28.7300  -12.4470   19.2140 C   0  0  0  0  0  2  0  0  0  0  0  0
  -28.1640  -13.4620   20.2430 C   0  0  0  0  0  3  0  0  0  0  0  0
  -29.0360  -13.5640   21.5110 C   0  0  0  0  0  2  0  0  0  0  0  0
  -30.4010  -13.8700   21.0740 N   0  0  0  0  0  0  0  0  0  0  0  0
  -32.2460  -15.1550   21.0020 O   0  0  0  0  0  0  0  0  0  0  0  0
  -30.2460  -16.2420   20.8200 N   0  0  0  0  0  0  0  0  0  0  0  0
  -29.2500  -16.1330   20.9200 H   0  0  0  0  0  0  0  0  0  0  0  0
  -25.7070  -14.0880   20.5920 C   0  0  0  0  0  0  0  0  0  0  0  0
  -24.5940  -13.3340   20.8520 C   0  0  0  0  0  0  0  0  0  0  0  0
  -25.0470  -11.9850   20.9640 C   0  0  0  0  0  0  0  0  0  0  0  0
  -26.7660  -13.1960   20.5570 N   0  0  0  0  0  0  0  0  0  0  0  0
  -26.3690  -11.9310   20.8470 N   0  0  0  0  0  0  0  0  0  0  0  0
  -24.2910  -10.7340   21.1190 C   0  0  0  0  0  0  0  0  0  0  0  0
  -24.5940   -9.8120   22.1440 C   0  0  0  0  0  3  0  0  0  0  0  0
  -23.8400   -8.6270   22.2870 C   0  0  0  0  0  3  0  0  0  0  0  0
  -22.7700   -8.3560   21.4020 C   0  0  0  0  0  0  0  0  0  0  0  0
  -22.4870   -9.2660   20.3690 C   0  0  0  0  0  3  0  0  0  0  0  0
  -23.2400  -10.4430   20.2250 C   0  0  0  0  0  3  0  0  0  0  0  0
  -22.0010   -7.2180   21.4480 O   0  0  0  0  0  0  0  0  0  0  0  0
  -21.8240   -6.5140   22.6120 C   0  0  0  0  0  0  0  0  0  0  0  0
  -21.2680   -7.1080   23.7640 C   0  0  0  0  0  3  0  0  0  0  0  0
  -21.0420   -6.3310   24.9180 C   0  0  0  0  0  3  0  0  0  0  0  0
  -21.3600   -4.9590   24.9180 C   0  0  0  0  0  0  0  0  0  0  0  0
  -21.9070   -4.3640   23.7670 C   0  0  0  0  0  3  0  0  0  0  0  0
  -22.1360   -5.1390   22.6170 C   0  0  0  0  0  0  0  0  0  0  0  0
  -22.6460   -4.5570   21.5050 F   0  0  0  0  0  0  0  0  0  0  0  0
  -21.1350   -4.2100   26.0210 F   0  0  0  0  0  0  0  0  0  0  0  0
  -23.1760  -13.8250   20.8950 C   0  0  0  0  0  0  0  0  0  0  0  0
  -22.3300  -13.1830   21.6950 N   0  0  0  0  0  0  0  0  0  0  0  0
  -22.8210  -14.8130   20.2530 O   0  0  0  0  0  0  0  0  0  0  0  0
  -22.6290  -12.3830   22.2330 H   0  0  0  0  0  0  0  0  0  0  0  0
  -21.3730  -13.4960   21.7700 H   0  0  0  0  0  0  0  0  0  0  0  0
  -25.9050  -15.4460   20.3600 N   0  0  0  0  0  0  0  0  0  0  0  0
  -25.1320  -16.1030   20.3150 H   0  0  0  0  0  0  0  0  0  0  0  0
  -26.7930  -15.8670   20.1190 H   0  0  0  0  0  0  0  0  0  0  0  0
  -32.1690  -16.4890   18.3300 C   0  0  0  0  0  1  0  0  0  0  0  0
  -31.1630  -18.6780   17.8360 C   0  0  0  0  0  1  0  0  0  0  0  0
  -29.7170  -16.6550   17.9320 C   0  0  0  0  0  1  0  0  0  0  0  0
  -30.9180  -17.3550   18.6070 C   0  0  2  0  0  0  0  0  0  0  0  0
  1  5  1  0
  2  3  1  0
  2  6  1  0
  4  2  1  0
  4  1  2  0
  6  5  1  0
  6  7  1  0
  8  9  1  0
  8  7  1  0
 10 12  1  0
 10  9  1  0
 11 22  2  0
 12 17  1  0
 13 21  1  0
 13 23  1  0
 14 20  1  0
 14 16  1  0
 15 21  1  0
 16 15  1  0
 17 16  2  0
 18 19  1  0
 18 12  2  0
 19 14  2  0
 20 13  1  0
 21 11  1  0
 23 25  2  0
 24 23  1  0
 26 24  1  0
 27 36  2  0
 27 32  1  0
 28 24  1  0
 28 32  1  0
 29 28  1  0
 30 31  1  0
 30 29  1  0
 31 27  1  0
 32 33  2  0
 33 34  1  0
 35 34  2  0
 36 35  1  0
 37 11  1  0
 37 38  1  0
 37 47  1  0
 38 41  1  0
 39 43  1  0
 39 38  1  0
 40 39  2  0
 43 42  1  0
 45 43  1  0
 45 46  1  0
 45 44  1  0
 47 50  1  1
 47 48  1  0
 49 47  1  0
 51 93  1  0
 51  1  1  0
 51 60  1  0
 52 58  1  0
 53 58  1  0
 54 55  1  0
 54 53  1  0
 56 55  1  0
 56 65  1  0
 56 57  1  0
 58 57  1  0
 59 52  2  0
 60 61  1  0
 60 52  1  0
 62 63  2  0
 63 82  1  0
 63 64  1  0
 64 67  1  0
 65 62  1  0
 65 66  1  0
 66 64  2  0
 67 68  1  0
 68 69  2  0
 70 73  1  0
 70 69  1  0
 71 70  2  0
 72 71  1  0
 72 67  2  0
 73 74  1  0
 74 79  2  0
 74 75  1  0
 75 76  2  0
 77 76  1  0
 77 81  1  0
 78 77  2  0
 79 78  1  0
 80 79  1  0
 82 83  1  0
 83 86  1  0
 83 85  1  0
 84 82  2  0
 87 62  1  0
 88 87  1  0
 89 87  1  0
 93 90  1  1
 91 93  1  0
 92 93  1  0
M  ISO  4   9 101  10 101  52 100  60 100
M  END
>  <TORSDO>  (51) 
F 21

>  <SCORE>  (51) 
-11.813

>  <name>  (51) 
54

>  <ligand_id>  (51) 
54

>  <original_smiles>  (51) 
[H]c1c([H])c([H])c2c(c1[H])C([H])([H])C([H])([H])C([H])([H])C2([H])N([H])C(=O)C1([H])N(C(=O)C([H])(N([H])C(=O)C([H])(N([H])C([H])([H])[H])C([H])([H])[H])C(C([H])([H])[H])(C([H])([H])[H])C([H])([H])[H])C([H])([H])c2c([H])c(OC([H])([H])C([H])([H])C([H])([H])n3nc(C([H])(N([H])C(=O)N4C([H])([H])C([H])([H])C([H])([H])C([H])(n5nc(-c6c([H])c([H])c(Oc7c([H])c([H])c(F)c([H])c7F)c([H])c6[H])c(C(=O)N([H])[H])c5N([H])[H])C4([H])[H])C(C([H])([H])[H])(C([H])([H])[H])C([H])([H])[H])nc3C([H])([H])[H])c([H])c([H])c2C1([H])[H]

>  <smiles>  (51) 
[H]c1c([H])c([H])c2c(c1[H])C([H])([H])C([H])([H])C([H])([H])C2([H])N([H])C(=O)C1([H])N(C(=O)C([H])(N([H])C(=O)C([H])(N([H])C([H])([H])[H])C([H])([H])[H])C(C([H])([H])[H])(C([H])([H])[H])C([H])([H])[H])C([H])([H])c2c([H])c(OC([H])([H])C([H])([H])C([H])([H])n3nc(C([H])(N([H])C(=O)N4C([H])([H])C([H])([H])C([H])([H])C([H])(n5nc(-c6c([H])c([H])c(Oc7c([H])c([H])c(F)c([H])c7F)c([H])c6[H])c(C(=O)N([H])[H])c5N([H])[H])C4([H])[H])C(C([H])([H])[H])(C([H])([H])[H])C([H])([H])[H])nc3C([H])([H])[H])c([H])c([H])c2C1([H])[H]

$$$$
55:0:0
     RDKit          3D

 96104  0  0  1  0  0  0  0  0999 V2000
  -29.7580  -22.0130   22.3540 C   0  0  0  0  0  3  0  0  0  0  0  0
  -30.2930  -23.0500   21.5670 C   0  0  0  0  0  0  0  0  0  0  0  0
  -30.9420  -22.6320   20.3860 C   0  0  0  0  0  0  0  0  0  0  0  0
  -30.6610  -20.4190   20.9730 C   0  0  0  0  0  0  0  0  0  0  0  0
  -29.9530  -20.7110   22.0600 N   0  0  0  0  0  0  0  0  0  0  0  0
  -31.1030  -21.3250   20.1030 N   0  0  0  0  0  0  0  0  0  0  0  0
  -32.4810  -19.0290   22.0020 C   0  0  0  0  0  1  0  0  0  0  0  0
  -31.3680  -19.0430   20.9270 C   0  0  0  0  0  3  0  0  0  0  0  0
  -29.7360  -17.4170   22.1120 C   0  0  0  0  0  1  0  0  0  0  0  0
  -29.4880  -17.8240   19.6530 C   0  0  0  0  0  1  0  0  0  0  0  0
  -30.5110  -17.7140   20.8080 C   0  0  1  0  0  0  0  0  0  0  0  0
  -31.4900  -16.5270   20.5120 C   0  0  0  0  0  2  0  0  0  0  0  0
  -30.9710  -14.3430   19.4730 C   0  0  0  0  0  0  0  0  0  0  0  0
  -30.4810  -12.1110   18.5340 C   0  0  0  0  0  2  0  0  0  0  0  0
  -29.4310  -12.1300   17.4130 C   0  0  0  0  0  2  0  0  0  0  0  0
  -28.0140  -12.0140   18.0000 C   0  0  0  0  0  2  0  0  0  0  0  0
  -27.7620  -13.0370   19.1370 C   0  0  0  0  0  3  0  0  0  0  0  0
  -28.9140  -13.0350   20.1630 C   0  0  0  0  0  2  0  0  0  0  0  0
  -30.2070  -13.2140   19.4740 N   0  0  0  0  0  0  0  0  0  0  0  0
  -31.7360  -14.5990   18.5370 O   0  0  0  0  0  0  0  0  0  0  0  0
  -30.9620  -14.5550   21.9300 C   0  0  0  0  0  1  0  0  0  0  0  0
  -30.9300  -15.1480   20.5750 N   0  0  0  0  0  0  0  0  0  0  0  0
  -25.4960  -13.7280   20.1530 C   0  0  0  0  0  0  0  0  0  0  0  0
  -24.4600  -12.9900   20.6600 C   0  0  0  0  0  0  0  0  0  0  0  0
  -24.8660  -11.6230   20.5800 C   0  0  0  0  0  0  0  0  0  0  0  0
  -26.4720  -12.8110   19.7900 N   0  0  0  0  0  0  0  0  0  0  0  0
  -26.1040  -11.5410   20.1070 N   0  0  0  0  0  0  0  0  0  0  0  0
  -24.1270  -10.3870   20.8660 C   0  0  0  0  0  0  0  0  0  0  0  0
  -24.5390   -9.4990   21.8830 C   0  0  0  0  0  3  0  0  0  0  0  0
  -23.7970   -8.3280   22.1550 C   0  0  0  0  0  3  0  0  0  0  0  0
  -22.6310   -8.0360   21.4070 C   0  0  0  0  0  0  0  0  0  0  0  0
  -22.2380   -8.9140   20.3830 C   0  0  0  0  0  3  0  0  0  0  0  0
  -22.9800  -10.0740   20.1090 C   0  0  0  0  0  3  0  0  0  0  0  0
  -21.8620   -6.9130   21.5860 O   0  0  0  0  0  0  0  0  0  0  0  0
  -21.6790   -6.3550   22.8260 C   0  0  0  0  0  0  0  0  0  0  0  0
  -21.1330   -7.0890   23.9020 C   0  0  0  0  0  3  0  0  0  0  0  0
  -20.8950   -6.4540   25.1370 C   0  0  0  0  0  3  0  0  0  0  0  0
  -21.1930   -5.0880   25.2970 C   0  0  0  0  0  0  0  0  0  0  0  0
  -21.7310   -4.3550   24.2250 C   0  0  0  0  0  3  0  0  0  0  0  0
  -21.9710   -4.9860   22.9920 C   0  0  0  0  0  0  0  0  0  0  0  0
  -22.4680   -4.2690   21.9560 F   0  0  0  0  0  0  0  0  0  0  0  0
  -20.9580   -4.4760   26.4800 F   0  0  0  0  0  0  0  0  0  0  0  0
  -23.1230  -13.5140   21.0990 C   0  0  0  0  0  0  0  0  0  0  0  0
  -22.5050  -12.8770   22.0860 N   0  0  0  0  0  0  0  0  0  0  0  0
  -22.6400  -14.5270   20.5970 O   0  0  0  0  0  0  0  0  0  0  0  0
  -22.9110  -12.0620   22.5220 H   0  0  0  0  0  0  0  0  0  0  0  0
  -21.6070  -13.2120   22.4070 H   0  0  0  0  0  0  0  0  0  0  0  0
  -25.6720  -15.0930   19.9520 N   0  0  0  0  0  0  0  0  0  0  0  0
  -24.9370  -15.7570   20.1760 H   0  0  0  0  0  0  0  0  0  0  0  0
  -26.4840  -15.5340   19.5390 H   0  0  0  0  0  0  0  0  0  0  0  0
  -30.6090  -23.8690   18.2030 C   0  0  0  0  0  1  0  0  0  0  0  0
  -31.5580  -23.5850   19.3770 C   0  0  0  0  0  2  0  0  0  0  0  0
  -30.3260  -24.4860   22.1200 C   0  0  0  0  0  2  0  0  0  0  0  0
  -29.9530  -25.6870   21.2150 C   0  0  0  0  0  2  0  0  0  0  0  0
  -28.4970  -25.7780   20.7230 C   0  0  0  0  0  2  0  0  0  0  0  0
  -28.3910  -27.0110   20.0120 O   0  0  0  0  0  0  0  0  0  0  0  0
  -24.5740  -32.0050   23.3480 C   0  0  0  0  0  0  0  0  0  0  0  0
  -27.1940  -27.6750   20.1150 C   0  0  0  0  0  0  0  0  0  0  0  0
  -23.3380  -30.6260   21.7020 C   0  0  0  0  0  3  0  0  0  0  0  0
  -24.7750  -29.1240   20.2200 C   0  0  0  0  0  0  0  0  0  0  0  0
  -25.8510  -31.0190   21.4500 C   0  0  0  0  0  2  0  0  0  0  0  0
  -25.9380  -29.6600   20.7880 C   0  0  0  0  0  0  0  0  0  0  0  0
  -27.1510  -28.9450   20.7290 C   0  0  0  0  0  3  0  0  0  0  0  0
  -26.0160  -27.1360   19.5570 C   0  0  0  0  0  3  0  0  0  0  0  0
  -24.8050  -27.8580   19.6040 C   0  0  0  0  0  3  0  0  0  0  0  0
  -23.5220  -29.9680   20.3080 C   0  0  0  0  0  2  0  0  0  0  0  0
  -24.6060  -31.2300   22.2270 N   0  0  0  0  0  0  0  0  0  0  0  0
  -23.5040  -32.2560   23.9200 O   0  0  0  0  0  0  0  0  0  0  0  0
  -22.7180  -29.5830   22.6580 C   0  0  0  0  0  0  0  0  0  0  0  0
  -21.4070  -29.3410   22.5050 N   0  0  0  0  0  0  0  0  0  0  0  0
  -23.4140  -28.9930   23.4880 O   0  0  0  0  0  0  0  0  0  0  0  0
  -20.9040  -29.8700   21.8070 H   0  0  0  0  0  0  0  0  0  0  0  0
  -18.0950  -27.9540   22.8960 C   0  0  0  0  0  0  0  0  0  0  0  0
  -20.6190  -28.3700   23.2650 C   0  0  0  0  0  3  0  0  0  0  0  0
  -20.8330  -26.9390   22.7230 C   0  0  0  0  0  2  0  0  0  0  0  0
  -19.7940  -26.5300   21.6730 C   0  0  0  0  0  2  0  0  0  0  0  0
  -18.3800  -26.6050   22.2580 C   0  0  0  0  0  2  0  0  0  0  0  0
  -19.1470  -28.7890   23.3550 C   0  0  0  0  0  0  0  0  0  0  0  0
  -18.8320  -30.0490   23.9070 C   0  0  0  0  0  3  0  0  0  0  0  0
  -17.4950  -30.4750   24.0080 C   0  0  0  0  0  3  0  0  0  0  0  0
  -16.4550  -29.6380   23.5670 C   0  0  0  0  0  3  0  0  0  0  0  0
  -16.7560  -28.3790   23.0160 C   0  0  0  0  0  3  0  0  0  0  0  0
  -25.8710  -32.6290   23.9510 C   0  0  0  0  0  3  0  0  0  0  0  0
  -25.5860  -34.0400   24.2450 N   0  0  0  0  0  0  0  0  0  0  0  0
  -25.9340  -35.0650   23.4530 C   0  0  0  0  0  0  0  0  0  0  0  0
  -26.5990  -34.9210   22.4230 O   0  0  0  0  0  0  0  0  0  0  0  0
  -24.9940  -34.2290   25.0400 H   0  0  0  0  0  0  0  0  0  0  0  0
  -24.2230  -36.8660   23.0650 C   0  0  0  0  0  1  0  0  0  0  0  0
  -25.4720  -36.4720   23.8720 C   0  0  0  0  0  3  0  0  0  0  0  0
  -27.6300  -37.3540   24.6440 C   0  0  0  0  0  1  0  0  0  0  0  0
  -26.5170  -37.5070   23.7110 N   0  0  0  0  0  0  0  0  0  0  0  0
  -26.1240  -38.4370   23.8380 H   0  0  0  0  0  0  0  0  0  0  0  0
  -26.3820  -31.8800   25.2430 C   0  0  1  0  0  0  0  0  0  0  0  0
  -25.2770  -31.6400   26.2970 C   0  0  0  0  0  1  0  0  0  0  0  0
  -26.9880  -30.5070   24.8700 C   0  0  0  0  0  1  0  0  0  0  0  0
  -27.5120  -32.6980   25.9130 C   0  0  0  0  0  1  0  0  0  0  0  0
  2 53  1  0
  2  1  2  0
  3  2  1  0
  4  5  2  0
  5  1  1  0
  6  3  2  0
  6  4  1  0
  8  4  1  0
  8  7  1  0
 11 10  1  6
 11  8  1  0
 11  9  1  0
 12 22  1  0
 12 11  1  0
 13 19  1  0
 13 22  1  0
 14 19  1  0
 15 16  1  0
 15 14  1  0
 17 16  1  0
 17 26  1  0
 17 18  1  0
 19 18  1  0
 20 13  2  0
 22 21  1  0
 23 24  2  0
 24 43  1  0
 25 24  1  0
 25 28  1  0
 26 27  1  0
 26 23  1  0
 27 25  2  0
 28 29  1  0
 29 30  2  0
 31 34  1  0
 31 30  1  0
 32 31  2  0
 33 32  1  0
 33 28  2  0
 34 35  1  0
 35 40  2  0
 35 36  1  0
 36 37  2  0
 37 38  1  0
 38 42  1  0
 39 38  2  0
 40 39  1  0
 41 40  1  0
 43 44  1  0
 44 47  1  0
 44 46  1  0
 45 43  2  0
 48 23  1  0
 48 49  1  0
 50 48  1  0
 51 52  1  0
 52  3  1  0
 54 53  1  0
 55 54  1  0
 56 58  1  0
 56 55  1  0
 57 68  2  0
 58 63  1  0
 59 67  1  0
 59 69  1  0
 60 66  1  0
 60 62  1  0
 61 67  1  0
 62 61  1  0
 63 62  2  0
 64 65  1  0
 64 58  2  0
 65 60  2  0
 66 59  1  0
 67 57  1  0
 69 71  2  0
 70 69  1  0
 72 70  1  0
 73 82  2  0
 73 78  1  0
 74 70  1  0
 74 78  1  0
 75 74  1  0
 76 77  1  0
 76 75  1  0
 77 73  1  0
 78 79  2  0
 79 80  1  0
 81 80  2  0
 82 81  1  0
 83 57  1  0
 83 84  1  0
 83 93  1  0
 84 87  1  0
 85 89  1  0
 85 84  1  0
 86 85  2  0
 89 88  1  0
 91 92  1  0
 91 89  1  0
 91 90  1  0
 93 96  1  1
 93 94  1  0
 95 93  1  0
M  ISO  4  13 100  22 100  55 101  56 101
M  END
>  <TORSDO>  (52) 
F 23

>  <SCORE>  (52) 
-10.987

>  <name>  (52) 
55

>  <ligand_id>  (52) 
55

>  <original_smiles>  (52) 
[H]c1nc(C([H])(C([H])([H])[H])C(C([H])([H])[H])(C([H])([H])[H])C([H])([H])N(C(=O)N2C([H])([H])C([H])([H])C([H])([H])C([H])(n3nc(-c4c([H])c([H])c(Oc5c([H])c([H])c(F)c([H])c5F)c([H])c4[H])c(C(=O)N([H])[H])c3N([H])[H])C2([H])[H])C([H])([H])[H])nc(C([H])([H])C([H])([H])[H])c1C([H])([H])C([H])([H])C([H])([H])Oc1c([H])c([H])c2c(c1[H])C([H])([H])N(C(=O)C([H])(N([H])C(=O)C([H])(N([H])C([H])([H])[H])C([H])([H])[H])C(C([H])([H])[H])(C([H])([H])[H])C([H])([H])[H])C([H])(C(=O)N([H])C1([H])c3c([H])c([H])c([H])c([H])c3C([H])([H])C([H])([H])C1([H])[H])C2([H])[H]

>  <smiles>  (52) 
[H]c1nc(C([H])(C([H])([H])[H])C(C([H])([H])[H])(C([H])([H])[H])C([H])([H])N(C(=O)N2C([H])([H])C([H])([H])C([H])([H])C([H])(n3nc(-c4c([H])c([H])c(Oc5c([H])c([H])c(F)c([H])c5F)c([H])c4[H])c(C(=O)N([H])[H])c3N([H])[H])C2([H])[H])C([H])([H])[H])nc(C([H])([H])C([H])([H])[H])c1C([H])([H])C([H])([H])C([H])([H])Oc1c([H])c([H])c2c(c1[H])C([H])([H])N(C(=O)C([H])(N([H])C(=O)C([H])(N([H])C([H])([H])[H])C([H])([H])[H])C(C([H])([H])[H])(C([H])([H])[H])C([H])([H])[H])C([H])(C(=O)N([H])C1([H])c3c([H])c([H])c([H])c([H])c3C([H])([H])C([H])([H])C1([H])[H])C2([H])[H]

$$$$
56:0:0
     RDKit          3D

 96104  0  0  1  0  0  0  0  0999 V2000
  -29.3210  -21.7130   20.3160 C   0  0  0  0  0  3  0  0  0  0  0  0
  -29.2090  -23.0020   20.7740 C   0  0  0  0  0  0  0  0  0  0  0  0
  -30.4310  -23.3460   21.3510 N   0  0  0  0  0  0  0  0  0  0  0  0
  -31.2530  -22.3360   21.2780 N   0  0  0  0  0  0  0  0  0  0  0  0
  -30.6060  -21.3180   20.6470 N   0  0  0  0  0  0  0  0  0  0  0  0
  -32.7370  -20.1170   20.1400 C   0  0  0  0  0  1  0  0  0  0  0  0
  -31.2330  -19.9890   20.4610 C   0  0  0  0  0  3  0  0  0  0  0  0
  -31.4400  -19.5780   22.9990 C   0  0  0  0  0  1  0  0  0  0  0  0
  -30.9230  -19.0010   21.6510 C   0  0  0  0  0  3  0  0  0  0  0  0
  -32.7470  -17.1540   21.3090 C   0  0  0  0  0  1  0  0  0  0  0  0
  -30.8000  -16.7390   22.7920 C   0  0  0  0  0  1  0  0  0  0  0  0
  -31.2410  -17.4480   21.4830 C   0  0  1  0  0  0  0  0  0  0  0  0
  -30.4810  -16.8040   20.2750 C   0  0  0  0  0  2  0  0  0  0  0  0
  -30.7740  -14.4630   19.3620 C   0  0  0  0  0  0  0  0  0  0  0  0
  -30.4490  -12.1760   18.4470 C   0  0  0  0  0  2  0  0  0  0  0  0
  -29.3400  -12.1580   17.3770 C   0  0  0  0  0  2  0  0  0  0  0  0
  -27.9500  -12.0040   18.0230 C   0  0  0  0  0  2  0  0  0  0  0  0
  -27.7260  -13.0010   19.1880 C   0  0  0  0  0  3  0  0  0  0  0  0
  -28.9210  -12.9580   20.1680 C   0  0  0  0  0  2  0  0  0  0  0  0
  -30.1590  -13.2490   19.4160 N   0  0  0  0  0  0  0  0  0  0  0  0
  -31.6290  -14.7490   18.5150 O   0  0  0  0  0  0  0  0  0  0  0  0
  -30.3790  -15.3350   20.3090 N   0  0  0  0  0  0  0  0  0  0  0  0
  -29.7820  -14.9470   21.0260 H   0  0  0  0  0  0  0  0  0  0  0  0
  -25.5200  -13.6470   20.3550 C   0  0  0  0  0  0  0  0  0  0  0  0
  -24.4930  -12.8910   20.8520 C   0  0  0  0  0  0  0  0  0  0  0  0
  -24.8640  -11.5280   20.6300 C   0  0  0  0  0  0  0  0  0  0  0  0
  -26.4590  -12.7470   19.8730 N   0  0  0  0  0  0  0  0  0  0  0  0
  -26.0720  -11.4620   20.0880 N   0  0  0  0  0  0  0  0  0  0  0  0
  -24.1150  -10.2830   20.8530 C   0  0  0  0  0  0  0  0  0  0  0  0
  -24.4970   -9.3620   21.8520 C   0  0  0  0  0  3  0  0  0  0  0  0
  -23.7540   -8.1810   22.0580 C   0  0  0  0  0  3  0  0  0  0  0  0
  -22.6140   -7.9120   21.2640 C   0  0  0  0  0  0  0  0  0  0  0  0
  -22.2490   -8.8230   20.2570 C   0  0  0  0  0  3  0  0  0  0  0  0
  -22.9930   -9.9970   20.0490 C   0  0  0  0  0  3  0  0  0  0  0  0
  -21.8440   -6.7800   21.3770 O   0  0  0  0  0  0  0  0  0  0  0  0
  -21.5670   -6.2160   22.5960 C   0  0  0  0  0  0  0  0  0  0  0  0
  -20.8920   -6.9280   23.6100 C   0  0  0  0  0  3  0  0  0  0  0  0
  -20.5650   -6.2880   24.8240 C   0  0  0  0  0  3  0  0  0  0  0  0
  -20.9040   -4.9360   25.0200 C   0  0  0  0  0  0  0  0  0  0  0  0
  -21.5720   -4.2230   24.0090 C   0  0  0  0  0  3  0  0  0  0  0  0
  -21.9000   -4.8610   22.8000 C   0  0  0  0  0  0  0  0  0  0  0  0
  -22.5240   -4.1630   21.8210 F   0  0  0  0  0  0  0  0  0  0  0  0
  -20.5830   -4.3190   26.1820 F   0  0  0  0  0  0  0  0  0  0  0  0
  -23.1960  -13.3980   21.4160 C   0  0  0  0  0  0  0  0  0  0  0  0
  -22.6290  -12.6900   22.3870 N   0  0  0  0  0  0  0  0  0  0  0  0
  -22.7000  -14.4540   21.0290 O   0  0  0  0  0  0  0  0  0  0  0  0
  -23.0430  -11.8320   22.7210 H   0  0  0  0  0  0  0  0  0  0  0  0
  -21.7670  -13.0120   22.8030 H   0  0  0  0  0  0  0  0  0  0  0  0
  -25.7310  -15.0210   20.2570 N   0  0  0  0  0  0  0  0  0  0  0  0
  -25.0470  -15.7050   20.5580 H   0  0  0  0  0  0  0  0  0  0  0  0
  -26.5510  -15.4380   19.8330 H   0  0  0  0  0  0  0  0  0  0  0  0
  -26.7040  -23.0740   20.6300 C   0  0  0  0  0  1  0  0  0  0  0  0
  -27.9870  -23.9130   20.8080 C   0  0  0  0  0  3  0  0  0  0  0  0
  -27.9920  -25.0700   19.7650 C   0  0  0  0  0  2  0  0  0  0  0  0
  -28.5310  -26.4420   20.2520 C   0  0  0  0  0  2  0  0  0  0  0  0
  -28.4000  -27.5090   19.2760 O   0  0  0  0  0  0  0  0  0  0  0  0
  -24.4150  -31.9250   23.1610 C   0  0  0  0  0  0  0  0  0  0  0  0
  -27.2110  -28.1990   19.3690 C   0  0  0  0  0  0  0  0  0  0  0  0
  -23.2290  -30.6560   21.4040 C   0  0  0  0  0  3  0  0  0  0  0  0
  -24.7150  -29.4860   19.6850 C   0  0  0  0  0  0  0  0  0  0  0  0
  -25.6930  -31.2810   21.1190 C   0  0  0  0  0  2  0  0  0  0  0  0
  -25.8590  -30.0260   20.2850 C   0  0  0  0  0  0  0  0  0  0  0  0
  -27.1160  -29.3920   20.1270 C   0  0  0  0  0  3  0  0  0  0  0  0
  -26.0560  -27.6910   18.7410 C   0  0  0  0  0  3  0  0  0  0  0  0
  -24.8090  -28.3220   18.9030 C   0  0  0  0  0  3  0  0  0  0  0  0
  -23.4030  -30.2020   19.9280 C   0  0  0  0  0  2  0  0  0  0  0  0
  -24.4690  -31.2930   21.9550 N   0  0  0  0  0  0  0  0  0  0  0  0
  -23.3530  -32.0170   23.7930 O   0  0  0  0  0  0  0  0  0  0  0  0
  -22.7360  -29.4540   22.2430 C   0  0  0  0  0  0  0  0  0  0  0  0
  -21.4480  -29.1080   22.0980 N   0  0  0  0  0  0  0  0  0  0  0  0
  -23.5110  -28.8400   22.9810 O   0  0  0  0  0  0  0  0  0  0  0  0
  -20.8760  -29.6740   21.4880 H   0  0  0  0  0  0  0  0  0  0  0  0
  -18.2740  -27.4040   22.4370 C   0  0  0  0  0  0  0  0  0  0  0  0
  -20.7740  -27.9870   22.7560 C   0  0  0  0  0  3  0  0  0  0  0  0
  -21.0730  -26.6560   22.0290 C   0  0  0  0  0  2  0  0  0  0  0  0
  -20.0190  -26.2940   20.9780 C   0  0  0  0  0  2  0  0  0  0  0  0
  -18.6340  -26.1740   21.6190 C   0  0  0  0  0  2  0  0  0  0  0  0
  -19.2800  -28.2620   22.9540 C   0  0  0  0  0  0  0  0  0  0  0  0
  -18.8920  -29.4130   23.6790 C   0  0  0  0  0  3  0  0  0  0  0  0
  -17.5320  -29.7090   23.8860 C   0  0  0  0  0  3  0  0  0  0  0  0
  -16.5410  -28.8490   23.3840 C   0  0  0  0  0  3  0  0  0  0  0  0
  -16.9130  -27.6950   22.6670 C   0  0  0  0  0  3  0  0  0  0  0  0
  -25.6830  -32.5870   23.7950 C   0  0  0  0  0  3  0  0  0  0  0  0
  -25.3320  -33.9640   24.1570 N   0  0  0  0  0  0  0  0  0  0  0  0
  -25.6530  -35.0440   23.4290 C   0  0  0  0  0  0  0  0  0  0  0  0
  -26.3470  -34.9820   22.4100 O   0  0  0  0  0  0  0  0  0  0  0  0
  -24.7230  -34.0820   24.9530 H   0  0  0  0  0  0  0  0  0  0  0  0
  -23.9040  -36.8130   23.0650 C   0  0  0  0  0  1  0  0  0  0  0  0
  -25.1220  -36.4060   23.9110 C   0  0  0  0  0  3  0  0  0  0  0  0
  -27.1970  -37.3090   24.8580 C   0  0  0  0  0  1  0  0  0  0  0  0
  -26.1360  -37.4810   23.8690 N   0  0  0  0  0  0  0  0  0  0  0  0
  -25.7050  -38.3880   24.0250 H   0  0  0  0  0  0  0  0  0  0  0  0
  -26.2240  -31.8030   25.0530 C   0  0  1  0  0  0  0  0  0  0  0  0
  -25.1300  -31.4490   26.0890 C   0  0  0  0  0  1  0  0  0  0  0  0
  -26.9080  -30.4860   24.6130 C   0  0  0  0  0  1  0  0  0  0  0  0
  -27.3100  -32.6470   25.7630 C   0  0  0  0  0  1  0  0  0  0  0  0
  1  5  1  0
  1  2  2  0
  2 53  1  0
  2  3  1  0
  4  3  2  0
  5  4  1  0
  7  6  1  0
  7  5  1  0
  7  9  1  0
  9  8  1  0
 12 10  1  6
 12  9  1  0
 12 11  1  0
 13 22  1  0
 13 12  1  0
 14 20  1  0
 14 22  1  0
 15 20  1  0
 16 17  1  0
 16 15  1  0
 18 17  1  0
 18 27  1  0
 18 19  1  0
 20 19  1  0
 21 14  2  0
 22 23  1  0
 24 25  2  0
 25 44  1  0
 26 25  1  0
 26 29  1  0
 27 28  1  0
 27 24  1  0
 28 26  2  0
 29 30  1  0
 30 31  2  0
 32 35  1  0
 32 31  1  0
 33 32  2  0
 34 33  1  0
 34 29  2  0
 35 36  1  0
 36 41  2  0
 36 37  1  0
 37 38  2  0
 38 39  1  0
 39 43  1  0
 40 39  2  0
 41 40  1  0
 42 41  1  0
 44 45  1  0
 45 47  1  0
 45 48  1  0
 46 44  2  0
 49 24  1  0
 49 50  1  0
 51 49  1  0
 53 52  1  0
 54 55  1  0
 54 53  1  0
 56 58  1  0
 56 55  1  0
 57 68  2  0
 58 63  1  0
 59 67  1  0
 59 69  1  0
 60 66  1  0
 60 62  1  0
 61 67  1  0
 62 61  1  0
 63 62  2  0
 64 65  1  0
 64 58  2  0
 65 60  2  0
 66 59  1  0
 67 57  1  0
 69 71  2  0
 70 69  1  0
 72 70  1  0
 73 82  2  0
 73 78  1  0
 74 70  1  0
 74 78  1  0
 75 74  1  0
 76 77  1  0
 76 75  1  0
 77 73  1  0
 78 79  2  0
 79 80  1  0
 81 80  2  0
 82 81  1  0
 83 57  1  0
 83 84  1  0
 83 93  1  0
 84 87  1  0
 85 89  1  0
 85 84  1  0
 86 85  2  0
 89 88  1  0
 91 89  1  0
 91 92  1  0
 91 90  1  0
 93 96  1  1
 93 94  1  0
 95 93  1  0
M  ISO  4  14 100  22 100  55 101  56 101
M  END
>  <TORSDO>  (53) 
F 23

>  <SCORE>  (53) 
-9.049

>  <name>  (53) 
56

>  <ligand_id>  (53) 
56

>  <original_smiles>  (53) 
[H]c1c([H])c([H])c2c(c1[H])C([H])([H])C([H])([H])C([H])([H])C2([H])N([H])C(=O)C1([H])N(C(=O)C([H])(N([H])C(=O)C([H])(N([H])C([H])([H])[H])C([H])([H])[H])C(C([H])([H])[H])(C([H])([H])[H])C([H])([H])[H])C([H])([H])c2c([H])c(OC([H])([H])C([H])([H])C([H])(c3nnn(C([H])(C([H])([H])[H])C([H])(C([H])([H])[H])C(C([H])([H])[H])(C([H])([H])[H])C([H])([H])N([H])C(=O)N4C([H])([H])C([H])([H])C([H])([H])C([H])(n5nc(-c6c([H])c([H])c(Oc7c([H])c([H])c(F)c([H])c7F)c([H])c6[H])c(C(=O)N([H])[H])c5N([H])[H])C4([H])[H])c3[H])C([H])([H])[H])c([H])c([H])c2C1([H])[H]

>  <smiles>  (53) 
[H]c1c([H])c([H])c2c(c1[H])C([H])([H])C([H])([H])C([H])([H])C2([H])N([H])C(=O)C1([H])N(C(=O)C([H])(N([H])C(=O)C([H])(N([H])C([H])([H])[H])C([H])([H])[H])C(C([H])([H])[H])(C([H])([H])[H])C([H])([H])[H])C([H])([H])c2c([H])c(OC([H])([H])C([H])([H])C([H])(c3nnn(C([H])(C([H])([H])[H])C([H])(C([H])([H])[H])C(C([H])([H])[H])(C([H])([H])[H])C([H])([H])N([H])C(=O)N4C([H])([H])C([H])([H])C([H])([H])C([H])(n5nc(-c6c([H])c([H])c(Oc7c([H])c([H])c(F)c([H])c7F)c([H])c6[H])c(C(=O)N([H])[H])c5N([H])[H])C4([H])[H])c3[H])C([H])([H])[H])c([H])c([H])c2C1([H])[H]

$$$$
57:0:0
     RDKit          3D

 94102  0  0  1  0  0  0  0  0999 V2000
  -28.7300  -19.9150   19.9930 C   0  0  0  0  0  3  0  0  0  0  0  0
  -30.6340  -20.5550   21.2630 C   0  0  0  0  0  3  0  0  0  0  0  0
  -29.3810  -20.8970   20.7380 C   0  0  0  0  0  0  0  0  0  0  0  0
  -30.4800  -18.4570   20.3420 C   0  0  0  0  0  0  0  0  0  0  0  0
  -29.3090  -18.7310   19.7640 N   0  0  0  0  0  0  0  0  0  0  0  0
  -31.1610  -19.3340   21.0810 N   0  0  0  0  0  0  0  0  0  0  0  0
  -32.6610  -17.1420   20.3610 C   0  0  0  0  0  1  0  0  0  0  0  0
  -31.1560  -17.1710   18.4020 C   0  0  0  0  0  1  0  0  0  0  0  0
  -31.1540  -17.1020   19.9680 C   0  0  2  0  0  0  0  0  0  0  0  0
  -28.8980  -15.9930   20.6980 C   0  0  0  0  0  1  0  0  0  0  0  0
  -30.9040  -15.5520   22.0830 C   0  0  0  0  0  1  0  0  0  0  0  0
  -30.4410  -15.7720   20.6160 C   0  0  2  0  0  0  0  0  0  0  0  0
  -30.8750  -14.4460   19.8660 C   0  0  0  0  0  0  0  0  0  0  0  0
  -30.4360  -12.3270   18.6850 C   0  0  0  0  0  2  0  0  0  0  0  0
  -29.4000  -12.5580   17.5700 C   0  0  0  0  0  2  0  0  0  0  0  0
  -27.9600  -12.4150   18.1060 C   0  0  0  0  0  2  0  0  0  0  0  0
  -27.7390  -13.2090   19.4220 C   0  0  0  0  0  3  0  0  0  0  0  0
  -28.8850  -12.9260   20.4210 C   0  0  0  0  0  2  0  0  0  0  0  0
  -30.1400  -13.2940   19.7620 N   0  0  0  0  0  0  0  0  0  0  0  0
  -31.9740  -14.4630   19.3160 O   0  0  0  0  0  0  0  0  0  0  0  0
  -25.4040  -13.8500   20.2940 C   0  0  0  0  0  0  0  0  0  0  0  0
  -24.3580  -13.0900   20.7400 C   0  0  0  0  0  0  0  0  0  0  0  0
  -24.8060  -11.7330   20.6860 C   0  0  0  0  0  0  0  0  0  0  0  0
  -26.4260  -12.9570   19.9990 N   0  0  0  0  0  0  0  0  0  0  0  0
  -26.0720  -11.6810   20.2890 N   0  0  0  0  0  0  0  0  0  0  0  0
  -24.0850  -10.4800   20.9290 C   0  0  0  0  0  0  0  0  0  0  0  0
  -24.5370   -9.5460   21.8900 C   0  0  0  0  0  3  0  0  0  0  0  0
  -23.8170   -8.3560   22.1240 C   0  0  0  0  0  3  0  0  0  0  0  0
  -22.6310   -8.0890   21.3970 C   0  0  0  0  0  0  0  0  0  0  0  0
  -22.1980   -9.0120   20.4280 C   0  0  0  0  0  3  0  0  0  0  0  0
  -22.9170  -10.1930   20.1930 C   0  0  0  0  0  3  0  0  0  0  0  0
  -21.8780   -6.9490   21.5400 O   0  0  0  0  0  0  0  0  0  0  0  0
  -21.7910   -6.2920   22.7430 C   0  0  0  0  0  0  0  0  0  0  0  0
  -21.3210   -6.9310   23.9110 C   0  0  0  0  0  3  0  0  0  0  0  0
  -21.1830   -6.1970   25.1060 C   0  0  0  0  0  3  0  0  0  0  0  0
  -21.5060   -4.8280   25.1320 C   0  0  0  0  0  0  0  0  0  0  0  0
  -21.9690   -4.1880   23.9690 C   0  0  0  0  0  3  0  0  0  0  0  0
  -22.1080   -4.9200   22.7750 C   0  0  0  0  0  0  0  0  0  0  0  0
  -22.5360   -4.2960   21.6510 F   0  0  0  0  0  0  0  0  0  0  0  0
  -21.3640   -4.1180   26.2770 F   0  0  0  0  0  0  0  0  0  0  0  0
  -22.9870  -13.5800   21.1070 C   0  0  0  0  0  0  0  0  0  0  0  0
  -22.3180  -12.9080   22.0360 N   0  0  0  0  0  0  0  0  0  0  0  0
  -22.5180  -14.6040   20.6070 O   0  0  0  0  0  0  0  0  0  0  0  0
  -22.7130  -12.0930   22.4800 H   0  0  0  0  0  0  0  0  0  0  0  0
  -21.3980  -13.2190   22.3110 H   0  0  0  0  0  0  0  0  0  0  0  0
  -25.5620  -15.2220   20.1040 N   0  0  0  0  0  0  0  0  0  0  0  0
  -24.8200  -15.8800   20.3170 H   0  0  0  0  0  0  0  0  0  0  0  0
  -26.4240  -15.6710   19.8240 H   0  0  0  0  0  0  0  0  0  0  0  0
  -28.7690  -22.2660   20.9320 C   0  0  0  0  0  2  0  0  0  0  0  0
  -29.0980  -23.2070   19.7570 C   0  0  0  0  0  2  0  0  0  0  0  0
  -28.2450  -24.4860   19.7000 C   0  0  0  0  0  2  0  0  0  0  0  0
  -27.8480  -25.4580   22.1070 C   0  0  0  0  0  1  0  0  0  0  0  0
  -28.5830  -25.5620   20.7500 C   0  0  0  0  0  3  0  0  0  0  0  0
  -28.4640  -26.8640   20.1720 O   0  0  0  0  0  0  0  0  0  0  0  0
  -24.5850  -31.9190   23.2570 C   0  0  0  0  0  0  0  0  0  0  0  0
  -27.2510  -27.5140   20.1840 C   0  0  0  0  0  0  0  0  0  0  0  0
  -23.3800  -30.5240   21.6050 C   0  0  0  0  0  3  0  0  0  0  0  0
  -24.8320  -28.9720   20.2030 C   0  0  0  0  0  0  0  0  0  0  0  0
  -25.9010  -30.8930   21.4020 C   0  0  0  0  0  2  0  0  0  0  0  0
  -25.9880  -29.5200   20.7750 C   0  0  0  0  0  0  0  0  0  0  0  0
  -27.1960  -28.7980   20.7600 C   0  0  0  0  0  3  0  0  0  0  0  0
  -26.0770  -26.9550   19.6280 C   0  0  0  0  0  3  0  0  0  0  0  0
  -24.8690  -27.6830   19.6390 C   0  0  0  0  0  3  0  0  0  0  0  0
  -23.5890  -29.8310   20.2320 C   0  0  0  0  0  2  0  0  0  0  0  0
  -24.6420  -31.1230   22.1490 N   0  0  0  0  0  0  0  0  0  0  0  0
  -23.5030  -32.1940   23.7920 O   0  0  0  0  0  0  0  0  0  0  0  0
  -22.7210  -29.5080   22.5650 C   0  0  0  0  0  0  0  0  0  0  0  0
  -21.4050  -29.3020   22.3980 N   0  0  0  0  0  0  0  0  0  0  0  0
  -23.3920  -28.9030   23.4060 O   0  0  0  0  0  0  0  0  0  0  0  0
  -20.9270  -29.8430   21.6900 H   0  0  0  0  0  0  0  0  0  0  0  0
  -18.0460  -28.0310   22.7710 C   0  0  0  0  0  0  0  0  0  0  0  0
  -20.5820  -28.3620   23.1540 C   0  0  0  0  0  3  0  0  0  0  0  0
  -20.7510  -26.9240   22.6180 C   0  0  0  0  0  2  0  0  0  0  0  0
  -19.7040  -26.5450   21.5670 C   0  0  0  0  0  2  0  0  0  0  0  0
  -18.2890  -26.6700   22.1400 C   0  0  0  0  0  2  0  0  0  0  0  0
  -19.1250  -28.8320   23.2330 C   0  0  0  0  0  0  0  0  0  0  0  0
  -18.8510  -30.1050   23.7790 C   0  0  0  0  0  3  0  0  0  0  0  0
  -17.5290  -30.5740   23.8780 C   0  0  0  0  0  3  0  0  0  0  0  0
  -16.4630  -29.7700   23.4420 C   0  0  0  0  0  3  0  0  0  0  0  0
  -16.7220  -28.5020   22.8910 C   0  0  0  0  0  3  0  0  0  0  0  0
  -25.8720  -32.5410   23.8850 C   0  0  0  0  0  3  0  0  0  0  0  0
  -25.5660  -33.9360   24.2320 N   0  0  0  0  0  0  0  0  0  0  0  0
  -25.8920  -34.9950   23.4800 C   0  0  0  0  0  0  0  0  0  0  0  0
  -26.5610  -34.9030   22.4440 O   0  0  0  0  0  0  0  0  0  0  0  0
  -24.9930  -34.0860   25.0500 H   0  0  0  0  0  0  0  0  0  0  0  0
  -24.1670  -36.7880   23.1260 C   0  0  0  0  0  1  0  0  0  0  0  0
  -25.4010  -36.3800   23.9470 C   0  0  0  0  0  3  0  0  0  0  0  0
  -27.5340  -37.2540   24.7970 C   0  0  0  0  0  1  0  0  0  0  0  0
  -26.4330  -37.4370   23.8530 N   0  0  0  0  0  0  0  0  0  0  0  0
  -26.0230  -38.3520   24.0140 H   0  0  0  0  0  0  0  0  0  0  0  0
  -26.3920  -31.7560   25.1530 C   0  0  1  0  0  0  0  0  0  0  0  0
  -25.3000  -31.4860   26.2140 C   0  0  0  0  0  1  0  0  0  0  0  0
  -26.9930  -30.3920   24.7350 C   0  0  0  0  0  1  0  0  0  0  0  0
  -27.5270  -32.5530   25.8370 C   0  0  0  0  0  1  0  0  0  0  0  0
  1  3  2  0
  3 49  1  0
  3  2  1  0
  4  6  1  0
  5  1  1  0
  5  4  2  0
  6  2  2  0
  9  8  1  6
  9  4  1  0
  9  7  1  0
  9 12  1  0
 12 10  1  1
 12 11  1  0
 13 12  1  0
 14 19  1  0
 15 16  1  0
 15 14  1  0
 17 16  1  0
 17 24  1  0
 17 18  1  0
 19 13  1  0
 19 18  1  0
 20 13  2  0
 21 22  2  0
 22 41  1  0
 23 22  1  0
 23 26  1  0
 24 25  1  0
 24 21  1  0
 25 23  2  0
 26 27  1  0
 27 28  2  0
 29 32  1  0
 29 28  1  0
 30 29  2  0
 31 30  1  0
 31 26  2  0
 32 33  1  0
 33 38  2  0
 33 34  1  0
 34 35  2  0
 35 36  1  0
 36 40  1  0
 37 36  2  0
 38 37  1  0
 39 38  1  0
 41 42  1  0
 42 45  1  0
 42 44  1  0
 43 41  2  0
 46 21  1  0
 46 47  1  0
 48 46  1  0
 50 49  1  0
 51 50  1  0
 51 53  1  0
 53 52  1  0
 54 56  1  0
 54 53  1  0
 55 66  2  0
 56 61  1  0
 57 65  1  0
 57 67  1  0
 58 64  1  0
 58 60  1  0
 59 65  1  0
 60 59  1  0
 61 60  2  0
 62 63  1  0
 62 56  2  0
 63 58  2  0
 64 57  1  0
 65 55  1  0
 67 69  2  0
 68 67  1  0
 70 68  1  0
 71 80  2  0
 71 76  1  0
 72 68  1  0
 72 76  1  0
 73 72  1  0
 74 75  1  0
 74 73  1  0
 75 71  1  0
 76 77  2  0
 77 78  1  0
 79 78  2  0
 80 79  1  0
 81 55  1  0
 81 82  1  0
 81 91  1  0
 82 85  1  0
 83 87  1  0
 83 82  1  0
 84 83  2  0
 87 86  1  0
 89 87  1  0
 89 90  1  0
 89 88  1  0
 91 94  1  1
 91 92  1  0
 93 91  1  0
M  ISO  4  12 100  13 100  53 101  54 101
M  END
>  <TORSDO>  (54) 
F 22

>  <SCORE>  (54) 
-12.851

>  <name>  (54) 
57

>  <ligand_id>  (54) 
57

>  <original_smiles>  (54) 
[H]c1nc(C(C([H])([H])[H])(C([H])([H])[H])C(C(=O)N2C([H])([H])C([H])([H])C([H])([H])C([H])(n3nc(-c4c([H])c([H])c(Oc5c([H])c([H])c(F)c([H])c5F)c([H])c4[H])c(C(=O)N([H])[H])c3N([H])[H])C2([H])[H])(C([H])([H])[H])C([H])([H])[H])nc([H])c1C([H])([H])C([H])([H])C([H])([H])C([H])(Oc1c([H])c([H])c2c(c1[H])C([H])([H])N(C(=O)C([H])(N([H])C(=O)C([H])(N([H])C([H])([H])[H])C([H])([H])[H])C(C([H])([H])[H])(C([H])([H])[H])C([H])([H])[H])C([H])(C(=O)N([H])C1([H])c3c([H])c([H])c([H])c([H])c3C([H])([H])C([H])([H])C1([H])[H])C2([H])[H])C([H])([H])[H]

>  <smiles>  (54) 
[H]c1nc(C(C([H])([H])[H])(C([H])([H])[H])C(C(=O)N2C([H])([H])C([H])([H])C([H])([H])C([H])(n3nc(-c4c([H])c([H])c(Oc5c([H])c([H])c(F)c([H])c5F)c([H])c4[H])c(C(=O)N([H])[H])c3N([H])[H])C2([H])[H])(C([H])([H])[H])C([H])([H])[H])nc([H])c1C([H])([H])C([H])([H])C([H])([H])C([H])(Oc1c([H])c([H])c2c(c1[H])C([H])([H])N(C(=O)C([H])(N([H])C(=O)C([H])(N([H])C([H])([H])[H])C([H])([H])[H])C(C([H])([H])[H])(C([H])([H])[H])C([H])([H])[H])C([H])(C(=O)N([H])C1([H])c3c([H])c([H])c([H])c([H])c3C([H])([H])C([H])([H])C1([H])[H])C2([H])[H])C([H])([H])[H]

$$$$
58:0:0
     RDKit          3D

 97105  0  0  1  0  0  0  0  0999 V2000
  -29.6900  -19.4210   19.1000 C   0  0  0  0  0  3  0  0  0  0  0  0
  -29.4930  -20.8050   21.4010 C   0  0  0  0  0  3  0  0  0  0  0  0
  -29.9530  -18.7510   20.3330 C   0  0  0  0  0  0  0  0  0  0  0  0
  -29.3940  -21.5150   20.1680 C   0  0  0  0  0  0  0  0  0  0  0  0
  -29.7510  -19.4600   21.4830 N   0  0  0  0  0  0  0  0  0  0  0  0
  -29.4010  -20.7630   19.0200 N   0  0  0  0  0  0  0  0  0  0  0  0
  -30.5100  -23.3850   18.9070 C   0  0  0  0  0  1  0  0  0  0  0  0
  -30.2530  -23.6610   21.3040 C   0  0  0  0  0  1  0  0  0  0  0  0
  -29.5080  -23.1100   20.0610 C   0  0  2  0  0  0  0  0  0  0  0  0
  -28.1520  -23.9730   19.8290 C   0  0  0  0  0  3  0  0  0  0  0  0
  -26.1570  -22.8120   21.0420 C   0  0  0  0  0  1  0  0  0  0  0  0
  -27.1640  -23.9740   21.0280 C   0  0  0  0  0  2  0  0  0  0  0  0
  -28.1970  -25.4330   19.1270 C   0  0  0  0  0  2  0  0  0  0  0  0
  -28.1060  -26.7220   19.8430 O   0  0  0  0  0  0  0  0  0  0  0  0
  -24.5010  -31.9620   23.1740 C   0  0  0  0  0  0  0  0  0  0  0  0
  -26.9550  -27.5270   19.8350 C   0  0  0  0  0  0  0  0  0  0  0  0
  -23.2120  -30.6200   21.5470 C   0  0  0  0  0  3  0  0  0  0  0  0
  -24.5860  -29.1250   19.9940 C   0  0  0  0  0  0  0  0  0  0  0  0
  -25.7340  -30.9540   21.2440 C   0  0  0  0  0  2  0  0  0  0  0  0
  -25.7800  -29.5990   20.5510 C   0  0  0  0  0  0  0  0  0  0  0  0
  -26.9620  -28.8080   20.4670 C   0  0  0  0  0  3  0  0  0  0  0  0
  -25.7340  -27.0960   19.2710 C   0  0  0  0  0  3  0  0  0  0  0  0
  -24.5640  -27.8780   19.3470 C   0  0  0  0  0  3  0  0  0  0  0  0
  -23.3540  -29.9950   20.1330 C   0  0  0  0  0  2  0  0  0  0  0  0
  -24.5040  -31.1950   22.0450 N   0  0  0  0  0  0  0  0  0  0  0  0
  -23.4470  -32.2170   23.7750 O   0  0  0  0  0  0  0  0  0  0  0  0
  -22.6000  -29.5700   22.5030 C   0  0  0  0  0  0  0  0  0  0  0  0
  -21.2760  -29.3610   22.4030 N   0  0  0  0  0  0  0  0  0  0  0  0
  -23.3120  -28.9490   23.2960 O   0  0  0  0  0  0  0  0  0  0  0  0
  -20.7590  -29.9160   21.7360 H   0  0  0  0  0  0  0  0  0  0  0  0
  -17.9480  -28.0470   22.9200 C   0  0  0  0  0  0  0  0  0  0  0  0
  -20.4970  -28.3920   23.1740 C   0  0  0  0  0  3  0  0  0  0  0  0
  -20.6450  -26.9690   22.5890 C   0  0  0  0  0  2  0  0  0  0  0  0
  -19.5480  -26.6150   21.5790 C   0  0  0  0  0  2  0  0  0  0  0  0
  -18.1660  -26.7090   22.2340 C   0  0  0  0  0  2  0  0  0  0  0  0
  -19.0430  -28.8440   23.3460 C   0  0  0  0  0  0  0  0  0  0  0  0
  -18.7850  -30.0960   23.9480 C   0  0  0  0  0  3  0  0  0  0  0  0
  -17.4650  -30.5510   24.1240 C   0  0  0  0  0  3  0  0  0  0  0  0
  -16.3850  -29.7510   23.7170 C   0  0  0  0  0  3  0  0  0  0  0  0
  -16.6260  -28.5000   23.1190 C   0  0  0  0  0  3  0  0  0  0  0  0
  -25.8160  -32.5700   23.7510 C   0  0  0  0  0  3  0  0  0  0  0  0
  -25.5360  -33.9640   24.1210 N   0  0  0  0  0  0  0  0  0  0  0  0
  -25.8730  -35.0300   23.3810 C   0  0  0  0  0  0  0  0  0  0  0  0
  -26.5220  -34.9400   22.3360 O   0  0  0  0  0  0  0  0  0  0  0  0
  -24.9620  -34.1090   24.9370 H   0  0  0  0  0  0  0  0  0  0  0  0
  -24.1800  -36.8650   23.0890 C   0  0  0  0  0  1  0  0  0  0  0  0
  -25.4170  -36.4150   23.8810 C   0  0  0  0  0  3  0  0  0  0  0  0
  -27.5710  -37.2350   24.7280 C   0  0  0  0  0  1  0  0  0  0  0  0
  -26.4710  -37.4500   23.7910 N   0  0  0  0  0  0  0  0  0  0  0  0
  -26.0850  -38.3730   23.9630 H   0  0  0  0  0  0  0  0  0  0  0  0
  -26.3800  -31.7700   24.9900 C   0  0  1  0  0  0  0  0  0  0  0  0
  -25.3290  -31.5060   26.0920 C   0  0  0  0  0  1  0  0  0  0  0  0
  -26.9460  -30.4040   24.5430 C   0  0  0  0  0  1  0  0  0  0  0  0
  -27.5570  -32.5480   25.6250 C   0  0  0  0  0  1  0  0  0  0  0  0
  -30.8120  -17.4180   20.4740 C   0  0  0  0  0  0  0  0  0  0  0  0
  -30.7900  -14.9080   19.5540 C   0  0  0  0  0  0  0  0  0  0  0  0
  -30.3730  -12.6670   18.5500 C   0  0  0  0  0  2  0  0  0  0  0  0
  -29.3090  -12.7870   17.4420 C   0  0  0  0  0  2  0  0  0  0  0  0
  -27.9050  -12.5970   18.0450 C   0  0  0  0  0  2  0  0  0  0  0  0
  -27.6820  -13.4710   19.3120 C   0  0  0  0  0  3  0  0  0  0  0  0
  -28.8710  -13.3920   20.2970 C   0  0  0  0  0  2  0  0  0  0  0  0
  -30.0920  -13.7250   19.5520 N   0  0  0  0  0  0  0  0  0  0  0  0
  -31.8510  -14.9530   18.9430 O   0  0  0  0  0  0  0  0  0  0  0  0
  -30.2430  -16.0400   20.1220 N   0  0  0  0  0  4  0  0  0  0  0  0
  -29.3220  -15.8880   20.5070 H   0  0  0  0  0  0  0  0  0  0  0  0
  -25.4240  -14.0190   20.4010 C   0  0  0  0  0  0  0  0  0  0  0  0
  -24.4150  -13.2260   20.8780 C   0  0  0  0  0  0  0  0  0  0  0  0
  -24.8560  -11.8780   20.7050 C   0  0  0  0  0  0  0  0  0  0  0  0
  -26.4160  -13.1550   19.9700 N   0  0  0  0  0  0  0  0  0  0  0  0
  -26.0900  -11.8580   20.2130 N   0  0  0  0  0  0  0  0  0  0  0  0
  -24.1520  -10.6070   20.9270 C   0  0  0  0  0  0  0  0  0  0  0  0
  -24.6070   -9.6690   21.8800 C   0  0  0  0  0  3  0  0  0  0  0  0
  -23.9050   -8.4630   22.0900 C   0  0  0  0  0  3  0  0  0  0  0  0
  -22.7320   -8.1880   21.3480 C   0  0  0  0  0  0  0  0  0  0  0  0
  -22.2950   -9.1150   20.3860 C   0  0  0  0  0  3  0  0  0  0  0  0
  -22.9980  -10.3120   20.1740 C   0  0  0  0  0  3  0  0  0  0  0  0
  -21.9950   -7.0350   21.4680 O   0  0  0  0  0  0  0  0  0  0  0  0
  -21.8570   -6.3900   22.6710 C   0  0  0  0  0  0  0  0  0  0  0  0
  -21.2620   -7.0150   23.7900 C   0  0  0  0  0  3  0  0  0  0  0  0
  -21.0780   -6.2910   24.9850 C   0  0  0  0  0  3  0  0  0  0  0  0
  -21.4770   -4.9440   25.0610 C   0  0  0  0  0  0  0  0  0  0  0  0
  -22.0620   -4.3170   23.9470 C   0  0  0  0  0  3  0  0  0  0  0  0
  -22.2490   -5.0390   22.7550 C   0  0  0  0  0  0  0  0  0  0  0  0
  -22.7940   -4.4240   21.6770 F   0  0  0  0  0  0  0  0  0  0  0  0
  -21.2910   -4.2460   26.2070 F   0  0  0  0  0  0  0  0  0  0  0  0
  -23.0730  -13.6900   21.3650 C   0  0  0  0  0  0  0  0  0  0  0  0
  -22.4740  -12.9640   22.3040 N   0  0  0  0  0  0  0  0  0  0  0  0
  -22.5650  -14.7300   20.9470 O   0  0  0  0  0  0  0  0  0  0  0  0
  -22.8980  -12.1210   22.6650 H   0  0  0  0  0  0  0  0  0  0  0  0
  -21.5760  -13.2520   22.6630 H   0  0  0  0  0  0  0  0  0  0  0  0
  -25.5680  -15.3970   20.2730 N   0  0  0  0  0  0  0  0  0  0  0  0
  -24.8230  -16.0400   20.5210 H   0  0  0  0  0  0  0  0  0  0  0  0
  -26.3610  -15.8550   19.8380 H   0  0  0  0  0  0  0  0  0  0  0  0
  -33.2740  -16.5500   20.7460 C   0  0  0  0  0  1  0  0  0  0  0  0
  -32.8330  -18.9450   21.0680 C   0  0  0  0  0  1  0  0  0  0  0  0
  -32.6920  -18.0830   18.7780 C   0  0  0  0  0  1  0  0  0  0  0  0
  -32.3670  -17.7110   20.2470 C   0  0  2  0  0  0  0  0  0  0  0  0
  1  3  1  0
  2  5  1  0
  3 55  1  0
  3  5  2  0
  4  2  2  0
  6  1  2  0
  6  4  1  0
  9  7  1  6
  9  4  1  0
  9  8  1  0
 10 13  1  0
 10  9  1  0
 10 12  1  0
 12 11  1  0
 13 14  1  0
 15 26  2  0
 16 14  1  0
 16 21  1  0
 17 25  1  0
 17 27  1  0
 18 24  1  0
 18 20  1  0
 19 25  1  0
 20 19  1  0
 21 20  2  0
 22 23  1  0
 22 16  2  0
 23 18  2  0
 24 17  1  0
 25 15  1  0
 27 29  2  0
 28 27  1  0
 30 28  1  0
 31 40  2  0
 31 36  1  0
 32 28  1  0
 32 36  1  0
 33 32  1  0
 34 35  1  0
 34 33  1  0
 35 31  1  0
 36 37  2  0
 37 38  1  0
 39 38  2  0
 40 39  1  0
 41 15  1  0
 41 42  1  0
 41 51  1  0
 42 45  1  0
 43 47  1  0
 43 42  1  0
 44 43  2  0
 47 46  1  0
 49 47  1  0
 49 50  1  0
 49 48  1  0
 51 54  1  1
 51 52  1  0
 53 51  1  0
 56 64  1  0
 57 62  1  0
 58 59  1  0
 58 57  1  0
 60 59  1  0
 60 69  1  0
 60 61  1  0
 62 56  1  0
 62 61  1  0
 63 56  2  0
 64 55  2  0
 64 65  1  0
 66 67  2  0
 67 86  1  0
 68 67  1  0
 68 71  1  0
 69 70  1  0
 69 66  1  0
 70 68  2  0
 71 72  1  0
 72 73  2  0
 74 77  1  0
 74 73  1  0
 75 74  2  0
 76 75  1  0
 76 71  2  0
 77 78  1  0
 78 83  2  0
 78 79  1  0
 79 80  2  0
 80 81  1  0
 81 85  1  0
 82 81  2  0
 83 82  1  0
 84 83  1  0
 86 87  1  0
 87 90  1  0
 87 89  1  0
 88 86  2  0
 91 66  1  0
 91 92  1  0
 93 91  1  0
 97 96  1  6
 97 55  1  0
 97 94  1  0
 97 95  1  0
M  ISO  4  13 101  14 101  56 100  64 100
M  END
>  <TORSDO>  (55) 
F 22

>  <SCORE>  (55) 
-11.069

>  <name>  (55) 
58

>  <ligand_id>  (55) 
58

>  <original_smiles>  (55) 
[H]c1nc(C(C([H])([H])[H])(C([H])([H])[H])C([H])(C([H])([H])Oc2c([H])c([H])c3c(c2[H])C([H])([H])N(C(=O)C([H])(N([H])C(=O)C([H])(N([H])C([H])([H])[H])C([H])([H])[H])C(C([H])([H])[H])(C([H])([H])[H])C([H])([H])[H])C([H])(C(=O)N([H])C2([H])c4c([H])c([H])c([H])c([H])c4C([H])([H])C([H])([H])C2([H])[H])C3([H])[H])C([H])([H])C([H])([H])[H])c([H])nc1C([H])(N([H])C(=O)N1C([H])([H])C([H])([H])C([H])([H])C([H])(n2nc(-c3c([H])c([H])c(Oc4c([H])c([H])c(F)c([H])c4F)c([H])c3[H])c(C(=O)N([H])[H])c2N([H])[H])C1([H])[H])C(C([H])([H])[H])(C([H])([H])[H])C([H])([H])[H]

>  <smiles>  (55) 
[H]c1nc(C(C([H])([H])[H])(C([H])([H])[H])C([H])(C([H])([H])Oc2c([H])c([H])c3c(c2[H])C([H])([H])N(C(=O)C([H])(N([H])C(=O)C([H])(N([H])C([H])([H])[H])C([H])([H])[H])C(C([H])([H])[H])(C([H])([H])[H])C([H])([H])[H])C([H])(C(=O)N([H])C2([H])c4c([H])c([H])c([H])c([H])c4C([H])([H])C([H])([H])C2([H])[H])C3([H])[H])C([H])([H])C([H])([H])[H])c([H])nc1C([H])(N([H])C(=O)N1C([H])([H])C([H])([H])C([H])([H])C([H])(n2nc(-c3c([H])c([H])c(Oc4c([H])c([H])c(F)c([H])c4F)c([H])c3[H])c(C(=O)N([H])[H])c2N([H])[H])C1([H])[H])C(C([H])([H])[H])(C([H])([H])[H])C([H])([H])[H]

$$$$
59:0:0
     RDKit          3D

103111  0  0  1  0  0  0  0  0999 V2000
  -30.1020  -18.7940   18.2760 C   0  0  0  0  0  0  0  0  0  0  0  0
  -31.0490  -18.4250   19.2630 C   0  0  0  0  0  0  0  0  0  0  0  0
  -30.4730  -21.0290   18.7230 C   0  0  0  0  0  0  0  0  0  0  0  0
  -31.4480  -20.6880   19.7120 C   0  0  0  0  0  0  0  0  0  0  0  0
  -29.1990  -17.7990   17.5680 C   0  0  0  0  0  1  0  0  0  0  0  0
  -29.8700  -20.0780   17.9720 N   0  0  0  0  0  0  0  0  0  0  0  0
  -31.7540  -19.3770   19.9440 N   0  0  0  0  0  0  0  0  0  0  0  0
  -29.8720  -22.4160   18.4890 C   0  0  0  0  0  2  0  0  0  0  0  0
  -28.4860  -22.5490   19.2000 C   0  0  0  0  0  2  0  0  0  0  0  0
  -27.4490  -21.2450   17.2090 C   0  0  0  0  0  1  0  0  0  0  0  0
  -26.4620  -23.3840   17.9320 C   0  0  0  0  0  1  0  0  0  0  0  0
  -27.1590  -22.1050   18.4710 C   0  0  2  0  0  0  0  0  0  0  0  0
  -26.9630  -20.2660   20.3170 C   0  0  0  0  0  1  0  0  0  0  0  0
  -25.5000  -22.2920   20.4830 C   0  0  0  0  0  1  0  0  0  0  0  0
  -25.0680  -20.5620   18.7640 C   0  0  0  0  0  1  0  0  0  0  0  0
  -26.2010  -21.3300   19.4850 C   0  0  1  0  0  0  0  0  0  0  0  0
  -32.1290  -21.7240   20.6290 C   0  0  0  0  0  2  0  0  0  0  0  0
  -32.6200  -23.0310   19.9330 C   0  0  0  0  0  2  0  0  0  0  0  0
  -31.8680  -24.3580   20.2850 C   0  0  0  0  0  2  0  0  0  0  0  0
  -32.7910  -25.5770   20.5860 C   0  0  0  0  0  2  0  0  0  0  0  0
  -32.2330  -26.9080   20.5850 O   0  0  0  0  0  0  0  0  0  0  0  0
  -28.7010  -31.0220   25.2570 C   0  0  0  0  0  0  0  0  0  0  0  0
  -31.0740  -27.1580   21.2870 C   0  0  0  0  0  0  0  0  0  0  0  0
  -27.5500  -28.9620   24.5260 C   0  0  0  0  0  3  0  0  0  0  0  0
  -28.6170  -27.7250   22.5710 C   0  0  0  0  0  0  0  0  0  0  0  0
  -29.2610  -30.1020   23.0050 C   0  0  0  0  0  2  0  0  0  0  0  0
  -29.5840  -28.7320   22.4460 C   0  0  0  0  0  0  0  0  0  0  0  0
  -30.8090  -28.4530   21.8020 C   0  0  0  0  0  3  0  0  0  0  0  0
  -30.0820  -26.1670   21.4120 C   0  0  0  0  0  3  0  0  0  0  0  0
  -28.8640  -26.4410   22.0600 C   0  0  0  0  0  3  0  0  0  0  0  0
  -27.3230  -28.1000   23.2590 C   0  0  0  0  0  2  0  0  0  0  0  0
  -28.5400  -30.0640   24.3020 N   0  0  0  0  0  0  0  0  0  0  0  0
  -28.0170  -31.0250   26.2910 O   0  0  0  0  0  0  0  0  0  0  0  0
  -27.9310  -28.0220   25.6940 C   0  0  0  0  0  0  0  0  0  0  0  0
  -26.9420  -27.6870   26.5380 N   0  0  0  0  0  0  0  0  0  0  0  0
  -29.0820  -27.5940   25.8120 O   0  0  0  0  0  0  0  0  0  0  0  0
  -26.0280  -28.0810   26.3720 H   0  0  0  0  0  0  0  0  0  0  0  0
  -25.3390  -26.6730   29.6120 C   0  0  0  0  0  0  0  0  0  0  0  0
  -27.0580  -26.7910   27.6850 C   0  0  0  0  0  3  0  0  0  0  0  0
  -26.5960  -25.3620   27.3230 C   0  0  0  0  0  2  0  0  0  0  0  0
  -25.1190  -25.1050   27.6410 C   0  0  0  0  0  2  0  0  0  0  0  0
  -24.8410  -25.3210   29.1310 C   0  0  0  0  0  2  0  0  0  0  0  0
  -26.3670  -27.3690   28.9250 C   0  0  0  0  0  0  0  0  0  0  0  0
  -26.7680  -28.6380   29.3950 C   0  0  0  0  0  3  0  0  0  0  0  0
  -26.1610  -29.2100   30.5300 C   0  0  0  0  0  3  0  0  0  0  0  0
  -25.1570  -28.5110   31.2190 C   0  0  0  0  0  3  0  0  0  0  0  0
  -24.7510  -27.2450   30.7600 C   0  0  0  0  0  3  0  0  0  0  0  0
  -29.7350  -32.1770   25.0860 C   0  0  0  0  0  3  0  0  0  0  0  0
  -29.0290  -33.4440   25.3240 N   0  0  0  0  0  0  0  0  0  0  0  0
  -28.8610  -34.4050   24.4060 C   0  0  0  0  0  0  0  0  0  0  0  0
  -29.3590  -34.3520   23.2780 O   0  0  0  0  0  0  0  0  0  0  0  0
  -28.5520  -33.5340   26.2090 H   0  0  0  0  0  0  0  0  0  0  0  0
  -26.7350  -35.6670   23.9460 C   0  0  0  0  0  1  0  0  0  0  0  0
  -28.0090  -35.6250   24.8040 C   0  0  0  0  0  3  0  0  0  0  0  0
  -29.7460  -37.0940   25.7180 C   0  0  0  0  0  1  0  0  0  0  0  0
  -28.7280  -36.9130   24.6880 N   0  0  0  0  0  0  0  0  0  0  0  0
  -28.0780  -37.6940   24.7510 H   0  0  0  0  0  0  0  0  0  0  0  0
  -30.9810  -32.0400   26.0460 C   0  0  1  0  0  0  0  0  0  0  0  0
  -30.6080  -31.7000   27.5090 C   0  0  0  0  0  1  0  0  0  0  0  0
  -31.9320  -30.9320   25.5380 C   0  0  0  0  0  1  0  0  0  0  0  0
  -31.7890  -33.3580   26.0430 C   0  0  0  0  0  1  0  0  0  0  0  0
  -31.2740  -16.9470   19.6070 C   0  0  0  0  0  2  0  0  0  0  0  0
  -31.0140  -16.5860   21.1110 C   0  0  0  0  0  3  0  0  0  0  0  0
  -31.9280  -14.2390   20.7490 C   0  0  0  0  0  0  0  0  0  0  0  0
  -31.5520  -12.0500   19.6490 C   0  0  0  0  0  2  0  0  0  0  0  0
  -30.7620  -12.2190   18.3390 C   0  0  0  0  0  2  0  0  0  0  0  0
  -29.2440  -12.2220   18.6090 C   0  0  0  0  0  2  0  0  0  0  0  0
  -28.8430  -13.1440   19.7900 C   0  0  0  0  0  3  0  0  0  0  0  0
  -29.7620  -12.9420   21.0100 C   0  0  0  0  0  2  0  0  0  0  0  0
  -31.1590  -13.1260   20.5730 N   0  0  0  0  0  0  0  0  0  0  0  0
  -33.0250  -14.3740   20.2000 O   0  0  0  0  0  0  0  0  0  0  0  0
  -31.4770  -14.9140   23.0020 C   0  0  0  0  0  1  0  0  0  0  0  0
  -31.4270  -15.2090   21.5610 N   0  0  0  0  0  0  0  0  0  0  0  0
  -26.4350  -13.9450   20.1830 C   0  0  0  0  0  0  0  0  0  0  0  0
  -25.2910  -13.2690   20.5040 C   0  0  0  0  0  0  0  0  0  0  0  0
  -25.6640  -11.8980   20.6460 C   0  0  0  0  0  0  0  0  0  0  0  0
  -27.4370  -12.9870   20.1430 N   0  0  0  0  0  0  0  0  0  0  0  0
  -26.9720  -11.7560   20.4730 N   0  0  0  0  0  0  0  0  0  0  0  0
  -24.8450  -10.7020   20.8750 C   0  0  0  0  0  0  0  0  0  0  0  0
  -25.0580   -9.8630   21.9910 C   0  0  0  0  0  3  0  0  0  0  0  0
  -24.2450   -8.7300   22.1990 C   0  0  0  0  0  3  0  0  0  0  0  0
  -23.2000   -8.4280   21.2940 C   0  0  0  0  0  0  0  0  0  0  0  0
  -23.0060   -9.2550   20.1720 C   0  0  0  0  0  3  0  0  0  0  0  0
  -23.8220  -10.3790   19.9630 C   0  0  0  0  0  3  0  0  0  0  0  0
  -22.3760   -7.3320   21.4020 O   0  0  0  0  0  0  0  0  0  0  0  0
  -22.0300   -6.8080   22.6220 C   0  0  0  0  0  0  0  0  0  0  0  0
  -21.3740   -7.5810   23.6040 C   0  0  0  0  0  3  0  0  0  0  0  0
  -20.9750   -6.9840   24.8180 C   0  0  0  0  0  3  0  0  0  0  0  0
  -21.2160   -5.6160   25.0460 C   0  0  0  0  0  0  0  0  0  0  0  0
  -21.8630   -4.8430   24.0650 C   0  0  0  0  0  3  0  0  0  0  0  0
  -22.2650   -5.4360   22.8560 C   0  0  0  0  0  0  0  0  0  0  0  0
  -22.8680   -4.6820   21.9050 F   0  0  0  0  0  0  0  0  0  0  0  0
  -20.8250   -5.0440   26.2080 F   0  0  0  0  0  0  0  0  0  0  0  0
  -23.9090  -13.8470   20.5920 C   0  0  0  0  0  0  0  0  0  0  0  0
  -23.0960  -13.3370   21.5070 N   0  0  0  0  0  0  0  0  0  0  0  0
  -23.5640  -14.7880   19.8780 O   0  0  0  0  0  0  0  0  0  0  0  0
  -23.3980  -12.5830   22.1060 H   0  0  0  0  0  0  0  0  0  0  0  0
  -22.1620  -13.7060   21.6100 H   0  0  0  0  0  0  0  0  0  0  0  0
  -26.7100  -15.2840   19.9190 N   0  0  0  0  0  0  0  0  0  0  0  0
  -25.9810  -15.9900   19.8740 H   0  0  0  0  0  0  0  0  0  0  0  0
  -27.6310  -15.6570   19.7280 H   0  0  0  0  0  0  0  0  0  0  0  0
  -30.7260  -18.1800   23.2050 C   0  0  0  0  0  1  0  0  0  0  0  0
  -31.5580  -17.7710   21.9810 C   0  0  0  0  0  2  0  0  0  0  0  0
  1  2  1  0
  2 62  1  0
  2  7  2  0
  3  4  2  0
  4  7  1  0
  4 17  1  0
  5  1  1  0
  6  1  2  0
  6  3  1  0
  8  3  1  0
  8  9  1  0
 12 10  1  6
 11 12  1  0
 12  9  1  0
 12 16  1  0
 16 15  1  6
 16 13  1  0
 16 14  1  0
 18 19  1  0
 18 17  1  0
 19 20  1  0
 21 20  1  0
 21 23  1  0
 22 33  2  0
 23 29  2  0
 23 28  1  0
 24 34  1  0
 25 31  1  0
 26 32  1  0
 27 25  1  0
 27 26  1  0
 28 27  2  0
 29 30  1  0
 30 25  2  0
 31 24  1  0
 32 24  1  0
 32 22  1  0
 34 36  2  0
 34 35  1  0
 37 35  1  0
 38 47  1  0
 39 35  1  0
 39 43  1  0
 40 41  1  0
 40 39  1  0
 41 42  1  0
 42 38  1  0
 43 44  1  0
 43 38  2  0
 44 45  2  0
 45 46  1  0
 47 46  2  0
 48 22  1  0
 48 49  1  0
 48 58  1  0
 49 52  1  0
 50 54  1  0
 50 49  1  0
 51 50  2  0
 54 53  1  0
 56 57  1  0
 56 54  1  0
 56 55  1  0
 58 59  1  1
 60 58  1  0
 61 58  1  0
 63 62  1  0
 63 73  1  0
 63103  1  0
 64 73  1  0
 65 70  1  0
 66 67  1  0
 66 65  1  0
 68 67  1  0
 68 77  1  0
 68 69  1  0
 70 64  1  0
 70 69  1  0
 71 64  2  0
 73 72  1  0
 74 75  2  0
 75 94  1  0
 75 76  1  0
 76 79  1  0
 77 74  1  0
 77 78  1  0
 78 76  2  0
 79 80  1  0
 80 81  2  0
 82 85  1  0
 82 81  1  0
 83 82  2  0
 84 83  1  0
 84 79  2  0
 85 86  1  0
 86 91  2  0
 86 87  1  0
 87 88  2  0
 88 89  1  0
 89 93  1  0
 90 89  2  0
 91 90  1  0
 92 91  1  0
 94 95  1  0
 95 98  1  0
 95 97  1  0
 96 94  2  0
 99 74  1  0
100 99  1  0
101 99  1  0
103102  1  0
M  ISO  4  20 101  21 101  64 100  73 100
M  END
>  <TORSDO>  (56) 
F 27

>  <SCORE>  (56) 
-2.130

>  <name>  (56) 
59

>  <ligand_id>  (56) 
59

>  <original_smiles>  (56) 
[H]c1c([H])c([H])c2c(c1[H])C([H])([H])C([H])([H])C([H])([H])C2([H])N([H])C(=O)C1([H])N(C(=O)C([H])(N([H])C(=O)C([H])(N([H])C([H])([H])[H])C([H])([H])[H])C(C([H])([H])[H])(C([H])([H])[H])C([H])([H])[H])C([H])([H])c2c([H])c(OC([H])([H])C([H])([H])C([H])([H])C([H])([H])c3nc(C([H])([H])C([H])(N(C(=O)N4C([H])([H])C([H])([H])C([H])([H])C([H])(n5nc(-c6c([H])c([H])c(Oc7c([H])c([H])c(F)c([H])c7F)c([H])c6[H])c(C(=O)N([H])[H])c5N([H])[H])C4([H])[H])C([H])([H])[H])C([H])([H])C([H])([H])[H])c(C([H])([H])[H])nc3C([H])([H])C([H])([H])C(C([H])([H])[H])(C([H])([H])[H])C(C([H])([H])[H])(C([H])([H])[H])C([H])([H])[H])c([H])c([H])c2C1([H])[H]

>  <smiles>  (56) 
[H]c1c([H])c([H])c2c(c1[H])C([H])([H])C([H])([H])C([H])([H])C2([H])N([H])C(=O)C1([H])N(C(=O)C([H])(N([H])C(=O)C([H])(N([H])C([H])([H])[H])C([H])([H])[H])C(C([H])([H])[H])(C([H])([H])[H])C([H])([H])[H])C([H])([H])c2c([H])c(OC([H])([H])C([H])([H])C([H])([H])C([H])([H])c3nc(C([H])([H])C([H])(N(C(=O)N4C([H])([H])C([H])([H])C([H])([H])C([H])(n5nc(-c6c([H])c([H])c(Oc7c([H])c([H])c(F)c([H])c7F)c([H])c6[H])c(C(=O)N([H])[H])c5N([H])[H])C4([H])[H])C([H])([H])[H])C([H])([H])C([H])([H])[H])c(C([H])([H])[H])nc3C([H])([H])C([H])([H])C(C([H])([H])[H])(C([H])([H])[H])C(C([H])([H])[H])(C([H])([H])[H])C([H])([H])[H])c([H])c([H])c2C1([H])[H]

$$$$
61:0:0
     RDKit          3D

 96104  0  0  1  0  0  0  0  0999 V2000
  -29.9620  -21.9860   20.9580 C   0  0  0  0  0  2  0  0  0  0  0  0
  -30.2600  -20.4290   22.9820 C   0  0  0  0  0  3  0  0  0  0  0  0
  -30.5360  -19.1440   23.4670 C   0  0  0  0  0  0  0  0  0  0  0  0
  -30.1230  -20.5760   21.5960 C   0  0  0  0  0  0  0  0  0  0  0  0
  -30.4470  -18.2720   21.3500 C   0  0  0  0  0  0  0  0  0  0  0  0
  -30.8790  -18.9040   24.9210 C   0  0  0  0  0  1  0  0  0  0  0  0
  -30.4810  -17.3220   19.0590 C   0  0  0  0  0  1  0  0  0  0  0  0
  -30.5970  -18.0780   22.6520 N   0  0  0  0  0  0  0  0  0  0  0  0
  -30.2340  -19.4800   20.7970 N   0  0  0  0  0  0  0  0  0  0  0  0
  -30.5550  -17.1280   20.5170 N   0  0  0  0  0  0  0  0  0  0  0  0
  -31.9970  -15.7600   22.0730 C   0  0  0  0  0  1  0  0  0  0  0  0
  -30.8220  -15.7420   21.0620 C   0  0  0  0  0  3  0  0  0  0  0  0
  -31.1470  -14.5650   20.0670 C   0  0  0  0  0  0  0  0  0  0  0  0
  -30.6130  -12.4850   18.8240 C   0  0  0  0  0  2  0  0  0  0  0  0
  -29.6160  -12.7780   17.6840 C   0  0  0  0  0  2  0  0  0  0  0  0
  -28.1690  -12.6710   18.2010 C   0  0  0  0  0  2  0  0  0  0  0  0
  -27.9460  -13.4740   19.5110 C   0  0  0  0  0  3  0  0  0  0  0  0
  -29.0620  -13.1830   20.5430 C   0  0  0  0  0  2  0  0  0  0  0  0
  -30.3590  -13.4600   19.9050 N   0  0  0  0  0  0  0  0  0  0  0  0
  -32.2060  -14.6590   19.4410 O   0  0  0  0  0  0  0  0  0  0  0  0
  -25.6240  -14.1430   20.3900 C   0  0  0  0  0  0  0  0  0  0  0  0
  -24.5490  -13.3970   20.7960 C   0  0  0  0  0  0  0  0  0  0  0  0
  -24.9480  -12.0310   20.6780 C   0  0  0  0  0  0  0  0  0  0  0  0
  -26.6160  -13.2310   20.0620 N   0  0  0  0  0  0  0  0  0  0  0  0
  -26.2150  -11.9530   20.2910 N   0  0  0  0  0  0  0  0  0  0  0  0
  -24.1770  -10.7920   20.8540 C   0  0  0  0  0  0  0  0  0  0  0  0
  -24.5900   -9.7900   21.7610 C   0  0  0  0  0  3  0  0  0  0  0  0
  -23.8220   -8.6170   21.9290 C   0  0  0  0  0  3  0  0  0  0  0  0
  -22.6280   -8.4390   21.1920 C   0  0  0  0  0  0  0  0  0  0  0  0
  -22.2340   -9.4290   20.2740 C   0  0  0  0  0  3  0  0  0  0  0  0
  -23.0020  -10.5930   20.1040 C   0  0  0  0  0  3  0  0  0  0  0  0
  -21.8320   -7.3210   21.2710 O   0  0  0  0  0  0  0  0  0  0  0  0
  -21.7350   -6.5870   22.4250 C   0  0  0  0  0  0  0  0  0  0  0  0
  -21.3320   -7.1700   23.6480 C   0  0  0  0  0  3  0  0  0  0  0  0
  -21.1780   -6.3660   24.7940 C   0  0  0  0  0  3  0  0  0  0  0  0
  -21.4150   -4.9800   24.7200 C   0  0  0  0  0  0  0  0  0  0  0  0
  -21.8110   -4.3970   23.5030 C   0  0  0  0  0  3  0  0  0  0  0  0
  -21.9670   -5.1970   22.3590 C   0  0  0  0  0  0  0  0  0  0  0  0
  -22.3260   -4.6280   21.1830 F   0  0  0  0  0  0  0  0  0  0  0  0
  -21.2600   -4.2060   25.8190 F   0  0  0  0  0  0  0  0  0  0  0  0
  -23.1930  -13.9180   21.1760 C   0  0  0  0  0  0  0  0  0  0  0  0
  -22.5090  -13.2380   22.0890 N   0  0  0  0  0  0  0  0  0  0  0  0
  -22.7530  -14.9640   20.6980 O   0  0  0  0  0  0  0  0  0  0  0  0
  -22.8800  -12.3930   22.4970 H   0  0  0  0  0  0  0  0  0  0  0  0
  -21.6000  -13.5640   22.3850 H   0  0  0  0  0  0  0  0  0  0  0  0
  -25.8320  -15.5090   20.2500 N   0  0  0  0  0  0  0  0  0  0  0  0
  -25.0830  -16.1780   20.3870 H   0  0  0  0  0  0  0  0  0  0  0  0
  -26.6620  -15.9240   19.8470 H   0  0  0  0  0  0  0  0  0  0  0  0
  -27.4690  -22.3200   21.3910 C   0  0  0  0  0  1  0  0  0  0  0  0
  -28.2510  -21.2750   19.2800 C   0  0  0  0  0  1  0  0  0  0  0  0
  -28.5740  -22.3950   20.3060 C   0  0  2  0  0  0  0  0  0  0  0  0
  -29.9500  -24.1750   18.9940 C   0  0  0  0  0  1  0  0  0  0  0  0
  -27.5770  -23.8480   18.3720 C   0  0  0  0  0  1  0  0  0  0  0  0
  -28.5530  -23.8510   19.5770 C   0  0  1  0  0  0  0  0  0  0  0  0
  -28.1170  -25.0780   20.4860 C   0  0  0  0  0  2  0  0  0  0  0  0
  -28.1900  -26.3980   19.8670 O   0  0  0  0  0  0  0  0  0  0  0  0
  -24.5680  -31.6700   23.0770 C   0  0  0  0  0  0  0  0  0  0  0  0
  -27.0420  -27.1800   19.8900 C   0  0  0  0  0  0  0  0  0  0  0  0
  -23.2890  -30.3090   21.4590 C   0  0  0  0  0  3  0  0  0  0  0  0
  -24.6730  -28.7490   19.9840 C   0  0  0  0  0  0  0  0  0  0  0  0
  -25.8160  -30.6150   21.1880 C   0  0  0  0  0  2  0  0  0  0  0  0
  -25.8650  -29.2500   20.5250 C   0  0  0  0  0  0  0  0  0  0  0  0
  -27.0540  -28.4780   20.4610 C   0  0  0  0  0  3  0  0  0  0  0  0
  -25.8300  -26.7040   19.3440 C   0  0  0  0  0  3  0  0  0  0  0  0
  -24.6500  -27.4720   19.3980 C   0  0  0  0  0  3  0  0  0  0  0  0
  -23.4410  -29.6240   20.0770 C   0  0  0  0  0  2  0  0  0  0  0  0
  -24.5780  -30.8730   21.9700 N   0  0  0  0  0  0  0  0  0  0  0  0
  -23.5060  -31.9620   23.6430 O   0  0  0  0  0  0  0  0  0  0  0  0
  -22.6420  -29.2950   22.4290 C   0  0  0  0  0  0  0  0  0  0  0  0
  -21.3190  -29.1040   22.3010 N   0  0  0  0  0  0  0  0  0  0  0  0
  -23.3270  -28.6780   23.2490 O   0  0  0  0  0  0  0  0  0  0  0  0
  -20.8290  -29.6420   21.5990 H   0  0  0  0  0  0  0  0  0  0  0  0
  -17.9640  -27.8640   22.7700 C   0  0  0  0  0  0  0  0  0  0  0  0
  -20.5100  -28.1690   23.0770 C   0  0  0  0  0  3  0  0  0  0  0  0
  -20.6480  -26.7320   22.5250 C   0  0  0  0  0  2  0  0  0  0  0  0
  -19.5690  -26.3710   21.5000 C   0  0  0  0  0  2  0  0  0  0  0  0
  -18.1740  -26.5070   22.1180 C   0  0  0  0  0  2  0  0  0  0  0  0
  -19.0620  -28.6510   23.2030 C   0  0  0  0  0  0  0  0  0  0  0  0
  -18.8140  -29.9230   23.7650 C   0  0  0  0  0  3  0  0  0  0  0  0
  -17.4990  -30.4050   23.9030 C   0  0  0  0  0  3  0  0  0  0  0  0
  -16.4140  -29.6110   23.4940 C   0  0  0  0  0  3  0  0  0  0  0  0
  -16.6460  -28.3450   22.9290 C   0  0  0  0  0  3  0  0  0  0  0  0
  -25.8830  -32.2650   23.6690 C   0  0  0  0  0  3  0  0  0  0  0  0
  -25.5990  -33.6500   24.0670 N   0  0  0  0  0  0  0  0  0  0  0  0
  -25.9320  -34.7300   23.3490 C   0  0  0  0  0  0  0  0  0  0  0  0
  -26.5860  -34.6690   22.3040 O   0  0  0  0  0  0  0  0  0  0  0  0
  -25.0210  -33.7730   24.8830 H   0  0  0  0  0  0  0  0  0  0  0  0
  -24.2240  -36.5590   23.1060 C   0  0  0  0  0  1  0  0  0  0  0  0
  -25.4690  -36.0990   23.8820 C   0  0  0  0  0  3  0  0  0  0  0  0
  -27.6260  -36.9100   24.7260 C   0  0  0  0  0  1  0  0  0  0  0  0
  -26.5150  -37.1420   23.8090 N   0  0  0  0  0  0  0  0  0  0  0  0
  -26.1220  -38.0570   24.0120 H   0  0  0  0  0  0  0  0  0  0  0  0
  -26.4450  -31.4410   24.8930 C   0  0  1  0  0  0  0  0  0  0  0  0
  -25.3890  -31.1650   25.9880 C   0  0  0  0  0  1  0  0  0  0  0  0
  -27.0040  -30.0760   24.4220 C   0  0  0  0  0  1  0  0  0  0  0  0
  -27.6250  -32.2010   25.5400 C   0  0  0  0  0  1  0  0  0  0  0  0
  1  4  1  0
  2  3  2  0
  3  6  1  0
  4  2  1  0
  5  8  2  0
  7 10  1  0
  8  3  1  0
  9  5  1  0
  9  4  2  0
 10 12  1  0
 10  5  1  0
 12 11  1  0
 13 12  1  0
 14 19  1  0
 15 16  1  0
 15 14  1  0
 17 16  1  0
 17 24  1  0
 17 18  1  0
 19 13  1  0
 19 18  1  0
 20 13  2  0
 21 22  2  0
 22 41  1  0
 23 22  1  0
 23 26  1  0
 24 25  1  0
 24 21  1  0
 25 23  2  0
 26 27  1  0
 27 28  2  0
 29 32  1  0
 29 28  1  0
 30 29  2  0
 31 30  1  0
 31 26  2  0
 32 33  1  0
 33 34  1  0
 34 35  2  0
 36 35  1  0
 36 40  1  0
 37 36  2  0
 38 33  2  0
 38 37  1  0
 39 38  1  0
 41 42  1  0
 42 45  1  0
 42 44  1  0
 43 41  2  0
 46 47  1  0
 46 21  1  0
 48 46  1  0
 51 50  1  6
 51  1  1  0
 51 49  1  0
 54 52  1  6
 53 54  1  0
 54 51  1  0
 54 55  1  0
 56 58  1  0
 56 55  1  0
 57 68  2  0
 58 63  1  0
 59 67  1  0
 59 69  1  0
 60 66  1  0
 60 62  1  0
 61 67  1  0
 62 61  1  0
 63 62  2  0
 64 65  1  0
 64 58  2  0
 65 60  2  0
 66 59  1  0
 67 57  1  0
 69 71  2  0
 70 69  1  0
 72 70  1  0
 73 82  2  0
 73 78  1  0
 74 70  1  0
 74 78  1  0
 75 74  1  0
 76 77  1  0
 76 75  1  0
 77 73  1  0
 78 79  2  0
 79 80  1  0
 81 80  2  0
 82 81  1  0
 83 57  1  0
 83 84  1  0
 83 93  1  0
 84 87  1  0
 85 89  1  0
 85 84  1  0
 86 85  2  0
 89 88  1  0
 91 89  1  0
 91 92  1  0
 91 90  1  0
 93 96  1  1
 93 94  1  0
 95 93  1  0
M  ISO  4  12 100  13 100  55 101  56 101
M  END
>  <TORSDO>  (57) 
F 21

>  <SCORE>  (57) 
-9.446

>  <name>  (57) 
61

>  <ligand_id>  (57) 
61

>  <original_smiles>  (57) 
[H]c1c(C([H])([H])[H])nc(N(C([H])([H])[H])C([H])(C(=O)N2C([H])([H])C([H])([H])C([H])([H])C([H])(n3nc(-c4c([H])c([H])c(Oc5c([H])c([H])c(F)c([H])c5F)c([H])c4[H])c(C(=O)N([H])[H])c3N([H])[H])C2([H])[H])C([H])([H])[H])nc1C([H])([H])C(C([H])([H])[H])(C([H])([H])[H])C(C([H])([H])[H])(C([H])([H])[H])C([H])([H])Oc1c([H])c([H])c2c(c1[H])C([H])([H])N(C(=O)C([H])(N([H])C(=O)C([H])(N([H])C([H])([H])[H])C([H])([H])[H])C(C([H])([H])[H])(C([H])([H])[H])C([H])([H])[H])C([H])(C(=O)N([H])C1([H])c3c([H])c([H])c([H])c([H])c3C([H])([H])C([H])([H])C1([H])[H])C2([H])[H]

>  <smiles>  (57) 
[H]c1c(C([H])([H])[H])nc(N(C([H])([H])[H])C([H])(C(=O)N2C([H])([H])C([H])([H])C([H])([H])C([H])(n3nc(-c4c([H])c([H])c(Oc5c([H])c([H])c(F)c([H])c5F)c([H])c4[H])c(C(=O)N([H])[H])c3N([H])[H])C2([H])[H])C([H])([H])[H])nc1C([H])([H])C(C([H])([H])[H])(C([H])([H])[H])C(C([H])([H])[H])(C([H])([H])[H])C([H])([H])Oc1c([H])c([H])c2c(c1[H])C([H])([H])N(C(=O)C([H])(N([H])C(=O)C([H])(N([H])C([H])([H])[H])C([H])([H])[H])C(C([H])([H])[H])(C([H])([H])[H])C([H])([H])[H])C([H])(C(=O)N([H])C1([H])c3c([H])c([H])c([H])c([H])c3C([H])([H])C([H])([H])C1([H])[H])C2([H])[H]

$$$$
62:0:0
     RDKit          3D

 96104  0  0  1  0  0  0  0  0999 V2000
  -29.4770  -19.3820   21.5840 C   0  0  0  0  0  3  0  0  0  0  0  0
  -29.6700  -18.8120   20.2960 C   0  0  0  0  0  0  0  0  0  0  0  0
  -29.1740  -21.4280   20.6100 C   0  0  0  0  0  0  0  0  0  0  0  0
  -29.2180  -20.7040   21.7340 N   0  0  0  0  0  0  0  0  0  0  0  0
  -29.8060  -19.6750   19.2440 N   0  0  0  0  0  0  0  0  0  0  0  0
  -29.5240  -20.9810   19.3930 N   0  0  0  0  0  0  0  0  0  0  0  0
  -28.6070  -17.2480   18.7620 C   0  0  0  0  0  1  0  0  0  0  0  0
  -28.7900  -16.6180   21.1500 C   0  0  0  0  0  1  0  0  0  0  0  0
  -29.5730  -17.2660   19.9870 C   0  0  2  0  0  0  0  0  0  0  0  0
  -32.0810  -17.4150   20.3970 C   0  0  0  0  0  1  0  0  0  0  0  0
  -31.3320  -16.6140   18.2060 C   0  0  0  0  0  1  0  0  0  0  0  0
  -30.9990  -16.5040   19.7170 C   0  0  2  0  0  0  0  0  0  0  0  0
  -31.4130  -14.9610   20.0930 C   0  0  0  0  0  0  0  0  0  0  0  0
  -31.0740  -12.6960   19.1530 C   0  0  0  0  0  2  0  0  0  0  0  0
  -30.1160  -12.7160   17.9510 C   0  0  0  0  0  2  0  0  0  0  0  0
  -28.6570  -12.5740   18.4200 C   0  0  0  0  0  2  0  0  0  0  0  0
  -28.3150  -13.5020   19.6100 C   0  0  0  0  0  3  0  0  0  0  0  0
  -29.4020  -13.4420   20.6990 C   0  0  0  0  0  2  0  0  0  0  0  0
  -30.6670  -13.8010   20.0500 N   0  0  0  0  0  0  0  0  0  0  0  0
  -32.6300  -14.7780   20.0480 O   0  0  0  0  0  0  0  0  0  0  0  0
  -25.9540  -14.2020   20.3690 C   0  0  0  0  0  0  0  0  0  0  0  0
  -24.8580  -13.4760   20.7230 C   0  0  0  0  0  0  0  0  0  0  0  0
  -25.2710  -12.1100   20.6780 C   0  0  0  0  0  0  0  0  0  0  0  0
  -26.9670  -13.2880   20.1190 N   0  0  0  0  0  0  0  0  0  0  0  0
  -26.5580  -12.0210   20.3670 N   0  0  0  0  0  0  0  0  0  0  0  0
  -24.5030  -10.8790   20.8560 C   0  0  0  0  0  0  0  0  0  0  0  0
  -24.8620   -9.9260   21.8330 C   0  0  0  0  0  3  0  0  0  0  0  0
  -24.0960   -8.7550   21.9990 C   0  0  0  0  0  3  0  0  0  0  0  0
  -22.9610   -8.5290   21.1850 C   0  0  0  0  0  0  0  0  0  0  0  0
  -22.6240   -9.4720   20.1970 C   0  0  0  0  0  3  0  0  0  0  0  0
  -23.3900  -10.6340   20.0290 C   0  0  0  0  0  3  0  0  0  0  0  0
  -22.1780   -7.4040   21.2530 O   0  0  0  0  0  0  0  0  0  0  0  0
  -21.9720   -6.7480   22.4400 C   0  0  0  0  0  0  0  0  0  0  0  0
  -21.3990   -7.3960   23.5550 C   0  0  0  0  0  3  0  0  0  0  0  0
  -21.1440   -6.6680   24.7350 C   0  0  0  0  0  3  0  0  0  0  0  0
  -21.4530   -5.2970   24.7990 C   0  0  0  0  0  0  0  0  0  0  0  0
  -22.0170   -4.6490   23.6880 C   0  0  0  0  0  3  0  0  0  0  0  0
  -22.2750   -5.3740   22.5070 C   0  0  0  0  0  0  0  0  0  0  0  0
  -22.8030   -4.7460   21.4310 F   0  0  0  0  0  0  0  0  0  0  0  0
  -21.1960   -4.5940   25.9270 F   0  0  0  0  0  0  0  0  0  0  0  0
  -23.4800  -14.0090   21.0000 C   0  0  0  0  0  0  0  0  0  0  0  0
  -22.7330  -13.3490   21.8770 N   0  0  0  0  0  0  0  0  0  0  0  0
  -23.0740  -15.0450   20.4700 O   0  0  0  0  0  0  0  0  0  0  0  0
  -23.0650  -12.5100   22.3300 H   0  0  0  0  0  0  0  0  0  0  0  0
  -21.8060  -13.6820   22.1040 H   0  0  0  0  0  0  0  0  0  0  0  0
  -26.1380  -15.5700   20.2240 N   0  0  0  0  0  0  0  0  0  0  0  0
  -25.3860  -16.2190   20.4170 H   0  0  0  0  0  0  0  0  0  0  0  0
  -27.0070  -16.0200   19.9760 H   0  0  0  0  0  0  0  0  0  0  0  0
  -28.4130  -22.7510   20.6710 C   0  0  0  0  0  2  0  0  0  0  0  0
  -29.1930  -24.0830   20.4760 C   0  0  0  0  0  2  0  0  0  0  0  0
  -27.4850  -25.2730   22.0020 C   0  0  0  0  0  1  0  0  0  0  0  0
  -29.8090  -24.8310   22.8060 C   0  0  0  0  0  1  0  0  0  0  0  0
  -28.9710  -25.1940   21.5640 C   0  0  1  0  0  0  0  0  0  0  0  0
  -30.8670  -26.7620   20.6670 C   0  0  0  0  0  1  0  0  0  0  0  0
  -29.3730  -26.6210   21.0380 C   0  0  0  0  0  3  0  0  0  0  0  0
  -28.5820  -26.9580   19.8940 O   0  0  0  0  0  0  0  0  0  0  0  0
  -24.5940  -31.9400   23.2330 C   0  0  0  0  0  0  0  0  0  0  0  0
  -27.4050  -27.6680   20.0410 C   0  0  0  0  0  0  0  0  0  0  0  0
  -23.4310  -30.5550   21.5440 C   0  0  0  0  0  3  0  0  0  0  0  0
  -24.9440  -29.0780   20.1050 C   0  0  0  0  0  0  0  0  0  0  0  0
  -25.9510  -30.9680   21.3910 C   0  0  0  0  0  2  0  0  0  0  0  0
  -26.0780  -29.6130   20.7280 C   0  0  0  0  0  0  0  0  0  0  0  0
  -27.3070  -28.9120   20.7080 C   0  0  0  0  0  3  0  0  0  0  0  0
  -26.2540  -27.1470   19.4110 C   0  0  0  0  0  3  0  0  0  0  0  0
  -25.0230  -27.8350   19.4500 C   0  0  0  0  0  3  0  0  0  0  0  0
  -23.6730  -29.8990   20.1600 C   0  0  0  0  0  2  0  0  0  0  0  0
  -24.6740  -31.1720   22.1120 N   0  0  0  0  0  0  0  0  0  0  0  0
  -23.5040  -32.1790   23.7710 O   0  0  0  0  0  0  0  0  0  0  0  0
  -22.7920  -29.5030   22.4770 C   0  0  0  0  0  0  0  0  0  0  0  0
  -21.4690  -29.3190   22.3450 N   0  0  0  0  0  0  0  0  0  0  0  0
  -23.4860  -28.8570   23.2670 O   0  0  0  0  0  0  0  0  0  0  0  0
  -20.9710  -29.8960   21.6800 H   0  0  0  0  0  0  0  0  0  0  0  0
  -18.1010  -28.1140   22.8390 C   0  0  0  0  0  0  0  0  0  0  0  0
  -20.6640  -28.3440   23.0810 C   0  0  0  0  0  3  0  0  0  0  0  0
  -20.7510  -26.9430   22.4320 C   0  0  0  0  0  2  0  0  0  0  0  0
  -19.6270  -26.6720   21.4260 C   0  0  0  0  0  2  0  0  0  0  0  0
  -18.2590  -26.7920   22.1050 C   0  0  0  0  0  2  0  0  0  0  0  0
  -19.2330  -28.8470   23.2880 C   0  0  0  0  0  0  0  0  0  0  0  0
  -19.0340  -30.0840   23.9360 C   0  0  0  0  0  3  0  0  0  0  0  0
  -17.7380  -30.5890   24.1440 C   0  0  0  0  0  3  0  0  0  0  0  0
  -16.6200  -29.8510   23.7160 C   0  0  0  0  0  3  0  0  0  0  0  0
  -16.8020  -28.6170   23.0660 C   0  0  0  0  0  3  0  0  0  0  0  0
  -25.8660  -32.5780   23.8780 C   0  0  0  0  0  3  0  0  0  0  0  0
  -25.5420  -33.9750   24.1910 N   0  0  0  0  0  0  0  0  0  0  0  0
  -25.8990  -35.0250   23.4390 C   0  0  0  0  0  0  0  0  0  0  0  0
  -26.5990  -34.9220   22.4280 O   0  0  0  0  0  0  0  0  0  0  0  0
  -24.9230  -34.1280   24.9730 H   0  0  0  0  0  0  0  0  0  0  0  0
  -24.1800  -36.8110   23.0200 C   0  0  0  0  0  1  0  0  0  0  0  0
  -25.3920  -36.4110   23.8780 C   0  0  0  0  0  3  0  0  0  0  0  0
  -27.4880  -37.3090   24.7860 C   0  0  0  0  0  1  0  0  0  0  0  0
  -26.4230  -37.4670   23.7990 N   0  0  0  0  0  0  0  0  0  0  0  0
  -26.0070  -38.3870   23.9200 H   0  0  0  0  0  0  0  0  0  0  0  0
  -26.3580  -31.8100   25.1670 C   0  0  1  0  0  0  0  0  0  0  0  0
  -25.2370  -31.5540   26.2000 C   0  0  0  0  0  1  0  0  0  0  0  0
  -26.9770  -30.4440   24.7890 C   0  0  0  0  0  1  0  0  0  0  0  0
  -27.4730  -32.6240   25.8670 C   0  0  0  0  0  1  0  0  0  0  0  0
  1  4  1  0
  2  1  2  0
  3 49  1  0
  3  4  2  0
  5  6  2  0
  5  2  1  0
  6  3  1  0
  9  7  1  6
  9  2  1  0
  9  8  1  0
 12 11  1  6
 12  9  1  0
 12 13  1  0
 12 10  1  0
 14 19  1  0
 15 16  1  0
 15 14  1  0
 17 16  1  0
 17 24  1  0
 17 18  1  0
 19 13  1  0
 19 18  1  0
 20 13  2  0
 21 22  2  0
 22 41  1  0
 23 22  1  0
 23 26  1  0
 24 25  1  0
 24 21  1  0
 25 23  2  0
 26 27  1  0
 27 28  2  0
 29 32  1  0
 29 28  1  0
 30 29  2  0
 31 30  1  0
 31 26  2  0
 32 33  1  0
 33 38  2  0
 33 34  1  0
 34 35  2  0
 35 36  1  0
 36 40  1  0
 37 36  2  0
 38 37  1  0
 39 38  1  0
 41 42  1  0
 42 45  1  0
 42 44  1  0
 43 41  2  0
 46 21  1  0
 46 47  1  0
 48 46  1  0
 50 49  1  0
 50 53  1  0
 53 51  1  1
 53 52  1  0
 55 54  1  0
 55 53  1  0
 56 58  1  0
 56 55  1  0
 57 68  2  0
 58 63  1  0
 59 67  1  0
 59 69  1  0
 60 66  1  0
 60 62  1  0
 61 67  1  0
 62 61  1  0
 63 62  2  0
 64 65  1  0
 64 58  2  0
 65 60  2  0
 66 59  1  0
 67 57  1  0
 69 71  2  0
 70 69  1  0
 72 70  1  0
 73 82  2  0
 73 78  1  0
 74 70  1  0
 74 78  1  0
 75 74  1  0
 76 77  1  0
 76 75  1  0
 77 73  1  0
 78 79  2  0
 79 80  1  0
 81 80  2  0
 82 81  1  0
 83 57  1  0
 83 84  1  0
 83 93  1  0
 84 87  1  0
 85 89  1  0
 85 84  1  0
 86 85  2  0
 89 88  1  0
 91 89  1  0
 91 92  1  0
 91 90  1  0
 93 96  1  1
 93 94  1  0
 95 93  1  0
M  ISO  4  12 100  13 100  55 101  56 101
M  END
>  <TORSDO>  (58) 
F 22

>  <SCORE>  (58) 
-12.128

>  <name>  (58) 
62

>  <ligand_id>  (58) 
62

>  <original_smiles>  (58) 
[H]c1nc(C([H])([H])C([H])([H])C(C([H])([H])[H])(C([H])([H])[H])C([H])(Oc2c([H])c([H])c3c(c2[H])C([H])([H])N(C(=O)C([H])(N([H])C(=O)C([H])(N([H])C([H])([H])[H])C([H])([H])[H])C(C([H])([H])[H])(C([H])([H])[H])C([H])([H])[H])C([H])(C(=O)N([H])C2([H])c4c([H])c([H])c([H])c([H])c4C([H])([H])C([H])([H])C2([H])[H])C3([H])[H])C([H])([H])[H])nnc1C(C([H])([H])[H])(C([H])([H])[H])C(C(=O)N1C([H])([H])C([H])([H])C([H])([H])C([H])(n2nc(-c3c([H])c([H])c(Oc4c([H])c([H])c(F)c([H])c4F)c([H])c3[H])c(C(=O)N([H])[H])c2N([H])[H])C1([H])[H])(C([H])([H])[H])C([H])([H])[H]

>  <smiles>  (58) 
[H]c1nc(C([H])([H])C([H])([H])C(C([H])([H])[H])(C([H])([H])[H])C([H])(Oc2c([H])c([H])c3c(c2[H])C([H])([H])N(C(=O)C([H])(N([H])C(=O)C([H])(N([H])C([H])([H])[H])C([H])([H])[H])C(C([H])([H])[H])(C([H])([H])[H])C([H])([H])[H])C([H])(C(=O)N([H])C2([H])c4c([H])c([H])c([H])c([H])c4C([H])([H])C([H])([H])C2([H])[H])C3([H])[H])C([H])([H])[H])nnc1C(C([H])([H])[H])(C([H])([H])[H])C(C(=O)N1C([H])([H])C([H])([H])C([H])([H])C([H])(n2nc(-c3c([H])c([H])c(Oc4c([H])c([H])c(F)c([H])c4F)c([H])c3[H])c(C(=O)N([H])[H])c2N([H])[H])C1([H])[H])(C([H])([H])[H])C([H])([H])[H]

$$$$
63:0:0
     RDKit          3D

 92100  0  0  1  0  0  0  0  0999 V2000
  -30.8480  -20.3850   21.2090 C   0  0  0  0  0  3  0  0  0  0  0  0
  -29.0430  -19.2190   20.9220 C   0  0  0  0  0  3  0  0  0  0  0  0
  -29.7480  -21.1670   21.4730 C   0  0  0  0  0  0  0  0  0  0  0  0
  -28.5910  -20.4140   21.2900 N   0  0  0  0  0  0  0  0  0  0  0  0
  -30.3820  -19.1220   20.8410 N   0  0  0  0  0  0  0  0  0  0  0  0
  -30.5440  -17.5480   19.0090 C   0  0  0  0  0  1  0  0  0  0  0  0
  -32.6280  -18.3620   20.1130 C   0  0  0  0  0  1  0  0  0  0  0  0
  -31.1560  -17.9620   20.3680 C   0  0  1  0  0  0  0  0  0  0  0  0
  -31.1390  -16.8290   21.4510 C   0  0  0  0  0  2  0  0  0  0  0  0
  -31.1460  -14.6470   20.1840 C   0  0  0  0  0  0  0  0  0  0  0  0
  -30.7390  -12.5360   18.9640 C   0  0  0  0  0  2  0  0  0  0  0  0
  -29.7590  -12.7650   17.7990 C   0  0  0  0  0  2  0  0  0  0  0  0
  -28.3020  -12.6380   18.2830 C   0  0  0  0  0  2  0  0  0  0  0  0
  -28.0220  -13.4970   19.5430 C   0  0  0  0  0  3  0  0  0  0  0  0
  -29.1020  -13.2360   20.6160 C   0  0  0  0  0  2  0  0  0  0  0  0
  -30.4220  -13.5110   20.0170 N   0  0  0  0  0  0  0  0  0  0  0  0
  -32.2030  -14.8720   19.5860 O   0  0  0  0  0  0  0  0  0  0  0  0
  -30.6000  -15.5360   21.0230 N   0  0  0  0  0  0  0  0  0  0  0  0
  -29.7290  -15.2530   21.4450 H   0  0  0  0  0  0  0  0  0  0  0  0
  -25.6780  -14.1690   20.3760 C   0  0  0  0  0  0  0  0  0  0  0  0
  -24.5950  -13.4220   20.7520 C   0  0  0  0  0  0  0  0  0  0  0  0
  -24.9990  -12.0560   20.6410 C   0  0  0  0  0  0  0  0  0  0  0  0
  -26.6770  -13.2590   20.0630 N   0  0  0  0  0  0  0  0  0  0  0  0
  -26.2730  -11.9810   20.2770 N   0  0  0  0  0  0  0  0  0  0  0  0
  -24.2330  -10.8140   20.8000 C   0  0  0  0  0  0  0  0  0  0  0  0
  -24.6260   -9.8140   21.7170 C   0  0  0  0  0  3  0  0  0  0  0  0
  -23.8620   -8.6370   21.8650 C   0  0  0  0  0  3  0  0  0  0  0  0
  -22.6890   -8.4510   21.0960 C   0  0  0  0  0  0  0  0  0  0  0  0
  -22.3140   -9.4400   20.1690 C   0  0  0  0  0  3  0  0  0  0  0  0
  -23.0790  -10.6070   20.0180 C   0  0  0  0  0  3  0  0  0  0  0  0
  -21.8980   -7.3290   21.1560 O   0  0  0  0  0  0  0  0  0  0  0  0
  -21.7650   -6.6020   22.3120 C   0  0  0  0  0  0  0  0  0  0  0  0
  -21.2690   -7.1780   23.5030 C   0  0  0  0  0  3  0  0  0  0  0  0
  -21.0840   -6.3770   24.6470 C   0  0  0  0  0  3  0  0  0  0  0  0
  -21.3860   -5.0030   24.6020 C   0  0  0  0  0  0  0  0  0  0  0  0
  -21.8760   -4.4280   23.4160 C   0  0  0  0  0  3  0  0  0  0  0  0
  -22.0620   -5.2250   22.2740 C   0  0  0  0  0  0  0  0  0  0  0  0
  -22.5150   -4.6620   21.1270 F   0  0  0  0  0  0  0  0  0  0  0  0
  -21.2000   -4.2320   25.6990 F   0  0  0  0  0  0  0  0  0  0  0  0
  -23.2290  -13.9380   21.1050 C   0  0  0  0  0  0  0  0  0  0  0  0
  -22.5120  -13.2340   21.9730 N   0  0  0  0  0  0  0  0  0  0  0  0
  -22.8080  -14.9980   20.6440 O   0  0  0  0  0  0  0  0  0  0  0  0
  -22.8640  -12.3730   22.3660 H   0  0  0  0  0  0  0  0  0  0  0  0
  -21.5970  -13.5620   22.2510 H   0  0  0  0  0  0  0  0  0  0  0  0
  -25.8950  -15.5390   20.2510 N   0  0  0  0  0  0  0  0  0  0  0  0
  -25.1640  -16.2230   20.4110 H   0  0  0  0  0  0  0  0  0  0  0  0
  -26.7520  -15.9490   19.9020 H   0  0  0  0  0  0  0  0  0  0  0  0
  -29.6980  -22.6270   21.8080 C   0  0  0  0  0  2  0  0  0  0  0  0
  -29.4670  -23.4720   20.5470 C   0  0  0  0  0  2  0  0  0  0  0  0
  -29.3110  -24.9780   20.8080 C   0  0  0  0  0  2  0  0  0  0  0  0
  -28.8780  -25.7060   19.5320 C   0  0  0  0  0  2  0  0  0  0  0  0
  -28.7490  -27.1050   19.7900 O   0  0  0  0  0  0  0  0  0  0  0  0
  -24.5700  -31.7520   23.1300 C   0  0  0  0  0  0  0  0  0  0  0  0
  -27.5010  -27.6890   19.8120 C   0  0  0  0  0  0  0  0  0  0  0  0
  -23.4570  -30.3750   21.4020 C   0  0  0  0  0  3  0  0  0  0  0  0
  -25.0070  -29.0220   19.9000 C   0  0  0  0  0  0  0  0  0  0  0  0
  -25.9540  -30.9070   21.2420 C   0  0  0  0  0  2  0  0  0  0  0  0
  -26.1250  -29.5860   20.5240 C   0  0  0  0  0  0  0  0  0  0  0  0
  -27.3690  -28.9260   20.4790 C   0  0  0  0  0  3  0  0  0  0  0  0
  -26.3630  -27.1420   19.1710 C   0  0  0  0  0  3  0  0  0  0  0  0
  -25.1200  -27.7980   19.2220 C   0  0  0  0  0  3  0  0  0  0  0  0
  -23.7130  -29.7940   19.9850 C   0  0  0  0  0  2  0  0  0  0  0  0
  -24.6770  -31.0240   21.9820 N   0  0  0  0  0  0  0  0  0  0  0  0
  -23.4740  -31.9190   23.6830 O   0  0  0  0  0  0  0  0  0  0  0  0
  -22.8780  -29.2570   22.2970 C   0  0  0  0  0  0  0  0  0  0  0  0
  -21.5650  -29.0080   22.1670 N   0  0  0  0  0  0  0  0  0  0  0  0
  -23.6040  -28.6180   23.0630 O   0  0  0  0  0  0  0  0  0  0  0  0
  -21.0380  -29.5810   21.5230 H   0  0  0  0  0  0  0  0  0  0  0  0
  -18.2590  -27.6290   22.6350 C   0  0  0  0  0  0  0  0  0  0  0  0
  -20.8080  -27.9790   22.8780 C   0  0  0  0  0  3  0  0  0  0  0  0
  -20.9600  -26.6010   22.1940 C   0  0  0  0  0  2  0  0  0  0  0  0
  -19.8520  -26.3060   21.1790 C   0  0  0  0  0  2  0  0  0  0  0  0
  -18.4790  -26.3420   21.8570 C   0  0  0  0  0  2  0  0  0  0  0  0
  -19.3530  -28.4050   23.1000 C   0  0  0  0  0  0  0  0  0  0  0  0
  -19.0950  -29.6120   23.7870 C   0  0  0  0  0  3  0  0  0  0  0  0
  -17.7750  -30.0430   24.0140 C   0  0  0  0  0  3  0  0  0  0  0  0
  -16.6950  -29.2630   23.5660 C   0  0  0  0  0  3  0  0  0  0  0  0
  -16.9380  -28.0580   22.8820 C   0  0  0  0  0  3  0  0  0  0  0  0
  -25.8150  -32.4270   23.7890 C   0  0  0  0  0  3  0  0  0  0  0  0
  -25.4400  -33.8050   24.1270 N   0  0  0  0  0  0  0  0  0  0  0  0
  -25.7460  -34.8790   23.3870 C   0  0  0  0  0  0  0  0  0  0  0  0
  -26.4470  -34.8170   22.3740 O   0  0  0  0  0  0  0  0  0  0  0  0
  -24.8200  -33.9240   24.9140 H   0  0  0  0  0  0  0  0  0  0  0  0
  -23.9500  -36.5970   23.0080 C   0  0  0  0  0  1  0  0  0  0  0  0
  -25.1870  -36.2390   23.8470 C   0  0  0  0  0  3  0  0  0  0  0  0
  -27.2550  -37.2100   24.7460 C   0  0  0  0  0  1  0  0  0  0  0  0
  -26.1740  -37.3390   23.7710 N   0  0  0  0  0  0  0  0  0  0  0  0
  -25.7220  -38.2380   23.9160 H   0  0  0  0  0  0  0  0  0  0  0  0
  -26.3350  -31.6600   25.0660 C   0  0  1  0  0  0  0  0  0  0  0  0
  -25.2300  -31.3560   26.1030 C   0  0  0  0  0  1  0  0  0  0  0  0
  -26.9890  -30.3160   24.6650 C   0  0  0  0  0  1  0  0  0  0  0  0
  -27.4310  -32.4930   25.7680 C   0  0  0  0  0  1  0  0  0  0  0  0
  1  3  2  0
  2  4  2  0
  3 48  1  0
  4  3  1  0
  5  2  1  0
  5  1  1  0
  8  6  1  6
  7  8  1  0
  8  5  1  0
  8  9  1  0
 10 18  1  0
 11 16  1  0
 12 13  1  0
 12 11  1  0
 14 13  1  0
 14 23  1  0
 14 15  1  0
 16 10  1  0
 16 15  1  0
 17 10  2  0
 18 19  1  0
 18  9  1  0
 20 21  2  0
 21 40  1  0
 22 21  1  0
 22 25  1  0
 23 24  1  0
 23 20  1  0
 24 22  2  0
 25 26  1  0
 26 27  2  0
 28 31  1  0
 28 27  1  0
 29 28  2  0
 30 29  1  0
 30 25  2  0
 31 32  1  0
 32 33  1  0
 33 34  2  0
 35 34  1  0
 35 39  1  0
 36 35  2  0
 37 32  2  0
 37 36  1  0
 38 37  1  0
 40 41  1  0
 41 44  1  0
 41 43  1  0
 42 40  2  0
 45 20  1  0
 45 46  1  0
 47 45  1  0
 49 50  1  0
 49 48  1  0
 51 52  1  0
 51 50  1  0
 52 54  1  0
 53 64  2  0
 54 59  1  0
 55 63  1  0
 55 65  1  0
 56 62  1  0
 56 58  1  0
 57 63  1  0
 58 57  1  0
 59 58  2  0
 60 61  1  0
 60 54  2  0
 61 56  2  0
 62 55  1  0
 63 53  1  0
 65 67  2  0
 66 65  1  0
 68 66  1  0
 69 78  2  0
 69 74  1  0
 70 66  1  0
 70 74  1  0
 71 70  1  0
 72 73  1  0
 72 71  1  0
 73 69  1  0
 74 75  2  0
 75 76  1  0
 77 76  2  0
 78 77  1  0
 79 53  1  0
 79 80  1  0
 79 89  1  0
 80 83  1  0
 81 85  1  0
 81 80  1  0
 82 81  2  0
 85 84  1  0
 87 85  1  0
 87 88  1  0
 87 86  1  0
 89 92  1  1
 89 90  1  0
 91 89  1  0
M  ISO  4  10 100  18 100  51 101  52 101
M  END
>  <TORSDO>  (59) 
F 22

>  <SCORE>  (59) 
-12.309

>  <name>  (59) 
63

>  <ligand_id>  (59) 
63

>  <original_smiles>  (59) 
[H]c1c([H])c([H])c2c(c1[H])C([H])([H])C([H])([H])C([H])([H])C2([H])N([H])C(=O)C1([H])N(C(=O)C([H])(N([H])C(=O)C([H])(N([H])C([H])([H])[H])C([H])([H])[H])C(C([H])([H])[H])(C([H])([H])[H])C([H])([H])[H])C([H])([H])c2c([H])c(OC([H])([H])C([H])([H])C([H])([H])C([H])([H])c3nc([H])n(C(C([H])([H])[H])(C([H])([H])[H])C([H])([H])N([H])C(=O)N4C([H])([H])C([H])([H])C([H])([H])C([H])(n5nc(-c6c([H])c([H])c(Oc7c([H])c([H])c(F)c([H])c7F)c([H])c6[H])c(C(=O)N([H])[H])c5N([H])[H])C4([H])[H])c3[H])c([H])c([H])c2C1([H])[H]

>  <smiles>  (59) 
[H]c1c([H])c([H])c2c(c1[H])C([H])([H])C([H])([H])C([H])([H])C2([H])N([H])C(=O)C1([H])N(C(=O)C([H])(N([H])C(=O)C([H])(N([H])C([H])([H])[H])C([H])([H])[H])C(C([H])([H])[H])(C([H])([H])[H])C([H])([H])[H])C([H])([H])c2c([H])c(OC([H])([H])C([H])([H])C([H])([H])C([H])([H])c3nc([H])n(C(C([H])([H])[H])(C([H])([H])[H])C([H])([H])N([H])C(=O)N4C([H])([H])C([H])([H])C([H])([H])C([H])(n5nc(-c6c([H])c([H])c(Oc7c([H])c([H])c(F)c([H])c7F)c([H])c6[H])c(C(=O)N([H])[H])c5N([H])[H])C4([H])[H])c3[H])c([H])c([H])c2C1([H])[H]

$$$$
64:0:0
     RDKit          3D

100108  0  0  1  0  0  0  0  0999 V2000
  -30.3300  -19.0650   21.7350 C   0  0  0  0  0  3  0  0  0  0  0  0
  -29.7030  -20.0770   21.0040 C   0  0  0  0  0  0  0  0  0  0  0  0
  -30.7950  -17.9410   21.0280 C   0  0  0  0  0  0  0  0  0  0  0  0
  -30.1150  -18.9320   19.0770 C   0  0  0  0  0  0  0  0  0  0  0  0
  -30.0190  -18.8810   17.5740 C   0  0  0  0  0  1  0  0  0  0  0  0
  -29.5660  -19.9830   19.6710 N   0  0  0  0  0  0  0  0  0  0  0  0
  -30.7190  -17.9180   19.6810 N   0  0  0  0  0  0  0  0  0  0  0  0
  -30.2180  -15.8460   22.2790 C   0  0  0  0  0  1  0  0  0  0  0  0
  -32.0850  -17.1640   23.0460 C   0  0  0  0  0  1  0  0  0  0  0  0
  -31.3810  -16.7020   21.7410 C   0  0  2  0  0  0  0  0  0  0  0  0
  -32.5010  -15.9670   20.8980 C   0  0  0  0  0  2  0  0  0  0  0  0
  -32.9070  -13.5780   20.7380 C   0  0  0  0  0  0  0  0  0  0  0  0
  -32.5910  -11.1430   21.0010 C   0  0  0  0  0  2  0  0  0  0  0  0
  -31.8360  -10.5660   19.7870 C   0  0  0  0  0  2  0  0  0  0  0  0
  -30.3070  -10.6800   19.9740 C   0  0  0  0  0  2  0  0  0  0  0  0
  -29.8680  -12.0920   20.4440 C   0  0  0  0  0  3  0  0  0  0  0  0
  -30.7490  -12.5630   21.6090 C   0  0  0  0  0  2  0  0  0  0  0  0
  -32.1430  -12.5370   21.1650 N   0  0  0  0  0  0  0  0  0  0  0  0
  -34.1310  -13.4400   20.5950 O   0  0  0  0  0  0  0  0  0  0  0  0
  -32.2980  -14.6680   20.1620 N   0  0  0  0  0  0  0  0  0  0  0  0
  -27.5950  -13.2470   20.8240 C   0  0  0  0  0  0  0  0  0  0  0  0
  -26.3440  -12.7450   21.0510 C   0  0  0  0  0  0  0  0  0  0  0  0
  -26.4950  -11.3270   21.0890 C   0  0  0  0  0  0  0  0  0  0  0  0
  -28.4430  -12.1500   20.7520 N   0  0  0  0  0  0  0  0  0  0  0  0
  -27.7710  -10.9910   20.9550 N   0  0  0  0  0  0  0  0  0  0  0  0
  -25.4880  -10.2640   21.1840 C   0  0  0  0  0  0  0  0  0  0  0  0
  -25.6180   -9.2070   22.1110 C   0  0  0  0  0  3  0  0  0  0  0  0
  -24.6250   -8.2080   22.1960 C   0  0  0  0  0  3  0  0  0  0  0  0
  -23.4900   -8.2620   21.3520 C   0  0  0  0  0  0  0  0  0  0  0  0
  -23.3780   -9.3030   20.4150 C   0  0  0  0  0  3  0  0  0  0  0  0
  -24.3710  -10.2950   20.3270 C   0  0  0  0  0  3  0  0  0  0  0  0
  -22.4920   -7.3170   21.3470 O   0  0  0  0  0  0  0  0  0  0  0  0
  -22.1370   -6.6400   22.4850 C   0  0  0  0  0  0  0  0  0  0  0  0
  -21.7480   -7.3150   23.6650 C   0  0  0  0  0  3  0  0  0  0  0  0
  -21.3230   -6.5770   24.7880 C   0  0  0  0  0  3  0  0  0  0  0  0
  -21.2800   -5.1710   24.7330 C   0  0  0  0  0  0  0  0  0  0  0  0
  -21.6690   -4.5000   23.5610 C   0  0  0  0  0  3  0  0  0  0  0  0
  -22.0930   -5.2340   22.4410 C   0  0  0  0  0  0  0  0  0  0  0  0
  -22.4420   -4.5820   21.3040 F   0  0  0  0  0  0  0  0  0  0  0  0
  -20.8690   -4.4620   25.8100 F   0  0  0  0  0  0  0  0  0  0  0  0
  -25.0730  -13.5350   21.1520 C   0  0  0  0  0  0  0  0  0  0  0  0
  -24.1090  -13.0540   21.9330 N   0  0  0  0  0  0  0  0  0  0  0  0
  -24.9460  -14.6160   20.5820 O   0  0  0  0  0  0  0  0  0  0  0  0
  -24.2190  -12.1740   22.4130 H   0  0  0  0  0  0  0  0  0  0  0  0
  -23.2520  -13.5750   22.0470 H   0  0  0  0  0  0  0  0  0  0  0  0
  -28.0530  -14.5450   20.6670 N   0  0  0  0  0  0  0  0  0  0  0  0
  -27.3690  -15.2930   20.6490 H   0  0  0  0  0  0  0  0  0  0  0  0
  -28.9260  -14.8320   21.0930 H   0  0  0  0  0  0  0  0  0  0  0  0
  -32.7780  -14.7960   18.7340 C   0  0  0  0  0  2  0  0  0  0  0  0
  -31.9810  -16.8300   17.3950 C   0  0  0  0  0  1  0  0  0  0  0  0
  -32.1960  -14.6280   16.2800 C   0  0  0  0  0  1  0  0  0  0  0  0
  -30.3820  -14.9760   17.9060 C   0  0  0  0  0  1  0  0  0  0  0  0
  -31.8330  -15.3170   17.6140 C   0  0  1  0  0  0  0  0  0  0  0  0
  -29.0220  -21.2410   21.7160 C   0  0  0  0  0  2  0  0  0  0  0  0
  -28.9180  -22.5470   20.9110 C   0  0  0  0  0  2  0  0  0  0  0  0
  -30.2560  -23.1550   20.4480 C   0  0  0  0  0  2  0  0  0  0  0  0
  -30.8220  -24.2300   21.3990 C   0  0  0  0  0  2  0  0  0  0  0  0
  -31.3330  -25.4590   20.6280 C   0  0  0  0  0  2  0  0  0  0  0  0
  -31.3310  -26.7500   21.4560 C   0  0  0  0  0  2  0  0  0  0  0  0
  -30.9440  -27.8300   20.6140 O   0  0  0  0  0  0  0  0  0  0  0  0
  -25.7420  -30.9380   24.3440 C   0  0  0  0  0  0  0  0  0  0  0  0
  -29.6150  -28.1620   20.6980 C   0  0  0  0  0  0  0  0  0  0  0  0
  -25.0240  -29.6160   22.3790 C   0  0  0  0  0  3  0  0  0  0  0  0
  -26.8880  -28.8580   20.8100 C   0  0  0  0  0  0  0  0  0  0  0  0
  -27.3320  -30.7040   22.4430 C   0  0  0  0  0  2  0  0  0  0  0  0
  -27.8230  -29.5660   21.5750 C   0  0  0  0  0  0  0  0  0  0  0  0
  -29.1890  -29.2180   21.5280 C   0  0  0  0  0  3  0  0  0  0  0  0
  -28.6720  -27.4590   19.9240 C   0  0  0  0  0  3  0  0  0  0  0  0
  -27.3040  -27.7950   19.9880 C   0  0  0  0  0  3  0  0  0  0  0  0
  -25.4470  -29.3080   20.9170 C   0  0  0  0  0  2  0  0  0  0  0  0
  -26.0440  -30.4250   23.1210 N   0  0  0  0  0  0  0  0  0  0  0  0
  -24.6180  -30.7850   24.8430 O   0  0  0  0  0  0  0  0  0  0  0  0
  -24.6740  -28.2830   23.0790 C   0  0  0  0  0  0  0  0  0  0  0  0
  -23.5370  -27.6860   22.6900 N   0  0  0  0  0  0  0  0  0  0  0  0
  -25.4270  -27.7980   23.9270 O   0  0  0  0  0  0  0  0  0  0  0  0
  -22.9640  -28.1580   22.0040 H   0  0  0  0  0  0  0  0  0  0  0  0
  -20.9270  -25.2320   22.2460 C   0  0  0  0  0  0  0  0  0  0  0  0
  -23.0300  -26.4060   23.1800 C   0  0  0  0  0  3  0  0  0  0  0  0
  -23.8290  -25.2210   22.5870 C   0  0  0  0  0  2  0  0  0  0  0  0
  -23.2050  -24.6500   21.3090 C   0  0  0  0  0  2  0  0  0  0  0  0
  -21.7790  -24.1640   21.5820 C   0  0  0  0  0  2  0  0  0  0  0  0
  -21.5160  -26.2930   22.9820 C   0  0  0  0  0  0  0  0  0  0  0  0
  -20.6800  -27.2800   23.5520 C   0  0  0  0  0  3  0  0  0  0  0  0
  -19.2820  -27.2160   23.4000 C   0  0  0  0  0  3  0  0  0  0  0  0
  -18.7030  -26.1550   22.6820 C   0  0  0  0  0  3  0  0  0  0  0  0
  -19.5230  -25.1650   22.1120 C   0  0  0  0  0  3  0  0  0  0  0  0
  -26.7830  -31.7610   25.1680 C   0  0  0  0  0  3  0  0  0  0  0  0
  -27.0320  -31.1800   26.6150 C   0  0  1  0  0  0  0  0  0  0  0  0
  -25.7350  -30.9520   27.4250 C   0  0  0  0  0  1  0  0  0  0  0  0
  -27.7830  -29.8300   26.5320 C   0  0  0  0  0  1  0  0  0  0  0  0
  -27.9310  -32.1460   27.4190 C   0  0  0  0  0  1  0  0  0  0  0  0
  -26.2990  -33.1450   25.2390 N   0  0  0  0  0  0  0  0  0  0  0  0
  -26.7500  -34.1480   24.4740 C   0  0  0  0  0  0  0  0  0  0  0  0
  -27.6790  -34.0160   23.6750 O   0  0  0  0  0  0  0  0  0  0  0  0
  -25.5010  -33.3120   25.8350 H   0  0  0  0  0  0  0  0  0  0  0  0
  -25.0690  -35.7180   23.4520 C   0  0  0  0  0  1  0  0  0  0  0  0
  -26.0530  -35.5150   24.6160 C   0  0  0  0  0  3  0  0  0  0  0  0
  -27.8090  -36.6690   25.8890 C   0  0  0  0  0  1  0  0  0  0  0  0
  -26.9970  -36.6540   24.6730 N   0  0  0  0  0  0  0  0  0  0  0  0
  -26.4980  -37.5380   24.6130 H   0  0  0  0  0  0  0  0  0  0  0  0
  2 54  1  0
  2  1  2  0
  3  1  1  0
  3 10  1  0
  4  6  2  0
  4  7  1  0
  5  4  1  0
  6  2  1  0
  7  3  2  0
 10  8  1  1
 10  9  1  0
 11 10  1  0
 12 18  1  0
 13 18  1  0
 14 15  1  0
 14 13  1  0
 16 15  1  0
 16 24  1  0
 16 17  1  0
 18 17  1  0
 19 12  2  0
 20 12  1  0
 20 11  1  0
 21 22  2  0
 22 23  1  0
 22 41  1  0
 23 26  1  0
 24 21  1  0
 24 25  1  0
 25 23  2  0
 26 27  1  0
 27 28  2  0
 29 28  1  0
 30 29  2  0
 31 30  1  0
 31 26  2  0
 32 29  1  0
 32 33  1  0
 33 34  1  0
 34 35  2  0
 36 35  1  0
 36 40  1  0
 37 36  2  0
 38 33  2  0
 38 37  1  0
 39 38  1  0
 41 42  1  0
 42 45  1  0
 42 44  1  0
 43 41  2  0
 46 21  1  0
 46 48  1  0
 47 46  1  0
 49 20  1  0
 53 50  1  6
 51 53  1  0
 53 52  1  0
 53 49  1  0
 55 54  1  0
 56 55  1  0
 56 57  1  0
 58 57  1  0
 58 59  1  0
 60 62  1  0
 60 59  1  0
 61 72  2  0
 62 67  1  0
 63 73  1  0
 63 71  1  0
 64 70  1  0
 64 66  1  0
 65 71  1  0
 66 65  1  0
 67 66  2  0
 68 69  1  0
 68 62  2  0
 69 64  2  0
 70 63  1  0
 71 61  1  0
 73 75  2  0
 74 73  1  0
 76 74  1  0
 77 82  1  0
 78 74  1  0
 79 78  1  0
 80 81  1  0
 80 79  1  0
 81 77  1  0
 82 78  1  0
 82 83  2  0
 84 83  1  0
 85 84  2  0
 86 77  2  0
 86 85  1  0
 87 61  1  0
 87 92  1  0
 87 88  1  0
 88 91  1  1
 88 89  1  0
 90 88  1  0
 92 95  1  0
 93 97  1  0
 93 92  1  0
 94 93  2  0
 97 96  1  0
 97 99  1  0
 99 98  1  0
100 99  1  0
M  ISO  4  12 100  20 100  59 101  60 101
M  END
>  <TORSDO>  (60) 
F 26

>  <SCORE>  (60) 
-3.853

>  <name>  (60) 
64

>  <ligand_id>  (60) 
64

>  <original_smiles>  (60) 
[H]c1c(C([H])([H])C([H])([H])C([H])([H])C([H])([H])C([H])([H])C([H])([H])Oc2c([H])c([H])c3c(c2[H])C([H])([H])N(C(=O)C([H])(N([H])C(=O)C([H])(N([H])C([H])([H])[H])C([H])([H])[H])C(C([H])([H])[H])(C([H])([H])[H])C([H])([H])[H])C([H])(C(=O)N([H])C2([H])c4c([H])c([H])c([H])c([H])c4C([H])([H])C([H])([H])C2([H])[H])C3([H])[H])nc(C([H])([H])[H])nc1C(C([H])([H])[H])(C([H])([H])[H])C([H])([H])N(C(=O)N1C([H])([H])C([H])([H])C([H])([H])C([H])(n2nc(-c3c([H])c([H])c(Oc4c([H])c([H])c(F)c([H])c4F)c([H])c3[H])c(C(=O)N([H])[H])c2N([H])[H])C1([H])[H])C([H])([H])C(C([H])([H])[H])(C([H])([H])[H])C([H])([H])[H]

>  <smiles>  (60) 
[H]c1c(C([H])([H])C([H])([H])C([H])([H])C([H])([H])C([H])([H])C([H])([H])Oc2c([H])c([H])c3c(c2[H])C([H])([H])N(C(=O)C([H])(N([H])C(=O)C([H])(N([H])C([H])([H])[H])C([H])([H])[H])C(C([H])([H])[H])(C([H])([H])[H])C([H])([H])[H])C([H])(C(=O)N([H])C2([H])c4c([H])c([H])c([H])c([H])c4C([H])([H])C([H])([H])C2([H])[H])C3([H])[H])nc(C([H])([H])[H])nc1C(C([H])([H])[H])(C([H])([H])[H])C([H])([H])N(C(=O)N1C([H])([H])C([H])([H])C([H])([H])C([H])(n2nc(-c3c([H])c([H])c(Oc4c([H])c([H])c(F)c([H])c4F)c([H])c3[H])c(C(=O)N([H])[H])c2N([H])[H])C1([H])[H])C([H])([H])C(C([H])([H])[H])(C([H])([H])[H])C([H])([H])[H]

$$$$
65:0:0
     RDKit          3D

 93101  0  0  1  0  0  0  0  0999 V2000
  -29.0420  -19.1850   21.4140 C   0  0  0  0  0  3  0  0  0  0  0  0
  -29.7220  -20.3080   20.8810 C   0  0  0  0  0  0  0  0  0  0  0  0
  -30.8860  -19.9460   20.1670 C   0  0  0  0  0  0  0  0  0  0  0  0
  -30.4310  -17.6400   20.3590 C   0  0  0  0  0  0  0  0  0  0  0  0
  -31.8780  -20.9550   19.6250 C   0  0  0  0  0  1  0  0  0  0  0  0
  -29.3960  -17.8920   21.1730 N   0  0  0  0  0  0  0  0  0  0  0  0
  -31.1900  -18.6520   19.9070 N   0  0  0  0  0  0  0  0  0  0  0  0
  -29.2000  -21.7720   21.1530 C   0  0  0  0  0  2  0  0  0  0  0  0
  -29.4000  -22.9140   20.0750 C   0  0  0  0  0  2  0  0  0  0  0  0
  -28.4080  -24.1540   19.9830 C   0  0  0  0  0  2  0  0  0  0  0  0
  -28.6100  -25.4280   20.8890 C   0  0  0  0  0  2  0  0  0  0  0  0
  -28.5780  -26.7550   20.2620 O   0  0  0  0  0  0  0  0  0  0  0  0
  -24.6320  -31.9600   23.2700 C   0  0  0  0  0  0  0  0  0  0  0  0
  -27.4010  -27.4960   20.2740 C   0  0  0  0  0  0  0  0  0  0  0  0
  -23.4800  -30.5320   21.6140 C   0  0  0  0  0  3  0  0  0  0  0  0
  -24.9860  -29.0040   20.2220 C   0  0  0  0  0  0  0  0  0  0  0  0
  -26.0080  -30.9210   21.4590 C   0  0  0  0  0  2  0  0  0  0  0  0
  -26.1300  -29.5440   20.8250 C   0  0  0  0  0  0  0  0  0  0  0  0
  -27.3430  -28.8030   20.8340 C   0  0  0  0  0  3  0  0  0  0  0  0
  -26.2390  -26.9830   19.6630 C   0  0  0  0  0  3  0  0  0  0  0  0
  -25.0400  -27.7280   19.6330 C   0  0  0  0  0  3  0  0  0  0  0  0
  -23.7280  -29.8470   20.2420 C   0  0  0  0  0  2  0  0  0  0  0  0
  -24.7250  -31.1560   22.1720 N   0  0  0  0  0  0  0  0  0  0  0  0
  -23.5370  -32.2140   23.7910 O   0  0  0  0  0  0  0  0  0  0  0  0
  -22.8280  -29.5060   22.5690 C   0  0  0  0  0  0  0  0  0  0  0  0
  -21.5090  -29.2980   22.4190 N   0  0  0  0  0  0  0  0  0  0  0  0
  -23.5070  -28.8980   23.4010 O   0  0  0  0  0  0  0  0  0  0  0  0
  -21.0210  -29.8390   21.7190 H   0  0  0  0  0  0  0  0  0  0  0  0
  -18.1450  -28.0600   22.8870 C   0  0  0  0  0  0  0  0  0  0  0  0
  -20.6970  -28.3450   23.1770 C   0  0  0  0  0  3  0  0  0  0  0  0
  -20.8200  -26.9200   22.5910 C   0  0  0  0  0  2  0  0  0  0  0  0
  -19.7280  -26.5930   21.5660 C   0  0  0  0  0  2  0  0  0  0  0  0
  -18.3400  -26.7180   22.2020 C   0  0  0  0  0  2  0  0  0  0  0  0
  -19.2520  -28.8320   23.3300 C   0  0  0  0  0  0  0  0  0  0  0  0
  -19.0150  -30.0890   23.9290 C   0  0  0  0  0  3  0  0  0  0  0  0
  -17.7050  -30.5740   24.0890 C   0  0  0  0  0  3  0  0  0  0  0  0
  -16.6110  -29.8000   23.6630 C   0  0  0  0  0  3  0  0  0  0  0  0
  -16.8320  -28.5460   23.0680 C   0  0  0  0  0  3  0  0  0  0  0  0
  -25.8950  -32.6180   23.9110 C   0  0  0  0  0  3  0  0  0  0  0  0
  -25.5630  -34.0190   24.2070 N   0  0  0  0  0  0  0  0  0  0  0  0
  -25.9100  -35.0610   23.4420 C   0  0  0  0  0  0  0  0  0  0  0  0
  -26.6110  -34.9460   22.4330 O   0  0  0  0  0  0  0  0  0  0  0  0
  -24.9420  -34.1810   24.9870 H   0  0  0  0  0  0  0  0  0  0  0  0
  -24.1910  -36.8410   22.9900 C   0  0  0  0  0  1  0  0  0  0  0  0
  -25.3980  -36.4530   23.8600 C   0  0  0  0  0  3  0  0  0  0  0  0
  -27.4840  -37.3640   24.7770 C   0  0  0  0  0  1  0  0  0  0  0  0
  -26.4300  -37.5090   23.7780 N   0  0  0  0  0  0  0  0  0  0  0  0
  -26.0120  -38.4300   23.8880 H   0  0  0  0  0  0  0  0  0  0  0  0
  -26.3880  -31.8760   25.2140 C   0  0  1  0  0  0  0  0  0  0  0  0
  -25.2690  -31.6360   26.2540 C   0  0  0  0  0  1  0  0  0  0  0  0
  -27.0060  -30.5040   24.8600 C   0  0  0  0  0  1  0  0  0  0  0  0
  -27.5040  -32.7030   25.8960 C   0  0  0  0  0  1  0  0  0  0  0  0
  -30.4350  -16.2820   19.5170 C   0  0  1  0  0  0  0  0  0  0  0  0
  -30.8410  -14.8850   20.2590 C   0  0  0  0  0  0  0  0  0  0  0  0
  -30.5430  -12.6080   19.3490 C   0  0  0  0  0  2  0  0  0  0  0  0
  -29.6080  -12.5940   18.1270 C   0  0  0  0  0  2  0  0  0  0  0  0
  -28.1390  -12.4220   18.5690 C   0  0  0  0  0  2  0  0  0  0  0  0
  -27.7330  -13.3370   19.7520 C   0  0  0  0  0  3  0  0  0  0  0  0
  -28.8170  -13.4170   20.8520 C   0  0  0  0  0  2  0  0  0  0  0  0
  -30.1080  -13.7180   20.2160 N   0  0  0  0  0  0  0  0  0  0  0  0
  -32.0400  -14.7640   20.4880 O   0  0  0  0  0  0  0  0  0  0  0  0
  -25.3630  -13.9450   20.4970 C   0  0  0  0  0  0  0  0  0  0  0  0
  -24.2960  -13.1690   20.8510 C   0  0  0  0  0  0  0  0  0  0  0  0
  -24.7680  -11.8210   20.8310 C   0  0  0  0  0  0  0  0  0  0  0  0
  -26.4080  -13.0590   20.2710 N   0  0  0  0  0  0  0  0  0  0  0  0
  -26.0600  -11.7820   20.5440 N   0  0  0  0  0  0  0  0  0  0  0  0
  -24.0520  -10.5570   21.0090 C   0  0  0  0  0  0  0  0  0  0  0  0
  -24.4600   -9.6140   21.9770 C   0  0  0  0  0  3  0  0  0  0  0  0
  -23.7480   -8.4080   22.1420 C   0  0  0  0  0  3  0  0  0  0  0  0
  -22.6150   -8.1390   21.3380 C   0  0  0  0  0  0  0  0  0  0  0  0
  -22.2300   -9.0700   20.3590 C   0  0  0  0  0  3  0  0  0  0  0  0
  -22.9430  -10.2680   20.1910 C   0  0  0  0  0  3  0  0  0  0  0  0
  -21.8760   -6.9850   21.4150 O   0  0  0  0  0  0  0  0  0  0  0  0
  -21.7600   -6.2830   22.5870 C   0  0  0  0  0  0  0  0  0  0  0  0
  -21.1980   -6.8580   23.7470 C   0  0  0  0  0  3  0  0  0  0  0  0
  -21.0320   -6.0790   24.9100 C   0  0  0  0  0  3  0  0  0  0  0  0
  -21.4180   -4.7260   24.9120 C   0  0  0  0  0  0  0  0  0  0  0  0
  -21.9740   -4.1500   23.7550 C   0  0  0  0  0  3  0  0  0  0  0  0
  -22.1420   -4.9270   22.5960 C   0  0  0  0  0  0  0  0  0  0  0  0
  -22.6590   -4.3630   21.4780 F   0  0  0  0  0  0  0  0  0  0  0  0
  -21.2520   -3.9740   26.0250 F   0  0  0  0  0  0  0  0  0  0  0  0
  -22.8910  -13.6380   21.0950 C   0  0  0  0  0  0  0  0  0  0  0  0
  -22.1490  -12.9300   21.9400 N   0  0  0  0  0  0  0  0  0  0  0  0
  -22.4580  -14.6650   20.5750 O   0  0  0  0  0  0  0  0  0  0  0  0
  -22.5130  -12.1000   22.3830 H   0  0  0  0  0  0  0  0  0  0  0  0
  -21.2060  -13.2240   22.1480 H   0  0  0  0  0  0  0  0  0  0  0  0
  -25.5220  -15.3170   20.3170 N   0  0  0  0  0  0  0  0  0  0  0  0
  -24.7500  -15.9660   20.4280 H   0  0  0  0  0  0  0  0  0  0  0  0
  -26.3800  -15.7690   20.0320 H   0  0  0  0  0  0  0  0  0  0  0  0
  -28.4470  -17.4950   18.1670 C   0  0  0  0  0  1  0  0  0  0  0  0
  -29.0280  -16.2290   18.8460 C   0  0  0  0  0  2  0  0  0  0  0  0
  -32.9560  -16.5260   18.4710 C   0  0  0  0  0  1  0  0  0  0  0  0
  -31.4220  -16.4050   18.2740 C   0  0  0  0  0  2  0  0  0  0  0  0
  2  8  1  0
  2  1  2  0
  3  2  1  0
  4  6  2  0
  5  3  1  0
  6  1  1  0
  7  3  2  0
  7  4  1  0
  9  8  1  0
 10  9  1  0
 10 11  1  0
 12 14  1  0
 12 11  1  0
 13 24  2  0
 14 19  1  0
 15 23  1  0
 15 25  1  0
 16 22  1  0
 16 18  1  0
 17 23  1  0
 18 19  2  0
 18 17  1  0
 20 14  2  0
 21 20  1  0
 21 16  2  0
 22 15  1  0
 23 13  1  0
 25 27  2  0
 26 25  1  0
 28 26  1  0
 29 38  2  0
 29 34  1  0
 30 26  1  0
 30 34  1  0
 31 30  1  0
 32 33  1  0
 32 31  1  0
 33 29  1  0
 34 35  2  0
 35 36  1  0
 37 36  2  0
 38 37  1  0
 39 13  1  0
 39 40  1  0
 39 49  1  0
 40 43  1  0
 41 45  1  0
 41 40  1  0
 42 41  2  0
 45 44  1  0
 47 45  1  0
 47 48  1  0
 47 46  1  0
 49 52  1  1
 49 50  1  0
 51 49  1  0
 53 54  1  0
 53  4  1  0
 54 61  2  0
 55 60  1  0
 56 57  1  0
 56 55  1  0
 58 57  1  0
 58 65  1  0
 58 59  1  0
 60 54  1  0
 60 59  1  0
 62 63  2  0
 63 82  1  0
 64 63  1  0
 64 67  1  0
 65 62  1  0
 65 66  1  0
 66 64  2  0
 67 68  1  0
 68 69  2  0
 70 73  1  0
 70 69  1  0
 71 70  2  0
 72 71  1  0
 72 67  2  0
 73 74  1  0
 74 79  2  0
 74 75  1  0
 75 76  2  0
 76 77  1  0
 77 81  1  0
 78 77  2  0
 79 78  1  0
 80 79  1  0
 82 83  1  0
 83 86  1  0
 83 85  1  0
 84 82  2  0
 87 88  1  0
 87 62  1  0
 89 87  1  0
 90 91  1  0
 53 91  1  6
 93 92  1  0
 93 53  1  0
M  ISO  4  11 101  12 101  53 100  54 100
M  END
>  <TORSDO>  (61) 
F 23

>  <SCORE>  (61) 
-12.212

>  <name>  (61) 
65

>  <ligand_id>  (61) 
65

>  <original_smiles>  (61) 
[H]c1nc(C(C(=O)N2C([H])([H])C([H])([H])C([H])([H])C([H])(n3nc(-c4c([H])c([H])c(Oc5c([H])c([H])c(F)c([H])c5F)c([H])c4[H])c(C(=O)N([H])[H])c3N([H])[H])C2([H])[H])(C([H])([H])C([H])([H])[H])C([H])([H])C([H])([H])[H])nc(C([H])([H])[H])c1C([H])([H])C([H])([H])C([H])([H])C([H])([H])Oc1c([H])c([H])c2c(c1[H])C([H])([H])N(C(=O)C([H])(N([H])C(=O)C([H])(N([H])C([H])([H])[H])C([H])([H])[H])C(C([H])([H])[H])(C([H])([H])[H])C([H])([H])[H])C([H])(C(=O)N([H])C1([H])c3c([H])c([H])c([H])c([H])c3C([H])([H])C([H])([H])C1([H])[H])C2([H])[H]

>  <smiles>  (61) 
[H]c1nc(C(C(=O)N2C([H])([H])C([H])([H])C([H])([H])C([H])(n3nc(-c4c([H])c([H])c(Oc5c([H])c([H])c(F)c([H])c5F)c([H])c4[H])c(C(=O)N([H])[H])c3N([H])[H])C2([H])[H])(C([H])([H])C([H])([H])[H])C([H])([H])C([H])([H])[H])nc(C([H])([H])[H])c1C([H])([H])C([H])([H])C([H])([H])C([H])([H])Oc1c([H])c([H])c2c(c1[H])C([H])([H])N(C(=O)C([H])(N([H])C(=O)C([H])(N([H])C([H])([H])[H])C([H])([H])[H])C(C([H])([H])[H])(C([H])([H])[H])C([H])([H])[H])C([H])(C(=O)N([H])C1([H])c3c([H])c([H])c([H])c([H])c3C([H])([H])C([H])([H])C1([H])[H])C2([H])[H]

$$$$
66:0:0
     RDKit          3D

 95103  0  0  1  0  0  0  0  0999 V2000
  -28.7190  -20.2400   20.7110 C   0  0  0  0  0  3  0  0  0  0  0  0
  -29.4710  -19.3550   19.8860 C   0  0  0  0  0  0  0  0  0  0  0  0
  -29.2900  -22.0420   19.3770 C   0  0  0  0  0  0  0  0  0  0  0  0
  -30.0980  -21.1810   18.5830 C   0  0  0  0  0  0  0  0  0  0  0  0
  -28.6300  -21.5730   20.4640 N   0  0  0  0  0  0  0  0  0  0  0  0
  -30.2190  -19.8570   18.8700 N   0  0  0  0  0  0  0  0  0  0  0  0
  -29.0090  -17.3710   18.4600 C   0  0  0  0  0  1  0  0  0  0  0  0
  -28.0940  -17.3880   20.7730 C   0  0  0  0  0  1  0  0  0  0  0  0
  -29.3090  -17.8080   19.9130 C   0  0  2  0  0  0  0  0  0  0  0  0
  -30.5640  -17.0360   20.4410 C   0  0  0  0  0  2  0  0  0  0  0  0
  -30.9870  -14.5560   20.1350 C   0  0  0  0  0  0  0  0  0  0  0  0
  -30.6360  -12.3650   19.0590 C   0  0  0  0  0  2  0  0  0  0  0  0
  -29.6430  -12.5430   17.8880 C   0  0  0  0  0  2  0  0  0  0  0  0
  -28.1880  -12.4130   18.3820 C   0  0  0  0  0  2  0  0  0  0  0  0
  -27.9050  -13.2670   19.6450 C   0  0  0  0  0  3  0  0  0  0  0  0
  -29.0100  -13.0870   20.7120 C   0  0  0  0  0  2  0  0  0  0  0  0
  -30.3090  -13.3750   20.0760 N   0  0  0  0  0  0  0  0  0  0  0  0
  -32.0930  -14.7230   19.6160 O   0  0  0  0  0  0  0  0  0  0  0  0
  -30.2910  -15.5900   20.6350 N   0  0  0  0  0  0  0  0  0  0  0  0
  -29.3970  -15.3540   21.0370 H   0  0  0  0  0  0  0  0  0  0  0  0
  -25.5610  -13.9310   20.4800 C   0  0  0  0  0  0  0  0  0  0  0  0
  -24.4890  -13.1790   20.8770 C   0  0  0  0  0  0  0  0  0  0  0  0
  -24.9090  -11.8170   20.7820 C   0  0  0  0  0  0  0  0  0  0  0  0
  -26.5680  -13.0260   20.1800 N   0  0  0  0  0  0  0  0  0  0  0  0
  -26.1810  -11.7480   20.4160 N   0  0  0  0  0  0  0  0  0  0  0  0
  -24.1600  -10.5690   20.9650 C   0  0  0  0  0  0  0  0  0  0  0  0
  -24.5860   -9.5820   21.8810 C   0  0  0  0  0  3  0  0  0  0  0  0
  -23.8390   -8.3970   22.0530 C   0  0  0  0  0  3  0  0  0  0  0  0
  -22.6550   -8.1890   21.3050 C   0  0  0  0  0  0  0  0  0  0  0  0
  -22.2510   -9.1650   20.3780 C   0  0  0  0  0  3  0  0  0  0  0  0
  -22.9980  -10.3420   20.2030 C   0  0  0  0  0  3  0  0  0  0  0  0
  -21.8780   -7.0600   21.3880 O   0  0  0  0  0  0  0  0  0  0  0  0
  -21.8020   -6.3250   22.5430 C   0  0  0  0  0  0  0  0  0  0  0  0
  -21.3370   -6.8850   23.7540 C   0  0  0  0  0  3  0  0  0  0  0  0
  -21.2060   -6.0750   24.8990 C   0  0  0  0  0  3  0  0  0  0  0  0
  -21.5320   -4.7070   24.8370 C   0  0  0  0  0  0  0  0  0  0  0  0
  -21.9920   -4.1470   23.6300 C   0  0  0  0  0  3  0  0  0  0  0  0
  -22.1250   -4.9550   22.4880 C   0  0  0  0  0  0  0  0  0  0  0  0
  -22.5460   -4.4060   21.3230 F   0  0  0  0  0  0  0  0  0  0  0  0
  -21.3990   -3.9260   25.9340 F   0  0  0  0  0  0  0  0  0  0  0  0
  -23.1210  -13.6850   21.2310 C   0  0  0  0  0  0  0  0  0  0  0  0
  -22.4250  -12.9890   22.1240 N   0  0  0  0  0  0  0  0  0  0  0  0
  -22.6810  -14.7290   20.7530 O   0  0  0  0  0  0  0  0  0  0  0  0
  -22.7960  -12.1400   22.5270 H   0  0  0  0  0  0  0  0  0  0  0  0
  -21.5090  -13.3060   22.4070 H   0  0  0  0  0  0  0  0  0  0  0  0
  -25.7510  -15.3000   20.3300 N   0  0  0  0  0  0  0  0  0  0  0  0
  -25.0050  -15.9680   20.4860 H   0  0  0  0  0  0  0  0  0  0  0  0
  -26.5900  -15.7220   19.9570 H   0  0  0  0  0  0  0  0  0  0  0  0
  -28.9910  -23.4860   18.9540 C   0  0  0  0  0  2  0  0  0  0  0  0
  -29.5510  -24.6000   19.8730 C   0  0  0  0  0  2  0  0  0  0  0  0
  -28.4900  -25.4130   20.6540 C   0  0  0  0  0  2  0  0  0  0  0  0
  -28.5390  -26.8040   20.2890 O   0  0  0  0  0  0  0  0  0  0  0  0
  -24.6430  -31.9630   23.2810 C   0  0  0  0  0  0  0  0  0  0  0  0
  -27.3500  -27.5030   20.2900 C   0  0  0  0  0  0  0  0  0  0  0  0
  -23.4590  -30.5260   21.6530 C   0  0  0  0  0  3  0  0  0  0  0  0
  -24.9370  -28.9810   20.2590 C   0  0  0  0  0  0  0  0  0  0  0  0
  -25.9810  -30.9100   21.4610 C   0  0  0  0  0  2  0  0  0  0  0  0
  -26.0850  -29.5290   20.8440 C   0  0  0  0  0  0  0  0  0  0  0  0
  -27.2950  -28.7980   20.8540 C   0  0  0  0  0  3  0  0  0  0  0  0
  -26.1860  -26.9730   19.6910 C   0  0  0  0  0  3  0  0  0  0  0  0
  -24.9810  -27.7010   19.6800 C   0  0  0  0  0  3  0  0  0  0  0  0
  -23.6830  -29.8270   20.2850 C   0  0  0  0  0  2  0  0  0  0  0  0
  -24.7130  -31.1490   22.1910 N   0  0  0  0  0  0  0  0  0  0  0  0
  -23.5580  -32.2300   23.8140 O   0  0  0  0  0  0  0  0  0  0  0  0
  -22.8150  -29.5120   22.6250 C   0  0  0  0  0  0  0  0  0  0  0  0
  -21.4950  -29.3000   22.4820 N   0  0  0  0  0  0  0  0  0  0  0  0
  -23.4980  -28.9150   23.4610 O   0  0  0  0  0  0  0  0  0  0  0  0
  -21.0030  -29.8350   21.7810 H   0  0  0  0  0  0  0  0  0  0  0  0
  -18.1360  -28.0650   22.9660 C   0  0  0  0  0  0  0  0  0  0  0  0
  -20.6870  -28.3630   23.2580 C   0  0  0  0  0  3  0  0  0  0  0  0
  -20.8150  -26.9240   22.7060 C   0  0  0  0  0  2  0  0  0  0  0  0
  -19.7280  -26.5700   21.6860 C   0  0  0  0  0  2  0  0  0  0  0  0
  -18.3390  -26.7070   22.3130 C   0  0  0  0  0  2  0  0  0  0  0  0
  -19.2390  -28.8490   23.3960 C   0  0  0  0  0  0  0  0  0  0  0  0
  -18.9980  -30.1180   23.9630 C   0  0  0  0  0  3  0  0  0  0  0  0
  -17.6850  -30.6050   24.1050 C   0  0  0  0  0  3  0  0  0  0  0  0
  -16.5960  -29.8180   23.6930 C   0  0  0  0  0  3  0  0  0  0  0  0
  -16.8210  -28.5510   23.1290 C   0  0  0  0  0  3  0  0  0  0  0  0
  -25.9200  -32.6140   23.8970 C   0  0  0  0  0  3  0  0  0  0  0  0
  -25.5960  -34.0120   24.2120 N   0  0  0  0  0  0  0  0  0  0  0  0
  -25.9220  -35.0600   23.4440 C   0  0  0  0  0  0  0  0  0  0  0  0
  -26.5970  -34.9550   22.4170 O   0  0  0  0  0  0  0  0  0  0  0  0
  -24.9950  -34.1670   25.0090 H   0  0  0  0  0  0  0  0  0  0  0  0
  -24.1760  -36.8300   23.0610 C   0  0  0  0  0  1  0  0  0  0  0  0
  -25.4150  -36.4470   23.8850 C   0  0  0  0  0  3  0  0  0  0  0  0
  -27.5300  -37.3670   24.7280 C   0  0  0  0  0  1  0  0  0  0  0  0
  -26.4360  -37.5100   23.7700 N   0  0  0  0  0  0  0  0  0  0  0  0
  -26.0180  -38.4270   23.9020 H   0  0  0  0  0  0  0  0  0  0  0  0
  -26.4490  -31.8610   25.1790 C   0  0  1  0  0  0  0  0  0  0  0  0
  -25.3500  -31.5800   26.2310 C   0  0  0  0  0  1  0  0  0  0  0  0
  -27.0890  -30.5080   24.7910 C   0  0  0  0  0  1  0  0  0  0  0  0
  -27.5570  -32.6970   25.8610 C   0  0  0  0  0  1  0  0  0  0  0  0
  -30.7120  -21.6590   17.4430 O   0  0  0  0  0  0  0  0  0  0  0  0
  -31.6410  -21.4210   15.2400 C   0  0  0  0  0  1  0  0  0  0  0  0
  -31.3700  -20.7320   16.5800 C   0  0  0  0  0  2  0  0  0  0  0  0
  2  9  1  0
  2  1  2  0
  3  5  2  0
  4  6  2  0
  4  3  1  0
  5  1  1  0
  6  2  1  0
  9  7  1  6
  9 10  1  0
  9  8  1  0
 10 19  1  0
 11 19  1  0
 12 17  1  0
 13 14  1  0
 13 12  1  0
 15 14  1  0
 15 24  1  0
 15 16  1  0
 17 11  1  0
 17 16  1  0
 18 11  2  0
 19 20  1  0
 21 22  2  0
 22 41  1  0
 23 22  1  0
 23 26  1  0
 24 25  1  0
 24 21  1  0
 25 23  2  0
 26 27  1  0
 27 28  2  0
 29 32  1  0
 29 28  1  0
 30 29  2  0
 31 30  1  0
 31 26  2  0
 32 33  1  0
 33 34  1  0
 34 35  2  0
 36 35  1  0
 36 40  1  0
 37 36  2  0
 38 33  2  0
 38 37  1  0
 39 38  1  0
 41 42  1  0
 42 45  1  0
 42 44  1  0
 43 41  2  0
 46 21  1  0
 46 47  1  0
 48 46  1  0
 49  3  1  0
 49 50  1  0
 50 51  1  0
 52 54  1  0
 52 51  1  0
 53 64  2  0
 54 59  1  0
 55 63  1  0
 55 65  1  0
 56 62  1  0
 56 58  1  0
 57 63  1  0
 58 59  2  0
 58 57  1  0
 60 54  2  0
 61 60  1  0
 61 56  2  0
 62 55  1  0
 63 53  1  0
 65 67  2  0
 66 65  1  0
 68 66  1  0
 69 78  2  0
 69 74  1  0
 70 66  1  0
 70 74  1  0
 71 70  1  0
 72 73  1  0
 72 71  1  0
 73 69  1  0
 74 75  2  0
 75 76  1  0
 77 76  2  0
 78 77  1  0
 79 53  1  0
 79 80  1  0
 79 89  1  0
 80 83  1  0
 81 85  1  0
 81 80  1  0
 82 81  2  0
 85 84  1  0
 87 85  1  0
 87 88  1  0
 87 86  1  0
 89 92  1  1
 89 90  1  0
 91 89  1  0
 93  4  1  0
 94 95  1  0
 95 93  1  0
M  ISO  4  11 100  19 100  51 101  52 101
M  END
>  <TORSDO>  (62) 
F 23

>  <SCORE>  (62) 
-12.563

>  <name>  (62) 
66

>  <ligand_id>  (62) 
66

>  <original_smiles>  (62) 
[H]c1nc(C([H])([H])C([H])([H])C([H])([H])Oc2c([H])c([H])c3c(c2[H])C([H])([H])N(C(=O)C([H])(N([H])C(=O)C([H])(N([H])C([H])([H])[H])C([H])([H])[H])C(C([H])([H])[H])(C([H])([H])[H])C([H])([H])[H])C([H])(C(=O)N([H])C2([H])c4c([H])c([H])c([H])c([H])c4C([H])([H])C([H])([H])C2([H])[H])C3([H])[H])c(OC([H])([H])C([H])([H])[H])nc1C(C([H])([H])[H])(C([H])([H])[H])C([H])([H])N([H])C(=O)N1C([H])([H])C([H])([H])C([H])([H])C([H])(n2nc(-c3c([H])c([H])c(Oc4c([H])c([H])c(F)c([H])c4F)c([H])c3[H])c(C(=O)N([H])[H])c2N([H])[H])C1([H])[H]

>  <smiles>  (62) 
[H]c1nc(C([H])([H])C([H])([H])C([H])([H])Oc2c([H])c([H])c3c(c2[H])C([H])([H])N(C(=O)C([H])(N([H])C(=O)C([H])(N([H])C([H])([H])[H])C([H])([H])[H])C(C([H])([H])[H])(C([H])([H])[H])C([H])([H])[H])C([H])(C(=O)N([H])C2([H])c4c([H])c([H])c([H])c([H])c4C([H])([H])C([H])([H])C2([H])[H])C3([H])[H])c(OC([H])([H])C([H])([H])[H])nc1C(C([H])([H])[H])(C([H])([H])[H])C([H])([H])N([H])C(=O)N1C([H])([H])C([H])([H])C([H])([H])C([H])(n2nc(-c3c([H])c([H])c(Oc4c([H])c([H])c(F)c([H])c4F)c([H])c3[H])c(C(=O)N([H])[H])c2N([H])[H])C1([H])[H]

$$$$
67:0:0
     RDKit          3D

 98106  0  0  1  0  0  0  0  0999 V2000
  -28.8930  -21.7980   18.2650 C   0  0  0  0  0  3  0  0  0  0  0  0
  -29.0210  -21.7300   19.6600 C   0  0  0  0  0  0  0  0  0  0  0  0
  -29.0530  -20.6020   17.5410 C   0  0  0  0  0  0  0  0  0  0  0  0
  -29.5340  -19.4760   19.5080 C   0  0  0  0  0  0  0  0  0  0  0  0
  -29.3490  -20.5630   20.2630 N   0  0  0  0  0  0  0  0  0  0  0  0
  -29.3360  -19.4610   18.1950 N   0  0  0  0  0  0  0  0  0  0  0  0
  -29.0970  -21.6900   15.2310 C   0  0  0  0  0  1  0  0  0  0  0  0
  -27.1500  -20.2610   15.9590 C   0  0  0  0  0  1  0  0  0  0  0  0
  -29.3960  -19.2430   15.3850 C   0  0  0  0  0  1  0  0  0  0  0  0
  -28.6810  -20.4530   16.0510 C   0  0  2  0  0  0  0  0  0  0  0  0
  -28.1830  -17.7300   20.6400 C   0  0  0  0  0  1  0  0  0  0  0  0
  -30.0980  -17.0230   19.1460 C   0  0  0  0  0  1  0  0  0  0  0  0
  -29.6170  -18.0730   20.1950 C   0  0  1  0  0  0  0  0  0  0  0  0
  -32.0630  -18.3680   21.1090 C   0  0  0  0  0  1  0  0  0  0  0  0
  -30.5980  -18.0360   21.4400 C   0  0  0  0  0  3  0  0  0  0  0  0
  -30.5230  -16.8420   22.4580 C   0  0  0  0  0  2  0  0  0  0  0  0
  -30.9980  -14.5170   21.4690 C   0  0  0  0  0  0  0  0  0  0  0  0
  -30.8480  -12.3630   20.2520 C   0  0  0  0  0  2  0  0  0  0  0  0
  -30.0540  -12.5570   18.9470 C   0  0  0  0  0  2  0  0  0  0  0  0
  -28.5330  -12.4470   19.1970 C   0  0  0  0  0  2  0  0  0  0  0  0
  -28.0560  -13.2960   20.4100 C   0  0  0  0  0  3  0  0  0  0  0  0
  -28.9670  -13.0410   21.6300 C   0  0  0  0  0  2  0  0  0  0  0  0
  -30.3510  -13.3460   21.2260 N   0  0  0  0  0  0  0  0  0  0  0  0
  -32.1700  -14.7210   21.1430 O   0  0  0  0  0  0  0  0  0  0  0  0
  -30.2150  -15.4820   21.9830 N   0  0  0  0  0  0  0  0  0  0  0  0
  -29.2720  -15.1760   22.1760 H   0  0  0  0  0  0  0  0  0  0  0  0
  -25.5960  -13.9470   20.8200 C   0  0  0  0  0  0  0  0  0  0  0  0
  -24.4740  -13.2030   21.0660 C   0  0  0  0  0  0  0  0  0  0  0  0
  -24.9120  -11.8420   21.1020 C   0  0  0  0  0  0  0  0  0  0  0  0
  -26.6470  -13.0480   20.7220 N   0  0  0  0  0  0  0  0  0  0  0  0
  -26.2290  -11.7750   20.9440 N   0  0  0  0  0  0  0  0  0  0  0  0
  -24.1420  -10.5970   21.2200 C   0  0  0  0  0  0  0  0  0  0  0  0
  -24.4650   -9.6200   22.1910 C   0  0  0  0  0  3  0  0  0  0  0  0
  -23.7030   -8.4380   22.2960 C   0  0  0  0  0  3  0  0  0  0  0  0
  -22.6040   -8.2190   21.4330 C   0  0  0  0  0  0  0  0  0  0  0  0
  -22.3010   -9.1820   20.4520 C   0  0  0  0  0  3  0  0  0  0  0  0
  -23.0660  -10.3550   20.3440 C   0  0  0  0  0  3  0  0  0  0  0  0
  -21.8250   -7.0890   21.4470 O   0  0  0  0  0  0  0  0  0  0  0  0
  -21.6450   -6.3480   22.5880 C   0  0  0  0  0  0  0  0  0  0  0  0
  -21.0930   -6.9090   23.7600 C   0  0  0  0  0  3  0  0  0  0  0  0
  -20.8650   -6.0960   24.8870 C   0  0  0  0  0  3  0  0  0  0  0  0
  -21.1800   -4.7250   24.8430 C   0  0  0  0  0  0  0  0  0  0  0  0
  -21.7250   -4.1640   23.6740 C   0  0  0  0  0  3  0  0  0  0  0  0
  -21.9530   -4.9750   22.5480 C   0  0  0  0  0  0  0  0  0  0  0  0
  -22.4590   -4.4280   21.4180 F   0  0  0  0  0  0  0  0  0  0  0  0
  -20.9540   -3.9410   25.9240 F   0  0  0  0  0  0  0  0  0  0  0  0
  -23.0640  -13.7110   21.1610 C   0  0  0  0  0  0  0  0  0  0  0  0
  -22.2270  -13.0460   21.9510 N   0  0  0  0  0  0  0  0  0  0  0  0
  -22.7090  -14.7320   20.5720 O   0  0  0  0  0  0  0  0  0  0  0  0
  -22.5350  -12.2280   22.4550 H   0  0  0  0  0  0  0  0  0  0  0  0
  -21.2730  -13.3610   22.0630 H   0  0  0  0  0  0  0  0  0  0  0  0
  -25.8100  -15.3110   20.6570 N   0  0  0  0  0  0  0  0  0  0  0  0
  -25.0380  -15.9690   20.6350 H   0  0  0  0  0  0  0  0  0  0  0  0
  -26.6960  -15.7160   20.3900 H   0  0  0  0  0  0  0  0  0  0  0  0
  -28.7430  -22.9210   20.5870 C   0  0  0  0  0  2  0  0  0  0  0  0
  -27.7740  -24.0420   20.0900 C   0  0  0  0  0  2  0  0  0  0  0  0
  -28.4140  -25.2570   19.3560 C   0  0  0  0  0  2  0  0  0  0  0  0
  -28.3450  -26.5140   20.0760 O   0  0  0  0  0  0  0  0  0  0  0  0
  -24.6290  -31.7320   23.2800 C   0  0  0  0  0  0  0  0  0  0  0  0
  -27.1750  -27.2580   20.1000 C   0  0  0  0  0  0  0  0  0  0  0  0
  -23.4010  -30.3990   21.6030 C   0  0  0  0  0  3  0  0  0  0  0  0
  -24.8190  -28.8440   20.1630 C   0  0  0  0  0  0  0  0  0  0  0  0
  -25.9450  -30.6700   21.4460 C   0  0  0  0  0  2  0  0  0  0  0  0
  -25.9930  -29.3140   20.7660 C   0  0  0  0  0  0  0  0  0  0  0  0
  -27.1690  -28.5260   20.7330 C   0  0  0  0  0  3  0  0  0  0  0  0
  -25.9700  -26.7970   19.5210 C   0  0  0  0  0  3  0  0  0  0  0  0
  -24.8010  -27.5790   19.5540 C   0  0  0  0  0  3  0  0  0  0  0  0
  -23.6070  -29.7450   20.2130 C   0  0  0  0  0  2  0  0  0  0  0  0
  -24.6760  -30.9510   22.1630 N   0  0  0  0  0  0  0  0  0  0  0  0
  -23.5510  -32.0250   23.8140 O   0  0  0  0  0  0  0  0  0  0  0  0
  -22.7140  -29.3720   22.5350 C   0  0  0  0  0  0  0  0  0  0  0  0
  -21.3880  -29.2170   22.3840 N   0  0  0  0  0  0  0  0  0  0  0  0
  -23.3710  -28.7190   23.3490 O   0  0  0  0  0  0  0  0  0  0  0  0
  -20.9170  -29.7920   21.6970 H   0  0  0  0  0  0  0  0  0  0  0  0
  -17.9860  -28.0800   22.8120 C   0  0  0  0  0  0  0  0  0  0  0  0
  -20.5430  -28.2840   23.1280 C   0  0  0  0  0  3  0  0  0  0  0  0
  -20.6290  -26.8610   22.5310 C   0  0  0  0  0  2  0  0  0  0  0  0
  -19.5380  -26.5760   21.4950 C   0  0  0  0  0  2  0  0  0  0  0  0
  -18.1480  -26.7370   22.1190 C   0  0  0  0  0  2  0  0  0  0  0  0
  -19.1120  -28.8120   23.2720 C   0  0  0  0  0  0  0  0  0  0  0  0
  -18.9100  -30.0710   23.8770 C   0  0  0  0  0  3  0  0  0  0  0  0
  -17.6120  -30.5940   24.0330 C   0  0  0  0  0  3  0  0  0  0  0  0
  -16.4990  -29.8570   23.5910 C   0  0  0  0  0  3  0  0  0  0  0  0
  -16.6870  -28.6020   22.9840 C   0  0  0  0  0  3  0  0  0  0  0  0
  -25.9270  -32.3150   23.9250 C   0  0  0  0  0  3  0  0  0  0  0  0
  -25.6570  -33.7230   24.2540 N   0  0  0  0  0  0  0  0  0  0  0  0
  -26.0500  -34.7680   23.5170 C   0  0  0  0  0  0  0  0  0  0  0  0
  -26.7500  -34.6510   22.5060 O   0  0  0  0  0  0  0  0  0  0  0  0
  -25.0410  -33.8920   25.0350 H   0  0  0  0  0  0  0  0  0  0  0  0
  -24.4010  -36.6270   23.1180 C   0  0  0  0  0  1  0  0  0  0  0  0
  -25.5950  -36.1680   23.9720 C   0  0  0  0  0  3  0  0  0  0  0  0
  -27.7260  -36.9650   24.8950 C   0  0  0  0  0  1  0  0  0  0  0  0
  -26.6660  -37.1850   23.9140 N   0  0  0  0  0  0  0  0  0  0  0  0
  -26.2860  -38.1160   24.0600 H   0  0  0  0  0  0  0  0  0  0  0  0
  -26.4020  -31.5240   25.2060 C   0  0  1  0  0  0  0  0  0  0  0  0
  -25.2890  -31.3230   26.2610 C   0  0  0  0  0  1  0  0  0  0  0  0
  -26.9450  -30.1270   24.8230 C   0  0  0  0  0  1  0  0  0  0  0  0
  -27.5660  -32.2830   25.8880 C   0  0  0  0  0  1  0  0  0  0  0  0
  1  2  2  0
  2  5  1  0
  2 55  1  0
  3  6  2  0
  3  1  1  0
  4 13  1  0
  4  5  2  0
  6  4  1  0
 10  7  1  6
  8 10  1  0
  9 10  1  0
 10  3  1  0
 13 12  1  6
 13 11  1  0
 13 15  1  0
 15 14  1  0
 15 16  1  0
 17 25  1  0
 18 23  1  0
 19 20  1  0
 19 18  1  0
 21 20  1  0
 21 30  1  0
 21 22  1  0
 23 17  1  0
 23 22  1  0
 24 17  2  0
 25 26  1  0
 25 16  1  0
 27 28  2  0
 28 29  1  0
 28 47  1  0
 29 32  1  0
 30 27  1  0
 30 31  1  0
 31 29  2  0
 32 33  1  0
 33 34  2  0
 35 38  1  0
 35 34  1  0
 36 35  2  0
 37 36  1  0
 37 32  2  0
 38 39  1  0
 39 40  1  0
 40 41  2  0
 42 41  1  0
 42 46  1  0
 43 42  2  0
 44 39  2  0
 44 43  1  0
 45 44  1  0
 47 48  1  0
 48 51  1  0
 48 50  1  0
 49 47  2  0
 52 27  1  0
 53 52  1  0
 54 52  1  0
 56 55  1  0
 57 58  1  0
 57 56  1  0
 58 60  1  0
 59 70  2  0
 60 65  1  0
 61 69  1  0
 61 71  1  0
 62 68  1  0
 62 64  1  0
 63 69  1  0
 64 63  1  0
 65 64  2  0
 66 67  1  0
 66 60  2  0
 67 62  2  0
 68 61  1  0
 69 59  1  0
 71 73  2  0
 72 71  1  0
 74 72  1  0
 75 84  2  0
 75 80  1  0
 76 72  1  0
 76 80  1  0
 77 76  1  0
 78 79  1  0
 78 77  1  0
 79 75  1  0
 80 81  2  0
 81 82  1  0
 83 82  2  0
 84 83  1  0
 85 59  1  0
 85 86  1  0
 85 95  1  0
 86 89  1  0
 87 91  1  0
 87 86  1  0
 88 87  2  0
 91 90  1  0
 93 91  1  0
 93 94  1  0
 93 92  1  0
 95 98  1  1
 95 96  1  0
 97 95  1  0
M  ISO  4  17 100  25 100  57 101  58 101
M  END
>  <TORSDO>  (63) 
F 23

>  <SCORE>  (63) 
-9.859

>  <name>  (63) 
67

>  <ligand_id>  (63) 
67

>  <original_smiles>  (63) 
[H]c1c(C([H])([H])C([H])([H])C([H])([H])Oc2c([H])c([H])c3c(c2[H])C([H])([H])N(C(=O)C([H])(N([H])C(=O)C([H])(N([H])C([H])([H])[H])C([H])([H])[H])C(C([H])([H])[H])(C([H])([H])[H])C([H])([H])[H])C([H])(C(=O)N([H])C2([H])c4c([H])c([H])c([H])c([H])c4C([H])([H])C([H])([H])C2([H])[H])C3([H])[H])nc(C(C([H])([H])[H])(C([H])([H])[H])C([H])(C([H])([H])[H])C([H])([H])N([H])C(=O)N2C([H])([H])C([H])([H])C([H])([H])C([H])(n3nc(-c4c([H])c([H])c(Oc5c([H])c([H])c(F)c([H])c5F)c([H])c4[H])c(C(=O)N([H])[H])c3N([H])[H])C2([H])[H])nc1C(C([H])([H])[H])(C([H])([H])[H])C([H])([H])[H]

>  <smiles>  (63) 
[H]c1c(C([H])([H])C([H])([H])C([H])([H])Oc2c([H])c([H])c3c(c2[H])C([H])([H])N(C(=O)C([H])(N([H])C(=O)C([H])(N([H])C([H])([H])[H])C([H])([H])[H])C(C([H])([H])[H])(C([H])([H])[H])C([H])([H])[H])C([H])(C(=O)N([H])C2([H])c4c([H])c([H])c([H])c([H])c4C([H])([H])C([H])([H])C2([H])[H])C3([H])[H])nc(C(C([H])([H])[H])(C([H])([H])[H])C([H])(C([H])([H])[H])C([H])([H])N([H])C(=O)N2C([H])([H])C([H])([H])C([H])([H])C([H])(n3nc(-c4c([H])c([H])c(Oc5c([H])c([H])c(F)c([H])c5F)c([H])c4[H])c(C(=O)N([H])[H])c3N([H])[H])C2([H])[H])nc1C(C([H])([H])[H])(C([H])([H])[H])C([H])([H])[H]

$$$$
68:0:0
     RDKit          3D

 93101  0  0  1  0  0  0  0  0999 V2000
  -28.9390  -20.3160   18.8150 C   0  0  0  0  0  3  0  0  0  0  0  0
  -29.9950  -21.1390   20.5100 C   0  0  0  0  0  3  0  0  0  0  0  0
  -29.4300  -19.2630   19.5620 C   0  0  0  0  0  0  0  0  0  0  0  0
  -30.1010  -19.8160   20.6620 N   0  0  0  0  0  0  0  0  0  0  0  0
  -29.2570  -21.5190   19.4530 N   0  0  0  0  0  0  0  0  0  0  0  0
  -28.6650  -17.4950   17.9510 C   0  0  0  0  0  1  0  0  0  0  0  0
  -28.0450  -17.3800   20.3610 C   0  0  0  0  0  1  0  0  0  0  0  0
  -29.1670  -17.7500   19.3920 C   0  0  2  0  0  0  0  0  0  0  0  0
  -30.4460  -16.8740   19.6840 C   0  0  0  0  0  2  0  0  0  0  0  0
  -30.6740  -14.4080   19.2380 C   0  0  0  0  0  0  0  0  0  0  0  0
  -30.1300  -12.2560   18.0840 C   0  0  0  0  0  2  0  0  0  0  0  0
  -29.0220  -12.4680   17.0320 C   0  0  0  0  0  2  0  0  0  0  0  0
  -27.6210  -12.3540   17.6630 C   0  0  0  0  0  2  0  0  0  0  0  0
  -27.5010  -13.1660   18.9760 C   0  0  0  0  0  3  0  0  0  0  0  0
  -28.7040  -12.9060   19.8980 C   0  0  0  0  0  2  0  0  0  0  0  0
  -29.9350  -13.2430   19.1670 N   0  0  0  0  0  0  0  0  0  0  0  0
  -31.6100  -14.5850   18.4500 O   0  0  0  0  0  0  0  0  0  0  0  0
  -30.2710  -15.4210   20.0940 N   0  0  0  0  0  0  0  0  0  0  0  0
  -25.2310  -13.8210   20.0000 C   0  0  0  0  0  0  0  0  0  0  0  0
  -24.2210  -13.0750   20.5410 C   0  0  0  0  0  0  0  0  0  0  0  0
  -24.6530  -11.7180   20.4670 C   0  0  0  0  0  0  0  0  0  0  0  0
  -26.2270  -12.9210   19.6490 N   0  0  0  0  0  0  0  0  0  0  0  0
  -25.8850  -11.6500   19.9780 N   0  0  0  0  0  0  0  0  0  0  0  0
  -23.9420  -10.4740   20.7840 C   0  0  0  0  0  0  0  0  0  0  0  0
  -24.4360   -9.5580   21.7380 C   0  0  0  0  0  3  0  0  0  0  0  0
  -23.7190   -8.3800   22.0370 C   0  0  0  0  0  3  0  0  0  0  0  0
  -22.4960   -8.1070   21.3800 C   0  0  0  0  0  0  0  0  0  0  0  0
  -22.0250   -9.0080   20.4100 C   0  0  0  0  0  3  0  0  0  0  0  0
  -22.7410  -10.1790   20.1100 C   0  0  0  0  0  3  0  0  0  0  0  0
  -21.7430   -6.9780   21.5860 O   0  0  0  0  0  0  0  0  0  0  0  0
  -21.7100   -6.3500   22.8040 C   0  0  0  0  0  0  0  0  0  0  0  0
  -21.3000   -7.0210   23.9780 C   0  0  0  0  0  3  0  0  0  0  0  0
  -21.2210   -6.3190   25.1970 C   0  0  0  0  0  3  0  0  0  0  0  0
  -21.5430   -4.9490   25.2450 C   0  0  0  0  0  0  0  0  0  0  0  0
  -21.9390   -4.2790   24.0740 C   0  0  0  0  0  3  0  0  0  0  0  0
  -22.0240   -4.9780   22.8570 C   0  0  0  0  0  0  0  0  0  0  0  0
  -22.3910   -4.3230   21.7310 F   0  0  0  0  0  0  0  0  0  0  0  0
  -21.4580   -4.2730   26.4140 F   0  0  0  0  0  0  0  0  0  0  0  0
  -22.8910  -13.5830   21.0160 C   0  0  0  0  0  0  0  0  0  0  0  0
  -22.3150  -12.9340   22.0210 N   0  0  0  0  0  0  0  0  0  0  0  0
  -22.3800  -14.5910   20.5300 O   0  0  0  0  0  0  0  0  0  0  0  0
  -22.7560  -12.1260   22.4360 H   0  0  0  0  0  0  0  0  0  0  0  0
  -21.4260  -13.2450   22.3840 H   0  0  0  0  0  0  0  0  0  0  0  0
  -25.3620  -15.1800   19.7440 N   0  0  0  0  0  0  0  0  0  0  0  0
  -24.6110  -15.8400   19.9150 H   0  0  0  0  0  0  0  0  0  0  0  0
  -26.1300  -15.5770   19.2240 H   0  0  0  0  0  0  0  0  0  0  0  0
  -31.3210  -16.1570   22.3470 C   0  0  0  0  0  1  0  0  0  0  0  0
  -29.0530  -15.0040   22.3330 C   0  0  0  0  0  1  0  0  0  0  0  0
  -30.3960  -15.1750   21.5760 C   0  0  0  0  0  3  0  0  0  0  0  0
  -28.8910  -22.8730   18.9810 C   0  0  0  0  0  2  0  0  0  0  0  0
  -28.8620  -24.0190   20.0510 C   0  0  0  0  0  3  0  0  0  0  0  0
  -28.8280  -25.4700   19.4670 C   0  0  0  0  0  3  0  0  0  0  0  0
  -28.6050  -26.5420   20.4290 O   0  0  0  0  0  0  0  0  0  0  0  0
  -24.7820  -31.8080   23.4620 C   0  0  0  0  0  0  0  0  0  0  0  0
  -27.4390  -27.2980   20.4160 C   0  0  0  0  0  0  0  0  0  0  0  0
  -23.6080  -30.4250   21.7910 C   0  0  0  0  0  3  0  0  0  0  0  0
  -25.0700  -28.8710   20.4020 C   0  0  0  0  0  0  0  0  0  0  0  0
  -26.1490  -30.7430   21.6580 C   0  0  0  0  0  2  0  0  0  0  0  0
  -26.2300  -29.3720   21.0080 C   0  0  0  0  0  0  0  0  0  0  0  0
  -27.4170  -28.5930   21.0030 C   0  0  0  0  0  3  0  0  0  0  0  0
  -26.2420  -26.8240   19.8280 C   0  0  0  0  0  3  0  0  0  0  0  0
  -25.0710  -27.5990   19.8170 C   0  0  0  0  0  3  0  0  0  0  0  0
  -23.8410  -29.7490   20.4180 C   0  0  0  0  0  2  0  0  0  0  0  0
  -24.8660  -31.0050   22.3650 N   0  0  0  0  0  0  0  0  0  0  0  0
  -23.6860  -32.0940   23.9690 O   0  0  0  0  0  0  0  0  0  0  0  0
  -22.9160  -29.4090   22.7290 C   0  0  0  0  0  0  0  0  0  0  0  0
  -21.6030  -29.2120   22.5330 N   0  0  0  0  0  0  0  0  0  0  0  0
  -23.5600  -28.7980   23.5870 O   0  0  0  0  0  0  0  0  0  0  0  0
  -21.1380  -29.7600   21.8210 H   0  0  0  0  0  0  0  0  0  0  0  0
  -18.2250  -27.9770   22.8550 C   0  0  0  0  0  0  0  0  0  0  0  0
  -20.7580  -28.2740   23.2700 C   0  0  0  0  0  3  0  0  0  0  0  0
  -20.9160  -26.8360   22.7270 C   0  0  0  0  0  2  0  0  0  0  0  0
  -19.8780  -26.4810   21.6560 C   0  0  0  0  0  2  0  0  0  0  0  0
  -18.4580  -26.6190   22.2160 C   0  0  0  0  0  2  0  0  0  0  0  0
  -19.3050  -28.7610   23.3360 C   0  0  0  0  0  0  0  0  0  0  0  0
  -19.0380  -30.0330   23.8880 C   0  0  0  0  0  3  0  0  0  0  0  0
  -17.7190  -30.5190   23.9680 C   0  0  0  0  0  3  0  0  0  0  0  0
  -16.6520  -29.7320   23.5040 C   0  0  0  0  0  3  0  0  0  0  0  0
  -16.9040  -28.4640   22.9520 C   0  0  0  0  0  3  0  0  0  0  0  0
  -26.0550  -32.4250   24.1240 C   0  0  0  0  0  3  0  0  0  0  0  0
  -25.7600  -33.8300   24.4400 N   0  0  0  0  0  0  0  0  0  0  0  0
  -26.1340  -34.8720   23.6860 C   0  0  0  0  0  0  0  0  0  0  0  0
  -26.8330  -34.7500   22.6780 O   0  0  0  0  0  0  0  0  0  0  0  0
  -25.1560  -34.0030   25.2280 H   0  0  0  0  0  0  0  0  0  0  0  0
  -24.4510  -36.6830   23.2630 C   0  0  0  0  0  1  0  0  0  0  0  0
  -25.6540  -36.2680   24.1220 C   0  0  0  0  0  3  0  0  0  0  0  0
  -27.7690  -37.1150   25.0310 C   0  0  0  0  0  1  0  0  0  0  0  0
  -26.7060  -37.3060   24.0470 N   0  0  0  0  0  0  0  0  0  0  0  0
  -26.3100  -38.2320   24.1820 H   0  0  0  0  0  0  0  0  0  0  0  0
  -26.5180  -31.6540   25.4180 C   0  0  1  0  0  0  0  0  0  0  0  0
  -25.3840  -31.4080   26.4390 C   0  0  0  0  0  1  0  0  0  0  0  0
  -27.1120  -30.2790   25.0380 C   0  0  0  0  0  1  0  0  0  0  0  0
  -27.6350  -32.4510   26.1320 C   0  0  0  0  0  1  0  0  0  0  0  0
  1  5  1  0
  1  3  2  0
  2  4  2  0
  3  4  1  0
  5  2  1  0
  8  6  1  6
  8  3  1  0
  8  9  1  0
  8  7  1  0
  9 18  1  0
 10 18  1  0
 11 16  1  0
 12 13  1  0
 12 11  1  0
 14 13  1  0
 14 22  1  0
 14 15  1  0
 16 10  1  0
 16 15  1  0
 17 10  2  0
 18 49  1  0
 19 20  2  0
 20 39  1  0
 21 20  1  0
 21 24  1  0
 22 23  1  0
 22 19  1  0
 23 21  2  0
 24 25  1  0
 25 26  2  0
 27 30  1  0
 27 26  1  0
 28 27  2  0
 29 28  1  0
 29 24  2  0
 30 31  1  0
 31 36  2  0
 31 32  1  0
 32 33  2  0
 33 34  1  0
 34 38  1  0
 35 34  2  0
 36 35  1  0
 37 36  1  0
 39 40  1  0
 40 43  1  0
 40 42  1  0
 41 39  2  0
 44 45  1  0
 44 19  1  0
 46 44  1  0
 49 48  1  0
 49 47  1  0
 50  5  1  0
 50 51  1  0
 52 51  2  0
 52 53  1  0
 54 65  2  0
 55 53  1  0
 55 60  1  0
 56 64  1  0
 56 66  1  0
 57 63  1  0
 57 59  1  0
 58 64  1  0
 59 58  1  0
 60 59  2  0
 61 55  2  0
 62 61  1  0
 62 57  2  0
 63 56  1  0
 64 54  1  0
 66 68  2  0
 67 66  1  0
 69 67  1  0
 70 79  2  0
 70 75  1  0
 71 67  1  0
 71 75  1  0
 72 71  1  0
 73 74  1  0
 73 72  1  0
 74 70  1  0
 75 76  2  0
 76 77  1  0
 78 77  2  0
 79 78  1  0
 80 54  1  0
 80 81  1  0
 80 90  1  0
 81 84  1  0
 82 86  1  0
 82 81  1  0
 83 82  2  0
 86 85  1  0
 88 86  1  0
 88 89  1  0
 88 87  1  0
 90 93  1  1
 90 91  1  0
 92 90  1  0
M  ISO  4  10 100  18 100  52 101  53 101
M  END
>  <TORSDO>  (64) 
F 22

>  <SCORE>  (64) 
-8.305

>  <name>  (64) 
68

>  <ligand_id>  (64) 
68

>  <original_smiles>  (64) 
[H]c1c([H])c([H])c2c(c1[H])C([H])([H])C([H])([H])C([H])([H])C2([H])N([H])C(=O)C1([H])N(C(=O)C([H])(N([H])C(=O)C([H])(N([H])C([H])([H])[H])C([H])([H])[H])C(C([H])([H])[H])(C([H])([H])[H])C([H])([H])[H])C([H])([H])c2c([H])c(OC([H])([H])C([H])([H])C([H])([H])n3c([H])nc(C(C([H])([H])[H])(C([H])([H])[H])C([H])([H])N(C(=O)N4C([H])([H])C([H])([H])C([H])([H])C([H])(n5nc(-c6c([H])c([H])c(Oc7c([H])c([H])c(F)c([H])c7F)c([H])c6[H])c(C(=O)N([H])[H])c5N([H])[H])C4([H])[H])C([H])(C([H])([H])[H])C([H])([H])[H])c3[H])c([H])c([H])c2C1([H])[H]

>  <smiles>  (64) 
[H]c1c([H])c([H])c2c(c1[H])C([H])([H])C([H])([H])C([H])([H])C2([H])N([H])C(=O)C1([H])N(C(=O)C([H])(N([H])C(=O)C([H])(N([H])C([H])([H])[H])C([H])([H])[H])C(C([H])([H])[H])(C([H])([H])[H])C([H])([H])[H])C([H])([H])c2c([H])c(OC([H])([H])C([H])([H])C([H])([H])n3c([H])nc(C(C([H])([H])[H])(C([H])([H])[H])C([H])([H])N(C(=O)N4C([H])([H])C([H])([H])C([H])([H])C([H])(n5nc(-c6c([H])c([H])c(Oc7c([H])c([H])c(F)c([H])c7F)c([H])c6[H])c(C(=O)N([H])[H])c5N([H])[H])C4([H])[H])C([H])(C([H])([H])[H])C([H])([H])[H])c3[H])c([H])c([H])c2C1([H])[H]

$$$$
69:0:0
     RDKit          3D

 93101  0  0  1  0  0  0  0  0999 V2000
  -27.7630  -22.2100   19.5140 C   0  0  0  0  0  1  0  0  0  0  0  0
  -28.6690  -22.7350   20.6510 C   0  0  0  0  0  3  0  0  0  0  0  0
  -29.9040  -24.7140   21.7030 C   0  0  0  0  0  1  0  0  0  0  0  0
  -30.2820  -24.2140   19.2740 C   0  0  0  0  0  1  0  0  0  0  0  0
  -29.2460  -24.1940   20.4130 C   0  0  1  0  0  0  0  0  0  0  0  0
  -28.0820  -25.1730   20.0430 C   0  0  0  0  0  2  0  0  0  0  0  0
  -28.3270  -26.6040   20.1280 O   0  0  0  0  0  0  0  0  0  0  0  0
  -24.5960  -31.8740   23.2220 C   0  0  0  0  0  0  0  0  0  0  0  0
  -27.1880  -27.4030   20.1010 C   0  0  0  0  0  0  0  0  0  0  0  0
  -23.3740  -30.4830   21.5900 C   0  0  0  0  0  3  0  0  0  0  0  0
  -24.8080  -28.9550   20.1410 C   0  0  0  0  0  0  0  0  0  0  0  0
  -25.9050  -30.8270   21.3740 C   0  0  0  0  0  2  0  0  0  0  0  0
  -25.9800  -29.4580   20.7210 C   0  0  0  0  0  0  0  0  0  0  0  0
  -27.1730  -28.6900   20.6970 C   0  0  0  0  0  3  0  0  0  0  0  0
  -25.9920  -26.9410   19.5000 C   0  0  0  0  0  3  0  0  0  0  0  0
  -24.8110  -27.6960   19.5280 C   0  0  0  0  0  3  0  0  0  0  0  0
  -23.5690  -29.8170   20.2040 C   0  0  0  0  0  2  0  0  0  0  0  0
  -24.6440  -31.0760   22.1180 N   0  0  0  0  0  0  0  0  0  0  0  0
  -23.5200  -32.1450   23.7730 O   0  0  0  0  0  0  0  0  0  0  0  0
  -22.7310  -29.4530   22.5490 C   0  0  0  0  0  0  0  0  0  0  0  0
  -21.4050  -29.2730   22.4340 N   0  0  0  0  0  0  0  0  0  0  0  0
  -23.4210  -28.8230   23.3550 O   0  0  0  0  0  0  0  0  0  0  0  0
  -20.9090  -29.8330   21.7550 H   0  0  0  0  0  0  0  0  0  0  0  0
  -18.0350  -28.0760   22.9500 C   0  0  0  0  0  0  0  0  0  0  0  0
  -20.5940  -28.3350   23.2090 C   0  0  0  0  0  3  0  0  0  0  0  0
  -20.6940  -26.9050   22.6320 C   0  0  0  0  0  2  0  0  0  0  0  0
  -19.5870  -26.5800   21.6230 C   0  0  0  0  0  2  0  0  0  0  0  0
  -18.2090  -26.7260   22.2760 C   0  0  0  0  0  2  0  0  0  0  0  0
  -19.1560  -28.8380   23.3740 C   0  0  0  0  0  0  0  0  0  0  0  0
  -18.9400  -30.1020   23.9650 C   0  0  0  0  0  3  0  0  0  0  0  0
  -17.6360  -30.6040   24.1370 C   0  0  0  0  0  3  0  0  0  0  0  0
  -16.5290  -29.8380   23.7310 C   0  0  0  0  0  3  0  0  0  0  0  0
  -16.7300  -28.5760   23.1420 C   0  0  0  0  0  3  0  0  0  0  0  0
  -25.8890  -32.5030   23.8300 C   0  0  0  0  0  3  0  0  0  0  0  0
  -25.5790  -33.8960   24.1740 N   0  0  0  0  0  0  0  0  0  0  0  0
  -25.9000  -34.9570   23.4190 C   0  0  0  0  0  0  0  0  0  0  0  0
  -26.5590  -34.8630   22.3800 O   0  0  0  0  0  0  0  0  0  0  0  0
  -24.9930  -34.0400   24.9840 H   0  0  0  0  0  0  0  0  0  0  0  0
  -24.1600  -36.7440   23.1000 C   0  0  0  0  0  1  0  0  0  0  0  0
  -25.4120  -36.3390   23.8940 C   0  0  0  0  0  3  0  0  0  0  0  0
  -27.5540  -37.2220   24.7040 C   0  0  0  0  0  1  0  0  0  0  0  0
  -26.4390  -37.3970   23.7780 N   0  0  0  0  0  0  0  0  0  0  0  0
  -26.0300  -38.3130   23.9440 H   0  0  0  0  0  0  0  0  0  0  0  0
  -26.4260  -31.7210   25.0910 C   0  0  1  0  0  0  0  0  0  0  0  0
  -25.3500  -31.4690   26.1730 C   0  0  0  0  0  1  0  0  0  0  0  0
  -27.0070  -30.3480   24.6760 C   0  0  0  0  0  1  0  0  0  0  0  0
  -27.5850  -32.5100   25.7430 C   0  0  0  0  0  1  0  0  0  0  0  0
  -29.6150  -21.5880   21.1700 C   0  0  0  0  0  2  0  0  0  0  0  0
  -30.5880  -20.8880   20.1750 C   0  0  0  0  0  2  0  0  0  0  0  0
  -32.0440  -18.8470   21.1350 C   0  0  0  0  0  3  0  0  0  0  0  0
  -31.8230  -17.4910   21.1050 C   0  0  0  0  0  3  0  0  0  0  0  0
  -30.9070  -19.4270   20.5030 C   0  0  0  0  0  0  0  0  0  0  0  0
  -30.0620  -18.4740   20.1370 N   0  0  0  0  0  0  0  0  0  0  0  0
  -30.6270  -17.2620   20.4460 N   0  0  0  0  0  0  0  0  0  0  0  0
  -29.1790  -16.2340   18.8030 C   0  0  0  0  0  1  0  0  0  0  0  0
  -28.7750  -16.0300   21.3510 C   0  0  0  0  0  1  0  0  0  0  0  0
  -29.8250  -16.0180   20.2090 C   0  0  2  0  0  0  0  0  0  0  0  0
  -30.6260  -14.6370   20.1340 C   0  0  0  0  0  0  0  0  0  0  0  0
  -30.3660  -12.3800   19.1420 C   0  0  0  0  0  2  0  0  0  0  0  0
  -29.3970  -12.4900   17.9410 C   0  0  0  0  0  2  0  0  0  0  0  0
  -27.9160  -12.3990   18.3850 C   0  0  0  0  0  2  0  0  0  0  0  0
  -27.5930  -13.2410   19.6500 C   0  0  0  0  0  3  0  0  0  0  0  0
  -28.6890  -13.0490   20.7220 C   0  0  0  0  0  2  0  0  0  0  0  0
  -29.9870  -13.4160   20.1230 N   0  0  0  0  0  0  0  0  0  0  0  0
  -31.8140  -14.7040   19.8030 O   0  0  0  0  0  0  0  0  0  0  0  0
  -25.2250  -13.8930   20.4110 C   0  0  0  0  0  0  0  0  0  0  0  0
  -24.1580  -13.1360   20.8110 C   0  0  0  0  0  0  0  0  0  0  0  0
  -24.6020  -11.7790   20.7710 C   0  0  0  0  0  0  0  0  0  0  0  0
  -26.2530  -12.9920   20.1630 N   0  0  0  0  0  0  0  0  0  0  0  0
  -25.8840  -11.7180   20.4370 N   0  0  0  0  0  0  0  0  0  0  0  0
  -23.8690  -10.5280   20.9770 C   0  0  0  0  0  0  0  0  0  0  0  0
  -24.3170   -9.5580   21.9010 C   0  0  0  0  0  3  0  0  0  0  0  0
  -23.5870   -8.3670   22.0950 C   0  0  0  0  0  3  0  0  0  0  0  0
  -22.3970   -8.1410   21.3650 C   0  0  0  0  0  0  0  0  0  0  0  0
  -21.9680   -9.1000   20.4310 C   0  0  0  0  0  3  0  0  0  0  0  0
  -22.6990  -10.2820   20.2350 C   0  0  0  0  0  3  0  0  0  0  0  0
  -21.6350   -7.0040   21.4680 O   0  0  0  0  0  0  0  0  0  0  0  0
  -21.6040   -6.2630   22.6220 C   0  0  0  0  0  0  0  0  0  0  0  0
  -21.2330   -6.8280   23.8610 C   0  0  0  0  0  3  0  0  0  0  0  0
  -21.1400   -6.0140   25.0060 C   0  0  0  0  0  3  0  0  0  0  0  0
  -21.4170   -4.6370   24.9150 C   0  0  0  0  0  0  0  0  0  0  0  0
  -21.7890   -4.0720   23.6820 C   0  0  0  0  0  3  0  0  0  0  0  0
  -21.8790   -4.8840   22.5380 C   0  0  0  0  0  0  0  0  0  0  0  0
  -22.2120   -4.3290   21.3470 F   0  0  0  0  0  0  0  0  0  0  0  0
  -21.3270   -3.8530   26.0160 F   0  0  0  0  0  0  0  0  0  0  0  0
  -22.7740  -13.6330   21.1120 C   0  0  0  0  0  0  0  0  0  0  0  0
  -22.0590  -12.9510   21.9990 N   0  0  0  0  0  0  0  0  0  0  0  0
  -22.3370  -14.6620   20.6000 O   0  0  0  0  0  0  0  0  0  0  0  0
  -22.4290  -12.1180   22.4340 H   0  0  0  0  0  0  0  0  0  0  0  0
  -21.1320  -13.2670   22.2440 H   0  0  0  0  0  0  0  0  0  0  0  0
  -25.3930  -15.2610   20.2200 N   0  0  0  0  0  0  0  0  0  0  0  0
  -24.6440  -15.9300   20.3640 H   0  0  0  0  0  0  0  0  0  0  0  0
  -26.2510  -15.6940   19.9050 H   0  0  0  0  0  0  0  0  0  0  0  0
  2  1  1  0
  2 48  1  0
  5  4  1  6
  5  2  1  0
  5  3  1  0
  6  7  1  0
  6  5  1  0
  8 19  2  0
  9  7  1  0
  9 14  1  0
 10 18  1  0
 10 20  1  0
 11 17  1  0
 11 13  1  0
 12 18  1  0
 13 12  1  0
 14 13  2  0
 15 16  1  0
 15  9  2  0
 16 11  2  0
 17 10  1  0
 18  8  1  0
 20 22  2  0
 21 20  1  0
 23 21  1  0
 24 33  2  0
 24 29  1  0
 25 21  1  0
 25 29  1  0
 26 25  1  0
 27 28  1  0
 27 26  1  0
 28 24  1  0
 29 30  2  0
 30 31  1  0
 32 31  2  0
 33 32  1  0
 34  8  1  0
 34 35  1  0
 34 44  1  0
 35 38  1  0
 36 40  1  0
 36 35  1  0
 37 36  2  0
 40 39  1  0
 42 40  1  0
 42 43  1  0
 42 41  1  0
 44 47  1  1
 44 45  1  0
 46 44  1  0
 49 52  1  0
 49 48  1  0
 51 50  2  0
 52 50  1  0
 53 54  1  0
 53 52  2  0
 54 51  1  0
 57 55  1  6
 57 54  1  0
 57 56  1  0
 58 57  1  0
 59 64  1  0
 60 61  1  0
 60 59  1  0
 62 61  1  0
 62 69  1  0
 62 63  1  0
 64 58  1  0
 64 63  1  0
 65 58  2  0
 66 67  2  0
 67 86  1  0
 68 67  1  0
 68 71  1  0
 69 66  1  0
 69 70  1  0
 70 68  2  0
 71 72  1  0
 72 73  2  0
 74 77  1  0
 74 73  1  0
 75 74  2  0
 76 75  1  0
 76 71  2  0
 77 78  1  0
 78 79  1  0
 79 80  2  0
 81 80  1  0
 81 85  1  0
 82 81  2  0
 83 78  2  0
 83 82  1  0
 84 83  1  0
 86 87  1  0
 87 90  1  0
 87 89  1  0
 88 86  2  0
 91 92  1  0
 91 66  1  0
 93 91  1  0
M  ISO  4   6 101   7 101  57 100  58 100
M  END
>  <TORSDO>  (65) 
F 22

>  <SCORE>  (65) 
-12.813

>  <name>  (65) 
69

>  <ligand_id>  (65) 
69

>  <original_smiles>  (65) 
[H]c1c([H])c([H])c2c(c1[H])C([H])([H])C([H])([H])C([H])([H])C2([H])N([H])C(=O)C1([H])N(C(=O)C([H])(N([H])C(=O)C([H])(N([H])C([H])([H])[H])C([H])([H])[H])C(C([H])([H])[H])(C([H])([H])[H])C([H])([H])[H])C([H])([H])c2c([H])c(OC([H])([H])C(C([H])([H])[H])(C([H])([H])[H])C([H])(C([H])([H])[H])C([H])([H])C([H])([H])c3nn(C(C(=O)N4C([H])([H])C([H])([H])C([H])([H])C([H])(n5nc(-c6c([H])c([H])c(Oc7c([H])c([H])c(F)c([H])c7F)c([H])c6[H])c(C(=O)N([H])[H])c5N([H])[H])C4([H])[H])(C([H])([H])[H])C([H])([H])[H])c([H])c3[H])c([H])c([H])c2C1([H])[H]

>  <smiles>  (65) 
[H]c1c([H])c([H])c2c(c1[H])C([H])([H])C([H])([H])C([H])([H])C2([H])N([H])C(=O)C1([H])N(C(=O)C([H])(N([H])C(=O)C([H])(N([H])C([H])([H])[H])C([H])([H])[H])C(C([H])([H])[H])(C([H])([H])[H])C([H])([H])[H])C([H])([H])c2c([H])c(OC([H])([H])C(C([H])([H])[H])(C([H])([H])[H])C([H])(C([H])([H])[H])C([H])([H])C([H])([H])c3nn(C(C(=O)N4C([H])([H])C([H])([H])C([H])([H])C([H])(n5nc(-c6c([H])c([H])c(Oc7c([H])c([H])c(F)c([H])c7F)c([H])c6[H])c(C(=O)N([H])[H])c5N([H])[H])C4([H])[H])(C([H])([H])[H])C([H])([H])[H])c([H])c3[H])c([H])c([H])c2C1([H])[H]

$$$$
70:0:0
     RDKit          3D

 94102  0  0  1  0  0  0  0  0999 V2000
  -28.3680  -21.5940   19.2660 C   0  0  0  0  0  0  0  0  0  0  0  0
  -29.9970  -20.7100   21.2240 C   0  0  0  0  0  0  0  0  0  0  0  0
  -28.7090  -22.4930   20.3240 C   0  0  0  0  0  0  0  0  0  0  0  0
  -29.7110  -19.8200   20.1300 C   0  0  0  0  0  0  0  0  0  0  0  0
  -27.4290  -22.0140   18.1520 C   0  0  0  0  0  1  0  0  0  0  0  0
  -30.7810  -20.2950   22.4530 C   0  0  0  0  0  1  0  0  0  0  0  0
  -29.5420  -22.0050   21.2870 N   0  0  0  0  0  0  0  0  0  0  0  0
  -28.8520  -20.3080   19.1780 N   0  0  0  0  0  0  0  0  0  0  0  0
  -31.8300  -18.3350   20.4400 C   0  0  0  0  0  1  0  0  0  0  0  0
  -30.5940  -18.2050   18.3470 C   0  0  0  0  0  1  0  0  0  0  0  0
  -30.3900  -18.3720   19.8740 C   0  0  2  0  0  0  0  0  0  0  0  0
  -29.5750  -17.0730   20.3550 C   0  0  0  0  0  2  0  0  0  0  0  0
  -30.8350  -14.7490   20.0450 C   0  0  0  0  0  0  0  0  0  0  0  0
  -30.5510  -12.5160   18.9510 C   0  0  0  0  0  2  0  0  0  0  0  0
  -29.5460  -12.6310   17.7850 C   0  0  0  0  0  2  0  0  0  0  0  0
  -28.1010  -12.4620   18.2910 C   0  0  0  0  0  2  0  0  0  0  0  0
  -27.8080  -13.3270   19.5440 C   0  0  0  0  0  3  0  0  0  0  0  0
  -28.9180  -13.1730   20.6050 C   0  0  0  0  0  2  0  0  0  0  0  0
  -30.1960  -13.5310   19.9700 N   0  0  0  0  0  0  0  0  0  0  0  0
  -31.8870  -14.9360   19.4280 O   0  0  0  0  0  0  0  0  0  0  0  0
  -30.4120  -15.6830   22.2430 C   0  0  0  0  0  1  0  0  0  0  0  0
  -30.2440  -15.7610   20.7840 N   0  0  0  0  0  0  0  0  0  0  0  0
  -25.4770  -13.9290   20.4360 C   0  0  0  0  0  0  0  0  0  0  0  0
  -24.4240  -13.1570   20.8460 C   0  0  0  0  0  0  0  0  0  0  0  0
  -24.8610  -11.8010   20.7350 C   0  0  0  0  0  0  0  0  0  0  0  0
  -26.4880  -13.0440   20.1010 N   0  0  0  0  0  0  0  0  0  0  0  0
  -26.1270  -11.7560   20.3410 N   0  0  0  0  0  0  0  0  0  0  0  0
  -24.1280  -10.5410   20.9240 C   0  0  0  0  0  0  0  0  0  0  0  0
  -24.5520   -9.5730   21.8610 C   0  0  0  0  0  3  0  0  0  0  0  0
  -23.8180   -8.3810   22.0380 C   0  0  0  0  0  3  0  0  0  0  0  0
  -22.6470   -8.1470   21.2770 C   0  0  0  0  0  0  0  0  0  0  0  0
  -22.2420   -9.1050   20.3310 C   0  0  0  0  0  3  0  0  0  0  0  0
  -22.9760  -10.2900   20.1530 C   0  0  0  0  0  3  0  0  0  0  0  0
  -21.8850   -7.0060   21.3640 O   0  0  0  0  0  0  0  0  0  0  0  0
  -21.7510   -6.3180   22.5430 C   0  0  0  0  0  0  0  0  0  0  0  0
  -21.2380   -6.9280   23.7080 C   0  0  0  0  0  3  0  0  0  0  0  0
  -21.0520   -6.1670   24.8780 C   0  0  0  0  0  3  0  0  0  0  0  0
  -21.3690   -4.7950   24.8840 C   0  0  0  0  0  0  0  0  0  0  0  0
  -21.8740   -4.1840   23.7230 C   0  0  0  0  0  3  0  0  0  0  0  0
  -22.0630   -4.9440   22.5550 C   0  0  0  0  0  0  0  0  0  0  0  0
  -22.5310   -4.3450   21.4330 F   0  0  0  0  0  0  0  0  0  0  0  0
  -21.1820   -4.0600   26.0050 F   0  0  0  0  0  0  0  0  0  0  0  0
  -23.0550  -13.6430   21.2260 C   0  0  0  0  0  0  0  0  0  0  0  0
  -22.3770  -12.9310   22.1190 N   0  0  0  0  0  0  0  0  0  0  0  0
  -22.5970  -14.6890   20.7660 O   0  0  0  0  0  0  0  0  0  0  0  0
  -22.7610  -12.0870   22.5170 H   0  0  0  0  0  0  0  0  0  0  0  0
  -21.4600  -13.2390   22.4150 H   0  0  0  0  0  0  0  0  0  0  0  0
  -25.6540  -15.3030   20.3020 N   0  0  0  0  0  0  0  0  0  0  0  0
  -24.9170  -15.9680   20.5010 H   0  0  0  0  0  0  0  0  0  0  0  0
  -26.4990  -15.7380   19.9530 H   0  0  0  0  0  0  0  0  0  0  0  0
  -28.0540  -24.3230   22.0340 C   0  0  0  0  0  1  0  0  0  0  0  0
  -28.0890  -23.9520   20.5390 C   0  0  0  0  0  3  0  0  0  0  0  0
  -28.6100  -25.1930   19.6740 C   0  0  0  0  0  2  0  0  0  0  0  0
  -28.4700  -26.6050   20.1250 O   0  0  0  0  0  0  0  0  0  0  0  0
  -24.6050  -31.8750   23.1240 C   0  0  0  0  0  0  0  0  0  0  0  0
  -27.3050  -27.3800   20.0460 C   0  0  0  0  0  0  0  0  0  0  0  0
  -23.4280  -30.4660   21.4690 C   0  0  0  0  0  3  0  0  0  0  0  0
  -24.9080  -28.9420   20.0360 C   0  0  0  0  0  0  0  0  0  0  0  0
  -25.9590  -30.8280   21.2950 C   0  0  0  0  0  2  0  0  0  0  0  0
  -26.0620  -29.4550   20.6390 C   0  0  0  0  0  0  0  0  0  0  0  0
  -27.2590  -28.6820   20.6350 C   0  0  0  0  0  3  0  0  0  0  0  0
  -26.1300  -26.9100   19.4240 C   0  0  0  0  0  3  0  0  0  0  0  0
  -24.9440  -27.6770   19.4190 C   0  0  0  0  0  3  0  0  0  0  0  0
  -23.6550  -29.7960   20.0860 C   0  0  0  0  0  2  0  0  0  0  0  0
  -24.6830  -31.0740   22.0210 N   0  0  0  0  0  0  0  0  0  0  0  0
  -23.5160  -32.1330   23.6590 O   0  0  0  0  0  0  0  0  0  0  0  0
  -22.7780  -29.4370   22.4230 C   0  0  0  0  0  0  0  0  0  0  0  0
  -21.4550  -29.2430   22.2950 N   0  0  0  0  0  0  0  0  0  0  0  0
  -23.4650  -28.8160   23.2400 O   0  0  0  0  0  0  0  0  0  0  0  0
  -20.9590  -29.8010   21.6130 H   0  0  0  0  0  0  0  0  0  0  0  0
  -18.0950  -27.9910   22.7720 C   0  0  0  0  0  0  0  0  0  0  0  0
  -20.6480  -28.2900   23.0560 C   0  0  0  0  0  3  0  0  0  0  0  0
  -20.7750  -26.8620   22.4740 C   0  0  0  0  0  2  0  0  0  0  0  0
  -19.6830  -26.5280   21.4520 C   0  0  0  0  0  2  0  0  0  0  0  0
  -18.2970  -26.6490   22.0890 C   0  0  0  0  0  2  0  0  0  0  0  0
  -19.1990  -28.7680   23.2120 C   0  0  0  0  0  0  0  0  0  0  0  0
  -18.9570  -30.0250   23.8090 C   0  0  0  0  0  3  0  0  0  0  0  0
  -17.6450  -30.5050   23.9700 C   0  0  0  0  0  3  0  0  0  0  0  0
  -16.5550  -29.7250   23.5470 C   0  0  0  0  0  3  0  0  0  0  0  0
  -16.7810  -28.4700   22.9550 C   0  0  0  0  0  3  0  0  0  0  0  0
  -25.8750  -32.5240   23.7540 C   0  0  0  0  0  3  0  0  0  0  0  0
  -26.4150  -31.7390   25.0120 C   0  0  1  0  0  0  0  0  0  0  0  0
  -25.3340  -31.4520   26.0800 C   0  0  0  0  0  1  0  0  0  0  0  0
  -27.0260  -30.3820   24.5900 C   0  0  0  0  0  1  0  0  0  0  0  0
  -27.5510  -32.5440   25.6860 C   0  0  0  0  0  1  0  0  0  0  0  0
  -25.5340  -33.9070   24.1180 N   0  0  0  0  0  0  0  0  0  0  0  0
  -25.8390  -34.9860   23.3830 C   0  0  0  0  0  0  0  0  0  0  0  0
  -26.5040  -34.9200   22.3470 O   0  0  0  0  0  0  0  0  0  0  0  0
  -24.9370  -34.0270   24.9230 H   0  0  0  0  0  0  0  0  0  0  0  0
  -24.0670  -36.7490   23.0840 C   0  0  0  0  0  1  0  0  0  0  0  0
  -25.3240  -36.3520   23.8750 C   0  0  0  0  0  3  0  0  0  0  0  0
  -27.4450  -37.2700   24.7100 C   0  0  0  0  0  1  0  0  0  0  0  0
  -26.3320  -37.4320   23.7780 N   0  0  0  0  0  0  0  0  0  0  0  0
  -25.9070  -38.3380   23.9490 H   0  0  0  0  0  0  0  0  0  0  0  0
  1  3  1  0
  2  7  1  0
  2  6  1  0
  3 52  1  0
  3  7  2  0
  4  2  2  0
  5  1  1  0
  8  1  2  0
  8  4  1  0
 11 10  1  6
 11  4  1  0
 11 12  1  0
 11  9  1  0
 12 22  1  0
 13 22  1  0
 14 19  1  0
 15 16  1  0
 15 14  1  0
 17 16  1  0
 17 26  1  0
 17 18  1  0
 19 13  1  0
 19 18  1  0
 20 13  2  0
 22 21  1  0
 23 24  2  0
 24 43  1  0
 25 24  1  0
 25 28  1  0
 26 27  1  0
 26 23  1  0
 27 25  2  0
 28 29  1  0
 29 30  2  0
 31 34  1  0
 31 30  1  0
 32 31  2  0
 33 32  1  0
 33 28  2  0
 34 35  1  0
 35 40  2  0
 35 36  1  0
 36 37  2  0
 37 38  1  0
 38 42  1  0
 39 38  2  0
 40 39  1  0
 41 40  1  0
 43 44  1  0
 44 47  1  0
 44 46  1  0
 45 43  2  0
 48 23  1  0
 48 49  1  0
 50 48  1  0
 52 51  1  0
 53 54  1  0
 53 52  1  0
 55 66  2  0
 56 54  1  0
 56 61  1  0
 57 65  1  0
 57 67  1  0
 58 64  1  0
 58 60  1  0
 59 65  1  0
 60 59  1  0
 61 60  2  0
 62 56  2  0
 63 62  1  0
 63 58  2  0
 64 57  1  0
 65 55  1  0
 67 69  2  0
 68 67  1  0
 70 68  1  0
 71 80  2  0
 71 76  1  0
 72 68  1  0
 72 76  1  0
 73 72  1  0
 74 75  1  0
 74 73  1  0
 75 71  1  0
 76 77  2  0
 77 78  1  0
 79 78  2  0
 80 79  1  0
 81 55  1  0
 81 86  1  0
 81 82  1  0
 82 85  1  1
 82 83  1  0
 84 82  1  0
 86 89  1  0
 87 91  1  0
 87 86  1  0
 88 87  2  0
 91 90  1  0
 93 91  1  0
 93 94  1  0
 93 92  1  0
M  ISO  4  13 100  22 100  53 101  54 101
M  END
>  <TORSDO>  (66) 
F 20

>  <SCORE>  (66) 
-13.517

>  <name>  (66) 
70

>  <ligand_id>  (66) 
70

>  <original_smiles>  (66) 
[H]c1c([H])c([H])c2c(c1[H])C([H])([H])C([H])([H])C([H])([H])C2([H])N([H])C(=O)C1([H])N(C(=O)C([H])(N([H])C(=O)C([H])(N([H])C([H])([H])[H])C([H])([H])[H])C(C([H])([H])[H])(C([H])([H])[H])C([H])([H])[H])C([H])([H])c2c([H])c(OC([H])([H])C([H])(c3nc(C([H])([H])[H])c(C(C([H])([H])[H])(C([H])([H])[H])C([H])([H])N(C(=O)N4C([H])([H])C([H])([H])C([H])([H])C([H])(n5nc(-c6c([H])c([H])c(Oc7c([H])c([H])c(F)c([H])c7F)c([H])c6[H])c(C(=O)N([H])[H])c5N([H])[H])C4([H])[H])C([H])([H])[H])nc3C([H])([H])[H])C([H])([H])[H])c([H])c([H])c2C1([H])[H]

>  <smiles>  (66) 
[H]c1c([H])c([H])c2c(c1[H])C([H])([H])C([H])([H])C([H])([H])C2([H])N([H])C(=O)C1([H])N(C(=O)C([H])(N([H])C(=O)C([H])(N([H])C([H])([H])[H])C([H])([H])[H])C(C([H])([H])[H])(C([H])([H])[H])C([H])([H])[H])C([H])([H])c2c([H])c(OC([H])([H])C([H])(c3nc(C([H])([H])[H])c(C(C([H])([H])[H])(C([H])([H])[H])C([H])([H])N(C(=O)N4C([H])([H])C([H])([H])C([H])([H])C([H])(n5nc(-c6c([H])c([H])c(Oc7c([H])c([H])c(F)c([H])c7F)c([H])c6[H])c(C(=O)N([H])[H])c5N([H])[H])C4([H])[H])C([H])([H])[H])nc3C([H])([H])[H])C([H])([H])[H])c([H])c([H])c2C1([H])[H]

$$$$
71:0:0
     RDKit          3D

 93101  0  0  1  0  0  0  0  0999 V2000
  -29.2830  -22.2590   19.2220 C   0  0  0  0  0  3  0  0  0  0  0  0
  -28.3010  -21.7600   21.2020 C   0  0  0  0  0  3  0  0  0  0  0  0
  -28.5430  -22.8630   20.2930 C   0  0  0  0  0  0  0  0  0  0  0  0
  -29.3410  -19.9010   19.9810 C   0  0  0  0  0  0  0  0  0  0  0  0
  -29.6310  -20.9020   19.0890 N   0  0  0  0  0  0  0  0  0  0  0  0
  -28.6460  -20.3940   21.0440 N   0  0  0  0  0  0  0  0  0  0  0  0
  -27.9480  -17.9230   19.0850 C   0  0  0  0  0  1  0  0  0  0  0  0
  -30.1730  -18.3290   18.1440 C   0  0  0  0  0  1  0  0  0  0  0  0
  -29.4100  -18.2360   19.4890 C   0  0  1  0  0  0  0  0  0  0  0  0
  -29.1610  -16.4970   21.5340 C   0  0  0  0  0  1  0  0  0  0  0  0
  -30.0670  -16.7800   20.3070 C   0  0  1  0  0  0  0  0  0  0  0  0
  -30.4970  -15.1870   19.6790 C   0  0  0  0  0  0  0  0  0  0  0  0
  -30.3000  -12.7550   18.7980 C   0  0  0  0  0  2  0  0  0  0  0  0
  -29.2930  -12.6170   17.6320 C   0  0  0  0  0  2  0  0  0  0  0  0
  -27.8790  -12.3820   18.1840 C   0  0  0  0  0  2  0  0  0  0  0  0
  -27.5370  -13.3470   19.3430 C   0  0  0  0  0  3  0  0  0  0  0  0
  -28.6710  -13.4040   20.3890 C   0  0  0  0  0  2  0  0  0  0  0  0
  -29.8830  -13.8970   19.7050 N   0  0  0  0  0  0  0  0  0  0  0  0
  -31.5990  -15.1090   19.1200 O   0  0  0  0  0  0  0  0  0  0  0  0
  -25.2640  -13.9360   20.3440 C   0  0  0  0  0  0  0  0  0  0  0  0
  -24.2160  -13.1800   20.7740 C   0  0  0  0  0  0  0  0  0  0  0  0
  -24.6350  -11.8180   20.6450 C   0  0  0  0  0  0  0  0  0  0  0  0
  -26.2490  -13.0480   19.9550 N   0  0  0  0  0  0  0  0  0  0  0  0
  -25.8900  -11.7630   20.2070 N   0  0  0  0  0  0  0  0  0  0  0  0
  -23.8940  -10.5710   20.8500 C   0  0  0  0  0  0  0  0  0  0  0  0
  -24.3350   -9.5900   21.7660 C   0  0  0  0  0  3  0  0  0  0  0  0
  -23.5920   -8.4060   21.9570 C   0  0  0  0  0  3  0  0  0  0  0  0
  -22.3920   -8.1950   21.2350 C   0  0  0  0  0  0  0  0  0  0  0  0
  -21.9690   -9.1660   20.3090 C   0  0  0  0  0  3  0  0  0  0  0  0
  -22.7140  -10.3420   20.1160 C   0  0  0  0  0  3  0  0  0  0  0  0
  -21.6180   -7.0650   21.3370 O   0  0  0  0  0  0  0  0  0  0  0  0
  -21.5370   -6.3510   22.5060 C   0  0  0  0  0  0  0  0  0  0  0  0
  -21.0830   -6.9360   23.7080 C   0  0  0  0  0  3  0  0  0  0  0  0
  -20.9500   -6.1490   24.8680 C   0  0  0  0  0  3  0  0  0  0  0  0
  -21.2570   -4.7770   24.8310 C   0  0  0  0  0  0  0  0  0  0  0  0
  -21.7040   -4.1890   23.6330 C   0  0  0  0  0  3  0  0  0  0  0  0
  -21.8400   -4.9740   22.4730 C   0  0  0  0  0  0  0  0  0  0  0  0
  -22.2480   -4.3970   21.3180 F   0  0  0  0  0  0  0  0  0  0  0  0
  -21.1240   -4.0190   25.9450 F   0  0  0  0  0  0  0  0  0  0  0  0
  -22.8650  -13.6870   21.1920 C   0  0  0  0  0  0  0  0  0  0  0  0
  -22.1880  -12.9800   22.0850 N   0  0  0  0  0  0  0  0  0  0  0  0
  -22.4230  -14.7520   20.7580 O   0  0  0  0  0  0  0  0  0  0  0  0
  -22.5590  -12.1250   22.4750 H   0  0  0  0  0  0  0  0  0  0  0  0
  -21.2770  -13.2990   22.3880 H   0  0  0  0  0  0  0  0  0  0  0  0
  -25.4600  -15.3080   20.2250 N   0  0  0  0  0  0  0  0  0  0  0  0
  -24.7340  -15.9640   20.4850 H   0  0  0  0  0  0  0  0  0  0  0  0
  -26.2990  -15.7470   19.8740 H   0  0  0  0  0  0  0  0  0  0  0  0
  -31.4190  -17.3160   20.8930 C   0  0  2  0  0  0  0  0  0  0  0  0
  -32.2970  -17.6030   19.9310 F   0  0  0  0  0  0  0  0  0  0  0  0
  -31.9920  -16.4170   21.7020 F   0  0  0  0  0  0  0  0  0  0  0  0
  -31.2420  -18.4280   21.6090 F   0  0  0  0  0  0  0  0  0  0  0  0
  -27.7380  -24.3760   20.2950 C   0  0  0  0  0  2  0  0  0  0  0  0
  -28.1740  -25.9230   20.3320 O   0  0  0  0  0  0  0  0  0  0  0  0
  -24.5940  -31.8370   23.1480 C   0  0  0  0  0  0  0  0  0  0  0  0
  -27.1750  -27.0010   20.2220 C   0  0  0  0  0  0  0  0  0  0  0  0
  -23.4100  -30.4210   21.5200 C   0  0  0  0  0  3  0  0  0  0  0  0
  -24.8680  -28.8240   20.1190 C   0  0  0  0  0  0  0  0  0  0  0  0
  -25.9730  -30.6680   21.3630 C   0  0  0  0  0  2  0  0  0  0  0  0
  -26.0460  -29.2520   20.7460 C   0  0  0  0  0  0  0  0  0  0  0  0
  -27.1970  -28.3630   20.7770 C   0  0  0  0  0  3  0  0  0  0  0  0
  -25.9780  -26.7170   19.5210 C   0  0  0  0  0  3  0  0  0  0  0  0
  -24.8580  -27.5780   19.4790 C   0  0  0  0  0  3  0  0  0  0  0  0
  -23.6420  -29.7330   20.1490 C   0  0  0  0  0  2  0  0  0  0  0  0
  -24.6820  -31.0010   22.0660 N   0  0  0  0  0  0  0  0  0  0  0  0
  -23.5010  -32.1230   23.6620 O   0  0  0  0  0  0  0  0  0  0  0  0
  -22.7280  -29.4230   22.4930 C   0  0  0  0  0  0  0  0  0  0  0  0
  -21.3970  -29.2620   22.3820 N   0  0  0  0  0  0  0  0  0  0  0  0
  -23.4050  -28.7960   23.3130 O   0  0  0  0  0  0  0  0  0  0  0  0
  -20.9140  -29.8240   21.6950 H   0  0  0  0  0  0  0  0  0  0  0  0
  -18.0000  -28.1010   22.9360 C   0  0  0  0  0  0  0  0  0  0  0  0
  -20.5700  -28.3330   23.1600 C   0  0  0  0  0  3  0  0  0  0  0  0
  -20.6420  -26.8990   22.5860 C   0  0  0  0  0  2  0  0  0  0  0  0
  -19.5180  -26.5890   21.5920 C   0  0  0  0  0  2  0  0  0  0  0  0
  -18.1490  -26.7530   22.2530 C   0  0  0  0  0  2  0  0  0  0  0  0
  -19.1350  -28.8510   23.3470 C   0  0  0  0  0  0  0  0  0  0  0  0
  -18.9360  -30.1140   23.9470 C   0  0  0  0  0  3  0  0  0  0  0  0
  -17.6380  -30.6240   24.1420 C   0  0  0  0  0  3  0  0  0  0  0  0
  -16.5200  -29.8730   23.7420 C   0  0  0  0  0  3  0  0  0  0  0  0
  -16.7020  -28.6120   23.1440 C   0  0  0  0  0  3  0  0  0  0  0  0
  -25.8600  -32.4930   23.7810 C   0  0  0  0  0  3  0  0  0  0  0  0
  -26.3690  -31.7350   25.0660 C   0  0  1  0  0  0  0  0  0  0  0  0
  -25.2720  -31.4910   26.1300 C   0  0  0  0  0  1  0  0  0  0  0  0
  -26.9690  -30.3630   24.6860 C   0  0  0  0  0  1  0  0  0  0  0  0
  -27.5110  -32.5420   25.7290 C   0  0  0  0  0  1  0  0  0  0  0  0
  -25.5330  -33.8900   24.1160 N   0  0  0  0  0  0  0  0  0  0  0  0
  -25.8420  -34.9500   23.3580 C   0  0  0  0  0  0  0  0  0  0  0  0
  -26.5050  -34.8550   22.3220 O   0  0  0  0  0  0  0  0  0  0  0  0
  -24.9600  -34.0410   24.9340 H   0  0  0  0  0  0  0  0  0  0  0  0
  -24.1000  -36.7310   23.0140 C   0  0  0  0  0  1  0  0  0  0  0  0
  -25.3450  -36.3330   23.8240 C   0  0  0  0  0  3  0  0  0  0  0  0
  -27.4720  -37.2320   24.6570 C   0  0  0  0  0  1  0  0  0  0  0  0
  -26.3690  -37.3970   23.7140 N   0  0  0  0  0  0  0  0  0  0  0  0
  -25.9550  -38.3140   23.8590 H   0  0  0  0  0  0  0  0  0  0  0  0
  1  3  2  0
  3 52  1  0
  3  2  1  0
  4  6  1  0
  5  1  1  0
  5  4  2  0
  6  2  2  0
  9  7  1  6
  8  9  1  0
  9  4  1  0
  9 11  1  0
 11 48  1  0
 11 10  1  1
 12 18  1  0
 12 11  1  0
 13 18  1  0
 14 15  1  0
 14 13  1  0
 16 15  1  0
 16 23  1  0
 16 17  1  0
 18 17  1  0
 19 12  2  0
 20 21  2  0
 21 40  1  0
 22 21  1  0
 22 25  1  0
 23 24  1  0
 23 20  1  0
 24 22  2  0
 25 26  1  0
 26 27  2  0
 28 31  1  0
 28 27  1  0
 29 28  2  0
 30 29  1  0
 30 25  2  0
 31 32  1  0
 32 33  1  0
 33 34  2  0
 35 34  1  0
 35 39  1  0
 36 35  2  0
 37 32  2  0
 37 36  1  0
 38 37  1  0
 40 41  1  0
 41 44  1  0
 41 43  1  0
 42 40  2  0
 45 20  1  0
 45 46  1  0
 47 45  1  0
 48 51  1  1
 48 50  1  0
 49 48  1  0
 52 53  1  0
 54 65  2  0
 55 53  1  0
 55 60  1  0
 56 64  1  0
 56 66  1  0
 57 63  1  0
 57 59  1  0
 58 64  1  0
 59 60  2  0
 59 58  1  0
 61 55  2  0
 62 61  1  0
 62 57  2  0
 63 56  1  0
 64 54  1  0
 66 68  2  0
 67 66  1  0
 69 67  1  0
 70 79  2  0
 70 75  1  0
 71 67  1  0
 71 75  1  0
 72 71  1  0
 73 74  1  0
 73 72  1  0
 74 70  1  0
 75 76  2  0
 76 77  1  0
 78 77  2  0
 79 78  1  0
 80 54  1  0
 80 85  1  0
 80 81  1  0
 81 84  1  1
 81 82  1  0
 83 81  1  0
 85 88  1  0
 86 90  1  0
 86 85  1  0
 87 86  2  0
 90 89  1  0
 92 90  1  0
 92 93  1  0
 92 91  1  0
M  ISO  4  11 100  12 100  52 101  53 101
M  END
>  <TORSDO>  (67) 
F 20

>  <SCORE>  (67) 
-15.462

>  <name>  (67) 
71

>  <ligand_id>  (67) 
71

>  <original_smiles>  (67) 
[H]c1nc(C(C([H])([H])[H])(C([H])([H])[H])C(C(=O)N2C([H])([H])C([H])([H])C([H])([H])C([H])(n3nc(-c4c([H])c([H])c(Oc5c([H])c([H])c(F)c([H])c5F)c([H])c4[H])c(C(=O)N([H])[H])c3N([H])[H])C2([H])[H])(C([H])([H])[H])C(F)(F)F)nc([H])c1C([H])([H])Oc1c([H])c([H])c2c(c1[H])C([H])([H])N(C(=O)C([H])(N([H])C(=O)C([H])(N([H])C([H])([H])[H])C([H])([H])[H])C(C([H])([H])[H])(C([H])([H])[H])C([H])([H])[H])C([H])(C(=O)N([H])C1([H])c3c([H])c([H])c([H])c([H])c3C([H])([H])C([H])([H])C1([H])[H])C2([H])[H]

>  <smiles>  (67) 
[H]c1nc(C(C([H])([H])[H])(C([H])([H])[H])C(C(=O)N2C([H])([H])C([H])([H])C([H])([H])C([H])(n3nc(-c4c([H])c([H])c(Oc5c([H])c([H])c(F)c([H])c5F)c([H])c4[H])c(C(=O)N([H])[H])c3N([H])[H])C2([H])[H])(C([H])([H])[H])C(F)(F)F)nc([H])c1C([H])([H])Oc1c([H])c([H])c2c(c1[H])C([H])([H])N(C(=O)C([H])(N([H])C(=O)C([H])(N([H])C([H])([H])[H])C([H])([H])[H])C(C([H])([H])[H])(C([H])([H])[H])C([H])([H])[H])C([H])(C(=O)N([H])C1([H])c3c([H])c([H])c([H])c([H])c3C([H])([H])C([H])([H])C1([H])[H])C2([H])[H]

$$$$
72:0:0
     RDKit          3D

 96 97  0  0  1  0  0  0  0  0999 V2000
  -26.6070  -25.2690   20.8170 C   0  0  0  0  0  3  0  0  0  0  0  0
  -25.5380  -24.8820   21.6530 C   0  0  0  0  0  3  0  0  0  0  0  0
  -27.5740  -23.0550   21.1620 C   0  0  0  0  0  2  0  0  0  0  0  0
  -26.2570  -23.4670   21.8210 N   0  0  0  0  0  0  0  0  0  0  0  0
  -27.6640  -24.2920   20.5840 N   0  0  0  0  0  0  0  0  0  0  0  0
  -28.4650  -24.5210   20.0070 H   0  0  0  0  0  0  0  0  0  0  0  0
  -28.7710  -20.9360   22.5490 C   0  0  0  0  0  1  0  0  0  0  0  0
  -30.2350  -22.5330   21.3300 C   0  0  0  0  0  1  0  0  0  0  0  0
  -28.9860  -21.6370   21.1980 C   0  0  0  0  0  2  0  0  0  0  0  0
  -29.8770  -20.0910   20.1900 C   0  0  0  0  0  1  0  0  0  0  0  0
  -31.6680  -17.2530   19.8420 C   0  0  0  0  0  0  0  0  0  0  0  0
  -32.1300  -14.6310   19.1260 C   0  0  0  0  0  2  0  0  0  0  0  0
  -31.2720  -13.9900   17.9770 C   0  0  0  0  0  2  0  0  0  0  0  0
  -29.8740  -13.6100   18.4780 C   0  0  0  0  0  2  0  0  0  0  0  0
  -29.3500  -14.7190   19.4180 C   0  0  0  0  0  3  0  0  0  0  0  0
  -30.3260  -15.1170   20.5360 C   0  0  0  0  0  2  0  0  0  0  0  0
  -31.4120  -15.8040   19.8670 N   0  0  0  0  0  0  0  0  0  0  0  0
  -32.8150  -17.3240   19.3120 O   0  0  0  0  0  0  0  0  0  0  0  0
  -31.6110  -18.8310   21.6600 C   0  0  0  0  0  1  0  0  0  0  0  0
  -30.8400  -18.5100   20.4510 N   0  0  0  0  0  0  0  0  0  0  0  0
  -27.1910  -15.3630   20.5290 C   0  0  0  0  0  0  0  0  0  0  0  0
  -26.1070  -14.6400   20.9180 C   0  0  0  0  0  0  0  0  0  0  0  0
  -26.4020  -13.2760   20.6050 C   0  0  0  0  0  0  0  0  0  0  0  0
  -28.0640  -14.4440   19.9890 N   0  0  0  0  0  0  0  0  0  0  0  0
  -27.6230  -13.1690   20.1000 N   0  0  0  0  0  0  0  0  0  0  0  0
  -25.5680  -12.0770   20.6970 C   0  0  0  0  0  0  0  0  0  0  0  0
  -25.8700  -11.0310   21.5960 C   0  0  0  0  0  3  0  0  0  0  0  0
  -25.0340   -9.8970   21.6750 C   0  0  0  0  0  3  0  0  0  0  0  0
  -23.8830   -9.8060   20.8550 C   0  0  0  0  0  0  0  0  0  0  0  0
  -23.6050  -10.8400   19.9450 C   0  0  0  0  0  3  0  0  0  0  0  0
  -24.4400  -11.9640   19.8620 C   0  0  0  0  0  3  0  0  0  0  0  0
  -23.0280   -8.7320   20.8450 O   0  0  0  0  0  0  0  0  0  0  0  0
  -22.6340   -8.1160   22.0050 C   0  0  0  0  0  0  0  0  0  0  0  0
  -22.0150   -8.8280   23.0550 C   0  0  0  0  0  3  0  0  0  0  0  0
  -21.5630   -8.1410   24.2000 C   0  0  0  0  0  3  0  0  0  0  0  0
  -21.7230   -6.7460   24.2930 C   0  0  0  0  0  0  0  0  0  0  0  0
  -22.3340   -6.0340   23.2460 C   0  0  0  0  0  3  0  0  0  0  0  0
  -22.7860   -6.7180   22.1040 C   0  0  0  0  0  0  0  0  0  0  0  0
  -23.3580   -6.0270   21.0880 F   0  0  0  0  0  0  0  0  0  0  0  0
  -21.2810   -6.0840   25.3880 F   0  0  0  0  0  0  0  0  0  0  0  0
  -24.8290  -15.1980   21.4610 C   0  0  0  0  0  0  0  0  0  0  0  0
  -24.1810  -14.4730   22.3640 N   0  0  0  0  0  0  0  0  0  0  0  0
  -24.4270  -16.3120   21.1230 O   0  0  0  0  0  0  0  0  0  0  0  0
  -24.5280  -13.5720   22.6570 H   0  0  0  0  0  0  0  0  0  0  0  0
  -23.3270  -14.8270   22.7730 H   0  0  0  0  0  0  0  0  0  0  0  0
  -27.5060  -16.7220   20.5640 N   0  0  0  0  0  0  0  0  0  0  0  0
  -26.8520  -17.4140   20.9080 H   0  0  0  0  0  0  0  0  0  0  0  0
  -28.3550  -17.1260   20.1910 H   0  0  0  0  0  0  0  0  0  0  0  0
  -24.1830  -22.4880   22.9420 C   0  0  0  0  0  1  0  0  0  0  0  0
  -25.6910  -22.4110   22.6810 C   0  0  0  0  0  2  0  0  0  0  0  0
  -23.8270  -25.7720   22.1280 C   0  0  0  0  0  1  0  0  0  0  0  0
  -22.6220  -27.4020   22.6700 C   0  0  0  0  0 15  0  0  0  0  0  0
  -21.5430  -29.0820   21.7710 C   0  0  0  0  0 15  0  0  0  0  0  0
  -21.2710  -29.2960   19.4310 C   0  0  0  0  0 15  0  0  0  0  0  0
  -22.4180  -27.9950   18.0680 C   0  0  0  0  0 15  0  0  0  0  0  0
  -24.1490  -27.1880   18.2720 O   0  0  0  0  0  1  0  0  0  0  0  0
  -25.2970  -30.0860   22.7690 C   0  0  0  0  0  0  0  0  0  0  0  0
  -25.5740  -27.3250   17.9040 C   0  0  0  0  0  3  0  0  0  0  0  0
  -24.0760  -29.1880   20.8430 C   0  0  0  0  0  3  0  0  0  0  0  0
  -24.9670  -29.6730   18.5490 C   0  0  0  0  0  3  0  0  0  0  0  0
  -26.4280  -29.7730   20.5590 C   0  0  0  0  0  2  0  0  0  0  0  0
  -26.0980  -29.1930   19.2020 C   0  0  0  0  0  3  0  0  0  0  0  0
  -26.5260  -27.9360   18.7790 C   0  0  0  0  0  2  0  0  0  0  0  0
  -25.3800  -28.0450   16.7720 C   0  0  0  0  0  2  0  0  0  0  0  0
  -24.7190  -29.2170   17.2090 C   0  0  0  0  0  2  0  0  0  0  0  0
  -23.9690  -30.1820   19.5650 C   0  0  0  0  0  2  0  0  0  0  0  0
  -25.2890  -29.6420   21.4850 N   0  0  0  0  0  0  0  0  0  0  0  0
  -24.2820  -30.2440   23.4750 O   0  0  0  0  0  0  0  0  0  0  0  0
  -23.8850  -27.4460   20.7510 C   0  0  0  0  0  3  0  0  0  0  0  0
  -22.6020  -26.5340   20.3010 N   0  0  0  0  0  0  0  0  0  0  0  0
  -24.7490  -26.9100   21.3600 O   0  0  0  0  0  0  0  0  0  0  0  0
  -22.9490  -25.6020   20.1600 H   0  0  0  0  0  0  0  0  0  0  0  0
  -18.1380  -27.2650   21.1580 C   0  0  0  0  0  0  0  0  0  0  0  0
  -20.7880  -26.4200   20.6730 C   0  0  0  0  0  3  0  0  0  0  0  0
  -20.2200  -25.8970   19.4530 C   0  0  0  0  0  2  0  0  0  0  0  0
  -19.1450  -26.7920   18.9140 C   0  0  0  0  0  2  0  0  0  0  0  0
  -17.8950  -26.6980   19.7900 C   0  0  0  0  0  2  0  0  0  0  0  0
  -19.5070  -27.3230   21.6120 C   0  0  0  0  0  0  0  0  0  0  0  0
  -19.5090  -28.2120   22.8020 C   0  0  0  0  0  3  0  0  0  0  0  0
  -18.3750  -28.7590   23.4800 C   0  0  0  0  0  3  0  0  0  0  0  0
  -17.0770  -28.5130   23.0200 C   0  0  0  0  0  3  0  0  0  0  0  0
  -16.9790  -27.7760   21.8320 C   0  0  0  0  0  3  0  0  0  0  0  0
  -26.6620  -30.3100   23.4190 C   0  0  0  0  0  3  0  0  0  0  0  0
  -26.5990  -31.5810   24.1420 N   0  0  0  0  0  0  0  0  0  0  0  0
  -27.1160  -32.7260   23.6850 C   0  0  0  0  0  0  0  0  0  0  0  0
  -27.7530  -32.8040   22.6310 O   0  0  0  0  0  0  0  0  0  0  0  0
  -26.0500  -31.6030   24.9870 H   0  0  0  0  0  0  0  0  0  0  0  0
  -25.8270  -34.8720   23.9320 C   0  0  0  0  0  1  0  0  0  0  0  0
  -26.9140  -33.9790   24.5540 C   0  0  0  0  0  3  0  0  0  0  0  0
  -29.1540  -34.0610   25.5540 C   0  0  0  0  0  1  0  0  0  0  0  0
  -28.1540  -34.7590   24.7490 N   0  0  0  0  0  0  0  0  0  0  0  0
  -27.9570  -35.6540   25.1880 H   0  0  0  0  0  0  0  0  0  0  0  0
  -27.0160  -29.1090   24.3660 C   0  0  1  0  0  0  0  0  0  0  0  0
  -25.8820  -28.7180   25.3450 C   0  0  0  0  0  1  0  0  0  0  0  0
  -27.4050  -27.8370   23.5750 C   0  0  0  0  0  1  0  0  0  0  0  0
  -28.2730  -29.4870   25.1690 C   0  0  0  0  0  1  0  0  0  0  0  0
  1  2  2  0
  2  4  1  0
  3  4  1  0
  4 50  1  0
  5  1  1  0
  5  3  1  0
  6  5  1  0
  9  8  1  0
  9  7  1  0
 10 20  1  0
 11 17  1  0
 11 20  1  0
 12 17  1  0
 13 14  1  0
 13 12  1  0
 15 14  1  0
 15 24  1  0
 15 16  1  0
 17 16  1  0
 18 11  2  0
 20 19  1  0
 21 46  1  0
 21 22  2  0
 22 41  1  0
 23 26  1  0
 23 22  1  0
 24 25  1  0
 24 21  1  0
 25 23  2  0
 26 27  1  0
 27 28  2  0
 29 28  1  0
 30 29  2  0
 31 30  1  0
 31 26  2  0
 32 29  1  0
 32 33  1  0
 33 38  2  0
 33 34  1  0
 34 35  2  0
 35 36  1  0
 36 40  1  0
 37 36  2  0
 38 37  1  0
 39 38  1  0
 41 42  1  0
 42 44  1  0
 42 45  1  0
 43 41  2  0
 46 47  1  0
 48 46  1  0
 50 49  1  0
 57 68  2  0
 58 56  1  0
 58 63  1  0
 59 69  1  0
 59 67  1  0
 60 65  1  0
 60 62  1  0
 60 66  1  0
 61 67  1  0
 62 63  1  0
 62 61  1  0
 64 65  1  0
 64 58  1  0
 66 59  1  0
 67 57  1  0
 69 71  1  0
 70 69  1  0
 71 51  1  0
 72 70  1  0
 73 78  2  0
 73 82  1  0
 74 70  1  0
 74 78  1  0
 75 74  1  0
 76 75  1  0
 76 77  1  0
 77 73  1  0
 78 79  1  0
 79 80  2  0
 81 80  1  0
 82 81  2  0
 83 57  1  0
 83 84  1  0
 83 93  1  0
 84 87  1  0
 85 84  1  0
 85 89  1  0
 86 85  2  0
 89 88  1  0
 89 91  1  0
 91 92  1  0
 91 90  1  0
 93 96  1  1
 93 94  1  0
 95 93  1  0
M  ISO  4  11 100  20 100  55 101  56 101
M  END
>  <TORSDO>  (68) 
F 24

>  <SCORE>  (68) 
2.164

>  <name>  (68) 
72

>  <ligand_id>  (68) 
72

>  <original_smiles>  (68) 
[H]c1c([H])c([H])c2c(c1[H])C([H])([H])C([H])([H])C([H])([H])C2([H])N([H])C(=O)C1([H])N(C(=O)C([H])(N([H])C(=O)C([H])(N([H])C([H])([H])[H])C([H])([H])[H])C(C([H])([H])[H])(C([H])([H])[H])C([H])([H])[H])C([H])([H])c2c([H])c(OC([H])([H])C([H])([H])C([H])([H])C([H])([H])C([H])([H])c3c([H])[n+]([H])c(C(C([H])([H])[H])(C([H])([H])[H])C([H])([H])N(C(=O)N4C([H])([H])C([H])([H])C([H])([H])C([H])(n5nc(-c6c([H])c([H])c(Oc7c([H])c([H])c(F)c([H])c7F)c([H])c6[H])c(C(=O)N([H])[H])c5N([H])[H])C4([H])[H])C([H])([H])[H])n3C([H])([H])C([H])([H])[H])c([H])c([H])c2C1([H])[H]

>  <smiles>  (68) 
[H]c1c([H])c([H])c2c(c1[H])C([H])([H])C([H])([H])C([H])([H])C2([H])N([H])C(=O)C1([H])N(C(=O)C([H])(N([H])C(=O)C([H])(N([H])C([H])([H])[H])C([H])([H])[H])C(C([H])([H])[H])(C([H])([H])[H])C([H])([H])[H])C([H])([H])c2c([H])c(OC([H])([H])C([H])([H])C([H])([H])C([H])([H])C([H])([H])c3c([H])[n+]([H])c(C(C([H])([H])[H])(C([H])([H])[H])C([H])([H])N(C(=O)N4C([H])([H])C([H])([H])C([H])([H])C([H])(n5nc(-c6c([H])c([H])c(Oc7c([H])c([H])c(F)c([H])c7F)c([H])c6[H])c(C(=O)N([H])[H])c5N([H])[H])C4([H])[H])C([H])([H])[H])n3C([H])([H])C([H])([H])[H])c([H])c([H])c2C1([H])[H]

$$$$
73:0:0
     RDKit          3D

 86 94  0  0  1  0  0  0  0  0999 V2000
  -28.5740  -22.5240   19.9020 C   0  0  0  0  0  2  0  0  0  0  0  0
  -29.3600  -21.1300   22.0840 C   0  0  0  0  0  1  0  0  0  0  0  0
  -29.3890  -21.0110   20.5580 C   0  0  0  0  0  3  0  0  0  0  0  0
  -29.8330  -17.0000   20.3100 C   0  0  0  0  0  0  0  0  0  0  0  0
  -28.4640  -17.2330   20.2780 N   0  0  0  0  0  0  0  0  0  0  0  0
  -30.3980  -18.3020   20.3190 N   0  0  0  0  0  2  0  0  0  0  0  0
  -28.1830  -18.5590   20.2720 N   0  0  0  0  0  2  0  0  0  0  0  0
  -29.3340  -19.3250   20.2500 N   0  0  0  0  0  0  0  0  0  0  0  0
  -30.5570  -15.4580   20.2150 C   0  0  0  0  0  0  0  0  0  0  0  0
  -30.5260  -13.0040   19.3340 C   0  0  0  0  0  2  0  0  0  0  0  0
  -29.6010  -12.7990   18.1010 C   0  0  0  0  0  2  0  0  0  0  0  0
  -28.1450  -12.5270   18.5120 C   0  0  0  0  0  2  0  0  0  0  0  0
  -27.7000  -13.4700   19.6560 C   0  0  0  0  0  3  0  0  0  0  0  0
  -28.7530  -13.6270   20.7710 C   0  0  0  0  0  2  0  0  0  0  0  0
  -29.9840  -14.1460   20.1600 N   0  0  0  0  0  0  0  0  0  0  0  0
  -31.7900  -15.4020   20.0240 O   0  0  0  0  0  0  0  0  0  0  0  0
  -25.3350  -14.0090   20.4310 C   0  0  0  0  0  0  0  0  0  0  0  0
  -24.2730  -13.2210   20.7920 C   0  0  0  0  0  0  0  0  0  0  0  0
  -24.7520  -11.8770   20.7610 C   0  0  0  0  0  0  0  0  0  0  0  0
  -26.3790  -13.1390   20.1790 N   0  0  0  0  0  0  0  0  0  0  0  0
  -26.0440  -11.8510   20.4550 N   0  0  0  0  0  0  0  0  0  0  0  0
  -24.0360  -10.6070   20.9570 C   0  0  0  0  0  0  0  0  0  0  0  0
  -24.4710   -9.6560   21.9040 C   0  0  0  0  0  3  0  0  0  0  0  0
  -23.7580   -8.4520   22.0930 C   0  0  0  0  0  3  0  0  0  0  0  0
  -22.5930   -8.1890   21.3320 C   0  0  0  0  0  0  0  0  0  0  0  0
  -22.1780   -9.1290   20.3720 C   0  0  0  0  0  3  0  0  0  0  0  0
  -22.8930  -10.3250   20.1810 C   0  0  0  0  0  3  0  0  0  0  0  0
  -21.8490   -7.0360   21.4290 O   0  0  0  0  0  0  0  0  0  0  0  0
  -21.7870   -6.3130   22.5930 C   0  0  0  0  0  0  0  0  0  0  0  0
  -21.3240   -6.8800   23.8020 C   0  0  0  0  0  3  0  0  0  0  0  0
  -21.2180   -6.0800   24.9580 C   0  0  0  0  0  3  0  0  0  0  0  0
  -21.5590   -4.7150   24.9060 C   0  0  0  0  0  0  0  0  0  0  0  0
  -22.0120   -4.1500   23.7020 C   0  0  0  0  0  3  0  0  0  0  0  0
  -22.1260   -4.9460   22.5490 C   0  0  0  0  0  0  0  0  0  0  0  0
  -22.5420   -4.3900   21.3860 F   0  0  0  0  0  0  0  0  0  0  0  0
  -21.4510   -3.9450   26.0150 F   0  0  0  0  0  0  0  0  0  0  0  0
  -22.8670  -13.6840   21.0450 C   0  0  0  0  0  0  0  0  0  0  0  0
  -22.1370  -12.9830   21.9090 N   0  0  0  0  0  0  0  0  0  0  0  0
  -22.4200  -14.6940   20.5060 O   0  0  0  0  0  0  0  0  0  0  0  0
  -22.5150  -12.1660   22.3650 H   0  0  0  0  0  0  0  0  0  0  0  0
  -21.1850  -13.2580   22.1110 H   0  0  0  0  0  0  0  0  0  0  0  0
  -25.5080  -15.3790   20.2670 N   0  0  0  0  0  0  0  0  0  0  0  0
  -24.7830  -16.0650   20.4440 H   0  0  0  0  0  0  0  0  0  0  0  0
  -26.4100  -15.8060   20.0800 H   0  0  0  0  0  0  0  0  0  0  0  0
  -28.3060  -24.2370   20.5510 C   0  0  0  0  0  2  0  0  0  0  0  0
  -28.2880  -25.8740   20.1170 O   0  0  0  0  0  0  0  0  0  0  0  0
  -24.6410  -31.8870   23.1930 C   0  0  0  0  0  0  0  0  0  0  0  0
  -27.2470  -26.9670   20.1830 C   0  0  0  0  0  0  0  0  0  0  0  0
  -23.4600  -30.4740   21.5670 C   0  0  0  0  0  3  0  0  0  0  0  0
  -24.9240  -28.8580   20.1490 C   0  0  0  0  0  0  0  0  0  0  0  0
  -26.0330  -30.6760   21.4340 C   0  0  0  0  0  2  0  0  0  0  0  0
  -26.1150  -29.2650   20.7670 C   0  0  0  0  0  0  0  0  0  0  0  0
  -27.2650  -28.3450   20.7550 C   0  0  0  0  0  3  0  0  0  0  0  0
  -26.0250  -26.7320   19.5120 C   0  0  0  0  0  3  0  0  0  0  0  0
  -24.9060  -27.6100   19.5050 C   0  0  0  0  0  3  0  0  0  0  0  0
  -23.6990  -29.7750   20.2030 C   0  0  0  0  0  2  0  0  0  0  0  0
  -24.7330  -31.0390   22.1160 N   0  0  0  0  0  0  0  0  0  0  0  0
  -23.5490  -32.1730   23.7100 O   0  0  0  0  0  0  0  0  0  0  0  0
  -22.7630  -29.4810   22.5310 C   0  0  0  0  0  0  0  0  0  0  0  0
  -21.4350  -29.3010   22.4060 N   0  0  0  0  0  0  0  0  0  0  0  0
  -23.4320  -28.8660   23.3650 O   0  0  0  0  0  0  0  0  0  0  0  0
  -20.9380  -29.8260   21.6980 H   0  0  0  0  0  0  0  0  0  0  0  0
  -18.0700  -28.0700   22.9330 C   0  0  0  0  0  0  0  0  0  0  0  0
  -20.6270  -28.3550   23.1830 C   0  0  0  0  0  3  0  0  0  0  0  0
  -20.7410  -26.9290   22.5950 C   0  0  0  0  0  2  0  0  0  0  0  0
  -19.6370  -26.6050   21.5850 C   0  0  0  0  0  2  0  0  0  0  0  0
  -18.2590  -26.7320   22.2370 C   0  0  0  0  0  2  0  0  0  0  0  0
  -19.1840  -28.8440   23.3590 C   0  0  0  0  0  0  0  0  0  0  0  0
  -18.9540  -30.1010   23.9610 C   0  0  0  0  0  3  0  0  0  0  0  0
  -17.6450  -30.5860   24.1410 C   0  0  0  0  0  3  0  0  0  0  0  0
  -16.5460  -29.8070   23.7380 C   0  0  0  0  0  3  0  0  0  0  0  0
  -16.7610  -28.5520   23.1390 C   0  0  0  0  0  3  0  0  0  0  0  0
  -25.9050  -32.5490   23.8200 C   0  0  0  0  0  3  0  0  0  0  0  0
  -26.4090  -31.8040   25.1190 C   0  0  1  0  0  0  0  0  0  0  0  0
  -25.2990  -31.5730   26.1710 C   0  0  0  0  0  1  0  0  0  0  0  0
  -27.0090  -30.4230   24.7720 C   0  0  0  0  0  1  0  0  0  0  0  0
  -27.5500  -32.6140   25.7770 C   0  0  0  0  0  1  0  0  0  0  0  0
  -25.5810  -33.9500   24.1410 N   0  0  0  0  0  0  0  0  0  0  0  0
  -25.9180  -35.0090   23.3950 C   0  0  0  0  0  0  0  0  0  0  0  0
  -26.5940  -34.9130   22.3700 O   0  0  0  0  0  0  0  0  0  0  0  0
  -24.9870  -34.1040   24.9420 H   0  0  0  0  0  0  0  0  0  0  0  0
  -24.1890  -36.8010   23.0270 C   0  0  0  0  0  1  0  0  0  0  0  0
  -25.4200  -36.3950   23.8560 C   0  0  0  0  0  3  0  0  0  0  0  0
  -27.5320  -37.2860   24.7350 C   0  0  0  0  0  1  0  0  0  0  0  0
  -26.4500  -37.4540   23.7680 N   0  0  0  0  0  0  0  0  0  0  0  0
  -26.0390  -38.3730   23.9050 H   0  0  0  0  0  0  0  0  0  0  0  0
  1 45  1  0
  1  3  1  0
  3  2  1  0
  4  6  1  0
  5  4  2  0
  7  5  1  0
  8  7  1  0
  8  6  1  0
  8  3  1  0
  9  4  1  0
 10 15  1  0
 11 12  1  0
 11 10  1  0
 13 12  1  0
 13 20  1  0
 13 14  1  0
 15  9  1  0
 15 14  1  0
 16  9  2  0
 17 18  2  0
 18 37  1  0
 19 18  1  0
 19 22  1  0
 20 17  1  0
 20 21  1  0
 21 19  2  0
 22 23  1  0
 23 24  2  0
 25 28  1  0
 25 24  1  0
 26 25  2  0
 27 26  1  0
 27 22  2  0
 28 29  1  0
 29 30  1  0
 30 31  2  0
 32 31  1  0
 32 36  1  0
 33 32  2  0
 34 29  2  0
 34 33  1  0
 35 34  1  0
 37 38  1  0
 38 41  1  0
 38 40  1  0
 39 37  2  0
 42 17  1  0
 42 43  1  0
 44 42  1  0
 46 48  1  0
 46 45  1  0
 47 58  2  0
 48 53  1  0
 49 57  1  0
 49 59  1  0
 50 56  1  0
 50 52  1  0
 51 57  1  0
 52 51  1  0
 53 52  2  0
 54 48  2  0
 55 54  1  0
 55 50  2  0
 56 49  1  0
 57 47  1  0
 59 61  2  0
 60 59  1  0
 62 60  1  0
 63 72  2  0
 63 68  1  0
 64 60  1  0
 64 68  1  0
 65 64  1  0
 66 67  1  0
 66 65  1  0
 67 63  1  0
 68 69  2  0
 69 70  1  0
 71 70  2  0
 72 71  1  0
 73 47  1  0
 73 78  1  0
 73 74  1  0
 74 77  1  1
 74 75  1  0
 76 74  1  0
 78 81  1  0
 79 83  1  0
 79 78  1  0
 80 79  2  0
 83 82  1  0
 85 83  1  0
 85 86  1  0
 85 84  1  0
M  ISO  4   4 100   9 100  45 101  46 101
M  END
>  <TORSDO>  (69) 
F 19

>  <SCORE>  (69) 
-16.716

>  <name>  (69) 
73

>  <ligand_id>  (69) 
73

>  <original_smiles>  (69) 
[H]c1c([H])c([H])c2c(c1[H])C([H])([H])C([H])([H])C([H])([H])C2([H])N([H])C(=O)C1([H])N(C(=O)C([H])(N([H])C(=O)C([H])(N([H])C([H])([H])[H])C([H])([H])[H])C(C([H])([H])[H])(C([H])([H])[H])C([H])([H])[H])C([H])([H])c2c([H])c(OC([H])([H])C([H])([H])C([H])(n3nnc(C(=O)N4C([H])([H])C([H])([H])C([H])([H])C([H])(n5nc(-c6c([H])c([H])c(Oc7c([H])c([H])c(F)c([H])c7F)c([H])c6[H])c(C(=O)N([H])[H])c5N([H])[H])C4([H])[H])n3)C([H])([H])[H])c([H])c([H])c2C1([H])[H]

>  <smiles>  (69) 
[H]c1c([H])c([H])c2c(c1[H])C([H])([H])C([H])([H])C([H])([H])C2([H])N([H])C(=O)C1([H])N(C(=O)C([H])(N([H])C(=O)C([H])(N([H])C([H])([H])[H])C([H])([H])[H])C(C([H])([H])[H])(C([H])([H])[H])C([H])([H])[H])C([H])([H])c2c([H])c(OC([H])([H])C([H])([H])C([H])(n3nnc(C(=O)N4C([H])([H])C([H])([H])C([H])([H])C([H])(n5nc(-c6c([H])c([H])c(Oc7c([H])c([H])c(F)c([H])c7F)c([H])c6[H])c(C(=O)N([H])[H])c5N([H])[H])C4([H])[H])n3)C([H])([H])[H])c([H])c([H])c2C1([H])[H]

$$$$
74:0:0
     RDKit          3D

103108  0  0  1  0  0  0  0  0999 V2000
  -26.8490  -21.5760   19.7300 C   0  0  0  0  0  3  0  0  0  0  0  0
  -27.8920  -22.5310   19.4280 C   0  0  0  0  0  0  0  0  0  0  0  0
  -28.9710  -21.7240   18.9000 C   0  0  0  0  0  0  0  0  0  0  0  0
  -27.9100  -19.4830   19.0750 C   0  0  0  0  0  0  0  0  0  0  0  0
  -26.8440  -20.1840   19.5410 N   0  0  0  0  0  0  0  0  0  0  0  0
  -28.9510  -20.3130   18.7630 N   0  0  0  0  0  0  0  0  0  0  0  0
  -30.2160  -22.3950   18.3060 C   0  0  1  0  0  0  0  0  0  0  0  0
  -30.3280  -23.6710   18.6730 F   0  0  0  0  0  0  0  0  0  0  0  0
  -31.3170  -21.7520   18.7000 F   0  0  0  0  0  0  0  0  0  0  0  0
  -30.1470  -22.3410   16.9760 F   0  0  0  0  0  0  0  0  0  0  0  0
  -27.8970  -17.8490   18.5290 C   0  0  1  0  0  0  0  0  0  0  0  0
  -26.9030  -17.7990   17.6410 F   0  0  0  0  0  0  0  0  0  0  0  0
  -29.0240  -17.7400   17.8220 F   0  0  0  0  0  0  0  0  0  0  0  0
  -27.8170  -16.3370   19.3740 C   0  0  2  0  0  0  0  0  0  0  0  0
  -26.5310  -16.4370   19.7190 F   0  0  0  0  0  0  0  0  0  0  0  0
  -28.5250  -16.6510   20.4570 F   0  0  0  0  0  0  0  0  0  0  0  0
  -27.9440  -14.5700   18.9040 C   0  0  1  0  0  0  0  0  0  0  0  0
  -27.0060  -13.9880   19.6470 F   0  0  0  0  0  0  0  0  0  0  0  0
  -27.3530  -14.6420   17.7090 F   0  0  0  0  0  0  0  0  0  0  0  0
  -28.3760  -11.8370   18.7040 C   0  0  0  0  0  1  0  0  0  0  0  0
  -29.1620  -13.1720   18.6850 C   0  0  1  0  0  0  0  0  0  0  0  0
  -29.2620  -13.2450   17.3530 F   0  0  0  0  0  0  0  0  0  0  0  0
  -30.9650  -12.8370   19.2200 C   0  0  0  0  0  3  0  0  0  0  0  0
  -31.1450  -11.5460   19.5210 F   0  0  0  0  0  0  0  0  0  0  0  0
  -31.3250  -12.5260   17.9480 F   0  0  0  0  0  0  0  0  0  0  0  0
  -32.3430  -13.9910   20.3750 C   0  0  2  0  0  0  0  0  0  0  0  0
  -32.8290  -14.2130   18.9160 C   0  0  0  0  0  1  0  0  0  0  0  0
  -31.1960  -15.1370   18.7220 C   0  0  0  0  0  1  0  0  0  0  0  0
  -30.0760  -14.8450   20.1620 C   0  0  0  0  0  2  0  0  0  0  0  0
  -30.2910  -13.3450   21.4000 C   0  0  0  0  0  2  0  0  0  0  0  0
  -31.9990  -12.8250   21.4150 C   0  0  0  0  0  1  0  0  0  0  0  0
  -33.0860  -13.2560   20.2590 N   0  0  0  0  0  1  0  0  0  0  0  0
  -32.5380  -15.1910   20.9720 O   0  0  0  0  0  1  0  0  0  0  0  0
  -28.1570  -11.8060   21.5810 C   0  0  0  0  0  0  0  0  0  0  0  0
  -27.8310  -10.5000   21.8200 C   0  0  0  0  0  0  0  0  0  0  0  0
  -29.0460   -9.7730   21.9060 C   0  0  0  0  0  0  0  0  0  0  0  0
  -29.5180  -11.9620   21.4920 N   0  0  0  0  0  0  0  0  0  0  0  0
  -30.0380  -10.6760   21.7640 N   0  0  0  0  0  0  0  0  0  0  0  0
  -29.2480   -8.2990   22.1220 C   0  0  0  0  0  0  0  0  0  0  0  0
  -29.9740   -7.7690   23.2160 C   0  0  0  0  0  3  0  0  0  0  0  0
  -30.0670   -6.3690   23.4340 C   0  0  0  0  0  3  0  0  0  0  0  0
  -29.4240   -5.4590   22.5590 C   0  0  0  0  0  0  0  0  0  0  0  0
  -28.7120   -5.9800   21.4630 C   0  0  0  0  0  3  0  0  0  0  0  0
  -28.6290   -7.3710   21.2480 C   0  0  0  0  0  3  0  0  0  0  0  0
  -29.4850   -4.0850   22.6720 O   0  0  0  0  0  0  0  0  0  0  0  0
  -29.5440   -3.4510   23.8900 C   0  0  0  0  0  0  0  0  0  0  0  0
  -28.5690   -3.6630   24.8880 C   0  0  0  0  0  3  0  0  0  0  0  0
  -28.6250   -2.9420   26.0980 C   0  0  0  0  0  3  0  0  0  0  0  0
  -29.6510   -2.0000   26.3120 C   0  0  0  0  0  0  0  0  0  0  0  0
  -30.6170   -1.7780   25.3150 C   0  0  0  0  0  3  0  0  0  0  0  0
  -30.5610   -2.4960   24.1070 C   0  0  0  0  0  0  0  0  0  0  0  0
  -31.4830   -2.2550   23.1450 F   0  0  0  0  0  0  0  0  0  0  0  0
  -29.7060   -1.3070   27.4730 F   0  0  0  0  0  0  0  0  0  0  0  0
  -26.4310   -9.9870   21.9580 C   0  0  0  0  0  0  0  0  0  0  0  0
  -26.2050   -9.0310   22.8510 N   0  0  0  0  0  0  0  0  0  0  0  0
  -25.5090  -10.4930   21.3210 O   0  0  0  0  0  0  0  0  0  0  0  0
  -26.9530   -8.6330   23.3990 H   0  0  0  0  0  0  0  0  0  0  0  0
  -25.2650   -8.6890   22.9850 H   0  0  0  0  0  0  0  0  0  0  0  0
  -27.3610  -12.9150   21.5030 N   0  0  0  0  0  0  0  0  0  0  0  0
  -26.3540  -12.8340   21.5790 H   0  0  0  0  0  0  0  0  0  0  0  0
  -27.6810  -13.8750   21.5010 H   0  0  0  0  0  0  0  0  0  0  0  0
  -27.5760  -24.2050   19.2990 C   0  0  0  0  0  2  0  0  0  0  0  0
  -28.2310  -25.6450   19.6730 O   0  0  0  0  0  0  0  0  0  0  0  0
  -24.7450  -31.5620   22.9200 C   0  0  0  0  0  0  0  0  0  0  0  0
  -27.3320  -26.8120   19.7260 C   0  0  0  0  0  0  0  0  0  0  0  0
  -23.5880  -30.1370   21.3050 C   0  0  0  0  0  3  0  0  0  0  0  0
  -25.0500  -28.6400   19.8360 C   0  0  0  0  0  0  0  0  0  0  0  0
  -26.1550  -30.4210   21.1400 C   0  0  0  0  0  2  0  0  0  0  0  0
  -26.2450  -29.0340   20.4520 C   0  0  0  0  0  0  0  0  0  0  0  0
  -27.3960  -28.1250   20.4020 C   0  0  0  0  0  3  0  0  0  0  0  0
  -26.1170  -26.6170   19.0440 C   0  0  0  0  0  3  0  0  0  0  0  0
  -25.0050  -27.4480   19.1290 C   0  0  0  0  0  3  0  0  0  0  0  0
  -23.8170  -29.5170   19.9120 C   0  0  0  0  0  2  0  0  0  0  0  0
  -24.8530  -30.7310   21.8380 N   0  0  0  0  0  0  0  0  0  0  0  0
  -23.6500  -31.8080   23.4490 O   0  0  0  0  0  0  0  0  0  0  0  0
  -22.9600  -29.0820   22.2540 C   0  0  0  0  0  0  0  0  0  0  0  0
  -21.6300  -28.8870   22.1680 N   0  0  0  0  0  0  0  0  0  0  0  0
  -23.6680  -28.4500   23.0410 O   0  0  0  0  0  0  0  0  0  0  0  0
  -21.1110  -29.4530   21.5110 H   0  0  0  0  0  0  0  0  0  0  0  0
  -18.2870  -27.6230   22.7800 C   0  0  0  0  0  0  0  0  0  0  0  0
  -20.8520  -27.9200   22.9480 C   0  0  0  0  0  3  0  0  0  0  0  0
  -20.9500  -26.5010   22.3410 C   0  0  0  0  0  2  0  0  0  0  0  0
  -19.8120  -26.1820   21.3650 C   0  0  0  0  0  2  0  0  0  0  0  0
  -18.4560  -26.2910   22.0680 C   0  0  0  0  0  2  0  0  0  0  0  0
  -19.4110  -28.3940   23.1800 C   0  0  0  0  0  0  0  0  0  0  0  0
  -19.1960  -29.6390   23.8110 C   0  0  0  0  0  3  0  0  0  0  0  0
  -17.8910  -30.1120   24.0430 C   0  0  0  0  0  3  0  0  0  0  0  0
  -16.7830  -29.3400   23.6570 C   0  0  0  0  0  3  0  0  0  0  0  0
  -16.9820  -28.0950   23.0330 C   0  0  0  0  0  3  0  0  0  0  0  0
  -25.9940  -32.2560   23.5360 C   0  0  0  0  0  3  0  0  0  0  0  0
  -25.6060  -33.6290   23.9020 N   0  0  0  0  0  0  0  0  0  0  0  0
  -25.9600  -34.7320   23.2310 C   0  0  0  0  0  0  0  0  0  0  0  0
  -26.7150  -34.7030   22.2550 O   0  0  0  0  0  0  0  0  0  0  0  0
  -24.9400  -33.7220   24.6550 H   0  0  0  0  0  0  0  0  0  0  0  0
  -24.2180  -36.5050   22.8190 C   0  0  0  0  0  1  0  0  0  0  0  0
  -25.3910  -36.0800   23.7170 C   0  0  0  0  0  3  0  0  0  0  0  0
  -27.4220  -36.9620   24.7830 C   0  0  0  0  0  1  0  0  0  0  0  0
  -26.3980  -37.1640   23.7610 N   0  0  0  0  0  0  0  0  0  0  0  0
  -25.9550  -38.0630   23.9310 H   0  0  0  0  0  0  0  0  0  0  0  0
  -26.5600  -31.4950   24.7990 C   0  0  1  0  0  0  0  0  0  0  0  0
  -25.4890  -31.1880   25.8730 C   0  0  0  0  0  1  0  0  0  0  0  0
  -27.2130  -30.1550   24.3940 C   0  0  0  0  0  1  0  0  0  0  0  0
  -27.6710  -32.3420   25.4620 C   0  0  0  0  0  1  0  0  0  0  0  0
  2  1  2  0
  3  2  1  0
  4  5  2  0
  5  1  1  0
  6  3  2  0
  6  4  1  0
  7  8  1  6
  7  9  1  0
  7  3  1  0
 10  7  1  0
 11  4  1  0
 11 14  1  0
 11 12  1  6
 13 11  1  0
 14 15  1  1
 14 16  1  0
 17 14  1  0
 17 18  1  1
 19 17  1  0
 21 20  1  6
 21 17  1  0
 21 23  1  0
 22 21  1  0
 23 24  1  0
 25 23  1  0
 26 33  1  0
 26 31  1  1
 27 26  1  0
 28 29  1  0
 29 30  1  0
 30 37  1  0
 32 26  1  0
 34 35  2  0
 35 36  1  0
 35 54  1  0
 36 39  1  0
 37 34  1  0
 37 38  1  0
 38 36  2  0
 39 40  1  0
 40 41  2  0
 42 45  1  0
 42 41  1  0
 43 42  2  0
 44 43  1  0
 44 39  2  0
 45 46  1  0
 46 51  2  0
 46 47  1  0
 47 48  2  0
 48 49  1  0
 49 53  1  0
 50 49  2  0
 51 50  1  0
 52 51  1  0
 54 55  1  0
 55 58  1  0
 55 57  1  0
 56 54  2  0
 59 60  1  0
 59 34  1  0
 61 59  1  0
 62  2  1  0
 62 63  1  0
 63 65  1  0
 64 75  2  0
 65 70  1  0
 66 74  1  0
 66 76  1  0
 67 73  1  0
 67 69  1  0
 68 74  1  0
 69 68  1  0
 70 69  2  0
 71 72  1  0
 71 65  2  0
 72 67  2  0
 73 66  1  0
 74 64  1  0
 76 78  2  0
 77 76  1  0
 79 77  1  0
 80 89  2  0
 80 85  1  0
 81 77  1  0
 81 85  1  0
 82 81  1  0
 83 84  1  0
 83 82  1  0
 84 80  1  0
 85 86  2  0
 86 87  1  0
 88 87  2  0
 89 88  1  0
 90 64  1  0
 90 91  1  0
 90100  1  0
 91 94  1  0
 92 96  1  0
 92 91  1  0
 93 92  2  0
 96 95  1  0
 96 98  1  0
 98 99  1  0
 98 97  1  0
100103  1  1
100101  1  0
102100  1  0
M  ISO  4  23 100  26 100  62 101  63 101
M  END
>  <TORSDO>  (70) 
F 23

>  <SCORE>  (70) 
-8.337

>  <name>  (70) 
74

>  <ligand_id>  (70) 
74

>  <original_smiles>  (70) 
[H]c1nc(C(F)(F)C(F)(F)C(F)(F)C(F)(C([H])([H])[H])C(F)(F)C(=O)N2C([H])([H])C([H])([H])C([H])([H])C([H])(n3nc(-c4c([H])c([H])c(Oc5c([H])c([H])c(F)c([H])c5F)c([H])c4[H])c(C(=O)N([H])[H])c3N([H])[H])C2([H])[H])nc(C(F)(F)F)c1C([H])([H])Oc1c([H])c([H])c2c(c1[H])C([H])([H])N(C(=O)C([H])(N([H])C(=O)C([H])(N([H])C([H])([H])[H])C([H])([H])[H])C(C([H])([H])[H])(C([H])([H])[H])C([H])([H])[H])C([H])(C(=O)N([H])C1([H])c3c([H])c([H])c([H])c([H])c3C([H])([H])C([H])([H])C1([H])[H])C2([H])[H]

>  <smiles>  (70) 
[H]c1nc(C(F)(F)C(F)(F)C(F)(F)C(F)(C([H])([H])[H])C(F)(F)C(=O)N2C([H])([H])C([H])([H])C([H])([H])C([H])(n3nc(-c4c([H])c([H])c(Oc5c([H])c([H])c(F)c([H])c5F)c([H])c4[H])c(C(=O)N([H])[H])c3N([H])[H])C2([H])[H])nc(C(F)(F)F)c1C([H])([H])Oc1c([H])c([H])c2c(c1[H])C([H])([H])N(C(=O)C([H])(N([H])C(=O)C([H])(N([H])C([H])([H])[H])C([H])([H])[H])C(C([H])([H])[H])(C([H])([H])[H])C([H])([H])[H])C([H])(C(=O)N([H])C1([H])c3c([H])c([H])c([H])c([H])c3C([H])([H])C([H])([H])C1([H])[H])C2([H])[H]

$$$$
75:0:0
     RDKit          3D

 90 98  0  0  1  0  0  0  0  0999 V2000
  -28.5800  -22.1500   18.8830 C   0  0  0  0  0  3  0  0  0  0  0  0
  -28.9490  -20.7380   18.7940 C   0  0  0  0  0  3  0  0  0  0  0  0
  -28.7850  -22.7190   20.1210 C   0  0  0  0  0  0  0  0  0  0  0  0
  -29.4660  -20.1900   19.9530 C   0  0  0  0  0  0  0  0  0  0  0  0
  -29.7020  -21.4890   22.1790 C   0  0  0  0  0  1  0  0  0  0  0  0
  -29.3310  -21.4630   20.7740 N   0  0  0  0  0  0  0  0  0  0  0  0
  -31.0510  -18.6390   21.4630 C   0  0  0  0  0  1  0  0  0  0  0  0
  -31.3430  -18.6710   19.0600 C   0  0  0  0  0  1  0  0  0  0  0  0
  -30.2500  -18.6070   20.1470 C   0  0  2  0  0  0  0  0  0  0  0  0
  -28.7550  -16.9780   18.7420 C   0  0  0  0  0  1  0  0  0  0  0  0
  -28.7270  -16.7380   21.2270 C   0  0  0  0  0  1  0  0  0  0  0  0
  -29.6490  -16.8880   19.9940 C   0  0  2  0  0  0  0  0  0  0  0  0
  -30.4880  -15.3040   19.8380 C   0  0  0  0  0  0  0  0  0  0  0  0
  -30.4480  -12.8430   18.9510 C   0  0  0  0  0  2  0  0  0  0  0  0
  -29.4340  -12.6250   17.7920 C   0  0  0  0  0  2  0  0  0  0  0  0
  -28.0180  -12.3390   18.3250 C   0  0  0  0  0  2  0  0  0  0  0  0
  -27.6530  -13.2850   19.4930 C   0  0  0  0  0  3  0  0  0  0  0  0
  -28.7870  -13.4050   20.5360 C   0  0  0  0  0  2  0  0  0  0  0  0
  -29.9610  -13.9680   19.8400 N   0  0  0  0  0  0  0  0  0  0  0  0
  -31.6870  -15.2890   19.5220 O   0  0  0  0  0  0  0  0  0  0  0  0
  -25.3540  -13.8760   20.4340 C   0  0  0  0  0  0  0  0  0  0  0  0
  -24.3080  -13.1070   20.8600 C   0  0  0  0  0  0  0  0  0  0  0  0
  -24.7460  -11.7510   20.7590 C   0  0  0  0  0  0  0  0  0  0  0  0
  -26.3600  -12.9860   20.0940 N   0  0  0  0  0  0  0  0  0  0  0  0
  -26.0100  -11.7010   20.3540 N   0  0  0  0  0  0  0  0  0  0  0  0
  -24.0140  -10.4950   20.9640 C   0  0  0  0  0  0  0  0  0  0  0  0
  -24.4760   -9.5070   21.8600 C   0  0  0  0  0  3  0  0  0  0  0  0
  -23.7390   -8.3200   22.0560 C   0  0  0  0  0  3  0  0  0  0  0  0
  -22.5250   -8.1140   21.3560 C   0  0  0  0  0  0  0  0  0  0  0  0
  -22.0840   -9.0900   20.4470 C   0  0  0  0  0  3  0  0  0  0  0  0
  -22.8210  -10.2700   20.2490 C   0  0  0  0  0  3  0  0  0  0  0  0
  -21.7560   -6.9810   21.4640 O   0  0  0  0  0  0  0  0  0  0  0  0
  -21.7200   -6.2420   22.6200 C   0  0  0  0  0  0  0  0  0  0  0  0
  -21.3260   -6.8050   23.8530 C   0  0  0  0  0  3  0  0  0  0  0  0
  -21.2430   -5.9960   25.0030 C   0  0  0  0  0  3  0  0  0  0  0  0
  -21.5410   -4.6220   24.9190 C   0  0  0  0  0  0  0  0  0  0  0  0
  -21.9260   -4.0570   23.6910 C   0  0  0  0  0  3  0  0  0  0  0  0
  -22.0140   -4.8660   22.5450 C   0  0  0  0  0  0  0  0  0  0  0  0
  -22.3670   -4.3140   21.3590 F   0  0  0  0  0  0  0  0  0  0  0  0
  -21.4500   -3.8400   26.0210 F   0  0  0  0  0  0  0  0  0  0  0  0
  -22.9440  -13.6000   21.2460 C   0  0  0  0  0  0  0  0  0  0  0  0
  -22.2750  -12.8950   22.1520 N   0  0  0  0  0  0  0  0  0  0  0  0
  -22.4860  -14.6440   20.7860 O   0  0  0  0  0  0  0  0  0  0  0  0
  -22.6660  -12.0560   22.5540 H   0  0  0  0  0  0  0  0  0  0  0  0
  -21.3630  -13.2010   22.4530 H   0  0  0  0  0  0  0  0  0  0  0  0
  -25.5170  -15.2460   20.2690 N   0  0  0  0  0  0  0  0  0  0  0  0
  -24.7600  -15.9020   20.4340 H   0  0  0  0  0  0  0  0  0  0  0  0
  -26.3360  -15.6840   19.8660 H   0  0  0  0  0  0  0  0  0  0  0  0
  -28.2430  -24.2710   20.7440 C   0  0  0  0  0  2  0  0  0  0  0  0
  -28.4810  -25.8300   20.2680 O   0  0  0  0  0  0  0  0  0  0  0  0
  -24.7000  -31.7410   23.1750 C   0  0  0  0  0  0  0  0  0  0  0  0
  -27.4450  -26.9090   20.2530 C   0  0  0  0  0  0  0  0  0  0  0  0
  -23.5820  -30.3150   21.5070 C   0  0  0  0  0  3  0  0  0  0  0  0
  -25.1060  -28.7400   20.1290 C   0  0  0  0  0  0  0  0  0  0  0  0
  -26.1440  -30.5850   21.4290 C   0  0  0  0  0  2  0  0  0  0  0  0
  -26.2670  -29.1720   20.7850 C   0  0  0  0  0  0  0  0  0  0  0  0
  -27.4360  -28.2820   20.8130 C   0  0  0  0  0  3  0  0  0  0  0  0
  -26.2520  -26.6310   19.5490 C   0  0  0  0  0  3  0  0  0  0  0  0
  -25.1250  -27.4940   19.4840 C   0  0  0  0  0  3  0  0  0  0  0  0
  -23.8640  -29.6350   20.1380 C   0  0  0  0  0  2  0  0  0  0  0  0
  -24.8280  -30.9070   22.0920 N   0  0  0  0  0  0  0  0  0  0  0  0
  -23.5900  -32.0050   23.6670 O   0  0  0  0  0  0  0  0  0  0  0  0
  -22.8840  -29.3050   22.4560 C   0  0  0  0  0  0  0  0  0  0  0  0
  -21.5600  -29.1160   22.2990 N   0  0  0  0  0  0  0  0  0  0  0  0
  -23.5410  -28.6930   23.3020 O   0  0  0  0  0  0  0  0  0  0  0  0
  -21.0830  -29.6640   21.5970 H   0  0  0  0  0  0  0  0  0  0  0  0
  -18.1910  -27.8310   22.7270 C   0  0  0  0  0  0  0  0  0  0  0  0
  -20.7370  -28.1620   23.0510 C   0  0  0  0  0  3  0  0  0  0  0  0
  -20.8870  -26.7310   22.4830 C   0  0  0  0  0  2  0  0  0  0  0  0
  -19.8170  -26.3790   21.4420 C   0  0  0  0  0  2  0  0  0  0  0  0
  -18.4190  -26.4880   22.0530 C   0  0  0  0  0  2  0  0  0  0  0  0
  -19.2810  -28.6240   23.1800 C   0  0  0  0  0  0  0  0  0  0  0  0
  -19.0120  -29.8780   23.7720 C   0  0  0  0  0  3  0  0  0  0  0  0
  -17.6900  -30.3410   23.9120 C   0  0  0  0  0  3  0  0  0  0  0  0
  -16.6170  -29.5480   23.4700 C   0  0  0  0  0  3  0  0  0  0  0  0
  -16.8690  -28.2930   22.8860 C   0  0  0  0  0  3  0  0  0  0  0  0
  -25.9390  -32.4120   23.8410 C   0  0  0  0  0  3  0  0  0  0  0  0
  -26.4240  -31.6630   25.1440 C   0  0  1  0  0  0  0  0  0  0  0  0
  -25.2970  -31.4140   26.1750 C   0  0  0  0  0  1  0  0  0  0  0  0
  -27.0450  -30.2910   24.7960 C   0  0  0  0  0  1  0  0  0  0  0  0
  -27.5390  -32.4830   25.8360 C   0  0  0  0  0  1  0  0  0  0  0  0
  -25.5840  -33.8060   24.1620 N   0  0  0  0  0  0  0  0  0  0  0  0
  -25.9090  -34.8720   23.4170 C   0  0  0  0  0  0  0  0  0  0  0  0
  -26.6010  -34.7840   22.3990 O   0  0  0  0  0  0  0  0  0  0  0  0
  -24.9690  -33.9440   24.9500 H   0  0  0  0  0  0  0  0  0  0  0  0
  -24.1430  -36.6310   23.0430 C   0  0  0  0  0  1  0  0  0  0  0  0
  -25.3850  -36.2530   23.8660 C   0  0  0  0  0  3  0  0  0  0  0  0
  -27.4890  -37.1910   24.7200 C   0  0  0  0  0  1  0  0  0  0  0  0
  -26.3950  -37.3300   23.7610 N   0  0  0  0  0  0  0  0  0  0  0  0
  -25.9690  -38.2410   23.8980 H   0  0  0  0  0  0  0  0  0  0  0  0
  1  3  2  0
  2  1  1  0
  2  4  2  0
  3 49  1  0
  3  6  1  0
  4  9  1  0
  4  6  1  0
  6  5  1  0
  9  8  1  6
  9  7  1  0
 12 10  1  6
 12  9  1  0
 12 11  1  0
 13 19  1  0
 13 12  1  0
 14 19  1  0
 15 16  1  0
 15 14  1  0
 17 16  1  0
 17 24  1  0
 17 18  1  0
 19 18  1  0
 20 13  2  0
 21 22  2  0
 22 41  1  0
 23 22  1  0
 23 26  1  0
 24 25  1  0
 24 21  1  0
 25 23  2  0
 26 27  1  0
 27 28  2  0
 29 32  1  0
 29 28  1  0
 30 29  2  0
 31 30  1  0
 31 26  2  0
 32 33  1  0
 33 34  1  0
 34 35  2  0
 36 35  1  0
 36 40  1  0
 37 36  2  0
 38 33  2  0
 38 37  1  0
 39 38  1  0
 41 42  1  0
 42 45  1  0
 42 44  1  0
 43 41  2  0
 46 47  1  0
 46 21  1  0
 48 46  1  0
 50 49  1  0
 51 62  2  0
 52 50  1  0
 52 57  1  0
 53 61  1  0
 53 63  1  0
 54 60  1  0
 54 56  1  0
 55 61  1  0
 56 57  2  0
 56 55  1  0
 58 52  2  0
 59 58  1  0
 59 54  2  0
 60 53  1  0
 61 51  1  0
 63 65  2  0
 64 63  1  0
 66 64  1  0
 67 76  2  0
 67 72  1  0
 68 64  1  0
 68 72  1  0
 69 68  1  0
 70 71  1  0
 70 69  1  0
 71 67  1  0
 72 73  2  0
 73 74  1  0
 75 74  2  0
 76 75  1  0
 77 51  1  0
 77 82  1  0
 77 78  1  0
 78 81  1  1
 78 79  1  0
 80 78  1  0
 82 85  1  0
 83 87  1  0
 83 82  1  0
 84 83  2  0
 87 86  1  0
 89 87  1  0
 89 90  1  0
 89 88  1  0
M  ISO  4  12 100  13 100  49 101  50 101
M  END
>  <TORSDO>  (71) 
F 19

>  <SCORE>  (71) 
-15.887

>  <name>  (71) 
75

>  <ligand_id>  (71) 
75

>  <original_smiles>  (71) 
[H]c1c([H])c([H])c2c(c1[H])C([H])([H])C([H])([H])C([H])([H])C2([H])N([H])C(=O)C1([H])N(C(=O)C([H])(N([H])C(=O)C([H])(N([H])C([H])([H])[H])C([H])([H])[H])C(C([H])([H])[H])(C([H])([H])[H])C([H])([H])[H])C([H])([H])c2c([H])c(OC([H])([H])c3c([H])c([H])c(C(C([H])([H])[H])(C([H])([H])[H])C(C(=O)N4C([H])([H])C([H])([H])C([H])([H])C([H])(n5nc(-c6c([H])c([H])c(Oc7c([H])c([H])c(F)c([H])c7F)c([H])c6[H])c(C(=O)N([H])[H])c5N([H])[H])C4([H])[H])(C([H])([H])[H])C([H])([H])[H])n3C([H])([H])[H])c([H])c([H])c2C1([H])[H]

>  <smiles>  (71) 
[H]c1c([H])c([H])c2c(c1[H])C([H])([H])C([H])([H])C([H])([H])C2([H])N([H])C(=O)C1([H])N(C(=O)C([H])(N([H])C(=O)C([H])(N([H])C([H])([H])[H])C([H])([H])[H])C(C([H])([H])[H])(C([H])([H])[H])C([H])([H])[H])C([H])([H])c2c([H])c(OC([H])([H])c3c([H])c([H])c(C(C([H])([H])[H])(C([H])([H])[H])C(C(=O)N4C([H])([H])C([H])([H])C([H])([H])C([H])(n5nc(-c6c([H])c([H])c(Oc7c([H])c([H])c(F)c([H])c7F)c([H])c6[H])c(C(=O)N([H])[H])c5N([H])[H])C4([H])[H])(C([H])([H])[H])C([H])([H])[H])n3C([H])([H])[H])c([H])c([H])c2C1([H])[H]

$$$$
76:0:0
     RDKit          3D

 90 98  0  0  1  0  0  0  0  0999 V2000
  -28.9930  -22.1660   21.3460 C   0  0  0  0  0  3  0  0  0  0  0  0
  -28.7800  -22.0120   19.0960 C   0  0  0  0  0  3  0  0  0  0  0  0
  -28.6420  -22.9520   20.1890 C   0  0  0  0  0  0  0  0  0  0  0  0
  -29.5150  -19.9990   20.2830 C   0  0  0  0  0  0  0  0  0  0  0  0
  -29.4110  -20.8160   21.3760 N   0  0  0  0  0  0  0  0  0  0  0  0
  -29.1910  -20.6610   19.1380 N   0  0  0  0  0  0  0  0  0  0  0  0
  -30.9910  -18.4000   21.7150 C   0  0  0  0  0  1  0  0  0  0  0  0
  -31.4860  -18.6330   19.3390 C   0  0  0  0  0  1  0  0  0  0  0  0
  -30.3110  -18.4560   20.3260 C   0  0  2  0  0  0  0  0  0  0  0  0
  -29.0530  -16.8980   18.6840 C   0  0  0  0  0  1  0  0  0  0  0  0
  -28.5290  -16.7230   21.1230 C   0  0  0  0  0  1  0  0  0  0  0  0
  -29.6750  -16.8170   20.0970 C   0  0  2  0  0  0  0  0  0  0  0  0
  -30.5160  -15.2770   20.1170 C   0  0  0  0  0  0  0  0  0  0  0  0
  -30.5080  -12.8280   19.2960 C   0  0  0  0  0  2  0  0  0  0  0  0
  -29.5590  -12.6340   18.0830 C   0  0  0  0  0  2  0  0  0  0  0  0
  -28.1120  -12.3640   18.5420 C   0  0  0  0  0  2  0  0  0  0  0  0
  -27.6790  -13.3170   19.6810 C   0  0  0  0  0  3  0  0  0  0  0  0
  -28.7570  -13.4360   20.7810 C   0  0  0  0  0  2  0  0  0  0  0  0
  -29.9830  -13.9570   20.1420 N   0  0  0  0  0  0  0  0  0  0  0  0
  -31.7330  -15.2760   19.8900 O   0  0  0  0  0  0  0  0  0  0  0  0
  -25.3120  -13.8870   20.4560 C   0  0  0  0  0  0  0  0  0  0  0  0
  -24.2580  -13.1100   20.8440 C   0  0  0  0  0  0  0  0  0  0  0  0
  -24.7280  -11.7620   20.8030 C   0  0  0  0  0  0  0  0  0  0  0  0
  -26.3570  -13.0120   20.2060 N   0  0  0  0  0  0  0  0  0  0  0  0
  -26.0150  -11.7270   20.4770 N   0  0  0  0  0  0  0  0  0  0  0  0
  -24.0060  -10.5000   20.9960 C   0  0  0  0  0  0  0  0  0  0  0  0
  -24.4440   -9.5340   21.9300 C   0  0  0  0  0  3  0  0  0  0  0  0
  -23.7200   -8.3370   22.1120 C   0  0  0  0  0  3  0  0  0  0  0  0
  -22.5450   -8.0980   21.3600 C   0  0  0  0  0  0  0  0  0  0  0  0
  -22.1290   -9.0510   20.4150 C   0  0  0  0  0  3  0  0  0  0  0  0
  -22.8520  -10.2400   20.2310 C   0  0  0  0  0  3  0  0  0  0  0  0
  -21.7920   -6.9520   21.4530 O   0  0  0  0  0  0  0  0  0  0  0  0
  -21.7300   -6.2250   22.6150 C   0  0  0  0  0  0  0  0  0  0  0  0
  -21.2900   -6.7970   23.8290 C   0  0  0  0  0  3  0  0  0  0  0  0
  -21.1740   -5.9970   24.9820 C   0  0  0  0  0  3  0  0  0  0  0  0
  -21.4890   -4.6260   24.9230 C   0  0  0  0  0  0  0  0  0  0  0  0
  -21.9230   -4.0540   23.7150 C   0  0  0  0  0  3  0  0  0  0  0  0
  -22.0400   -4.8510   22.5630 C   0  0  0  0  0  0  0  0  0  0  0  0
  -22.4380   -4.2910   21.3950 F   0  0  0  0  0  0  0  0  0  0  0  0
  -21.3710   -3.8540   26.0300 F   0  0  0  0  0  0  0  0  0  0  0  0
  -22.8650  -13.5860   21.1360 C   0  0  0  0  0  0  0  0  0  0  0  0
  -22.1530  -12.8900   22.0140 N   0  0  0  0  0  0  0  0  0  0  0  0
  -22.4190  -14.6110   20.6210 O   0  0  0  0  0  0  0  0  0  0  0  0
  -22.5300  -12.0620   22.4500 H   0  0  0  0  0  0  0  0  0  0  0  0
  -21.2200  -13.1910   22.2560 H   0  0  0  0  0  0  0  0  0  0  0  0
  -25.4500  -15.2580   20.2630 N   0  0  0  0  0  0  0  0  0  0  0  0
  -24.6700  -15.8950   20.3820 H   0  0  0  0  0  0  0  0  0  0  0  0
  -26.2770  -15.7080   19.8990 H   0  0  0  0  0  0  0  0  0  0  0  0
  -27.8280  -24.4610   20.0870 C   0  0  0  0  0  2  0  0  0  0  0  0
  -28.1960  -26.0080   20.3360 O   0  0  0  0  0  0  0  0  0  0  0  0
  -24.6330  -31.9150   23.2590 C   0  0  0  0  0  0  0  0  0  0  0  0
  -27.1870  -27.0840   20.2550 C   0  0  0  0  0  0  0  0  0  0  0  0
  -23.4340  -30.5200   21.6220 C   0  0  0  0  0  3  0  0  0  0  0  0
  -24.8810  -28.9220   20.2060 C   0  0  0  0  0  0  0  0  0  0  0  0
  -25.9990  -30.7410   21.4760 C   0  0  0  0  0  2  0  0  0  0  0  0
  -26.0670  -29.3380   20.8220 C   0  0  0  0  0  0  0  0  0  0  0  0
  -27.2180  -28.4390   20.8260 C   0  0  0  0  0  3  0  0  0  0  0  0
  -25.9690  -26.8060   19.5900 C   0  0  0  0  0  3  0  0  0  0  0  0
  -24.8520  -27.6730   19.5700 C   0  0  0  0  0  3  0  0  0  0  0  0
  -23.6610  -29.8360   20.2480 C   0  0  0  0  0  2  0  0  0  0  0  0
  -24.7100  -31.0840   22.1730 N   0  0  0  0  0  0  0  0  0  0  0  0
  -23.5450  -32.2090   23.7800 O   0  0  0  0  0  0  0  0  0  0  0  0
  -22.7390  -29.5250   22.5870 C   0  0  0  0  0  0  0  0  0  0  0  0
  -21.4090  -29.3630   22.4570 N   0  0  0  0  0  0  0  0  0  0  0  0
  -23.4020  -28.9000   23.4180 O   0  0  0  0  0  0  0  0  0  0  0  0
  -20.9280  -29.9170   21.7630 H   0  0  0  0  0  0  0  0  0  0  0  0
  -18.0230  -28.1640   22.9520 C   0  0  0  0  0  0  0  0  0  0  0  0
  -20.5800  -28.4310   23.2310 C   0  0  0  0  0  3  0  0  0  0  0  0
  -20.6860  -26.9940   22.6690 C   0  0  0  0  0  2  0  0  0  0  0  0
  -19.5900  -26.6630   21.6500 C   0  0  0  0  0  2  0  0  0  0  0  0
  -18.2040  -26.8110   22.2850 C   0  0  0  0  0  2  0  0  0  0  0  0
  -19.1380  -28.9310   23.3820 C   0  0  0  0  0  0  0  0  0  0  0  0
  -18.9130  -30.1950   23.9700 C   0  0  0  0  0  3  0  0  0  0  0  0
  -17.6050  -30.6930   24.1290 C   0  0  0  0  0  3  0  0  0  0  0  0
  -16.5050  -29.9230   23.7140 C   0  0  0  0  0  3  0  0  0  0  0  0
  -16.7140  -28.6600   23.1330 C   0  0  0  0  0  3  0  0  0  0  0  0
  -25.9080  -32.5510   23.8890 C   0  0  0  0  0  3  0  0  0  0  0  0
  -26.4140  -31.7840   25.1750 C   0  0  1  0  0  0  0  0  0  0  0  0
  -25.3130  -31.5560   26.2370 C   0  0  0  0  0  1  0  0  0  0  0  0
  -26.9940  -30.4010   24.7990 C   0  0  0  0  0  1  0  0  0  0  0  0
  -27.5630  -32.5770   25.8400 C   0  0  0  0  0  1  0  0  0  0  0  0
  -25.5970  -33.9510   24.2250 N   0  0  0  0  0  0  0  0  0  0  0  0
  -25.9190  -35.0100   23.4710 C   0  0  0  0  0  0  0  0  0  0  0  0
  -26.5750  -34.9130   22.4320 O   0  0  0  0  0  0  0  0  0  0  0  0
  -25.0110  -34.1000   25.0340 H   0  0  0  0  0  0  0  0  0  0  0  0
  -24.1780  -36.8040   23.1660 C   0  0  0  0  0  1  0  0  0  0  0  0
  -25.4400  -36.3980   23.9450 C   0  0  0  0  0  3  0  0  0  0  0  0
  -27.5920  -37.2900   24.7250 C   0  0  0  0  0  1  0  0  0  0  0  0
  -26.4670  -37.4550   23.8090 N   0  0  0  0  0  0  0  0  0  0  0  0
  -26.0610  -38.3740   23.9670 H   0  0  0  0  0  0  0  0  0  0  0  0
  1  5  1  0
  2  6  2  0
  2  3  1  0
  3  1  2  0
  4  9  1  0
  4  5  2  0
  6  4  1  0
  9  8  1  6
  9  7  1  0
 12 10  1  6
 12 13  1  0
 12  9  1  0
 12 11  1  0
 13 19  1  0
 14 19  1  0
 15 16  1  0
 15 14  1  0
 17 16  1  0
 17 24  1  0
 17 18  1  0
 19 18  1  0
 20 13  2  0
 21 22  2  0
 22 41  1  0
 23 22  1  0
 23 26  1  0
 24 21  1  0
 24 25  1  0
 25 23  2  0
 26 27  1  0
 27 28  2  0
 29 32  1  0
 29 28  1  0
 30 29  2  0
 31 30  1  0
 31 26  2  0
 32 33  1  0
 33 34  1  0
 34 35  2  0
 36 35  1  0
 36 40  1  0
 37 36  2  0
 38 33  2  0
 38 37  1  0
 39 38  1  0
 41 42  1  0
 42 45  1  0
 42 44  1  0
 43 41  2  0
 46 47  1  0
 46 21  1  0
 48 46  1  0
 49  3  1  0
 49 50  1  0
 51 62  2  0
 52 50  1  0
 52 57  1  0
 53 61  1  0
 53 63  1  0
 54 60  1  0
 54 56  1  0
 55 61  1  0
 56 57  2  0
 56 55  1  0
 58 52  2  0
 59 58  1  0
 59 54  2  0
 60 53  1  0
 61 51  1  0
 63 65  2  0
 64 63  1  0
 66 64  1  0
 67 76  2  0
 67 72  1  0
 68 64  1  0
 68 72  1  0
 69 68  1  0
 70 71  1  0
 70 69  1  0
 71 67  1  0
 72 73  2  0
 73 74  1  0
 75 74  2  0
 76 75  1  0
 77 51  1  0
 77 82  1  0
 77 78  1  0
 78 81  1  1
 78 79  1  0
 80 78  1  0
 82 85  1  0
 83 87  1  0
 83 82  1  0
 84 83  2  0
 87 86  1  0
 89 87  1  0
 89 90  1  0
 89 88  1  0
M  ISO  4  12 100  13 100  49 101  50 101
M  END
>  <TORSDO>  (72) 
F 19

>  <SCORE>  (72) 
-16.105

>  <name>  (72) 
76

>  <ligand_id>  (72) 
76

>  <original_smiles>  (72) 
[H]c1nc(C(C([H])([H])[H])(C([H])([H])[H])C(C(=O)N2C([H])([H])C([H])([H])C([H])([H])C([H])(n3nc(-c4c([H])c([H])c(Oc5c([H])c([H])c(F)c([H])c5F)c([H])c4[H])c(C(=O)N([H])[H])c3N([H])[H])C2([H])[H])(C([H])([H])[H])C([H])([H])[H])nc([H])c1C([H])([H])Oc1c([H])c([H])c2c(c1[H])C([H])([H])N(C(=O)C([H])(N([H])C(=O)C([H])(N([H])C([H])([H])[H])C([H])([H])[H])C(C([H])([H])[H])(C([H])([H])[H])C([H])([H])[H])C([H])(C(=O)N([H])C1([H])c3c([H])c([H])c([H])c([H])c3C([H])([H])C([H])([H])C1([H])[H])C2([H])[H]

>  <smiles>  (72) 
[H]c1nc(C(C([H])([H])[H])(C([H])([H])[H])C(C(=O)N2C([H])([H])C([H])([H])C([H])([H])C([H])(n3nc(-c4c([H])c([H])c(Oc5c([H])c([H])c(F)c([H])c5F)c([H])c4[H])c(C(=O)N([H])[H])c3N([H])[H])C2([H])[H])(C([H])([H])[H])C([H])([H])[H])nc([H])c1C([H])([H])Oc1c([H])c([H])c2c(c1[H])C([H])([H])N(C(=O)C([H])(N([H])C(=O)C([H])(N([H])C([H])([H])[H])C([H])([H])[H])C(C([H])([H])[H])(C([H])([H])[H])C([H])([H])[H])C([H])(C(=O)N([H])C1([H])c3c([H])c([H])c([H])c([H])c3C([H])([H])C([H])([H])C1([H])[H])C2([H])[H]

$$$$
77:0:0
     RDKit          3D

 97105  0  0  1  0  0  0  0  0999 V2000
  -30.1920  -18.3180   22.1740 C   0  0  0  0  0  3  0  0  0  0  0  0
  -31.1690  -17.7470   21.3170 C   0  0  0  0  0  0  0  0  0  0  0  0
  -31.7590  -19.8840   20.6170 C   0  0  0  0  0  0  0  0  0  0  0  0
  -30.8000  -20.4450   21.5020 C   0  0  0  0  0  0  0  0  0  0  0  0
  -32.6860  -20.7350   19.7630 C   0  0  0  0  0  1  0  0  0  0  0  0
  -30.0030  -19.6570   22.2640 N   0  0  0  0  0  0  0  0  0  0  0  0
  -31.9240  -18.5450   20.5160 N   0  0  0  0  0  0  0  0  0  0  0  0
  -32.7930  -15.8610   20.8780 C   0  0  0  0  0  1  0  0  0  0  0  0
  -30.9200  -15.4720   22.4150 C   0  0  0  0  0  1  0  0  0  0  0  0
  -31.2970  -16.2190   21.1110 C   0  0  1  0  0  0  0  0  0  0  0  0
  -30.3560  -15.7520   19.9260 C   0  0  0  0  0  3  0  0  0  0  0  0
  -30.8680  -14.5020   19.1490 C   0  0  0  0  0  0  0  0  0  0  0  0
  -30.3020  -12.3910   18.0170 C   0  0  0  0  0  2  0  0  0  0  0  0
  -29.1250  -12.6480   17.0520 C   0  0  0  0  0  2  0  0  0  0  0  0
  -27.7760  -12.4990   17.7830 C   0  0  0  0  0  2  0  0  0  0  0  0
  -27.7300  -13.2870   19.1200 C   0  0  0  0  0  3  0  0  0  0  0  0
  -28.9960  -13.0170   19.9620 C   0  0  0  0  0  2  0  0  0  0  0  0
  -30.1700  -13.3350   19.1380 N   0  0  0  0  0  0  0  0  0  0  0  0
  -31.8500  -14.6680   18.4160 O   0  0  0  0  0  0  0  0  0  0  0  0
  -25.6220  -13.8750   20.4730 C   0  0  0  0  0  0  0  0  0  0  0  0
  -24.6130  -13.0980   20.9760 C   0  0  0  0  0  0  0  0  0  0  0  0
  -24.9490  -11.7510   20.6420 C   0  0  0  0  0  0  0  0  0  0  0  0
  -26.5110  -12.9990   19.8700 N   0  0  0  0  0  0  0  0  0  0  0  0
  -26.1230  -11.7080   20.0250 N   0  0  0  0  0  0  0  0  0  0  0  0
  -24.1950  -10.5050   20.8220 C   0  0  0  0  0  0  0  0  0  0  0  0
  -24.6130   -9.5100   21.7340 C   0  0  0  0  0  3  0  0  0  0  0  0
  -23.8580   -8.3290   21.9010 C   0  0  0  0  0  3  0  0  0  0  0  0
  -22.6710   -8.1330   21.1550 C   0  0  0  0  0  0  0  0  0  0  0  0
  -22.2730   -9.1150   20.2300 C   0  0  0  0  0  3  0  0  0  0  0  0
  -23.0290  -10.2870   20.0610 C   0  0  0  0  0  3  0  0  0  0  0  0
  -21.8880   -7.0070   21.2310 O   0  0  0  0  0  0  0  0  0  0  0  0
  -21.6160   -6.4020   22.4320 C   0  0  0  0  0  0  0  0  0  0  0  0
  -20.9620   -7.0850   23.4810 C   0  0  0  0  0  3  0  0  0  0  0  0
  -20.6400   -6.4040   24.6720 C   0  0  0  0  0  3  0  0  0  0  0  0
  -20.9610   -5.0400   24.8130 C   0  0  0  0  0  0  0  0  0  0  0  0
  -21.6070   -4.3570   23.7680 C   0  0  0  0  0  3  0  0  0  0  0  0
  -21.9310   -5.0360   22.5800 C   0  0  0  0  0  0  0  0  0  0  0  0
  -22.5350   -4.3660   21.5680 F   0  0  0  0  0  0  0  0  0  0  0  0
  -20.6450   -4.3840   25.9540 F   0  0  0  0  0  0  0  0  0  0  0  0
  -23.3610  -13.5820   21.6470 C   0  0  0  0  0  0  0  0  0  0  0  0
  -22.8310  -12.8090   22.5880 N   0  0  0  0  0  0  0  0  0  0  0  0
  -22.8720  -14.6780   21.3750 O   0  0  0  0  0  0  0  0  0  0  0  0
  -23.2440  -11.9190   22.8260 H   0  0  0  0  0  0  0  0  0  0  0  0
  -22.0010  -13.1110   23.0790 H   0  0  0  0  0  0  0  0  0  0  0  0
  -25.8470  -15.2480   20.4580 N   0  0  0  0  0  0  0  0  0  0  0  0
  -25.1810  -15.9090   20.8440 H   0  0  0  0  0  0  0  0  0  0  0  0
  -26.6330  -15.6970   20.0070 H   0  0  0  0  0  0  0  0  0  0  0  0
  -28.8530  -16.5740   17.9320 C   0  0  0  0  0  1  0  0  0  0  0  0
  -29.9920  -16.8900   18.9160 C   0  0  0  0  0  2  0  0  0  0  0  0
  -30.7010  -21.9440   21.7530 C   0  0  0  0  0  2  0  0  0  0  0  0
  -29.6400  -22.7280   20.9420 C   0  0  0  0  0  2  0  0  0  0  0  0
  -29.8580  -24.2400   21.2020 C   0  0  0  0  0  2  0  0  0  0  0  0
  -29.2290  -26.5720   21.6310 C   0  0  0  0  0  1  0  0  0  0  0  0
  -27.4190  -24.8380   21.5150 C   0  0  0  0  0  1  0  0  0  0  0  0
  -28.7530  -25.2960   20.8890 C   0  0  2  0  0  0  0  0  0  0  0  0
  -28.5820  -25.5470   19.3440 C   0  0  0  0  0  2  0  0  0  0  0  0
  -28.4540  -26.9130   18.9030 O   0  0  0  0  0  0  0  0  0  0  0  0
  -24.5720  -31.1740   22.9730 C   0  0  0  0  0  0  0  0  0  0  0  0
  -27.2300  -27.5280   19.0280 C   0  0  0  0  0  0  0  0  0  0  0  0
  -23.3220  -29.9600   21.2160 C   0  0  0  0  0  3  0  0  0  0  0  0
  -24.7440  -28.8030   19.4400 C   0  0  0  0  0  0  0  0  0  0  0  0
  -25.7830  -30.5690   20.8800 C   0  0  0  0  0  2  0  0  0  0  0  0
  -25.9080  -29.3410   20.0050 C   0  0  0  0  0  0  0  0  0  0  0  0
  -27.1520  -28.7210   19.7780 C   0  0  0  0  0  3  0  0  0  0  0  0
  -26.0530  -27.0000   18.4510 C   0  0  0  0  0  3  0  0  0  0  0  0
  -24.8120  -27.6370   18.6550 C   0  0  0  0  0  3  0  0  0  0  0  0
  -23.4480  -29.5290   19.7300 C   0  0  0  0  0  2  0  0  0  0  0  0
  -24.5810  -30.5730   21.7470 N   0  0  0  0  0  0  0  0  0  0  0  0
  -23.5330  -31.2600   23.6370 O   0  0  0  0  0  0  0  0  0  0  0  0
  -22.8340  -28.7490   22.0430 C   0  0  0  0  0  0  0  0  0  0  0  0
  -21.5420  -28.4140   21.9010 N   0  0  0  0  0  0  0  0  0  0  0  0
  -23.6140  -28.1160   22.7590 O   0  0  0  0  0  0  0  0  0  0  0  0
  -20.9710  -28.9880   21.2980 H   0  0  0  0  0  0  0  0  0  0  0  0
  -18.3950  -26.6500   22.1230 C   0  0  0  0  0  0  0  0  0  0  0  0
  -20.8660  -27.2850   22.5410 C   0  0  0  0  0  3  0  0  0  0  0  0
  -21.2230  -25.9520   21.8440 C   0  0  0  0  0  2  0  0  0  0  0  0
  -20.2250  -25.5590   20.7500 C   0  0  0  0  0  2  0  0  0  0  0  0
  -18.8160  -25.4160   21.3370 C   0  0  0  0  0  2  0  0  0  0  0  0
  -19.3590  -27.5350   22.6720 C   0  0  0  0  0  0  0  0  0  0  0  0
  -18.9230  -28.6850   23.3640 C   0  0  0  0  0  3  0  0  0  0  0  0
  -17.5490  -28.9550   23.5140 C   0  0  0  0  0  3  0  0  0  0  0  0
  -16.5970  -28.0660   22.9880 C   0  0  0  0  0  3  0  0  0  0  0  0
  -17.0200  -26.9140   22.2980 C   0  0  0  0  0  3  0  0  0  0  0  0
  -25.8640  -31.7980   23.5870 C   0  0  0  0  0  3  0  0  0  0  0  0
  -25.5300  -33.1610   24.0190 N   0  0  0  0  0  0  0  0  0  0  0  0
  -25.8780  -34.2750   23.3570 C   0  0  0  0  0  0  0  0  0  0  0  0
  -26.5800  -34.2570   22.3440 O   0  0  0  0  0  0  0  0  0  0  0  0
  -24.9060  -33.2390   24.8090 H   0  0  0  0  0  0  0  0  0  0  0  0
  -24.1590  -36.0890   23.0780 C   0  0  0  0  0  1  0  0  0  0  0  0
  -25.3630  -35.6180   23.9090 C   0  0  0  0  0  3  0  0  0  0  0  0
  -27.4590  -36.4270   24.8990 C   0  0  0  0  0  1  0  0  0  0  0  0
  -26.3930  -36.6790   23.9330 N   0  0  0  0  0  0  0  0  0  0  0  0
  -25.9790  -37.5820   24.1470 H   0  0  0  0  0  0  0  0  0  0  0  0
  -26.4450  -30.9560   24.7910 C   0  0  1  0  0  0  0  0  0  0  0  0
  -25.4040  -30.6230   25.8860 C   0  0  0  0  0  1  0  0  0  0  0  0
  -27.0430  -29.6230   24.2780 C   0  0  0  0  0  1  0  0  0  0  0  0
  -27.5980  -31.7400   25.4600 C   0  0  0  0  0  1  0  0  0  0  0  0
  1  6  1  0
  2  1  2  0
  3  4  1  0
  4 50  1  0
  4  6  2  0
  5  3  1  0
  7  3  2  0
  7  2  1  0
 10  8  1  6
 10  2  1  0
 10  9  1  0
 11 49  1  0
 11 10  1  0
 12 11  1  0
 13 18  1  0
 14 15  1  0
 14 13  1  0
 16 15  1  0
 16 23  1  0
 16 17  1  0
 18 12  1  0
 18 17  1  0
 19 12  2  0
 20 21  2  0
 21 40  1  0
 22 25  1  0
 22 21  1  0
 23 24  1  0
 23 20  1  0
 24 22  2  0
 25 26  1  0
 26 27  2  0
 28 31  1  0
 28 27  1  0
 29 28  2  0
 30 29  1  0
 30 25  2  0
 31 32  1  0
 32 37  2  0
 32 33  1  0
 33 34  2  0
 34 35  1  0
 35 39  1  0
 36 35  2  0
 37 36  1  0
 38 37  1  0
 40 41  1  0
 41 43  1  0
 41 44  1  0
 42 40  2  0
 45 20  1  0
 45 46  1  0
 47 45  1  0
 48 49  1  0
 51 52  1  0
 51 50  1  0
 55 52  1  0
 55 54  1  1
 55 53  1  0
 56 55  1  0
 57 59  1  0
 57 56  1  0
 58 69  2  0
 59 64  1  0
 60 68  1  0
 60 70  1  0
 61 67  1  0
 61 63  1  0
 62 68  1  0
 63 62  1  0
 64 63  2  0
 65 66  1  0
 65 59  2  0
 66 61  2  0
 67 60  1  0
 68 58  1  0
 70 72  2  0
 71 70  1  0
 73 71  1  0
 74 83  2  0
 74 79  1  0
 75 71  1  0
 75 79  1  0
 76 75  1  0
 77 78  1  0
 77 76  1  0
 78 74  1  0
 79 80  2  0
 80 81  1  0
 82 81  2  0
 83 82  1  0
 84 58  1  0
 84 85  1  0
 84 94  1  0
 85 88  1  0
 86 90  1  0
 86 85  1  0
 87 86  2  0
 90 89  1  0
 90 92  1  0
 92 93  1  0
 92 91  1  0
 94 97  1  1
 94 95  1  0
 96 94  1  0
M  ISO  4  11 100  12 100  56 101  57 101
M  END
>  <TORSDO>  (73) 
F 24

>  <SCORE>  (73) 
-5.939

>  <name>  (73) 
77

>  <ligand_id>  (73) 
77

>  <original_smiles>  (73) 
[H]c1nc(C([H])([H])C([H])([H])C([H])([H])C(C([H])([H])[H])(C([H])([H])[H])C([H])([H])Oc2c([H])c([H])c3c(c2[H])C([H])([H])N(C(=O)C([H])(N([H])C(=O)C([H])(N([H])C([H])([H])[H])C([H])([H])[H])C(C([H])([H])[H])(C([H])([H])[H])C([H])([H])[H])C([H])(C(=O)N([H])C2([H])c4c([H])c([H])c([H])c([H])c4C([H])([H])C([H])([H])C2([H])[H])C3([H])[H])c(C([H])([H])[H])nc1C(C([H])([H])[H])(C([H])([H])[H])C([H])(C(=O)N1C([H])([H])C([H])([H])C([H])([H])C([H])(n2nc(-c3c([H])c([H])c(Oc4c([H])c([H])c(F)c([H])c4F)c([H])c3[H])c(C(=O)N([H])[H])c2N([H])[H])C1([H])[H])C([H])([H])C([H])([H])[H]

>  <smiles>  (73) 
[H]c1nc(C([H])([H])C([H])([H])C([H])([H])C(C([H])([H])[H])(C([H])([H])[H])C([H])([H])Oc2c([H])c([H])c3c(c2[H])C([H])([H])N(C(=O)C([H])(N([H])C(=O)C([H])(N([H])C([H])([H])[H])C([H])([H])[H])C(C([H])([H])[H])(C([H])([H])[H])C([H])([H])[H])C([H])(C(=O)N([H])C2([H])c4c([H])c([H])c([H])c([H])c4C([H])([H])C([H])([H])C2([H])[H])C3([H])[H])c(C([H])([H])[H])nc1C(C([H])([H])[H])(C([H])([H])[H])C([H])(C(=O)N1C([H])([H])C([H])([H])C([H])([H])C([H])(n2nc(-c3c([H])c([H])c(Oc4c([H])c([H])c(F)c([H])c4F)c([H])c3[H])c(C(=O)N([H])[H])c2N([H])[H])C1([H])[H])C([H])([H])C([H])([H])[H]

$$$$
78:0:0
     RDKit          3D

 95103  0  0  1  0  0  0  0  0999 V2000
  -27.3050  -20.6640   20.4670 C   0  0  0  0  0  1  0  0  0  0  0  0
  -28.5690  -21.4120   18.4510 C   0  0  0  0  0  1  0  0  0  0  0  0
  -28.6920  -21.1360   19.9660 C   0  0  1  0  0  0  0  0  0  0  0  0
  -29.0240  -22.3470   22.2250 C   0  0  0  0  0  1  0  0  0  0  0  0
  -30.5230  -22.9930   20.3650 C   0  0  0  0  0  1  0  0  0  0  0  0
  -29.0680  -22.5800   20.6870 C   0  0  1  0  0  0  0  0  0  0  0  0
  -28.1300  -23.9190   20.4960 C   0  0  0  0  0  2  0  0  0  0  0  0
  -28.3440  -25.1120   19.4330 C   0  0  0  0  0  2  0  0  0  0  0  0
  -28.2640  -26.5560   19.8150 O   0  0  0  0  0  0  0  0  0  0  0  0
  -24.5300  -31.7820   23.0420 C   0  0  0  0  0  0  0  0  0  0  0  0
  -27.1070  -27.3540   19.7730 C   0  0  0  0  0  0  0  0  0  0  0  0
  -23.2930  -30.4260   21.3880 C   0  0  0  0  0  3  0  0  0  0  0  0
  -24.7190  -28.9440   19.8600 C   0  0  0  0  0  0  0  0  0  0  0  0
  -25.8180  -30.7900   21.1330 C   0  0  0  0  0  2  0  0  0  0  0  0
  -25.8950  -29.4320   20.4380 C   0  0  0  0  0  0  0  0  0  0  0  0
  -27.0870  -28.6500   20.3810 C   0  0  0  0  0  3  0  0  0  0  0  0
  -25.9060  -26.9140   19.1700 C   0  0  0  0  0  3  0  0  0  0  0  0
  -24.7280  -27.6940   19.2130 C   0  0  0  0  0  3  0  0  0  0  0  0
  -23.4690  -29.7990   19.9780 C   0  0  0  0  0  2  0  0  0  0  0  0
  -24.5680  -31.0150   21.9120 N   0  0  0  0  0  0  0  0  0  0  0  0
  -23.4610  -32.0230   23.6200 O   0  0  0  0  0  0  0  0  0  0  0  0
  -22.6750  -29.3690   22.3340 C   0  0  0  0  0  0  0  0  0  0  0  0
  -21.3490  -29.1710   22.2370 N   0  0  0  0  0  0  0  0  0  0  0  0
  -23.3860  -28.7280   23.1110 O   0  0  0  0  0  0  0  0  0  0  0  0
  -20.8310  -29.7430   21.5830 H   0  0  0  0  0  0  0  0  0  0  0  0
  -18.0150  -27.8750   22.7680 C   0  0  0  0  0  0  0  0  0  0  0  0
  -20.5690  -28.1930   22.9970 C   0  0  0  0  0  3  0  0  0  0  0  0
  -20.6960  -26.7800   22.3820 C   0  0  0  0  0  2  0  0  0  0  0  0
  -19.5860  -26.4550   21.3800 C   0  0  0  0  0  2  0  0  0  0  0  0
  -18.2110  -26.5500   22.0490 C   0  0  0  0  0  2  0  0  0  0  0  0
  -19.1220  -28.6530   23.1970 C   0  0  0  0  0  0  0  0  0  0  0  0
  -18.8810  -29.8950   23.8250 C   0  0  0  0  0  3  0  0  0  0  0  0
  -17.5680  -30.3570   24.0300 C   0  0  0  0  0  3  0  0  0  0  0  0
  -16.4760  -29.5770   23.6140 C   0  0  0  0  0  3  0  0  0  0  0  0
  -16.7000  -28.3370   22.9910 C   0  0  0  0  0  3  0  0  0  0  0  0
  -25.8250  -32.4100   23.6450 C   0  0  0  0  0  3  0  0  0  0  0  0
  -25.5040  -33.7870   24.0490 N   0  0  0  0  0  0  0  0  0  0  0  0
  -25.7960  -34.8790   23.3290 C   0  0  0  0  0  0  0  0  0  0  0  0
  -26.4310  -34.8330   22.2710 O   0  0  0  0  0  0  0  0  0  0  0  0
  -24.9370  -33.8970   24.8780 H   0  0  0  0  0  0  0  0  0  0  0  0
  -24.0270  -36.6560   23.1140 C   0  0  0  0  0  1  0  0  0  0  0  0
  -25.3050  -36.2390   23.8610 C   0  0  0  0  0  3  0  0  0  0  0  0
  -27.4540  -37.1240   24.6540 C   0  0  0  0  0  1  0  0  0  0  0  0
  -26.3160  -37.3130   23.7570 N   0  0  0  0  0  0  0  0  0  0  0  0
  -25.9030  -38.2200   23.9570 H   0  0  0  0  0  0  0  0  0  0  0  0
  -26.3970  -31.5960   24.8700 C   0  0  1  0  0  0  0  0  0  0  0  0
  -25.3460  -31.2990   25.9650 C   0  0  0  0  0  1  0  0  0  0  0  0
  -26.9840  -30.2450   24.4020 C   0  0  0  0  0  1  0  0  0  0  0  0
  -27.5600  -32.3800   25.5210 C   0  0  0  0  0  1  0  0  0  0  0  0
  -29.7600  -19.8920   20.1500 C   0  0  0  0  0  2  0  0  0  0  0  0
  -29.7440  -16.1560   19.6960 C   0  0  0  0  0  0  0  0  0  0  0  0
  -29.4760  -18.3360   19.9230 C   0  0  0  0  0  0  0  0  0  0  0  0
  -28.7260  -16.5370   18.9050 N   0  0  0  0  0  0  0  0  0  0  0  0
  -28.5760  -17.9090   19.0280 N   0  0  0  0  0  0  0  0  0  0  0  0
  -30.2040  -17.2500   20.4390 N   0  0  0  0  0  0  0  0  0  0  0  0
  -30.4590  -14.7620   19.4610 C   0  0  0  0  0  0  0  0  0  0  0  0
  -30.0700  -12.5150   18.4600 C   0  0  0  0  0  2  0  0  0  0  0  0
  -28.9990  -12.6510   17.3560 C   0  0  0  0  0  2  0  0  0  0  0  0
  -27.5890  -12.5000   17.9590 C   0  0  0  0  0  2  0  0  0  0  0  0
  -27.3830  -13.3570   19.2370 C   0  0  0  0  0  3  0  0  0  0  0  0
  -28.5650  -13.2380   20.2160 C   0  0  0  0  0  2  0  0  0  0  0  0
  -29.7910  -13.5550   19.4790 N   0  0  0  0  0  0  0  0  0  0  0  0
  -31.6050  -14.8040   19.0030 O   0  0  0  0  0  0  0  0  0  0  0  0
  -25.1310  -13.9650   20.2990 C   0  0  0  0  0  0  0  0  0  0  0  0
  -24.1040  -13.1970   20.7810 C   0  0  0  0  0  0  0  0  0  0  0  0
  -24.5290  -11.8410   20.6430 C   0  0  0  0  0  0  0  0  0  0  0  0
  -26.1090  -13.0740   19.8920 N   0  0  0  0  0  0  0  0  0  0  0  0
  -25.7650  -11.7900   20.1620 N   0  0  0  0  0  0  0  0  0  0  0  0
  -23.8040  -10.5850   20.8900 C   0  0  0  0  0  0  0  0  0  0  0  0
  -24.2920   -9.6120   21.7900 C   0  0  0  0  0  3  0  0  0  0  0  0
  -23.5690   -8.4220   22.0200 C   0  0  0  0  0  3  0  0  0  0  0  0
  -22.3430   -8.1950   21.3510 C   0  0  0  0  0  0  0  0  0  0  0  0
  -21.8750   -9.1560   20.4360 C   0  0  0  0  0  3  0  0  0  0  0  0
  -22.5980  -10.3380   20.2050 C   0  0  0  0  0  3  0  0  0  0  0  0
  -21.5830   -7.0610   21.4910 O   0  0  0  0  0  0  0  0  0  0  0  0
  -21.5550   -6.3550   22.6680 C   0  0  0  0  0  0  0  0  0  0  0  0
  -21.1630   -6.9520   23.8850 C   0  0  0  0  0  3  0  0  0  0  0  0
  -21.0830   -6.1730   25.0580 C   0  0  0  0  0  3  0  0  0  0  0  0
  -21.3860   -4.7980   25.0140 C   0  0  0  0  0  0  0  0  0  0  0  0
  -21.7690   -4.2020   23.7990 C   0  0  0  0  0  3  0  0  0  0  0  0
  -21.8510   -4.9780   22.6300 C   0  0  0  0  0  0  0  0  0  0  0  0
  -22.2010   -4.3930   21.4580 F   0  0  0  0  0  0  0  0  0  0  0  0
  -21.3010   -4.0470   26.1370 F   0  0  0  0  0  0  0  0  0  0  0  0
  -22.7650  -13.6910   21.2450 C   0  0  0  0  0  0  0  0  0  0  0  0
  -22.1400  -12.9910   22.1860 N   0  0  0  0  0  0  0  0  0  0  0  0
  -22.2800  -14.7300   20.8040 O   0  0  0  0  0  0  0  0  0  0  0  0
  -22.5470  -12.1500   22.5730 H   0  0  0  0  0  0  0  0  0  0  0  0
  -21.2390  -13.3000   22.5180 H   0  0  0  0  0  0  0  0  0  0  0  0
  -25.3090  -15.3400   20.1490 N   0  0  0  0  0  0  0  0  0  0  0  0
  -24.6070  -16.0180   20.4180 H   0  0  0  0  0  0  0  0  0  0  0  0
  -26.1310  -15.7710   19.7410 H   0  0  0  0  0  0  0  0  0  0  0  0
  -31.7510  -15.9050   21.9880 C   0  0  0  0  0  1  0  0  0  0  0  0
  -30.5360  -17.8330   22.8230 C   0  0  0  0  0  1  0  0  0  0  0  0
  -32.4640  -18.1090   21.1600 C   0  0  0  0  0  1  0  0  0  0  0  0
  -31.2150  -17.2870   21.5430 C   0  0  2  0  0  0  0  0  0  0  0  0
  3  2  1  6
  3 50  1  0
  3  1  1  0
  3  6  1  0
  6  5  1  6
  6  4  1  0
  7  6  1  0
  8  9  1  0
  8  7  1  0
 10 21  2  0
 11  9  1  0
 11 16  1  0
 12 20  1  0
 12 22  1  0
 13 19  1  0
 13 15  1  0
 14 20  1  0
 15 14  1  0
 16 15  2  0
 17 18  1  0
 17 11  2  0
 18 13  2  0
 19 12  1  0
 20 10  1  0
 22 24  2  0
 23 22  1  0
 25 23  1  0
 26 35  2  0
 26 31  1  0
 27 23  1  0
 27 31  1  0
 28 27  1  0
 29 30  1  0
 29 28  1  0
 30 26  1  0
 31 32  2  0
 32 33  1  0
 34 33  2  0
 35 34  1  0
 36 10  1  0
 36 37  1  0
 36 46  1  0
 37 40  1  0
 38 42  1  0
 38 37  1  0
 39 38  2  0
 42 41  1  0
 44 42  1  0
 44 45  1  0
 44 43  1  0
 46 49  1  1
 46 47  1  0
 48 46  1  0
 51 55  1  0
 52 50  1  0
 52 55  1  0
 53 54  1  0
 53 51  2  0
 54 52  2  0
 55 95  1  0
 56 62  1  0
 56 51  1  0
 57 62  1  0
 58 59  1  0
 58 57  1  0
 60 59  1  0
 60 67  1  0
 60 61  1  0
 62 61  1  0
 63 56  2  0
 64 65  2  0
 65 84  1  0
 66 65  1  0
 66 69  1  0
 67 68  1  0
 67 64  1  0
 68 66  2  0
 69 70  1  0
 70 71  2  0
 72 75  1  0
 72 71  1  0
 73 72  2  0
 74 73  1  0
 74 69  2  0
 75 76  1  0
 76 77  1  0
 77 78  2  0
 79 78  1  0
 79 83  1  0
 80 79  2  0
 81 76  2  0
 81 80  1  0
 82 81  1  0
 84 85  1  0
 85 88  1  0
 85 87  1  0
 86 84  2  0
 89 64  1  0
 89 90  1  0
 91 89  1  0
 95 94  1  6
 95 92  1  0
 95 93  1  0
M  ISO  4   8 101   9 101  51 100  56 100
M  END
>  <TORSDO>  (74) 
F 22

>  <SCORE>  (74) 
-10.825

>  <name>  (74) 
78

>  <ligand_id>  (74) 
78

>  <original_smiles>  (74) 
[H]c1c([H])c([H])c2c(c1[H])C([H])([H])C([H])([H])C([H])([H])C2([H])N([H])C(=O)C1([H])N(C(=O)C([H])(N([H])C(=O)C([H])(N([H])C([H])([H])[H])C([H])([H])[H])C(C([H])([H])[H])(C([H])([H])[H])C([H])([H])[H])C([H])([H])c2c([H])c(OC([H])([H])C([H])([H])C(C([H])([H])[H])(C([H])([H])[H])C(C([H])([H])[H])(C([H])([H])[H])C([H])([H])c3nnc(C(=O)N4C([H])([H])C([H])([H])C([H])([H])C([H])(n5nc(-c6c([H])c([H])c(Oc7c([H])c([H])c(F)c([H])c7F)c([H])c6[H])c(C(=O)N([H])[H])c5N([H])[H])C4([H])[H])n3C(C([H])([H])[H])(C([H])([H])[H])C([H])([H])[H])c([H])c([H])c2C1([H])[H]

>  <smiles>  (74) 
[H]c1c([H])c([H])c2c(c1[H])C([H])([H])C([H])([H])C([H])([H])C2([H])N([H])C(=O)C1([H])N(C(=O)C([H])(N([H])C(=O)C([H])(N([H])C([H])([H])[H])C([H])([H])[H])C(C([H])([H])[H])(C([H])([H])[H])C([H])([H])[H])C([H])([H])c2c([H])c(OC([H])([H])C([H])([H])C(C([H])([H])[H])(C([H])([H])[H])C(C([H])([H])[H])(C([H])([H])[H])C([H])([H])c3nnc(C(=O)N4C([H])([H])C([H])([H])C([H])([H])C([H])(n5nc(-c6c([H])c([H])c(Oc7c([H])c([H])c(F)c([H])c7F)c([H])c6[H])c(C(=O)N([H])[H])c5N([H])[H])C4([H])[H])n3C(C([H])([H])[H])(C([H])([H])[H])C([H])([H])[H])c([H])c([H])c2C1([H])[H]

$$$$
79:0:0
     RDKit          3D

 97105  0  0  1  0  0  0  0  0999 V2000
  -27.7750  -22.4070   20.2360 C   0  0  1  0  0  0  0  0  0  0  0  0
  -26.1170  -20.6050   19.3020 C   0  0  0  0  0  1  0  0  0  0  0  0
  -27.8320  -21.4800   17.8000 C   0  0  0  0  0  1  0  0  0  0  0  0
  -27.5900  -21.0960   19.2770 C   0  0  1  0  0  0  0  0  0  0  0  0
  -30.6550  -19.1060   19.9910 C   0  0  0  0  0  3  0  0  0  0  0  0
  -28.1200  -18.4750   19.5540 C   0  0  0  0  0  3  0  0  0  0  0  0
  -30.3000  -17.7270   19.8470 C   0  0  0  0  0  0  0  0  0  0  0  0
  -28.5100  -19.8550   19.6120 C   0  0  0  0  0  0  0  0  0  0  0  0
  -28.9960  -17.4130   19.6330 N   0  0  0  0  0  0  0  0  0  0  0  0
  -29.8080  -20.1400   19.8210 N   0  0  0  0  0  0  0  0  0  0  0  0
  -32.4510  -17.1010   20.9870 C   0  0  0  0  0  1  0  0  0  0  0  0
  -32.2020  -17.1320   18.4340 C   0  0  0  0  0  1  0  0  0  0  0  0
  -31.5110  -16.7260   19.7950 C   0  0  2  0  0  0  0  0  0  0  0  0
  -31.5670  -15.1190   19.7330 C   0  0  0  0  0  0  0  0  0  0  0  0
  -30.9630  -12.8430   19.0140 C   0  0  0  0  0  2  0  0  0  0  0  0
  -30.0530  -12.8810   17.7770 C   0  0  0  0  0  2  0  0  0  0  0  0
  -28.6000  -12.8050   18.2530 C   0  0  0  0  0  2  0  0  0  0  0  0
  -28.2830  -13.8340   19.3730 C   0  0  0  0  0  3  0  0  0  0  0  0
  -29.3760  -13.9430   20.4630 C   0  0  0  0  0  2  0  0  0  0  0  0
  -30.6770  -14.0750   19.8010 N   0  0  0  0  0  0  0  0  0  0  0  0
  -32.7110  -14.7850   19.4370 O   0  0  0  0  0  0  0  0  0  0  0  0
  -25.9790  -14.5090   20.2510 C   0  0  0  0  0  0  0  0  0  0  0  0
  -24.8920  -13.7850   20.6540 C   0  0  0  0  0  0  0  0  0  0  0  0
  -25.2810  -12.4150   20.5690 C   0  0  0  0  0  0  0  0  0  0  0  0
  -26.9640  -13.5880   19.9440 N   0  0  0  0  0  0  0  0  0  0  0  0
  -26.5550  -12.3180   20.1980 N   0  0  0  0  0  0  0  0  0  0  0  0
  -24.4920  -11.1920   20.7610 C   0  0  0  0  0  0  0  0  0  0  0  0
  -24.8500  -10.2250   21.7240 C   0  0  0  0  0  3  0  0  0  0  0  0
  -24.0600   -9.0680   21.9030 C   0  0  0  0  0  3  0  0  0  0  0  0
  -22.8990   -8.8730   21.1180 C   0  0  0  0  0  0  0  0  0  0  0  0
  -22.5590   -9.8280   20.1440 C   0  0  0  0  0  3  0  0  0  0  0  0
  -23.3480  -10.9770   19.9640 C   0  0  0  0  0  3  0  0  0  0  0  0
  -22.0870   -7.7680   21.2070 O   0  0  0  0  0  0  0  0  0  0  0  0
  -21.9060   -7.1010   22.3930 C   0  0  0  0  0  0  0  0  0  0  0  0
  -21.3810   -7.7440   23.5350 C   0  0  0  0  0  3  0  0  0  0  0  0
  -21.1460   -7.0070   24.7130 C   0  0  0  0  0  3  0  0  0  0  0  0
  -21.4240   -5.6260   24.7470 C   0  0  0  0  0  0  0  0  0  0  0  0
  -21.9430   -4.9830   23.6090 C   0  0  0  0  0  3  0  0  0  0  0  0
  -22.1790   -5.7190   22.4340 C   0  0  0  0  0  0  0  0  0  0  0  0
  -22.6570   -5.0900   21.3330 F   0  0  0  0  0  0  0  0  0  0  0  0
  -21.1930   -4.9170   25.8750 F   0  0  0  0  0  0  0  0  0  0  0  0
  -23.5430  -14.3350   21.0070 C   0  0  0  0  0  0  0  0  0  0  0  0
  -22.8300  -13.6700   21.9090 N   0  0  0  0  0  0  0  0  0  0  0  0
  -23.1370  -15.3920   20.5260 O   0  0  0  0  0  0  0  0  0  0  0  0
  -23.1750  -12.8150   22.3160 H   0  0  0  0  0  0  0  0  0  0  0  0
  -21.9270  -14.0190   22.1930 H   0  0  0  0  0  0  0  0  0  0  0  0
  -26.2060  -15.8650   20.0930 N   0  0  0  0  0  0  0  0  0  0  0  0
  -25.5050  -16.5690   20.2940 H   0  0  0  0  0  0  0  0  0  0  0  0
  -27.1190  -16.2450   19.8630 H   0  0  0  0  0  0  0  0  0  0  0  0
  -25.4420  -22.9710   21.5230 C   0  0  0  0  0  1  0  0  0  0  0  0
  -26.4600  -23.2680   20.3890 C   0  0  0  0  0  2  0  0  0  0  0  0
  -28.8270  -22.9780   22.6220 C   0  0  0  0  0  1  0  0  0  0  0  0
  -28.2260  -21.9320   21.6590 C   0  0  0  0  0  2  0  0  0  0  0  0
  -28.9230  -23.3960   19.7040 C   0  0  0  0  0  2  0  0  0  0  0  0
  -28.6180  -24.7810   19.0020 C   0  0  0  0  0  3  0  0  0  0  0  0
  -28.9090  -26.0570   19.8760 C   0  0  0  0  0  3  0  0  0  0  0  0
  -28.8310  -27.3710   19.2490 O   0  0  0  0  0  0  0  0  0  0  0  0
  -24.5960  -31.6120   23.1680 C   0  0  0  0  0  0  0  0  0  0  0  0
  -27.6220  -28.0290   19.3750 C   0  0  0  0  0  0  0  0  0  0  0  0
  -23.5170  -30.3690   21.3280 C   0  0  0  0  0  3  0  0  0  0  0  0
  -25.0910  -29.2730   19.6480 C   0  0  0  0  0  0  0  0  0  0  0  0
  -25.9830  -31.0450   21.1660 C   0  0  0  0  0  2  0  0  0  0  0  0
  -26.2050  -29.8150   20.3010 C   0  0  0  0  0  0  0  0  0  0  0  0
  -27.4770  -29.2050   20.1560 C   0  0  0  0  0  3  0  0  0  0  0  0
  -26.4930  -27.5230   18.7050 C   0  0  0  0  0  3  0  0  0  0  0  0
  -25.2340  -28.1350   18.8380 C   0  0  0  0  0  3  0  0  0  0  0  0
  -23.7600  -29.9640   19.8500 C   0  0  0  0  0  2  0  0  0  0  0  0
  -24.7180  -31.0170   21.9480 N   0  0  0  0  0  0  0  0  0  0  0  0
  -23.5060  -31.6580   23.7570 O   0  0  0  0  0  0  0  0  0  0  0  0
  -23.0150  -29.1330   22.1090 C   0  0  0  0  0  0  0  0  0  0  0  0
  -21.7330  -28.7810   21.9170 N   0  0  0  0  0  0  0  0  0  0  0  0
  -23.7760  -28.4990   22.8440 O   0  0  0  0  0  0  0  0  0  0  0  0
  -21.1700  -29.3670   21.3160 H   0  0  0  0  0  0  0  0  0  0  0  0
  -18.5880  -27.0070   22.0780 C   0  0  0  0  0  0  0  0  0  0  0  0
  -21.0590  -27.6260   22.5130 C   0  0  0  0  0  3  0  0  0  0  0  0
  -21.4090  -26.3200   21.7620 C   0  0  0  0  0  2  0  0  0  0  0  0
  -20.4070  -25.9670   20.6580 C   0  0  0  0  0  2  0  0  0  0  0  0
  -19.0020  -25.8060   21.2420 C   0  0  0  0  0  2  0  0  0  0  0  0
  -19.5540  -27.8690   22.6590 C   0  0  0  0  0  0  0  0  0  0  0  0
  -19.1160  -28.9870   23.3980 C   0  0  0  0  0  3  0  0  0  0  0  0
  -17.7430  -29.2510   23.5620 C   0  0  0  0  0  3  0  0  0  0  0  0
  -16.7910  -28.3860   22.9970 C   0  0  0  0  0  3  0  0  0  0  0  0
  -17.2130  -27.2650   22.2590 C   0  0  0  0  0  3  0  0  0  0  0  0
  -25.8160  -32.2820   23.8760 C   0  0  0  0  0  3  0  0  0  0  0  0
  -25.3920  -33.6160   24.3230 N   0  0  0  0  0  0  0  0  0  0  0  0
  -25.6700  -34.7560   23.6750 C   0  0  0  0  0  0  0  0  0  0  0  0
  -26.3790  -34.7980   22.6660 O   0  0  0  0  0  0  0  0  0  0  0  0
  -24.7610  -33.6500   25.1080 H   0  0  0  0  0  0  0  0  0  0  0  0
  -23.8190  -36.4430   23.4230 C   0  0  0  0  0  1  0  0  0  0  0  0
  -25.0640  -36.0570   24.2390 C   0  0  0  0  0  3  0  0  0  0  0  0
  -27.0980  -37.0170   25.2220 C   0  0  0  0  0  1  0  0  0  0  0  0
  -26.0160  -37.1880   24.2580 N   0  0  0  0  0  0  0  0  0  0  0  0
  -25.5350  -38.0590   24.4730 H   0  0  0  0  0  0  0  0  0  0  0  0
  -26.3700  -31.4380   25.0890 C   0  0  1  0  0  0  0  0  0  0  0  0
  -25.2840  -31.0210   26.1060 C   0  0  0  0  0  1  0  0  0  0  0  0
  -27.0640  -30.1520   24.5840 C   0  0  0  0  0  1  0  0  0  0  0  0
  -27.4450  -32.2510   25.8440 C   0  0  0  0  0  1  0  0  0  0  0  0
  1 51  1  1
  1 53  1  0
  4  3  1  6
  4  2  1  0
  4  8  1  0
  4  1  1  0
  6  8  2  0
  6  9  1  0
  7  5  1  0
  8 10  1  0
  9  7  2  0
 10  5  2  0
 13 12  1  6
 13  7  1  0
 13 11  1  0
 14 13  1  0
 14 20  1  0
 15 20  1  0
 16 17  1  0
 16 15  1  0
 18 17  1  0
 18 25  1  0
 18 19  1  0
 20 19  1  0
 21 14  2  0
 22 23  2  0
 23 42  1  0
 24 23  1  0
 24 27  1  0
 25 26  1  0
 25 22  1  0
 26 24  2  0
 27 28  1  0
 28 29  2  0
 30 33  1  0
 30 29  1  0
 31 30  2  0
 32 31  1  0
 32 27  2  0
 33 34  1  0
 34 39  2  0
 34 35  1  0
 35 36  2  0
 36 37  1  0
 37 41  1  0
 38 37  2  0
 39 38  1  0
 40 39  1  0
 42 43  1  0
 43 46  1  0
 43 45  1  0
 44 42  2  0
 47 22  1  0
 47 48  1  0
 49 47  1  0
 51 50  1  0
 53 52  1  0
 54  1  1  0
 55 54  1  0
 55 56  2  0
 57 59  1  0
 57 56  1  0
 58 69  2  0
 59 64  1  0
 60 68  1  0
 60 70  1  0
 61 67  1  0
 61 63  1  0
 62 68  1  0
 63 62  1  0
 64 63  2  0
 65 66  1  0
 65 59  2  0
 66 61  2  0
 67 60  1  0
 68 58  1  0
 70 72  2  0
 71 70  1  0
 73 71  1  0
 74 83  2  0
 74 79  1  0
 75 71  1  0
 75 79  1  0
 76 75  1  0
 77 78  1  0
 77 76  1  0
 78 74  1  0
 79 80  2  0
 80 81  1  0
 82 81  2  0
 83 82  1  0
 84 58  1  0
 84 85  1  0
 84 94  1  0
 85 88  1  0
 86 90  1  0
 86 85  1  0
 87 86  2  0
 90 89  1  0
 90 92  1  0
 92 93  1  0
 92 91  1  0
 94 97  1  1
 94 95  1  0
 96 94  1  0
M  ISO  4  13 100  14 100  56 101  57 101
M  END
>  <TORSDO>  (75) 
F 24

>  <SCORE>  (75) 
-8.560

>  <name>  (75) 
79

>  <ligand_id>  (75) 
79

>  <original_smiles>  (75) 
[H]c1nc(C(C([H])([H])[H])(C([H])([H])[H])C(C([H])([H])C([H])([H])[H])(C([H])([H])C([H])([H])[H])C([H])([H])C([H])([H])C([H])([H])Oc2c([H])c([H])c3c(c2[H])C([H])([H])N(C(=O)C([H])(N([H])C(=O)C([H])(N([H])C([H])([H])[H])C([H])([H])[H])C(C([H])([H])[H])(C([H])([H])[H])C([H])([H])[H])C([H])(C(=O)N([H])C2([H])c4c([H])c([H])c([H])c([H])c4C([H])([H])C([H])([H])C2([H])[H])C3([H])[H])c([H])nc1C(C(=O)N1C([H])([H])C([H])([H])C([H])([H])C([H])(n2nc(-c3c([H])c([H])c(Oc4c([H])c([H])c(F)c([H])c4F)c([H])c3[H])c(C(=O)N([H])[H])c2N([H])[H])C1([H])[H])(C([H])([H])[H])C([H])([H])[H]

>  <smiles>  (75) 
[H]c1nc(C(C([H])([H])[H])(C([H])([H])[H])C(C([H])([H])C([H])([H])[H])(C([H])([H])C([H])([H])[H])C([H])([H])C([H])([H])C([H])([H])Oc2c([H])c([H])c3c(c2[H])C([H])([H])N(C(=O)C([H])(N([H])C(=O)C([H])(N([H])C([H])([H])[H])C([H])([H])[H])C(C([H])([H])[H])(C([H])([H])[H])C([H])([H])[H])C([H])(C(=O)N([H])C2([H])c4c([H])c([H])c([H])c([H])c4C([H])([H])C([H])([H])C2([H])[H])C3([H])[H])c([H])nc1C(C(=O)N1C([H])([H])C([H])([H])C([H])([H])C([H])(n2nc(-c3c([H])c([H])c(Oc4c([H])c([H])c(F)c([H])c4F)c([H])c3[H])c(C(=O)N([H])[H])c2N([H])[H])C1([H])[H])(C([H])([H])[H])C([H])([H])[H]

$$$$
81:0:0
     RDKit          3D

 97105  0  0  1  0  0  0  0  0999 V2000
  -32.6070  -20.6840   18.9110 C   0  0  0  0  0  3  0  0  0  0  0  0
  -31.7630  -19.7100   18.3650 C   0  0  0  0  0  3  0  0  0  0  0  0
  -32.0380  -21.7280   19.6580 C   0  0  0  0  0  0  0  0  0  0  0  0
  -30.3670  -19.7950   18.5960 C   0  0  0  0  0  0  0  0  0  0  0  0
  -30.6360  -21.7970   19.7730 C   0  0  0  0  0  0  0  0  0  0  0  0
  -32.9580  -22.7260   20.3310 C   0  0  0  0  0  1  0  0  0  0  0  0
  -29.8380  -20.8250   19.2920 N   0  0  0  0  0  0  0  0  0  0  0  0
  -30.0240  -18.1390   16.7710 C   0  0  0  0  0  1  0  0  0  0  0  0
  -28.1030  -19.5520   17.4840 C   0  0  0  0  0  1  0  0  0  0  0  0
  -29.3490  -18.7720   18.0240 C   0  0  2  0  0  0  0  0  0  0  0  0
  -27.9590  -18.2630   20.1600 C   0  0  0  0  0  1  0  0  0  0  0  0
  -28.0230  -16.5990   18.3430 C   0  0  0  0  0  1  0  0  0  0  0  0
  -28.8910  -17.6510   19.0740 C   0  0  1  0  0  0  0  0  0  0  0  0
  -30.1250  -16.9760   19.7960 C   0  0  0  0  0  2  0  0  0  0  0  0
  -30.6760  -14.5520   20.1550 C   0  0  0  0  0  0  0  0  0  0  0  0
  -30.3560  -12.4480   18.8920 C   0  0  0  0  0  2  0  0  0  0  0  0
  -29.3170  -12.6350   17.7690 C   0  0  0  0  0  2  0  0  0  0  0  0
  -27.8580  -12.5920   18.2930 C   0  0  0  0  0  2  0  0  0  0  0  0
  -27.6370  -13.2850   19.6630 C   0  0  0  0  0  3  0  0  0  0  0  0
  -28.7710  -12.9240   20.6370 C   0  0  0  0  0  2  0  0  0  0  0  0
  -30.0160  -13.3660   19.9910 N   0  0  0  0  0  0  0  0  0  0  0  0
  -31.8220  -14.6980   19.7090 O   0  0  0  0  0  0  0  0  0  0  0  0
  -29.3970  -15.7910   21.8430 C   0  0  0  0  0  1  0  0  0  0  0  0
  -29.9160  -15.6520   20.4720 N   0  0  0  0  0  0  0  0  0  0  0  0
  -25.2660  -13.8800   20.4550 C   0  0  0  0  0  0  0  0  0  0  0  0
  -24.2180  -13.1010   20.8450 C   0  0  0  0  0  0  0  0  0  0  0  0
  -24.6800  -11.7490   20.7770 C   0  0  0  0  0  0  0  0  0  0  0  0
  -26.3090  -13.0060   20.1900 N   0  0  0  0  0  0  0  0  0  0  0  0
  -25.9590  -11.7200   20.4340 N   0  0  0  0  0  0  0  0  0  0  0  0
  -23.9680  -10.4830   20.9670 C   0  0  0  0  0  0  0  0  0  0  0  0
  -24.4230   -9.5130   21.8890 C   0  0  0  0  0  3  0  0  0  0  0  0
  -23.7110   -8.3110   22.0700 C   0  0  0  0  0  3  0  0  0  0  0  0
  -22.5280   -8.0670   21.3280 C   0  0  0  0  0  0  0  0  0  0  0  0
  -22.0960   -9.0230   20.3930 C   0  0  0  0  0  3  0  0  0  0  0  0
  -22.8090  -10.2190   20.2130 C   0  0  0  0  0  3  0  0  0  0  0  0
  -21.7860   -6.9150   21.4200 O   0  0  0  0  0  0  0  0  0  0  0  0
  -21.7300   -6.1870   22.5830 C   0  0  0  0  0  0  0  0  0  0  0  0
  -21.2810   -6.7530   23.7950 C   0  0  0  0  0  3  0  0  0  0  0  0
  -21.1790   -5.9510   24.9490 C   0  0  0  0  0  3  0  0  0  0  0  0
  -21.5130   -4.5850   24.8910 C   0  0  0  0  0  0  0  0  0  0  0  0
  -21.9560   -4.0180   23.6820 C   0  0  0  0  0  3  0  0  0  0  0  0
  -22.0630   -4.8180   22.5310 C   0  0  0  0  0  0  0  0  0  0  0  0
  -22.4720   -4.2640   21.3630 F   0  0  0  0  0  0  0  0  0  0  0  0
  -21.4060   -3.8130   25.9970 F   0  0  0  0  0  0  0  0  0  0  0  0
  -22.8310  -13.5650   21.1850 C   0  0  0  0  0  0  0  0  0  0  0  0
  -22.1530  -12.8530   22.0760 N   0  0  0  0  0  0  0  0  0  0  0  0
  -22.3650  -14.5980   20.7040 O   0  0  0  0  0  0  0  0  0  0  0  0
  -22.5550  -12.0200   22.4810 H   0  0  0  0  0  0  0  0  0  0  0  0
  -21.2260  -13.1410   22.3530 H   0  0  0  0  0  0  0  0  0  0  0  0
  -25.4210  -15.2570   20.2930 N   0  0  0  0  0  0  0  0  0  0  0  0
  -24.6630  -15.9070   20.4570 H   0  0  0  0  0  0  0  0  0  0  0  0
  -26.2720  -15.7060   19.9830 H   0  0  0  0  0  0  0  0  0  0  0  0
  -30.0330  -22.8880   20.3730 O   0  0  0  0  0  0  0  0  0  0  0  0
  -28.6120  -23.0510   20.2440 C   0  0  0  0  0  2  0  0  0  0  0  0
  -28.1840  -24.4690   20.6920 C   0  0  0  0  0  2  0  0  0  0  0  0
  -28.7930  -25.6120   19.8450 C   0  0  0  0  0  2  0  0  0  0  0  0
  -28.6260  -26.9250   20.4040 O   0  0  0  0  0  0  0  0  0  0  0  0
  -24.6390  -32.0220   23.3480 C   0  0  0  0  0  0  0  0  0  0  0  0
  -27.4130  -27.5850   20.3500 C   0  0  0  0  0  0  0  0  0  0  0  0
  -23.4850  -30.5770   21.7040 C   0  0  0  0  0  3  0  0  0  0  0  0
  -24.9860  -29.0430   20.3240 C   0  0  0  0  0  0  0  0  0  0  0  0
  -26.0050  -30.9760   21.5410 C   0  0  0  0  0  2  0  0  0  0  0  0
  -26.1230  -29.5950   20.9270 C   0  0  0  0  0  0  0  0  0  0  0  0
  -27.3340  -28.8670   20.9450 C   0  0  0  0  0  3  0  0  0  0  0  0
  -26.2590  -27.0540   19.7320 C   0  0  0  0  0  3  0  0  0  0  0  0
  -25.0480  -27.7730   19.7300 C   0  0  0  0  0  3  0  0  0  0  0  0
  -23.7320  -29.8850   20.3350 C   0  0  0  0  0  2  0  0  0  0  0  0
  -24.7270  -31.2070   22.2580 N   0  0  0  0  0  0  0  0  0  0  0  0
  -23.5440  -32.2800   23.8670 O   0  0  0  0  0  0  0  0  0  0  0  0
  -22.8370  -29.5570   22.6680 C   0  0  0  0  0  0  0  0  0  0  0  0
  -21.5210  -29.3350   22.5110 N   0  0  0  0  0  0  0  0  0  0  0  0
  -23.5160  -28.9650   23.5130 O   0  0  0  0  0  0  0  0  0  0  0  0
  -21.0350  -29.8700   21.8050 H   0  0  0  0  0  0  0  0  0  0  0  0
  -18.1730  -28.0420   22.9350 C   0  0  0  0  0  0  0  0  0  0  0  0
  -20.7110  -28.3900   23.2780 C   0  0  0  0  0  3  0  0  0  0  0  0
  -20.8770  -26.9500   22.7400 C   0  0  0  0  0  2  0  0  0  0  0  0
  -19.8180  -26.5670   21.7010 C   0  0  0  0  0  2  0  0  0  0  0  0
  -18.4120  -26.6840   22.2990 C   0  0  0  0  0  2  0  0  0  0  0  0
  -19.2520  -28.8500   23.3800 C   0  0  0  0  0  0  0  0  0  0  0  0
  -18.9760  -30.1180   23.9360 C   0  0  0  0  0  3  0  0  0  0  0  0
  -17.6520  -30.5810   24.0500 C   0  0  0  0  0  3  0  0  0  0  0  0
  -16.5860  -29.7730   23.6170 C   0  0  0  0  0  3  0  0  0  0  0  0
  -16.8470  -28.5060   23.0670 C   0  0  0  0  0  3  0  0  0  0  0  0
  -25.9030  -32.6860   23.9790 C   0  0  0  0  0  3  0  0  0  0  0  0
  -25.5690  -34.0870   24.2680 N   0  0  0  0  0  0  0  0  0  0  0  0
  -25.8970  -35.1240   23.4860 C   0  0  0  0  0  0  0  0  0  0  0  0
  -26.5810  -35.0040   22.4650 O   0  0  0  0  0  0  0  0  0  0  0  0
  -24.9640  -34.2540   25.0590 H   0  0  0  0  0  0  0  0  0  0  0  0
  -24.1430  -36.8800   23.0620 C   0  0  0  0  0  1  0  0  0  0  0  0
  -25.3810  -36.5160   23.8970 C   0  0  0  0  0  3  0  0  0  0  0  0
  -27.4920  -37.4590   24.7270 C   0  0  0  0  0  1  0  0  0  0  0  0
  -26.3970  -37.5830   23.7670 N   0  0  0  0  0  0  0  0  0  0  0  0
  -25.9740  -38.4980   23.8870 H   0  0  0  0  0  0  0  0  0  0  0  0
  -26.4050  -31.9540   25.2850 C   0  0  1  0  0  0  0  0  0  0  0  0
  -25.2960  -31.7250   26.3360 C   0  0  0  0  0  1  0  0  0  0  0  0
  -27.0190  -30.5780   24.9360 C   0  0  0  0  0  1  0  0  0  0  0  0
  -27.5280  -32.7820   25.9560 C   0  0  0  0  0  1  0  0  0  0  0  0
  1  3  2  0
  2  4  2  0
  2  1  1  0
  3  5  1  0
  3  6  1  0
  4  7  1  0
  5 53  1  0
  7  5  2  0
 10  8  1  6
  9 10  1  0
 10  4  1  0
 10 13  1  0
 13 12  1  6
 13 14  1  0
 13 11  1  0
 14 24  1  0
 15 24  1  0
 16 21  1  0
 17 18  1  0
 17 16  1  0
 19 18  1  0
 19 28  1  0
 19 20  1  0
 21 15  1  0
 21 20  1  0
 22 15  2  0
 24 23  1  0
 25 26  2  0
 26 45  1  0
 27 26  1  0
 27 30  1  0
 28 29  1  0
 28 25  1  0
 29 27  2  0
 30 31  1  0
 31 32  2  0
 33 36  1  0
 33 32  1  0
 34 33  2  0
 35 34  1  0
 35 30  2  0
 36 37  1  0
 37 38  1  0
 38 39  2  0
 40 39  1  0
 40 44  1  0
 41 40  2  0
 42 37  2  0
 42 41  1  0
 43 42  1  0
 45 46  1  0
 46 49  1  0
 46 48  1  0
 47 45  2  0
 50 25  1  0
 50 51  1  0
 52 50  1  0
 54 53  1  0
 54 55  1  0
 56 57  1  0
 56 55  1  0
 58 69  2  0
 59 57  1  0
 59 64  1  0
 60 68  1  0
 60 70  1  0
 61 67  1  0
 61 63  1  0
 62 68  1  0
 63 64  2  0
 63 62  1  0
 65 59  2  0
 66 65  1  0
 66 61  2  0
 67 60  1  0
 68 58  1  0
 70 72  2  0
 71 70  1  0
 73 71  1  0
 74 83  2  0
 74 79  1  0
 75 71  1  0
 75 79  1  0
 76 75  1  0
 77 78  1  0
 77 76  1  0
 78 74  1  0
 79 80  2  0
 80 81  1  0
 82 81  2  0
 83 82  1  0
 84 58  1  0
 84 85  1  0
 84 94  1  0
 85 88  1  0
 86 90  1  0
 86 85  1  0
 87 86  2  0
 90 89  1  0
 92 93  1  0
 92 90  1  0
 92 91  1  0
 94 97  1  1
 94 95  1  0
 96 94  1  0
M  ISO  4  15 100  24 100  56 101  57 101
M  END
>  <TORSDO>  (76) 
F 23

>  <SCORE>  (76) 
-11.893

>  <name>  (76) 
81

>  <ligand_id>  (76) 
81

>  <original_smiles>  (76) 
[H]c1c(C(C([H])([H])[H])(C([H])([H])[H])C(C([H])([H])[H])(C([H])([H])[H])C([H])([H])N(C(=O)N2C([H])([H])C([H])([H])C([H])([H])C([H])(n3nc(-c4c([H])c([H])c(Oc5c([H])c([H])c(F)c([H])c5F)c([H])c4[H])c(C(=O)N([H])[H])c3N([H])[H])C2([H])[H])C([H])([H])[H])nc(OC([H])([H])C([H])([H])C([H])([H])Oc2c([H])c([H])c3c(c2[H])C([H])([H])N(C(=O)C([H])(N([H])C(=O)C([H])(N([H])C([H])([H])[H])C([H])([H])[H])C(C([H])([H])[H])(C([H])([H])[H])C([H])([H])[H])C([H])(C(=O)N([H])C2([H])c4c([H])c([H])c([H])c([H])c4C([H])([H])C([H])([H])C2([H])[H])C3([H])[H])c(C([H])([H])[H])c1[H]

>  <smiles>  (76) 
[H]c1c(C(C([H])([H])[H])(C([H])([H])[H])C(C([H])([H])[H])(C([H])([H])[H])C([H])([H])N(C(=O)N2C([H])([H])C([H])([H])C([H])([H])C([H])(n3nc(-c4c([H])c([H])c(Oc5c([H])c([H])c(F)c([H])c5F)c([H])c4[H])c(C(=O)N([H])[H])c3N([H])[H])C2([H])[H])C([H])([H])[H])nc(OC([H])([H])C([H])([H])C([H])([H])Oc2c([H])c([H])c3c(c2[H])C([H])([H])N(C(=O)C([H])(N([H])C(=O)C([H])(N([H])C([H])([H])[H])C([H])([H])[H])C(C([H])([H])[H])(C([H])([H])[H])C([H])([H])[H])C([H])(C(=O)N([H])C2([H])c4c([H])c([H])c([H])c([H])c4C([H])([H])C([H])([H])C2([H])[H])C3([H])[H])c(C([H])([H])[H])c1[H]

$$$$
82:0:0
     RDKit          3D

100108  0  0  1  0  0  0  0  0999 V2000
  -30.5370  -19.9030   22.1990 C   0  0  0  0  0  3  0  0  0  0  0  0
  -31.4310  -18.7890   22.0460 C   0  0  0  0  0  3  0  0  0  0  0  0
  -29.5610  -20.0020   21.1380 C   0  0  0  0  0  0  0  0  0  0  0  0
  -30.0480  -17.7160   20.5510 C   0  0  0  0  0  0  0  0  0  0  0  0
  -31.1510  -17.7270   21.2720 N   0  0  0  0  0  0  0  0  0  0  0  0
  -29.3420  -18.8730   20.3700 N   0  0  0  0  0  0  0  0  0  0  0  0
  -30.2790  -16.7630   18.2470 C   0  0  0  0  0  1  0  0  0  0  0  0
  -28.2290  -16.3290   19.4730 C   0  0  0  0  0  1  0  0  0  0  0  0
  -29.7450  -16.4140   19.6670 C   0  0  2  0  0  0  0  0  0  0  0  0
  -30.4000  -14.9340   20.0310 C   0  0  0  0  0  0  0  0  0  0  0  0
  -30.1850  -12.6070   19.1480 C   0  0  0  0  0  2  0  0  0  0  0  0
  -29.2020  -12.5580   17.9580 C   0  0  0  0  0  2  0  0  0  0  0  0
  -27.7730  -12.2730   18.4600 C   0  0  0  0  0  2  0  0  0  0  0  0
  -27.3720  -13.1820   19.6430 C   0  0  0  0  0  3  0  0  0  0  0  0
  -28.4880  -13.3290   20.7060 C   0  0  0  0  0  2  0  0  0  0  0  0
  -29.7430  -13.7100   20.0390 N   0  0  0  0  0  0  0  0  0  0  0  0
  -31.6300  -14.8800   19.9250 O   0  0  0  0  0  0  0  0  0  0  0  0
  -25.0330  -13.6960   20.5350 C   0  0  0  0  0  0  0  0  0  0  0  0
  -24.0130  -12.8780   20.9390 C   0  0  0  0  0  0  0  0  0  0  0  0
  -24.5210  -11.5470   20.8560 C   0  0  0  0  0  0  0  0  0  0  0  0
  -26.0860  -12.8470   20.2250 N   0  0  0  0  0  0  0  0  0  0  0  0
  -25.7950  -11.5530   20.4890 N   0  0  0  0  0  0  0  0  0  0  0  0
  -23.8510  -10.2580   21.0410 C   0  0  0  0  0  0  0  0  0  0  0  0
  -24.3020   -9.3320   22.0070 C   0  0  0  0  0  3  0  0  0  0  0  0
  -23.6300   -8.1040   22.1810 C   0  0  0  0  0  3  0  0  0  0  0  0
  -22.4980   -7.7960   21.3900 C   0  0  0  0  0  0  0  0  0  0  0  0
  -22.0720   -8.7110   20.4090 C   0  0  0  0  0  3  0  0  0  0  0  0
  -22.7450   -9.9310   20.2330 C   0  0  0  0  0  3  0  0  0  0  0  0
  -21.7960   -6.6190   21.4770 O   0  0  0  0  0  0  0  0  0  0  0  0
  -21.6790   -5.9380   22.6600 C   0  0  0  0  0  0  0  0  0  0  0  0
  -21.0830   -6.5190   23.8020 C   0  0  0  0  0  3  0  0  0  0  0  0
  -20.9200   -5.7570   24.9760 C   0  0  0  0  0  3  0  0  0  0  0  0
  -21.3440   -4.4150   25.0090 C   0  0  0  0  0  0  0  0  0  0  0  0
  -21.9330   -3.8340   23.8740 C   0  0  0  0  0  3  0  0  0  0  0  0
  -22.0980   -4.5920   22.7020 C   0  0  0  0  0  0  0  0  0  0  0  0
  -22.6480   -4.0210   21.6040 F   0  0  0  0  0  0  0  0  0  0  0  0
  -21.1790   -3.6800   26.1350 F   0  0  0  0  0  0  0  0  0  0  0  0
  -22.6140  -13.3020   21.2770 C   0  0  0  0  0  0  0  0  0  0  0  0
  -21.9450  -12.5670   22.1610 N   0  0  0  0  0  0  0  0  0  0  0  0
  -22.1200  -14.3170   20.7910 O   0  0  0  0  0  0  0  0  0  0  0  0
  -22.3590  -11.7490   22.5810 H   0  0  0  0  0  0  0  0  0  0  0  0
  -21.0040  -12.8300   22.4190 H   0  0  0  0  0  0  0  0  0  0  0  0
  -25.1300  -15.0740   20.3790 N   0  0  0  0  0  0  0  0  0  0  0  0
  -24.3290  -15.6790   20.5220 H   0  0  0  0  0  0  0  0  0  0  0  0
  -25.9280  -15.5590   19.9910 H   0  0  0  0  0  0  0  0  0  0  0  0
  -29.0430  -21.1020   23.8440 C   0  0  0  0  0  1  0  0  0  0  0  0
  -30.8960  -20.0330   24.8250 C   0  0  0  0  0  1  0  0  0  0  0  0
  -30.5340  -20.7940   23.5110 C   0  0  1  0  0  0  0  0  0  0  0  0
  -32.6650  -22.2220   24.3460 C   0  0  0  0  0  1  0  0  0  0  0  0
  -30.6990  -23.4160   23.4620 C   0  0  0  0  0  1  0  0  0  0  0  0
  -31.4570  -22.0790   23.3840 C   0  0  0  0  0  3  0  0  0  0  0  0
  -33.7000  -19.8180   21.7470 C   0  0  0  0  0  1  0  0  0  0  0  0
  -32.8900  -18.7570   22.4960 C   0  0  0  0  0  2  0  0  0  0  0  0
  -28.5670  -21.2330   20.8500 C   0  0  0  0  0  3  0  0  0  0  0  0
  -28.9760  -22.6650   20.1970 C   0  0  0  0  0  3  0  0  0  0  0  0
  -27.0730  -24.1430   21.1980 C   0  0  0  0  0  1  0  0  0  0  0  0
  -26.8250  -23.1400   18.9370 C   0  0  0  0  0  1  0  0  0  0  0  0
  -27.8320  -23.7980   19.9070 C   0  0  2  0  0  0  0  0  0  0  0  0
  -28.2920  -25.1950   19.2050 C   0  0  0  0  0  2  0  0  0  0  0  0
  -28.1830  -26.5690   19.7750 O   0  0  0  0  0  0  0  0  0  0  0  0
  -24.5090  -31.7580   23.1260 C   0  0  0  0  0  0  0  0  0  0  0  0
  -27.0430  -27.3890   19.7320 C   0  0  0  0  0  0  0  0  0  0  0  0
  -23.2540  -30.4260   21.4700 C   0  0  0  0  0  3  0  0  0  0  0  0
  -24.6560  -28.9710   19.8950 C   0  0  0  0  0  0  0  0  0  0  0  0
  -25.7820  -30.7820   21.2000 C   0  0  0  0  0  2  0  0  0  0  0  0
  -25.8410  -29.4460   20.4680 C   0  0  0  0  0  0  0  0  0  0  0  0
  -27.0290  -28.6630   20.3800 C   0  0  0  0  0  3  0  0  0  0  0  0
  -25.8420  -26.9770   19.1150 C   0  0  0  0  0  3  0  0  0  0  0  0
  -24.6600  -27.7410   19.2110 C   0  0  0  0  0  3  0  0  0  0  0  0
  -23.4120  -29.8240   20.0490 C   0  0  0  0  0  2  0  0  0  0  0  0
  -24.5350  -31.0090   21.9850 N   0  0  0  0  0  0  0  0  0  0  0  0
  -23.4470  -31.9930   23.7210 O   0  0  0  0  0  0  0  0  0  0  0  0
  -22.6510  -29.3520   22.4070 C   0  0  0  0  0  0  0  0  0  0  0  0
  -21.3390  -29.0990   22.2690 N   0  0  0  0  0  0  0  0  0  0  0  0
  -23.3650  -28.7510   23.2140 O   0  0  0  0  0  0  0  0  0  0  0  0
  -20.8270  -29.6380   21.5860 H   0  0  0  0  0  0  0  0  0  0  0  0
  -18.0500  -27.6380   22.6590 C   0  0  0  0  0  0  0  0  0  0  0  0
  -20.5700  -28.0990   23.0120 C   0  0  0  0  0  3  0  0  0  0  0  0
  -20.8020  -26.6820   22.4400 C   0  0  0  0  0  2  0  0  0  0  0  0
  -19.7630  -26.2760   21.3910 C   0  0  0  0  0  2  0  0  0  0  0  0
  -18.3530  -26.3090   21.9890 C   0  0  0  0  0  2  0  0  0  0  0  0
  -19.0900  -28.4870   23.1210 C   0  0  0  0  0  0  0  0  0  0  0  0
  -18.7550  -29.7270   23.7050 C   0  0  0  0  0  3  0  0  0  0  0  0
  -17.4110  -30.1210   23.8370 C   0  0  0  0  0  3  0  0  0  0  0  0
  -16.3820  -29.2710   23.3940 C   0  0  0  0  0  3  0  0  0  0  0  0
  -16.7030  -28.0320   22.8110 C   0  0  0  0  0  3  0  0  0  0  0  0
  -25.8080  -32.3790   23.7250 C   0  0  0  0  0  3  0  0  0  0  0  0
  -25.5080  -33.7720   24.0880 N   0  0  0  0  0  0  0  0  0  0  0  0
  -25.8290  -34.8440   23.3520 C   0  0  0  0  0  0  0  0  0  0  0  0
  -26.4800  -34.7640   22.3070 O   0  0  0  0  0  0  0  0  0  0  0  0
  -24.9330  -33.9080   24.9070 H   0  0  0  0  0  0  0  0  0  0  0  0
  -24.0950  -36.6470   23.0690 C   0  0  0  0  0  1  0  0  0  0  0  0
  -25.3500  -36.2250   23.8500 C   0  0  0  0  0  3  0  0  0  0  0  0
  -27.5000  -37.0860   24.6630 C   0  0  0  0  0  1  0  0  0  0  0  0
  -26.3830  -37.2780   23.7420 N   0  0  0  0  0  0  0  0  0  0  0  0
  -25.9840  -38.1960   23.9130 H   0  0  0  0  0  0  0  0  0  0  0  0
  -26.3610  -31.5890   24.9750 C   0  0  1  0  0  0  0  0  0  0  0  0
  -25.2970  -31.3130   26.0650 C   0  0  0  0  0  1  0  0  0  0  0  0
  -26.9590  -30.2310   24.5460 C   0  0  0  0  0  1  0  0  0  0  0  0
  -27.5160  -32.3890   25.6230 C   0  0  0  0  0  1  0  0  0  0  0  0
  1 48  1  0
  2  1  1  0
  2 53  1  0
  3  1  1  0
  4  5  2  0
  5  2  1  0
  6  4  1  0
  6  3  2  0
  9  7  1  6
  8  9  1  0
  9 10  1  0
  9  4  1  0
 10 16  1  0
 11 16  1  0
 12 13  1  0
 12 11  1  0
 14 13  1  0
 14 21  1  0
 14 15  1  0
 16 15  1  0
 17 10  2  0
 18 19  2  0
 19 38  1  0
 20 19  1  0
 20 23  1  0
 21 22  1  0
 21 18  1  0
 22 20  2  0
 23 24  1  0
 24 25  2  0
 26 29  1  0
 26 25  1  0
 27 26  2  0
 28 27  1  0
 28 23  2  0
 29 30  1  0
 30 35  2  0
 30 31  1  0
 31 32  2  0
 32 33  1  0
 33 37  1  0
 34 33  2  0
 35 34  1  0
 36 35  1  0
 38 39  1  0
 39 42  1  0
 39 41  1  0
 40 38  2  0
 43 44  1  0
 43 18  1  0
 45 43  1  0
 48 46  1  1
 48 47  1  0
 51 50  1  0
 51 48  1  0
 51 49  1  0
 52 53  1  0
 54  3  1  0
 55 54  2  0
 58 57  1  6
 58 55  1  0
 58 56  1  0
 59 60  1  0
 59 58  1  0
 61 72  2  0
 62 60  1  0
 62 67  1  0
 63 71  1  0
 63 73  1  0
 64 70  1  0
 64 66  1  0
 65 71  1  0
 66 65  1  0
 67 66  2  0
 68 69  1  0
 68 62  2  0
 69 64  2  0
 70 63  1  0
 71 61  1  0
 73 75  2  0
 74 73  1  0
 76 74  1  0
 77 86  2  0
 77 82  1  0
 78 74  1  0
 78 82  1  0
 79 78  1  0
 80 81  1  0
 80 79  1  0
 81 77  1  0
 82 83  2  0
 83 84  1  0
 85 84  2  0
 86 85  1  0
 87 61  1  0
 87 88  1  0
 87 97  1  0
 88 91  1  0
 89 93  1  0
 89 88  1  0
 90 89  2  0
 93 92  1  0
 95 93  1  0
 95 96  1  0
 95 94  1  0
 97100  1  1
 97 98  1  0
 99 97  1  0
M  ISO  4   9 100  10 100  59 101  60 101
M  END
>  <TORSDO>  (77) 
F 24

>  <SCORE>  (77) 
-6.566

>  <name>  (77) 
82

>  <ligand_id>  (77) 
82

>  <original_smiles>  (77) 
[H]c1c([H])c([H])c2c(c1[H])C([H])([H])C([H])([H])C([H])([H])C2([H])N([H])C(=O)C1([H])N(C(=O)C([H])(N([H])C(=O)C([H])(N([H])C([H])([H])[H])C([H])([H])[H])C(C([H])([H])[H])(C([H])([H])[H])C([H])([H])[H])C([H])([H])c2c([H])c(OC([H])([H])C(C([H])([H])[H])(C([H])([H])[H])C([H])([H])C([H])([H])c3nc(C(C(=O)N4C([H])([H])C([H])([H])C([H])([H])C([H])(n5nc(-c6c([H])c([H])c(Oc7c([H])c([H])c(F)c([H])c7F)c([H])c6[H])c(C(=O)N([H])[H])c5N([H])[H])C4([H])[H])(C([H])([H])[H])C([H])([H])[H])nc(C([H])([H])C([H])([H])[H])c3C(C([H])([H])[H])(C([H])([H])[H])C([H])(C([H])([H])[H])C([H])([H])[H])c([H])c([H])c2C1([H])[H]

>  <smiles>  (77) 
[H]c1c([H])c([H])c2c(c1[H])C([H])([H])C([H])([H])C([H])([H])C2([H])N([H])C(=O)C1([H])N(C(=O)C([H])(N([H])C(=O)C([H])(N([H])C([H])([H])[H])C([H])([H])[H])C(C([H])([H])[H])(C([H])([H])[H])C([H])([H])[H])C([H])([H])c2c([H])c(OC([H])([H])C(C([H])([H])[H])(C([H])([H])[H])C([H])([H])C([H])([H])c3nc(C(C(=O)N4C([H])([H])C([H])([H])C([H])([H])C([H])(n5nc(-c6c([H])c([H])c(Oc7c([H])c([H])c(F)c([H])c7F)c([H])c6[H])c(C(=O)N([H])[H])c5N([H])[H])C4([H])[H])(C([H])([H])[H])C([H])([H])[H])nc(C([H])([H])C([H])([H])[H])c3C(C([H])([H])[H])(C([H])([H])[H])C([H])(C([H])([H])[H])C([H])([H])[H])c([H])c([H])c2C1([H])[H]

$$$$
83:0:0
     RDKit          3D

 96104  0  0  1  0  0  0  0  0999 V2000
  -31.8120  -18.7330   20.4920 C   0  0  0  0  0  3  0  0  0  0  0  0
  -31.8350  -20.1030   20.5320 C   0  0  0  0  0  0  0  0  0  0  0  0
  -30.5390  -20.4710   20.0230 C   0  0  0  0  0  0  0  0  0  0  0  0
  -29.8150  -19.3800   19.7270 N   0  0  0  0  0  0  0  0  0  0  0  0
  -30.6150  -18.2970   19.9710 N   0  0  0  0  0  0  0  0  0  0  0  0
  -33.4780  -21.8410   19.7590 C   0  0  0  0  0  1  0  0  0  0  0  0
  -34.2480  -20.0760   21.3100 C   0  0  0  0  0  1  0  0  0  0  0  0
  -33.0330  -20.9630   20.9470 C   0  0  2  0  0  0  0  0  0  0  0  0
  -32.1030  -21.1000   23.3750 C   0  0  0  0  0  1  0  0  0  0  0  0
  -32.7100  -21.8510   22.1750 C   0  0  0  0  0  2  0  0  0  0  0  0
  -29.1980  -16.9160   18.4160 C   0  0  0  0  0  1  0  0  0  0  0  0
  -30.3110  -16.9210   19.4890 C   0  0  0  0  0  3  0  0  0  0  0  0
  -28.8000  -15.8390   21.2530 C   0  0  0  0  0  1  0  0  0  0  0  0
  -31.2020  -15.8730   21.7110 C   0  0  0  0  0  1  0  0  0  0  0  0
  -30.1740  -15.7300   20.5550 C   0  0  2  0  0  0  0  0  0  0  0  0
  -30.5330  -14.3540   19.8400 C   0  0  0  0  0  0  0  0  0  0  0  0
  -30.0390  -12.2200   18.6860 C   0  0  0  0  0  2  0  0  0  0  0  0
  -28.9780  -12.4540   17.5910 C   0  0  0  0  0  2  0  0  0  0  0  0
  -27.5610  -12.2930   18.1740 C   0  0  0  0  0  2  0  0  0  0  0  0
  -27.3730  -13.0760   19.4980 C   0  0  0  0  0  3  0  0  0  0  0  0
  -28.5520  -12.8230   20.4640 C   0  0  0  0  0  2  0  0  0  0  0  0
  -29.7940  -13.1960   19.7710 N   0  0  0  0  0  0  0  0  0  0  0  0
  -31.5940  -14.4020   19.2080 O   0  0  0  0  0  0  0  0  0  0  0  0
  -25.0730  -13.6420   20.4970 C   0  0  0  0  0  0  0  0  0  0  0  0
  -24.0610  -12.8510   20.9640 C   0  0  0  0  0  0  0  0  0  0  0  0
  -24.5200  -11.5030   20.8370 C   0  0  0  0  0  0  0  0  0  0  0  0
  -26.0880  -12.7770   20.1210 N   0  0  0  0  0  0  0  0  0  0  0  0
  -25.7640  -11.4840   20.3800 N   0  0  0  0  0  0  0  0  0  0  0  0
  -23.8220  -10.2320   21.0670 C   0  0  0  0  0  0  0  0  0  0  0  0
  -24.3170   -9.2730   21.9760 C   0  0  0  0  0  3  0  0  0  0  0  0
  -23.6190   -8.0650   22.1940 C   0  0  0  0  0  3  0  0  0  0  0  0
  -22.4100   -7.8100   21.5030 C   0  0  0  0  0  0  0  0  0  0  0  0
  -21.9360   -8.7580   20.5790 C   0  0  0  0  0  3  0  0  0  0  0  0
  -22.6350   -9.9550   20.3600 C   0  0  0  0  0  3  0  0  0  0  0  0
  -21.6770   -6.6550   21.6350 O   0  0  0  0  0  0  0  0  0  0  0  0
  -21.6550   -5.9470   22.8080 C   0  0  0  0  0  0  0  0  0  0  0  0
  -21.2080   -6.5210   24.0180 C   0  0  0  0  0  3  0  0  0  0  0  0
  -21.1340   -5.7350   25.1860 C   0  0  0  0  0  3  0  0  0  0  0  0
  -21.5000   -4.3770   25.1450 C   0  0  0  0  0  0  0  0  0  0  0  0
  -21.9400   -3.8000   23.9400 C   0  0  0  0  0  3  0  0  0  0  0  0
  -22.0150   -4.5830   22.7740 C   0  0  0  0  0  0  0  0  0  0  0  0
  -22.4200   -4.0180   21.6120 F   0  0  0  0  0  0  0  0  0  0  0  0
  -21.4210   -3.6210   26.2650 F   0  0  0  0  0  0  0  0  0  0  0  0
  -22.7030  -13.3090   21.4130 C   0  0  0  0  0  0  0  0  0  0  0  0
  -22.0840  -12.5790   22.3350 N   0  0  0  0  0  0  0  0  0  0  0  0
  -22.2040  -14.3460   20.9790 O   0  0  0  0  0  0  0  0  0  0  0  0
  -22.5080  -11.7410   22.7040 H   0  0  0  0  0  0  0  0  0  0  0  0
  -21.1730  -12.8550   22.6710 H   0  0  0  0  0  0  0  0  0  0  0  0
  -25.2080  -15.0190   20.3440 N   0  0  0  0  0  0  0  0  0  0  0  0
  -24.4470  -15.6560   20.5520 H   0  0  0  0  0  0  0  0  0  0  0  0
  -26.0070  -15.4780   19.9290 H   0  0  0  0  0  0  0  0  0  0  0  0
  -30.0090  -21.8740   19.6700 C   0  0  0  0  0  2  0  0  0  0  0  0
  -29.3120  -22.6900   20.8010 C   0  0  0  0  0  2  0  0  0  0  0  0
  -29.4380  -24.2560   20.7190 C   0  0  0  0  0  2  0  0  0  0  0  0
  -28.2320  -25.0410   20.1250 C   0  0  0  0  0  2  0  0  0  0  0  0
  -28.3750  -26.4810   20.2460 O   0  0  0  0  0  0  0  0  0  0  0  0
  -24.6010  -31.7770   23.2060 C   0  0  0  0  0  0  0  0  0  0  0  0
  -27.2180  -27.2480   20.1930 C   0  0  0  0  0  0  0  0  0  0  0  0
  -23.3940  -30.3770   21.5660 C   0  0  0  0  0  3  0  0  0  0  0  0
  -24.8410  -28.8080   20.1650 C   0  0  0  0  0  0  0  0  0  0  0  0
  -25.9280  -30.6980   21.3860 C   0  0  0  0  0  2  0  0  0  0  0  0
  -26.0030  -29.3190   20.7550 C   0  0  0  0  0  0  0  0  0  0  0  0
  -27.1950  -28.5490   20.7600 C   0  0  0  0  0  3  0  0  0  0  0  0
  -26.0330  -26.7650   19.5890 C   0  0  0  0  0  3  0  0  0  0  0  0
  -24.8520  -27.5330   19.5770 C   0  0  0  0  0  3  0  0  0  0  0  0
  -23.6060  -29.6830   20.1940 C   0  0  0  0  0  2  0  0  0  0  0  0
  -24.6600  -30.9660   22.1110 N   0  0  0  0  0  0  0  0  0  0  0  0
  -23.5170  -32.0650   23.7350 O   0  0  0  0  0  0  0  0  0  0  0  0
  -22.7200  -29.3730   22.5290 C   0  0  0  0  0  0  0  0  0  0  0  0
  -21.3940  -29.2100   22.3960 N   0  0  0  0  0  0  0  0  0  0  0  0
  -23.3900  -28.7410   23.3510 O   0  0  0  0  0  0  0  0  0  0  0  0
  -20.9150  -29.7700   21.7040 H   0  0  0  0  0  0  0  0  0  0  0  0
  -17.9960  -28.0900   22.9050 C   0  0  0  0  0  0  0  0  0  0  0  0
  -20.5600  -28.2890   23.1680 C   0  0  0  0  0  3  0  0  0  0  0  0
  -20.6270  -26.8570   22.5870 C   0  0  0  0  0  2  0  0  0  0  0  0
  -19.5150  -26.5640   21.5750 C   0  0  0  0  0  2  0  0  0  0  0  0
  -18.1380  -26.7390   22.2240 C   0  0  0  0  0  2  0  0  0  0  0  0
  -19.1330  -28.8250   23.3340 C   0  0  0  0  0  0  0  0  0  0  0  0
  -18.9460  -30.0910   23.9310 C   0  0  0  0  0  3  0  0  0  0  0  0
  -17.6540  -30.6220   24.1020 C   0  0  0  0  0  3  0  0  0  0  0  0
  -16.5310  -29.8850   23.6890 C   0  0  0  0  0  3  0  0  0  0  0  0
  -16.7030  -28.6210   23.0980 C   0  0  0  0  0  3  0  0  0  0  0  0
  -25.8880  -32.3990   23.8330 C   0  0  0  0  0  3  0  0  0  0  0  0
  -25.5870  -33.7950   24.1710 N   0  0  0  0  0  0  0  0  0  0  0  0
  -25.9260  -34.8500   23.4180 C   0  0  0  0  0  0  0  0  0  0  0  0
  -26.5990  -34.7480   22.3880 O   0  0  0  0  0  0  0  0  0  0  0  0
  -24.9890  -33.9480   24.9710 H   0  0  0  0  0  0  0  0  0  0  0  0
  -24.2140  -36.6560   23.0640 C   0  0  0  0  0  1  0  0  0  0  0  0
  -25.4460  -36.2390   23.8820 C   0  0  0  0  0  3  0  0  0  0  0  0
  -27.5770  -37.1060   24.7400 C   0  0  0  0  0  1  0  0  0  0  0  0
  -26.4870  -37.2850   23.7830 N   0  0  0  0  0  0  0  0  0  0  0  0
  -26.0860  -38.2080   23.9280 H   0  0  0  0  0  0  0  0  0  0  0  0
  -26.4010  -31.6160   25.1040 C   0  0  1  0  0  0  0  0  0  0  0  0
  -25.3030  -31.3710   26.1660 C   0  0  0  0  0  1  0  0  0  0  0  0
  -26.9830  -30.2410   24.7000 C   0  0  0  0  0  1  0  0  0  0  0  0
  -27.5510  -32.4030   25.7740 C   0  0  0  0  0  1  0  0  0  0  0  0
  1  2  2  0
  2  8  1  0
  3  2  1  0
  4  5  1  0
  4  3  2  0
  5  1  1  0
  8  6  1  6
  8  7  1  0
  8 10  1  0
 10  9  1  0
 12 11  1  0
 12  5  1  0
 12 15  1  0
 15 13  1  1
 15 14  1  0
 16 15  1  0
 17 22  1  0
 18 19  1  0
 18 17  1  0
 20 19  1  0
 20 27  1  0
 20 21  1  0
 22 16  1  0
 22 21  1  0
 23 16  2  0
 24 25  2  0
 25 44  1  0
 26 25  1  0
 26 29  1  0
 27 28  1  0
 27 24  1  0
 28 26  2  0
 29 30  1  0
 30 31  2  0
 32 35  1  0
 32 31  1  0
 33 32  2  0
 34 33  1  0
 34 29  2  0
 35 36  1  0
 36 37  1  0
 37 38  2  0
 39 38  1  0
 39 43  1  0
 40 39  2  0
 41 36  2  0
 41 40  1  0
 42 41  1  0
 44 45  1  0
 45 48  1  0
 45 47  1  0
 46 44  2  0
 49 24  1  0
 49 50  1  0
 51 49  1  0
 52  3  1  0
 52 53  1  0
 54 53  1  0
 55 56  1  0
 55 54  1  0
 57 68  2  0
 58 56  1  0
 58 63  1  0
 59 67  1  0
 59 69  1  0
 60 66  1  0
 60 62  1  0
 61 67  1  0
 62 63  2  0
 62 61  1  0
 64 58  2  0
 65 64  1  0
 65 60  2  0
 66 59  1  0
 67 57  1  0
 69 71  2  0
 70 69  1  0
 72 70  1  0
 73 82  2  0
 73 78  1  0
 74 70  1  0
 74 78  1  0
 75 74  1  0
 76 77  1  0
 76 75  1  0
 77 73  1  0
 78 79  2  0
 79 80  1  0
 81 80  2  0
 82 81  1  0
 83 57  1  0
 83 84  1  0
 83 93  1  0
 84 87  1  0
 85 89  1  0
 85 84  1  0
 86 85  2  0
 89 88  1  0
 91 89  1  0
 91 92  1  0
 91 90  1  0
 93 96  1  1
 93 94  1  0
 95 93  1  0
M  ISO  4  15 100  16 100  55 101  56 101
M  END
>  <TORSDO>  (78) 
F 24

>  <SCORE>  (78) 
-11.375

>  <name>  (78) 
83

>  <ligand_id>  (78) 
83

>  <original_smiles>  (78) 
[H]c1c([H])c([H])c2c(c1[H])C([H])([H])C([H])([H])C([H])([H])C2([H])N([H])C(=O)C1([H])N(C(=O)C([H])(N([H])C(=O)C([H])(N([H])C([H])([H])[H])C([H])([H])[H])C(C([H])([H])[H])(C([H])([H])[H])C([H])([H])[H])C([H])([H])c2c([H])c(OC([H])([H])C([H])([H])C([H])([H])C([H])([H])c3nn(C([H])(C([H])([H])[H])C(C(=O)N4C([H])([H])C([H])([H])C([H])([H])C([H])(n5nc(-c6c([H])c([H])c(Oc7c([H])c([H])c(F)c([H])c7F)c([H])c6[H])c(C(=O)N([H])[H])c5N([H])[H])C4([H])[H])(C([H])([H])[H])C([H])([H])[H])c([H])c3C(C([H])([H])[H])(C([H])([H])[H])C([H])([H])C([H])([H])[H])c([H])c([H])c2C1([H])[H]

>  <smiles>  (78) 
[H]c1c([H])c([H])c2c(c1[H])C([H])([H])C([H])([H])C([H])([H])C2([H])N([H])C(=O)C1([H])N(C(=O)C([H])(N([H])C(=O)C([H])(N([H])C([H])([H])[H])C([H])([H])[H])C(C([H])([H])[H])(C([H])([H])[H])C([H])([H])[H])C([H])([H])c2c([H])c(OC([H])([H])C([H])([H])C([H])([H])C([H])([H])c3nn(C([H])(C([H])([H])[H])C(C(=O)N4C([H])([H])C([H])([H])C([H])([H])C([H])(n5nc(-c6c([H])c([H])c(Oc7c([H])c([H])c(F)c([H])c7F)c([H])c6[H])c(C(=O)N([H])[H])c5N([H])[H])C4([H])[H])(C([H])([H])[H])C([H])([H])[H])c([H])c3C(C([H])([H])[H])(C([H])([H])[H])C([H])([H])C([H])([H])[H])c([H])c([H])c2C1([H])[H]

$$$$
84:0:0
     RDKit          3D

 93101  0  0  1  0  0  0  0  0999 V2000
  -30.6580  -20.4120   19.6940 C   0  0  0  0  0  2  0  0  0  0  0  0
  -30.4450  -18.8830   21.0880 C   0  0  0  0  0  0  0  0  0  0  0  0
  -31.1340  -19.2000   19.9450 N   0  0  0  0  0  0  0  0  0  0  0  0
  -29.6270  -19.8540   21.5210 N   0  0  0  0  0  2  0  0  0  0  0  0
  -29.8100  -20.8530   20.6240 N   0  0  0  0  0  0  0  0  0  0  0  0
  -29.3220  -17.0860   22.4410 C   0  0  0  0  0  1  0  0  0  0  0  0
  -30.6820  -17.6130   21.9150 C   0  0  2  0  0  0  0  0  0  0  0  0
  -31.2160  -18.9710   24.1390 C   0  0  0  0  0  1  0  0  0  0  0  0
  -31.6450  -17.9140   23.1050 C   0  0  0  0  0  2  0  0  0  0  0  0
  -31.3970  -16.4840   21.0710 C   0  0  0  0  0  2  0  0  0  0  0  0
  -31.0750  -14.2920   19.9900 C   0  0  0  0  0  0  0  0  0  0  0  0
  -30.5670  -12.1870   18.8230 C   0  0  0  0  0  2  0  0  0  0  0  0
  -29.5960  -12.4460   17.6570 C   0  0  0  0  0  2  0  0  0  0  0  0
  -28.1380  -12.3690   18.1460 C   0  0  0  0  0  2  0  0  0  0  0  0
  -27.8880  -13.2230   19.4180 C   0  0  0  0  0  3  0  0  0  0  0  0
  -28.9770  -12.9710   20.4860 C   0  0  0  0  0  2  0  0  0  0  0  0
  -30.2960  -13.1870   19.8660 N   0  0  0  0  0  0  0  0  0  0  0  0
  -32.1220  -14.4470   19.3560 O   0  0  0  0  0  0  0  0  0  0  0  0
  -30.6410  -15.2460   20.8210 N   0  0  0  0  0  0  0  0  0  0  0  0
  -29.7780  -15.0950   21.3220 H   0  0  0  0  0  0  0  0  0  0  0  0
  -25.5350  -13.9110   20.2040 C   0  0  0  0  0  0  0  0  0  0  0  0
  -24.4600  -13.1760   20.6270 C   0  0  0  0  0  0  0  0  0  0  0  0
  -24.8820  -11.8120   20.6090 C   0  0  0  0  0  0  0  0  0  0  0  0
  -26.5460  -12.9970   19.9530 N   0  0  0  0  0  0  0  0  0  0  0  0
  -26.1590  -11.7300   20.2540 N   0  0  0  0  0  0  0  0  0  0  0  0
  -24.1300  -10.5750   20.8540 C   0  0  0  0  0  0  0  0  0  0  0  0
  -24.5400   -9.6420   21.8310 C   0  0  0  0  0  3  0  0  0  0  0  0
  -23.7890   -8.4690   22.0620 C   0  0  0  0  0  3  0  0  0  0  0  0
  -22.6110   -8.2230   21.3150 C   0  0  0  0  0  0  0  0  0  0  0  0
  -22.2200   -9.1440   20.3280 C   0  0  0  0  0  3  0  0  0  0  0  0
  -22.9730  -10.3070   20.0960 C   0  0  0  0  0  3  0  0  0  0  0  0
  -21.8340   -7.0990   21.4520 O   0  0  0  0  0  0  0  0  0  0  0  0
  -21.7220   -6.4440   22.6510 C   0  0  0  0  0  0  0  0  0  0  0  0
  -21.2650   -7.0950   23.8180 C   0  0  0  0  0  3  0  0  0  0  0  0
  -21.0980   -6.3650   25.0120 C   0  0  0  0  0  3  0  0  0  0  0  0
  -21.3780   -4.9860   25.0390 C   0  0  0  0  0  0  0  0  0  0  0  0
  -21.8270   -4.3350   23.8760 C   0  0  0  0  0  3  0  0  0  0  0  0
  -21.9950   -5.0620   22.6860 C   0  0  0  0  0  0  0  0  0  0  0  0
  -22.4080   -4.4250   21.5630 F   0  0  0  0  0  0  0  0  0  0  0  0
  -21.2100   -4.2820   26.1830 F   0  0  0  0  0  0  0  0  0  0  0  0
  -23.0880  -13.6990   20.9410 C   0  0  0  0  0  0  0  0  0  0  0  0
  -22.3800  -13.0530   21.8610 N   0  0  0  0  0  0  0  0  0  0  0  0
  -22.6540  -14.7180   20.4050 O   0  0  0  0  0  0  0  0  0  0  0  0
  -22.7440  -12.2300   22.3170 H   0  0  0  0  0  0  0  0  0  0  0  0
  -21.4610  -13.3880   22.1130 H   0  0  0  0  0  0  0  0  0  0  0  0
  -25.7310  -15.2730   19.9940 N   0  0  0  0  0  0  0  0  0  0  0  0
  -24.9920  -15.9530   20.1370 H   0  0  0  0  0  0  0  0  0  0  0  0
  -26.5910  -15.6860   19.6550 H   0  0  0  0  0  0  0  0  0  0  0  0
  -29.1480  -22.1430   20.7730 C   0  0  0  0  0  2  0  0  0  0  0  0
  -30.1300  -23.3060   20.5170 C   0  0  0  0  0  2  0  0  0  0  0  0
  -29.6300  -24.7110   20.9030 C   0  0  0  0  0  2  0  0  0  0  0  0
  -28.4680  -25.2570   20.0600 C   0  0  0  0  0  2  0  0  0  0  0  0
  -28.4650  -26.6740   20.2380 O   0  0  0  0  0  0  0  0  0  0  0  0
  -24.5970  -31.8310   23.1820 C   0  0  0  0  0  0  0  0  0  0  0  0
  -27.2700  -27.3560   20.1930 C   0  0  0  0  0  0  0  0  0  0  0  0
  -23.4050  -30.4060   21.5450 C   0  0  0  0  0  3  0  0  0  0  0  0
  -24.8710  -28.8500   20.1590 C   0  0  0  0  0  0  0  0  0  0  0  0
  -25.9310  -30.7660   21.3660 C   0  0  0  0  0  2  0  0  0  0  0  0
  -26.0200  -29.3860   20.7510 C   0  0  0  0  0  0  0  0  0  0  0  0
  -27.2210  -28.6440   20.7660 C   0  0  0  0  0  3  0  0  0  0  0  0
  -26.1020  -26.8300   19.5910 C   0  0  0  0  0  3  0  0  0  0  0  0
  -24.9070  -27.5690   19.5800 C   0  0  0  0  0  3  0  0  0  0  0  0
  -23.6270  -29.7080   20.1780 C   0  0  0  0  0  2  0  0  0  0  0  0
  -24.6620  -31.0170   22.0910 N   0  0  0  0  0  0  0  0  0  0  0  0
  -23.5120  -32.1090   23.7100 O   0  0  0  0  0  0  0  0  0  0  0  0
  -22.7470  -29.3970   22.5130 C   0  0  0  0  0  0  0  0  0  0  0  0
  -21.4270  -29.2000   22.3650 N   0  0  0  0  0  0  0  0  0  0  0  0
  -23.4210  -28.7950   23.3530 O   0  0  0  0  0  0  0  0  0  0  0  0
  -20.9470  -29.7410   21.6590 H   0  0  0  0  0  0  0  0  0  0  0  0
  -18.0600  -27.9670   22.7940 C   0  0  0  0  0  0  0  0  0  0  0  0
  -20.6040  -28.2700   23.1350 C   0  0  0  0  0  3  0  0  0  0  0  0
  -20.7450  -26.8260   22.6010 C   0  0  0  0  0  2  0  0  0  0  0  0
  -19.6790  -26.4610   21.5640 C   0  0  0  0  0  2  0  0  0  0  0  0
  -18.2760  -26.6030   22.1620 C   0  0  0  0  0  2  0  0  0  0  0  0
  -19.1540  -28.7580   23.2370 C   0  0  0  0  0  0  0  0  0  0  0  0
  -18.9000  -30.0330   23.7840 C   0  0  0  0  0  3  0  0  0  0  0  0
  -17.5850  -30.5200   23.8960 C   0  0  0  0  0  3  0  0  0  0  0  0
  -16.5050  -29.7290   23.4710 C   0  0  0  0  0  3  0  0  0  0  0  0
  -16.7420  -28.4550   22.9250 C   0  0  0  0  0  3  0  0  0  0  0  0
  -25.8780  -32.4690   23.8050 C   0  0  0  0  0  3  0  0  0  0  0  0
  -25.5620  -33.8650   24.1320 N   0  0  0  0  0  0  0  0  0  0  0  0
  -25.8950  -34.9180   23.3730 C   0  0  0  0  0  0  0  0  0  0  0  0
  -26.5740  -34.8170   22.3480 O   0  0  0  0  0  0  0  0  0  0  0  0
  -24.9630  -34.0180   24.9300 H   0  0  0  0  0  0  0  0  0  0  0  0
  -24.1630  -36.7030   23.0000 C   0  0  0  0  0  1  0  0  0  0  0  0
  -25.3960  -36.3040   23.8250 C   0  0  0  0  0  3  0  0  0  0  0  0
  -27.5180  -37.1990   24.6790 C   0  0  0  0  0  1  0  0  0  0  0  0
  -26.4250  -37.3610   23.7230 N   0  0  0  0  0  0  0  0  0  0  0  0
  -26.0140  -38.2800   23.8670 H   0  0  0  0  0  0  0  0  0  0  0  0
  -26.3990  -31.7010   25.0810 C   0  0  1  0  0  0  0  0  0  0  0  0
  -25.3070  -31.4550   26.1480 C   0  0  0  0  0  1  0  0  0  0  0  0
  -26.9930  -30.3290   24.6840 C   0  0  0  0  0  1  0  0  0  0  0  0
  -27.5430  -32.5030   25.7450 C   0  0  0  0  0  1  0  0  0  0  0  0
  1  3  1  0
  1  5  1  0
  2  4  1  0
  2  7  1  0
  3  2  2  0
  5 49  1  0
  5  4  1  0
  7  6  1  1
  7  9  1  0
  9  8  1  0
 10  7  1  0
 11 19  1  0
 12 17  1  0
 13 14  1  0
 13 12  1  0
 15 14  1  0
 15 24  1  0
 15 16  1  0
 17 11  1  0
 17 16  1  0
 18 11  2  0
 19 10  1  0
 19 20  1  0
 21 22  2  0
 22 41  1  0
 23 22  1  0
 23 26  1  0
 24 21  1  0
 24 25  1  0
 25 23  2  0
 26 27  1  0
 27 28  2  0
 29 32  1  0
 29 28  1  0
 30 29  2  0
 31 30  1  0
 31 26  2  0
 32 33  1  0
 33 38  2  0
 33 34  1  0
 34 35  2  0
 35 36  1  0
 36 40  1  0
 37 36  2  0
 38 37  1  0
 39 38  1  0
 41 42  1  0
 42 45  1  0
 42 44  1  0
 43 41  2  0
 46 47  1  0
 46 21  1  0
 48 46  1  0
 50 49  1  0
 50 51  1  0
 52 53  1  0
 52 51  1  0
 54 65  2  0
 55 53  1  0
 55 60  1  0
 56 64  1  0
 56 66  1  0
 57 63  1  0
 57 59  1  0
 58 64  1  0
 59 60  2  0
 59 58  1  0
 61 55  2  0
 62 61  1  0
 62 57  2  0
 63 56  1  0
 64 54  1  0
 66 68  2  0
 67 66  1  0
 69 67  1  0
 70 79  2  0
 70 75  1  0
 71 67  1  0
 71 75  1  0
 72 71  1  0
 73 74  1  0
 73 72  1  0
 74 70  1  0
 75 76  2  0
 76 77  1  0
 78 77  2  0
 79 78  1  0
 80 54  1  0
 80 81  1  0
 80 90  1  0
 81 84  1  0
 82 86  1  0
 82 81  1  0
 83 82  2  0
 86 85  1  0
 88 86  1  0
 88 89  1  0
 88 87  1  0
 90 93  1  1
 90 91  1  0
 92 90  1  0
M  ISO  4  11 100  19 100  52 101  53 101
M  END
>  <TORSDO>  (79) 
F 23

>  <SCORE>  (79) 
-9.723

>  <name>  (79) 
84

>  <ligand_id>  (79) 
84

>  <original_smiles>  (79) 
[H]c1c([H])c([H])c2c(c1[H])C([H])([H])C([H])([H])C([H])([H])C2([H])N([H])C(=O)C1([H])N(C(=O)C([H])(N([H])C(=O)C([H])(N([H])C([H])([H])[H])C([H])([H])[H])C(C([H])([H])[H])(C([H])([H])[H])C([H])([H])[H])C([H])([H])c2c([H])c(OC([H])([H])C([H])([H])C([H])([H])C([H])([H])n3nc(C(C([H])([H])[H])(C([H])([H])N([H])C(=O)N4C([H])([H])C([H])([H])C([H])([H])C([H])(n5nc(-c6c([H])c([H])c(Oc7c([H])c([H])c(F)c([H])c7F)c([H])c6[H])c(C(=O)N([H])[H])c5N([H])[H])C4([H])[H])C([H])([H])C([H])([H])[H])nc3[H])c([H])c([H])c2C1([H])[H]

>  <smiles>  (79) 
[H]c1c([H])c([H])c2c(c1[H])C([H])([H])C([H])([H])C([H])([H])C2([H])N([H])C(=O)C1([H])N(C(=O)C([H])(N([H])C(=O)C([H])(N([H])C([H])([H])[H])C([H])([H])[H])C(C([H])([H])[H])(C([H])([H])[H])C([H])([H])[H])C([H])([H])c2c([H])c(OC([H])([H])C([H])([H])C([H])([H])C([H])([H])n3nc(C(C([H])([H])[H])(C([H])([H])N([H])C(=O)N4C([H])([H])C([H])([H])C([H])([H])C([H])(n5nc(-c6c([H])c([H])c(Oc7c([H])c([H])c(F)c([H])c7F)c([H])c6[H])c(C(=O)N([H])[H])c5N([H])[H])C4([H])[H])C([H])([H])C([H])([H])[H])nc3[H])c([H])c([H])c2C1([H])[H]

$$$$
85:0:0
     RDKit          3D

100109  0  0  1  0  0  0  0  0999 V2000
  -27.4050  -20.0810   21.3820 C   0  0  0  0  0  1  0  0  0  0  0  0
  -29.7070  -20.5030   22.2020 C   0  0  0  0  0  1  0  0  0  0  0  0
  -28.8080  -20.5700   20.9380 C   0  0  1  0  0  0  0  0  0  0  0  0
  -28.9460  -19.6240   18.5250 C   0  0  0  0  0  3  0  0  0  0  0  0
  -29.1370  -18.4740   17.7500 C   0  0  0  0  0  0  0  0  0  0  0  0
  -29.2940  -19.5480   19.8820 C   0  0  0  0  0  0  0  0  0  0  0  0
  -30.0250  -17.3470   19.5620 C   0  0  0  0  0  0  0  0  0  0  0  0
  -28.6920  -18.4260   16.3030 C   0  0  0  0  0  1  0  0  0  0  0  0
  -29.6570  -17.3450   18.2740 N   0  0  0  0  0  0  0  0  0  0  0  0
  -29.8160  -18.4000   20.3570 N   0  0  0  0  0  0  0  0  0  0  0  0
  -29.5250  -15.7460   21.4000 C   0  0  0  0  0  1  0  0  0  0  0  0
  -30.5440  -16.0530   20.2740 C   0  0  1  0  0  0  0  0  0  0  0  0
  -30.8060  -14.8520   19.2540 C   0  0  0  0  0  0  0  0  0  0  0  0
  -30.3280  -12.7240   18.0540 C   0  0  0  0  0  2  0  0  0  0  0  0
  -29.1580  -12.8990   17.0610 C   0  0  0  0  0  2  0  0  0  0  0  0
  -27.7940  -12.7100   17.7570 C   0  0  0  0  0  2  0  0  0  0  0  0
  -27.6980  -13.4870   19.0960 C   0  0  0  0  0  3  0  0  0  0  0  0
  -28.9460  -13.1840   19.9400 C   0  0  0  0  0  2  0  0  0  0  0  0
  -30.1260  -13.6550   19.1920 N   0  0  0  0  0  0  0  0  0  0  0  0
  -31.7210  -15.0310   18.4380 O   0  0  0  0  0  0  0  0  0  0  0  0
  -25.5180  -14.0270   20.3540 C   0  0  0  0  0  0  0  0  0  0  0  0
  -24.5290  -13.2250   20.8590 C   0  0  0  0  0  0  0  0  0  0  0  0
  -24.9340  -11.8820   20.5860 C   0  0  0  0  0  0  0  0  0  0  0  0
  -26.4660  -13.1690   19.8150 N   0  0  0  0  0  0  0  0  0  0  0  0
  -26.1290  -11.8690   20.0060 N   0  0  0  0  0  0  0  0  0  0  0  0
  -24.2310  -10.6090   20.7930 C   0  0  0  0  0  0  0  0  0  0  0  0
  -24.6950   -9.6540   21.7260 C   0  0  0  0  0  3  0  0  0  0  0  0
  -23.9930   -8.4450   21.9200 C   0  0  0  0  0  3  0  0  0  0  0  0
  -22.8150   -8.1820   21.1800 C   0  0  0  0  0  0  0  0  0  0  0  0
  -22.3720   -9.1250   20.2370 C   0  0  0  0  0  3  0  0  0  0  0  0
  -23.0740  -10.3270   20.0430 C   0  0  0  0  0  3  0  0  0  0  0  0
  -22.0820   -7.0230   21.2830 O   0  0  0  0  0  0  0  0  0  0  0  0
  -21.9000   -6.3890   22.4860 C   0  0  0  0  0  0  0  0  0  0  0  0
  -21.2690   -7.0290   23.5750 C   0  0  0  0  0  3  0  0  0  0  0  0
  -21.0400   -6.3190   24.7710 C   0  0  0  0  0  3  0  0  0  0  0  0
  -21.4290   -4.9710   24.8770 C   0  0  0  0  0  0  0  0  0  0  0  0
  -22.0520   -4.3310   23.7910 C   0  0  0  0  0  3  0  0  0  0  0  0
  -22.2840   -5.0380   22.5980 C   0  0  0  0  0  0  0  0  0  0  0  0
  -22.8640   -4.4110   21.5480 F   0  0  0  0  0  0  0  0  0  0  0  0
  -21.2020   -4.2880   26.0240 F   0  0  0  0  0  0  0  0  0  0  0  0
  -23.2370  -13.6750   21.4760 C   0  0  0  0  0  0  0  0  0  0  0  0
  -22.7170  -12.9140   22.4330 N   0  0  0  0  0  0  0  0  0  0  0  0
  -22.7050  -14.7340   21.1490 O   0  0  0  0  0  0  0  0  0  0  0  0
  -23.1670  -12.0560   22.7160 H   0  0  0  0  0  0  0  0  0  0  0  0
  -21.8590  -13.1950   22.8860 H   0  0  0  0  0  0  0  0  0  0  0  0
  -25.6820  -15.4070   20.2930 N   0  0  0  0  0  0  0  0  0  0  0  0
  -24.9690  -16.0510   20.6140 H   0  0  0  0  0  0  0  0  0  0  0  0
  -26.4550  -15.8730   19.8350 H   0  0  0  0  0  0  0  0  0  0  0  0
  -31.9200  -16.3420   20.9840 C   0  0  1  0  0  0  0  0  0  0  0  0
  -31.7930  -17.1180   22.0660 F   0  0  0  0  0  0  0  0  0  0  0  0
  -32.4730  -15.2020   21.4160 F   0  0  0  0  0  0  0  0  0  0  0  0
  -32.8150  -16.9360   20.1870 F   0  0  0  0  0  0  0  0  0  0  0  0
  -29.9670  -24.1560   20.1270 C   0  0  0  0  0  3  0  0  0  0  0  0
  -30.0170  -22.7510   20.2510 C   0  0  0  0  0  3  0  0  0  0  0  0
  -28.7080  -24.7900   20.1890 C   0  0  0  0  0  0  0  0  0  0  0  0
  -28.8030  -22.0550   20.4620 C   0  0  0  0  0  0  0  0  0  0  0  0
  -27.5640  -24.0640   20.3010 N   0  0  0  0  0  0  0  0  0  0  0  0
  -27.6170  -22.7290   20.4490 N   0  0  0  0  0  0  0  0  0  0  0  0
  -28.5980  -26.3190   20.3300 C   0  0  0  0  0  2  0  0  0  0  0  0
  -28.1810  -27.0330   19.1520 O   0  0  0  0  0  0  0  0  0  0  0  0
  -24.6120  -31.8230   23.0610 C   0  0  0  0  0  0  0  0  0  0  0  0
  -27.0380  -27.7720   19.3330 C   0  0  0  0  0  0  0  0  0  0  0  0
  -23.2880  -30.5460   21.4070 C   0  0  0  0  0  3  0  0  0  0  0  0
  -24.6340  -29.1980   19.7100 C   0  0  0  0  0  0  0  0  0  0  0  0
  -25.7740  -31.0040   21.0110 C   0  0  0  0  0  2  0  0  0  0  0  0
  -25.8310  -29.6990   20.2390 C   0  0  0  0  0  0  0  0  0  0  0  0
  -27.0400  -28.9870   20.0530 C   0  0  0  0  0  3  0  0  0  0  0  0
  -25.8330  -27.2830   18.7990 C   0  0  0  0  0  3  0  0  0  0  0  0
  -24.6290  -27.9850   18.9920 C   0  0  0  0  0  3  0  0  0  0  0  0
  -23.3810  -30.0070   19.9570 C   0  0  0  0  0  2  0  0  0  0  0  0
  -24.5820  -31.1310   21.8830 N   0  0  0  0  0  0  0  0  0  0  0  0
  -23.5800  -32.0070   23.7200 O   0  0  0  0  0  0  0  0  0  0  0  0
  -22.7480  -29.4190   22.3200 C   0  0  0  0  0  0  0  0  0  0  0  0
  -21.4350  -29.1560   22.2300 N   0  0  0  0  0  0  0  0  0  0  0  0
  -23.5060  -28.7830   23.0580 O   0  0  0  0  0  0  0  0  0  0  0  0
  -20.8820  -29.7260   21.6050 H   0  0  0  0  0  0  0  0  0  0  0  0
  -18.1920  -27.6240   22.6670 C   0  0  0  0  0  0  0  0  0  0  0  0
  -20.7120  -28.1160   22.9620 C   0  0  0  0  0  3  0  0  0  0  0  0
  -20.9540  -26.7250   22.3310 C   0  0  0  0  0  2  0  0  0  0  0  0
  -19.8880  -26.3370   21.3020 C   0  0  0  0  0  2  0  0  0  0  0  0
  -18.4960  -26.3240   21.9430 C   0  0  0  0  0  2  0  0  0  0  0  0
  -19.2310  -28.4710   23.1300 C   0  0  0  0  0  0  0  0  0  0  0  0
  -18.8920  -29.6840   23.7660 C   0  0  0  0  0  3  0  0  0  0  0  0
  -17.5440  -30.0510   23.9460 C   0  0  0  0  0  3  0  0  0  0  0  0
  -16.5190  -29.1980   23.5030 C   0  0  0  0  0  3  0  0  0  0  0  0
  -16.8440  -27.9870   22.8690 C   0  0  0  0  0  3  0  0  0  0  0  0
  -25.9380  -32.4240   23.6230 C   0  0  0  0  0  3  0  0  0  0  0  0
  -25.6430  -33.7850   24.0840 N   0  0  0  0  0  0  0  0  0  0  0  0
  -25.9410  -34.8990   23.4030 C   0  0  0  0  0  0  0  0  0  0  0  0
  -26.5630  -34.8860   22.3370 O   0  0  0  0  0  0  0  0  0  0  0  0
  -25.0870  -33.8700   24.9210 H   0  0  0  0  0  0  0  0  0  0  0  0
  -24.2020  -36.7100   23.2670 C   0  0  0  0  0  1  0  0  0  0  0  0
  -25.4710  -36.2410   23.9960 C   0  0  0  0  0  3  0  0  0  0  0  0
  -27.6320  -37.0510   24.8270 C   0  0  0  0  0  1  0  0  0  0  0  0
  -26.5000  -37.3020   23.9400 N   0  0  0  0  0  0  0  0  0  0  0  0
  -26.1020  -38.2060   24.1850 H   0  0  0  0  0  0  0  0  0  0  0  0
  -26.5690  -31.5650   24.7880 C   0  0  1  0  0  0  0  0  0  0  0  0
  -25.5710  -31.2270   25.9230 C   0  0  0  0  0  1  0  0  0  0  0  0
  -27.1270  -30.2340   24.2350 C   0  0  0  0  0  1  0  0  0  0  0  0
  -27.7700  -32.3220   25.4060 C   0  0  0  0  0  1  0  0  0  0  0  0
  3  1  1  1
  3  2  1  0
  4  6  1  0
  5  9  1  0
  5  4  2  0
  6 10  2  0
  6  3  1  0
  7 12  1  0
  7 10  1  0
  8  5  1  0
  9  7  2  0
 12 49  1  0
 12 11  1  1
 13 12  1  0
 14 19  1  0
 15 16  1  0
 15 14  1  0
 17 16  1  0
 17 24  1  0
 17 18  1  0
 19 13  1  0
 19 18  1  0
 20 13  2  0
 21 22  2  0
 22 41  1  0
 23 26  1  0
 23 22  1  0
 24 25  1  0
 24 21  1  0
 25 23  2  0
 26 27  1  0
 27 28  2  0
 29 32  1  0
 29 28  1  0
 30 29  2  0
 31 30  1  0
 31 26  2  0
 32 33  1  0
 33 38  2  0
 33 34  1  0
 34 35  2  0
 35 36  1  0
 36 40  1  0
 37 36  2  0
 38 37  1  0
 39 38  1  0
 41 42  1  0
 42 44  1  0
 42 45  1  0
 43 41  2  0
 46 21  1  0
 46 47  1  0
 48 46  1  0
 49 51  1  1
 49 50  1  0
 52 49  1  0
 53 55  2  0
 53 54  1  0
 54 56  2  0
 55 57  1  0
 55 59  1  0
 56  3  1  0
 57 58  2  0
 58 56  1  0
 60 62  1  0
 60 59  1  0
 61 72  2  0
 62 67  1  0
 63 71  1  0
 63 73  1  0
 64 70  1  0
 64 66  1  0
 65 71  1  0
 66 65  1  0
 67 66  2  0
 68 69  1  0
 68 62  2  0
 69 64  2  0
 70 63  1  0
 71 61  1  0
 73 75  2  0
 74 73  1  0
 76 74  1  0
 77 86  2  0
 77 82  1  0
 78 74  1  0
 78 82  1  0
 79 78  1  0
 80 81  1  0
 80 79  1  0
 81 77  1  0
 82 83  2  0
 83 84  1  0
 85 84  2  0
 86 85  1  0
 87 61  1  0
 87 88  1  0
 87 97  1  0
 88 91  1  0
 89 93  1  0
 89 88  1  0
 90 89  2  0
 93 92  1  0
 95 93  1  0
 95 96  1  0
 95 94  1  0
 97100  1  1
 97 98  1  0
 99 97  1  0
M  ISO  4  12 100  13 100  59 101  60 101
M  END
>  <TORSDO>  (80) 
F 21

>  <SCORE>  (80) 
-7.958

>  <name>  (80) 
85

>  <ligand_id>  (80) 
85

>  <original_smiles>  (80) 
[H]c1c(C([H])([H])[H])nc(C(C(=O)N2C([H])([H])C([H])([H])C([H])([H])C([H])(n3nc(-c4c([H])c([H])c(Oc5c([H])c([H])c(F)c([H])c5F)c([H])c4[H])c(C(=O)N([H])[H])c3N([H])[H])C2([H])[H])(C([H])([H])[H])C(F)(F)F)nc1C(c1nnc(C([H])([H])Oc2c([H])c([H])c3c(c2[H])C([H])([H])N(C(=O)C([H])(N([H])C(=O)C([H])(N([H])C([H])([H])[H])C([H])([H])[H])C(C([H])([H])[H])(C([H])([H])[H])C([H])([H])[H])C([H])(C(=O)N([H])C2([H])c4c([H])c([H])c([H])c([H])c4C([H])([H])C([H])([H])C2([H])[H])C3([H])[H])c([H])c1[H])(C([H])([H])[H])C([H])([H])[H]

>  <smiles>  (80) 
[H]c1c(C([H])([H])[H])nc(C(C(=O)N2C([H])([H])C([H])([H])C([H])([H])C([H])(n3nc(-c4c([H])c([H])c(Oc5c([H])c([H])c(F)c([H])c5F)c([H])c4[H])c(C(=O)N([H])[H])c3N([H])[H])C2([H])[H])(C([H])([H])[H])C(F)(F)F)nc1C(c1nnc(C([H])([H])Oc2c([H])c([H])c3c(c2[H])C([H])([H])N(C(=O)C([H])(N([H])C(=O)C([H])(N([H])C([H])([H])[H])C([H])([H])[H])C(C([H])([H])[H])(C([H])([H])[H])C([H])([H])[H])C([H])(C(=O)N([H])C2([H])c4c([H])c([H])c([H])c([H])c4C([H])([H])C([H])([H])C2([H])[H])C3([H])[H])c([H])c1[H])(C([H])([H])[H])C([H])([H])[H]

$$$$
86:0:0
     RDKit          3D

 98105  0  0  1  0  0  0  0  0999 V2000
  -26.5000  -18.3460   21.0100 C   0  0  0  0  0  3  0  0  0  0  0  0
  -27.1700  -19.2650   20.0910 C   0  0  0  0  0  0  0  0  0  0  0  0
  -27.7170  -18.3280   19.1220 C   0  0  0  0  0  0  0  0  0  0  0  0
  -26.9180  -16.0910   20.0200 C   0  0  0  0  0  0  0  0  0  0  0  0
  -28.4030  -18.8880   17.8960 C   0  0  0  0  0  1  0  0  0  0  0  0
  -26.3790  -16.9240   20.9710 N   0  0  0  0  0  0  0  0  0  0  0  0
  -27.6340  -16.9000   19.1380 N   0  0  0  0  0  0  0  0  0  0  0  0
  -26.5780  -12.5410   16.7330 C   0  0  0  0  0 15  0  0  0  0  0  0
  -26.8880  -14.2510   19.9920 C   0  0  0  0  0  3  0  0  0  0  0  0
  -25.9200  -13.7330   21.1860 C   0  0  2  0  0  0  0  0  0  0  0  0
  -26.1630  -12.4530   21.4830 F   0  0  0  0  0  0  0  0  0  0  0  0
  -24.6130  -13.8370   20.9700 F   0  0  0  0  0  0  0  0  0  0  0  0
  -26.0780  -14.3840   22.3390 F   0  0  0  0  0  0  0  0  0  0  0  0
  -28.3880  -14.2940   20.9080 C   0  0  0  0  0  2  0  0  0  0  0  0
  -31.1470  -13.7280   21.0450 C   0  0  0  0  0  0  0  0  0  0  0  0
  -31.8650  -11.6300   22.2540 C   0  0  0  0  0  2  0  0  0  0  0  0
  -31.4930  -10.3470   21.4250 C   0  0  0  0  0  2  0  0  0  0  0  0
  -29.9810  -10.0960   21.1660 C   0  0  0  0  0  2  0  0  0  0  0  0
  -29.3650  -11.4480   20.8740 C   0  0  0  0  0  3  0  0  0  0  0  0
  -29.6660  -12.2320   22.1800 C   0  0  0  0  0  2  0  0  0  0  0  0
  -30.9490  -12.7370   21.9360 N   0  0  0  0  0  0  0  0  0  0  0  0
  -32.3460  -13.9350   20.7390 O   0  0  0  0  0  0  0  0  0  0  0  0
  -29.9630  -14.3630   20.5190 N   0  0  0  0  0  0  0  0  0  0  0  0
  -26.7980  -12.0760   19.5080 C   0  0  0  0  0  0  0  0  0  0  0  0
  -25.4300  -11.6460   20.1820 C   0  0  0  0  0  0  0  0  0  0  0  0
  -25.6590  -10.7440   21.4770 C   0  0  0  0  0  0  0  0  0  0  0  0
  -28.0080  -11.4610   20.6570 N   0  0  0  0  0  0  0  0  0  0  0  0
  -27.1180  -10.7670   21.8210 N   0  0  0  0  0  0  0  0  0  0  0  0
  -24.9050   -9.3650   21.7500 C   0  0  0  0  0  0  0  0  0  0  0  0
  -24.6310   -8.8940   23.0600 C   0  0  0  0  0  3  0  0  0  0  0  0
  -23.8900   -7.7050   23.3290 C   0  0  0  0  0  3  0  0  0  0  0  0
  -23.4080   -6.8710   22.2900 C   0  0  0  0  0  0  0  0  0  0  0  0
  -23.7760   -7.2260   20.9810 C   0  0  0  0  0  3  0  0  0  0  0  0
  -24.4980   -8.4260   20.7260 C   0  0  0  0  0  3  0  0  0  0  0  0
  -22.6370   -5.7330   22.4900 O   0  0  0  0  0  0  0  0  0  0  0  0
  -21.6090   -5.6940   23.4120 C   0  0  0  0  0  0  0  0  0  0  0  0
  -20.5260   -6.6010   23.3600 C   0  0  0  0  0  3  0  0  0  0  0  0
  -19.4750   -6.5180   24.2980 C   0  0  0  0  0  3  0  0  0  0  0  0
  -19.4930   -5.5200   25.2920 C   0  0  0  0  0  0  0  0  0  0  0  0
  -20.5530   -4.5980   25.3380 C   0  0  0  0  0  3  0  0  0  0  0  0
  -21.6040   -4.6830   24.4030 C   0  0  0  0  0  0  0  0  0  0  0  0
  -22.6090   -3.7770   24.4510 F   0  0  0  0  0  0  0  0  0  0  0  0
  -18.4890   -5.4420   26.1970 F   0  0  0  0  0  0  0  0  0  0  0  0
  -24.0870  -11.7180   19.5350 C   0  0  0  0  0  0  0  0  0  0  0  0
  -23.0280  -11.2770   20.2160 N   0  0  0  0  0  0  0  0  0  0  0  0
  -23.9790  -12.2070   18.4220 O   0  0  0  0  0  0  0  0  0  0  0  0
  -23.1040  -10.8750   21.1360 H   0  0  0  0  0  0  0  0  0  0  0  0
  -22.1130  -11.3240   19.7900 H   0  0  0  0  0  0  0  0  0  0  0  0
  -27.0610  -12.8240   18.4170 N   0  0  0  0  0  0  0  0  0  0  0  0
  -26.2410  -13.1550   17.9170 H   0  0  0  0  0  0  0  0  0  0  0  0
  -27.7460  -13.5760   18.5460 H   0  0  0  0  0  0  0  0  0  0  0  0
  -30.6650  -16.7660   20.6950 C   0  0  0  0  0  1  0  0  0  0  0  0
  -31.2530  -15.5030   18.5700 C   0  0  0  0  0  1  0  0  0  0  0  0
  -30.2500  -15.6200   19.7450 C   0  0  0  0  0  3  0  0  0  0  0  0
  -27.0210  -21.0280   20.1430 C   0  0  0  0  0  2  0  0  0  0  0  0
  -27.8810  -22.5400   19.6550 C   0  0  0  0  0  3  0  0  0  0  0  0
  -27.3920  -24.2840   19.7290 C   0  0  0  0  0  3  0  0  0  0  0  0
  -28.0060  -25.7880   19.3710 O   0  0  0  0  0  0  0  0  0  0  0  0
  -24.7430  -31.5370   22.7870 C   0  0  0  0  0  0  0  0  0  0  0  0
  -27.1650  -26.9990   19.3200 C   0  0  0  0  0  0  0  0  0  0  0  0
  -23.5250  -30.2600   21.0780 C   0  0  0  0  0  3  0  0  0  0  0  0
  -24.9440  -28.8880   19.4260 C   0  0  0  0  0  0  0  0  0  0  0  0
  -26.0740  -30.5740   20.8510 C   0  0  0  0  0  2  0  0  0  0  0  0
  -26.1390  -29.2370   20.0650 C   0  0  0  0  0  0  0  0  0  0  0  0
  -27.2670  -28.3100   19.9900 C   0  0  0  0  0  3  0  0  0  0  0  0
  -26.0020  -26.8640   18.5500 C   0  0  0  0  0  3  0  0  0  0  0  0
  -24.9040  -27.7410   18.6270 C   0  0  0  0  0  3  0  0  0  0  0  0
  -23.7090  -29.7560   19.6220 C   0  0  0  0  0  2  0  0  0  0  0  0
  -24.8040  -30.8160   21.6240 N   0  0  0  0  0  0  0  0  0  0  0  0
  -23.6690  -31.7250   23.3800 O   0  0  0  0  0  0  0  0  0  0  0  0
  -22.9310  -29.1290   21.9580 C   0  0  0  0  0  0  0  0  0  0  0  0
  -21.6080  -28.8980   21.8590 N   0  0  0  0  0  0  0  0  0  0  0  0
  -23.6600  -28.4700   22.7030 O   0  0  0  0  0  0  0  0  0  0  0  0
  -21.0690  -29.4850   21.2370 H   0  0  0  0  0  0  0  0  0  0  0  0
  -18.3100  -27.4740   22.3700 C   0  0  0  0  0  0  0  0  0  0  0  0
  -20.8630  -27.8510   22.5680 C   0  0  0  0  0  3  0  0  0  0  0  0
  -21.0120  -26.4830   21.8630 C   0  0  0  0  0  2  0  0  0  0  0  0
  -19.8890  -26.1930   20.8620 C   0  0  0  0  0  2  0  0  0  0  0  0
  -18.5280  -26.2050   21.5640 C   0  0  0  0  0  2  0  0  0  0  0  0
  -19.4040  -28.2560   22.8270 C   0  0  0  0  0  0  0  0  0  0  0  0
  -19.1430  -29.4420   23.5460 C   0  0  0  0  0  3  0  0  0  0  0  0
  -17.8210  -29.8490   23.8080 C   0  0  0  0  0  3  0  0  0  0  0  0
  -16.7420  -29.0650   23.3630 C   0  0  0  0  0  3  0  0  0  0  0  0
  -16.9880  -27.8780   22.6500 C   0  0  0  0  0  3  0  0  0  0  0  0
  -26.0150  -32.1750   23.4190 C   0  0  0  0  0  3  0  0  0  0  0  0
  -26.6100  -31.3170   24.6060 C   0  0  1  0  0  0  0  0  0  0  0  0
  -25.5610  -30.9160   25.6710 C   0  0  0  0  0  1  0  0  0  0  0  0
  -27.2600  -30.0190   24.0790 C   0  0  0  0  0  1  0  0  0  0  0  0
  -27.7350  -32.1100   25.3110 C   0  0  0  0  0  1  0  0  0  0  0  0
  -25.6550  -33.5200   23.9010 N   0  0  0  0  0  0  0  0  0  0  0  0
  -25.9250  -34.6620   23.2560 C   0  0  0  0  0  0  0  0  0  0  0  0
  -26.5670  -34.6960   22.2030 O   0  0  0  0  0  0  0  0  0  0  0  0
  -25.0790  -33.5620   24.7300 H   0  0  0  0  0  0  0  0  0  0  0  0
  -24.1390  -36.4320   23.1240 C   0  0  0  0  0  1  0  0  0  0  0  0
  -25.4020  -35.9760   23.8740 C   0  0  0  0  0  3  0  0  0  0  0  0
  -27.5190  -36.8270   24.7850 C   0  0  0  0  0  1  0  0  0  0  0  0
  -26.4040  -37.0670   23.8730 N   0  0  0  0  0  0  0  0  0  0  0  0
  -25.9730  -37.9530   24.1240 H   0  0  0  0  0  0  0  0  0  0  0  0
  2 55  1  0
  2  1  2  0
  3  7  2  0
  3  2  1  0
  4  6  2  0
  5  3  1  0
  6  1  1  0
  7  4  1  0
  9  4  1  0
  9 14  1  0
  9 10  1  0
 10 11  1  1
 10 13  1  0
 12 10  1  0
 15 21  1  0
 17 16  1  0
 18 17  1  0
 19 27  1  0
 19 18  1  0
 19 20  1  0
 21 20  1  0
 21 16  1  0
 22 15  2  0
 23 14  1  0
 23 15  1  0
 24 25  2  0
 24 27  1  0
 25 26  1  0
 26 29  1  0
 26 28  2  0
 27 28  1  0
 29 30  1  0
 30 31  2  0
 32 35  1  0
 32 31  1  0
 33 32  2  0
 34 33  1  0
 34 29  2  0
 35 36  1  0
 36 41  1  0
 37 36  2  0
 37 38  1  0
 38 39  2  0
 39 40  1  0
 39 43  1  0
 41 42  1  0
 41 40  2  0
 44 25  1  0
 44 45  1  0
 45 47  1  0
 46 44  2  0
 48 45  1  0
 49 51  1  0
 49 24  1  0
 50 49  1  0
 53 54  1  0
 54 23  1  0
 54 52  1  0
 56 57  2  0
 56 55  1  0
 58 57  1  0
 59 70  2  0
 60 58  1  0
 60 65  1  0
 61 69  1  0
 61 71  1  0
 62 68  1  0
 62 64  1  0
 63 69  1  0
 64 63  1  0
 65 64  2  0
 66 67  1  0
 66 60  2  0
 67 62  2  0
 68 61  1  0
 69 59  1  0
 71 73  2  0
 72 71  1  0
 74 72  1  0
 75 84  2  0
 75 80  1  0
 76 72  1  0
 76 80  1  0
 77 76  1  0
 78 79  1  0
 78 77  1  0
 79 75  1  0
 80 81  2  0
 81 82  1  0
 83 82  2  0
 84 83  1  0
 85 59  1  0
 85 90  1  0
 85 86  1  0
 86 89  1  1
 86 87  1  0
 88 86  1  0
 90 93  1  0
 91 95  1  0
 91 90  1  0
 92 91  2  0
 95 94  1  0
 97 95  1  0
 97 98  1  0
 97 96  1  0
M  ISO  4  15 100  23 100  57 101  58 101
M  END
>  <TORSDO>  (81) 
F 23

>  <SCORE>  (81) 
-0.978

>  <name>  (81) 
86

>  <ligand_id>  (81) 
86

>  <original_smiles>  (81) 
[H]c1nc(C(C([H])([H])[H])(C(F)(F)F)C([H])([H])N(C(=O)N2C([H])([H])C([H])([H])C([H])([H])C([H])(n3nc(-c4c([H])c([H])c(Oc5c([H])c([H])c(F)c([H])c5F)c([H])c4[H])c(C(=O)N([H])[H])c3N([H])[H])C2([H])[H])C([H])(C([H])([H])[H])C([H])([H])[H])nc(C([H])([H])[H])c1C([H])([H])C([H])([H])C([H])([H])Oc1c([H])c([H])c2c(c1[H])C([H])([H])N(C(=O)C([H])(N([H])C(=O)C([H])(N([H])C([H])([H])[H])C([H])([H])[H])C(C([H])([H])[H])(C([H])([H])[H])C([H])([H])[H])C([H])(C(=O)N([H])C1([H])c3c([H])c([H])c([H])c([H])c3C([H])([H])C([H])([H])C1([H])[H])C2([H])[H]

>  <smiles>  (81) 
[H]c1nc(C(C([H])([H])[H])(C(F)(F)F)C([H])([H])N(C(=O)N2C([H])([H])C([H])([H])C([H])([H])C([H])(n3nc(-c4c([H])c([H])c(Oc5c([H])c([H])c(F)c([H])c5F)c([H])c4[H])c(C(=O)N([H])[H])c3N([H])[H])C2([H])[H])C([H])(C([H])([H])[H])C([H])([H])[H])nc(C([H])([H])[H])c1C([H])([H])C([H])([H])C([H])([H])Oc1c([H])c([H])c2c(c1[H])C([H])([H])N(C(=O)C([H])(N([H])C(=O)C([H])(N([H])C([H])([H])[H])C([H])([H])[H])C(C([H])([H])[H])(C([H])([H])[H])C([H])([H])[H])C([H])(C(=O)N([H])C1([H])c3c([H])c([H])c([H])c([H])c3C([H])([H])C([H])([H])C1([H])[H])C2([H])[H]

$$$$
87:0:0
     RDKit          3D

 98107  0  0  1  0  0  0  0  0999 V2000
  -31.2930  -20.4020   21.4370 C   0  0  0  0  0  3  0  0  0  0  0  0
  -28.8960  -19.1730   21.6560 C   0  0  0  0  0  3  0  0  0  0  0  0
  -30.1120  -21.1370   21.6980 C   0  0  0  0  0  0  0  0  0  0  0  0
  -30.0640  -18.4450   21.3230 C   0  0  0  0  0  0  0  0  0  0  0  0
  -28.9100  -20.5200   21.8240 N   0  0  0  0  0  0  0  0  0  0  0  0
  -31.2760  -19.0560   21.2430 N   0  0  0  0  0  0  0  0  0  0  0  0
  -30.1340  -22.6600   21.8460 C   0  0  0  0  0  2  0  0  0  0  0  0
  -29.3310  -23.4060   20.7470 C   0  0  0  0  0  2  0  0  0  0  0  0
  -30.9360  -25.2400   19.9700 C   0  0  0  0  0  1  0  0  0  0  0  0
  -29.4330  -25.6530   21.9650 C   0  0  0  0  0  1  0  0  0  0  0  0
  -29.5610  -24.9450   20.5970 C   0  0  2  0  0  0  0  0  0  0  0  0
  -28.4640  -25.4970   19.6510 C   0  0  0  0  0  2  0  0  0  0  0  0
  -28.5530  -26.9200   19.4930 O   0  0  0  0  0  0  0  0  0  0  0  0
  -24.6140  -31.6730   22.9910 C   0  0  0  0  0  0  0  0  0  0  0  0
  -27.3560  -27.5990   19.5350 C   0  0  0  0  0  0  0  0  0  0  0  0
  -23.4200  -30.3410   21.2880 C   0  0  0  0  0  3  0  0  0  0  0  0
  -24.8950  -28.9770   19.7170 C   0  0  0  0  0  0  0  0  0  0  0  0
  -25.9210  -30.8260   21.0490 C   0  0  0  0  0  2  0  0  0  0  0  0
  -26.0470  -29.5160   20.3050 C   0  0  0  0  0  0  0  0  0  0  0  0
  -27.2800  -28.8380   20.2080 C   0  0  0  0  0  3  0  0  0  0  0  0
  -26.1910  -27.0820   18.9220 C   0  0  0  0  0  3  0  0  0  0  0  0
  -24.9610  -27.7560   19.0250 C   0  0  0  0  0  3  0  0  0  0  0  0
  -23.6160  -29.7720   19.8580 C   0  0  0  0  0  2  0  0  0  0  0  0
  -24.6730  -30.9560   21.8350 N   0  0  0  0  0  0  0  0  0  0  0  0
  -23.5360  -31.8600   23.5750 O   0  0  0  0  0  0  0  0  0  0  0  0
  -22.8430  -29.2230   22.1870 C   0  0  0  0  0  0  0  0  0  0  0  0
  -21.5160  -29.0340   22.1260 N   0  0  0  0  0  0  0  0  0  0  0  0
  -23.5820  -28.5350   22.8950 O   0  0  0  0  0  0  0  0  0  0  0  0
  -20.9720  -29.6350   21.5220 H   0  0  0  0  0  0  0  0  0  0  0  0
  -18.1980  -27.7470   22.7060 C   0  0  0  0  0  0  0  0  0  0  0  0
  -20.7640  -28.0120   22.8510 C   0  0  0  0  0  3  0  0  0  0  0  0
  -20.8370  -26.6450   22.1340 C   0  0  0  0  0  2  0  0  0  0  0  0
  -19.6850  -26.4170   21.1580 C   0  0  0  0  0  2  0  0  0  0  0  0
  -18.3400  -26.4740   21.8910 C   0  0  0  0  0  2  0  0  0  0  0  0
  -19.3340  -28.4800   23.1410 C   0  0  0  0  0  0  0  0  0  0  0  0
  -19.1420  -29.6800   23.8530 C   0  0  0  0  0  3  0  0  0  0  0  0
  -17.8460  -30.1520   24.1350 C   0  0  0  0  0  3  0  0  0  0  0  0
  -16.7240  -29.4150   23.7190 C   0  0  0  0  0  3  0  0  0  0  0  0
  -16.9020  -28.2110   23.0150 C   0  0  0  0  0  3  0  0  0  0  0  0
  -25.8900  -32.3120   23.6210 C   0  0  0  0  0  3  0  0  0  0  0  0
  -25.5350  -33.6720   24.0490 N   0  0  0  0  0  0  0  0  0  0  0  0
  -25.8100  -34.7820   23.3510 C   0  0  0  0  0  0  0  0  0  0  0  0
  -26.4570  -34.7720   22.2990 O   0  0  0  0  0  0  0  0  0  0  0  0
  -24.9530  -33.7500   24.8700 H   0  0  0  0  0  0  0  0  0  0  0  0
  -23.9960  -36.5130   23.1540 C   0  0  0  0  0  1  0  0  0  0  0  0
  -25.2780  -36.1180   23.9050 C   0  0  0  0  0  3  0  0  0  0  0  0
  -27.3900  -37.0520   24.7360 C   0  0  0  0  0  1  0  0  0  0  0  0
  -26.2620  -37.2200   23.8250 N   0  0  0  0  0  0  0  0  0  0  0  0
  -25.8200  -38.1140   24.0250 H   0  0  0  0  0  0  0  0  0  0  0  0
  -26.4720  -31.4790   24.8270 C   0  0  1  0  0  0  0  0  0  0  0  0
  -25.4220  -31.1380   25.9110 C   0  0  0  0  0  1  0  0  0  0  0  0
  -27.0860  -30.1510   24.3240 C   0  0  0  0  0  1  0  0  0  0  0  0
  -27.6190  -32.2680   25.4990 C   0  0  0  0  0  1  0  0  0  0  0  0
  -29.9740  -16.9800   20.8820 C   0  0  0  0  0  2  0  0  0  0  0  0
  -31.1030  -17.1310   17.4000 C   0  0  0  0  0  3  0  0  0  0  0  0
  -30.1870  -17.4840   18.3650 C   0  0  0  0  0  0  0  0  0  0  0  0
  -31.5710  -15.9700   19.2100 C   0  0  0  0  0  3  0  0  0  0  0  0
  -30.5560  -16.8040   19.5270 N   0  0  0  0  0  0  0  0  0  0  0  0
  -31.9630  -16.2420   17.9680 N   0  0  0  0  0  0  0  0  0  0  0  0
  -32.7730  -15.8290   17.5250 H   0  0  0  0  0  0  0  0  0  0  0  0
  -32.3070  -14.9150   20.0020 C   0  0  0  0  0  0  0  0  0  0  0  0
  -31.9370  -12.5710   19.4010 C   0  0  0  0  0  2  0  0  0  0  0  0
  -31.0360  -12.5270   18.1430 C   0  0  0  0  0  2  0  0  0  0  0  0
  -29.5460  -12.5730   18.5360 C   0  0  0  0  0  2  0  0  0  0  0  0
  -29.2130  -13.6980   19.5460 C   0  0  0  0  0  3  0  0  0  0  0  0
  -30.2230  -13.7050   20.7160 C   0  0  0  0  0  2  0  0  0  0  0  0
  -31.5880  -13.7720   20.1780 N   0  0  0  0  0  0  0  0  0  0  0  0
  -33.5300  -14.9180   19.8460 O   0  0  0  0  0  0  0  0  0  0  0  0
  -26.9190  -14.6310   20.2460 C   0  0  0  0  0  0  0  0  0  0  0  0
  -25.7500  -14.0110   20.5950 C   0  0  0  0  0  0  0  0  0  0  0  0
  -26.0170  -12.6080   20.5540 C   0  0  0  0  0  0  0  0  0  0  0  0
  -27.8310  -13.6150   20.0170 N   0  0  0  0  0  0  0  0  0  0  0  0
  -27.2920  -12.3940   20.2580 N   0  0  0  0  0  0  0  0  0  0  0  0
  -25.1270  -11.4520   20.7150 C   0  0  0  0  0  0  0  0  0  0  0  0
  -25.4140  -10.4210   21.6370 C   0  0  0  0  0  3  0  0  0  0  0  0
  -24.5320   -9.3290   21.7840 C   0  0  0  0  0  3  0  0  0  0  0  0
  -23.3480   -9.2660   21.0100 C   0  0  0  0  0  0  0  0  0  0  0  0
  -23.0810  -10.2830   20.0760 C   0  0  0  0  0  3  0  0  0  0  0  0
  -23.9620  -11.3650   19.9270 C   0  0  0  0  0  3  0  0  0  0  0  0
  -22.4460   -8.2330   21.0690 O   0  0  0  0  0  0  0  0  0  0  0  0
  -22.1610   -7.5950   22.2480 C   0  0  0  0  0  0  0  0  0  0  0  0
  -21.6930   -8.2930   23.3810 C   0  0  0  0  0  3  0  0  0  0  0  0
  -21.3580   -7.5870   24.5530 C   0  0  0  0  0  3  0  0  0  0  0  0
  -21.4740   -6.1830   24.5870 C   0  0  0  0  0  0  0  0  0  0  0  0
  -21.9300   -5.4860   23.4550 C   0  0  0  0  0  3  0  0  0  0  0  0
  -22.2710   -6.1900   22.2870 C   0  0  0  0  0  0  0  0  0  0  0  0
  -22.6970   -5.5140   21.1930 F   0  0  0  0  0  0  0  0  0  0  0  0
  -21.1400   -5.5010   25.7070 F   0  0  0  0  0  0  0  0  0  0  0  0
  -24.4260  -14.6730   20.8470 C   0  0  0  0  0  0  0  0  0  0  0  0
  -23.6140  -14.1070   21.7330 N   0  0  0  0  0  0  0  0  0  0  0  0
  -24.1200  -15.7250   20.2830 O   0  0  0  0  0  0  0  0  0  0  0  0
  -23.8680  -13.2570   22.2090 H   0  0  0  0  0  0  0  0  0  0  0  0
  -22.7190  -14.5270   21.9320 H   0  0  0  0  0  0  0  0  0  0  0  0
  -27.2790  -15.9650   20.0820 N   0  0  0  0  0  0  0  0  0  0  0  0
  -26.5970  -16.7100   20.1770 H   0  0  0  0  0  0  0  0  0  0  0  0
  -28.1300  -16.2570   19.6270 H   0  0  0  0  0  0  0  0  0  0  0  0
  -29.4760  -19.7620   17.5950 C   0  0  0  0  0  1  0  0  0  0  0  0
  -29.0320  -18.4360   18.2300 C   0  0  0  0  0  2  0  0  0  0  0  0
  1  3  1  0
  2  5  1  0
  3  5  2  0
  3  7  1  0
  4  2  2  0
  6  4  1  0
  6  1  2  0
  8  7  1  0
 11  9  1  6
 11  8  1  0
 11 10  1  0
 12 11  1  0
 13 15  1  0
 13 12  1  0
 14 25  2  0
 15 20  1  0
 16 24  1  0
 16 26  1  0
 17 23  1  0
 17 19  1  0
 18 24  1  0
 19 18  1  0
 20 19  2  0
 21 22  1  0
 21 15  2  0
 22 17  2  0
 23 16  1  0
 24 14  1  0
 26 28  2  0
 27 26  1  0
 29 27  1  0
 30 39  2  0
 30 35  1  0
 31 27  1  0
 31 35  1  0
 32 31  1  0
 33 34  1  0
 33 32  1  0
 34 30  1  0
 35 36  2  0
 36 37  1  0
 38 37  2  0
 39 38  1  0
 40 14  1  0
 40 41  1  0
 40 50  1  0
 41 44  1  0
 42 46  1  0
 42 41  1  0
 43 42  2  0
 46 45  1  0
 48 46  1  0
 48 49  1  0
 48 47  1  0
 50 53  1  1
 50 51  1  0
 52 50  1  0
 54  4  1  0
 55 59  1  0
 55 56  2  0
 56 58  1  0
 57 58  1  0
 57 61  1  0
 58 54  1  0
 59 57  1  0
 60 59  1  0
 61 67  1  0
 62 67  1  0
 63 64  1  0
 63 62  1  0
 65 64  1  0
 65 72  1  0
 65 66  1  0
 67 66  1  0
 68 61  2  0
 69 70  2  0
 70 89  1  0
 71 70  1  0
 71 74  1  0
 72 69  1  0
 72 73  1  0
 73 71  2  0
 74 75  1  0
 75 76  2  0
 77 80  1  0
 77 76  1  0
 78 77  2  0
 79 78  1  0
 79 74  2  0
 80 81  1  0
 81 86  2  0
 81 82  1  0
 82 83  2  0
 83 84  1  0
 84 88  1  0
 85 84  2  0
 86 85  1  0
 87 86  1  0
 89 90  1  0
 90 93  1  0
 90 92  1  0
 91 89  2  0
 94 95  1  0
 94 69  1  0
 96 94  1  0
 97 98  1  0
 98 56  1  0
M  ISO  4  12 101  13 101  57 100  61 100
M  END
>  <TORSDO>  (82) 
F 23

>  <SCORE>  (82) 
-9.219

>  <name>  (82) 
87

>  <ligand_id>  (82) 
87

>  <original_smiles>  (82) 
[H]c1nc(C([H])([H])C([H])([H])C(C([H])([H])[H])(C([H])([H])[H])C([H])([H])Oc2c([H])c([H])c3c(c2[H])C([H])([H])N(C(=O)C([H])(N([H])C(=O)C([H])(N([H])C([H])([H])[H])C([H])([H])[H])C(C([H])([H])[H])(C([H])([H])[H])C([H])([H])[H])C([H])(C(=O)N([H])C2([H])c4c([H])c([H])c([H])c([H])c4C([H])([H])C([H])([H])C2([H])[H])C3([H])[H])c([H])nc1C([H])([H])n1c(C([H])([H])C([H])([H])[H])c([H])[n+]([H])c1C(=O)N1C([H])([H])C([H])([H])C([H])([H])C([H])(n2nc(-c3c([H])c([H])c(Oc4c([H])c([H])c(F)c([H])c4F)c([H])c3[H])c(C(=O)N([H])[H])c2N([H])[H])C1([H])[H]

>  <smiles>  (82) 
[H]c1nc(C([H])([H])C([H])([H])C(C([H])([H])[H])(C([H])([H])[H])C([H])([H])Oc2c([H])c([H])c3c(c2[H])C([H])([H])N(C(=O)C([H])(N([H])C(=O)C([H])(N([H])C([H])([H])[H])C([H])([H])[H])C(C([H])([H])[H])(C([H])([H])[H])C([H])([H])[H])C([H])(C(=O)N([H])C2([H])c4c([H])c([H])c([H])c([H])c4C([H])([H])C([H])([H])C2([H])[H])C3([H])[H])c([H])nc1C([H])([H])n1c(C([H])([H])C([H])([H])[H])c([H])[n+]([H])c1C(=O)N1C([H])([H])C([H])([H])C([H])([H])C([H])(n2nc(-c3c([H])c([H])c(Oc4c([H])c([H])c(F)c([H])c4F)c([H])c3[H])c(C(=O)N([H])[H])c2N([H])[H])C1([H])[H]

$$$$
88:0:0
     RDKit          3D

 99108  0  0  1  0  0  0  0  0999 V2000
  -29.6250  -19.1020   19.9510 C   0  0  0  0  0  0  0  0  0  0  0  0
  -30.3280  -17.0830   20.2000 C   0  0  0  0  0  0  0  0  0  0  0  0
  -29.1430  -18.4090   18.9160 N   0  0  0  0  0  0  0  0  0  0  0  0
  -29.5680  -17.1110   19.0910 N   0  0  0  0  0  0  0  0  0  0  0  0
  -30.4000  -18.3330   20.7790 N   0  0  0  0  0  0  0  0  0  0  0  0
  -27.8300  -20.9510   19.9050 C   0  0  0  0  0  2  0  0  0  0  0  0
  -30.1540  -21.5990   19.3200 C   0  0  0  0  0  2  0  0  0  0  0  0
  -27.4880  -22.3930   20.3420 C   0  0  0  0  0  2  0  0  0  0  0  0
  -29.8890  -23.0690   19.7690 C   0  0  0  0  0  2  0  0  0  0  0  0
  -29.3160  -20.5980   20.1430 C   0  0  0  0  0  3  0  0  0  0  0  0
  -28.3990  -23.5120   19.7550 C   0  0  0  0  0  3  0  0  0  0  0  0
  -28.1750  -24.8370   20.5560 C   0  0  0  0  0  2  0  0  0  0  0  0
  -28.9080  -26.1240   20.0880 C   0  0  0  0  0  2  0  0  0  0  0  0
  -28.2830  -26.7730   18.9820 O   0  0  0  0  0  0  0  0  0  0  0  0
  -24.5810  -31.5780   22.8290 C   0  0  0  0  0  0  0  0  0  0  0  0
  -27.1220  -27.4730   19.2300 C   0  0  0  0  0  0  0  0  0  0  0  0
  -23.3100  -30.3170   21.1180 C   0  0  0  0  0  3  0  0  0  0  0  0
  -24.7090  -28.9170   19.5160 C   0  0  0  0  0  0  0  0  0  0  0  0
  -25.8250  -30.7180   20.8440 C   0  0  0  0  0  2  0  0  0  0  0  0
  -25.8900  -29.4040   20.0920 C   0  0  0  0  0  0  0  0  0  0  0  0
  -27.1010  -28.6850   19.9560 C   0  0  0  0  0  3  0  0  0  0  0  0
  -25.9260  -26.9950   18.6580 C   0  0  0  0  0  3  0  0  0  0  0  0
  -24.7160  -27.7010   18.8080 C   0  0  0  0  0  3  0  0  0  0  0  0
  -23.4660  -29.7610   19.6780 C   0  0  0  0  0  2  0  0  0  0  0  0
  -24.5910  -30.8860   21.6540 N   0  0  0  0  0  0  0  0  0  0  0  0
  -23.5250  -31.7770   23.4470 O   0  0  0  0  0  0  0  0  0  0  0  0
  -22.7120  -29.2030   22.0090 C   0  0  0  0  0  0  0  0  0  0  0  0
  -21.3790  -29.0470   21.9650 N   0  0  0  0  0  0  0  0  0  0  0  0
  -23.4450  -28.4860   22.6970 O   0  0  0  0  0  0  0  0  0  0  0  0
  -20.8440  -29.6820   21.3880 H   0  0  0  0  0  0  0  0  0  0  0  0
  -18.0290  -27.8680   22.6180 C   0  0  0  0  0  0  0  0  0  0  0  0
  -20.6070  -28.0390   22.6930 C   0  0  0  0  0  3  0  0  0  0  0  0
  -20.6180  -26.6840   21.9480 C   0  0  0  0  0  2  0  0  0  0  0  0
  -19.4250  -26.5050   21.0040 C   0  0  0  0  0  2  0  0  0  0  0  0
  -18.1070  -26.6020   21.7810 C   0  0  0  0  0  2  0  0  0  0  0  0
  -19.2030  -28.5510   23.0340 C   0  0  0  0  0  0  0  0  0  0  0  0
  -19.0720  -29.7440   23.7780 C   0  0  0  0  0  3  0  0  0  0  0  0
  -17.8020  -30.2450   24.1200 C   0  0  0  0  0  3  0  0  0  0  0  0
  -16.6450  -29.5540   23.7210 C   0  0  0  0  0  3  0  0  0  0  0  0
  -16.7580  -28.3700   22.9700 C   0  0  0  0  0  3  0  0  0  0  0  0
  -25.8920  -32.1660   23.4420 C   0  0  0  0  0  3  0  0  0  0  0  0
  -25.5680  -33.4910   23.9910 N   0  0  0  0  0  0  0  0  0  0  0  0
  -25.8270  -34.6550   23.3770 C   0  0  0  0  0  0  0  0  0  0  0  0
  -26.4400  -34.7250   22.3080 O   0  0  0  0  0  0  0  0  0  0  0  0
  -25.0190  -33.5100   24.8370 H   0  0  0  0  0  0  0  0  0  0  0  0
  -24.0460  -36.4300   23.3690 C   0  0  0  0  0  1  0  0  0  0  0  0
  -25.3320  -35.9460   24.0560 C   0  0  0  0  0  3  0  0  0  0  0  0
  -27.4830  -36.7630   24.9160 C   0  0  0  0  0  1  0  0  0  0  0  0
  -26.3340  -37.0360   24.0560 N   0  0  0  0  0  0  0  0  0  0  0  0
  -25.9110  -37.9110   24.3570 H   0  0  0  0  0  0  0  0  0  0  0  0
  -26.5280  -31.2440   24.5530 C   0  0  1  0  0  0  0  0  0  0  0  0
  -25.5290  -30.8100   25.6530 C   0  0  0  0  0  1  0  0  0  0  0  0
  -27.1270  -29.9660   23.9230 C   0  0  0  0  0  1  0  0  0  0  0  0
  -27.6980  -31.9850   25.2430 C   0  0  0  0  0  1  0  0  0  0  0  0
  -32.4640  -15.9190   21.1360 C   0  0  0  0  0  1  0  0  0  0  0  0
  -30.1880  -15.4300   22.0660 C   0  0  0  0  0  1  0  0  0  0  0  0
  -30.9480  -15.7700   20.7720 C   0  0  1  0  0  0  0  0  0  0  0  0
  -30.9730  -14.6200   19.6610 C   0  0  0  0  0  0  0  0  0  0  0  0
  -30.4240  -12.4760   18.5230 C   0  0  0  0  0  2  0  0  0  0  0  0
  -29.3810  -12.6800   17.4040 C   0  0  0  0  0  2  0  0  0  0  0  0
  -27.9490  -12.5710   17.9650 C   0  0  0  0  0  2  0  0  0  0  0  0
  -27.7660  -13.3980   19.2620 C   0  0  0  0  0  3  0  0  0  0  0  0
  -28.9250  -13.1380   20.2460 C   0  0  0  0  0  2  0  0  0  0  0  0
  -30.1940  -13.4870   19.5830 N   0  0  0  0  0  0  0  0  0  0  0  0
  -31.8730  -14.7640   18.8230 O   0  0  0  0  0  0  0  0  0  0  0  0
  -25.4740  -14.0240   20.2500 C   0  0  0  0  0  0  0  0  0  0  0  0
  -24.4420  -13.2630   20.7210 C   0  0  0  0  0  0  0  0  0  0  0  0
  -24.8680  -11.9030   20.6080 C   0  0  0  0  0  0  0  0  0  0  0  0
  -26.4700  -13.1340   19.8860 N   0  0  0  0  0  0  0  0  0  0  0  0
  -26.1150  -11.8510   20.1560 N   0  0  0  0  0  0  0  0  0  0  0  0
  -24.1460  -10.6470   20.8500 C   0  0  0  0  0  0  0  0  0  0  0  0
  -24.6030   -9.7070   21.7990 C   0  0  0  0  0  3  0  0  0  0  0  0
  -23.8800   -8.5180   22.0360 C   0  0  0  0  0  3  0  0  0  0  0  0
  -22.6860   -8.2570   21.3190 C   0  0  0  0  0  0  0  0  0  0  0  0
  -22.2520   -9.1820   20.3550 C   0  0  0  0  0  3  0  0  0  0  0  0
  -22.9740  -10.3630   20.1170 C   0  0  0  0  0  3  0  0  0  0  0  0
  -21.9320   -7.1160   21.4590 O   0  0  0  0  0  0  0  0  0  0  0  0
  -21.8370   -6.4580   22.6600 C   0  0  0  0  0  0  0  0  0  0  0  0
  -21.3470   -7.0930   23.8210 C   0  0  0  0  0  3  0  0  0  0  0  0
  -21.1950   -6.3570   25.0130 C   0  0  0  0  0  3  0  0  0  0  0  0
  -21.5270   -4.9890   25.0440 C   0  0  0  0  0  0  0  0  0  0  0  0
  -22.0120   -4.3560   23.8870 C   0  0  0  0  0  3  0  0  0  0  0  0
  -22.1620   -5.0880   22.6970 C   0  0  0  0  0  0  0  0  0  0  0  0
  -22.6070   -4.4680   21.5770 F   0  0  0  0  0  0  0  0  0  0  0  0
  -21.3780   -4.2810   26.1880 F   0  0  0  0  0  0  0  0  0  0  0  0
  -23.0920  -13.7450   21.1680 C   0  0  0  0  0  0  0  0  0  0  0  0
  -22.4780  -13.0450   22.1130 N   0  0  0  0  0  0  0  0  0  0  0  0
  -22.6010  -14.7770   20.7090 O   0  0  0  0  0  0  0  0  0  0  0  0
  -22.8940  -12.2030   22.4900 H   0  0  0  0  0  0  0  0  0  0  0  0
  -21.5760  -13.3440   22.4580 H   0  0  0  0  0  0  0  0  0  0  0  0
  -25.6550  -15.3970   20.0770 N   0  0  0  0  0  0  0  0  0  0  0  0
  -24.9610  -16.0910   20.3350 H   0  0  0  0  0  0  0  0  0  0  0  0
  -26.4680  -15.8070   19.6360 H   0  0  0  0  0  0  0  0  0  0  0  0
  -31.1760  -18.8060   21.9330 C   0  0  0  0  0  2  0  0  0  0  0  0
  -30.4700  -19.7960   22.9000 C   0  0  0  0  0  2  0  0  0  0  0  0
  -31.8760  -21.7670   21.9730 C   0  0  0  0  0  1  0  0  0  0  0  0
  -32.4260  -20.7700   24.2190 C   0  0  0  0  0  1  0  0  0  0  0  0
  -30.3200  -22.1160   23.8450 C   0  0  0  0  0  1  0  0  0  0  0  0
  -31.2840  -21.0880   23.2290 C   0  0  2  0  0  0  0  0  0  0  0  0
  1  5  1  0
  2 57  1  0
  2  5  1  0
  3  4  1  0
  3  1  2  0
  4  2  2  0
  5 94  1  0
  6 10  1  0
  6  8  1  0
  7  9  1  0
  7 10  1  0
 10  1  1  0
 11  9  1  0
 11  8  1  0
 11 12  1  0
 13 12  1  0
 14 16  1  0
 14 13  1  0
 15 26  2  0
 16 21  1  0
 17 25  1  0
 17 27  1  0
 18 24  1  0
 18 20  1  0
 19 25  1  0
 20 19  1  0
 21 20  2  0
 22 23  1  0
 22 16  2  0
 23 18  2  0
 24 17  1  0
 25 15  1  0
 27 29  2  0
 28 27  1  0
 30 28  1  0
 31 40  2  0
 31 36  1  0
 32 28  1  0
 32 36  1  0
 33 32  1  0
 34 35  1  0
 34 33  1  0
 35 31  1  0
 36 37  2  0
 37 38  1  0
 39 38  2  0
 40 39  1  0
 41 15  1  0
 41 42  1  0
 41 51  1  0
 42 45  1  0
 43 42  1  0
 43 47  1  0
 44 43  2  0
 47 46  1  0
 49 47  1  0
 49 50  1  0
 49 48  1  0
 51 54  1  1
 51 52  1  0
 53 51  1  0
 57 55  1  1
 57 56  1  0
 58 57  1  0
 59 64  1  0
 60 61  1  0
 60 59  1  0
 62 61  1  0
 62 69  1  0
 62 63  1  0
 64 58  1  0
 64 63  1  0
 65 58  2  0
 66 67  2  0
 67 86  1  0
 68 67  1  0
 68 71  1  0
 69 70  1  0
 69 66  1  0
 70 68  2  0
 71 72  1  0
 72 73  2  0
 74 77  1  0
 74 73  1  0
 75 74  2  0
 76 75  1  0
 76 71  2  0
 77 78  1  0
 78 83  2  0
 78 79  1  0
 79 80  2  0
 80 81  1  0
 81 85  1  0
 82 81  2  0
 83 82  1  0
 84 83  1  0
 86 87  1  0
 87 90  1  0
 87 89  1  0
 88 86  2  0
 91 66  1  0
 91 92  1  0
 93 91  1  0
 94 95  1  0
 95 99  1  0
 99 96  1  6
 99 98  1  0
 99 97  1  0
M  ISO  4  13 101  14 101  57 100  58 100
M  END
>  <TORSDO>  (83) 
F 23

>  <SCORE>  (83) 
-10.095

>  <name>  (83) 
88

>  <ligand_id>  (83) 
88

>  <original_smiles>  (83) 
[H]c1c([H])c([H])c2c(c1[H])C([H])([H])C([H])([H])C([H])([H])C2([H])N([H])C(=O)C1([H])N(C(=O)C([H])(N([H])C(=O)C([H])(N([H])C([H])([H])[H])C([H])([H])[H])C(C([H])([H])[H])(C([H])([H])[H])C([H])([H])[H])C([H])([H])c2c([H])c(OC([H])([H])C([H])([H])C3([H])C([H])([H])C([H])([H])C([H])(c4nnc(C(C(=O)N5C([H])([H])C([H])([H])C([H])([H])C([H])(n6nc(-c7c([H])c([H])c(Oc8c([H])c([H])c(F)c([H])c8F)c([H])c7[H])c(C(=O)N([H])[H])c6N([H])[H])C5([H])[H])(C([H])([H])[H])C([H])([H])[H])n4C([H])([H])C([H])([H])C(C([H])([H])[H])(C([H])([H])[H])C([H])([H])[H])C([H])([H])C3([H])[H])c([H])c([H])c2C1([H])[H]

>  <smiles>  (83) 
[H]c1c([H])c([H])c2c(c1[H])C([H])([H])C([H])([H])C([H])([H])C2([H])N([H])C(=O)C1([H])N(C(=O)C([H])(N([H])C(=O)C([H])(N([H])C([H])([H])[H])C([H])([H])[H])C(C([H])([H])[H])(C([H])([H])[H])C([H])([H])[H])C([H])([H])c2c([H])c(OC([H])([H])C([H])([H])C3([H])C([H])([H])C([H])([H])C([H])(c4nnc(C(C(=O)N5C([H])([H])C([H])([H])C([H])([H])C([H])(n6nc(-c7c([H])c([H])c(Oc8c([H])c([H])c(F)c([H])c8F)c([H])c7[H])c(C(=O)N([H])[H])c6N([H])[H])C5([H])[H])(C([H])([H])[H])C([H])([H])[H])n4C([H])([H])C([H])([H])C(C([H])([H])[H])(C([H])([H])[H])C([H])([H])[H])C([H])([H])C3([H])[H])c([H])c([H])c2C1([H])[H]

$$$$
89:0:0
     RDKit          3D

101110  0  0  1  0  0  0  0  0999 V2000
  -27.9420  -19.0710   17.6310 C   0  0  0  0  0  1  0  0  0  0  0  0
  -30.1330  -18.4730   16.5280 C   0  0  0  0  0  1  0  0  0  0  0  0
  -29.4490  -19.4040   17.5580 C   0  0  1  0  0  0  0  0  0  0  0  0
  -29.5040  -23.1040   17.7290 C   0  0  0  0  0  3  0  0  0  0  0  0
  -29.5640  -22.4460   15.4410 C   0  0  0  0  0  3  0  0  0  0  0  0
  -29.5420  -23.4790   16.3830 C   0  0  0  0  0  0  0  0  0  0  0  0
  -29.5660  -20.8880   17.1290 C   0  0  0  0  0  0  0  0  0  0  0  0
  -29.4970  -21.8140   18.0870 N   0  0  0  0  0  0  0  0  0  0  0  0
  -29.5520  -21.1580   15.8210 N   0  0  0  0  0  0  0  0  0  0  0  0
  -29.5260  -24.9370   15.9810 C   0  0  0  0  0  2  0  0  0  0  0  0
  -28.1030  -25.4350   15.6990 C   0  0  0  0  0  2  0  0  0  0  0  0
  -27.8490  -26.8120   16.3090 C   0  0  0  0  0  2  0  0  0  0  0  0
  -27.7910  -26.6830   17.7320 O   0  0  0  0  0  0  0  0  0  0  0  0
  -25.1440  -30.4220   23.1710 C   0  0  0  0  0  0  0  0  0  0  0  0
  -26.7200  -27.3340   18.2780 C   0  0  0  0  0  0  0  0  0  0  0  0
  -23.5360  -29.8200   21.3870 C   0  0  0  0  0  3  0  0  0  0  0  0
  -24.5530  -28.8240   19.2750 C   0  0  0  0  0  0  0  0  0  0  0  0
  -26.0260  -30.0660   20.8710 C   0  0  0  0  0  2  0  0  0  0  0  0
  -25.8390  -29.0230   19.7930 C   0  0  0  0  0  0  0  0  0  0  0  0
  -26.9270  -28.2710   19.3070 C   0  0  0  0  0  3  0  0  0  0  0  0
  -25.4200  -27.1180   17.7750 C   0  0  0  0  0  3  0  0  0  0  0  0
  -24.3330  -27.8620   18.2710 C   0  0  0  0  0  3  0  0  0  0  0  0
  -23.4500  -29.6850   19.8430 C   0  0  0  0  0  2  0  0  0  0  0  0
  -24.9300  -30.0930   21.8660 N   0  0  0  0  0  0  0  0  0  0  0  0
  -24.1990  -30.5460   23.9620 O   0  0  0  0  0  0  0  0  0  0  0  0
  -22.9070  -28.5610   22.0220 C   0  0  0  0  0  0  0  0  0  0  0  0
  -21.5870  -28.3970   21.8390 N   0  0  0  0  0  0  0  0  0  0  0  0
  -23.6020  -27.7460   22.6360 O   0  0  0  0  0  0  0  0  0  0  0  0
  -21.0880  -29.1140   21.3320 H   0  0  0  0  0  0  0  0  0  0  0  0
  -18.3140  -26.8810   21.6700 C   0  0  0  0  0  0  0  0  0  0  0  0
  -20.7860  -27.2690   22.3120 C   0  0  0  0  0  3  0  0  0  0  0  0
  -21.0930  -25.9890   21.4990 C   0  0  0  0  0  2  0  0  0  0  0  0
  -20.1480  -25.7910   20.3100 C   0  0  0  0  0  2  0  0  0  0  0  0
  -18.6950  -25.7060   20.7870 C   0  0  0  0  0  2  0  0  0  0  0  0
  -19.2980  -27.6260   22.3740 C   0  0  0  0  0  0  0  0  0  0  0  0
  -18.8930  -28.7320   23.1520 C   0  0  0  0  0  3  0  0  0  0  0  0
  -17.5360  -29.0950   23.2360 C   0  0  0  0  0  3  0  0  0  0  0  0
  -16.5650  -28.3460   22.5500 C   0  0  0  0  0  3  0  0  0  0  0  0
  -16.9530  -27.2400   21.7740 C   0  0  0  0  0  3  0  0  0  0  0  0
  -26.5800  -30.6840   23.7240 C   0  0  0  0  0  3  0  0  0  0  0  0
  -26.5360  -31.9340   24.4930 N   0  0  0  0  0  0  0  0  0  0  0  0
  -27.0130  -33.1100   24.0620 C   0  0  0  0  0  0  0  0  0  0  0  0
  -27.6110  -33.2370   22.9890 O   0  0  0  0  0  0  0  0  0  0  0  0
  -26.0120  -31.9170   25.3560 H   0  0  0  0  0  0  0  0  0  0  0  0
  -25.6500  -35.1960   24.3940 C   0  0  0  0  0  1  0  0  0  0  0  0
  -26.7910  -34.3380   24.9620 C   0  0  0  0  0  3  0  0  0  0  0  0
  -29.0490  -34.5140   25.9120 C   0  0  0  0  0  1  0  0  0  0  0  0
  -28.0030  -35.1700   25.1320 N   0  0  0  0  0  0  0  0  0  0  0  0
  -27.7750  -36.0500   25.5880 H   0  0  0  0  0  0  0  0  0  0  0  0
  -27.1310  -29.5010   24.6100 C   0  0  1  0  0  0  0  0  0  0  0  0
  -26.1640  -29.0620   25.7330 C   0  0  0  0  0  1  0  0  0  0  0  0
  -27.4330  -28.2620   23.7340 C   0  0  0  0  0  1  0  0  0  0  0  0
  -28.4700  -29.9160   25.2650 C   0  0  0  0  0  1  0  0  0  0  0  0
  -30.9140  -19.9470   19.7420 C   0  0  0  0  0  3  0  0  0  0  0  0
  -30.1200  -19.1220   18.9070 C   0  0  0  0  0  0  0  0  0  0  0  0
  -31.2720  -19.1910   20.8300 C   0  0  0  0  0  0  0  0  0  0  0  0
  -30.0730  -17.9080   19.4130 N   0  0  0  0  0  0  0  0  0  0  0  0
  -30.8480  -17.8720   20.5340 N   0  0  0  0  0  0  0  0  0  0  0  0
  -31.8930  -21.3230   22.0540 C   0  0  0  0  0  1  0  0  0  0  0  0
  -33.4860  -19.4910   22.1170 C   0  0  0  0  0  1  0  0  0  0  0  0
  -31.2450  -19.3860   23.3770 C   0  0  0  0  0  1  0  0  0  0  0  0
  -31.9680  -19.7730   22.0680 C   0  0  2  0  0  0  0  0  0  0  0  0
  -32.0050  -16.3100   22.2210 C   0  0  0  0  0  1  0  0  0  0  0  0
  -29.4950  -16.5340   22.0030 C   0  0  0  0  0  1  0  0  0  0  0  0
  -30.8380  -16.5480   21.2350 C   0  0  1  0  0  0  0  0  0  0  0  0
  -31.0990  -15.3990   20.1730 C   0  0  0  0  0  0  0  0  0  0  0  0
  -30.9390  -13.1110   19.2350 C   0  0  0  0  0  2  0  0  0  0  0  0
  -29.9840  -13.0210   18.0300 C   0  0  0  0  0  2  0  0  0  0  0  0
  -28.5310  -12.7970   18.4910 C   0  0  0  0  0  2  0  0  0  0  0  0
  -28.1160  -13.7790   19.6170 C   0  0  0  0  0  3  0  0  0  0  0  0
  -29.1840  -13.7670   20.7300 C   0  0  0  0  0  2  0  0  0  0  0  0
  -30.4660  -14.1830   20.1360 N   0  0  0  0  0  0  0  0  0  0  0  0
  -32.0500  -15.6010   19.4020 O   0  0  0  0  0  0  0  0  0  0  0  0
  -25.7530  -14.3080   20.4960 C   0  0  0  0  0  0  0  0  0  0  0  0
  -24.7110  -13.4990   20.8570 C   0  0  0  0  0  0  0  0  0  0  0  0
  -25.1740  -12.1590   20.6850 C   0  0  0  0  0  0  0  0  0  0  0  0
  -26.7890  -13.4590   20.1380 N   0  0  0  0  0  0  0  0  0  0  0  0
  -26.4430  -12.1560   20.2990 N   0  0  0  0  0  0  0  0  0  0  0  0
  -24.4670  -10.8800   20.8090 C   0  0  0  0  0  0  0  0  0  0  0  0
  -24.8760   -9.8980   21.7390 C   0  0  0  0  0  3  0  0  0  0  0  0
  -24.1700   -8.6820   21.8530 C   0  0  0  0  0  3  0  0  0  0  0  0
  -23.0400   -8.4380   21.0360 C   0  0  0  0  0  0  0  0  0  0  0  0
  -22.6510   -9.4090   20.0970 C   0  0  0  0  0  3  0  0  0  0  0  0
  -23.3580  -10.6160   19.9810 C   0  0  0  0  0  3  0  0  0  0  0  0
  -22.3090   -7.2740   21.0590 O   0  0  0  0  0  0  0  0  0  0  0  0
  -22.0070   -6.6350   22.2340 C   0  0  0  0  0  0  0  0  0  0  0  0
  -21.2980   -7.2800   23.2710 C   0  0  0  0  0  3  0  0  0  0  0  0
  -20.9480   -6.5650   24.4350 C   0  0  0  0  0  3  0  0  0  0  0  0
  -21.2960   -5.2080   24.5590 C   0  0  0  0  0  0  0  0  0  0  0  0
  -21.9960   -4.5620   23.5260 C   0  0  0  0  0  3  0  0  0  0  0  0
  -22.3480   -5.2740   22.3650 C   0  0  0  0  0  0  0  0  0  0  0  0
  -23.0040   -4.6400   21.3630 F   0  0  0  0  0  0  0  0  0  0  0  0
  -20.9540   -4.5200   25.6740 F   0  0  0  0  0  0  0  0  0  0  0  0
  -23.3300  -13.9360   21.2530 C   0  0  0  0  0  0  0  0  0  0  0  0
  -22.6770  -13.1810   22.1290 N   0  0  0  0  0  0  0  0  0  0  0  0
  -22.8410  -14.9800   20.8230 O   0  0  0  0  0  0  0  0  0  0  0  0
  -23.0870  -12.3340   22.4930 H   0  0  0  0  0  0  0  0  0  0  0  0
  -21.7550  -13.4520   22.4380 H   0  0  0  0  0  0  0  0  0  0  0  0
  -25.9030  -15.6900   20.4280 N   0  0  0  0  0  0  0  0  0  0  0  0
  -25.1450  -16.3320   20.6330 H   0  0  0  0  0  0  0  0  0  0  0  0
  -26.7480  -16.1580   20.1250 H   0  0  0  0  0  0  0  0  0  0  0  0
  3  2  1  6
  3  1  1  0
  3 55  1  0
  4  8  1  0
  5  9  2  0
  5  6  1  0
  6  4  2  0
  7  3  1  0
  7  8  2  0
  9  7  1  0
 10  6  1  0
 11 10  1  0
 11 12  1  0
 12 13  1  0
 13 15  1  0
 14 25  2  0
 15 20  1  0
 16 24  1  0
 16 26  1  0
 17 19  1  0
 17 23  1  0
 18 24  1  0
 19 18  1  0
 20 19  2  0
 21 22  1  0
 21 15  2  0
 22 17  2  0
 23 16  1  0
 24 14  1  0
 26 28  2  0
 27 26  1  0
 29 27  1  0
 30 39  2  0
 30 35  1  0
 31 27  1  0
 31 35  1  0
 32 31  1  0
 33 34  1  0
 33 32  1  0
 34 30  1  0
 35 36  2  0
 36 37  1  0
 38 37  2  0
 39 38  1  0
 40 14  1  0
 40 41  1  0
 40 50  1  0
 41 44  1  0
 42 41  1  0
 42 46  1  0
 43 42  2  0
 46 45  1  0
 46 48  1  0
 48 49  1  0
 48 47  1  0
 50 53  1  1
 50 51  1  0
 52 50  1  0
 54 56  2  0
 55 57  2  0
 55 54  1  0
 56 62  1  0
 57 58  1  0
 58 56  1  0
 58 65  1  0
 62 59  1  6
 62 60  1  0
 62 61  1  0
 65 64  1  1
 65 63  1  0
 66 65  1  0
 67 72  1  0
 68 69  1  0
 68 67  1  0
 70 69  1  0
 70 77  1  0
 70 71  1  0
 72 66  1  0
 72 71  1  0
 73 66  2  0
 74 75  2  0
 75 94  1  0
 76 79  1  0
 76 75  1  0
 77 78  1  0
 77 74  1  0
 78 76  2  0
 79 80  1  0
 80 81  2  0
 82 85  1  0
 82 81  1  0
 83 82  2  0
 84 83  1  0
 84 79  2  0
 85 86  1  0
 86 91  2  0
 86 87  1  0
 87 88  2  0
 88 89  1  0
 89 93  1  0
 90 89  2  0
 91 90  1  0
 92 91  1  0
 94 95  1  0
 95 98  1  0
 95 97  1  0
 96 94  2  0
 99 74  1  0
 99100  1  0
101 99  1  0
M  ISO  4  12 101  13 101  65 100  66 100
M  END
>  <TORSDO>  (84) 
F 23

>  <SCORE>  (84) 
-7.942

>  <name>  (84) 
89

>  <ligand_id>  (84) 
89

>  <original_smiles>  (84) 
[H]c1nc(C(c2nn(C(C(=O)N3C([H])([H])C([H])([H])C([H])([H])C([H])(n4nc(-c5c([H])c([H])c(Oc6c([H])c([H])c(F)c([H])c6F)c([H])c5[H])c(C(=O)N([H])[H])c4N([H])[H])C3([H])[H])(C([H])([H])[H])C([H])([H])[H])c(C(C([H])([H])[H])(C([H])([H])[H])C([H])([H])[H])c2[H])(C([H])([H])[H])C([H])([H])[H])nc([H])c1C([H])([H])C([H])([H])C([H])([H])Oc1c([H])c([H])c2c(c1[H])C([H])([H])N(C(=O)C([H])(N([H])C(=O)C([H])(N([H])C([H])([H])[H])C([H])([H])[H])C(C([H])([H])[H])(C([H])([H])[H])C([H])([H])[H])C([H])(C(=O)N([H])C1([H])c3c([H])c([H])c([H])c([H])c3C([H])([H])C([H])([H])C1([H])[H])C2([H])[H]

>  <smiles>  (84) 
[H]c1nc(C(c2nn(C(C(=O)N3C([H])([H])C([H])([H])C([H])([H])C([H])(n4nc(-c5c([H])c([H])c(Oc6c([H])c([H])c(F)c([H])c6F)c([H])c5[H])c(C(=O)N([H])[H])c4N([H])[H])C3([H])[H])(C([H])([H])[H])C([H])([H])[H])c(C(C([H])([H])[H])(C([H])([H])[H])C([H])([H])[H])c2[H])(C([H])([H])[H])C([H])([H])[H])nc([H])c1C([H])([H])C([H])([H])C([H])([H])Oc1c([H])c([H])c2c(c1[H])C([H])([H])N(C(=O)C([H])(N([H])C(=O)C([H])(N([H])C([H])([H])[H])C([H])([H])[H])C(C([H])([H])[H])(C([H])([H])[H])C([H])([H])[H])C([H])(C(=O)N([H])C1([H])c3c([H])c([H])c([H])c([H])c3C([H])([H])C([H])([H])C1([H])[H])C2([H])[H]

$$$$
90:0:0
     RDKit          3D

 99107  0  0  1  0  0  0  0  0999 V2000
  -30.2640  -19.0900   19.5250 C   0  0  0  0  0  2  0  0  0  0  0  0
  -30.1680  -20.3350   20.1310 C   0  0  0  0  0  3  0  0  0  0  0  0
  -30.8210  -18.7300   21.6190 C   0  0  0  0  0  3  0  0  0  0  0  0
  -30.4610  -18.0650   20.4740 N   0  0  0  0  0  0  0  0  0  0  0  0
  -30.6050  -20.0550   21.3970 N   0  0  0  0  0  0  0  0  0  0  0  0
  -30.7100  -20.7580   22.1200 H   0  0  0  0  0  0  0  0  0  0  0  0
  -31.6510  -16.8240   23.1400 C   0  0  0  0  0  1  0  0  0  0  0  0
  -29.9640  -18.4890   23.9770 C   0  0  0  0  0  1  0  0  0  0  0  0
  -32.3270  -19.1570   23.5750 C   0  0  0  0  0  1  0  0  0  0  0  0
  -31.1720  -18.2800   23.0360 C   0  0  2  0  0  0  0  0  0  0  0  0
  -30.7160  -22.1930   18.5500 C   0  0  0  0  0  1  0  0  0  0  0  0
  -28.3490  -21.4190   18.8050 C   0  0  0  0  0  1  0  0  0  0  0  0
  -29.6590  -21.7170   19.5580 C   0  0  1  0  0  0  0  0  0  0  0  0
  -29.3910  -22.9280   20.5780 C   0  0  0  0  0  2  0  0  0  0  0  0
  -28.3360  -24.1400   20.3440 C   0  0  0  0  0  2  0  0  0  0  0  0
  -28.5280  -25.3750   19.3480 C   0  0  0  0  0  2  0  0  0  0  0  0
  -28.3740  -26.7760   19.8230 O   0  0  0  0  0  0  0  0  0  0  0  0
  -24.5990  -31.9270   23.1310 C   0  0  0  0  0  0  0  0  0  0  0  0
  -27.1870  -27.5300   19.8170 C   0  0  0  0  0  0  0  0  0  0  0  0
  -23.3540  -30.5600   21.4910 C   0  0  0  0  0  3  0  0  0  0  0  0
  -24.7770  -29.0770   19.9550 C   0  0  0  0  0  0  0  0  0  0  0  0
  -25.8750  -30.9360   21.2140 C   0  0  0  0  0  2  0  0  0  0  0  0
  -25.9520  -29.5790   20.5210 C   0  0  0  0  0  0  0  0  0  0  0  0
  -27.1520  -28.8150   20.4430 C   0  0  0  0  0  3  0  0  0  0  0  0
  -25.9860  -27.0710   19.2330 C   0  0  0  0  0  3  0  0  0  0  0  0
  -24.7940  -27.8310   19.3010 C   0  0  0  0  0  3  0  0  0  0  0  0
  -23.5230  -29.9240   20.0840 C   0  0  0  0  0  2  0  0  0  0  0  0
  -24.6300  -31.1580   22.0020 N   0  0  0  0  0  0  0  0  0  0  0  0
  -23.5350  -32.1670   23.7190 O   0  0  0  0  0  0  0  0  0  0  0  0
  -22.7460  -29.5060   22.4460 C   0  0  0  0  0  0  0  0  0  0  0  0
  -21.4160  -29.3180   22.3740 N   0  0  0  0  0  0  0  0  0  0  0  0
  -23.4680  -28.8590   23.2080 O   0  0  0  0  0  0  0  0  0  0  0  0
  -20.8900  -29.8970   21.7340 H   0  0  0  0  0  0  0  0  0  0  0  0
  -18.0790  -28.0670   22.9850 C   0  0  0  0  0  0  0  0  0  0  0  0
  -20.6450  -28.3430   23.1450 C   0  0  0  0  0  3  0  0  0  0  0  0
  -20.7310  -26.9360   22.5080 C   0  0  0  0  0  2  0  0  0  0  0  0
  -19.5860  -26.6430   21.5340 C   0  0  0  0  0  2  0  0  0  0  0  0
  -18.2360  -26.7470   22.2480 C   0  0  0  0  0  2  0  0  0  0  0  0
  -19.2100  -28.8230   23.3920 C   0  0  0  0  0  0  0  0  0  0  0  0
  -19.0080  -30.0590   24.0440 C   0  0  0  0  0  3  0  0  0  0  0  0
  -17.7080  -30.5400   24.2920 C   0  0  0  0  0  3  0  0  0  0  0  0
  -16.5930  -29.7800   23.9000 C   0  0  0  0  0  3  0  0  0  0  0  0
  -16.7790  -28.5460   23.2520 C   0  0  0  0  0  3  0  0  0  0  0  0
  -25.8970  -32.5610   23.7240 C   0  0  0  0  0  3  0  0  0  0  0  0
  -26.4820  -31.7490   24.9450 C   0  0  1  0  0  0  0  0  0  0  0  0
  -25.4390  -31.4510   26.0490 C   0  0  0  0  0  1  0  0  0  0  0  0
  -27.0680  -30.3990   24.4760 C   0  0  0  0  0  1  0  0  0  0  0  0
  -27.6490  -32.5360   25.5880 C   0  0  0  0  0  1  0  0  0  0  0  0
  -25.5760  -33.9400   24.1240 N   0  0  0  0  0  0  0  0  0  0  0  0
  -25.8770  -35.0290   23.4060 C   0  0  0  0  0  0  0  0  0  0  0  0
  -26.5190  -34.9810   22.3540 O   0  0  0  0  0  0  0  0  0  0  0  0
  -24.9950  -34.0490   24.9420 H   0  0  0  0  0  0  0  0  0  0  0  0
  -24.1230  -36.8180   23.1770 C   0  0  0  0  0  1  0  0  0  0  0  0
  -25.3860  -36.3900   23.9390 C   0  0  0  0  0  3  0  0  0  0  0  0
  -27.5310  -37.2580   24.7600 C   0  0  0  0  0  1  0  0  0  0  0  0
  -26.4050  -37.4580   23.8520 N   0  0  0  0  0  0  0  0  0  0  0  0
  -25.9940  -38.3660   24.0520 H   0  0  0  0  0  0  0  0  0  0  0  0
  -28.5730  -16.6960   21.0420 C   0  0  0  0  0  1  0  0  0  0  0  0
  -29.9340  -16.5790   20.3160 C   0  0  2  0  0  0  0  0  0  0  0  0
  -30.7880  -15.1950   20.6800 C   0  0  0  0  0  0  0  0  0  0  0  0
  -30.8340  -12.7850   19.9320 C   0  0  0  0  0  2  0  0  0  0  0  0
  -29.9890  -12.5560   18.6500 C   0  0  0  0  0  2  0  0  0  0  0  0
  -28.4750  -12.4130   18.9490 C   0  0  0  0  0  2  0  0  0  0  0  0
  -27.9580  -13.3800   20.0420 C   0  0  0  0  0  3  0  0  0  0  0  0
  -28.9430  -13.4450   21.2300 C   0  0  0  0  0  2  0  0  0  0  0  0
  -30.2460  -13.9060   20.7150 N   0  0  0  0  0  0  0  0  0  0  0  0
  -32.0220  -15.2650   20.6370 O   0  0  0  0  0  0  0  0  0  0  0  0
  -25.5090  -13.9720   20.5900 C   0  0  0  0  0  0  0  0  0  0  0  0
  -24.4360  -13.1920   20.9020 C   0  0  0  0  0  0  0  0  0  0  0  0
  -24.9270  -11.8530   20.9390 C   0  0  0  0  0  0  0  0  0  0  0  0
  -26.5890  -13.1070   20.4550 N   0  0  0  0  0  0  0  0  0  0  0  0
  -26.2370  -11.8300   20.7330 N   0  0  0  0  0  0  0  0  0  0  0  0
  -24.2120  -10.5880   21.0970 C   0  0  0  0  0  0  0  0  0  0  0  0
  -24.6040   -9.6400   22.0670 C   0  0  0  0  0  3  0  0  0  0  0  0
  -23.8890   -8.4330   22.2120 C   0  0  0  0  0  3  0  0  0  0  0  0
  -22.7700   -8.1690   21.3870 C   0  0  0  0  0  0  0  0  0  0  0  0
  -22.4020   -9.1060   20.4060 C   0  0  0  0  0  3  0  0  0  0  0  0
  -23.1170  -10.3050   20.2580 C   0  0  0  0  0  3  0  0  0  0  0  0
  -22.0280   -7.0170   21.4440 O   0  0  0  0  0  0  0  0  0  0  0  0
  -21.9220   -6.2880   22.6010 C   0  0  0  0  0  0  0  0  0  0  0  0
  -21.4020   -6.8490   23.7880 C   0  0  0  0  0  3  0  0  0  0  0  0
  -21.2440   -6.0450   24.9340 C   0  0  0  0  0  3  0  0  0  0  0  0
  -21.5930   -4.6820   24.8940 C   0  0  0  0  0  0  0  0  0  0  0  0
  -22.1070   -4.1220   23.7110 C   0  0  0  0  0  3  0  0  0  0  0  0
  -22.2690   -4.9230   22.5670 C   0  0  0  0  0  0  0  0  0  0  0  0
  -22.7440   -4.3740   21.4230 F   0  0  0  0  0  0  0  0  0  0  0  0
  -21.4340   -3.9080   25.9930 F   0  0  0  0  0  0  0  0  0  0  0  0
  -23.0150  -13.6530   21.0530 C   0  0  0  0  0  0  0  0  0  0  0  0
  -22.2350  -12.9660   21.8780 N   0  0  0  0  0  0  0  0  0  0  0  0
  -22.6030  -14.6600   20.4770 O   0  0  0  0  0  0  0  0  0  0  0  0
  -22.5810  -12.1520   22.3640 H   0  0  0  0  0  0  0  0  0  0  0  0
  -21.2780  -13.2540   22.0250 H   0  0  0  0  0  0  0  0  0  0  0  0
  -25.6160  -15.3400   20.3840 N   0  0  0  0  0  0  0  0  0  0  0  0
  -24.7990  -15.9410   20.4100 H   0  0  0  0  0  0  0  0  0  0  0  0
  -26.4470  -15.8190   20.0720 H   0  0  0  0  0  0  0  0  0  0  0  0
  -29.5890  -16.4070   18.7810 C   0  0  1  0  0  0  0  0  0  0  0  0
  -29.0260  -15.2460   18.4970 F   0  0  0  0  0  0  0  0  0  0  0  0
  -28.7000  -17.3060   18.3440 F   0  0  0  0  0  0  0  0  0  0  0  0
  -30.6880  -16.4860   18.0270 F   0  0  0  0  0  0  0  0  0  0  0  0
  1  2  1  0
  1  4  1  0
  2 13  1  0
  2  5  1  0
  3 10  1  0
  4  3  1  0
  5  3  1  0
  5  6  1  0
 10  7  1  6
 10  9  1  0
 10  8  1  0
 13 11  1  6
 12 13  1  0
 13 14  1  0
 15 14  1  0
 16 17  1  0
 16 15  1  0
 18 29  2  0
 19 17  1  0
 19 24  1  0
 20 28  1  0
 20 30  1  0
 21 27  1  0
 21 23  1  0
 22 28  1  0
 23 22  1  0
 24 23  2  0
 25 26  1  0
 25 19  2  0
 26 21  2  0
 27 20  1  0
 28 18  1  0
 30 32  2  0
 31 30  1  0
 33 31  1  0
 34 43  2  0
 34 39  1  0
 35 31  1  0
 35 39  1  0
 36 35  1  0
 37 38  1  0
 37 36  1  0
 38 34  1  0
 39 40  2  0
 40 41  1  0
 42 41  2  0
 43 42  1  0
 44 18  1  0
 44 49  1  0
 44 45  1  0
 45 48  1  1
 45 46  1  0
 47 45  1  0
 49 52  1  0
 50 54  1  0
 50 49  1  0
 51 50  2  0
 54 53  1  0
 56 54  1  0
 56 57  1  0
 56 55  1  0
 59  4  1  0
 59 60  1  0
 59 58  1  1
 60 66  1  0
 61 66  1  0
 62 63  1  0
 62 61  1  0
 64 63  1  0
 64 71  1  0
 64 65  1  0
 66 65  1  0
 67 60  2  0
 68 69  2  0
 69 70  1  0
 69 88  1  0
 70 73  1  0
 71 68  1  0
 71 72  1  0
 72 70  2  0
 73 74  1  0
 74 75  2  0
 76 79  1  0
 76 75  1  0
 77 76  2  0
 78 77  1  0
 78 73  2  0
 79 80  1  0
 80 81  1  0
 81 82  2  0
 83 82  1  0
 83 87  1  0
 84 83  2  0
 85 80  2  0
 85 84  1  0
 86 85  1  0
 88 89  1  0
 89 92  1  0
 89 91  1  0
 90 88  2  0
 93 94  1  0
 93 68  1  0
 95 93  1  0
 96 59  1  0
 96 97  1  1
 98 96  1  0
 99 96  1  0
M  ISO  4  16 101  17 101  59 100  60 100
M  END
>  <TORSDO>  (85) 
F 23

>  <SCORE>  (85) 
-8.174

>  <name>  (85) 
90

>  <ligand_id>  (85) 
90

>  <original_smiles>  (85) 
[H]c1c([H])c([H])c2c(c1[H])C([H])([H])C([H])([H])C([H])([H])C2([H])N([H])C(=O)C1([H])N(C(=O)C([H])(N([H])C(=O)C([H])(N([H])C([H])([H])[H])C([H])([H])[H])C(C([H])([H])[H])(C([H])([H])[H])C([H])([H])[H])C([H])([H])c2c([H])c(OC([H])([H])C([H])([H])C([H])([H])C(c3c([H])n(C(C(=O)N4C([H])([H])C([H])([H])C([H])([H])C([H])(n5nc(-c6c([H])c([H])c(Oc7c([H])c([H])c(F)c([H])c7F)c([H])c6[H])c(C(=O)N([H])[H])c5N([H])[H])C4([H])[H])(C([H])([H])[H])C(F)(F)F)c(C(C([H])([H])[H])(C([H])([H])[H])C([H])([H])[H])[n+]3[H])(C([H])([H])[H])C([H])([H])[H])c([H])c([H])c2C1([H])[H]

>  <smiles>  (85) 
[H]c1c([H])c([H])c2c(c1[H])C([H])([H])C([H])([H])C([H])([H])C2([H])N([H])C(=O)C1([H])N(C(=O)C([H])(N([H])C(=O)C([H])(N([H])C([H])([H])[H])C([H])([H])[H])C(C([H])([H])[H])(C([H])([H])[H])C([H])([H])[H])C([H])([H])c2c([H])c(OC([H])([H])C([H])([H])C([H])([H])C(c3c([H])n(C(C(=O)N4C([H])([H])C([H])([H])C([H])([H])C([H])(n5nc(-c6c([H])c([H])c(Oc7c([H])c([H])c(F)c([H])c7F)c([H])c6[H])c(C(=O)N([H])[H])c5N([H])[H])C4([H])[H])(C([H])([H])[H])C(F)(F)F)c(C(C([H])([H])[H])(C([H])([H])[H])C([H])([H])[H])[n+]3[H])(C([H])([H])[H])C([H])([H])[H])c([H])c([H])c2C1([H])[H]

$$$$
