0:0:0
     RDKit          3D

101110  0  0  1  0  0  0  0  0999 V2000
  -30.6190  -21.8120   20.8820 C   0  0  0  0  0  0  0  0  0  0  0  0
  -29.7710  -23.6490   21.5410 C   0  0  0  0  0  3  0  0  0  0  0  0
  -29.8740  -22.3500   21.8860 N   0  0  0  0  0  0  0  0  0  0  0  0
  -30.8460  -22.6810   19.8980 N   0  0  0  0  0  2  0  0  0  0  0  0
  -30.2510  -23.8670   20.2680 N   0  0  0  0  0  0  0  0  0  0  0  0
  -29.3980  -24.0730   24.0160 C   0  0  0  0  0  1  0  0  0  0  0  0
  -27.5960  -24.6720   22.4270 C   0  0  0  0  0  1  0  0  0  0  0  0
  -29.7070  -26.0260   22.6190 C   0  0  0  0  0  1  0  0  0  0  0  0
  -29.1250  -24.6010   22.5760 C   0  0  2  0  0  0  0  0  0  0  0  0
  -32.4320  -20.3590   19.8490 C   0  0  0  0  0  1  0  0  0  0  0  0
  -32.2170  -20.5700   22.3060 C   0  0  0  0  0  1  0  0  0  0  0  0
  -31.4000  -20.4800   20.9950 C   0  0  1  0  0  0  0  0  0  0  0  0
  -29.2930  -17.6600   20.3060 C   0  0  0  0  0  2  0  0  0  0  0  0
  -30.5730  -19.1780   20.9690 C   0  0  0  0  0  0  0  0  0  0  0  0
  -29.4700  -18.9780   20.1740 N   0  0  0  0  0  0  0  0  0  0  0  0
  -31.0510  -18.0430   21.5160 N   0  0  0  0  0  2  0  0  0  0  0  0
  -30.2000  -17.0670   21.0830 N   0  0  0  0  0  0  0  0  0  0  0  0
  -30.3030  -15.6710   21.5540 C   0  0  0  0  0  2  0  0  0  0  0  0
  -30.7210  -14.6280   20.4760 C   0  0  0  0  0  0  0  0  0  0  0  0
  -30.3820  -12.5370   19.1780 C   0  0  0  0  0  2  0  0  0  0  0  0
  -29.4090  -12.7710   18.0060 C   0  0  0  0  0  2  0  0  0  0  0  0
  -27.9460  -12.5960   18.4620 C   0  0  0  0  0  2  0  0  0  0  0  0
  -27.6370  -13.3750   19.7690 C   0  0  0  0  0  3  0  0  0  0  0  0
  -28.7190  -13.1060   20.8390 C   0  0  0  0  0  2  0  0  0  0  0  0
  -30.0250  -13.4690   20.2650 N   0  0  0  0  0  0  0  0  0  0  0  0
  -31.7390  -14.8800   19.8210 O   0  0  0  0  0  0  0  0  0  0  0  0
  -25.2410  -13.9500   20.5130 C   0  0  0  0  0  0  0  0  0  0  0  0
  -24.1860  -13.1620   20.8900 C   0  0  0  0  0  0  0  0  0  0  0  0
  -24.6580  -11.8150   20.8370 C   0  0  0  0  0  0  0  0  0  0  0  0
  -26.2930  -13.0810   20.2610 N   0  0  0  0  0  0  0  0  0  0  0  0
  -25.9450  -11.7910   20.5090 N   0  0  0  0  0  0  0  0  0  0  0  0
  -23.9470  -10.5440   21.0270 C   0  0  0  0  0  0  0  0  0  0  0  0
  -24.3950   -9.5840   21.9600 C   0  0  0  0  0  3  0  0  0  0  0  0
  -23.6840   -8.3780   22.1430 C   0  0  0  0  0  3  0  0  0  0  0  0
  -22.5140   -8.1230   21.3900 C   0  0  0  0  0  0  0  0  0  0  0  0
  -22.0850   -9.0720   20.4450 C   0  0  0  0  0  3  0  0  0  0  0  0
  -22.7980  -10.2680   20.2610 C   0  0  0  0  0  3  0  0  0  0  0  0
  -21.7780   -6.9660   21.4760 O   0  0  0  0  0  0  0  0  0  0  0  0
  -21.7280   -6.2290   22.6320 C   0  0  0  0  0  0  0  0  0  0  0  0
  -21.2640   -6.7780   23.8470 C   0  0  0  0  0  3  0  0  0  0  0  0
  -21.1670   -5.9680   24.9950 C   0  0  0  0  0  3  0  0  0  0  0  0
  -21.5200   -4.6070   24.9310 C   0  0  0  0  0  0  0  0  0  0  0  0
  -21.9740   -4.0560   23.7200 C   0  0  0  0  0  3  0  0  0  0  0  0
  -22.0760   -4.8650   22.5730 C   0  0  0  0  0  0  0  0  0  0  0  0
  -22.4940   -4.3230   21.4050 F   0  0  0  0  0  0  0  0  0  0  0  0
  -21.4170   -3.8260   26.0320 F   0  0  0  0  0  0  0  0  0  0  0  0
  -22.7890  -13.6230   21.1910 C   0  0  0  0  0  0  0  0  0  0  0  0
  -22.0840  -12.9060   22.0600 N   0  0  0  0  0  0  0  0  0  0  0  0
  -22.3320  -14.6500   20.6930 O   0  0  0  0  0  0  0  0  0  0  0  0
  -22.4730  -12.0760   22.4830 H   0  0  0  0  0  0  0  0  0  0  0  0
  -21.1470  -13.1910   22.3030 H   0  0  0  0  0  0  0  0  0  0  0  0
  -25.3890  -15.3220   20.3440 N   0  0  0  0  0  0  0  0  0  0  0  0
  -24.6160  -15.9670   20.4650 H   0  0  0  0  0  0  0  0  0  0  0  0
  -26.2210  -15.7690   19.9850 H   0  0  0  0  0  0  0  0  0  0  0  0
  -31.1460  -24.5050   18.0000 C   0  0  0  0  0  1  0  0  0  0  0  0
  -31.3370  -26.1110   19.7780 C   0  0  0  0  0  1  0  0  0  0  0  0
  -30.3660  -25.0180   19.2670 C   0  0  2  0  0  0  0  0  0  0  0  0
  -29.0850  -26.4840   17.4700 C   0  0  0  0  0  1  0  0  0  0  0  0
  -28.0220  -24.4310   18.4300 C   0  0  0  0  0  1  0  0  0  0  0  0
  -28.9630  -25.6230   18.7580 C   0  0  1  0  0  0  0  0  0  0  0  0
  -28.5110  -26.5950   19.7450 O   0  0  0  0  0  0  0  0  0  0  0  0
  -24.6320  -31.6250   23.0080 C   0  0  0  0  0  0  0  0  0  0  0  0
  -27.3220  -27.3240   19.7100 C   0  0  0  0  0  0  0  0  0  0  0  0
  -23.4360  -30.2670   21.3250 C   0  0  0  0  0  3  0  0  0  0  0  0
  -24.9010  -28.8230   19.8190 C   0  0  0  0  0  0  0  0  0  0  0  0
  -25.9580  -30.6700   21.1210 C   0  0  0  0  0  2  0  0  0  0  0  0
  -26.0590  -29.3260   20.4200 C   0  0  0  0  0  0  0  0  0  0  0  0
  -27.2670  -28.5810   20.3700 C   0  0  0  0  0  3  0  0  0  0  0  0
  -26.1270  -26.8450   19.1260 C   0  0  0  0  0  3  0  0  0  0  0  0
  -24.9330  -27.5820   19.1720 C   0  0  0  0  0  3  0  0  0  0  0  0
  -23.6430  -29.6540   19.9160 C   0  0  0  0  0  2  0  0  0  0  0  0
  -24.6940  -30.8660   21.8760 N   0  0  0  0  0  0  0  0  0  0  0  0
  -23.5500  -31.8570   23.5640 O   0  0  0  0  0  0  0  0  0  0  0  0
  -22.8130  -29.1950   22.2490 C   0  0  0  0  0  0  0  0  0  0  0  0
  -21.4910  -28.9940   22.1250 N   0  0  0  0  0  0  0  0  0  0  0  0
  -23.5140  -28.5500   23.0320 O   0  0  0  0  0  0  0  0  0  0  0  0
  -20.9840  -29.5680   21.4640 H   0  0  0  0  0  0  0  0  0  0  0  0
  -18.1410  -27.7250   22.6100 C   0  0  0  0  0  0  0  0  0  0  0  0
  -20.6970  -28.0120   22.8630 C   0  0  0  0  0  3  0  0  0  0  0  0
  -20.8160  -26.6090   22.2260 C   0  0  0  0  0  2  0  0  0  0  0  0
  -19.7060  -26.3110   21.2120 C   0  0  0  0  0  2  0  0  0  0  0  0
  -18.3300  -26.4080   21.8770 C   0  0  0  0  0  2  0  0  0  0  0  0
  -19.2530  -28.4850   23.0590 C   0  0  0  0  0  0  0  0  0  0  0  0
  -19.0220  -29.7200   23.7030 C   0  0  0  0  0  3  0  0  0  0  0  0
  -17.7120  -30.1950   23.9040 C   0  0  0  0  0  3  0  0  0  0  0  0
  -16.6150  -29.4300   23.4720 C   0  0  0  0  0  3  0  0  0  0  0  0
  -16.8300  -28.1980   22.8300 C   0  0  0  0  0  3  0  0  0  0  0  0
  -25.9100  -32.2550   23.6400 C   0  0  0  0  0  3  0  0  0  0  0  0
  -25.5730  -33.6280   24.0400 N   0  0  0  0  0  0  0  0  0  0  0  0
  -25.8750  -34.7220   23.3290 C   0  0  0  0  0  0  0  0  0  0  0  0
  -26.5370  -34.6840   22.2900 O   0  0  0  0  0  0  0  0  0  0  0  0
  -24.9770  -33.7320   24.8480 H   0  0  0  0  0  0  0  0  0  0  0  0
  -24.1050  -36.4920   23.0700 C   0  0  0  0  0  1  0  0  0  0  0  0
  -25.3590  -36.0760   23.8550 C   0  0  0  0  0  3  0  0  0  0  0  0
  -27.4750  -36.9660   24.7260 C   0  0  0  0  0  1  0  0  0  0  0  0
  -26.3690  -37.1550   23.7910 N   0  0  0  0  0  0  0  0  0  0  0  0
  -25.9430  -38.0580   23.9840 H   0  0  0  0  0  0  0  0  0  0  0  0
  -26.4630  -31.4340   24.8690 C   0  0  1  0  0  0  0  0  0  0  0  0
  -25.3900  -31.1200   25.9390 C   0  0  0  0  0  1  0  0  0  0  0  0
  -27.0680  -30.0900   24.4020 C   0  0  0  0  0  1  0  0  0  0  0  0
  -27.6070  -32.2210   25.5510 C   0  0  0  0  0  1  0  0  0  0  0  0
  1 12  1  0
  1  3  2  0
  2  3  1  0
  2  9  1  0
  4  5  1  0
  4  1  1  0
  5  2  1  0
  9  7  1  6
  9  8  1  0
  9  6  1  0
 12 10  1  6
 12 11  1  0
 13 17  1  0
 14 12  1  0
 14 16  1  0
 15 13  1  0
 15 14  2  0
 17 16  1  0
 17 18  1  0
 19 18  1  0
 20 25  1  0
 21 22  1  0
 21 20  1  0
 23 22  1  0
 23 30  1  0
 23 24  1  0
 25 19  1  0
 25 24  1  0
 26 19  2  0
 27 28  2  0
 28 47  1  0
 29 28  1  0
 29 32  1  0
 30 31  1  0
 30 27  1  0
 31 29  2  0
 32 33  1  0
 33 34  2  0
 35 38  1  0
 35 34  1  0
 36 35  2  0
 37 36  1  0
 37 32  2  0
 38 39  1  0
 39 40  1  0
 40 41  2  0
 42 41  1  0
 42 46  1  0
 43 42  2  0
 44 39  2  0
 44 43  1  0
 45 44  1  0
 47 48  1  0
 48 51  1  0
 48 50  1  0
 49 47  2  0
 52 53  1  0
 52 27  1  0
 54 52  1  0
 57 55  1  6
 57 56  1  0
 57  5  1  0
 60 58  1  6
 59 60  1  0
 60 57  1  0
 60 61  1  0
 62 73  2  0
 63 61  1  0
 63 68  1  0
 64 72  1  0
 64 74  1  0
 65 71  1  0
 65 67  1  0
 66 72  1  0
 67 66  1  0
 68 67  2  0
 69 70  1  0
 69 63  2  0
 70 65  2  0
 71 64  1  0
 72 62  1  0
 74 76  2  0
 75 74  1  0
 77 75  1  0
 78 87  2  0
 78 83  1  0
 79 75  1  0
 79 83  1  0
 80 79  1  0
 81 82  1  0
 81 80  1  0
 82 78  1  0
 83 84  2  0
 84 85  1  0
 86 85  2  0
 87 86  1  0
 88 62  1  0
 88 89  1  0
 88 98  1  0
 89 92  1  0
 90 94  1  0
 90 89  1  0
 91 90  2  0
 94 93  1  0
 96 94  1  0
 96 97  1  0
 96 95  1  0
 98101  1  1
 98 99  1  0
100 98  1  0
M  ISO  4  18 100  19 100  60 101  61 101
M  END
>  <TORSDO>  (1) 
F 22

>  <SCORE>  (1) 
-12.998

>  <name>  (1) 
0

>  <ligand_id>  (1) 
0

>  <original_smiles>  (1) 
[H]c1c([H])c([H])c2c(c1[H])C([H])([H])C([H])([H])C([H])([H])C2([H])N([H])C(=O)C1([H])N(C(=O)C([H])(N([H])C(=O)C([H])(N([H])C([H])([H])[H])C([H])([H])[H])C(C([H])([H])[H])(C([H])([H])[H])C([H])([H])[H])C([H])([H])c2c([H])c(OC(C([H])([H])[H])(C([H])([H])[H])C(n3nc(C(c4nc([H])n(C([H])([H])C(=O)N5C([H])([H])C([H])([H])C([H])([H])C([H])(n6nc(-c7c([H])c([H])c(Oc8c([H])c([H])c(F)c([H])c8F)c([H])c7[H])c(C(=O)N([H])[H])c6N([H])[H])C5([H])[H])n4)(C([H])([H])[H])C([H])([H])[H])nc3C(C([H])([H])[H])(C([H])([H])[H])C([H])([H])[H])(C([H])([H])[H])C([H])([H])[H])c([H])c([H])c2C1([H])[H]

>  <smiles>  (1) 
[H]c1c([H])c([H])c2c(c1[H])C([H])([H])C([H])([H])C([H])([H])C2([H])N([H])C(=O)C1([H])N(C(=O)C([H])(N([H])C(=O)C([H])(N([H])C([H])([H])[H])C([H])([H])[H])C(C([H])([H])[H])(C([H])([H])[H])C([H])([H])[H])C([H])([H])c2c([H])c(OC(C([H])([H])[H])(C([H])([H])[H])C(n3nc(C(c4nc([H])n(C([H])([H])C(=O)N5C([H])([H])C([H])([H])C([H])([H])C([H])(n6nc(-c7c([H])c([H])c(Oc8c([H])c([H])c(F)c([H])c8F)c([H])c7[H])c(C(=O)N([H])[H])c6N([H])[H])C5([H])[H])n4)(C([H])([H])[H])C([H])([H])[H])nc3C(C([H])([H])[H])(C([H])([H])[H])C([H])([H])[H])(C([H])([H])[H])C([H])([H])[H])c([H])c([H])c2C1([H])[H]

$$$$
1:0:0
     RDKit          3D

 95103  0  0  1  0  0  0  0  0999 V2000
  -28.4530  -20.2670   20.1420 C   0  0  0  0  0  2  0  0  0  0  0  0
  -30.4340  -20.9110   21.2160 C   0  0  0  0  0  3  0  0  0  0  0  0
  -29.3450  -21.3360   20.4180 C   0  0  0  0  0  3  0  0  0  0  0  0
  -29.9340  -18.6620   20.9180 C   0  0  0  0  0  0  0  0  0  0  0  0
  -28.7470  -18.9590   20.3890 N   0  0  0  0  0  0  0  0  0  0  0  0
  -30.7250  -19.6050   21.4370 N   0  0  0  0  0  0  0  0  0  0  0  0
  -30.7710  -23.1700   19.4000 C   0  0  0  0  0  1  0  0  0  0  0  0
  -28.6460  -22.5320   18.2980 C   0  0  0  0  0  1  0  0  0  0  0  0
  -29.3040  -22.7490   19.6830 C   0  0  1  0  0  0  0  0  0  0  0  0
  -28.5770  -23.9960   20.3940 C   0  0  0  0  0  2  0  0  0  0  0  0
  -28.4900  -25.3650   19.5630 C   0  0  0  0  0  2  0  0  0  0  0  0
  -28.3550  -26.6640   20.2430 O   0  0  0  0  0  0  0  0  0  0  0  0
  -24.5480  -31.9510   23.2440 C   0  0  0  0  0  0  0  0  0  0  0  0
  -27.2000  -27.4500   20.1680 C   0  0  0  0  0  0  0  0  0  0  0  0
  -23.3580  -30.5550   21.5940 C   0  0  0  0  0  3  0  0  0  0  0  0
  -24.8210  -29.0330   20.1570 C   0  0  0  0  0  0  0  0  0  0  0  0
  -25.8920  -30.9040   21.4130 C   0  0  0  0  0  2  0  0  0  0  0  0
  -25.9800  -29.5300   20.7620 C   0  0  0  0  0  0  0  0  0  0  0  0
  -27.1690  -28.7480   20.7620 C   0  0  0  0  0  3  0  0  0  0  0  0
  -26.0070  -26.9880   19.5650 C   0  0  0  0  0  3  0  0  0  0  0  0
  -24.8350  -27.7650   19.5560 C   0  0  0  0  0  3  0  0  0  0  0  0
  -23.5770  -29.8960   20.2060 C   0  0  0  0  0  2  0  0  0  0  0  0
  -24.6190  -31.1530   22.1410 N   0  0  0  0  0  0  0  0  0  0  0  0
  -23.4620  -32.2190   23.7790 O   0  0  0  0  0  0  0  0  0  0  0  0
  -22.7050  -29.5250   22.5460 C   0  0  0  0  0  0  0  0  0  0  0  0
  -21.3810  -29.3400   22.4200 N   0  0  0  0  0  0  0  0  0  0  0  0
  -23.3900  -28.8940   23.3570 O   0  0  0  0  0  0  0  0  0  0  0  0
  -20.8860  -29.9050   21.7430 H   0  0  0  0  0  0  0  0  0  0  0  0
  -18.0070  -28.1430   22.9310 C   0  0  0  0  0  0  0  0  0  0  0  0
  -20.5690  -28.3960   23.1860 C   0  0  0  0  0  3  0  0  0  0  0  0
  -20.6630  -26.9710   22.5930 C   0  0  0  0  0  2  0  0  0  0  0  0
  -19.5530  -26.6620   21.5810 C   0  0  0  0  0  2  0  0  0  0  0  0
  -18.1770  -26.8010   22.2380 C   0  0  0  0  0  2  0  0  0  0  0  0
  -19.1310  -28.8980   23.3620 C   0  0  0  0  0  0  0  0  0  0  0  0
  -18.9180  -30.1530   23.9700 C   0  0  0  0  0  3  0  0  0  0  0  0
  -17.6170  -30.6550   24.1490 C   0  0  0  0  0  3  0  0  0  0  0  0
  -16.5070  -29.8990   23.7320 C   0  0  0  0  0  3  0  0  0  0  0  0
  -16.7050  -28.6440   23.1300 C   0  0  0  0  0  3  0  0  0  0  0  0
  -25.8260  -32.5880   23.8740 C   0  0  0  0  0  3  0  0  0  0  0  0
  -25.5130  -33.9890   24.1900 N   0  0  0  0  0  0  0  0  0  0  0  0
  -25.8690  -35.0380   23.4340 C   0  0  0  0  0  0  0  0  0  0  0  0
  -26.5660  -34.9250   22.4220 O   0  0  0  0  0  0  0  0  0  0  0  0
  -24.8920  -34.1520   24.9680 H   0  0  0  0  0  0  0  0  0  0  0  0
  -24.1750  -36.8480   23.0090 C   0  0  0  0  0  1  0  0  0  0  0  0
  -25.3760  -36.4290   23.8720 C   0  0  0  0  0  3  0  0  0  0  0  0
  -27.4830  -37.2970   24.7870 C   0  0  0  0  0  1  0  0  0  0  0  0
  -26.4210  -37.4720   23.7990 N   0  0  0  0  0  0  0  0  0  0  0  0
  -26.0190  -38.3970   23.9250 H   0  0  0  0  0  0  0  0  0  0  0  0
  -26.3290  -31.8260   25.1610 C   0  0  1  0  0  0  0  0  0  0  0  0
  -25.2260  -31.5990   26.2210 C   0  0  0  0  0  1  0  0  0  0  0  0
  -26.9160  -30.4460   24.7850 C   0  0  0  0  0  1  0  0  0  0  0  0
  -27.4760  -32.6230   25.8270 C   0  0  0  0  0  1  0  0  0  0  0  0
  -30.6300  -17.3040   20.5150 C   0  0  0  0  0  3  0  0  0  0  0  0
  -30.7850  -14.8080   20.9210 C   0  0  0  0  0  0  0  0  0  0  0  0
  -30.6020  -12.5710   19.8790 C   0  0  0  0  0  2  0  0  0  0  0  0
  -29.7670  -12.6580   18.5870 C   0  0  0  0  0  2  0  0  0  0  0  0
  -28.2720  -12.4820   18.9070 C   0  0  0  0  0  2  0  0  0  0  0  0
  -27.8010  -13.3670   20.0910 C   0  0  0  0  0  3  0  0  0  0  0  0
  -28.7720  -13.3050   21.2910 C   0  0  0  0  0  2  0  0  0  0  0  0
  -30.1110  -13.6240   20.7910 N   0  0  0  0  0  0  0  0  0  0  0  0
  -32.0040  -14.8410   20.7640 O   0  0  0  0  0  0  0  0  0  0  0  0
  -30.0630  -15.9730   20.9450 N   0  0  0  0  0  0  0  0  0  0  0  0
  -29.0620  -15.9340   21.0510 H   0  0  0  0  0  0  0  0  0  0  0  0
  -25.3540  -13.9310   20.6160 C   0  0  0  0  0  0  0  0  0  0  0  0
  -24.2770  -13.1440   20.9190 C   0  0  0  0  0  0  0  0  0  0  0  0
  -24.7630  -11.8010   20.9550 C   0  0  0  0  0  0  0  0  0  0  0  0
  -26.4280  -13.0640   20.4810 N   0  0  0  0  0  0  0  0  0  0  0  0
  -26.0740  -11.7820   20.7480 N   0  0  0  0  0  0  0  0  0  0  0  0
  -24.0460  -10.5290   21.1140 C   0  0  0  0  0  0  0  0  0  0  0  0
  -24.4250   -9.5880   22.0960 C   0  0  0  0  0  3  0  0  0  0  0  0
  -23.7070   -8.3810   22.2450 C   0  0  0  0  0  3  0  0  0  0  0  0
  -22.5990   -8.1080   21.4100 C   0  0  0  0  0  0  0  0  0  0  0  0
  -22.2400   -9.0390   20.4190 C   0  0  0  0  0  3  0  0  0  0  0  0
  -22.9570  -10.2380   20.2690 C   0  0  0  0  0  3  0  0  0  0  0  0
  -21.8630   -6.9500   21.4640 O   0  0  0  0  0  0  0  0  0  0  0  0
  -21.7390   -6.2280   22.6230 C   0  0  0  0  0  0  0  0  0  0  0  0
  -21.1960   -6.7920   23.7970 C   0  0  0  0  0  3  0  0  0  0  0  0
  -21.0200   -5.9930   24.9460 C   0  0  0  0  0  3  0  0  0  0  0  0
  -21.3790   -4.6320   24.9200 C   0  0  0  0  0  0  0  0  0  0  0  0
  -21.9190   -4.0700   23.7500 C   0  0  0  0  0  3  0  0  0  0  0  0
  -22.0940   -4.8650   22.6040 C   0  0  0  0  0  0  0  0  0  0  0  0
  -22.5920   -4.3090   21.4730 F   0  0  0  0  0  0  0  0  0  0  0  0
  -21.2060   -3.8640   26.0200 F   0  0  0  0  0  0  0  0  0  0  0  0
  -22.8550  -13.6000   21.0700 C   0  0  0  0  0  0  0  0  0  0  0  0
  -22.0760  -12.9130   21.8960 N   0  0  0  0  0  0  0  0  0  0  0  0
  -22.4410  -14.6040   20.4910 O   0  0  0  0  0  0  0  0  0  0  0  0
  -22.4260  -12.1030   22.3860 H   0  0  0  0  0  0  0  0  0  0  0  0
  -21.1180  -13.2000   22.0380 H   0  0  0  0  0  0  0  0  0  0  0  0
  -25.5050  -15.3010   20.4200 N   0  0  0  0  0  0  0  0  0  0  0  0
  -24.7140  -15.9350   20.4470 H   0  0  0  0  0  0  0  0  0  0  0  0
  -26.3620  -15.7510   20.1270 H   0  0  0  0  0  0  0  0  0  0  0  0
  -29.8410  -16.8710   18.0730 C   0  0  0  0  0  1  0  0  0  0  0  0
  -31.6340  -18.6160   18.4700 C   0  0  0  0  0  1  0  0  0  0  0  0
  -31.0110  -17.2980   18.9820 C   0  0  1  0  0  0  0  0  0  0  0  0
  -31.9690  -16.4020   18.7520 F   0  0  0  0  0  0  0  0  0  0  0  0
  1  5  1  0
  1  3  1  0
  2  6  2  0
  3  9  1  0
  3  2  1  0
  4  6  1  0
  5  4  2  0
  9  7  1  6
  8  9  1  0
  9 10  1  0
 11 12  1  0
 11 10  1  0
 13 24  2  0
 14 12  1  0
 14 19  1  0
 15 23  1  0
 15 25  1  0
 16 22  1  0
 16 18  1  0
 17 23  1  0
 18 17  1  0
 19 18  2  0
 20 14  2  0
 21 20  1  0
 21 16  2  0
 22 15  1  0
 23 13  1  0
 25 27  2  0
 26 25  1  0
 28 26  1  0
 29 38  2  0
 29 34  1  0
 30 26  1  0
 30 34  1  0
 31 30  1  0
 32 33  1  0
 32 31  1  0
 33 29  1  0
 34 35  2  0
 35 36  1  0
 37 36  2  0
 38 37  1  0
 39 13  1  0
 39 40  1  0
 39 49  1  0
 40 43  1  0
 41 45  1  0
 41 40  1  0
 42 41  2  0
 45 44  1  0
 47 45  1  0
 47 48  1  0
 47 46  1  0
 49 52  1  1
 49 50  1  0
 51 49  1  0
 53 94  1  0
 53  4  1  0
 53 62  1  0
 54 62  1  0
 55 60  1  0
 56 57  1  0
 56 55  1  0
 58 57  1  0
 58 67  1  0
 58 59  1  0
 60 54  1  0
 60 59  1  0
 61 54  2  0
 62 63  1  0
 64 65  2  0
 65 66  1  0
 65 84  1  0
 66 69  1  0
 67 64  1  0
 67 68  1  0
 68 66  2  0
 69 70  1  0
 70 71  2  0
 72 75  1  0
 72 71  1  0
 73 72  2  0
 74 73  1  0
 74 69  2  0
 75 76  1  0
 76 77  1  0
 77 78  2  0
 79 78  1  0
 79 83  1  0
 80 79  2  0
 81 76  2  0
 81 80  1  0
 82 81  1  0
 84 85  1  0
 85 88  1  0
 85 87  1  0
 86 84  2  0
 89 90  1  0
 89 64  1  0
 91 89  1  0
 94 92  1  6
 93 94  1  0
 95 94  1  0
M  ISO  4  11 101  12 101  54 100  62 100
M  END
>  <TORSDO>  (2) 
F 21

>  <SCORE>  (2) 
-13.336

>  <name>  (2) 
1

>  <ligand_id>  (2) 
1

>  <original_smiles>  (2) 
[H]c1nc(C([H])(N([H])C(=O)N2C([H])([H])C([H])([H])C([H])([H])C([H])(n3nc(-c4c([H])c([H])c(Oc5c([H])c([H])c(F)c([H])c5F)c([H])c4[H])c(C(=O)N([H])[H])c3N([H])[H])C2([H])[H])C(F)(C([H])([H])[H])C([H])([H])[H])nc([H])c1C(C([H])([H])[H])(C([H])([H])[H])C([H])([H])C([H])([H])Oc1c([H])c([H])c2c(c1[H])C([H])([H])N(C(=O)C([H])(N([H])C(=O)C([H])(N([H])C([H])([H])[H])C([H])([H])[H])C(C([H])([H])[H])(C([H])([H])[H])C([H])([H])[H])C([H])(C(=O)N([H])C1([H])c3c([H])c([H])c([H])c([H])c3C([H])([H])C([H])([H])C1([H])[H])C2([H])[H]

>  <smiles>  (2) 
[H]c1nc(C([H])(N([H])C(=O)N2C([H])([H])C([H])([H])C([H])([H])C([H])(n3nc(-c4c([H])c([H])c(Oc5c([H])c([H])c(F)c([H])c5F)c([H])c4[H])c(C(=O)N([H])[H])c3N([H])[H])C2([H])[H])C(F)(C([H])([H])[H])C([H])([H])[H])nc([H])c1C(C([H])([H])[H])(C([H])([H])[H])C([H])([H])C([H])([H])Oc1c([H])c([H])c2c(c1[H])C([H])([H])N(C(=O)C([H])(N([H])C(=O)C([H])(N([H])C([H])([H])[H])C([H])([H])[H])C(C([H])([H])[H])(C([H])([H])[H])C([H])([H])[H])C([H])(C(=O)N([H])C1([H])c3c([H])c([H])c([H])c([H])c3C([H])([H])C([H])([H])C1([H])[H])C2([H])[H]

$$$$
2:0:0
     RDKit          3D

 93101  0  0  1  0  0  0  0  0999 V2000
  -29.0350  -21.6740   19.4630 C   0  0  0  0  0  0  0  0  0  0  0  0
  -29.0400  -22.1890   18.2340 N   0  0  0  0  0  0  0  0  0  0  0  0
  -29.2240  -21.1060   17.4040 N   0  0  0  0  0  0  0  0  0  0  0  0
  -29.3450  -20.0040   18.0800 N   0  0  0  0  0  0  0  0  0  0  0  0
  -29.2830  -20.3250   19.4000 N   0  0  0  0  0  0  0  0  0  0  0  0
  -27.9220  -18.6020   20.5210 C   0  0  0  0  0  1  0  0  0  0  0  0
  -29.3210  -19.2340   20.4110 C   0  0  0  0  0  3  0  0  0  0  0  0
  -30.9340  -17.9140   21.8550 C   0  0  0  0  0  1  0  0  0  0  0  0
  -31.7350  -18.7260   19.6490 C   0  0  0  0  0  1  0  0  0  0  0  0
  -30.5100  -18.1400   20.3800 C   0  0  2  0  0  0  0  0  0  0  0  0
  -30.1910  -16.7120   19.7390 C   0  0  0  0  0  2  0  0  0  0  0  0
  -31.3750  -14.4410   19.8450 C   0  0  0  0  0  0  0  0  0  0  0  0
  -30.9990  -12.1470   18.9700 C   0  0  0  0  0  2  0  0  0  0  0  0
  -30.0290  -12.2020   17.7710 C   0  0  0  0  0  2  0  0  0  0  0  0
  -28.5660  -12.1540   18.2540 C   0  0  0  0  0  2  0  0  0  0  0  0
  -28.2800  -13.1580   19.4040 C   0  0  0  0  0  3  0  0  0  0  0  0
  -29.3590  -13.0660   20.5050 C   0  0  0  0  0  2  0  0  0  0  0  0
  -30.6680  -13.2710   19.8670 N   0  0  0  0  0  0  0  0  0  0  0  0
  -32.4760  -14.5270   19.2980 O   0  0  0  0  0  0  0  0  0  0  0  0
  -30.8090  -15.5300   20.4240 N   0  0  0  0  0  0  0  0  0  0  0  0
  -31.3760  -15.8430   21.1960 H   0  0  0  0  0  0  0  0  0  0  0  0
  -25.9820  -13.9460   20.2450 C   0  0  0  0  0  0  0  0  0  0  0  0
  -24.8720  -13.2590   20.6590 C   0  0  0  0  0  0  0  0  0  0  0  0
  -25.2170  -11.8740   20.5880 C   0  0  0  0  0  0  0  0  0  0  0  0
  -26.9360  -12.9860   19.9490 N   0  0  0  0  0  0  0  0  0  0  0  0
  -26.4830  -11.7320   20.2140 N   0  0  0  0  0  0  0  0  0  0  0  0
  -24.3990  -10.6730   20.7990 C   0  0  0  0  0  0  0  0  0  0  0  0
  -24.7450   -9.7020   21.7640 C   0  0  0  0  0  3  0  0  0  0  0  0
  -23.9290   -8.5650   21.9590 C   0  0  0  0  0  3  0  0  0  0  0  0
  -22.7530   -8.3940   21.1890 C   0  0  0  0  0  0  0  0  0  0  0  0
  -22.4270   -9.3520   20.2130 C   0  0  0  0  0  3  0  0  0  0  0  0
  -23.2420  -10.4790   20.0160 C   0  0  0  0  0  3  0  0  0  0  0  0
  -21.9140   -7.3100   21.2940 O   0  0  0  0  0  0  0  0  0  0  0  0
  -21.7310   -6.6540   22.4840 C   0  0  0  0  0  0  0  0  0  0  0  0
  -21.2310   -7.3130   23.6290 C   0  0  0  0  0  3  0  0  0  0  0  0
  -20.9920   -6.5860   24.8120 C   0  0  0  0  0  3  0  0  0  0  0  0
  -21.2420   -5.2000   24.8500 C   0  0  0  0  0  0  0  0  0  0  0  0
  -21.7320   -4.5410   23.7090 C   0  0  0  0  0  3  0  0  0  0  0  0
  -21.9740   -5.2670   22.5290 C   0  0  0  0  0  0  0  0  0  0  0  0
  -22.4260   -4.6240   21.4250 F   0  0  0  0  0  0  0  0  0  0  0  0
  -21.0050   -4.4990   25.9830 F   0  0  0  0  0  0  0  0  0  0  0  0
  -23.5350  -13.8460   21.0040 C   0  0  0  0  0  0  0  0  0  0  0  0
  -22.7990  -13.2090   21.9110 N   0  0  0  0  0  0  0  0  0  0  0  0
  -23.1520  -14.9010   20.5030 O   0  0  0  0  0  0  0  0  0  0  0  0
  -23.1190  -12.3540   22.3400 H   0  0  0  0  0  0  0  0  0  0  0  0
  -21.9000  -13.5820   22.1790 H   0  0  0  0  0  0  0  0  0  0  0  0
  -26.2530  -15.3000   20.0780 N   0  0  0  0  0  0  0  0  0  0  0  0
  -25.5600  -16.0200   20.2480 H   0  0  0  0  0  0  0  0  0  0  0  0
  -27.1320  -15.6640   19.7360 H   0  0  0  0  0  0  0  0  0  0  0  0
  -28.9050  -22.5430   20.7130 C   0  0  0  0  0  2  0  0  0  0  0  0
  -28.0690  -23.8930   20.6650 C   0  0  0  0  0  2  0  0  0  0  0  0
  -28.6140  -25.1190   19.8460 C   0  0  0  0  0  2  0  0  0  0  0  0
  -28.4900  -26.4540   20.4360 O   0  0  0  0  0  0  0  0  0  0  0  0
  -24.6930  -31.8100   23.2950 C   0  0  0  0  0  0  0  0  0  0  0  0
  -27.3300  -27.2200   20.3520 C   0  0  0  0  0  0  0  0  0  0  0  0
  -23.5040  -30.3960   21.6510 C   0  0  0  0  0  3  0  0  0  0  0  0
  -24.9650  -28.8100   20.2780 C   0  0  0  0  0  0  0  0  0  0  0  0
  -26.0430  -30.7020   21.5060 C   0  0  0  0  0  2  0  0  0  0  0  0
  -26.1210  -29.3150   20.8850 C   0  0  0  0  0  0  0  0  0  0  0  0
  -27.3050  -28.5310   20.9120 C   0  0  0  0  0  3  0  0  0  0  0  0
  -26.1500  -26.7460   19.7370 C   0  0  0  0  0  3  0  0  0  0  0  0
  -24.9800  -27.5290   19.6980 C   0  0  0  0  0  3  0  0  0  0  0  0
  -23.7350  -29.6930   20.2870 C   0  0  0  0  0  2  0  0  0  0  0  0
  -24.7660  -30.9880   22.2080 N   0  0  0  0  0  0  0  0  0  0  0  0
  -23.6040  -32.1040   23.8080 O   0  0  0  0  0  0  0  0  0  0  0  0
  -22.8170  -29.4020   22.6150 C   0  0  0  0  0  0  0  0  0  0  0  0
  -21.4960  -29.2230   22.4540 N   0  0  0  0  0  0  0  0  0  0  0  0
  -23.4730  -28.7930   23.4640 O   0  0  0  0  0  0  0  0  0  0  0  0
  -21.0280  -29.7670   21.7430 H   0  0  0  0  0  0  0  0  0  0  0  0
  -18.1050  -28.0440   22.8770 C   0  0  0  0  0  0  0  0  0  0  0  0
  -20.6540  -28.3050   23.2210 C   0  0  0  0  0  3  0  0  0  0  0  0
  -20.7700  -26.8610   22.6800 C   0  0  0  0  0  2  0  0  0  0  0  0
  -19.6990  -26.5180   21.6400 C   0  0  0  0  0  2  0  0  0  0  0  0
  -18.2990  -26.6800   22.2380 C   0  0  0  0  0  2  0  0  0  0  0  0
  -19.2110  -28.8140   23.3240 C   0  0  0  0  0  0  0  0  0  0  0  0
  -18.9780  -30.0910   23.8790 C   0  0  0  0  0  3  0  0  0  0  0  0
  -17.6690  -30.5980   23.9940 C   0  0  0  0  0  3  0  0  0  0  0  0
  -16.5770  -29.8270   23.5630 C   0  0  0  0  0  3  0  0  0  0  0  0
  -16.7950  -28.5510   23.0110 C   0  0  0  0  0  3  0  0  0  0  0  0
  -25.9720  -32.4370   23.9320 C   0  0  0  0  0  3  0  0  0  0  0  0
  -25.6740  -33.8450   24.2270 N   0  0  0  0  0  0  0  0  0  0  0  0
  -26.0330  -34.8780   23.4540 C   0  0  0  0  0  0  0  0  0  0  0  0
  -26.7210  -34.7460   22.4380 O   0  0  0  0  0  0  0  0  0  0  0  0
  -25.0660  -34.0220   25.0130 H   0  0  0  0  0  0  0  0  0  0  0  0
  -24.3350  -36.6860   23.0300 C   0  0  0  0  0  1  0  0  0  0  0  0
  -25.5540  -36.2810   23.8740 C   0  0  0  0  0  3  0  0  0  0  0  0
  -27.6790  -37.1620   24.7370 C   0  0  0  0  0  1  0  0  0  0  0  0
  -26.6020  -37.3200   23.7630 N   0  0  0  0  0  0  0  0  0  0  0  0
  -26.2040  -38.2470   23.8780 H   0  0  0  0  0  0  0  0  0  0  0  0
  -26.4500  -31.6860   25.2350 C   0  0  1  0  0  0  0  0  0  0  0  0
  -25.3290  -31.4710   26.2780 C   0  0  0  0  0  1  0  0  0  0  0  0
  -27.0350  -30.2980   24.8810 C   0  0  0  0  0  1  0  0  0  0  0  0
  -27.5870  -32.4850   25.9140 C   0  0  0  0  0  1  0  0  0  0  0  0
  1 50  1  0
  2  1  2  0
  3  4  2  0
  3  2  1  0
  4  5  1  0
  5  1  1  0
  5  7  1  0
  7  6  1  0
 10  9  1  6
 10  7  1  0
 10  8  1  0
 11 10  1  0
 11 20  1  0
 12 18  1  0
 12 20  1  0
 13 18  1  0
 14 15  1  0
 14 13  1  0
 16 15  1  0
 16 25  1  0
 16 17  1  0
 18 17  1  0
 19 12  2  0
 20 21  1  0
 22 23  2  0
 23 42  1  0
 24 23  1  0
 24 27  1  0
 25 26  1  0
 25 22  1  0
 26 24  2  0
 27 28  1  0
 28 29  2  0
 30 33  1  0
 30 29  1  0
 31 30  2  0
 32 31  1  0
 32 27  2  0
 33 34  1  0
 34 39  2  0
 34 35  1  0
 35 36  2  0
 36 37  1  0
 37 41  1  0
 38 37  2  0
 39 38  1  0
 40 39  1  0
 42 43  1  0
 43 46  1  0
 43 45  1  0
 44 42  2  0
 47 22  1  0
 47 48  1  0
 49 47  1  0
 51 50  1  0
 52 53  1  0
 52 51  1  0
 54 65  2  0
 55 53  1  0
 55 60  1  0
 56 64  1  0
 56 66  1  0
 57 63  1  0
 57 59  1  0
 58 64  1  0
 59 60  2  0
 59 58  1  0
 61 55  2  0
 62 61  1  0
 62 57  2  0
 63 56  1  0
 64 54  1  0
 66 68  2  0
 67 66  1  0
 69 67  1  0
 70 79  2  0
 70 75  1  0
 71 67  1  0
 71 75  1  0
 72 71  1  0
 73 74  1  0
 73 72  1  0
 74 70  1  0
 75 76  2  0
 76 77  1  0
 78 77  2  0
 79 78  1  0
 80 54  1  0
 80 81  1  0
 80 90  1  0
 81 84  1  0
 82 86  1  0
 82 81  1  0
 83 82  2  0
 86 85  1  0
 88 86  1  0
 88 89  1  0
 88 87  1  0
 90 93  1  1
 90 91  1  0
 92 90  1  0
M  ISO  4  12 100  20 100  52 101  53 101
M  END
>  <TORSDO>  (3) 
F 22

>  <SCORE>  (3) 
-12.650

>  <name>  (3) 
2

>  <ligand_id>  (3) 
2

>  <original_smiles>  (3) 
[H]c1c([H])c([H])c2c(c1[H])C([H])([H])C([H])([H])C([H])([H])C2([H])N([H])C(=O)C1([H])N(C(=O)C([H])(N([H])C(=O)C([H])(N([H])C([H])([H])[H])C([H])([H])[H])C(C([H])([H])[H])(C([H])([H])[H])C([H])([H])[H])C([H])([H])c2c([H])c(OC([H])([H])C([H])([H])C([H])([H])c3nnnn3C([H])(C([H])([H])[H])C(C([H])([H])[H])(C([H])([H])[H])C([H])([H])N([H])C(=O)N3C([H])([H])C([H])([H])C([H])([H])C([H])(n4nc(-c5c([H])c([H])c(Oc6c([H])c([H])c(F)c([H])c6F)c([H])c5[H])c(C(=O)N([H])[H])c4N([H])[H])C3([H])[H])c([H])c([H])c2C1([H])[H]

>  <smiles>  (3) 
[H]c1c([H])c([H])c2c(c1[H])C([H])([H])C([H])([H])C([H])([H])C2([H])N([H])C(=O)C1([H])N(C(=O)C([H])(N([H])C(=O)C([H])(N([H])C([H])([H])[H])C([H])([H])[H])C(C([H])([H])[H])(C([H])([H])[H])C([H])([H])[H])C([H])([H])c2c([H])c(OC([H])([H])C([H])([H])C([H])([H])c3nnnn3C([H])(C([H])([H])[H])C(C([H])([H])[H])(C([H])([H])[H])C([H])([H])N([H])C(=O)N3C([H])([H])C([H])([H])C([H])([H])C([H])(n4nc(-c5c([H])c([H])c(Oc6c([H])c([H])c(F)c([H])c6F)c([H])c5[H])c(C(=O)N([H])[H])c4N([H])[H])C3([H])[H])c([H])c([H])c2C1([H])[H]

$$$$
4:0:0
     RDKit          3D

 93101  0  0  1  0  0  0  0  0999 V2000
  -29.2140  -20.0230   19.5020 C   0  0  2  0  0  0  0  0  0  0  0  0
  -29.6980  -18.1300   21.3890 C   0  0  0  0  0  2  0  0  0  0  0  0
  -30.1370  -16.3620   20.2510 C   0  0  0  0  0  0  0  0  0  0  0  0
  -29.9790  -16.8070   21.5470 N   0  0  0  0  0  0  0  0  0  0  0  0
  -29.9780  -17.4230   19.3760 N   0  0  0  0  0  2  0  0  0  0  0  0
  -29.6830  -18.6130   20.1300 N   0  0  0  0  0  0  0  0  0  0  0  0
  -30.7690  -14.9040   19.8980 C   0  0  0  0  0  0  0  0  0  0  0  0
  -30.4970  -12.5690   18.9310 C   0  0  0  0  0  2  0  0  0  0  0  0
  -29.4880  -12.5980   17.7590 C   0  0  0  0  0  2  0  0  0  0  0  0
  -28.0520  -12.4070   18.2830 C   0  0  0  0  0  2  0  0  0  0  0  0
  -27.7510  -13.2940   19.5190 C   0  0  0  0  0  3  0  0  0  0  0  0
  -28.8840  -13.2710   20.5670 C   0  0  0  0  0  2  0  0  0  0  0  0
  -30.1230  -13.6610   19.8860 N   0  0  0  0  0  0  0  0  0  0  0  0
  -31.9300  -14.8970   19.4650 O   0  0  0  0  0  0  0  0  0  0  0  0
  -25.4490  -13.8760   20.4720 C   0  0  0  0  0  0  0  0  0  0  0  0
  -24.4010  -13.1030   20.8900 C   0  0  0  0  0  0  0  0  0  0  0  0
  -24.8320  -11.7460   20.7640 C   0  0  0  0  0  0  0  0  0  0  0  0
  -26.4510  -12.9920   20.1100 N   0  0  0  0  0  0  0  0  0  0  0  0
  -26.0950  -11.7020   20.3510 N   0  0  0  0  0  0  0  0  0  0  0  0
  -24.0930  -10.4910   20.9570 C   0  0  0  0  0  0  0  0  0  0  0  0
  -24.5340   -9.5060   21.8670 C   0  0  0  0  0  3  0  0  0  0  0  0
  -23.7940   -8.3170   22.0500 C   0  0  0  0  0  3  0  0  0  0  0  0
  -22.5980   -8.1070   21.3250 C   0  0  0  0  0  0  0  0  0  0  0  0
  -22.1730   -9.0820   20.4050 C   0  0  0  0  0  3  0  0  0  0  0  0
  -22.9140  -10.2610   20.2190 C   0  0  0  0  0  3  0  0  0  0  0  0
  -21.8280   -6.9710   21.4170 O   0  0  0  0  0  0  0  0  0  0  0  0
  -21.7550   -6.2430   22.5770 C   0  0  0  0  0  0  0  0  0  0  0  0
  -21.2840   -6.8090   23.7810 C   0  0  0  0  0  3  0  0  0  0  0  0
  -21.1600   -6.0070   24.9340 C   0  0  0  0  0  3  0  0  0  0  0  0
  -21.4960   -4.6400   24.8820 C   0  0  0  0  0  0  0  0  0  0  0  0
  -21.9590   -4.0750   23.6810 C   0  0  0  0  0  3  0  0  0  0  0  0
  -22.0850   -4.8740   22.5310 C   0  0  0  0  0  0  0  0  0  0  0  0
  -22.5120   -4.3180   21.3710 F   0  0  0  0  0  0  0  0  0  0  0  0
  -21.3690   -3.8680   25.9880 F   0  0  0  0  0  0  0  0  0  0  0  0
  -23.0400  -13.5950   21.2860 C   0  0  0  0  0  0  0  0  0  0  0  0
  -22.3640  -12.8790   22.1770 N   0  0  0  0  0  0  0  0  0  0  0  0
  -22.5880  -14.6490   20.8420 O   0  0  0  0  0  0  0  0  0  0  0  0
  -22.7440  -12.0240   22.5570 H   0  0  0  0  0  0  0  0  0  0  0  0
  -21.4530  -13.1910   22.4810 H   0  0  0  0  0  0  0  0  0  0  0  0
  -25.6290  -15.2490   20.3430 N   0  0  0  0  0  0  0  0  0  0  0  0
  -24.8860  -15.9080   20.5470 H   0  0  0  0  0  0  0  0  0  0  0  0
  -26.4620  -15.6920   19.9790 H   0  0  0  0  0  0  0  0  0  0  0  0
  -27.0770  -20.8450   18.1760 C   0  0  0  0  0  1  0  0  0  0  0  0
  -26.8530  -18.8980   19.7610 C   0  0  0  0  0  1  0  0  0  0  0  0
  -27.8270  -19.6710   18.8380 C   0  0  0  0  0  3  0  0  0  0  0  0
  -31.6870  -20.5170   18.7990 C   0  0  0  0  0  1  0  0  0  0  0  0
  -30.2330  -20.2900   18.3540 C   0  0  0  0  0  2  0  0  0  0  0  0
  -28.9750  -21.4760   20.4240 C   0  0  0  0  0  2  0  0  0  0  0  0
  -29.6680  -23.4660   18.6760 C   0  0  0  0  0  1  0  0  0  0  0  0
  -30.3640  -23.5920   21.0390 C   0  0  0  0  0  1  0  0  0  0  0  0
  -29.1940  -23.1870   20.1140 C   0  0  2  0  0  0  0  0  0  0  0  0
  -28.0730  -24.4410   20.4100 C   0  0  0  0  0  2  0  0  0  0  0  0
  -28.3310  -26.0020   20.3590 O   0  0  0  0  0  0  0  0  0  0  0  0
  -24.6200  -31.7600   23.2140 C   0  0  0  0  0  0  0  0  0  0  0  0
  -27.2750  -26.9950   20.2920 C   0  0  0  0  0  0  0  0  0  0  0  0
  -23.4650  -30.3440   21.5620 C   0  0  0  0  0  3  0  0  0  0  0  0
  -24.9500  -28.7580   20.1850 C   0  0  0  0  0  0  0  0  0  0  0  0
  -26.0240  -30.6080   21.4570 C   0  0  0  0  0  2  0  0  0  0  0  0
  -26.1150  -29.2070   20.8190 C   0  0  0  0  0  0  0  0  0  0  0  0
  -27.2790  -28.3430   20.8520 C   0  0  0  0  0  3  0  0  0  0  0  0
  -26.0820  -26.6600   19.6130 C   0  0  0  0  0  3  0  0  0  0  0  0
  -24.9490  -27.5000   19.5650 C   0  0  0  0  0  3  0  0  0  0  0  0
  -23.7210  -29.6580   20.1940 C   0  0  0  0  0  2  0  0  0  0  0  0
  -24.7220  -30.9280   22.1310 N   0  0  0  0  0  0  0  0  0  0  0  0
  -23.5200  -32.0430   23.7140 O   0  0  0  0  0  0  0  0  0  0  0  0
  -22.7680  -29.3420   22.5170 C   0  0  0  0  0  0  0  0  0  0  0  0
  -21.4440  -29.1650   22.3630 N   0  0  0  0  0  0  0  0  0  0  0  0
  -23.4230  -28.7270   23.3630 O   0  0  0  0  0  0  0  0  0  0  0  0
  -20.9700  -29.7120   21.6570 H   0  0  0  0  0  0  0  0  0  0  0  0
  -18.0570  -27.9530   22.8030 C   0  0  0  0  0  0  0  0  0  0  0  0
  -20.6090  -28.2310   23.1240 C   0  0  0  0  0  3  0  0  0  0  0  0
  -20.7290  -26.7940   22.5670 C   0  0  0  0  0  2  0  0  0  0  0  0
  -19.6510  -26.4560   21.5310 C   0  0  0  0  0  2  0  0  0  0  0  0
  -18.2550  -26.6000   22.1420 C   0  0  0  0  0  2  0  0  0  0  0  0
  -19.1620  -28.7260   23.2490 C   0  0  0  0  0  0  0  0  0  0  0  0
  -18.9220  -29.9910   23.8270 C   0  0  0  0  0  3  0  0  0  0  0  0
  -17.6100  -30.4850   23.9640 C   0  0  0  0  0  3  0  0  0  0  0  0
  -16.5200  -29.7100   23.5310 C   0  0  0  0  0  3  0  0  0  0  0  0
  -16.7440  -28.4460   22.9570 C   0  0  0  0  0  3  0  0  0  0  0  0
  -25.8780  -32.4090   23.8660 C   0  0  0  0  0  3  0  0  0  0  0  0
  -25.5390  -33.8020   24.1990 N   0  0  0  0  0  0  0  0  0  0  0  0
  -25.8670  -34.8680   23.4560 C   0  0  0  0  0  0  0  0  0  0  0  0
  -26.5450  -34.7840   22.4290 O   0  0  0  0  0  0  0  0  0  0  0  0
  -24.9350  -33.9410   24.9950 H   0  0  0  0  0  0  0  0  0  0  0  0
  -24.1130  -36.6420   23.1090 C   0  0  0  0  0  1  0  0  0  0  0  0
  -25.3560  -36.2470   23.9230 C   0  0  0  0  0  3  0  0  0  0  0  0
  -27.4680  -37.1600   24.7780 C   0  0  0  0  0  1  0  0  0  0  0  0
  -26.3730  -37.3160   23.8260 N   0  0  0  0  0  0  0  0  0  0  0  0
  -25.9500  -38.2280   23.9750 H   0  0  0  0  0  0  0  0  0  0  0  0
  -26.3750  -31.6430   25.1520 C   0  0  1  0  0  0  0  0  0  0  0  0
  -25.2620  -31.3880   26.1960 C   0  0  0  0  0  1  0  0  0  0  0  0
  -26.9860  -30.2750   24.7750 C   0  0  0  0  0  1  0  0  0  0  0  0
  -27.4990  -32.4520   25.8420 C   0  0  0  0  0  1  0  0  0  0  0  0
  1 47  1  6
  1  6  1  0
  1 48  1  0
  2  4  1  0
  3  4  2  0
  5  6  1  0
  5  3  1  0
  6  2  1  0
  7  3  1  0
  8 13  1  0
  9 10  1  0
  9  8  1  0
 11 10  1  0
 11 18  1  0
 11 12  1  0
 13  7  1  0
 13 12  1  0
 14  7  2  0
 15 16  2  0
 16 35  1  0
 17 16  1  0
 17 20  1  0
 18 19  1  0
 18 15  1  0
 19 17  2  0
 20 21  1  0
 21 22  2  0
 23 26  1  0
 23 22  1  0
 24 23  2  0
 25 24  1  0
 25 20  2  0
 26 27  1  0
 27 28  1  0
 28 29  2  0
 30 29  1  0
 30 34  1  0
 31 30  2  0
 32 27  2  0
 32 31  1  0
 33 32  1  0
 35 36  1  0
 36 39  1  0
 36 38  1  0
 37 35  2  0
 40 15  1  0
 40 41  1  0
 42 40  1  0
 43 45  1  0
 45  1  1  0
 45 44  1  0
 47 46  1  0
 51 49  1  6
 51 52  1  0
 51 48  1  0
 51 50  1  0
 53 52  1  0
 54 65  2  0
 55 53  1  0
 55 60  1  0
 56 64  1  0
 56 66  1  0
 57 63  1  0
 57 59  1  0
 58 64  1  0
 59 60  2  0
 59 58  1  0
 61 55  2  0
 62 61  1  0
 62 57  2  0
 63 56  1  0
 64 54  1  0
 66 68  2  0
 67 66  1  0
 69 67  1  0
 70 79  2  0
 70 75  1  0
 71 67  1  0
 71 75  1  0
 72 71  1  0
 73 74  1  0
 73 72  1  0
 74 70  1  0
 75 76  2  0
 76 77  1  0
 78 77  2  0
 79 78  1  0
 80 54  1  0
 80 81  1  0
 80 90  1  0
 81 84  1  0
 82 86  1  0
 82 81  1  0
 83 82  2  0
 86 85  1  0
 88 86  1  0
 88 89  1  0
 88 87  1  0
 90 93  1  1
 90 91  1  0
 92 90  1  0
M  ISO  4   3 100   7 100  52 101  53 101
M  END
>  <TORSDO>  (4) 
F 22

>  <SCORE>  (4) 
-14.210

>  <name>  (4) 
4

>  <ligand_id>  (4) 
4

>  <original_smiles>  (4) 
[H]c1c([H])c([H])c2c(c1[H])C([H])([H])C([H])([H])C([H])([H])C2([H])N([H])C(=O)C1([H])N(C(=O)C([H])(N([H])C(=O)C([H])(N([H])C([H])([H])[H])C([H])([H])[H])C(C([H])([H])[H])(C([H])([H])[H])C([H])([H])[H])C([H])([H])c2c([H])c(OC([H])([H])C(C([H])([H])[H])(C([H])([H])[H])C([H])([H])C(n3nc(C(=O)N4C([H])([H])C([H])([H])C([H])([H])C([H])(n5nc(-c6c([H])c([H])c(Oc7c([H])c([H])c(F)c([H])c7F)c([H])c6[H])c(C(=O)N([H])[H])c5N([H])[H])C4([H])[H])nc3[H])(C([H])([H])C([H])([H])[H])C([H])(C([H])([H])[H])C([H])([H])[H])c([H])c([H])c2C1([H])[H]

>  <smiles>  (4) 
[H]c1c([H])c([H])c2c(c1[H])C([H])([H])C([H])([H])C([H])([H])C2([H])N([H])C(=O)C1([H])N(C(=O)C([H])(N([H])C(=O)C([H])(N([H])C([H])([H])[H])C([H])([H])[H])C(C([H])([H])[H])(C([H])([H])[H])C([H])([H])[H])C([H])([H])c2c([H])c(OC([H])([H])C(C([H])([H])[H])(C([H])([H])[H])C([H])([H])C(n3nc(C(=O)N4C([H])([H])C([H])([H])C([H])([H])C([H])(n5nc(-c6c([H])c([H])c(Oc7c([H])c([H])c(F)c([H])c7F)c([H])c6[H])c(C(=O)N([H])[H])c5N([H])[H])C4([H])[H])nc3[H])(C([H])([H])C([H])([H])[H])C([H])(C([H])([H])[H])C([H])([H])[H])c([H])c([H])c2C1([H])[H]

$$$$
5:0:0
     RDKit          3D

 93101  0  0  1  0  0  0  0  0999 V2000
  -30.0550  -19.6710   21.2140 C   0  0  0  0  0  3  0  0  0  0  0  0
  -29.4610  -18.7020   20.3120 C   0  0  0  0  0  0  0  0  0  0  0  0
  -28.2120  -20.5070   19.4160 C   0  0  0  0  0  0  0  0  0  0  0  0
  -28.8310  -21.4600   20.2340 C   0  0  0  0  0  0  0  0  0  0  0  0
  -27.0390  -20.8180   18.4980 C   0  0  0  0  0  1  0  0  0  0  0  0
  -29.7450  -21.0230   21.1680 N   0  0  0  0  0  0  0  0  0  0  0  0
  -28.5540  -19.2130   19.4430 N   0  0  0  0  0  0  0  0  0  0  0  0
  -28.1120  -16.6920   20.6020 C   0  0  0  0  0  1  0  0  0  0  0  0
  -29.7330  -17.0100   18.5160 C   0  0  0  0  0  1  0  0  0  0  0  0
  -29.4950  -17.0980   20.0640 C   0  0  1  0  0  0  0  0  0  0  0  0
  -30.7400  -14.7810   19.9490 C   0  0  0  0  0  0  0  0  0  0  0  0
  -30.2470  -12.6120   18.7920 C   0  0  0  0  0  2  0  0  0  0  0  0
  -29.1960  -12.7090   17.6580 C   0  0  0  0  0  2  0  0  0  0  0  0
  -27.7820  -12.4970   18.2240 C   0  0  0  0  0  2  0  0  0  0  0  0
  -27.5310  -13.3580   19.4900 C   0  0  0  0  0  3  0  0  0  0  0  0
  -28.7060  -13.2470   20.5150 C   0  0  0  0  0  2  0  0  0  0  0  0
  -29.9560  -13.6320   19.8370 N   0  0  0  0  0  0  0  0  0  0  0  0
  -31.8190  -14.8110   19.3490 O   0  0  0  0  0  0  0  0  0  0  0  0
  -30.3380  -15.9430   20.6410 N   0  0  0  0  0  0  0  0  0  0  0  0
  -25.1850  -13.9150   20.4080 C   0  0  0  0  0  0  0  0  0  0  0  0
  -24.1570  -13.1280   20.8410 C   0  0  0  0  0  0  0  0  0  0  0  0
  -24.6270  -11.7830   20.7240 C   0  0  0  0  0  0  0  0  0  0  0  0
  -26.2260  -13.0530   20.0820 N   0  0  0  0  0  0  0  0  0  0  0  0
  -25.8890  -11.7600   20.3180 N   0  0  0  0  0  0  0  0  0  0  0  0
  -23.9180  -10.5090   20.9180 C   0  0  0  0  0  0  0  0  0  0  0  0
  -24.3620   -9.5540   21.8580 C   0  0  0  0  0  3  0  0  0  0  0  0
  -23.6490   -8.3490   22.0500 C   0  0  0  0  0  3  0  0  0  0  0  0
  -22.4770   -8.0910   21.2990 C   0  0  0  0  0  0  0  0  0  0  0  0
  -22.0480   -9.0380   20.3500 C   0  0  0  0  0  3  0  0  0  0  0  0
  -22.7640  -10.2340   20.1590 C   0  0  0  0  0  3  0  0  0  0  0  0
  -21.7380   -6.9430   21.3990 O   0  0  0  0  0  0  0  0  0  0  0  0
  -21.6380   -6.2430   22.5750 C   0  0  0  0  0  0  0  0  0  0  0  0
  -21.1010   -6.8270   23.7440 C   0  0  0  0  0  3  0  0  0  0  0  0
  -20.9600   -6.0550   24.9140 C   0  0  0  0  0  3  0  0  0  0  0  0
  -21.3410   -4.7020   24.9160 C   0  0  0  0  0  0  0  0  0  0  0  0
  -21.8680   -4.1170   23.7540 C   0  0  0  0  0  3  0  0  0  0  0  0
  -22.0150   -4.8830   22.5850 C   0  0  0  0  0  0  0  0  0  0  0  0
  -22.5050   -4.3100   21.4590 F   0  0  0  0  0  0  0  0  0  0  0  0
  -21.1970   -3.9580   26.0390 F   0  0  0  0  0  0  0  0  0  0  0  0
  -22.7910  -13.5960   21.2510 C   0  0  0  0  0  0  0  0  0  0  0  0
  -22.1360  -12.8660   22.1460 N   0  0  0  0  0  0  0  0  0  0  0  0
  -22.3100  -14.6380   20.8120 O   0  0  0  0  0  0  0  0  0  0  0  0
  -22.5330  -12.0190   22.5240 H   0  0  0  0  0  0  0  0  0  0  0  0
  -21.2190  -13.1570   22.4490 H   0  0  0  0  0  0  0  0  0  0  0  0
  -25.3150  -15.2890   20.2660 N   0  0  0  0  0  0  0  0  0  0  0  0
  -24.6020  -15.9340   20.5880 H   0  0  0  0  0  0  0  0  0  0  0  0
  -26.1820  -15.7540   20.0300 H   0  0  0  0  0  0  0  0  0  0  0  0
  -32.2200  -17.1970   21.7220 C   0  0  0  0  0  1  0  0  0  0  0  0
  -31.0750  -16.1960   21.8930 C   0  0  0  0  0  2  0  0  0  0  0  0
  -28.3090  -22.9370   20.0710 C   0  0  0  0  0  2  0  0  0  0  0  0
  -29.0130  -24.2600   20.4840 C   0  0  0  0  0  2  0  0  0  0  0  0
  -28.6990  -25.4490   19.4870 C   0  0  0  0  0  2  0  0  0  0  0  0
  -28.5040  -26.7900   20.0140 O   0  0  0  0  0  0  0  0  0  0  0  0
  -24.5960  -31.8850   23.0680 C   0  0  0  0  0  0  0  0  0  0  0  0
  -27.2910  -27.4760   19.9370 C   0  0  0  0  0  0  0  0  0  0  0  0
  -23.3970  -30.4800   21.4170 C   0  0  0  0  0  3  0  0  0  0  0  0
  -24.8710  -28.9850   19.9620 C   0  0  0  0  0  0  0  0  0  0  0  0
  -25.9180  -30.8780   21.2000 C   0  0  0  0  0  2  0  0  0  0  0  0
  -26.0210  -29.5090   20.5560 C   0  0  0  0  0  0  0  0  0  0  0  0
  -27.2270  -28.7660   20.5360 C   0  0  0  0  0  3  0  0  0  0  0  0
  -26.1170  -26.9810   19.3270 C   0  0  0  0  0  3  0  0  0  0  0  0
  -24.9150  -27.7260   19.3310 C   0  0  0  0  0  3  0  0  0  0  0  0
  -23.6120  -29.8170   20.0280 C   0  0  0  0  0  2  0  0  0  0  0  0
  -24.6560  -31.0970   21.9530 N   0  0  0  0  0  0  0  0  0  0  0  0
  -23.5160  -32.1380   23.6250 O   0  0  0  0  0  0  0  0  0  0  0  0
  -22.7670  -29.4430   22.3820 C   0  0  0  0  0  0  0  0  0  0  0  0
  -21.4370  -29.2590   22.2780 N   0  0  0  0  0  0  0  0  0  0  0  0
  -23.4630  -28.8160   23.1810 O   0  0  0  0  0  0  0  0  0  0  0  0
  -20.9330  -29.8090   21.5970 H   0  0  0  0  0  0  0  0  0  0  0  0
  -18.0870  -28.0560   22.8440 C   0  0  0  0  0  0  0  0  0  0  0  0
  -20.6380  -28.3120   23.0570 C   0  0  0  0  0  3  0  0  0  0  0  0
  -20.7200  -26.8850   22.4530 C   0  0  0  0  0  2  0  0  0  0  0  0
  -19.5960  -26.5980   21.4420 C   0  0  0  0  0  2  0  0  0  0  0  0
  -18.2360  -26.7360   22.1240 C   0  0  0  0  0  2  0  0  0  0  0  0
  -19.2160  -28.8020   23.2720 C   0  0  0  0  0  0  0  0  0  0  0  0
  -19.0140  -30.0480   23.9060 C   0  0  0  0  0  3  0  0  0  0  0  0
  -17.7190  -30.5490   24.1190 C   0  0  0  0  0  3  0  0  0  0  0  0
  -16.6020  -29.7960   23.7030 C   0  0  0  0  0  3  0  0  0  0  0  0
  -16.7860  -28.5590   23.0710 C   0  0  0  0  0  3  0  0  0  0  0  0
  -25.8810  -32.5290   23.6840 C   0  0  0  0  0  3  0  0  0  0  0  0
  -25.5480  -33.9070   24.0610 N   0  0  0  0  0  0  0  0  0  0  0  0
  -25.8660  -35.0000   23.3380 C   0  0  0  0  0  0  0  0  0  0  0  0
  -26.5400  -34.9380   22.3030 O   0  0  0  0  0  0  0  0  0  0  0  0
  -24.9600  -34.0280   24.8750 H   0  0  0  0  0  0  0  0  0  0  0  0
  -24.1290  -36.7910   23.0220 C   0  0  0  0  0  1  0  0  0  0  0  0
  -25.3560  -36.3620   23.8430 C   0  0  0  0  0  3  0  0  0  0  0  0
  -27.4650  -37.2260   24.7650 C   0  0  0  0  0  1  0  0  0  0  0  0
  -26.3880  -37.4240   23.8000 N   0  0  0  0  0  0  0  0  0  0  0  0
  -25.9650  -38.3280   23.9760 H   0  0  0  0  0  0  0  0  0  0  0  0
  -26.4480  -31.7340   24.9200 C   0  0  1  0  0  0  0  0  0  0  0  0
  -25.3790  -31.3950   25.9820 C   0  0  0  0  0  1  0  0  0  0  0  0
  -27.0880  -30.4040   24.4620 C   0  0  0  0  0  1  0  0  0  0  0  0
  -27.5640  -32.5510   25.6080 C   0  0  0  0  0  1  0  0  0  0  0  0
  2  1  2  0
  3  7  2  0
  3  4  1  0
  4  6  2  0
  5  3  1  0
  6  1  1  0
  7  2  1  0
 10  9  1  6
 10  2  1  0
 10  8  1  0
 10 19  1  0
 11 19  1  0
 12 17  1  0
 13 14  1  0
 13 12  1  0
 15 14  1  0
 15 23  1  0
 15 16  1  0
 17 11  1  0
 17 16  1  0
 18 11  2  0
 19 49  1  0
 20 21  2  0
 21 40  1  0
 22 21  1  0
 22 25  1  0
 23 24  1  0
 23 20  1  0
 24 22  2  0
 25 26  1  0
 26 27  2  0
 28 31  1  0
 28 27  1  0
 29 28  2  0
 30 29  1  0
 30 25  2  0
 31 32  1  0
 32 37  2  0
 32 33  1  0
 33 34  2  0
 34 35  1  0
 35 39  1  0
 36 35  2  0
 37 36  1  0
 38 37  1  0
 40 41  1  0
 41 44  1  0
 41 43  1  0
 42 40  2  0
 45 20  1  0
 45 46  1  0
 47 45  1  0
 48 49  1  0
 50  4  1  0
 50 51  1  0
 52 53  1  0
 52 51  1  0
 54 65  2  0
 55 53  1  0
 55 60  1  0
 56 64  1  0
 56 66  1  0
 57 63  1  0
 57 59  1  0
 58 64  1  0
 59 58  1  0
 60 59  2  0
 61 62  1  0
 61 55  2  0
 62 57  2  0
 63 56  1  0
 64 54  1  0
 66 68  2  0
 67 66  1  0
 69 67  1  0
 70 79  2  0
 70 75  1  0
 71 67  1  0
 71 75  1  0
 72 71  1  0
 73 74  1  0
 73 72  1  0
 74 70  1  0
 75 76  2  0
 76 77  1  0
 78 77  2  0
 79 78  1  0
 80 54  1  0
 80 81  1  0
 80 90  1  0
 81 84  1  0
 82 86  1  0
 82 81  1  0
 83 82  2  0
 86 85  1  0
 88 86  1  0
 88 89  1  0
 88 87  1  0
 90 93  1  1
 90 91  1  0
 92 90  1  0
M  ISO  4  11 100  19 100  52 101  53 101
M  END
>  <TORSDO>  (5) 
F 21

>  <SCORE>  (5) 
-12.283

>  <name>  (5) 
5

>  <ligand_id>  (5) 
5

>  <original_smiles>  (5) 
[H]c1nc(C([H])([H])C([H])([H])C([H])([H])Oc2c([H])c([H])c3c(c2[H])C([H])([H])N(C(=O)C([H])(N([H])C(=O)C([H])(N([H])C([H])([H])[H])C([H])([H])[H])C(C([H])([H])[H])(C([H])([H])[H])C([H])([H])[H])C([H])(C(=O)N([H])C2([H])c4c([H])c([H])c([H])c([H])c4C([H])([H])C([H])([H])C2([H])[H])C3([H])[H])c(C([H])([H])[H])nc1C(N(C(=O)N1C([H])([H])C([H])([H])C([H])([H])C([H])(n2nc(-c3c([H])c([H])c(Oc4c([H])c([H])c(F)c([H])c4F)c([H])c3[H])c(C(=O)N([H])[H])c2N([H])[H])C1([H])[H])C([H])([H])C([H])([H])[H])(C([H])([H])[H])C([H])([H])[H]

>  <smiles>  (5) 
[H]c1nc(C([H])([H])C([H])([H])C([H])([H])Oc2c([H])c([H])c3c(c2[H])C([H])([H])N(C(=O)C([H])(N([H])C(=O)C([H])(N([H])C([H])([H])[H])C([H])([H])[H])C(C([H])([H])[H])(C([H])([H])[H])C([H])([H])[H])C([H])(C(=O)N([H])C2([H])c4c([H])c([H])c([H])c([H])c4C([H])([H])C([H])([H])C2([H])[H])C3([H])[H])c(C([H])([H])[H])nc1C(N(C(=O)N1C([H])([H])C([H])([H])C([H])([H])C([H])(n2nc(-c3c([H])c([H])c(Oc4c([H])c([H])c(F)c([H])c4F)c([H])c3[H])c(C(=O)N([H])[H])c2N([H])[H])C1([H])[H])C([H])([H])C([H])([H])[H])(C([H])([H])[H])C([H])([H])[H]

$$$$
6:0:0
     RDKit          3D

 95103  0  0  1  0  0  0  0  0999 V2000
  -28.6190  -18.4240   18.2610 C   0  0  0  0  0  0  0  0  0  0  0  0
  -30.0540  -18.0770   19.7460 C   0  0  0  0  0  3  0  0  0  0  0  0
  -29.4150  -17.4310   18.7680 N   0  0  0  0  0  0  0  0  0  0  0  0
  -28.6910  -19.5880   18.9140 N   0  0  0  0  0  2  0  0  0  0  0  0
  -29.6730  -19.3930   19.8270 N   0  0  0  0  0  0  0  0  0  0  0  0
  -27.6870  -18.2370   17.0700 C   0  0  1  0  0  0  0  0  0  0  0  0
  -26.6400  -17.4890   17.4240 F   0  0  0  0  0  0  0  0  0  0  0  0
  -27.2390  -19.4280   16.6430 F   0  0  0  0  0  0  0  0  0  0  0  0
  -28.3200  -17.6340   16.0520 F   0  0  0  0  0  0  0  0  0  0  0  0
  -31.1340  -17.3800   20.5670 C   0  0  0  0  0  2  0  0  0  0  0  0
  -31.4050  -14.9000   20.2480 C   0  0  0  0  0  0  0  0  0  0  0  0
  -31.0990  -12.8420   18.8750 C   0  0  0  0  0  2  0  0  0  0  0  0
  -30.1310  -13.0860   17.6980 C   0  0  0  0  0  2  0  0  0  0  0  0
  -28.6460  -12.9950   18.1330 C   0  0  0  0  0  2  0  0  0  0  0  0
  -28.3460  -13.7280   19.4680 C   0  0  0  0  0  3  0  0  0  0  0  0
  -29.4050  -13.3180   20.5070 C   0  0  0  0  0  2  0  0  0  0  0  0
  -30.7110  -13.7390   19.9940 N   0  0  0  0  0  0  0  0  0  0  0  0
  -32.4980  -15.0780   19.6930 O   0  0  0  0  0  0  0  0  0  0  0  0
  -30.1840  -15.8260   22.2490 C   0  0  0  0  0  1  0  0  0  0  0  0
  -30.7870  -15.9530   20.8990 N   0  0  0  0  0  0  0  0  0  0  0  0
  -25.9370  -14.3740   20.1200 C   0  0  0  0  0  0  0  0  0  0  0  0
  -24.8510  -13.6210   20.5030 C   0  0  0  0  0  0  0  0  0  0  0  0
  -25.3000  -12.2680   20.5270 C   0  0  0  0  0  0  0  0  0  0  0  0
  -26.9790  -13.4770   19.9390 N   0  0  0  0  0  0  0  0  0  0  0  0
  -26.5990  -12.2100   20.2370 N   0  0  0  0  0  0  0  0  0  0  0  0
  -24.5610  -11.0200   20.7680 C   0  0  0  0  0  0  0  0  0  0  0  0
  -24.9100  -10.1390   21.8080 C   0  0  0  0  0  3  0  0  0  0  0  0
  -24.1770   -8.9510   22.0240 C   0  0  0  0  0  3  0  0  0  0  0  0
  -23.0740   -8.6370   21.1970 C   0  0  0  0  0  0  0  0  0  0  0  0
  -22.7440   -9.5100   20.1430 C   0  0  0  0  0  3  0  0  0  0  0  0
  -23.4800  -10.6920   19.9290 C   0  0  0  0  0  3  0  0  0  0  0  0
  -22.3140   -7.4980   21.3280 O   0  0  0  0  0  0  0  0  0  0  0  0
  -22.0800   -6.9200   22.5530 C   0  0  0  0  0  0  0  0  0  0  0  0
  -21.4430   -7.6200   23.6010 C   0  0  0  0  0  3  0  0  0  0  0  0
  -21.1540   -6.9580   24.8090 C   0  0  0  0  0  3  0  0  0  0  0  0
  -21.4990   -5.6060   24.9770 C   0  0  0  0  0  0  0  0  0  0  0  0
  -22.1310   -4.9110   23.9340 C   0  0  0  0  0  3  0  0  0  0  0  0
  -22.4180   -5.5620   22.7240 C   0  0  0  0  0  0  0  0  0  0  0  0
  -23.0050   -4.8750   21.7150 F   0  0  0  0  0  0  0  0  0  0  0  0
  -21.2170   -4.9730   26.1380 F   0  0  0  0  0  0  0  0  0  0  0  0
  -23.4540  -14.1250   20.7450 C   0  0  0  0  0  0  0  0  0  0  0  0
  -22.7160  -13.4750   21.6490 N   0  0  0  0  0  0  0  0  0  0  0  0
  -23.0140  -15.1200   20.1650 O   0  0  0  0  0  0  0  0  0  0  0  0
  -23.0740  -12.6800   22.1510 H   0  0  0  0  0  0  0  0  0  0  0  0
  -21.7710  -13.7920   21.8390 H   0  0  0  0  0  0  0  0  0  0  0  0
  -26.1260  -15.7340   19.8880 N   0  0  0  0  0  0  0  0  0  0  0  0
  -25.3880  -16.4350   19.8870 H   0  0  0  0  0  0  0  0  0  0  0  0
  -27.0350  -16.1300   19.6650 H   0  0  0  0  0  0  0  0  0  0  0  0
  -30.1230  -20.5630   20.6370 C   0  0  0  0  0  3  0  0  0  0  0  0
  -29.5470  -21.9930   20.2550 C   0  0  0  0  0  3  0  0  0  0  0  0
  -31.7250  -23.3320   20.5790 C   0  0  0  0  0  1  0  0  0  0  0  0
  -30.2170  -23.2620   20.9420 C   0  0  0  0  0  3  0  0  0  0  0  0
  -29.5830  -24.6650   20.5920 C   0  0  0  0  0  2  0  0  0  0  0  0
  -29.5790  -25.7560   21.7220 C   0  0  0  0  0  2  0  0  0  0  0  0
  -29.5940  -27.1140   21.2250 O   0  0  0  0  0  0  0  0  0  0  0  0
  -24.9890  -31.9840   23.6880 C   0  0  0  0  0  0  0  0  0  0  0  0
  -28.3700  -27.7380   21.0720 C   0  0  0  0  0  0  0  0  0  0  0  0
  -24.1180  -30.4270   21.9750 C   0  0  0  0  0  3  0  0  0  0  0  0
  -25.8620  -29.0160   20.7660 C   0  0  0  0  0  0  0  0  0  0  0  0
  -26.6030  -31.0290   22.0410 C   0  0  0  0  0  2  0  0  0  0  0  0
  -26.8930  -29.6620   21.4540 C   0  0  0  0  0  0  0  0  0  0  0  0
  -28.1540  -29.0360   21.5930 C   0  0  0  0  0  3  0  0  0  0  0  0
  -27.3160  -27.1000   20.3820 C   0  0  0  0  0  3  0  0  0  0  0  0
  -26.0690  -27.7390   20.2200 C   0  0  0  0  0  3  0  0  0  0  0  0
  -24.5440  -29.7430   20.6470 C   0  0  0  0  0  2  0  0  0  0  0  0
  -25.2480  -31.1670   22.6260 N   0  0  0  0  0  0  0  0  0  0  0  0
  -23.8340  -32.1530   24.1020 O   0  0  0  0  0  0  0  0  0  0  0  0
  -23.4650  -29.3680   22.8960 C   0  0  0  0  0  0  0  0  0  0  0  0
  -22.2050  -29.0110   22.6000 N   0  0  0  0  0  0  0  0  0  0  0  0
  -24.0980  -28.8630   23.8270 O   0  0  0  0  0  0  0  0  0  0  0  0
  -21.7500  -29.4760   21.8280 H   0  0  0  0  0  0  0  0  0  0  0  0
  -18.9610  -27.4100   22.6930 C   0  0  0  0  0  0  0  0  0  0  0  0
  -21.4030  -28.0090   23.3030 C   0  0  0  0  0  3  0  0  0  0  0  0
  -21.7610  -26.5800   22.8270 C   0  0  0  0  0  2  0  0  0  0  0  0
  -20.8670  -26.0780   21.6880 C   0  0  0  0  0  2  0  0  0  0  0  0
  -19.3990  -26.0710   22.1260 C   0  0  0  0  0  2  0  0  0  0  0  0
  -19.9030  -28.3290   23.2290 C   0  0  0  0  0  0  0  0  0  0  0  0
  -19.4440  -29.5760   23.7070 C   0  0  0  0  0  3  0  0  0  0  0  0
  -18.0780  -29.9090   23.6570 C   0  0  0  0  0  3  0  0  0  0  0  0
  -17.1490  -28.9890   23.1410 C   0  0  0  0  0  3  0  0  0  0  0  0
  -17.5910  -27.7430   22.6650 C   0  0  0  0  0  3  0  0  0  0  0  0
  -26.1280  -32.7530   24.4260 C   0  0  0  0  0  3  0  0  0  0  0  0
  -26.4820  -32.1530   25.8410 C   0  0  1  0  0  0  0  0  0  0  0  0
  -25.2460  -31.9270   26.7480 C   0  0  0  0  0  1  0  0  0  0  0  0
  -27.2080  -30.8000   25.6910 C   0  0  0  0  0  1  0  0  0  0  0  0
  -27.4640  -33.0940   26.5820 C   0  0  0  0  0  1  0  0  0  0  0  0
  -25.7060  -34.1520   24.5530 N   0  0  0  0  0  0  0  0  0  0  0  0
  -26.0940  -35.1390   23.7320 C   0  0  0  0  0  0  0  0  0  0  0  0
  -26.9090  -34.9780   22.8190 O   0  0  0  0  0  0  0  0  0  0  0  0
  -24.9970  -34.3590   25.2420 H   0  0  0  0  0  0  0  0  0  0  0  0
  -24.3400  -36.7680   22.9530 C   0  0  0  0  0  1  0  0  0  0  0  0
  -25.4770  -36.5350   23.9630 C   0  0  0  0  0  3  0  0  0  0  0  0
  -27.4270  -37.6390   24.9690 C   0  0  0  0  0  1  0  0  0  0  0  0
  -26.4640  -37.6400   23.8700 N   0  0  0  0  0  0  0  0  0  0  0  0
  -25.9900  -38.5410   23.8660 H   0  0  0  0  0  0  0  0  0  0  0  0
  1  3  2  0
  1  4  1  0
  2  5  1  0
  2 10  1  0
  3  2  1  0
  4  5  1  0
  5 49  1  0
  6  7  1  1
  6  1  1  0
  8  6  1  0
  9  6  1  0
 10 20  1  0
 11 20  1  0
 12 17  1  0
 13 14  1  0
 13 12  1  0
 15 14  1  0
 15 24  1  0
 15 16  1  0
 17 11  1  0
 17 16  1  0
 18 11  2  0
 20 19  1  0
 21 22  2  0
 22 23  1  0
 22 41  1  0
 23 26  1  0
 24 21  1  0
 24 25  1  0
 25 23  2  0
 26 27  1  0
 27 28  2  0
 29 32  1  0
 29 28  1  0
 30 29  2  0
 31 30  1  0
 31 26  2  0
 32 33  1  0
 33 38  2  0
 33 34  1  0
 34 35  2  0
 35 36  1  0
 36 40  1  0
 37 36  2  0
 38 37  1  0
 39 38  1  0
 41 42  1  0
 42 45  1  0
 42 44  1  0
 43 41  2  0
 46 21  1  0
 47 46  1  0
 48 46  1  0
 50 49  2  0
 50 52  1  0
 52 51  1  0
 53 52  1  0
 53 54  1  0
 55 54  1  0
 56 67  2  0
 57 55  1  0
 57 62  1  0
 58 66  1  0
 58 68  1  0
 59 61  1  0
 60 66  1  0
 61 62  2  0
 61 60  1  0
 63 57  2  0
 64 63  1  0
 64 59  2  0
 65 59  1  0
 65 58  1  0
 66 56  1  0
 68 70  2  0
 69 68  1  0
 71 69  1  0
 72 77  1  0
 73 69  1  0
 74 73  1  0
 75 76  1  0
 75 74  1  0
 76 72  1  0
 77 73  1  0
 77 78  2  0
 79 78  1  0
 80 79  2  0
 81 72  2  0
 81 80  1  0
 82 56  1  0
 82 87  1  0
 82 83  1  0
 83 86  1  1
 83 84  1  0
 85 83  1  0
 87 90  1  0
 88 92  1  0
 88 87  1  0
 89 88  2  0
 92 91  1  0
 94 92  1  0
 94 93  1  0
 95 94  1  0
M  ISO  4  11 100  20 100  54 101  55 101
M  END
>  <TORSDO>  (6) 
F 23

>  <SCORE>  (6) 
-7.928

>  <name>  (6) 
6

>  <ligand_id>  (6) 
6

>  <original_smiles>  (6) 
[H]c1c([H])c([H])c2c(c1[H])C([H])([H])C([H])([H])C([H])([H])C2([H])N([H])C(=O)C1([H])N(C(=O)C([H])(N([H])C(=O)C([H])(N([H])C([H])([H])[H])C([H])([H])[H])C(C([H])([H])[H])(C([H])([H])[H])C([H])([H])[H])C([H])([H])c2c([H])c(OC([H])([H])C([H])([H])C([H])(C([H])([H])[H])C([H])([H])C([H])([H])n3nc(C(F)(F)F)nc3C([H])([H])N(C(=O)N3C([H])([H])C([H])([H])C([H])([H])C([H])(n4nc(-c5c([H])c([H])c(Oc6c([H])c([H])c(F)c([H])c6F)c([H])c5[H])c(C(=O)N([H])[H])c4N([H])[H])C3([H])[H])C([H])([H])[H])c([H])c([H])c2C1([H])[H]

>  <smiles>  (6) 
[H]c1c([H])c([H])c2c(c1[H])C([H])([H])C([H])([H])C([H])([H])C2([H])N([H])C(=O)C1([H])N(C(=O)C([H])(N([H])C(=O)C([H])(N([H])C([H])([H])[H])C([H])([H])[H])C(C([H])([H])[H])(C([H])([H])[H])C([H])([H])[H])C([H])([H])c2c([H])c(OC([H])([H])C([H])([H])C([H])(C([H])([H])[H])C([H])([H])C([H])([H])n3nc(C(F)(F)F)nc3C([H])([H])N(C(=O)N3C([H])([H])C([H])([H])C([H])([H])C([H])(n4nc(-c5c([H])c([H])c(Oc6c([H])c([H])c(F)c([H])c6F)c([H])c5[H])c(C(=O)N([H])[H])c4N([H])[H])C3([H])[H])C([H])([H])[H])c([H])c([H])c2C1([H])[H]

$$$$
7:0:0
     RDKit          3D

 96105  0  0  1  0  0  0  0  0999 V2000
  -30.4470  -21.9100   19.9710 C   0  0  0  0  0  3  0  0  0  0  0  0
  -31.5690  -20.1270   19.8320 C   0  0  0  0  0  0  0  0  0  0  0  0
  -31.3490  -21.3180   19.1740 N   0  0  0  0  0  0  0  0  0  0  0  0
  -30.8070  -19.9560   20.9100 N   0  0  0  0  0  2  0  0  0  0  0  0
  -30.1370  -21.1310   21.0240 N   0  0  0  0  0  0  0  0  0  0  0  0
  -29.6530  -23.7950   18.3660 C   0  0  0  0  0  2  0  0  0  0  0  0
  -30.6920  -24.3960   20.5970 C   0  0  0  0  0  2  0  0  0  0  0  0
  -28.8830  -25.1500   18.2790 C   0  0  0  0  0  2  0  0  0  0  0  0
  -30.3720  -25.8610   20.1870 C   0  0  0  0  0  2  0  0  0  0  0  0
  -29.8880  -23.3260   19.8170 C   0  0  0  0  0  3  0  0  0  0  0  0
  -28.9800  -26.0390   19.5490 C   0  0  0  0  0  3  0  0  0  0  0  0
  -28.7770  -27.4410   19.2600 O   0  0  0  0  0  0  0  0  0  0  0  0
  -24.3540  -31.5120   23.0970 C   0  0  0  0  0  0  0  0  0  0  0  0
  -27.5000  -27.9600   19.3860 C   0  0  0  0  0  0  0  0  0  0  0  0
  -23.2980  -30.1580   21.3160 C   0  0  0  0  0  3  0  0  0  0  0  0
  -24.9000  -29.0610   19.6580 C   0  0  0  0  0  0  0  0  0  0  0  0
  -25.7250  -30.9350   21.0940 C   0  0  0  0  0  2  0  0  0  0  0  0
  -25.9910  -29.6870   20.2740 C   0  0  0  0  0  0  0  0  0  0  0  0
  -27.2920  -29.1490   20.1270 C   0  0  0  0  0  3  0  0  0  0  0  0
  -26.3880  -27.3460   18.7710 C   0  0  0  0  0  3  0  0  0  0  0  0
  -25.0930  -27.8900   18.9030 C   0  0  0  0  0  3  0  0  0  0  0  0
  -23.5430  -29.6990   19.8540 C   0  0  0  0  0  2  0  0  0  0  0  0
  -24.4780  -30.8790   21.8960 N   0  0  0  0  0  0  0  0  0  0  0  0
  -23.2720  -31.5390   23.7010 O   0  0  0  0  0  0  0  0  0  0  0  0
  -22.8570  -28.9340   22.1520 C   0  0  0  0  0  0  0  0  0  0  0  0
  -21.6010  -28.4980   21.9620 N   0  0  0  0  0  0  0  0  0  0  0  0
  -23.6430  -28.3830   22.9270 O   0  0  0  0  0  0  0  0  0  0  0  0
  -21.0190  -29.0100   21.3140 H   0  0  0  0  0  0  0  0  0  0  0  0
  -18.5550  -26.5660   22.1820 C   0  0  0  0  0  0  0  0  0  0  0  0
  -20.9850  -27.3400   22.6050 C   0  0  0  0  0  3  0  0  0  0  0  0
  -21.4170  -26.0250   21.9140 C   0  0  0  0  0  2  0  0  0  0  0  0
  -20.4440  -25.5710   20.8210 C   0  0  0  0  0  2  0  0  0  0  0  0
  -19.0430  -25.3550   21.4030 C   0  0  0  0  0  2  0  0  0  0  0  0
  -19.4670  -27.5060   22.7310 C   0  0  0  0  0  0  0  0  0  0  0  0
  -18.9600  -28.6320   23.4140 C   0  0  0  0  0  3  0  0  0  0  0  0
  -17.5740  -28.8260   23.5550 C   0  0  0  0  0  3  0  0  0  0  0  0
  -16.6750  -27.8840   23.0230 C   0  0  0  0  0  3  0  0  0  0  0  0
  -17.1670  -26.7550   22.3420 C   0  0  0  0  0  3  0  0  0  0  0  0
  -25.5580  -32.2550   23.7580 C   0  0  0  0  0  3  0  0  0  0  0  0
  -26.0830  -31.5440   25.0650 C   0  0  1  0  0  0  0  0  0  0  0  0
  -24.9670  -31.2000   26.0790 C   0  0  0  0  0  1  0  0  0  0  0  0
  -26.8210  -30.2320   24.7120 C   0  0  0  0  0  1  0  0  0  0  0  0
  -27.1120  -32.4520   25.7790 C   0  0  0  0  0  1  0  0  0  0  0  0
  -25.1240  -33.6270   24.0540 N   0  0  0  0  0  0  0  0  0  0  0  0
  -25.4040  -34.6920   23.2910 C   0  0  0  0  0  0  0  0  0  0  0  0
  -26.1260  -34.6300   22.2920 O   0  0  0  0  0  0  0  0  0  0  0  0
  -24.4840  -33.7430   24.8250 H   0  0  0  0  0  0  0  0  0  0  0  0
  -23.5560  -36.3350   22.8280 C   0  0  0  0  0  1  0  0  0  0  0  0
  -24.7850  -36.0420   23.7030 C   0  0  0  0  0  3  0  0  0  0  0  0
  -26.7870  -37.1180   24.6340 C   0  0  0  0  0  1  0  0  0  0  0  0
  -25.7360  -37.1730   23.6220 N   0  0  0  0  0  0  0  0  0  0  0  0
  -25.2480  -38.0600   23.7220 H   0  0  0  0  0  0  0  0  0  0  0  0
  -33.1720  -18.2990   20.5630 C   0  0  0  0  0  1  0  0  0  0  0  0
  -33.7010  -19.7120   18.6220 C   0  0  0  0  0  1  0  0  0  0  0  0
  -32.5270  -19.0210   19.3530 C   0  0  2  0  0  0  0  0  0  0  0  0
  -31.8610  -17.9950   18.3630 C   0  0  0  0  0  2  0  0  0  0  0  0
  -31.8790  -15.5780   19.0720 C   0  0  0  0  0  0  0  0  0  0  0  0
  -31.6840  -13.1300   18.7570 C   0  0  0  0  0  2  0  0  0  0  0  0
  -30.6780  -12.7960   17.6380 C   0  0  0  0  0  2  0  0  0  0  0  0
  -29.2560  -12.6600   18.2180 C   0  0  0  0  0  2  0  0  0  0  0  0
  -28.8810  -13.8470   19.1380 C   0  0  0  0  0  3  0  0  0  0  0  0
  -30.0150  -14.1630   20.1510 C   0  0  0  0  0  2  0  0  0  0  0  0
  -31.2410  -14.3980   19.3760 N   0  0  0  0  0  0  0  0  0  0  0  0
  -33.0580  -15.5390   18.7150 O   0  0  0  0  0  0  0  0  0  0  0  0
  -29.7480  -16.9550   18.8030 C   0  0  0  0  0  1  0  0  0  0  0  0
  -31.1970  -16.7780   18.9410 N   0  0  0  0  0  0  0  0  0  0  0  0
  -26.6670  -14.6270   20.1810 C   0  0  0  0  0  0  0  0  0  0  0  0
  -25.5850  -13.9290   20.6420 C   0  0  0  0  0  0  0  0  0  0  0  0
  -25.9170  -12.5470   20.4930 C   0  0  0  0  0  0  0  0  0  0  0  0
  -27.5900  -13.6700   19.7830 N   0  0  0  0  0  0  0  0  0  0  0  0
  -27.1520  -12.4130   20.0310 N   0  0  0  0  0  0  0  0  0  0  0  0
  -25.1110  -11.3430   20.7070 C   0  0  0  0  0  0  0  0  0  0  0  0
  -25.4190  -10.4240   21.7350 C   0  0  0  0  0  3  0  0  0  0  0  0
  -24.6190   -9.2790   21.9320 C   0  0  0  0  0  3  0  0  0  0  0  0
  -23.4980   -9.0470   21.1000 C   0  0  0  0  0  0  0  0  0  0  0  0
  -23.2100   -9.9520   20.0640 C   0  0  0  0  0  3  0  0  0  0  0  0
  -24.0110  -11.0890   19.8660 C   0  0  0  0  0  3  0  0  0  0  0  0
  -22.6780   -7.9500   21.2040 O   0  0  0  0  0  0  0  0  0  0  0  0
  -22.2840   -7.4590   22.4230 C   0  0  0  0  0  0  0  0  0  0  0  0
  -21.5090   -8.2260   23.3200 C   0  0  0  0  0  3  0  0  0  0  0  0
  -21.0690   -7.6590   24.5320 C   0  0  0  0  0  3  0  0  0  0  0  0
  -21.3920   -6.3240   24.8440 C   0  0  0  0  0  0  0  0  0  0  0  0
  -22.1580   -5.5580   23.9500 C   0  0  0  0  0  3  0  0  0  0  0  0
  -22.6010   -6.1230   22.7400 C   0  0  0  0  0  0  0  0  0  0  0  0
  -23.3230   -5.3730   21.8720 F   0  0  0  0  0  0  0  0  0  0  0  0
  -20.9610   -5.7760   26.0040 F   0  0  0  0  0  0  0  0  0  0  0  0
  -24.2790  -14.5060   21.1030 C   0  0  0  0  0  0  0  0  0  0  0  0
  -23.6020  -13.8290   22.0240 N   0  0  0  0  0  0  0  0  0  0  0  0
  -23.8730  -15.5880   20.6820 O   0  0  0  0  0  0  0  0  0  0  0  0
  -23.9460  -12.9510   22.3840 H   0  0  0  0  0  0  0  0  0  0  0  0
  -22.7290  -14.1940   22.3750 H   0  0  0  0  0  0  0  0  0  0  0  0
  -26.9260  -15.9870   20.0430 N   0  0  0  0  0  0  0  0  0  0  0  0
  -26.2410  -16.6930   20.2930 H   0  0  0  0  0  0  0  0  0  0  0  0
  -27.7700  -16.3760   19.6460 H   0  0  0  0  0  0  0  0  0  0  0  0
  -29.7180  -20.8250   23.4900 C   0  0  0  0  0  1  0  0  0  0  0  0
  -29.2180  -21.3580   22.1370 C   0  0  0  0  0  2  0  0  0  0  0  0
  1  3  1  0
  1  5  1  0
  2  4  1  0
  3  2  2  0
  4  5  1  0
  5 96  1  0
  8  6  1  0
  8 11  1  0
  9  7  1  0
 10  6  1  0
 10  1  1  0
 10  7  1  0
 11 12  1  0
 11  9  1  0
 12 14  1  0
 13 24  2  0
 14 19  1  0
 15 23  1  0
 15 25  1  0
 16 22  1  0
 16 18  1  0
 17 23  1  0
 18 17  1  0
 19 18  2  0
 20 21  1  0
 20 14  2  0
 21 16  2  0
 22 15  1  0
 23 13  1  0
 25 27  2  0
 26 25  1  0
 28 26  1  0
 29 38  2  0
 29 34  1  0
 30 26  1  0
 30 34  1  0
 31 30  1  0
 32 33  1  0
 32 31  1  0
 33 29  1  0
 34 35  2  0
 35 36  1  0
 37 36  2  0
 38 37  1  0
 39 13  1  0
 39 44  1  0
 39 40  1  0
 40 43  1  1
 40 41  1  0
 42 40  1  0
 44 47  1  0
 45 49  1  0
 45 44  1  0
 46 45  2  0
 49 48  1  0
 51 49  1  0
 51 52  1  0
 51 50  1  0
 55 54  1  6
 55  2  1  0
 55 53  1  0
 56 66  1  0
 56 55  1  0
 57 63  1  0
 58 63  1  0
 59 60  1  0
 59 58  1  0
 61 60  1  0
 61 70  1  0
 61 62  1  0
 63 62  1  0
 64 57  2  0
 65 66  1  0
 66 57  1  0
 67 68  2  0
 68 87  1  0
 69 68  1  0
 69 72  1  0
 70 71  1  0
 70 67  1  0
 71 69  2  0
 72 73  1  0
 73 74  2  0
 75 78  1  0
 75 74  1  0
 76 75  2  0
 77 76  1  0
 77 72  2  0
 78 79  1  0
 79 84  2  0
 79 80  1  0
 80 81  2  0
 81 82  1  0
 82 86  1  0
 83 82  2  0
 84 83  1  0
 85 84  1  0
 87 88  1  0
 88 91  1  0
 88 90  1  0
 89 87  2  0
 92 67  1  0
 92 93  1  0
 94 92  1  0
 96 95  1  0
M  ISO  4  11 101  12 101  57 100  66 100
M  END
>  <TORSDO>  (7) 
F 20

>  <SCORE>  (7) 
-9.030

>  <name>  (7) 
7

>  <ligand_id>  (7) 
7

>  <original_smiles>  (7) 
[H]c1c([H])c([H])c2c(c1[H])C([H])([H])C([H])([H])C([H])([H])C2([H])N([H])C(=O)C1([H])N(C(=O)C([H])(N([H])C(=O)C([H])(N([H])C([H])([H])[H])C([H])([H])[H])C(C([H])([H])[H])(C([H])([H])[H])C([H])([H])[H])C([H])([H])c2c([H])c(OC3([H])C([H])([H])C([H])([H])C([H])(c4nc(C(C([H])([H])[H])(C([H])([H])[H])C([H])([H])N(C(=O)N5C([H])([H])C([H])([H])C([H])([H])C([H])(n6nc(-c7c([H])c([H])c(Oc8c([H])c([H])c(F)c([H])c8F)c([H])c7[H])c(C(=O)N([H])[H])c6N([H])[H])C5([H])[H])C([H])([H])[H])nn4C([H])([H])C([H])([H])[H])C([H])([H])C3([H])[H])c([H])c([H])c2C1([H])[H]

>  <smiles>  (7) 
[H]c1c([H])c([H])c2c(c1[H])C([H])([H])C([H])([H])C([H])([H])C2([H])N([H])C(=O)C1([H])N(C(=O)C([H])(N([H])C(=O)C([H])(N([H])C([H])([H])[H])C([H])([H])[H])C(C([H])([H])[H])(C([H])([H])[H])C([H])([H])[H])C([H])([H])c2c([H])c(OC3([H])C([H])([H])C([H])([H])C([H])(c4nc(C(C([H])([H])[H])(C([H])([H])[H])C([H])([H])N(C(=O)N5C([H])([H])C([H])([H])C([H])([H])C([H])(n6nc(-c7c([H])c([H])c(Oc8c([H])c([H])c(F)c([H])c8F)c([H])c7[H])c(C(=O)N([H])[H])c6N([H])[H])C5([H])[H])C([H])([H])[H])nn4C([H])([H])C([H])([H])[H])C([H])([H])C3([H])[H])c([H])c([H])c2C1([H])[H]

$$$$
8:0:0
     RDKit          3D

 97105  0  0  1  0  0  0  0  0999 V2000
  -27.0440  -22.8210   18.8610 C   0  0  0  0  0  2  0  0  0  0  0  0
  -27.5290  -23.9550   19.7200 N   0  0  1  0  0  4  0  0  0  0  0  0
  -26.7030  -24.5370   19.7870 H   0  0  0  0  0  0  0  0  0  0  0  0
  -27.7690  -23.6220   21.1600 C   0  0  0  0  0  2  0  0  0  0  0  0
  -29.3790  -22.7330   22.9570 C   0  0  0  0  0  1  0  0  0  0  0  0
  -29.2530  -23.4120   21.5720 C   0  0  0  0  0  2  0  0  0  0  0  0
  -28.5610  -24.8360   19.0910 C   0  0  0  0  0  2  0  0  0  0  0  0
  -28.0340  -25.9100   18.0950 C   0  0  0  0  0  2  0  0  0  0  0  0
  -27.9620  -27.2250   18.6790 O   0  0  0  0  0  0  0  0  0  0  0  0
  -24.3640  -31.6200   22.9620 C   0  0  0  0  0  0  0  0  0  0  0  0
  -26.7460  -27.8270   18.9440 C   0  0  0  0  0  0  0  0  0  0  0  0
  -22.9990  -30.3910   21.3060 C   0  0  0  0  0  3  0  0  0  0  0  0
  -24.3060  -29.1560   19.5050 C   0  0  0  0  0  0  0  0  0  0  0  0
  -25.4500  -30.9330   20.8350 C   0  0  0  0  0  2  0  0  0  0  0  0
  -25.5090  -29.6660   20.0060 C   0  0  0  0  0  0  0  0  0  0  0  0
  -26.7250  -28.9980   19.7430 C   0  0  0  0  0  3  0  0  0  0  0  0
  -25.5170  -27.3340   18.4500 C   0  0  0  0  0  3  0  0  0  0  0  0
  -24.3040  -27.9820   18.7360 C   0  0  0  0  0  3  0  0  0  0  0  0
  -23.0450  -29.9180   19.8290 C   0  0  0  0  0  2  0  0  0  0  0  0
  -24.2970  -30.9850   21.7590 N   0  0  0  0  0  0  0  0  0  0  0  0
  -23.3600  -31.7550   23.6700 O   0  0  0  0  0  0  0  0  0  0  0  0
  -22.5250  -29.2130   22.1830 C   0  0  0  0  0  0  0  0  0  0  0  0
  -21.2200  -28.9010   22.1180 N   0  0  0  0  0  0  0  0  0  0  0  0
  -23.3250  -28.5870   22.8820 O   0  0  0  0  0  0  0  0  0  0  0  0
  -20.6160  -29.4600   21.5340 H   0  0  0  0  0  0  0  0  0  0  0  0
  -18.0680  -27.2040   22.5400 C   0  0  0  0  0  0  0  0  0  0  0  0
  -20.5620  -27.8100   22.8360 C   0  0  0  0  0  3  0  0  0  0  0  0
  -20.8730  -26.4500   22.1670 C   0  0  0  0  0  2  0  0  0  0  0  0
  -19.8180  -26.0390   21.1360 C   0  0  0  0  0  2  0  0  0  0  0  0
  -18.4330  -25.9390   21.7830 C   0  0  0  0  0  2  0  0  0  0  0  0
  -19.0650  -28.0910   23.0220 C   0  0  0  0  0  0  0  0  0  0  0  0
  -18.6680  -29.2770   23.6770 C   0  0  0  0  0  3  0  0  0  0  0  0
  -17.3040  -29.5690   23.8710 C   0  0  0  0  0  3  0  0  0  0  0  0
  -16.3220  -28.6780   23.4080 C   0  0  0  0  0  3  0  0  0  0  0  0
  -16.7030  -27.5010   22.7400 C   0  0  0  0  0  3  0  0  0  0  0  0
  -25.7000  -32.2310   23.4880 C   0  0  0  0  0  3  0  0  0  0  0  0
  -25.4030  -33.5800   23.9880 N   0  0  0  0  0  0  0  0  0  0  0  0
  -25.6860  -34.7160   23.3320 C   0  0  0  0  0  0  0  0  0  0  0  0
  -26.2950  -34.7400   22.2580 O   0  0  0  0  0  0  0  0  0  0  0  0
  -24.8400  -33.6340   24.8240 H   0  0  0  0  0  0  0  0  0  0  0  0
  -23.9410  -36.5270   23.2530 C   0  0  0  0  0  1  0  0  0  0  0  0
  -25.2100  -36.0360   23.9670 C   0  0  0  0  0  3  0  0  0  0  0  0
  -27.3700  -36.8360   24.8130 C   0  0  0  0  0  1  0  0  0  0  0  0
  -26.2340  -37.1040   23.9360 N   0  0  0  0  0  0  0  0  0  0  0  0
  -25.8290  -37.9970   24.2090 H   0  0  0  0  0  0  0  0  0  0  0  0
  -26.3800  -31.3590   24.6150 C   0  0  1  0  0  0  0  0  0  0  0  0
  -25.4240  -30.9970   25.7770 C   0  0  0  0  0  1  0  0  0  0  0  0
  -26.9430  -30.0430   24.0290 C   0  0  0  0  0  1  0  0  0  0  0  0
  -27.5930  -32.1150   25.2120 C   0  0  0  0  0  1  0  0  0  0  0  0
  -27.3550  -21.3720   19.3370 C   0  0  0  0  0  2  0  0  0  0  0  0
  -28.7030  -20.8040   18.8490 C   0  0  0  0  0  2  0  0  0  0  0  0
  -30.9050  -14.7590   20.3490 C   0  0  0  0  0  0  0  0  0  0  0  0
  -30.6280  -12.4890   19.5130 C   0  0  0  0  0  2  0  0  0  0  0  0
  -29.7030  -12.5400   18.2770 C   0  0  0  0  0  2  0  0  0  0  0  0
  -28.2260  -12.4690   18.6950 C   0  0  0  0  0  2  0  0  0  0  0  0
  -27.8560  -13.4060   19.8730 C   0  0  0  0  0  3  0  0  0  0  0  0
  -28.9100  -13.3570   21.0100 C   0  0  0  0  0  2  0  0  0  0  0  0
  -30.2270  -13.5840   20.4020 N   0  0  0  0  0  0  0  0  0  0  0  0
  -32.1330  -14.7940   20.4420 O   0  0  0  0  0  0  0  0  0  0  0  0
  -28.2590  -18.3030   18.8290 C   0  0  0  0  0  3  0  0  0  0  0  0
  -29.0020  -19.3790   19.3370 C   0  0  0  0  0  0  0  0  0  0  0  0
  -30.0530  -19.0400   20.2260 C   0  0  0  0  0  0  0  0  0  0  0  0
  -29.6760  -16.7950   19.8090 C   0  0  0  0  0  0  0  0  0  0  0  0
  -31.0370  -15.7730   18.1680 C   0  0  0  0  0  1  0  0  0  0  0  0
  -28.5810  -17.0250   19.0820 N   0  0  0  0  0  0  0  0  0  0  0  0
  -30.3850  -17.7460   20.4220 N   0  0  0  0  0  0  0  0  0  0  0  0
  -30.3440  -15.6370   19.4720 N   0  0  0  0  0  0  0  0  0  0  0  0
  -25.4540  -14.0180   20.5610 C   0  0  0  0  0  0  0  0  0  0  0  0
  -24.3710  -13.2430   20.9000 C   0  0  0  0  0  0  0  0  0  0  0  0
  -24.8250  -11.8920   20.8540 C   0  0  0  0  0  0  0  0  0  0  0  0
  -26.5000  -13.1330   20.3430 N   0  0  0  0  0  0  0  0  0  0  0  0
  -26.1240  -11.8520   20.5820 N   0  0  0  0  0  0  0  0  0  0  0  0
  -24.0860  -10.6300   20.9980 C   0  0  0  0  0  0  0  0  0  0  0  0
  -24.4960   -9.6320   21.9120 C   0  0  0  0  0  3  0  0  0  0  0  0
  -23.7580   -8.4350   22.0450 C   0  0  0  0  0  3  0  0  0  0  0  0
  -22.5930   -8.2270   21.2680 C   0  0  0  0  0  0  0  0  0  0  0  0
  -22.2000   -9.2160   20.3490 C   0  0  0  0  0  3  0  0  0  0  0  0
  -22.9400  -10.4040   20.2100 C   0  0  0  0  0  3  0  0  0  0  0  0
  -21.8260   -7.0850   21.3140 O   0  0  0  0  0  0  0  0  0  0  0  0
  -21.7420   -6.3230   22.4530 C   0  0  0  0  0  0  0  0  0  0  0  0
  -21.2820   -6.8570   23.6770 C   0  0  0  0  0  3  0  0  0  0  0  0
  -21.1450   -6.0210   24.8020 C   0  0  0  0  0  3  0  0  0  0  0  0
  -21.4610   -4.6540   24.7070 C   0  0  0  0  0  0  0  0  0  0  0  0
  -21.9190   -4.1190   23.4910 C   0  0  0  0  0  3  0  0  0  0  0  0
  -22.0570   -4.9520   22.3660 C   0  0  0  0  0  0  0  0  0  0  0  0
  -22.4750   -4.4280   21.1890 F   0  0  0  0  0  0  0  0  0  0  0  0
  -21.3260   -3.8480   25.7860 F   0  0  0  0  0  0  0  0  0  0  0  0
  -22.9710  -13.7270   21.1510 C   0  0  0  0  0  0  0  0  0  0  0  0
  -22.2270  -13.0210   21.9960 N   0  0  0  0  0  0  0  0  0  0  0  0
  -22.5440  -14.7590   20.6420 O   0  0  0  0  0  0  0  0  0  0  0  0
  -22.5860  -12.1770   22.4180 H   0  0  0  0  0  0  0  0  0  0  0  0
  -21.2980  -13.3350   22.2280 H   0  0  0  0  0  0  0  0  0  0  0  0
  -25.6230  -15.3870   20.4000 N   0  0  0  0  0  0  0  0  0  0  0  0
  -24.8560  -16.0350   20.5380 H   0  0  0  0  0  0  0  0  0  0  0  0
  -26.4290  -15.8110   19.9460 H   0  0  0  0  0  0  0  0  0  0  0  0
  -31.9490  -19.5130   21.9390 C   0  0  0  0  0  1  0  0  0  0  0  0
  -30.9090  -20.0870   20.9480 C   0  0  0  0  0  2  0  0  0  0  0  0
  1 50  1  0
  1  2  1  0
  2  3  1  1
  2  4  1  0
  4  6  1  0
  6  5  1  0
  7  2  1  0
  8  9  1  0
  8  7  1  0
  9 11  1  0
 10 21  2  0
 11 16  1  0
 12 20  1  0
 12 22  1  0
 13 19  1  0
 13 15  1  0
 14 20  1  0
 15 14  1  0
 16 15  2  0
 17 18  1  0
 17 11  2  0
 18 13  2  0
 19 12  1  0
 20 10  1  0
 22 24  2  0
 23 22  1  0
 25 23  1  0
 26 35  2  0
 26 31  1  0
 27 23  1  0
 27 31  1  0
 28 27  1  0
 29 30  1  0
 29 28  1  0
 30 26  1  0
 31 32  2  0
 32 33  1  0
 34 33  2  0
 35 34  1  0
 36 10  1  0
 36 37  1  0
 36 46  1  0
 37 40  1  0
 38 42  1  0
 38 37  1  0
 39 38  2  0
 42 41  1  0
 44 42  1  0
 44 45  1  0
 44 43  1  0
 46 49  1  1
 46 47  1  0
 48 46  1  0
 51 50  1  0
 51 61  1  0
 52 58  1  0
 52 59  2  0
 53 58  1  0
 54 55  1  0
 54 53  1  0
 56 55  1  0
 56 71  1  0
 56 57  1  0
 58 57  1  0
 60 65  1  0
 60 61  2  0
 61 62  1  0
 62 66  2  0
 62 97  1  0
 63 66  1  0
 64 67  1  0
 65 63  2  0
 67 63  1  0
 67 52  1  0
 68 69  2  0
 69 88  1  0
 70 69  1  0
 70 73  1  0
 71 68  1  0
 71 72  1  0
 72 70  2  0
 73 74  1  0
 74 75  2  0
 76 79  1  0
 76 75  1  0
 77 76  2  0
 78 77  1  0
 78 73  2  0
 79 80  1  0
 80 81  1  0
 81 82  2  0
 83 82  1  0
 83 87  1  0
 84 83  2  0
 85 80  2  0
 85 84  1  0
 86 85  1  0
 88 89  1  0
 89 92  1  0
 89 91  1  0
 90 88  2  0
 93 94  1  0
 93 68  1  0
 95 93  1  0
 97 96  1  0
M  ISO  4   8 101   9 101  52 100  67 100
M  END
>  <TORSDO>  (8) 
F 24

>  <SCORE>  (8) 
-11.455

>  <name>  (8) 
8

>  <ligand_id>  (8) 
8

>  <original_smiles>  (8) 
[H]c1nc(N(C(=O)N2C([H])([H])C([H])([H])C([H])([H])C([H])(n3nc(-c4c([H])c([H])c(Oc5c([H])c([H])c(F)c([H])c5F)c([H])c4[H])c(C(=O)N([H])[H])c3N([H])[H])C2([H])[H])C([H])([H])[H])nc(C([H])([H])C([H])([H])[H])c1C([H])([H])C([H])([H])C([H])([H])[N+]([H])(C([H])([H])C([H])([H])Oc1c([H])c([H])c2c(c1[H])C([H])([H])N(C(=O)C([H])(N([H])C(=O)C([H])(N([H])C([H])([H])[H])C([H])([H])[H])C(C([H])([H])[H])(C([H])([H])[H])C([H])([H])[H])C([H])(C(=O)N([H])C1([H])c3c([H])c([H])c([H])c([H])c3C([H])([H])C([H])([H])C1([H])[H])C2([H])[H])C([H])([H])C([H])([H])C([H])([H])[H]

>  <smiles>  (8) 
[H]c1nc(N(C(=O)N2C([H])([H])C([H])([H])C([H])([H])C([H])(n3nc(-c4c([H])c([H])c(Oc5c([H])c([H])c(F)c([H])c5F)c([H])c4[H])c(C(=O)N([H])[H])c3N([H])[H])C2([H])[H])C([H])([H])[H])nc(C([H])([H])C([H])([H])[H])c1C([H])([H])C([H])([H])C([H])([H])[N+]([H])(C([H])([H])C([H])([H])Oc1c([H])c([H])c2c(c1[H])C([H])([H])N(C(=O)C([H])(N([H])C(=O)C([H])(N([H])C([H])([H])[H])C([H])([H])[H])C(C([H])([H])[H])(C([H])([H])[H])C([H])([H])[H])C([H])(C(=O)N([H])C1([H])c3c([H])c([H])c([H])c([H])c3C([H])([H])C([H])([H])C1([H])[H])C2([H])[H])C([H])([H])C([H])([H])C([H])([H])[H]

$$$$
9:0:0
     RDKit          3D

 98106  0  0  1  0  0  0  0  0999 V2000
  -28.8470  -22.9700   18.3420 C   0  0  0  0  0  2  0  0  0  0  0  0
  -29.8350  -22.0810   20.1350 C   0  0  0  0  0  0  0  0  0  0  0  0
  -28.9430  -24.1770   20.1880 C   0  0  0  0  0  0  0  0  0  0  0  0
  -29.5090  -21.9430   18.8600 N   0  0  0  0  0  0  0  0  0  0  0  0
  -28.5370  -24.1140   18.9280 N   0  0  0  0  0  0  0  0  0  0  0  0
  -29.5530  -23.1830   20.8500 N   0  0  0  0  0  2  0  0  0  0  0  0
  -32.2280  -21.9420   20.7030 C   0  0  0  0  0  1  0  0  0  0  0  0
  -30.5660  -20.9050   22.2590 C   0  0  0  0  0  1  0  0  0  0  0  0
  -30.9170  -21.1050   20.7590 C   0  0  1  0  0  0  0  0  0  0  0  0
  -32.5800  -19.0710   20.5860 C   0  0  0  0  0  1  0  0  0  0  0  0
  -31.3260  -19.6430   18.5540 C   0  0  0  0  0  1  0  0  0  0  0  0
  -31.2020  -19.6200   20.1000 C   0  0  2  0  0  0  0  0  0  0  0  0
  -30.1610  -18.5010   20.5220 C   0  0  0  0  0  2  0  0  0  0  0  0
  -29.4040  -16.8990   18.7750 C   0  0  0  0  0  1  0  0  0  0  0  0
  -30.3560  -17.1330   19.8930 N   0  0  2  0  0  4  0  0  0  0  0  0
  -31.2710  -17.1660   19.4620 H   0  0  0  0  0  0  0  0  0  0  0  0
  -29.3110  -15.8740   21.8580 C   0  0  0  0  0  1  0  0  0  0  0  0
  -30.4720  -15.9530   20.8390 C   0  0  0  0  0  3  0  0  0  0  0  0
  -30.9700  -14.6270   20.1260 C   0  0  0  0  0  0  0  0  0  0  0  0
  -30.6090  -12.4730   18.9450 C   0  0  0  0  0  2  0  0  0  0  0  0
  -29.6260  -12.6920   17.7700 C   0  0  0  0  0  2  0  0  0  0  0  0
  -28.1580  -12.5730   18.2370 C   0  0  0  0  0  2  0  0  0  0  0  0
  -27.8830  -13.3730   19.5370 C   0  0  0  0  0  3  0  0  0  0  0  0
  -28.9720  -13.0670   20.5840 C   0  0  0  0  0  2  0  0  0  0  0  0
  -30.2730  -13.4460   20.0080 N   0  0  0  0  0  0  0  0  0  0  0  0
  -32.0580  -14.7480   19.5540 O   0  0  0  0  0  0  0  0  0  0  0  0
  -25.5240  -14.0230   20.3300 C   0  0  0  0  0  0  0  0  0  0  0  0
  -24.4550  -13.2710   20.7330 C   0  0  0  0  0  0  0  0  0  0  0  0
  -24.8890  -11.9110   20.6810 C   0  0  0  0  0  0  0  0  0  0  0  0
  -26.5430  -13.1230   20.0570 N   0  0  0  0  0  0  0  0  0  0  0  0
  -26.1660  -11.8470   20.3250 N   0  0  0  0  0  0  0  0  0  0  0  0
  -24.1450  -10.6640   20.8940 C   0  0  0  0  0  0  0  0  0  0  0  0
  -24.5750   -9.6990   21.8320 C   0  0  0  0  0  3  0  0  0  0  0  0
  -23.8330   -8.5150   22.0300 C   0  0  0  0  0  3  0  0  0  0  0  0
  -22.6480   -8.2870   21.2880 C   0  0  0  0  0  0  0  0  0  0  0  0
  -22.2390   -9.2400   20.3400 C   0  0  0  0  0  3  0  0  0  0  0  0
  -22.9810  -10.4160   20.1400 C   0  0  0  0  0  3  0  0  0  0  0  0
  -21.8780   -7.1540   21.3950 O   0  0  0  0  0  0  0  0  0  0  0  0
  -21.8030   -6.4440   22.5660 C   0  0  0  0  0  0  0  0  0  0  0  0
  -21.3830   -7.0420   23.7730 C   0  0  0  0  0  3  0  0  0  0  0  0
  -21.2520   -6.2620   24.9380 C   0  0  0  0  0  3  0  0  0  0  0  0
  -21.5300   -4.8820   24.8970 C   0  0  0  0  0  0  0  0  0  0  0  0
  -21.9420   -4.2830   23.6940 C   0  0  0  0  0  3  0  0  0  0  0  0
  -22.0750   -5.0610   22.5310 C   0  0  0  0  0  0  0  0  0  0  0  0
  -22.4540   -4.4750   21.3700 F   0  0  0  0  0  0  0  0  0  0  0  0
  -21.3960   -4.1290   26.0140 F   0  0  0  0  0  0  0  0  0  0  0  0
  -23.0780  -13.7750   21.0560 C   0  0  0  0  0  0  0  0  0  0  0  0
  -22.3720  -13.0950   21.9540 N   0  0  0  0  0  0  0  0  0  0  0  0
  -22.6390  -14.8060   20.5490 O   0  0  0  0  0  0  0  0  0  0  0  0
  -22.7410  -12.2600   22.3860 H   0  0  0  0  0  0  0  0  0  0  0  0
  -21.4510  -13.4160   22.2140 H   0  0  0  0  0  0  0  0  0  0  0  0
  -25.7060  -15.3920   20.1580 N   0  0  0  0  0  0  0  0  0  0  0  0
  -24.9580  -16.0560   20.3200 H   0  0  0  0  0  0  0  0  0  0  0  0
  -26.5460  -15.8210   19.8000 H   0  0  0  0  0  0  0  0  0  0  0  0
  -27.4380  -25.2700   21.9030 C   0  0  0  0  0  1  0  0  0  0  0  0
  -29.8740  -25.9210   21.7830 C   0  0  0  0  0  1  0  0  0  0  0  0
  -28.6430  -25.5000   20.9580 C   0  0  1  0  0  0  0  0  0  0  0  0
  -28.4900  -26.6590   20.0730 O   0  0  0  0  0  0  0  0  0  0  0  0
  -24.5840  -31.8360   23.1120 C   0  0  0  0  0  0  0  0  0  0  0  0
  -27.3240  -27.4050   20.0860 C   0  0  0  0  0  0  0  0  0  0  0  0
  -23.4170  -30.4130   21.4580 C   0  0  0  0  0  3  0  0  0  0  0  0
  -24.9120  -28.8910   20.0540 C   0  0  0  0  0  0  0  0  0  0  0  0
  -25.9420  -30.8040   21.2900 C   0  0  0  0  0  2  0  0  0  0  0  0
  -26.0570  -29.4310   20.6560 C   0  0  0  0  0  0  0  0  0  0  0  0
  -27.2690  -28.6970   20.6640 C   0  0  0  0  0  3  0  0  0  0  0  0
  -26.1690  -26.8900   19.4650 C   0  0  0  0  0  3  0  0  0  0  0  0
  -24.9630  -27.6190   19.4540 C   0  0  0  0  0  3  0  0  0  0  0  0
  -23.6550  -29.7330   20.0830 C   0  0  0  0  0  2  0  0  0  0  0  0
  -24.6650  -31.0350   22.0110 N   0  0  0  0  0  0  0  0  0  0  0  0
  -23.4930  -32.0930   23.6390 O   0  0  0  0  0  0  0  0  0  0  0  0
  -22.7680  -29.3860   22.4140 C   0  0  0  0  0  0  0  0  0  0  0  0
  -21.4450  -29.1970   22.2820 N   0  0  0  0  0  0  0  0  0  0  0  0
  -23.4530  -28.7620   23.2290 O   0  0  0  0  0  0  0  0  0  0  0  0
  -20.9540  -29.7540   21.5960 H   0  0  0  0  0  0  0  0  0  0  0  0
  -18.0790  -27.9700   22.7540 C   0  0  0  0  0  0  0  0  0  0  0  0
  -20.6320  -28.2510   23.0450 C   0  0  0  0  0  3  0  0  0  0  0  0
  -20.7510  -26.8220   22.4660 C   0  0  0  0  0  2  0  0  0  0  0  0
  -19.6590  -26.4910   21.4440 C   0  0  0  0  0  2  0  0  0  0  0  0
  -18.2720  -26.6230   22.0780 C   0  0  0  0  0  2  0  0  0  0  0  0
  -19.1880  -28.7410   23.1940 C   0  0  0  0  0  0  0  0  0  0  0  0
  -18.9550  -30.0020   23.7860 C   0  0  0  0  0  3  0  0  0  0  0  0
  -17.6450  -30.4930   23.9410 C   0  0  0  0  0  3  0  0  0  0  0  0
  -16.5490  -29.7190   23.5220 C   0  0  0  0  0  3  0  0  0  0  0  0
  -16.7680  -28.4590   22.9330 C   0  0  0  0  0  3  0  0  0  0  0  0
  -25.8540  -32.4850   23.7440 C   0  0  0  0  0  3  0  0  0  0  0  0
  -25.5190  -33.8760   24.0780 N   0  0  0  0  0  0  0  0  0  0  0  0
  -25.8300  -34.9360   23.3200 C   0  0  0  0  0  0  0  0  0  0  0  0
  -26.4980  -34.8470   22.2860 O   0  0  0  0  0  0  0  0  0  0  0  0
  -24.9250  -34.0180   24.8820 H   0  0  0  0  0  0  0  0  0  0  0  0
  -24.0550  -36.6870   22.9880 C   0  0  0  0  0  1  0  0  0  0  0  0
  -25.3170  -36.3130   23.7820 C   0  0  0  0  0  3  0  0  0  0  0  0
  -27.4420  -37.2470   24.5810 C   0  0  0  0  0  1  0  0  0  0  0  0
  -26.3220  -37.3890   23.6540 N   0  0  0  0  0  0  0  0  0  0  0  0
  -25.8980  -38.3000   23.8060 H   0  0  0  0  0  0  0  0  0  0  0  0
  -26.3790  -31.7150   25.0190 C   0  0  1  0  0  0  0  0  0  0  0  0
  -25.2840  -31.4550   26.0800 C   0  0  0  0  0  1  0  0  0  0  0  0
  -26.9860  -30.3490   24.6220 C   0  0  0  0  0  1  0  0  0  0  0  0
  -27.5110  -32.5260   25.6920 C   0  0  0  0  0  1  0  0  0  0  0  0
  1  4  1  0
  1  5  1  0
  2  9  1  0
  2  6  1  0
  3  6  1  0
  3 57  1  0
  4  2  2  0
  5  3  2  0
  9  7  1  1
  9  8  1  0
 12 11  1  6
 12 13  1  0
 12 10  1  0
 12  9  1  0
 14 15  1  0
 15 13  1  0
 15 18  1  0
 15 16  1  6
 18 17  1  0
 19 18  1  0
 20 25  1  0
 21 22  1  0
 21 20  1  0
 23 22  1  0
 23 30  1  0
 23 24  1  0
 25 19  1  0
 25 24  1  0
 26 19  2  0
 27 28  2  0
 28 47  1  0
 29 28  1  0
 29 32  1  0
 30 31  1  0
 30 27  1  0
 31 29  2  0
 32 33  1  0
 33 34  2  0
 35 38  1  0
 35 34  1  0
 36 35  2  0
 37 36  1  0
 37 32  2  0
 38 39  1  0
 39 40  1  0
 40 41  2  0
 42 41  1  0
 42 46  1  0
 43 42  2  0
 44 39  2  0
 44 43  1  0
 45 44  1  0
 47 48  1  0
 48 51  1  0
 48 50  1  0
 49 47  2  0
 52 53  1  0
 52 27  1  0
 54 52  1  0
 57 56  1  1
 57 55  1  0
 58 60  1  0
 58 57  1  0
 59 70  2  0
 60 65  1  0
 61 69  1  0
 61 71  1  0
 62 68  1  0
 62 64  1  0
 63 69  1  0
 64 65  2  0
 64 63  1  0
 66 60  2  0
 67 66  1  0
 67 62  2  0
 68 61  1  0
 69 59  1  0
 71 73  2  0
 72 71  1  0
 74 72  1  0
 75 84  2  0
 75 80  1  0
 76 72  1  0
 76 80  1  0
 77 76  1  0
 78 79  1  0
 78 77  1  0
 79 75  1  0
 80 81  2  0
 81 82  1  0
 83 82  2  0
 84 83  1  0
 85 59  1  0
 85 86  1  0
 85 95  1  0
 86 89  1  0
 87 91  1  0
 87 86  1  0
 88 87  2  0
 91 90  1  0
 93 91  1  0
 93 94  1  0
 93 92  1  0
 95 98  1  1
 95 96  1  0
 97 95  1  0
M  ISO  4  18 100  19 100  57 101  58 101
M  END
>  <TORSDO>  (9) 
F 22

>  <SCORE>  (9) 
-12.638

>  <name>  (9) 
9

>  <ligand_id>  (9) 
9

>  <original_smiles>  (9) 
[H]c1nc(C(Oc2c([H])c([H])c3c(c2[H])C([H])([H])N(C(=O)C([H])(N([H])C(=O)C([H])(N([H])C([H])([H])[H])C([H])([H])[H])C(C([H])([H])[H])(C([H])([H])[H])C([H])([H])[H])C([H])(C(=O)N([H])C2([H])c4c([H])c([H])c([H])c([H])c4C([H])([H])C([H])([H])C2([H])[H])C3([H])[H])(C([H])([H])[H])C([H])([H])[H])nc(C(C([H])([H])[H])(C([H])([H])[H])C(C([H])([H])[H])(C([H])([H])[H])C([H])([H])[N+]([H])(C([H])([H])[H])C([H])(C(=O)N2C([H])([H])C([H])([H])C([H])([H])C([H])(n3nc(-c4c([H])c([H])c(Oc5c([H])c([H])c(F)c([H])c5F)c([H])c4[H])c(C(=O)N([H])[H])c3N([H])[H])C2([H])[H])C([H])([H])[H])n1

>  <smiles>  (9) 
[H]c1nc(C(Oc2c([H])c([H])c3c(c2[H])C([H])([H])N(C(=O)C([H])(N([H])C(=O)C([H])(N([H])C([H])([H])[H])C([H])([H])[H])C(C([H])([H])[H])(C([H])([H])[H])C([H])([H])[H])C([H])(C(=O)N([H])C2([H])c4c([H])c([H])c([H])c([H])c4C([H])([H])C([H])([H])C2([H])[H])C3([H])[H])(C([H])([H])[H])C([H])([H])[H])nc(C(C([H])([H])[H])(C([H])([H])[H])C(C([H])([H])[H])(C([H])([H])[H])C([H])([H])[N+]([H])(C([H])([H])[H])C([H])(C(=O)N2C([H])([H])C([H])([H])C([H])([H])C([H])(n3nc(-c4c([H])c([H])c(Oc5c([H])c([H])c(F)c([H])c5F)c([H])c4[H])c(C(=O)N([H])[H])c3N([H])[H])C2([H])[H])C([H])([H])[H])n1

$$$$
10:0:0
     RDKit          3D

 94102  0  0  1  0  0  0  0  0999 V2000
  -30.3200  -20.3800   22.5930 C   0  0  0  0  0  3  0  0  0  0  0  0
  -30.2730  -19.9880   21.2810 C   0  0  0  0  0  0  0  0  0  0  0  0
  -30.7700  -18.6320   21.3230 C   0  0  0  0  0  0  0  0  0  0  0  0
  -31.0780  -18.2720   22.5640 N   0  0  0  0  0  0  0  0  0  0  0  0
  -30.7940  -19.3340   23.3450 N   0  0  0  0  0  0  0  0  0  0  0  0
  -32.1610  -20.2460   25.1850 C   0  0  0  0  0  1  0  0  0  0  0  0
  -31.2380  -17.8780   25.3280 C   0  0  0  0  0  1  0  0  0  0  0  0
  -31.0140  -19.3020   24.7890 C   0  0  0  0  0  3  0  0  0  0  0  0
  -30.0480  -17.8340   19.0190 C   0  0  0  0  0  1  0  0  0  0  0  0
  -30.9890  -17.5990   20.2120 C   0  0  0  0  0  3  0  0  0  0  0  0
  -31.5120  -15.1320   20.2670 C   0  0  0  0  0  0  0  0  0  0  0  0
  -31.2060  -12.8800   19.3030 C   0  0  0  0  0  2  0  0  0  0  0  0
  -30.2790  -12.9930   18.0740 C   0  0  0  0  0  2  0  0  0  0  0  0
  -28.7990  -12.9020   18.4970 C   0  0  0  0  0  2  0  0  0  0  0  0
  -28.4590  -13.8440   19.6850 C   0  0  0  0  0  3  0  0  0  0  0  0
  -29.5000  -13.7080   20.8200 C   0  0  0  0  0  2  0  0  0  0  0  0
  -30.8370  -13.9480   20.2500 N   0  0  0  0  0  0  0  0  0  0  0  0
  -32.6330  -15.2630   19.7740 O   0  0  0  0  0  0  0  0  0  0  0  0
  -30.7940  -16.2030   20.6580 N   0  0  0  0  0  0  0  0  0  0  0  0
  -29.9330  -16.0260   21.1520 H   0  0  0  0  0  0  0  0  0  0  0  0
  -26.1100  -14.5480   20.4710 C   0  0  0  0  0  0  0  0  0  0  0  0
  -25.0050  -13.8190   20.8220 C   0  0  0  0  0  0  0  0  0  0  0  0
  -25.3880  -12.4460   20.7120 C   0  0  0  0  0  0  0  0  0  0  0  0
  -27.0990  -13.6230   20.1740 N   0  0  0  0  0  0  0  0  0  0  0  0
  -26.6680  -12.3510   20.3770 N   0  0  0  0  0  0  0  0  0  0  0  0
  -24.5950  -11.2180   20.8530 C   0  0  0  0  0  0  0  0  0  0  0  0
  -24.9480  -10.2150   21.7810 C   0  0  0  0  0  3  0  0  0  0  0  0
  -24.1600   -9.0500   21.9090 C   0  0  0  0  0  3  0  0  0  0  0  0
  -23.0070   -8.8820   21.1080 C   0  0  0  0  0  0  0  0  0  0  0  0
  -22.6730   -9.8730   20.1680 C   0  0  0  0  0  3  0  0  0  0  0  0
  -23.4620  -11.0290   20.0370 C   0  0  0  0  0  3  0  0  0  0  0  0
  -22.1970   -7.7750   21.1470 O   0  0  0  0  0  0  0  0  0  0  0  0
  -21.9770   -7.0830   22.3110 C   0  0  0  0  0  0  0  0  0  0  0  0
  -21.3890   -7.6910   23.4410 C   0  0  0  0  0  3  0  0  0  0  0  0
  -21.1150   -6.9250   24.5910 C   0  0  0  0  0  3  0  0  0  0  0  0
  -21.4190   -5.5510   24.6100 C   0  0  0  0  0  0  0  0  0  0  0  0
  -21.9980   -4.9410   23.4840 C   0  0  0  0  0  3  0  0  0  0  0  0
  -22.2740   -5.7050   22.3360 C   0  0  0  0  0  0  0  0  0  0  0  0
  -22.8110   -5.1080   21.2460 F   0  0  0  0  0  0  0  0  0  0  0  0
  -21.1520   -4.8100   25.7110 F   0  0  0  0  0  0  0  0  0  0  0  0
  -23.6420  -14.3570   21.1500 C   0  0  0  0  0  0  0  0  0  0  0  0
  -22.8950  -13.6620   22.0000 N   0  0  0  0  0  0  0  0  0  0  0  0
  -23.2510  -15.4310   20.6920 O   0  0  0  0  0  0  0  0  0  0  0  0
  -23.2250  -12.7970   22.4030 H   0  0  0  0  0  0  0  0  0  0  0  0
  -21.9830  -14.0050   22.2670 H   0  0  0  0  0  0  0  0  0  0  0  0
  -26.3490  -15.9130   20.3580 N   0  0  0  0  0  0  0  0  0  0  0  0
  -25.6220  -16.6040   20.5160 H   0  0  0  0  0  0  0  0  0  0  0  0
  -27.2220  -16.3170   20.0440 H   0  0  0  0  0  0  0  0  0  0  0  0
  -29.7850  -20.8380   20.1080 C   0  0  0  0  0  2  0  0  0  0  0  0
  -29.5950  -22.3470   20.4470 C   0  0  0  0  0  2  0  0  0  0  0  0
  -28.9760  -23.2040   19.3120 C   0  0  0  0  0  2  0  0  0  0  0  0
  -28.9370  -24.7330   19.6010 C   0  0  0  0  0  2  0  0  0  0  0  0
  -27.9170  -25.5190   18.7400 C   0  0  0  0  0  2  0  0  0  0  0  0
  -27.9120  -26.9360   19.0420 O   0  0  0  0  0  0  0  0  0  0  0  0
  -24.3700  -31.7420   22.9540 C   0  0  0  0  0  0  0  0  0  0  0  0
  -26.7220  -27.6390   19.1940 C   0  0  0  0  0  0  0  0  0  0  0  0
  -23.0180  -30.4940   21.3050 C   0  0  0  0  0  3  0  0  0  0  0  0
  -24.3340  -29.1280   19.6000 C   0  0  0  0  0  0  0  0  0  0  0  0
  -25.5160  -30.8960   20.9060 C   0  0  0  0  0  2  0  0  0  0  0  0
  -25.5430  -29.5930   20.1280 C   0  0  0  0  0  0  0  0  0  0  0  0
  -26.7350  -28.8540   19.9280 C   0  0  0  0  0  3  0  0  0  0  0  0
  -25.4860  -27.2080   18.6520 C   0  0  0  0  0  3  0  0  0  0  0  0
  -24.3020  -27.9360   18.8620 C   0  0  0  0  0  3  0  0  0  0  0  0
  -23.0980  -29.9610   19.8500 C   0  0  0  0  0  2  0  0  0  0  0  0
  -24.3260  -31.0520   21.7790 N   0  0  0  0  0  0  0  0  0  0  0  0
  -23.3430  -31.9440   23.6180 O   0  0  0  0  0  0  0  0  0  0  0  0
  -22.4670  -29.3700   22.2130 C   0  0  0  0  0  0  0  0  0  0  0  0
  -21.1430  -29.1550   22.1670 N   0  0  0  0  0  0  0  0  0  0  0  0
  -23.2260  -28.6990   22.9180 O   0  0  0  0  0  0  0  0  0  0  0  0
  -20.5880  -29.7560   21.5740 H   0  0  0  0  0  0  0  0  0  0  0  0
  -17.8540  -27.7780   22.7620 C   0  0  0  0  0  0  0  0  0  0  0  0
  -20.4110  -28.1280   22.9090 C   0  0  0  0  0  3  0  0  0  0  0  0
  -20.5350  -26.7480   22.2230 C   0  0  0  0  0  2  0  0  0  0  0  0
  -19.3890  -26.4520   21.2490 C   0  0  0  0  0  2  0  0  0  0  0  0
  -18.0440  -26.4900   21.9790 C   0  0  0  0  0  2  0  0  0  0  0  0
  -18.9640  -28.5540   23.1860 C   0  0  0  0  0  0  0  0  0  0  0  0
  -18.7310  -29.7600   23.8820 C   0  0  0  0  0  3  0  0  0  0  0  0
  -17.4190  -30.1920   24.1550 C   0  0  0  0  0  3  0  0  0  0  0  0
  -16.3240  -29.4120   23.7470 C   0  0  0  0  0  3  0  0  0  0  0  0
  -16.5420  -28.2060   23.0580 C   0  0  0  0  0  3  0  0  0  0  0  0
  -25.7050  -32.3300   23.5080 C   0  0  0  0  0  3  0  0  0  0  0  0
  -25.4200  -33.6830   24.0040 N   0  0  0  0  0  0  0  0  0  0  0  0
  -25.7200  -34.8120   23.3490 C   0  0  0  0  0  0  0  0  0  0  0  0
  -26.3420  -34.8210   22.2820 O   0  0  0  0  0  0  0  0  0  0  0  0
  -24.8680  -33.7500   24.8480 H   0  0  0  0  0  0  0  0  0  0  0  0
  -24.0080  -36.6520   23.2440 C   0  0  0  0  0  1  0  0  0  0  0  0
  -25.2600  -36.1430   23.9760 C   0  0  0  0  0  3  0  0  0  0  0  0
  -27.4180  -36.9060   24.8640 C   0  0  0  0  0  1  0  0  0  0  0  0
  -26.3030  -37.1910   23.9640 N   0  0  0  0  0  0  0  0  0  0  0  0
  -25.9100  -38.0930   24.2190 H   0  0  0  0  0  0  0  0  0  0  0  0
  -26.3470  -31.4460   24.6440 C   0  0  1  0  0  0  0  0  0  0  0  0
  -25.3660  -31.0920   25.7860 C   0  0  0  0  0  1  0  0  0  0  0  0
  -26.8940  -30.1210   24.0620 C   0  0  0  0  0  1  0  0  0  0  0  0
  -27.5550  -32.1860   25.2660 C   0  0  0  0  0  1  0  0  0  0  0  0
  1  5  1  0
  2  3  1  0
  2  1  2  0
  3  4  2  0
  4  5  1  0
  5  8  1  0
  8  6  1  0
  8  7  1  0
 10  9  1  0
 10 19  1  0
 10  3  1  0
 11 19  1  0
 12 17  1  0
 13 14  1  0
 13 12  1  0
 15 14  1  0
 15 24  1  0
 15 16  1  0
 17 11  1  0
 17 16  1  0
 18 11  2  0
 19 20  1  0
 21 22  2  0
 22 41  1  0
 23 22  1  0
 23 26  1  0
 24 25  1  0
 24 21  1  0
 25 23  2  0
 26 27  1  0
 27 28  2  0
 29 32  1  0
 29 28  1  0
 30 29  2  0
 31 30  1  0
 31 26  2  0
 32 33  1  0
 33 38  2  0
 33 34  1  0
 34 35  2  0
 35 36  1  0
 36 40  1  0
 37 36  2  0
 38 37  1  0
 39 38  1  0
 41 42  1  0
 42 45  1  0
 42 44  1  0
 43 41  2  0
 46 21  1  0
 46 47  1  0
 48 46  1  0
 49 50  1  0
 49  2  1  0
 51 52  1  0
 51 50  1  0
 53 54  1  0
 53 52  1  0
 54 56  1  0
 55 66  2  0
 56 61  1  0
 57 65  1  0
 57 67  1  0
 58 64  1  0
 58 60  1  0
 59 65  1  0
 60 59  1  0
 61 60  2  0
 62 63  1  0
 62 56  2  0
 63 58  2  0
 64 57  1  0
 65 55  1  0
 67 69  2  0
 68 67  1  0
 70 68  1  0
 71 80  2  0
 71 76  1  0
 72 68  1  0
 72 76  1  0
 73 72  1  0
 74 75  1  0
 74 73  1  0
 75 71  1  0
 76 77  2  0
 77 78  1  0
 79 78  2  0
 80 79  1  0
 81 55  1  0
 81 82  1  0
 81 91  1  0
 82 85  1  0
 83 87  1  0
 83 82  1  0
 84 83  2  0
 87 86  1  0
 89 87  1  0
 89 90  1  0
 89 88  1  0
 91 94  1  1
 91 92  1  0
 93 91  1  0
M  ISO  4  11 100  19 100  53 101  54 101
M  END
>  <TORSDO>  (10) 
F 23

>  <SCORE>  (10) 
-3.452

>  <name>  (10) 
10

>  <ligand_id>  (10) 
10

>  <original_smiles>  (10) 
[H]c1c([H])c([H])c2c(c1[H])C([H])([H])C([H])([H])C([H])([H])C2([H])N([H])C(=O)C1([H])N(C(=O)C([H])(N([H])C(=O)C([H])(N([H])C([H])([H])[H])C([H])([H])[H])C(C([H])([H])[H])(C([H])([H])[H])C([H])([H])[H])C([H])([H])c2c([H])c(OC([H])([H])C([H])([H])C([H])([H])C([H])([H])C([H])([H])c3c(C([H])(N([H])C(=O)N4C([H])([H])C([H])([H])C([H])([H])C([H])(n5nc(-c6c([H])c([H])c(Oc7c([H])c([H])c(F)c([H])c7F)c([H])c6[H])c(C(=O)N([H])[H])c5N([H])[H])C4([H])[H])C([H])([H])[H])nn(C([H])(C([H])([H])[H])C([H])([H])[H])c3[H])c([H])c([H])c2C1([H])[H]

>  <smiles>  (10) 
[H]c1c([H])c([H])c2c(c1[H])C([H])([H])C([H])([H])C([H])([H])C2([H])N([H])C(=O)C1([H])N(C(=O)C([H])(N([H])C(=O)C([H])(N([H])C([H])([H])[H])C([H])([H])[H])C(C([H])([H])[H])(C([H])([H])[H])C([H])([H])[H])C([H])([H])c2c([H])c(OC([H])([H])C([H])([H])C([H])([H])C([H])([H])C([H])([H])c3c(C([H])(N([H])C(=O)N4C([H])([H])C([H])([H])C([H])([H])C([H])(n5nc(-c6c([H])c([H])c(Oc7c([H])c([H])c(F)c([H])c7F)c([H])c6[H])c(C(=O)N([H])[H])c5N([H])[H])C4([H])[H])C([H])([H])[H])nn(C([H])(C([H])([H])[H])C([H])([H])[H])c3[H])c([H])c([H])c2C1([H])[H]

$$$$
11:0:0
     RDKit          3D

 94102  0  0  1  0  0  0  0  0999 V2000
  -30.6390  -19.4480   22.0070 C   0  0  0  0  0  2  0  0  0  0  0  0
  -31.2620  -21.1680   20.9390 C   0  0  0  0  0  3  0  0  0  0  0  0
  -29.9980  -20.8360   20.5070 C   0  0  0  0  0  3  0  0  0  0  0  0
  -31.5410  -20.4220   22.0790 N   0  0  0  0  0  2  0  0  0  0  0  0
  -30.0490  -19.3660   20.7960 N   0  0  0  0  0  0  0  0  0  0  0  0
  -28.8180  -21.7580   18.4300 C   0  0  0  0  0  1  0  0  0  0  0  0
  -27.6270  -21.7230   20.6530 C   0  0  0  0  0  1  0  0  0  0  0  0
  -28.9740  -21.9600   19.9400 C   0  0  1  0  0  0  0  0  0  0  0  0
  -29.3170  -23.6070   20.1530 C   0  0  0  0  0  3  0  0  0  0  0  0
  -28.2270  -24.8740   19.9890 C   0  0  0  0  0  3  0  0  0  0  0  0
  -28.4630  -26.3960   20.1700 O   0  0  0  0  0  0  0  0  0  0  0  0
  -24.6590  -31.9180   23.1930 C   0  0  0  0  0  0  0  0  0  0  0  0
  -27.3750  -27.3360   20.1080 C   0  0  0  0  0  0  0  0  0  0  0  0
  -23.5060  -30.5350   21.5080 C   0  0  0  0  0  3  0  0  0  0  0  0
  -25.0040  -29.0200   20.0680 C   0  0  0  0  0  0  0  0  0  0  0  0
  -26.0540  -30.8520   21.3870 C   0  0  0  0  0  2  0  0  0  0  0  0
  -26.1650  -29.4820   20.7000 C   0  0  0  0  0  0  0  0  0  0  0  0
  -27.3540  -28.6600   20.7010 C   0  0  0  0  0  3  0  0  0  0  0  0
  -26.1770  -26.9660   19.4480 C   0  0  0  0  0  3  0  0  0  0  0  0
  -25.0240  -27.7730   19.4250 C   0  0  0  0  0  3  0  0  0  0  0  0
  -23.7580  -29.8930   20.1170 C   0  0  0  0  0  2  0  0  0  0  0  0
  -24.7560  -31.1200   22.0860 N   0  0  0  0  0  0  0  0  0  0  0  0
  -23.5600  -32.1750   23.7150 O   0  0  0  0  0  0  0  0  0  0  0  0
  -22.8300  -29.4960   22.4380 C   0  0  0  0  0  0  0  0  0  0  0  0
  -21.5000  -29.3300   22.3070 N   0  0  0  0  0  0  0  0  0  0  0  0
  -23.5030  -28.8410   23.2370 O   0  0  0  0  0  0  0  0  0  0  0  0
  -21.0100  -29.9000   21.6330 H   0  0  0  0  0  0  0  0  0  0  0  0
  -18.1140  -28.1560   22.8220 C   0  0  0  0  0  0  0  0  0  0  0  0
  -20.6810  -28.3680   23.0460 C   0  0  0  0  0  3  0  0  0  0  0  0
  -20.7520  -26.9620   22.4050 C   0  0  0  0  0  2  0  0  0  0  0  0
  -19.6250  -26.7050   21.3980 C   0  0  0  0  0  2  0  0  0  0  0  0
  -18.2570  -26.8400   22.0740 C   0  0  0  0  0  2  0  0  0  0  0  0
  -19.2530  -28.8820   23.2640 C   0  0  0  0  0  0  0  0  0  0  0  0
  -19.0650  -30.1160   23.9200 C   0  0  0  0  0  3  0  0  0  0  0  0
  -17.7750  -30.6290   24.1330 C   0  0  0  0  0  3  0  0  0  0  0  0
  -16.6500  -29.9000   23.7110 C   0  0  0  0  0  3  0  0  0  0  0  0
  -16.8200  -28.6650   23.0600 C   0  0  0  0  0  3  0  0  0  0  0  0
  -25.9180  -32.5620   23.8480 C   0  0  0  0  0  3  0  0  0  0  0  0
  -25.5900  -33.9570   24.1800 N   0  0  0  0  0  0  0  0  0  0  0  0
  -25.9240  -35.0150   23.4300 C   0  0  0  0  0  0  0  0  0  0  0  0
  -26.6030  -34.9200   22.4060 O   0  0  0  0  0  0  0  0  0  0  0  0
  -24.9900  -34.1080   24.9760 H   0  0  0  0  0  0  0  0  0  0  0  0
  -24.1830  -36.7940   23.0710 C   0  0  0  0  0  1  0  0  0  0  0  0
  -25.4220  -36.3990   23.8910 C   0  0  0  0  0  3  0  0  0  0  0  0
  -27.5340  -37.3020   24.7510 C   0  0  0  0  0  1  0  0  0  0  0  0
  -26.4430  -37.4620   23.7950 N   0  0  0  0  0  0  0  0  0  0  0  0
  -26.0270  -38.3780   23.9390 H   0  0  0  0  0  0  0  0  0  0  0  0
  -26.4070  -31.7930   25.1390 C   0  0  1  0  0  0  0  0  0  0  0  0
  -25.2850  -31.5360   26.1730 C   0  0  0  0  0  1  0  0  0  0  0  0
  -27.0170  -30.4220   24.7650 C   0  0  0  0  0  1  0  0  0  0  0  0
  -27.5340  -32.5960   25.8370 C   0  0  0  0  0  1  0  0  0  0  0  0
  -32.7470  -23.2600   20.9450 C   0  0  0  0  0  1  0  0  0  0  0  0
  -32.2990  -21.9910   20.2260 C   0  0  0  0  0  2  0  0  0  0  0  0
  -28.2920  -17.5280   20.4430 C   0  0  0  0  0  1  0  0  0  0  0  0
  -29.7440  -17.9410   20.1500 C   0  0  0  0  0  3  0  0  0  0  0  0
  -31.0330  -16.4150   21.9430 C   0  0  0  0  0  1  0  0  0  0  0  0
  -32.1670  -17.3240   19.8460 C   0  0  0  0  0  1  0  0  0  0  0  0
  -30.8500  -16.6490   20.4160 C   0  0  2  0  0  0  0  0  0  0  0  0
  -30.9700  -15.0900   19.7560 C   0  0  0  0  0  0  0  0  0  0  0  0
  -30.5770  -12.6980   18.9980 C   0  0  0  0  0  2  0  0  0  0  0  0
  -29.6330  -12.6920   17.7750 C   0  0  0  0  0  2  0  0  0  0  0  0
  -28.1780  -12.5720   18.2470 C   0  0  0  0  0  2  0  0  0  0  0  0
  -27.8600  -13.5150   19.4360 C   0  0  0  0  0  3  0  0  0  0  0  0
  -28.9680  -13.5860   20.5190 C   0  0  0  0  0  2  0  0  0  0  0  0
  -30.2410  -13.8930   19.8520 N   0  0  0  0  0  0  0  0  0  0  0  0
  -32.0040  -14.9170   19.0980 O   0  0  0  0  0  0  0  0  0  0  0  0
  -25.5670  -14.1210   20.3680 C   0  0  0  0  0  0  0  0  0  0  0  0
  -24.5050  -13.3640   20.7810 C   0  0  0  0  0  0  0  0  0  0  0  0
  -24.9120  -12.0030   20.6450 C   0  0  0  0  0  0  0  0  0  0  0  0
  -26.5530  -13.2220   20.0140 N   0  0  0  0  0  0  0  0  0  0  0  0
  -26.1770  -11.9350   20.2450 N   0  0  0  0  0  0  0  0  0  0  0  0
  -24.1450  -10.7600   20.8230 C   0  0  0  0  0  0  0  0  0  0  0  0
  -24.5640   -9.7610   21.7290 C   0  0  0  0  0  3  0  0  0  0  0  0
  -23.7980   -8.5840   21.8980 C   0  0  0  0  0  3  0  0  0  0  0  0
  -22.5990   -8.4080   21.1660 C   0  0  0  0  0  0  0  0  0  0  0  0
  -22.2030   -9.3960   20.2460 C   0  0  0  0  0  3  0  0  0  0  0  0
  -22.9660  -10.5640   20.0760 C   0  0  0  0  0  3  0  0  0  0  0  0
  -21.8020   -7.2920   21.2470 O   0  0  0  0  0  0  0  0  0  0  0  0
  -21.6910   -6.5660   22.4060 C   0  0  0  0  0  0  0  0  0  0  0  0
  -21.2160   -7.1440   23.6030 C   0  0  0  0  0  3  0  0  0  0  0  0
  -21.0590   -6.3470   24.7550 C   0  0  0  0  0  3  0  0  0  0  0  0
  -21.3590   -4.9710   24.7090 C   0  0  0  0  0  0  0  0  0  0  0  0
  -21.8240   -4.3940   23.5140 C   0  0  0  0  0  3  0  0  0  0  0  0
  -21.9900   -5.1900   22.3670 C   0  0  0  0  0  0  0  0  0  0  0  0
  -22.4200   -4.6220   21.2140 F   0  0  0  0  0  0  0  0  0  0  0  0
  -21.1960   -4.2040   25.8130 F   0  0  0  0  0  0  0  0  0  0  0  0
  -23.1560  -13.8820   21.1760 C   0  0  0  0  0  0  0  0  0  0  0  0
  -22.4730  -13.1840   22.0780 N   0  0  0  0  0  0  0  0  0  0  0  0
  -22.7220  -14.9380   20.7200 O   0  0  0  0  0  0  0  0  0  0  0  0
  -22.8470  -12.3370   22.4770 H   0  0  0  0  0  0  0  0  0  0  0  0
  -21.5660  -13.5140   22.3760 H   0  0  0  0  0  0  0  0  0  0  0  0
  -25.7650  -15.4900   20.2330 N   0  0  0  0  0  0  0  0  0  0  0  0
  -25.0290  -16.1630   20.4300 H   0  0  0  0  0  0  0  0  0  0  0  0
  -26.5890  -15.9160   19.8290 H   0  0  0  0  0  0  0  0  0  0  0  0
  1  4  1  0
  2 53  1  0
  2  4  1  0
  3  8  1  0
  3  5  1  0
  3  2  1  0
  5  1  1  0
  8  6  1  6
  8  9  1  0
  8  7  1  0
 10  9  2  0
 10 11  1  0
 12 23  2  0
 13 11  1  0
 13 18  1  0
 14 22  1  0
 14 24  1  0
 15 21  1  0
 15 17  1  0
 16 22  1  0
 17 18  2  0
 17 16  1  0
 19 13  2  0
 20 19  1  0
 20 15  2  0
 21 14  1  0
 22 12  1  0
 24 26  2  0
 25 24  1  0
 27 25  1  0
 28 37  2  0
 28 33  1  0
 29 25  1  0
 29 33  1  0
 30 29  1  0
 31 32  1  0
 31 30  1  0
 32 28  1  0
 33 34  2  0
 34 35  1  0
 36 35  2  0
 37 36  1  0
 38 12  1  0
 38 39  1  0
 38 48  1  0
 39 42  1  0
 40 44  1  0
 40 39  1  0
 41 40  2  0
 44 43  1  0
 46 44  1  0
 46 47  1  0
 46 45  1  0
 48 51  1  1
 48 49  1  0
 50 48  1  0
 53 52  1  0
 55 58  1  0
 55 54  1  0
 55  5  1  0
 58 57  1  6
 58 56  1  0
 59 65  1  0
 59 58  1  0
 60 65  1  0
 61 62  1  0
 61 60  1  0
 63 62  1  0
 63 70  1  0
 63 64  1  0
 65 64  1  0
 66 59  2  0
 67 68  2  0
 68 87  1  0
 69 68  1  0
 69 72  1  0
 70 71  1  0
 70 67  1  0
 71 69  2  0
 72 73  1  0
 73 74  2  0
 75 78  1  0
 75 74  1  0
 76 75  2  0
 77 76  1  0
 77 72  2  0
 78 79  1  0
 79 80  1  0
 80 81  2  0
 82 81  1  0
 82 86  1  0
 83 82  2  0
 84 79  2  0
 84 83  1  0
 85 84  1  0
 87 88  1  0
 88 91  1  0
 88 90  1  0
 89 87  2  0
 92 67  1  0
 92 93  1  0
 94 92  1  0
M  ISO  4  10 101  11 101  58 100  59 100
M  END
>  <TORSDO>  (11) 
F 22

>  <SCORE>  (11) 
-13.731

>  <name>  (11) 
11

>  <ligand_id>  (11) 
11

>  <original_smiles>  (11) 
[H]c1c([H])c([H])c2c(c1[H])C([H])([H])C([H])([H])C([H])([H])C2([H])N([H])C(=O)C1([H])N(C(=O)C([H])(N([H])C(=O)C([H])(N([H])C([H])([H])[H])C([H])([H])[H])C(C([H])([H])[H])(C([H])([H])[H])C([H])([H])[H])C([H])([H])c2c([H])c(OC([H])([H])C([H])([H])C(c3c(C([H])([H])C([H])([H])[H])nc([H])n3C([H])(C([H])([H])[H])C(C(=O)N3C([H])([H])C([H])([H])C([H])([H])C([H])(n4nc(-c5c([H])c([H])c(Oc6c([H])c([H])c(F)c([H])c6F)c([H])c5[H])c(C(=O)N([H])[H])c4N([H])[H])C3([H])[H])(C([H])([H])[H])C([H])([H])[H])(C([H])([H])[H])C([H])([H])[H])c([H])c([H])c2C1([H])[H]

>  <smiles>  (11) 
[H]c1c([H])c([H])c2c(c1[H])C([H])([H])C([H])([H])C([H])([H])C2([H])N([H])C(=O)C1([H])N(C(=O)C([H])(N([H])C(=O)C([H])(N([H])C([H])([H])[H])C([H])([H])[H])C(C([H])([H])[H])(C([H])([H])[H])C([H])([H])[H])C([H])([H])c2c([H])c(OC([H])([H])C([H])([H])C(c3c(C([H])([H])C([H])([H])[H])nc([H])n3C([H])(C([H])([H])[H])C(C(=O)N3C([H])([H])C([H])([H])C([H])([H])C([H])(n4nc(-c5c([H])c([H])c(Oc6c([H])c([H])c(F)c([H])c6F)c([H])c5[H])c(C(=O)N([H])[H])c4N([H])[H])C3([H])[H])(C([H])([H])[H])C([H])([H])[H])(C([H])([H])[H])C([H])([H])[H])c([H])c([H])c2C1([H])[H]

$$$$
12:0:0
     RDKit          3D

 95103  0  0  1  0  0  0  0  0999 V2000
  -30.4910  -20.3550   19.1780 C   0  0  0  0  0  2  0  0  0  0  0  0
  -30.6060  -20.1370   21.4820 C   0  0  0  0  0  3  0  0  0  0  0  0
  -30.2130  -20.9870   20.4100 C   0  0  0  0  0  3  0  0  0  0  0  0
  -30.9270  -18.1930   20.1260 C   0  0  0  0  0  0  0  0  0  0  0  0
  -30.8600  -19.0380   19.0640 N   0  0  0  0  0  0  0  0  0  0  0  0
  -30.9880  -18.8160   21.3330 N   0  0  0  0  0  0  0  0  0  0  0  0
  -29.2800  -22.3030   20.5570 C   0  0  0  0  0  2  0  0  0  0  0  0
  -29.6860  -23.8850   20.5070 C   0  0  0  0  0  3  0  0  0  0  0  0
  -28.4730  -24.9820   20.3400 C   0  0  0  0  0  3  0  0  0  0  0  0
  -28.6240  -26.4850   20.4240 O   0  0  0  0  0  0  0  0  0  0  0  0
  -24.7050  -31.9040   23.3000 C   0  0  0  0  0  0  0  0  0  0  0  0
  -27.4790  -27.3300   20.3430 C   0  0  0  0  0  0  0  0  0  0  0  0
  -23.5580  -30.4670   21.6500 C   0  0  0  0  0  3  0  0  0  0  0  0
  -25.0710  -28.9260   20.2660 C   0  0  0  0  0  0  0  0  0  0  0  0
  -26.0970  -30.8250   21.5090 C   0  0  0  0  0  2  0  0  0  0  0  0
  -26.2210  -29.4380   20.8770 C   0  0  0  0  0  0  0  0  0  0  0  0
  -27.4230  -28.6560   20.9000 C   0  0  0  0  0  3  0  0  0  0  0  0
  -26.2950  -26.8840   19.7070 C   0  0  0  0  0  3  0  0  0  0  0  0
  -25.1140  -27.6560   19.6680 C   0  0  0  0  0  3  0  0  0  0  0  0
  -23.8140  -29.7790   20.2830 C   0  0  0  0  0  2  0  0  0  0  0  0
  -24.8040  -31.0850   22.2110 N   0  0  0  0  0  0  0  0  0  0  0  0
  -23.6060  -32.1670   23.8120 O   0  0  0  0  0  0  0  0  0  0  0  0
  -22.8920  -29.4530   22.6100 C   0  0  0  0  0  0  0  0  0  0  0  0
  -21.5710  -29.2500   22.4600 N   0  0  0  0  0  0  0  0  0  0  0  0
  -23.5640  -28.8500   23.4510 O   0  0  0  0  0  0  0  0  0  0  0  0
  -21.0880  -29.7880   21.7540 H   0  0  0  0  0  0  0  0  0  0  0  0
  -18.2060  -28.0040   22.9230 C   0  0  0  0  0  0  0  0  0  0  0  0
  -20.7560  -28.3050   23.2240 C   0  0  0  0  0  3  0  0  0  0  0  0
  -20.8880  -26.8720   22.6560 C   0  0  0  0  0  2  0  0  0  0  0  0
  -19.8040  -26.5280   21.6290 C   0  0  0  0  0  2  0  0  0  0  0  0
  -18.4120  -26.6550   22.2540 C   0  0  0  0  0  2  0  0  0  0  0  0
  -19.3070  -28.7840   23.3640 C   0  0  0  0  0  0  0  0  0  0  0  0
  -19.0600  -30.0450   23.9500 C   0  0  0  0  0  3  0  0  0  0  0  0
  -17.7460  -30.5260   24.0980 C   0  0  0  0  0  3  0  0  0  0  0  0
  -16.6590  -29.7420   23.6730 C   0  0  0  0  0  3  0  0  0  0  0  0
  -16.8900  -28.4830   23.0910 C   0  0  0  0  0  3  0  0  0  0  0  0
  -25.9640  -32.5670   23.9410 C   0  0  0  0  0  3  0  0  0  0  0  0
  -25.6280  -33.9670   24.2410 N   0  0  0  0  0  0  0  0  0  0  0  0
  -25.9460  -35.0110   23.4640 C   0  0  0  0  0  0  0  0  0  0  0  0
  -26.6240  -34.8980   22.4390 O   0  0  0  0  0  0  0  0  0  0  0  0
  -25.0280  -34.1270   25.0380 H   0  0  0  0  0  0  0  0  0  0  0  0
  -24.1900  -36.7670   23.0700 C   0  0  0  0  0  1  0  0  0  0  0  0
  -25.4360  -36.4010   23.8920 C   0  0  0  0  0  3  0  0  0  0  0  0
  -27.5490  -37.3450   24.7120 C   0  0  0  0  0  1  0  0  0  0  0  0
  -26.4510  -37.4680   23.7580 N   0  0  0  0  0  0  0  0  0  0  0  0
  -26.0290  -38.3850   23.8770 H   0  0  0  0  0  0  0  0  0  0  0  0
  -26.4590  -31.8260   25.2440 C   0  0  1  0  0  0  0  0  0  0  0  0
  -25.3410  -31.5890   26.2880 C   0  0  0  0  0  1  0  0  0  0  0  0
  -27.0740  -30.4520   24.8910 C   0  0  0  0  0  1  0  0  0  0  0  0
  -27.5800  -32.6500   25.9210 C   0  0  0  0  0  1  0  0  0  0  0  0
  -30.2870  -16.6570   19.9990 C   0  0  1  0  0  0  0  0  0  0  0  0
  -31.0750  -15.1670   20.2110 C   0  0  0  0  0  0  0  0  0  0  0  0
  -30.9710  -12.7460   19.4220 C   0  0  0  0  0  2  0  0  0  0  0  0
  -30.0110  -12.5480   18.2200 C   0  0  0  0  0  2  0  0  0  0  0  0
  -28.5490  -12.3220   18.6760 C   0  0  0  0  0  2  0  0  0  0  0  0
  -28.1150  -13.2860   19.8040 C   0  0  0  0  0  3  0  0  0  0  0  0
  -29.2220  -13.4060   20.8950 C   0  0  0  0  0  2  0  0  0  0  0  0
  -30.4760  -13.8830   20.2560 N   0  0  0  0  0  0  0  0  0  0  0  0
  -32.3020  -15.1450   20.0490 O   0  0  0  0  0  0  0  0  0  0  0  0
  -25.7300  -13.9140   20.5600 C   0  0  0  0  0  0  0  0  0  0  0  0
  -24.6720  -13.1520   20.9480 C   0  0  0  0  0  0  0  0  0  0  0  0
  -25.1300  -11.8030   20.8880 C   0  0  0  0  0  0  0  0  0  0  0  0
  -26.7810  -13.0270   20.3280 N   0  0  0  0  0  0  0  0  0  0  0  0
  -26.4180  -11.7510   20.5780 N   0  0  0  0  0  0  0  0  0  0  0  0
  -24.3920  -10.5530   21.0460 C   0  0  0  0  0  0  0  0  0  0  0  0
  -24.7850   -9.5860   21.9930 C   0  0  0  0  0  3  0  0  0  0  0  0
  -24.0450   -8.3960   22.1390 C   0  0  0  0  0  3  0  0  0  0  0  0
  -22.9010   -8.1700   21.3370 C   0  0  0  0  0  0  0  0  0  0  0  0
  -22.5310   -9.1270   20.3770 C   0  0  0  0  0  3  0  0  0  0  0  0
  -23.2720  -10.3090   20.2270 C   0  0  0  0  0  3  0  0  0  0  0  0
  -22.1340   -7.0330   21.3970 O   0  0  0  0  0  0  0  0  0  0  0  0
  -21.9620   -6.3470   22.5710 C   0  0  0  0  0  0  0  0  0  0  0  0
  -21.3800   -6.9490   23.7070 C   0  0  0  0  0  3  0  0  0  0  0  0
  -21.1560   -6.1860   24.8710 C   0  0  0  0  0  3  0  0  0  0  0  0
  -21.5070   -4.8230   24.8980 C   0  0  0  0  0  0  0  0  0  0  0  0
  -22.0860   -4.2220   23.7660 C   0  0  0  0  0  3  0  0  0  0  0  0
  -22.3100   -4.9820   22.6060 C   0  0  0  0  0  0  0  0  0  0  0  0
  -22.8490   -4.3930   21.5110 F   0  0  0  0  0  0  0  0  0  0  0  0
  -21.2860   -4.0880   26.0130 F   0  0  0  0  0  0  0  0  0  0  0  0
  -23.2890  -13.6490   21.2500 C   0  0  0  0  0  0  0  0  0  0  0  0
  -22.5710  -12.9550   22.1250 N   0  0  0  0  0  0  0  0  0  0  0  0
  -22.8560  -14.6890   20.7540 O   0  0  0  0  0  0  0  0  0  0  0  0
  -22.9370  -12.1160   22.5510 H   0  0  0  0  0  0  0  0  0  0  0  0
  -21.6440  -13.2680   22.3750 H   0  0  0  0  0  0  0  0  0  0  0  0
  -25.8260  -15.2820   20.3610 N   0  0  0  0  0  0  0  0  0  0  0  0
  -25.0510  -15.9120   20.5290 H   0  0  0  0  0  0  0  0  0  0  0  0
  -26.7100  -15.7550   20.2210 H   0  0  0  0  0  0  0  0  0  0  0  0
  -29.0660  -16.7770   20.9630 C   0  0  1  0  0  0  0  0  0  0  0  0
  -28.3570  -17.9060   20.8510 F   0  0  0  0  0  0  0  0  0  0  0  0
  -28.1840  -15.8640   20.7220 F   0  0  0  0  0  0  0  0  0  0  0  0
  -29.4270  -16.6160   22.2400 F   0  0  0  0  0  0  0  0  0  0  0  0
  -29.7970  -16.5980   18.4920 C   0  0  1  0  0  0  0  0  0  0  0  0
  -30.8310  -16.6280   17.6410 F   0  0  0  0  0  0  0  0  0  0  0  0
  -29.1680  -15.4950   18.1430 F   0  0  0  0  0  0  0  0  0  0  0  0
  -28.9390  -17.5740   18.1730 F   0  0  0  0  0  0  0  0  0  0  0  0
  1  3  1  0
  3  7  1  0
  3  2  1  0
  4  6  1  0
  5  1  1  0
  5  4  2  0
  6  2  2  0
  8  7  1  0
  9 10  1  0
  9  8  2  0
 11 22  2  0
 12 10  1  0
 12 17  1  0
 13 21  1  0
 13 23  1  0
 14 20  1  0
 14 16  1  0
 15 21  1  0
 16 17  2  0
 16 15  1  0
 18 12  2  0
 19 18  1  0
 19 14  2  0
 20 13  1  0
 21 11  1  0
 23 25  2  0
 24 23  1  0
 26 24  1  0
 27 36  2  0
 27 32  1  0
 28 24  1  0
 28 32  1  0
 29 28  1  0
 30 31  1  0
 30 29  1  0
 31 27  1  0
 32 33  2  0
 33 34  1  0
 35 34  2  0
 36 35  1  0
 37 11  1  0
 37 38  1  0
 37 47  1  0
 38 41  1  0
 39 43  1  0
 39 38  1  0
 40 39  2  0
 43 42  1  0
 45 46  1  0
 45 43  1  0
 45 44  1  0
 47 50  1  1
 47 48  1  0
 49 47  1  0
 51  4  1  0
 51 52  1  1
 51 88  1  0
 52 58  1  0
 53 58  1  0
 54 55  1  0
 54 53  1  0
 56 55  1  0
 56 63  1  0
 56 57  1  0
 58 57  1  0
 59 52  2  0
 60 61  2  0
 61 80  1  0
 62 61  1  0
 62 65  1  0
 63 60  1  0
 63 64  1  0
 64 62  2  0
 65 66  1  0
 66 67  2  0
 68 71  1  0
 68 67  1  0
 69 68  2  0
 70 69  1  0
 70 65  2  0
 71 72  1  0
 72 77  2  0
 72 73  1  0
 73 74  2  0
 74 75  1  0
 75 79  1  0
 76 75  2  0
 77 76  1  0
 78 77  1  0
 80 81  1  0
 81 84  1  0
 81 83  1  0
 82 80  2  0
 85 86  1  0
 85 60  1  0
 87 85  1  0
 88 91  1  1
 89 88  1  0
 90 88  1  0
 92 51  1  0
 92 93  1  6
 94 92  1  0
 95 92  1  0
M  ISO  4   9 101  10 101  51 100  52 100
M  END
>  <TORSDO>  (12) 
F 22

>  <SCORE>  (12) 
-12.434

>  <name>  (12) 
12

>  <ligand_id>  (12) 
12

>  <original_smiles>  (12) 
[H]c1nc(C(C(=O)N2C([H])([H])C([H])([H])C([H])([H])C([H])(n3nc(-c4c([H])c([H])c(Oc5c([H])c([H])c(F)c([H])c5F)c([H])c4[H])c(C(=O)N([H])[H])c3N([H])[H])C2([H])[H])(C(F)(F)F)C(F)(F)F)nc([H])c1C([H])([H])C([H])([H])C([H])([H])Oc1c([H])c([H])c2c(c1[H])C([H])([H])N(C(=O)C([H])(N([H])C(=O)C([H])(N([H])C([H])([H])[H])C([H])([H])[H])C(C([H])([H])[H])(C([H])([H])[H])C([H])([H])[H])C([H])(C(=O)N([H])C1([H])c3c([H])c([H])c([H])c([H])c3C([H])([H])C([H])([H])C1([H])[H])C2([H])[H]

>  <smiles>  (12) 
[H]c1nc(C(C(=O)N2C([H])([H])C([H])([H])C([H])([H])C([H])(n3nc(-c4c([H])c([H])c(Oc5c([H])c([H])c(F)c([H])c5F)c([H])c4[H])c(C(=O)N([H])[H])c3N([H])[H])C2([H])[H])(C(F)(F)F)C(F)(F)F)nc([H])c1C([H])([H])C([H])([H])C([H])([H])Oc1c([H])c([H])c2c(c1[H])C([H])([H])N(C(=O)C([H])(N([H])C(=O)C([H])(N([H])C([H])([H])[H])C([H])([H])[H])C(C([H])([H])[H])(C([H])([H])[H])C([H])([H])[H])C([H])(C(=O)N([H])C1([H])c3c([H])c([H])c([H])c([H])c3C([H])([H])C([H])([H])C1([H])[H])C2([H])[H]

$$$$
13:0:0
     RDKit          3D

 92100  0  0  1  0  0  0  0  0999 V2000
  -30.2440  -21.7310   20.7300 C   0  0  0  0  0  3  0  0  0  0  0  0
  -29.4770  -20.6440   20.1710 C   0  0  0  0  0  0  0  0  0  0  0  0
  -27.9920  -22.4160   19.4570 C   0  0  0  0  0  0  0  0  0  0  0  0
  -28.7570  -23.5110   20.0320 C   0  0  0  0  0  0  0  0  0  0  0  0
  -29.9120  -23.0870   20.6580 N   0  0  0  0  0  0  0  0  0  0  0  0
  -28.3630  -21.0680   19.4910 N   0  0  0  0  0  0  0  0  0  0  0  0
  -28.4400  -18.6340   21.4280 C   0  0  0  0  0  1  0  0  0  0  0  0
  -29.6510  -19.0500   20.5810 C   0  0  0  0  0  3  0  0  0  0  0  0
  -30.1160  -17.7650   19.6240 C   0  0  0  0  0  2  0  0  0  0  0  0
  -30.8200  -15.1100   19.7510 C   0  0  0  0  0  0  0  0  0  0  0  0
  -30.6220  -12.7810   18.7970 C   0  0  0  0  0  2  0  0  0  0  0  0
  -29.5820  -12.7740   17.6500 C   0  0  0  0  0  2  0  0  0  0  0  0
  -28.1610  -12.5590   18.2000 C   0  0  0  0  0  2  0  0  0  0  0  0
  -27.8560  -13.4600   19.4240 C   0  0  0  0  0  3  0  0  0  0  0  0
  -29.0060  -13.4450   20.4570 C   0  0  0  0  0  2  0  0  0  0  0  0
  -30.2340  -13.8490   19.7620 N   0  0  0  0  0  0  0  0  0  0  0  0
  -31.9570  -15.2200   19.2830 O   0  0  0  0  0  0  0  0  0  0  0  0
  -30.0530  -16.2520   20.0700 N   0  0  0  0  0  0  0  0  0  0  0  0
  -29.1740  -16.0080   20.5000 H   0  0  0  0  0  0  0  0  0  0  0  0
  -25.5650  -14.0050   20.4350 C   0  0  0  0  0  0  0  0  0  0  0  0
  -24.5290  -13.2130   20.8480 C   0  0  0  0  0  0  0  0  0  0  0  0
  -24.9680  -11.8630   20.6750 C   0  0  0  0  0  0  0  0  0  0  0  0
  -26.5660  -13.1400   20.0280 N   0  0  0  0  0  0  0  0  0  0  0  0
  -26.2220  -11.8410   20.2360 N   0  0  0  0  0  0  0  0  0  0  0  0
  -24.2440  -10.5950   20.8430 C   0  0  0  0  0  0  0  0  0  0  0  0
  -24.7020   -9.5930   21.7250 C   0  0  0  0  0  3  0  0  0  0  0  0
  -23.9780   -8.3910   21.8820 C   0  0  0  0  0  3  0  0  0  0  0  0
  -22.7810   -8.1820   21.1570 C   0  0  0  0  0  0  0  0  0  0  0  0
  -22.3410   -9.1740   20.2630 C   0  0  0  0  0  3  0  0  0  0  0  0
  -23.0650  -10.3670   20.1050 C   0  0  0  0  0  3  0  0  0  0  0  0
  -22.0250   -7.0370   21.2290 O   0  0  0  0  0  0  0  0  0  0  0  0
  -21.9480   -6.2960   22.3790 C   0  0  0  0  0  0  0  0  0  0  0  0
  -21.5070   -6.8560   23.5970 C   0  0  0  0  0  3  0  0  0  0  0  0
  -21.3770   -6.0410   24.7410 C   0  0  0  0  0  3  0  0  0  0  0  0
  -21.6780   -4.6680   24.6650 C   0  0  0  0  0  0  0  0  0  0  0  0
  -22.1130   -4.1070   23.4510 C   0  0  0  0  0  3  0  0  0  0  0  0
  -22.2440   -4.9200   22.3110 C   0  0  0  0  0  0  0  0  0  0  0  0
  -22.6430   -4.3700   21.1380 F   0  0  0  0  0  0  0  0  0  0  0  0
  -21.5460   -3.8830   25.7610 F   0  0  0  0  0  0  0  0  0  0  0  0
  -23.1690  -13.6790   21.2860 C   0  0  0  0  0  0  0  0  0  0  0  0
  -22.5340  -12.9500   22.1970 N   0  0  0  0  0  0  0  0  0  0  0  0
  -22.6860  -14.7260   20.8580 O   0  0  0  0  0  0  0  0  0  0  0  0
  -22.9350  -12.1040   22.5710 H   0  0  0  0  0  0  0  0  0  0  0  0
  -21.6280  -13.2510   22.5290 H   0  0  0  0  0  0  0  0  0  0  0  0
  -25.7350  -15.3830   20.3480 N   0  0  0  0  0  0  0  0  0  0  0  0
  -25.0030  -16.0390   20.6000 H   0  0  0  0  0  0  0  0  0  0  0  0
  -26.5640  -15.8390   19.9840 H   0  0  0  0  0  0  0  0  0  0  0  0
  -26.6010  -22.6220   18.8580 C   0  0  0  0  0  2  0  0  0  0  0  0
  -24.1180  -23.0850   19.4020 C   0  0  0  0  0  1  0  0  0  0  0  0
  -25.5050  -22.6980   19.9410 C   0  0  0  0  0  2  0  0  0  0  0  0
  -28.1490  -25.0250   20.3170 C   0  0  0  0  0  2  0  0  0  0  0  0
  -28.3330  -26.3480   19.5410 O   0  0  0  0  0  0  0  0  0  0  0  0
  -24.6520  -31.7300   22.9600 C   0  0  0  0  0  0  0  0  0  0  0  0
  -27.2710  -27.3140   19.5910 C   0  0  0  0  0  0  0  0  0  0  0  0
  -23.4430  -30.4080   21.2650 C   0  0  0  0  0  3  0  0  0  0  0  0
  -24.8970  -28.9710   19.7100 C   0  0  0  0  0  0  0  0  0  0  0  0
  -25.9800  -30.7690   21.0460 C   0  0  0  0  0  2  0  0  0  0  0  0
  -26.0790  -29.4220   20.3150 C   0  0  0  0  0  0  0  0  0  0  0  0
  -27.2700  -28.6110   20.2420 C   0  0  0  0  0  3  0  0  0  0  0  0
  -26.0680  -26.9640   18.9440 C   0  0  0  0  0  3  0  0  0  0  0  0
  -24.9040  -27.7570   19.0070 C   0  0  0  0  0  3  0  0  0  0  0  0
  -23.6440  -29.8220   19.8420 C   0  0  0  0  0  2  0  0  0  0  0  0
  -24.7130  -30.9870   21.8130 N   0  0  0  0  0  0  0  0  0  0  0  0
  -23.5750  -31.9460   23.5360 O   0  0  0  0  0  0  0  0  0  0  0  0
  -22.8250  -29.3180   22.1770 C   0  0  0  0  0  0  0  0  0  0  0  0
  -21.4970  -29.1220   22.0870 N   0  0  0  0  0  0  0  0  0  0  0  0
  -23.5420  -28.6570   22.9330 O   0  0  0  0  0  0  0  0  0  0  0  0
  -20.9740  -29.7200   21.4650 H   0  0  0  0  0  0  0  0  0  0  0  0
  -18.1600  -27.8350   22.6520 C   0  0  0  0  0  0  0  0  0  0  0  0
  -20.7260  -28.1100   22.8150 C   0  0  0  0  0  3  0  0  0  0  0  0
  -20.8110  -26.7310   22.1210 C   0  0  0  0  0  2  0  0  0  0  0  0
  -19.6620  -26.4760   21.1390 C   0  0  0  0  0  2  0  0  0  0  0  0
  -18.3140  -26.5500   21.8590 C   0  0  0  0  0  2  0  0  0  0  0  0
  -19.2920  -28.5760   23.0870 C   0  0  0  0  0  0  0  0  0  0  0  0
  -19.0900  -29.7840   23.7900 C   0  0  0  0  0  3  0  0  0  0  0  0
  -17.7910  -30.2510   24.0590 C   0  0  0  0  0  3  0  0  0  0  0  0
  -16.6750  -29.5070   23.6390 C   0  0  0  0  0  3  0  0  0  0  0  0
  -16.8600  -28.3000   22.9430 C   0  0  0  0  0  3  0  0  0  0  0  0
  -25.9310  -32.3610   23.5920 C   0  0  0  0  0  3  0  0  0  0  0  0
  -25.5900  -33.7250   24.0280 N   0  0  0  0  0  0  0  0  0  0  0  0
  -25.8690  -34.8380   23.3370 C   0  0  0  0  0  0  0  0  0  0  0  0
  -26.5090  -34.8270   22.2830 O   0  0  0  0  0  0  0  0  0  0  0  0
  -25.0170  -33.8070   24.8550 H   0  0  0  0  0  0  0  0  0  0  0  0
  -24.0820  -36.6010   23.1600 C   0  0  0  0  0  1  0  0  0  0  0  0
  -25.3580  -36.1770   23.9040 C   0  0  0  0  0  3  0  0  0  0  0  0
  -27.4900  -37.0670   24.7350 C   0  0  0  0  0  1  0  0  0  0  0  0
  -26.3570  -37.2660   23.8360 N   0  0  0  0  0  0  0  0  0  0  0  0
  -25.9290  -38.1610   24.0560 H   0  0  0  0  0  0  0  0  0  0  0  0
  -26.5010  -31.5240   24.8040 C   0  0  1  0  0  0  0  0  0  0  0  0
  -25.4470  -31.1930   25.8860 C   0  0  0  0  0  1  0  0  0  0  0  0
  -27.1050  -30.1890   24.3120 C   0  0  0  0  0  1  0  0  0  0  0  0
  -27.6510  -32.3050   25.4840 C   0  0  0  0  0  1  0  0  0  0  0  0
  2  8  1  0
  2  1  2  0
  3  6  2  0
  3  4  1  0
  4 51  1  0
  4  5  2  0
  5  1  1  0
  6  2  1  0
  8  7  1  0
  9 18  1  0
  9  8  1  0
 10 16  1  0
 10 18  1  0
 11 16  1  0
 12 13  1  0
 12 11  1  0
 14 13  1  0
 14 23  1  0
 14 15  1  0
 16 15  1  0
 17 10  2  0
 18 19  1  0
 20 21  2  0
 21 40  1  0
 22 25  1  0
 22 21  1  0
 23 24  1  0
 23 20  1  0
 24 22  2  0
 25 26  1  0
 26 27  2  0
 28 31  1  0
 28 27  1  0
 29 28  2  0
 30 29  1  0
 30 25  2  0
 31 32  1  0
 32 33  1  0
 33 34  2  0
 35 34  1  0
 35 39  1  0
 36 35  2  0
 37 32  2  0
 37 36  1  0
 38 37  1  0
 40 41  1  0
 41 44  1  0
 41 43  1  0
 42 40  2  0
 45 20  1  0
 45 46  1  0
 47 45  1  0
 48  3  1  0
 48 50  1  0
 49 50  1  0
 52 54  1  0
 52 51  1  0
 53 64  2  0
 54 59  1  0
 55 63  1  0
 55 65  1  0
 56 62  1  0
 56 58  1  0
 57 63  1  0
 58 57  1  0
 59 58  2  0
 60 61  1  0
 60 54  2  0
 61 56  2  0
 62 55  1  0
 63 53  1  0
 65 67  2  0
 66 65  1  0
 68 66  1  0
 69 78  2  0
 69 74  1  0
 70 66  1  0
 70 74  1  0
 71 70  1  0
 72 73  1  0
 72 71  1  0
 73 69  1  0
 74 75  2  0
 75 76  1  0
 77 76  2  0
 78 77  1  0
 79 53  1  0
 79 80  1  0
 79 89  1  0
 80 83  1  0
 81 85  1  0
 81 80  1  0
 82 81  2  0
 85 84  1  0
 87 85  1  0
 87 88  1  0
 87 86  1  0
 89 92  1  1
 89 90  1  0
 91 89  1  0
M  ISO  4  10 100  18 100  51 101  52 101
M  END
>  <TORSDO>  (13) 
F 21

>  <SCORE>  (13) 
-11.290

>  <name>  (13) 
13

>  <ligand_id>  (13) 
13

>  <original_smiles>  (13) 
[H]c1nc(C([H])([H])Oc2c([H])c([H])c3c(c2[H])C([H])([H])N(C(=O)C([H])(N([H])C(=O)C([H])(N([H])C([H])([H])[H])C([H])([H])[H])C(C([H])([H])[H])(C([H])([H])[H])C([H])([H])[H])C([H])(C(=O)N([H])C2([H])c4c([H])c([H])c([H])c([H])c4C([H])([H])C([H])([H])C2([H])[H])C3([H])[H])c(C([H])([H])C([H])([H])C([H])([H])[H])nc1C([H])(C([H])([H])[H])C([H])([H])N([H])C(=O)N1C([H])([H])C([H])([H])C([H])([H])C([H])(n2nc(-c3c([H])c([H])c(Oc4c([H])c([H])c(F)c([H])c4F)c([H])c3[H])c(C(=O)N([H])[H])c2N([H])[H])C1([H])[H]

>  <smiles>  (13) 
[H]c1nc(C([H])([H])Oc2c([H])c([H])c3c(c2[H])C([H])([H])N(C(=O)C([H])(N([H])C(=O)C([H])(N([H])C([H])([H])[H])C([H])([H])[H])C(C([H])([H])[H])(C([H])([H])[H])C([H])([H])[H])C([H])(C(=O)N([H])C2([H])c4c([H])c([H])c([H])c([H])c4C([H])([H])C([H])([H])C2([H])[H])C3([H])[H])c(C([H])([H])C([H])([H])C([H])([H])[H])nc1C([H])(C([H])([H])[H])C([H])([H])N([H])C(=O)N1C([H])([H])C([H])([H])C([H])([H])C([H])(n2nc(-c3c([H])c([H])c(Oc4c([H])c([H])c(F)c([H])c4F)c([H])c3[H])c(C(=O)N([H])[H])c2N([H])[H])C1([H])[H]

$$$$
15:0:0
     RDKit          3D

 91 99  0  0  1  0  0  0  0  0999 V2000
  -30.6490  -22.5050   22.0300 C   0  0  0  0  0  1  0  0  0  0  0  0
  -28.1830  -22.8270   22.1390 C   0  0  0  0  0  1  0  0  0  0  0  0
  -29.4160  -22.9670   21.2190 C   0  0  1  0  0  0  0  0  0  0  0  0
  -30.2320  -25.3820   21.8730 C   0  0  0  0  0  1  0  0  0  0  0  0
  -29.5960  -24.4980   20.7670 C   0  0  0  0  0  3  0  0  0  0  0  0
  -28.3190  -25.2390   20.2230 C   0  0  0  0  0  2  0  0  0  0  0  0
  -28.4800  -26.6750   20.0460 O   0  0  0  0  0  0  0  0  0  0  0  0
  -24.6360  -31.8360   23.1690 C   0  0  0  0  0  0  0  0  0  0  0  0
  -27.3180  -27.4340   20.0320 C   0  0  0  0  0  0  0  0  0  0  0  0
  -23.4490  -30.4530   21.5000 C   0  0  0  0  0  3  0  0  0  0  0  0
  -24.9190  -28.9530   20.0510 C   0  0  0  0  0  0  0  0  0  0  0  0
  -25.9770  -30.8290   21.3180 C   0  0  0  0  0  2  0  0  0  0  0  0
  -26.0750  -29.4690   20.6490 C   0  0  0  0  0  0  0  0  0  0  0  0
  -27.2810  -28.7220   20.6260 C   0  0  0  0  0  3  0  0  0  0  0  0
  -26.1380  -26.9400   19.4310 C   0  0  0  0  0  3  0  0  0  0  0  0
  -24.9470  -27.6890   19.4390 C   0  0  0  0  0  3  0  0  0  0  0  0
  -23.6700  -29.8030   20.1080 C   0  0  0  0  0  2  0  0  0  0  0  0
  -24.7060  -31.0550   22.0530 N   0  0  0  0  0  0  0  0  0  0  0  0
  -23.5510  -32.0890   23.7090 O   0  0  0  0  0  0  0  0  0  0  0  0
  -22.8010  -29.4090   22.4400 C   0  0  0  0  0  0  0  0  0  0  0  0
  -21.4720  -29.2390   22.3250 N   0  0  0  0  0  0  0  0  0  0  0  0
  -23.4890  -28.7590   23.2310 O   0  0  0  0  0  0  0  0  0  0  0  0
  -20.9790  -29.8160   21.6580 H   0  0  0  0  0  0  0  0  0  0  0  0
  -18.0920  -28.0750   22.8590 C   0  0  0  0  0  0  0  0  0  0  0  0
  -20.6590  -28.2860   23.0790 C   0  0  0  0  0  3  0  0  0  0  0  0
  -20.7270  -26.8750   22.4490 C   0  0  0  0  0  2  0  0  0  0  0  0
  -19.5970  -26.6060   21.4510 C   0  0  0  0  0  2  0  0  0  0  0  0
  -18.2320  -26.7480   22.1320 C   0  0  0  0  0  2  0  0  0  0  0  0
  -19.2320  -28.8030   23.2910 C   0  0  0  0  0  0  0  0  0  0  0  0
  -19.0480  -30.0460   23.9340 C   0  0  0  0  0  3  0  0  0  0  0  0
  -17.7550  -30.5630   24.1470 C   0  0  0  0  0  3  0  0  0  0  0  0
  -16.6300  -29.8300   23.7310 C   0  0  0  0  0  3  0  0  0  0  0  0
  -16.7990  -28.5880   23.0940 C   0  0  0  0  0  3  0  0  0  0  0  0
  -25.9130  -32.4690   23.8040 C   0  0  0  0  0  3  0  0  0  0  0  0
  -25.5930  -33.8610   24.1500 N   0  0  0  0  0  0  0  0  0  0  0  0
  -25.9190  -34.9240   23.4030 C   0  0  0  0  0  0  0  0  0  0  0  0
  -26.5920  -34.8380   22.3710 O   0  0  0  0  0  0  0  0  0  0  0  0
  -24.9930  -34.0030   24.9500 H   0  0  0  0  0  0  0  0  0  0  0  0
  -24.1780  -36.7040   23.0610 C   0  0  0  0  0  1  0  0  0  0  0  0
  -25.4200  -36.3030   23.8750 C   0  0  0  0  0  3  0  0  0  0  0  0
  -27.5440  -37.1940   24.7240 C   0  0  0  0  0  1  0  0  0  0  0  0
  -26.4460  -37.3640   23.7760 N   0  0  0  0  0  0  0  0  0  0  0  0
  -26.0340  -38.2810   23.9270 H   0  0  0  0  0  0  0  0  0  0  0  0
  -26.4310  -31.6830   25.0700 C   0  0  1  0  0  0  0  0  0  0  0  0
  -25.3350  -31.4210   26.1290 C   0  0  0  0  0  1  0  0  0  0  0  0
  -27.0300  -30.3160   24.6590 C   0  0  0  0  0  1  0  0  0  0  0  0
  -27.5740  -32.4740   25.7470 C   0  0  0  0  0  1  0  0  0  0  0  0
  -29.2780  -21.9790   19.9970 C   0  0  0  0  0  2  0  0  0  0  0  0
  -28.9720  -20.4420   20.2270 C   0  0  0  0  0  3  0  0  0  0  0  0
  -30.1740  -19.4470   20.3680 C   0  0  0  0  0  3  0  0  0  0  0  0
  -30.1330  -15.9330   20.3300 C   0  0  0  0  0  0  0  0  0  0  0  0
  -28.8260  -16.1580   20.6840 N   0  0  0  0  0  0  0  0  0  0  0  0
  -30.8180  -17.0650   20.1500 N   0  0  0  0  0  2  0  0  0  0  0  0
  -28.6730  -17.4550   20.7370 N   0  0  0  0  0  2  0  0  0  0  0  0
  -29.8640  -17.9990   20.3850 N   0  0  0  0  0  0  0  0  0  0  0  0
  -30.7980  -14.5700   20.0500 C   0  0  0  0  0  0  0  0  0  0  0  0
  -30.4660  -12.3320   19.0620 C   0  0  0  0  0  2  0  0  0  0  0  0
  -29.4890  -12.4460   17.8720 C   0  0  0  0  0  2  0  0  0  0  0  0
  -28.0290  -12.3320   18.3520 C   0  0  0  0  0  2  0  0  0  0  0  0
  -27.7230  -13.2290   19.5800 C   0  0  0  0  0  3  0  0  0  0  0  0
  -28.8170  -13.0880   20.6620 C   0  0  0  0  0  2  0  0  0  0  0  0
  -30.1100  -13.3860   20.0340 N   0  0  0  0  0  0  0  0  0  0  0  0
  -31.9620  -14.6130   19.6280 O   0  0  0  0  0  0  0  0  0  0  0  0
  -25.3830  -13.8710   20.4170 C   0  0  0  0  0  0  0  0  0  0  0  0
  -24.3150  -13.1130   20.8200 C   0  0  0  0  0  0  0  0  0  0  0  0
  -24.7460  -11.7530   20.7480 C   0  0  0  0  0  0  0  0  0  0  0  0
  -26.3940  -12.9710   20.1230 N   0  0  0  0  0  0  0  0  0  0  0  0
  -26.0200  -11.6920   20.3820 N   0  0  0  0  0  0  0  0  0  0  0  0
  -24.0030  -10.5030   20.9520 C   0  0  0  0  0  0  0  0  0  0  0  0
  -24.4340   -9.5320   21.8810 C   0  0  0  0  0  3  0  0  0  0  0  0
  -23.6930   -8.3450   22.0730 C   0  0  0  0  0  3  0  0  0  0  0  0
  -22.5070   -8.1220   21.3340 C   0  0  0  0  0  0  0  0  0  0  0  0
  -22.0950   -9.0830   20.3940 C   0  0  0  0  0  3  0  0  0  0  0  0
  -22.8360  -10.2610   20.2010 C   0  0  0  0  0  3  0  0  0  0  0  0
  -21.7370   -6.9880   21.4360 O   0  0  0  0  0  0  0  0  0  0  0  0
  -21.6630   -6.2690   22.6020 C   0  0  0  0  0  0  0  0  0  0  0  0
  -21.2070   -6.8480   23.8070 C   0  0  0  0  0  3  0  0  0  0  0  0
  -21.0790   -6.0560   24.9640 C   0  0  0  0  0  3  0  0  0  0  0  0
  -21.3980   -4.6850   24.9200 C   0  0  0  0  0  0  0  0  0  0  0  0
  -21.8470   -4.1050   23.7200 C   0  0  0  0  0  3  0  0  0  0  0  0
  -21.9760   -4.8950   22.5630 C   0  0  0  0  0  0  0  0  0  0  0  0
  -22.3880   -4.3270   21.4050 F   0  0  0  0  0  0  0  0  0  0  0  0
  -21.2690   -3.9220   26.0300 F   0  0  0  0  0  0  0  0  0  0  0  0
  -22.9430  -13.6150   21.1610 C   0  0  0  0  0  0  0  0  0  0  0  0
  -22.2380  -12.9200   22.0480 N   0  0  0  0  0  0  0  0  0  0  0  0
  -22.5040  -14.6580   20.6770 O   0  0  0  0  0  0  0  0  0  0  0  0
  -22.6050  -12.0790   22.4660 H   0  0  0  0  0  0  0  0  0  0  0  0
  -21.3140  -13.2370   22.3100 H   0  0  0  0  0  0  0  0  0  0  0  0
  -25.5830  -15.2370   20.2630 N   0  0  0  0  0  0  0  0  0  0  0  0
  -24.8720  -15.9310   20.4710 H   0  0  0  0  0  0  0  0  0  0  0  0
  -26.4960  -15.6440   20.0900 H   0  0  0  0  0  0  0  0  0  0  0  0
  3  1  1  1
  3  2  1  0
  5  3  1  0
  5  4  1  0
  6  5  1  0
  7  6  1  0
  8 19  2  0
  9  7  1  0
  9 14  1  0
 10 18  1  0
 10 20  1  0
 11 17  1  0
 11 13  1  0
 12 18  1  0
 13 12  1  0
 14 13  2  0
 15 16  1  0
 15  9  2  0
 16 11  2  0
 17 10  1  0
 18  8  1  0
 20 22  2  0
 21 20  1  0
 23 21  1  0
 24 33  2  0
 24 29  1  0
 25 21  1  0
 25 29  1  0
 26 25  1  0
 27 28  1  0
 27 26  1  0
 28 24  1  0
 29 30  2  0
 30 31  1  0
 32 31  2  0
 33 32  1  0
 34  8  1  0
 34 35  1  0
 34 44  1  0
 35 38  1  0
 36 40  1  0
 36 35  1  0
 37 36  2  0
 40 39  1  0
 42 40  1  0
 42 43  1  0
 42 41  1  0
 44 47  1  1
 44 45  1  0
 46 44  1  0
 48 49  1  0
 48  3  1  0
 49 50  2  0
 50 55  1  0
 51 52  2  0
 52 54  1  0
 53 51  1  0
 53 55  1  0
 55 54  1  0
 56 51  1  0
 57 62  1  0
 58 59  1  0
 58 57  1  0
 60 59  1  0
 60 67  1  0
 60 61  1  0
 62 56  1  0
 62 61  1  0
 63 56  2  0
 64 65  2  0
 65 84  1  0
 66 65  1  0
 66 69  1  0
 67 68  1  0
 67 64  1  0
 68 66  2  0
 69 70  1  0
 70 71  2  0
 72 75  1  0
 72 71  1  0
 73 72  2  0
 74 73  1  0
 74 69  2  0
 75 76  1  0
 76 77  1  0
 77 78  2  0
 79 78  1  0
 79 83  1  0
 80 79  2  0
 81 76  2  0
 81 80  1  0
 82 81  1  0
 84 85  1  0
 85 88  1  0
 85 87  1  0
 86 84  2  0
 89 64  1  0
 89 90  1  0
 91 89  1  0
M  ISO  4   6 101   7 101  51 100  56 100
M  END
>  <TORSDO>  (14) 
F 22

>  <SCORE>  (14) 
-13.137

>  <name>  (14) 
15

>  <ligand_id>  (14) 
15

>  <original_smiles>  (14) 
[H]c1c([H])c([H])c2c(c1[H])C([H])([H])C([H])([H])C([H])([H])C2([H])N([H])C(=O)C1([H])N(C(=O)C([H])(N([H])C(=O)C([H])(N([H])C([H])([H])[H])C([H])([H])[H])C(C([H])([H])[H])(C([H])([H])[H])C([H])([H])[H])C([H])([H])c2c([H])c(OC([H])([H])C([H])(C([H])([H])[H])C(C([H])([H])[H])(C([H])([H])[H])C([H])([H])C([H])([H])C([H])([H])n3nnc(C(=O)N4C([H])([H])C([H])([H])C([H])([H])C([H])(n5nc(-c6c([H])c([H])c(Oc7c([H])c([H])c(F)c([H])c7F)c([H])c6[H])c(C(=O)N([H])[H])c5N([H])[H])C4([H])[H])n3)c([H])c([H])c2C1([H])[H]

>  <smiles>  (14) 
[H]c1c([H])c([H])c2c(c1[H])C([H])([H])C([H])([H])C([H])([H])C2([H])N([H])C(=O)C1([H])N(C(=O)C([H])(N([H])C(=O)C([H])(N([H])C([H])([H])[H])C([H])([H])[H])C(C([H])([H])[H])(C([H])([H])[H])C([H])([H])[H])C([H])([H])c2c([H])c(OC([H])([H])C([H])(C([H])([H])[H])C(C([H])([H])[H])(C([H])([H])[H])C([H])([H])C([H])([H])C([H])([H])n3nnc(C(=O)N4C([H])([H])C([H])([H])C([H])([H])C([H])(n5nc(-c6c([H])c([H])c(Oc7c([H])c([H])c(F)c([H])c7F)c([H])c6[H])c(C(=O)N([H])[H])c5N([H])[H])C4([H])[H])n3)c([H])c([H])c2C1([H])[H]

$$$$
16:0:0
     RDKit          3D

 96104  0  0  1  0  0  0  0  0999 V2000
  -29.9750  -18.7910   19.6170 C   0  0  0  0  0  3  0  0  0  0  0  0
  -30.0060  -19.9870   20.3110 C   0  0  0  0  0  0  0  0  0  0  0  0
  -30.4790  -19.5200   21.5780 C   0  0  0  0  0  0  0  0  0  0  0  0
  -30.7990  -20.3470   22.7840 C   0  0  0  0  0  1  0  0  0  0  0  0
  -30.7610  -18.2040   21.6030 N   0  0  0  0  0  0  0  0  0  0  0  0
  -30.5230  -17.7160   20.3540 N   0  0  0  0  0  0  0  0  0  0  0  0
  -29.8150  -21.4430   19.7270 C   0  0  0  0  0  3  0  0  0  0  0  0
  -28.8730  -22.5620   20.3650 C   0  0  0  0  0  3  0  0  0  0  0  0
  -29.0300  -24.0450   19.7620 C   0  0  0  0  0  3  0  0  0  0  0  0
  -28.1070  -25.2310   20.3040 C   0  0  0  0  0  3  0  0  0  0  0  0
  -28.2780  -26.6130   19.7730 O   0  0  0  0  0  0  0  0  0  0  0  0
  -24.6370  -31.9150   23.0860 C   0  0  0  0  0  0  0  0  0  0  0  0
  -27.1620  -27.4630   19.8090 C   0  0  0  0  0  0  0  0  0  0  0  0
  -23.3870  -30.5480   21.4570 C   0  0  0  0  0  3  0  0  0  0  0  0
  -24.7900  -29.0570   19.9260 C   0  0  0  0  0  0  0  0  0  0  0  0
  -25.9120  -30.8930   21.1870 C   0  0  0  0  0  2  0  0  0  0  0  0
  -25.9780  -29.5360   20.4960 C   0  0  0  0  0  0  0  0  0  0  0  0
  -27.1690  -28.7550   20.4200 C   0  0  0  0  0  3  0  0  0  0  0  0
  -25.9570  -27.0440   19.2040 C   0  0  0  0  0  3  0  0  0  0  0  0
  -24.7840  -27.8200   19.2620 C   0  0  0  0  0  3  0  0  0  0  0  0
  -23.5490  -29.9180   20.0490 C   0  0  0  0  0  2  0  0  0  0  0  0
  -24.6660  -31.1360   21.9660 N   0  0  0  0  0  0  0  0  0  0  0  0
  -23.5730  -32.1700   23.6650 O   0  0  0  0  0  0  0  0  0  0  0  0
  -22.7690  -29.4990   22.4110 C   0  0  0  0  0  0  0  0  0  0  0  0
  -21.4460  -29.2930   22.3030 N   0  0  0  0  0  0  0  0  0  0  0  0
  -23.4780  -28.8780   23.2090 O   0  0  0  0  0  0  0  0  0  0  0  0
  -20.9370  -29.8480   21.6290 H   0  0  0  0  0  0  0  0  0  0  0  0
  -18.1100  -27.9870   22.8160 C   0  0  0  0  0  0  0  0  0  0  0  0
  -20.6590  -28.3250   23.0700 C   0  0  0  0  0  3  0  0  0  0  0  0
  -20.8020  -26.9040   22.4790 C   0  0  0  0  0  2  0  0  0  0  0  0
  -19.7000  -26.5530   21.4740 C   0  0  0  0  0  2  0  0  0  0  0  0
  -18.3200  -26.6500   22.1290 C   0  0  0  0  0  2  0  0  0  0  0  0
  -19.2070  -28.7830   23.2420 C   0  0  0  0  0  0  0  0  0  0  0  0
  -18.9530  -30.0330   23.8460 C   0  0  0  0  0  3  0  0  0  0  0  0
  -17.6340  -30.4900   24.0280 C   0  0  0  0  0  3  0  0  0  0  0  0
  -16.5510  -29.6920   23.6170 C   0  0  0  0  0  3  0  0  0  0  0  0
  -16.7900  -28.4420   23.0180 C   0  0  0  0  0  3  0  0  0  0  0  0
  -25.9370  -32.5400   23.6830 C   0  0  0  0  0  3  0  0  0  0  0  0
  -26.5060  -31.7340   24.9140 C   0  0  1  0  0  0  0  0  0  0  0  0
  -25.4560  -31.4550   26.0170 C   0  0  0  0  0  1  0  0  0  0  0  0
  -27.0820  -30.3740   24.4600 C   0  0  0  0  0  1  0  0  0  0  0  0
  -27.6760  -32.5200   25.5540 C   0  0  0  0  0  1  0  0  0  0  0  0
  -25.6260  -33.9240   24.0680 N   0  0  0  0  0  0  0  0  0  0  0  0
  -25.9360  -35.0050   23.3390 C   0  0  0  0  0  0  0  0  0  0  0  0
  -26.5830  -34.9430   22.2900 O   0  0  0  0  0  0  0  0  0  0  0  0
  -25.0480  -34.0470   24.8880 H   0  0  0  0  0  0  0  0  0  0  0  0
  -24.2010  -36.8060   23.0750 C   0  0  0  0  0  1  0  0  0  0  0  0
  -25.4520  -36.3720   23.8560 C   0  0  0  0  0  3  0  0  0  0  0  0
  -27.5920  -37.2280   24.7050 C   0  0  0  0  0  1  0  0  0  0  0  0
  -26.4830  -37.4300   23.7750 N   0  0  0  0  0  0  0  0  0  0  0  0
  -26.0770  -38.3430   23.9610 H   0  0  0  0  0  0  0  0  0  0  0  0
  -31.1400  -16.4220   19.8000 C   0  0  2  0  0  0  0  0  0  0  0  0
  -31.1640  -15.0260   20.6870 C   0  0  0  0  0  0  0  0  0  0  0  0
  -30.8710  -12.7070   19.8760 C   0  0  0  0  0  2  0  0  0  0  0  0
  -29.9870  -12.4730   18.6400 C   0  0  0  0  0  2  0  0  0  0  0  0
  -28.4970  -12.4150   19.0050 C   0  0  0  0  0  2  0  0  0  0  0  0
  -28.0430  -13.4350   20.0870 C   0  0  0  0  0  3  0  0  0  0  0  0
  -29.0760  -13.5930   21.2210 C   0  0  0  0  0  2  0  0  0  0  0  0
  -30.3590  -13.9090   20.5630 N   0  0  0  0  0  0  0  0  0  0  0  0
  -32.2550  -14.7850   21.1780 O   0  0  0  0  0  0  0  0  0  0  0  0
  -25.6220  -14.0320   20.6710 C   0  0  0  0  0  0  0  0  0  0  0  0
  -24.5320  -13.2590   20.9520 C   0  0  0  0  0  0  0  0  0  0  0  0
  -25.0000  -11.9080   20.9700 C   0  0  0  0  0  0  0  0  0  0  0  0
  -26.6840  -13.1540   20.5320 N   0  0  0  0  0  0  0  0  0  0  0  0
  -26.3110  -11.8730   20.7820 N   0  0  0  0  0  0  0  0  0  0  0  0
  -24.2690  -10.6430   21.1000 C   0  0  0  0  0  0  0  0  0  0  0  0
  -24.6240   -9.6820   22.0730 C   0  0  0  0  0  3  0  0  0  0  0  0
  -23.8910   -8.4830   22.1950 C   0  0  0  0  0  3  0  0  0  0  0  0
  -22.7890   -8.2350   21.3430 C   0  0  0  0  0  0  0  0  0  0  0  0
  -22.4560   -9.1820   20.3580 C   0  0  0  0  0  3  0  0  0  0  0  0
  -23.1900  -10.3740   20.2340 C   0  0  0  0  0  3  0  0  0  0  0  0
  -22.0320   -7.0900   21.3760 O   0  0  0  0  0  0  0  0  0  0  0  0
  -21.8630   -6.3740   22.5350 C   0  0  0  0  0  0  0  0  0  0  0  0
  -21.2880   -6.9480   23.6880 C   0  0  0  0  0  3  0  0  0  0  0  0
  -21.0700   -6.1570   24.8350 C   0  0  0  0  0  3  0  0  0  0  0  0
  -21.4150   -4.7920   24.8240 C   0  0  0  0  0  0  0  0  0  0  0  0
  -21.9820   -4.2170   23.6740 C   0  0  0  0  0  3  0  0  0  0  0  0
  -22.2020   -5.0060   22.5300 C   0  0  0  0  0  0  0  0  0  0  0  0
  -22.7300   -4.4420   21.4170 F   0  0  0  0  0  0  0  0  0  0  0  0
  -21.1990   -4.0290   25.9210 F   0  0  0  0  0  0  0  0  0  0  0  0
  -23.1150  -13.7320   21.1030 C   0  0  0  0  0  0  0  0  0  0  0  0
  -22.3220  -13.0410   21.9130 N   0  0  0  0  0  0  0  0  0  0  0  0
  -22.7180  -14.7510   20.5380 O   0  0  0  0  0  0  0  0  0  0  0  0
  -22.6560  -12.2160   22.3880 H   0  0  0  0  0  0  0  0  0  0  0  0
  -21.3690  -13.3410   22.0640 H   0  0  0  0  0  0  0  0  0  0  0  0
  -25.7950  -15.4040   20.4940 N   0  0  0  0  0  0  0  0  0  0  0  0
  -25.0180  -16.0530   20.5350 H   0  0  0  0  0  0  0  0  0  0  0  0
  -26.6770  -15.8540   20.2910 H   0  0  0  0  0  0  0  0  0  0  0  0
  -32.6760  -16.8220   19.6000 C   0  0  2  0  0  0  0  0  0  0  0  0
  -33.3860  -15.8590   18.9940 F   0  0  0  0  0  0  0  0  0  0  0  0
  -33.2950  -17.1040   20.7540 F   0  0  0  0  0  0  0  0  0  0  0  0
  -32.8470  -17.9200   18.8580 F   0  0  0  0  0  0  0  0  0  0  0  0
  -29.0640  -16.1820   18.1500 C   0  0  0  0  0  1  0  0  0  0  0  0
  -30.5920  -16.1780   18.3310 C   0  0  2  0  0  0  0  0  0  0  0  0
  -31.0970  -15.0580   17.8210 F   0  0  0  0  0  0  0  0  0  0  0  0
  -31.0060  -17.1180   17.4790 F   0  0  0  0  0  0  0  0  0  0  0  0
  1  2  2  0
  1  6  1  0
  2  3  1  0
  3  5  2  0
  3  4  1  0
  6  5  1  0
  7  2  1  0
  7  8  2  0
  9 10  2  0
  9  8  1  0
 11 13  1  0
 11 10  1  0
 12 23  2  0
 13 18  1  0
 14 22  1  0
 14 24  1  0
 15 21  1  0
 15 17  1  0
 16 22  1  0
 17 16  1  0
 18 17  2  0
 19 20  1  0
 19 13  2  0
 20 15  2  0
 21 14  1  0
 22 12  1  0
 24 26  2  0
 25 24  1  0
 27 25  1  0
 28 37  2  0
 28 33  1  0
 29 25  1  0
 29 33  1  0
 30 29  1  0
 31 32  1  0
 31 30  1  0
 32 28  1  0
 33 34  2  0
 34 35  1  0
 36 35  2  0
 37 36  1  0
 38 12  1  0
 38 43  1  0
 38 39  1  0
 39 42  1  1
 39 40  1  0
 41 39  1  0
 43 46  1  0
 44 48  1  0
 44 43  1  0
 45 44  2  0
 48 47  1  0
 50 48  1  0
 50 51  1  0
 50 49  1  0
 52  6  1  1
 52 53  1  0
 53 60  2  0
 54 59  1  0
 55 56  1  0
 55 54  1  0
 57 56  1  0
 57 64  1  0
 57 58  1  0
 59 53  1  0
 59 58  1  0
 61 62  2  0
 62 63  1  0
 62 81  1  0
 63 66  1  0
 64 61  1  0
 64 65  1  0
 65 63  2  0
 66 67  1  0
 67 68  2  0
 69 72  1  0
 69 68  1  0
 70 69  2  0
 71 70  1  0
 71 66  2  0
 72 73  1  0
 73 74  1  0
 74 75  2  0
 76 75  1  0
 76 80  1  0
 77 76  2  0
 78 73  2  0
 78 77  1  0
 79 78  1  0
 81 82  1  0
 82 85  1  0
 82 84  1  0
 83 81  2  0
 86 87  1  0
 86 61  1  0
 88 86  1  0
 89 52  1  0
 89 91  1  1
 90 89  1  0
 92 89  1  0
 94 93  1  1
 94 52  1  0
 95 94  1  0
 96 94  1  0
M  ISO  4  10 101  11 101  52 100  53 100
M  END
>  <TORSDO>  (15) 
F 23

>  <SCORE>  (15) 
-10.915

>  <name>  (15) 
16

>  <ligand_id>  (15) 
16

>  <original_smiles>  (15) 
[H]c1c([H])c([H])c2c(c1[H])C([H])([H])C([H])([H])C([H])([H])C2([H])N([H])C(=O)C1([H])N(C(=O)C([H])(N([H])C(=O)C([H])(N([H])C([H])([H])[H])C([H])([H])[H])C(C([H])([H])[H])(C([H])([H])[H])C([H])([H])[H])C([H])([H])c2c([H])c(OC([H])([H])C([H])([H])C([H])([H])C([H])([H])c3c(C([H])([H])[H])nn(C(C(=O)N4C([H])([H])C([H])([H])C([H])([H])C([H])(n5nc(-c6c([H])c([H])c(Oc7c([H])c([H])c(F)c([H])c7F)c([H])c6[H])c(C(=O)N([H])[H])c5N([H])[H])C4([H])[H])(C(F)(F)F)C(F)(F)C([H])([H])[H])c3[H])c([H])c([H])c2C1([H])[H]

>  <smiles>  (15) 
[H]c1c([H])c([H])c2c(c1[H])C([H])([H])C([H])([H])C([H])([H])C2([H])N([H])C(=O)C1([H])N(C(=O)C([H])(N([H])C(=O)C([H])(N([H])C([H])([H])[H])C([H])([H])[H])C(C([H])([H])[H])(C([H])([H])[H])C([H])([H])[H])C([H])([H])c2c([H])c(OC([H])([H])C([H])([H])C([H])([H])C([H])([H])c3c(C([H])([H])[H])nn(C(C(=O)N4C([H])([H])C([H])([H])C([H])([H])C([H])(n5nc(-c6c([H])c([H])c(Oc7c([H])c([H])c(F)c([H])c7F)c([H])c6[H])c(C(=O)N([H])[H])c5N([H])[H])C4([H])[H])(C(F)(F)F)C(F)(F)C([H])([H])[H])c3[H])c([H])c([H])c2C1([H])[H]

$$$$
17:0:0
     RDKit          3D

 95104  0  0  1  0  0  0  0  0999 V2000
  -26.6270  -19.3060   18.5460 C   0  0  0  0  0  3  0  0  0  0  0  0
  -26.0710  -20.5680   18.4260 C   0  0  0  0  0  0  0  0  0  0  0  0
  -27.9650  -20.7650   19.5730 C   0  0  0  0  0  0  0  0  0  0  0  0
  -29.0980  -21.1930   20.3250 C   0  0  0  0  0  0  0  0  0  0  0  0
  -29.7010  -18.8630   20.3710 C   0  0  0  0  0  0  0  0  0  0  0  0
  -24.8120  -21.0250   17.7630 C   0  0  0  0  0  1  0  0  0  0  0  0
  -29.9820  -20.1890   20.7260 N   0  0  0  0  0  0  0  0  0  0  0  0
  -28.6150  -18.5120   19.6360 N   0  0  0  0  0  2  0  0  0  0  0  0
  -27.7760  -19.4890   19.2640 N   0  0  0  0  0  0  0  0  0  0  0  0
  -26.9290  -21.4320   19.0830 N   0  0  0  0  0  0  0  0  0  0  0  0
  -26.7860  -22.4280   19.1850 H   0  0  0  0  0  0  0  0  0  0  0  0
  -31.8350  -17.8910   19.5090 C   0  0  0  0  0  1  0  0  0  0  0  0
  -30.7630  -17.7020   20.6050 C   0  0  0  0  0  3  0  0  0  0  0  0
  -31.0290  -15.0630   20.5220 C   0  0  0  0  0  0  0  0  0  0  0  0
  -30.7720  -12.8410   19.4220 C   0  0  0  0  0  2  0  0  0  0  0  0
  -29.8540  -12.9850   18.1910 C   0  0  0  0  0  2  0  0  0  0  0  0
  -28.3770  -12.8280   18.5970 C   0  0  0  0  0  2  0  0  0  0  0  0
  -28.0040  -13.6740   19.8440 C   0  0  0  0  0  3  0  0  0  0  0  0
  -29.0470  -13.5320   20.9720 C   0  0  0  0  0  2  0  0  0  0  0  0
  -30.3550  -13.8710   20.4000 N   0  0  0  0  0  0  0  0  0  0  0  0
  -32.2370  -15.0950   20.2820 O   0  0  0  0  0  0  0  0  0  0  0  0
  -30.3030  -16.2360   20.6750 N   0  0  0  0  0  0  0  0  0  0  0  0
  -29.3130  -16.1150   20.8180 H   0  0  0  0  0  0  0  0  0  0  0  0
  -25.6110  -14.2720   20.5450 C   0  0  0  0  0  0  0  0  0  0  0  0
  -24.5330  -13.5000   20.8820 C   0  0  0  0  0  0  0  0  0  0  0  0
  -24.9870  -12.1460   20.8390 C   0  0  0  0  0  0  0  0  0  0  0  0
  -26.6520  -13.3880   20.3110 N   0  0  0  0  0  0  0  0  0  0  0  0
  -26.2820  -12.1040   20.5520 N   0  0  0  0  0  0  0  0  0  0  0  0
  -24.2470  -10.8860   20.9950 C   0  0  0  0  0  0  0  0  0  0  0  0
  -24.6090   -9.9310   21.9700 C   0  0  0  0  0  3  0  0  0  0  0  0
  -23.8710   -8.7380   22.1130 C   0  0  0  0  0  3  0  0  0  0  0  0
  -22.7550   -8.4890   21.2800 C   0  0  0  0  0  0  0  0  0  0  0  0
  -22.4120   -9.4320   20.2940 C   0  0  0  0  0  3  0  0  0  0  0  0
  -23.1520  -10.6170   20.1490 C   0  0  0  0  0  3  0  0  0  0  0  0
  -21.9930   -7.3460   21.3290 O   0  0  0  0  0  0  0  0  0  0  0  0
  -21.8270   -6.6420   22.4940 C   0  0  0  0  0  0  0  0  0  0  0  0
  -21.1750   -7.2000   23.6150 C   0  0  0  0  0  3  0  0  0  0  0  0
  -20.9650   -6.4170   24.7690 C   0  0  0  0  0  3  0  0  0  0  0  0
  -21.3970   -5.0780   24.8000 C   0  0  0  0  0  0  0  0  0  0  0  0
  -22.0410   -4.5200   23.6830 C   0  0  0  0  0  3  0  0  0  0  0  0
  -22.2530   -5.2980   22.5320 C   0  0  0  0  0  0  0  0  0  0  0  0
  -22.8560   -4.7490   21.4500 F   0  0  0  0  0  0  0  0  0  0  0  0
  -21.1880   -4.3240   25.9040 F   0  0  0  0  0  0  0  0  0  0  0  0
  -23.1350  -13.9840   21.1340 C   0  0  0  0  0  0  0  0  0  0  0  0
  -22.3830  -13.2780   21.9730 N   0  0  0  0  0  0  0  0  0  0  0  0
  -22.7160  -15.0230   20.6230 O   0  0  0  0  0  0  0  0  0  0  0  0
  -22.7340  -12.4380   22.4070 H   0  0  0  0  0  0  0  0  0  0  0  0
  -21.4440  -13.5840   22.1830 H   0  0  0  0  0  0  0  0  0  0  0  0
  -25.7880  -15.6440   20.3950 N   0  0  0  0  0  0  0  0  0  0  0  0
  -25.0280  -16.2990   20.5440 H   0  0  0  0  0  0  0  0  0  0  0  0
  -26.6510  -16.0900   20.1140 H   0  0  0  0  0  0  0  0  0  0  0  0
  -29.2190  -22.6930   20.8540 C   0  0  0  0  0  2  0  0  0  0  0  0
  -28.9600  -24.0190   19.9510 C   0  0  0  0  0  3  0  0  0  0  0  0
  -28.5050  -25.3810   20.7010 C   0  0  0  0  0  3  0  0  0  0  0  0
  -28.5880  -26.7470   20.0920 O   0  0  0  0  0  0  0  0  0  0  0  0
  -24.5730  -31.8940   23.2780 C   0  0  0  0  0  0  0  0  0  0  0  0
  -27.4480  -27.5700   20.1020 C   0  0  0  0  0  0  0  0  0  0  0  0
  -23.4770  -30.5350   21.5320 C   0  0  0  0  0  3  0  0  0  0  0  0
  -25.0300  -29.1050   20.0840 C   0  0  0  0  0  0  0  0  0  0  0  0
  -26.0070  -30.9530   21.4480 C   0  0  0  0  0  2  0  0  0  0  0  0
  -26.1610  -29.6080   20.7400 C   0  0  0  0  0  0  0  0  0  0  0  0
  -27.3770  -28.8550   20.7330 C   0  0  0  0  0  3  0  0  0  0  0  0
  -26.2940  -27.1220   19.4290 C   0  0  0  0  0  3  0  0  0  0  0  0
  -25.0990  -27.8700   19.4180 C   0  0  0  0  0  3  0  0  0  0  0  0
  -23.7600  -29.9330   20.1300 C   0  0  0  0  0  2  0  0  0  0  0  0
  -24.7030  -31.1440   22.1440 N   0  0  0  0  0  0  0  0  0  0  0  0
  -23.4640  -32.1040   23.7900 O   0  0  0  0  0  0  0  0  0  0  0  0
  -22.8230  -29.4500   22.4210 C   0  0  0  0  0  0  0  0  0  0  0  0
  -21.4990  -29.2650   22.2760 N   0  0  0  0  0  0  0  0  0  0  0  0
  -23.5060  -28.7810   23.2000 O   0  0  0  0  0  0  0  0  0  0  0  0
  -21.0060  -29.8590   21.6250 H   0  0  0  0  0  0  0  0  0  0  0  0
  -18.1240  -28.0490   22.7470 C   0  0  0  0  0  0  0  0  0  0  0  0
  -20.6900  -28.2670   22.9780 C   0  0  0  0  0  3  0  0  0  0  0  0
  -20.7670  -26.8920   22.2740 C   0  0  0  0  0  2  0  0  0  0  0  0
  -19.6380  -26.6700   21.2610 C   0  0  0  0  0  2  0  0  0  0  0  0
  -18.2730  -26.7650   21.9480 C   0  0  0  0  0  2  0  0  0  0  0  0
  -19.2590  -28.7620   23.2160 C   0  0  0  0  0  0  0  0  0  0  0  0
  -19.0640  -29.9670   23.9250 C   0  0  0  0  0  3  0  0  0  0  0  0
  -17.7670  -30.4590   24.1670 C   0  0  0  0  0  3  0  0  0  0  0  0
  -16.6470  -29.7420   23.7120 C   0  0  0  0  0  3  0  0  0  0  0  0
  -16.8270  -28.5390   23.0080 C   0  0  0  0  0  3  0  0  0  0  0  0
  -25.8100  -32.5420   23.9730 C   0  0  0  0  0  3  0  0  0  0  0  0
  -26.2500  -31.7870   25.2880 C   0  0  1  0  0  0  0  0  0  0  0  0
  -25.0920  -31.5440   26.2830 C   0  0  0  0  0  1  0  0  0  0  0  0
  -26.8740  -30.4140   24.9480 C   0  0  0  0  0  1  0  0  0  0  0  0
  -27.3450  -32.6000   26.0170 C   0  0  0  0  0  1  0  0  0  0  0  0
  -25.4700  -33.9410   24.2720 N   0  0  0  0  0  0  0  0  0  0  0  0
  -25.8430  -34.9910   23.5280 C   0  0  0  0  0  0  0  0  0  0  0  0
  -26.5770  -34.8860   22.5420 O   0  0  0  0  0  0  0  0  0  0  0  0
  -24.8250  -34.0970   25.0320 H   0  0  0  0  0  0  0  0  0  0  0  0
  -24.1670  -36.7970   23.0180 C   0  0  0  0  0  1  0  0  0  0  0  0
  -25.3200  -36.3800   23.9450 C   0  0  0  0  0  3  0  0  0  0  0  0
  -27.3490  -37.2670   25.0060 C   0  0  0  0  0  1  0  0  0  0  0  0
  -26.3640  -37.4280   23.9410 N   0  0  0  0  0  0  0  0  0  0  0  0
  -25.9480  -38.3520   24.0300 H   0  0  0  0  0  0  0  0  0  0  0  0
  1  9  1  0
  2  1  2  0
  2 10  1  0
  3  4  2  0
  4  7  1  0
  4 52  1  0
  5 13  1  0
  5  7  2  0
  6  2  1  0
  8  5  1  0
  9  3  1  0
  9  8  1  0
 10 11  1  0
 10  3  1  0
 13 12  1  0
 13 22  1  0
 14 22  1  0
 15 20  1  0
 16 17  1  0
 16 15  1  0
 18 17  1  0
 18 27  1  0
 18 19  1  0
 20 14  1  0
 20 19  1  0
 21 14  2  0
 22 23  1  0
 24 25  2  0
 25 44  1  0
 26 25  1  0
 26 29  1  0
 27 24  1  0
 27 28  1  0
 28 26  2  0
 29 30  1  0
 30 31  2  0
 32 35  1  0
 32 31  1  0
 33 32  2  0
 34 33  1  0
 34 29  2  0
 35 36  1  0
 36 41  2  0
 36 37  1  0
 37 38  2  0
 38 39  1  0
 39 43  1  0
 40 39  2  0
 41 40  1  0
 42 41  1  0
 44 45  1  0
 45 48  1  0
 45 47  1  0
 46 44  2  0
 49 50  1  0
 49 24  1  0
 51 49  1  0
 53 54  2  0
 53 52  1  0
 55 57  1  0
 55 54  1  0
 56 67  2  0
 57 62  1  0
 58 66  1  0
 58 68  1  0
 59 65  1  0
 59 61  1  0
 60 66  1  0
 61 60  1  0
 62 61  2  0
 63 57  2  0
 64 63  1  0
 64 59  2  0
 65 58  1  0
 66 56  1  0
 68 70  2  0
 69 68  1  0
 71 69  1  0
 72 81  2  0
 72 77  1  0
 73 69  1  0
 73 77  1  0
 74 73  1  0
 75 76  1  0
 75 74  1  0
 76 72  1  0
 77 78  2  0
 78 79  1  0
 80 79  2  0
 81 80  1  0
 82 56  1  0
 82 87  1  0
 82 83  1  0
 83 86  1  1
 83 84  1  0
 85 83  1  0
 87 90  1  0
 88 92  1  0
 88 87  1  0
 89 88  2  0
 92 91  1  0
 94 92  1  0
 94 95  1  0
 94 93  1  0
M  ISO  4  14 100  22 100  54 101  55 101
M  END
>  <TORSDO>  (16) 
F 20

>  <SCORE>  (16) 
-13.584

>  <name>  (16) 
17

>  <ligand_id>  (16) 
17

>  <original_smiles>  (16) 
[H]c1c([H])c([H])c2c(c1[H])C([H])([H])C([H])([H])C([H])([H])C2([H])N([H])C(=O)C1([H])N(C(=O)C([H])(N([H])C(=O)C([H])(N([H])C([H])([H])[H])C([H])([H])[H])C(C([H])([H])[H])(C([H])([H])[H])C([H])([H])[H])C([H])([H])c2c([H])c(OC([H])([H])C([H])([H])C([H])([H])c3nc(C([H])(N([H])C(=O)N4C([H])([H])C([H])([H])C([H])([H])C([H])(n5nc(-c6c([H])c([H])c(Oc7c([H])c([H])c(F)c([H])c7F)c([H])c6[H])c(C(=O)N([H])[H])c5N([H])[H])C4([H])[H])C([H])([H])[H])nn4c([H])c(C([H])([H])[H])[n+]([H])c34)c([H])c([H])c2C1([H])[H]

>  <smiles>  (16) 
[H]c1c([H])c([H])c2c(c1[H])C([H])([H])C([H])([H])C([H])([H])C2([H])N([H])C(=O)C1([H])N(C(=O)C([H])(N([H])C(=O)C([H])(N([H])C([H])([H])[H])C([H])([H])[H])C(C([H])([H])[H])(C([H])([H])[H])C([H])([H])[H])C([H])([H])c2c([H])c(OC([H])([H])C([H])([H])C([H])([H])c3nc(C([H])(N([H])C(=O)N4C([H])([H])C([H])([H])C([H])([H])C([H])(n5nc(-c6c([H])c([H])c(Oc7c([H])c([H])c(F)c([H])c7F)c([H])c6[H])c(C(=O)N([H])[H])c5N([H])[H])C4([H])[H])C([H])([H])[H])nn4c([H])c(C([H])([H])[H])[n+]([H])c34)c([H])c([H])c2C1([H])[H]

$$$$
18:0:0
     RDKit          3D

 97105  0  0  1  0  0  0  0  0999 V2000
  -29.1520  -19.1310   17.8130 C   0  0  0  0  0  3  0  0  0  0  0  0
  -29.3870  -20.2240   18.6090 C   0  0  0  0  0  0  0  0  0  0  0  0
  -30.0680  -18.3940   19.7020 C   0  0  0  0  0  3  0  0  0  0  0  0
  -29.6130  -16.6540   17.9890 C   0  0  0  0  0  1  0  0  0  0  0  0
  -29.5950  -18.0270   18.4960 N   0  0  0  0  0  0  0  0  0  0  0  0
  -29.9340  -19.7240   19.7600 N   0  0  0  0  0  0  0  0  0  0  0  0
  -30.2410  -20.2890   20.5430 H   0  0  0  0  0  0  0  0  0  0  0  0
  -29.1980  -21.6960   18.3780 C   0  0  0  0  0  2  0  0  0  0  0  0
  -26.9690  -22.8870   18.2330 C   0  0  0  0  0  1  0  0  0  0  0  0
  -27.3310  -21.4160   20.1710 C   0  0  0  0  0  1  0  0  0  0  0  0
  -28.0600  -22.3850   19.2040 C   0  0  1  0  0  0  0  0  0  0  0  0
  -28.6610  -23.5300   20.0870 C   0  0  0  0  0  2  0  0  0  0  0  0
  -29.1390  -24.8460   19.4120 C   0  0  0  0  0  2  0  0  0  0  0  0
  -27.9820  -25.7950   19.0680 C   0  0  0  0  0  2  0  0  0  0  0  0
  -28.1670  -27.1590   19.4600 O   0  0  0  0  0  0  0  0  0  0  0  0
  -24.6120  -31.9580   23.3350 C   0  0  0  0  0  0  0  0  0  0  0  0
  -27.0030  -27.8910   19.6030 C   0  0  0  0  0  0  0  0  0  0  0  0
  -23.2880  -30.7630   21.6260 C   0  0  0  0  0  3  0  0  0  0  0  0
  -24.6290  -29.3990   19.9480 C   0  0  0  0  0  0  0  0  0  0  0  0
  -25.8040  -31.1270   21.3130 C   0  0  0  0  0  2  0  0  0  0  0  0
  -25.8320  -29.8420   20.5130 C   0  0  0  0  0  0  0  0  0  0  0  0
  -27.0200  -29.0950   20.3430 C   0  0  0  0  0  3  0  0  0  0  0  0
  -25.7720  -27.4740   19.0320 C   0  0  0  0  0  3  0  0  0  0  0  0
  -24.5930  -28.2100   19.2100 C   0  0  0  0  0  3  0  0  0  0  0  0
  -23.4010  -30.2490   20.1680 C   0  0  0  0  0  2  0  0  0  0  0  0
  -24.5900  -31.2880   22.1490 N   0  0  0  0  0  0  0  0  0  0  0  0
  -23.5700  -32.1740   23.9670 O   0  0  0  0  0  0  0  0  0  0  0  0
  -22.6860  -29.6400   22.4980 C   0  0  0  0  0  0  0  0  0  0  0  0
  -21.3630  -29.4350   22.3850 N   0  0  0  0  0  0  0  0  0  0  0  0
  -23.4020  -28.9580   23.2360 O   0  0  0  0  0  0  0  0  0  0  0  0
  -20.8390  -30.0360   21.7640 H   0  0  0  0  0  0  0  0  0  0  0  0
  -18.0400  -28.0790   22.8000 C   0  0  0  0  0  0  0  0  0  0  0  0
  -20.5870  -28.4130   23.0850 C   0  0  0  0  0  3  0  0  0  0  0  0
  -20.7440  -27.0330   22.4060 C   0  0  0  0  0  2  0  0  0  0  0  0
  -19.6520  -26.7440   21.3720 C   0  0  0  0  0  2  0  0  0  0  0  0
  -18.2660  -26.7900   22.0250 C   0  0  0  0  0  2  0  0  0  0  0  0
  -19.1300  -28.8490   23.2830 C   0  0  0  0  0  0  0  0  0  0  0  0
  -18.8680  -30.0580   23.9620 C   0  0  0  0  0  3  0  0  0  0  0  0
  -17.5460  -30.4990   24.1620 C   0  0  0  0  0  3  0  0  0  0  0  0
  -16.4700  -29.7230   23.6970 C   0  0  0  0  0  3  0  0  0  0  0  0
  -16.7180  -28.5150   23.0220 C   0  0  0  0  0  3  0  0  0  0  0  0
  -25.9400  -32.5090   23.9370 C   0  0  0  0  0  3  0  0  0  0  0  0
  -25.6820  -33.8810   24.3950 N   0  0  0  0  0  0  0  0  0  0  0  0
  -26.0180  -34.9850   23.7130 C   0  0  0  0  0  0  0  0  0  0  0  0
  -26.6520  -34.9510   22.6520 O   0  0  0  0  0  0  0  0  0  0  0  0
  -25.1170  -33.9840   25.2260 H   0  0  0  0  0  0  0  0  0  0  0  0
  -24.3390  -36.8490   23.5520 C   0  0  0  0  0  1  0  0  0  0  0  0
  -25.5840  -36.3410   24.2970 C   0  0  0  0  0  3  0  0  0  0  0  0
  -27.7620  -37.0880   25.1500 C   0  0  0  0  0  1  0  0  0  0  0  0
  -26.6470  -37.3700   24.2490 N   0  0  0  0  0  0  0  0  0  0  0  0
  -26.2720  -38.2850   24.4870 H   0  0  0  0  0  0  0  0  0  0  0  0
  -26.5010  -31.6220   25.1170 C   0  0  1  0  0  0  0  0  0  0  0  0
  -25.4580  -31.3130   26.2160 C   0  0  0  0  0  1  0  0  0  0  0  0
  -27.0350  -30.2720   24.5820 C   0  0  0  0  0  1  0  0  0  0  0  0
  -27.7040  -32.3350   25.7800 C   0  0  0  0  0  1  0  0  0  0  0  0
  -30.7600  -17.5400   20.7490 C   0  0  0  0  0  3  0  0  0  0  0  0
  -30.6220  -15.0840   20.8250 C   0  0  0  0  0  0  0  0  0  0  0  0
  -30.4050  -12.8960   19.7150 C   0  0  0  0  0  2  0  0  0  0  0  0
  -29.5340  -13.0080   18.4490 C   0  0  0  0  0  2  0  0  0  0  0  0
  -28.0430  -12.8060   18.7910 C   0  0  0  0  0  2  0  0  0  0  0  0
  -27.5920  -13.6320   20.0240 C   0  0  0  0  0  3  0  0  0  0  0  0
  -28.6040  -13.5100   21.1870 C   0  0  0  0  0  2  0  0  0  0  0  0
  -29.9210  -13.9180   20.6700 N   0  0  0  0  0  0  0  0  0  0  0  0
  -31.8020  -15.1190   20.4750 O   0  0  0  0  0  0  0  0  0  0  0  0
  -28.7540  -16.5170   21.8090 C   0  0  0  0  0  1  0  0  0  0  0  0
  -29.9960  -16.2850   21.0530 N   0  0  0  0  0  0  0  0  0  0  0  0
  -25.1410  -14.0990   20.6340 C   0  0  0  0  0  0  0  0  0  0  0  0
  -24.1010  -13.2630   20.9450 C   0  0  0  0  0  0  0  0  0  0  0  0
  -24.6360  -11.9390   20.9200 C   0  0  0  0  0  0  0  0  0  0  0  0
  -26.2410  -13.2780   20.4450 N   0  0  0  0  0  0  0  0  0  0  0  0
  -25.9390  -11.9740   20.6720 N   0  0  0  0  0  0  0  0  0  0  0  0
  -23.9730  -10.6360   21.0570 C   0  0  0  0  0  0  0  0  0  0  0  0
  -24.4070   -9.6830   22.0050 C   0  0  0  0  0  3  0  0  0  0  0  0
  -23.7410   -8.4450   22.1290 C   0  0  0  0  0  3  0  0  0  0  0  0
  -22.6290   -8.1510   21.3050 C   0  0  0  0  0  0  0  0  0  0  0  0
  -22.2180   -9.0930   20.3460 C   0  0  0  0  0  3  0  0  0  0  0  0
  -22.8840  -10.3230   20.2200 C   0  0  0  0  0  3  0  0  0  0  0  0
  -21.9360   -6.9640   21.3400 O   0  0  0  0  0  0  0  0  0  0  0  0
  -21.8490   -6.2140   22.4840 C   0  0  0  0  0  0  0  0  0  0  0  0
  -21.3040   -6.7350   23.6780 C   0  0  0  0  0  3  0  0  0  0  0  0
  -21.1720   -5.9090   24.8110 C   0  0  0  0  0  3  0  0  0  0  0  0
  -21.5710   -4.5600   24.7490 C   0  0  0  0  0  0  0  0  0  0  0  0
  -22.1070   -4.0380   23.5600 C   0  0  0  0  0  3  0  0  0  0  0  0
  -22.2410   -4.8620   22.4290 C   0  0  0  0  0  0  0  0  0  0  0  0
  -22.7400   -4.3480   21.2800 F   0  0  0  0  0  0  0  0  0  0  0  0
  -21.4360   -3.7640   25.8360 F   0  0  0  0  0  0  0  0  0  0  0  0
  -22.6690  -13.6560   21.1580 C   0  0  0  0  0  0  0  0  0  0  0  0
  -21.9460  -12.9150   21.9900 N   0  0  0  0  0  0  0  0  0  0  0  0
  -22.1960  -14.6560   20.6180 O   0  0  0  0  0  0  0  0  0  0  0  0
  -22.3440  -12.1060   22.4440 H   0  0  0  0  0  0  0  0  0  0  0  0
  -20.9800  -13.1530   22.1740 H   0  0  0  0  0  0  0  0  0  0  0  0
  -25.2430  -15.4780   20.4750 N   0  0  0  0  0  0  0  0  0  0  0  0
  -24.4420  -16.0960   20.5380 H   0  0  0  0  0  0  0  0  0  0  0  0
  -26.0800  -15.9490   20.1630 H   0  0  0  0  0  0  0  0  0  0  0  0
  -31.3020  -17.4940   23.3220 C   0  0  0  0  0  1  0  0  0  0  0  0
  -32.6080  -18.9810   21.7930 C   0  0  0  0  0  1  0  0  0  0  0  0
  -31.2340  -18.3230   22.0230 C   0  0  0  0  0  3  0  0  0  0  0  0
  1  5  1  0
  1  2  2  0
  2  6  1  0
  3  6  1  0
  3 56  1  0
  4  5  1  0
  5  3  1  0
  6  7  1  0
  8  2  1  0
  8 11  1  0
 11  9  1  6
 11 12  1  0
 11 10  1  0
 13 12  1  0
 14 13  1  0
 14 15  1  0
 15 17  1  0
 16 27  2  0
 17 22  1  0
 18 26  1  0
 18 28  1  0
 19 25  1  0
 19 21  1  0
 20 26  1  0
 21 20  1  0
 22 21  2  0
 23 24  1  0
 23 17  2  0
 24 19  2  0
 25 18  1  0
 26 16  1  0
 28 30  2  0
 29 28  1  0
 31 29  1  0
 32 41  2  0
 32 37  1  0
 33 29  1  0
 33 37  1  0
 34 33  1  0
 35 36  1  0
 35 34  1  0
 36 32  1  0
 37 38  2  0
 38 39  1  0
 40 39  2  0
 41 40  1  0
 42 16  1  0
 42 43  1  0
 42 52  1  0
 43 46  1  0
 44 48  1  0
 44 43  1  0
 45 44  2  0
 48 47  1  0
 50 48  1  0
 50 51  1  0
 50 49  1  0
 52 55  1  1
 52 53  1  0
 54 52  1  0
 56 66  1  0
 56 97  1  0
 57 66  1  0
 58 63  1  0
 59 60  1  0
 59 58  1  0
 61 60  1  0
 61 70  1  0
 61 62  1  0
 63 57  1  0
 63 62  1  0
 64 57  2  0
 66 65  1  0
 67 68  2  0
 68 87  1  0
 69 68  1  0
 69 72  1  0
 70 67  1  0
 70 71  1  0
 71 69  2  0
 72 73  1  0
 73 74  2  0
 75 78  1  0
 75 74  1  0
 76 75  2  0
 77 76  1  0
 77 72  2  0
 78 79  1  0
 79 80  1  0
 80 81  2  0
 82 81  1  0
 82 86  1  0
 83 82  2  0
 84 79  2  0
 84 83  1  0
 85 84  1  0
 87 88  1  0
 88 91  1  0
 88 90  1  0
 89 87  2  0
 92 93  1  0
 92 67  1  0
 94 92  1  0
 96 97  1  0
 97 95  1  0
M  ISO  4  14 101  15 101  57 100  66 100
M  END
>  <TORSDO>  (17) 
F 23

>  <SCORE>  (17) 
-9.905

>  <name>  (17) 
18

>  <ligand_id>  (17) 
18

>  <original_smiles>  (17) 
[H]c1c([H])c([H])c2c(c1[H])C([H])([H])C([H])([H])C([H])([H])C2([H])N([H])C(=O)C1([H])N(C(=O)C([H])(N([H])C(=O)C([H])(N([H])C([H])([H])[H])C([H])([H])[H])C(C([H])([H])[H])(C([H])([H])[H])C([H])([H])[H])C([H])([H])c2c([H])c(OC([H])([H])C([H])([H])C([H])([H])C(C([H])([H])[H])(C([H])([H])[H])C([H])([H])c3c([H])n(C([H])([H])[H])c(C([H])(N(C(=O)N4C([H])([H])C([H])([H])C([H])([H])C([H])(n5nc(-c6c([H])c([H])c(Oc7c([H])c([H])c(F)c([H])c7F)c([H])c6[H])c(C(=O)N([H])[H])c5N([H])[H])C4([H])[H])C([H])([H])[H])C([H])(C([H])([H])[H])C([H])([H])[H])[n+]3[H])c([H])c([H])c2C1([H])[H]

>  <smiles>  (17) 
[H]c1c([H])c([H])c2c(c1[H])C([H])([H])C([H])([H])C([H])([H])C2([H])N([H])C(=O)C1([H])N(C(=O)C([H])(N([H])C(=O)C([H])(N([H])C([H])([H])[H])C([H])([H])[H])C(C([H])([H])[H])(C([H])([H])[H])C([H])([H])[H])C([H])([H])c2c([H])c(OC([H])([H])C([H])([H])C([H])([H])C(C([H])([H])[H])(C([H])([H])[H])C([H])([H])c3c([H])n(C([H])([H])[H])c(C([H])(N(C(=O)N4C([H])([H])C([H])([H])C([H])([H])C([H])(n5nc(-c6c([H])c([H])c(Oc7c([H])c([H])c(F)c([H])c7F)c([H])c6[H])c(C(=O)N([H])[H])c5N([H])[H])C4([H])[H])C([H])([H])[H])C([H])(C([H])([H])[H])C([H])([H])[H])[n+]3[H])c([H])c([H])c2C1([H])[H]

$$$$
19:0:0
     RDKit          3D

101109  0  0  1  0  0  0  0  0999 V2000
  -29.6420  -20.6770   20.4330 C   0  0  0  0  0  0  0  0  0  0  0  0
  -28.7780  -23.5090   20.4690 C   0  0  0  0  0  0  0  0  0  0  0  0
  -28.0500  -22.4050   19.8210 C   0  0  0  0  0  0  0  0  0  0  0  0
  -30.2750  -21.7250   21.2090 C   0  0  0  0  0  0  0  0  0  0  0  0
  -28.5240  -21.0920   19.7730 N   0  0  0  0  0  0  0  0  0  0  0  0
  -29.8750  -23.0660   21.1740 N   0  0  0  0  0  0  0  0  0  0  0  0
  -25.7170  -22.7730   20.5820 C   0  0  0  0  0  1  0  0  0  0  0  0
  -26.4860  -23.6410   18.2490 C   0  0  0  0  0  1  0  0  0  0  0  0
  -26.5780  -22.5250   19.3190 C   0  0  1  0  0  0  0  0  0  0  0  0
  -26.7110  -20.6880   17.4080 C   0  0  0  0  0  1  0  0  0  0  0  0
  -24.4500  -21.2540   18.3380 C   0  0  0  0  0  1  0  0  0  0  0  0
  -25.9730  -21.2080   18.6580 C   0  0  0  0  0  3  0  0  0  0  0  0
  -31.2670  -21.4170   22.3490 C   0  0  1  0  0  0  0  0  0  0  0  0
  -31.9250  -20.2690   22.1960 F   0  0  0  0  0  0  0  0  0  0  0  0
  -32.2060  -22.3670   22.4200 F   0  0  0  0  0  0  0  0  0  0  0  0
  -30.5180  -21.3570   23.6960 C   0  0  2  0  0  0  0  0  0  0  0  0
  -29.7290  -22.4260   23.8680 F   0  0  0  0  0  0  0  0  0  0  0  0
  -31.3740  -21.2930   24.7210 F   0  0  0  0  0  0  0  0  0  0  0  0
  -29.7560  -20.2600   23.7150 F   0  0  0  0  0  0  0  0  0  0  0  0
  -30.2480  -19.1790   20.1200 C   0  0  0  0  0  2  0  0  0  0  0  0
  -29.4960  -17.7010   20.2360 C   0  0  0  0  0  2  0  0  0  0  0  0
  -30.7850  -15.2460   20.0030 C   0  0  0  0  0  0  0  0  0  0  0  0
  -30.5780  -12.9410   18.9670 C   0  0  0  0  0  2  0  0  0  0  0  0
  -29.5720  -12.9790   17.7900 C   0  0  0  0  0  2  0  0  0  0  0  0
  -28.1370  -12.7710   18.3190 C   0  0  0  0  0  2  0  0  0  0  0  0
  -27.8260  -13.6590   19.5520 C   0  0  0  0  0  3  0  0  0  0  0  0
  -28.9460  -13.5780   20.6090 C   0  0  0  0  0  2  0  0  0  0  0  0
  -30.1890  -13.9930   19.9540 N   0  0  0  0  0  0  0  0  0  0  0  0
  -31.8840  -15.3730   19.4480 O   0  0  0  0  0  0  0  0  0  0  0  0
  -30.6110  -16.4860   22.0590 C   0  0  0  0  0  1  0  0  0  0  0  0
  -30.1800  -16.3440   20.6700 N   0  0  0  0  0  0  0  0  0  0  0  0
  -25.5000  -14.2510   20.4480 C   0  0  0  0  0  0  0  0  0  0  0  0
  -24.4470  -13.4700   20.8560 C   0  0  0  0  0  0  0  0  0  0  0  0
  -24.8890  -12.1200   20.7380 C   0  0  0  0  0  0  0  0  0  0  0  0
  -26.5130  -13.3650   20.1160 N   0  0  0  0  0  0  0  0  0  0  0  0
  -26.1560  -12.0790   20.3540 N   0  0  0  0  0  0  0  0  0  0  0  0
  -24.1640  -10.8530   20.9240 C   0  0  0  0  0  0  0  0  0  0  0  0
  -24.5990   -9.8840   21.8550 C   0  0  0  0  0  3  0  0  0  0  0  0
  -23.8760   -8.6830   22.0290 C   0  0  0  0  0  3  0  0  0  0  0  0
  -22.7020   -8.4480   21.2720 C   0  0  0  0  0  0  0  0  0  0  0  0
  -22.2920   -9.4010   20.3250 C   0  0  0  0  0  3  0  0  0  0  0  0
  -23.0160  -10.5940   20.1480 C   0  0  0  0  0  3  0  0  0  0  0  0
  -21.9450   -7.3040   21.3560 O   0  0  0  0  0  0  0  0  0  0  0  0
  -21.8180   -6.6130   22.5310 C   0  0  0  0  0  0  0  0  0  0  0  0
  -21.2790   -7.2100   23.6920 C   0  0  0  0  0  3  0  0  0  0  0  0
  -21.1070   -6.4440   24.8640 C   0  0  0  0  0  3  0  0  0  0  0  0
  -21.4550   -5.0800   24.8710 C   0  0  0  0  0  0  0  0  0  0  0  0
  -21.9810   -4.4810   23.7110 C   0  0  0  0  0  3  0  0  0  0  0  0
  -22.1600   -5.2470   22.5470 C   0  0  0  0  0  0  0  0  0  0  0  0
  -22.6540   -4.6610   21.4290 F   0  0  0  0  0  0  0  0  0  0  0  0
  -21.2790   -4.3400   25.9920 F   0  0  0  0  0  0  0  0  0  0  0  0
  -23.0770  -13.9480   21.2370 C   0  0  0  0  0  0  0  0  0  0  0  0
  -22.4030  -13.2360   22.1390 N   0  0  0  0  0  0  0  0  0  0  0  0
  -22.6110  -14.9780   20.7620 O   0  0  0  0  0  0  0  0  0  0  0  0
  -22.7890  -12.3980   22.5450 H   0  0  0  0  0  0  0  0  0  0  0  0
  -21.4830  -13.5430   22.4290 H   0  0  0  0  0  0  0  0  0  0  0  0
  -25.6740  -15.6220   20.3060 N   0  0  0  0  0  0  0  0  0  0  0  0
  -24.9400  -16.3100   20.4450 H   0  0  0  0  0  0  0  0  0  0  0  0
  -26.5260  -16.0260   19.9410 H   0  0  0  0  0  0  0  0  0  0  0  0
  -28.2200  -25.0470   20.8190 C   0  0  0  0  0  2  0  0  0  0  0  0
  -28.6220  -26.4450   20.2470 O   0  0  0  0  0  0  0  0  0  0  0  0
  -24.6280  -31.9220   23.1770 C   0  0  0  0  0  0  0  0  0  0  0  0
  -27.5950  -27.4560   20.1430 C   0  0  0  0  0  0  0  0  0  0  0  0
  -23.6040  -30.5160   21.4310 C   0  0  0  0  0  3  0  0  0  0  0  0
  -25.2240  -29.1000   20.0310 C   0  0  0  0  0  0  0  0  0  0  0  0
  -26.1450  -30.9220   21.4370 C   0  0  0  0  0  2  0  0  0  0  0  0
  -26.3360  -29.5670   20.7410 C   0  0  0  0  0  0  0  0  0  0  0  0
  -27.5330  -28.7510   20.7970 C   0  0  0  0  0  3  0  0  0  0  0  0
  -26.4760  -27.1360   19.3400 C   0  0  0  0  0  3  0  0  0  0  0  0
  -25.3080  -27.9080   19.3100 C   0  0  0  0  0  3  0  0  0  0  0  0
  -23.9440  -29.9100   20.0480 C   0  0  0  0  0  2  0  0  0  0  0  0
  -24.8050  -31.1480   22.0650 N   0  0  0  0  0  0  0  0  0  0  0  0
  -23.5000  -32.1230   23.6550 O   0  0  0  0  0  0  0  0  0  0  0  0
  -22.9360  -29.4360   22.3240 C   0  0  0  0  0  0  0  0  0  0  0  0
  -21.6080  -29.2600   22.1910 N   0  0  0  0  0  0  0  0  0  0  0  0
  -23.6160  -28.7560   23.1000 O   0  0  0  0  0  0  0  0  0  0  0  0
  -21.1170  -29.8490   21.5310 H   0  0  0  0  0  0  0  0  0  0  0  0
  -18.2310  -28.0500   22.6970 C   0  0  0  0  0  0  0  0  0  0  0  0
  -20.8020  -28.2630   22.9010 C   0  0  0  0  0  3  0  0  0  0  0  0
  -20.8690  -26.8860   22.1970 C   0  0  0  0  0  2  0  0  0  0  0  0
  -19.7290  -26.6690   21.1960 C   0  0  0  0  0  2  0  0  0  0  0  0
  -18.3700  -26.7690   21.8950 C   0  0  0  0  0  2  0  0  0  0  0  0
  -19.3720  -28.7600   23.1580 C   0  0  0  0  0  0  0  0  0  0  0  0
  -19.1840  -29.9650   23.8710 C   0  0  0  0  0  3  0  0  0  0  0  0
  -17.8900  -30.4550   24.1290 C   0  0  0  0  0  3  0  0  0  0  0  0
  -16.7640  -29.7420   23.6820 C   0  0  0  0  0  3  0  0  0  0  0  0
  -16.9380  -28.5430   22.9700 C   0  0  0  0  0  3  0  0  0  0  0  0
  -25.8280  -32.6080   23.8960 C   0  0  0  0  0  3  0  0  0  0  0  0
  -26.2570  -31.8790   25.2310 C   0  0  1  0  0  0  0  0  0  0  0  0
  -25.0820  -31.6320   26.2080 C   0  0  0  0  0  1  0  0  0  0  0  0
  -26.9150  -30.5120   24.9380 C   0  0  0  0  0  1  0  0  0  0  0  0
  -27.3280  -32.7220   25.9640 C   0  0  0  0  0  1  0  0  0  0  0  0
  -25.4430  -34.0010   24.1710 N   0  0  0  0  0  0  0  0  0  0  0  0
  -25.7790  -35.0500   23.4100 C   0  0  0  0  0  0  0  0  0  0  0  0
  -26.5020  -34.9490   22.4150 O   0  0  0  0  0  0  0  0  0  0  0  0
  -24.8080  -34.1460   24.9430 H   0  0  0  0  0  0  0  0  0  0  0  0
  -23.9960  -36.7660   22.9550 C   0  0  0  0  0  1  0  0  0  0  0  0
  -25.2250  -36.4310   23.8150 C   0  0  0  0  0  3  0  0  0  0  0  0
  -27.2890  -37.4350   24.6900 C   0  0  0  0  0  1  0  0  0  0  0  0
  -26.2190  -37.5220   23.7000 N   0  0  0  0  0  0  0  0  0  0  0  0
  -25.7720  -38.4300   23.7970 H   0  0  0  0  0  0  0  0  0  0  0  0
  1  4  1  0
  2 60  1  0
  2  6  1  0
  3  2  2  0
  4 13  1  0
  5  3  1  0
  5  1  2  0
  6  4  2  0
  9  8  1  6
  9  3  1  0
  9  7  1  0
 10 12  1  0
 11 12  1  0
 12  9  1  0
 13 15  1  1
 13 16  1  0
 14 13  1  0
 16 19  1  6
 16 17  1  0
 16 18  1  0
 20 21  1  0
 20  1  1  0
 21 31  1  0
 22 31  1  0
 23 28  1  0
 24 25  1  0
 24 23  1  0
 26 25  1  0
 26 35  1  0
 26 27  1  0
 28 22  1  0
 28 27  1  0
 29 22  2  0
 31 30  1  0
 32 33  2  0
 33 52  1  0
 34 33  1  0
 34 37  1  0
 35 36  1  0
 35 32  1  0
 36 34  2  0
 37 38  1  0
 38 39  2  0
 40 43  1  0
 40 39  1  0
 41 40  2  0
 42 41  1  0
 42 37  2  0
 43 44  1  0
 44 49  2  0
 44 45  1  0
 45 46  2  0
 46 47  1  0
 47 51  1  0
 48 47  2  0
 49 48  1  0
 50 49  1  0
 52 53  1  0
 53 56  1  0
 53 55  1  0
 54 52  2  0
 57 58  1  0
 57 32  1  0
 59 57  1  0
 61 60  1  0
 62 73  2  0
 63 61  1  0
 63 68  1  0
 64 72  1  0
 64 74  1  0
 65 71  1  0
 65 67  1  0
 66 72  1  0
 67 68  2  0
 67 66  1  0
 69 63  2  0
 70 69  1  0
 70 65  2  0
 71 64  1  0
 72 62  1  0
 74 76  2  0
 75 74  1  0
 77 75  1  0
 78 87  2  0
 78 83  1  0
 79 75  1  0
 79 83  1  0
 80 79  1  0
 81 82  1  0
 81 80  1  0
 82 78  1  0
 83 84  2  0
 84 85  1  0
 86 85  2  0
 87 86  1  0
 88 62  1  0
 88 93  1  0
 88 89  1  0
 89 92  1  1
 89 90  1  0
 91 89  1  0
 93 96  1  0
 94 98  1  0
 94 93  1  0
 95 94  2  0
 98 97  1  0
100101  1  0
100 98  1  0
100 99  1  0
M  ISO  4  22 100  31 100  60 101  61 101
M  END
>  <TORSDO>  (18) 
F 23

>  <SCORE>  (18) 
-11.997

>  <name>  (18) 
19

>  <ligand_id>  (18) 
19

>  <original_smiles>  (18) 
[H]c1c([H])c([H])c2c(c1[H])C([H])([H])C([H])([H])C([H])([H])C2([H])N([H])C(=O)C1([H])N(C(=O)C([H])(N([H])C(=O)C([H])(N([H])C([H])([H])[H])C([H])([H])[H])C(C([H])([H])[H])(C([H])([H])[H])C([H])([H])[H])C([H])([H])c2c([H])c(OC([H])([H])c3nc(C(F)(F)C(F)(F)F)c(C([H])([H])C([H])([H])N(C(=O)N4C([H])([H])C([H])([H])C([H])([H])C([H])(n5nc(-c6c([H])c([H])c(Oc7c([H])c([H])c(F)c([H])c7F)c([H])c6[H])c(C(=O)N([H])[H])c5N([H])[H])C4([H])[H])C([H])([H])[H])nc3C(C([H])([H])[H])(C([H])([H])[H])C([H])(C([H])([H])[H])C([H])([H])[H])c([H])c([H])c2C1([H])[H]

>  <smiles>  (18) 
[H]c1c([H])c([H])c2c(c1[H])C([H])([H])C([H])([H])C([H])([H])C2([H])N([H])C(=O)C1([H])N(C(=O)C([H])(N([H])C(=O)C([H])(N([H])C([H])([H])[H])C([H])([H])[H])C(C([H])([H])[H])(C([H])([H])[H])C([H])([H])[H])C([H])([H])c2c([H])c(OC([H])([H])c3nc(C(F)(F)C(F)(F)F)c(C([H])([H])C([H])([H])N(C(=O)N4C([H])([H])C([H])([H])C([H])([H])C([H])(n5nc(-c6c([H])c([H])c(Oc7c([H])c([H])c(F)c([H])c7F)c([H])c6[H])c(C(=O)N([H])[H])c5N([H])[H])C4([H])[H])C([H])([H])[H])nc3C(C([H])([H])[H])(C([H])([H])[H])C([H])(C([H])([H])[H])C([H])([H])[H])c([H])c([H])c2C1([H])[H]

$$$$
20:0:0
     RDKit          3D

 94102  0  0  1  0  0  0  0  0999 V2000
  -28.4180  -21.2430   19.8420 C   0  0  0  0  0  3  0  0  0  0  0  0
  -29.3040  -22.0490   20.6070 C   0  0  0  0  0  0  0  0  0  0  0  0
  -29.6370  -19.1350   20.1620 C   0  0  0  0  0  0  0  0  0  0  0  0
  -30.5520  -19.9590   20.9320 C   0  0  0  0  0  0  0  0  0  0  0  0
  -28.5920  -19.8820   19.6350 N   0  0  0  0  0  0  0  0  0  0  0  0
  -30.3570  -21.3360   21.1510 N   0  0  0  0  0  0  0  0  0  0  0  0
  -31.8410  -19.4040   21.5590 C   0  0  1  0  0  0  0  0  0  0  0  0
  -32.2490  -18.2670   21.0080 F   0  0  0  0  0  0  0  0  0  0  0  0
  -32.8380  -20.2840   21.4330 F   0  0  0  0  0  0  0  0  0  0  0  0
  -31.6440  -19.1930   22.8630 F   0  0  0  0  0  0  0  0  0  0  0  0
  -30.7560  -17.6730   18.3670 C   0  0  0  0  0  1  0  0  0  0  0  0
  -28.3980  -17.2510   18.9320 C   0  0  0  0  0  1  0  0  0  0  0  0
  -29.7860  -17.5700   19.5720 C   0  0  2  0  0  0  0  0  0  0  0  0
  -30.7470  -15.0140   19.9960 C   0  0  0  0  0  0  0  0  0  0  0  0
  -30.5150  -12.7020   18.9730 C   0  0  0  0  0  2  0  0  0  0  0  0
  -29.5120  -12.6730   17.7950 C   0  0  0  0  0  2  0  0  0  0  0  0
  -28.0900  -12.4070   18.3170 C   0  0  0  0  0  2  0  0  0  0  0  0
  -27.7420  -13.3280   19.5110 C   0  0  0  0  0  3  0  0  0  0  0  0
  -28.8500  -13.3460   20.5780 C   0  0  0  0  0  2  0  0  0  0  0  0
  -30.0980  -13.7770   19.9270 N   0  0  0  0  0  0  0  0  0  0  0  0
  -31.8890  -15.0550   19.5260 O   0  0  0  0  0  0  0  0  0  0  0  0
  -29.8660  -16.3910   21.8290 C   0  0  0  0  0  1  0  0  0  0  0  0
  -30.0770  -16.2260   20.3830 N   0  0  0  0  0  0  0  0  0  0  0  0
  -25.4380  -13.9240   20.4430 C   0  0  0  0  0  0  0  0  0  0  0  0
  -24.3860  -13.1570   20.8520 C   0  0  0  0  0  0  0  0  0  0  0  0
  -24.8240  -11.8010   20.7430 C   0  0  0  0  0  0  0  0  0  0  0  0
  -26.4400  -13.0370   20.0910 N   0  0  0  0  0  0  0  0  0  0  0  0
  -26.0880  -11.7530   20.3440 N   0  0  0  0  0  0  0  0  0  0  0  0
  -24.0960  -10.5440   20.9360 C   0  0  0  0  0  0  0  0  0  0  0  0
  -24.5420   -9.5680   21.8540 C   0  0  0  0  0  3  0  0  0  0  0  0
  -23.8160   -8.3710   22.0320 C   0  0  0  0  0  3  0  0  0  0  0  0
  -22.6310   -8.1430   21.2930 C   0  0  0  0  0  0  0  0  0  0  0  0
  -22.2060   -9.1080   20.3630 C   0  0  0  0  0  3  0  0  0  0  0  0
  -22.9300  -10.2960   20.1840 C   0  0  0  0  0  3  0  0  0  0  0  0
  -21.8760   -6.9980   21.3820 O   0  0  0  0  0  0  0  0  0  0  0  0
  -21.7940   -6.2810   22.5470 C   0  0  0  0  0  0  0  0  0  0  0  0
  -21.3100   -6.8550   23.7440 C   0  0  0  0  0  3  0  0  0  0  0  0
  -21.1770   -6.0620   24.9000 C   0  0  0  0  0  3  0  0  0  0  0  0
  -21.5190   -4.6980   24.8620 C   0  0  0  0  0  0  0  0  0  0  0  0
  -21.9960   -4.1230   23.6710 C   0  0  0  0  0  3  0  0  0  0  0  0
  -22.1320   -4.9120   22.5160 C   0  0  0  0  0  0  0  0  0  0  0  0
  -22.5720   -4.3500   21.3640 F   0  0  0  0  0  0  0  0  0  0  0  0
  -21.3830   -3.9330   25.9710 F   0  0  0  0  0  0  0  0  0  0  0  0
  -23.0160  -13.6440   21.2290 C   0  0  0  0  0  0  0  0  0  0  0  0
  -22.3340  -12.9300   22.1140 N   0  0  0  0  0  0  0  0  0  0  0  0
  -22.5620  -14.6920   20.7700 O   0  0  0  0  0  0  0  0  0  0  0  0
  -22.7130  -12.0800   22.5060 H   0  0  0  0  0  0  0  0  0  0  0  0
  -21.4170  -13.2370   22.4060 H   0  0  0  0  0  0  0  0  0  0  0  0
  -25.6310  -15.2980   20.3170 N   0  0  0  0  0  0  0  0  0  0  0  0
  -24.9240  -15.9800   20.5630 H   0  0  0  0  0  0  0  0  0  0  0  0
  -26.5090  -15.7110   20.0310 H   0  0  0  0  0  0  0  0  0  0  0  0
  -29.1890  -23.6630   20.8940 C   0  0  0  0  0  3  0  0  0  0  0  0
  -28.1550  -24.7680   20.2070 C   0  0  0  0  0  3  0  0  0  0  0  0
  -28.2870  -26.2960   20.3840 O   0  0  0  0  0  0  0  0  0  0  0  0
  -24.5890  -31.9260   23.1800 C   0  0  0  0  0  0  0  0  0  0  0  0
  -27.1920  -27.2130   20.2530 C   0  0  0  0  0  0  0  0  0  0  0  0
  -23.3870  -30.5010   21.5600 C   0  0  0  0  0  3  0  0  0  0  0  0
  -24.8410  -28.9080   20.1610 C   0  0  0  0  0  0  0  0  0  0  0  0
  -25.9330  -30.7890   21.3840 C   0  0  0  0  0  2  0  0  0  0  0  0
  -26.0110  -29.3890   20.7590 C   0  0  0  0  0  0  0  0  0  0  0  0
  -27.1850  -28.5560   20.7860 C   0  0  0  0  0  3  0  0  0  0  0  0
  -25.9990  -26.8180   19.6060 C   0  0  0  0  0  3  0  0  0  0  0  0
  -24.8440  -27.6350   19.5650 C   0  0  0  0  0  3  0  0  0  0  0  0
  -23.6080  -29.7990   20.1920 C   0  0  0  0  0  2  0  0  0  0  0  0
  -24.6560  -31.0930   22.0990 N   0  0  0  0  0  0  0  0  0  0  0  0
  -23.5060  -32.2200   23.7080 O   0  0  0  0  0  0  0  0  0  0  0  0
  -22.7100  -29.5120   22.5410 C   0  0  0  0  0  0  0  0  0  0  0  0
  -21.3800  -29.3530   22.4230 N   0  0  0  0  0  0  0  0  0  0  0  0
  -23.3810  -28.8920   23.3680 O   0  0  0  0  0  0  0  0  0  0  0  0
  -20.8990  -29.9070   21.7290 H   0  0  0  0  0  0  0  0  0  0  0  0
  -17.9830  -28.2110   22.9630 C   0  0  0  0  0  0  0  0  0  0  0  0
  -20.5500  -28.4330   23.2040 C   0  0  0  0  0  3  0  0  0  0  0  0
  -20.6220  -26.9960   22.6340 C   0  0  0  0  0  2  0  0  0  0  0  0
  -19.5030  -26.6870   21.6340 C   0  0  0  0  0  2  0  0  0  0  0  0
  -18.1300  -26.8570   22.2920 C   0  0  0  0  0  2  0  0  0  0  0  0
  -19.1190  -28.9570   23.3770 C   0  0  0  0  0  0  0  0  0  0  0  0
  -18.9260  -30.2240   23.9680 C   0  0  0  0  0  3  0  0  0  0  0  0
  -17.6310  -30.7450   24.1510 C   0  0  0  0  0  3  0  0  0  0  0  0
  -16.5110  -29.9950   23.7550 C   0  0  0  0  0  3  0  0  0  0  0  0
  -16.6870  -28.7310   23.1640 C   0  0  0  0  0  3  0  0  0  0  0  0
  -25.8730  -32.5640   23.7990 C   0  0  0  0  0  3  0  0  0  0  0  0
  -26.3960  -31.7920   25.0730 C   0  0  1  0  0  0  0  0  0  0  0  0
  -25.3070  -31.5480   26.1440 C   0  0  0  0  0  1  0  0  0  0  0  0
  -26.9840  -30.4180   24.6760 C   0  0  0  0  0  1  0  0  0  0  0  0
  -27.5470  -32.5900   25.7310 C   0  0  0  0  0  1  0  0  0  0  0  0
  -25.5570  -33.9590   24.1410 N   0  0  0  0  0  0  0  0  0  0  0  0
  -25.8820  -35.0220   23.3940 C   0  0  0  0  0  0  0  0  0  0  0  0
  -26.5500  -34.9310   22.3610 O   0  0  0  0  0  0  0  0  0  0  0  0
  -24.9630  -34.1030   24.9440 H   0  0  0  0  0  0  0  0  0  0  0  0
  -24.1590  -36.8220   23.0550 C   0  0  0  0  0  1  0  0  0  0  0  0
  -25.3940  -36.4050   23.8680 C   0  0  0  0  0  3  0  0  0  0  0  0
  -27.5220  -37.2790   24.7260 C   0  0  0  0  0  1  0  0  0  0  0  0
  -26.4280  -37.4600   23.7760 N   0  0  0  0  0  0  0  0  0  0  0  0
  -26.0210  -38.3770   23.9320 H   0  0  0  0  0  0  0  0  0  0  0  0
  1  2  1  0
  2 52  1  0
  2  6  2  0
  3  4  2  0
  4  6  1  0
  4  7  1  0
  5  1  2  0
  5  3  1  0
  7 10  1  1
  8  7  1  0
  9  7  1  0
 13 11  1  6
 12 13  1  0
 13  3  1  0
 13 23  1  0
 14 23  1  0
 15 20  1  0
 16 17  1  0
 16 15  1  0
 18 17  1  0
 18 27  1  0
 18 19  1  0
 20 14  1  0
 20 19  1  0
 21 14  2  0
 23 22  1  0
 24 25  2  0
 25 44  1  0
 26 25  1  0
 26 29  1  0
 27 28  1  0
 27 24  1  0
 28 26  2  0
 29 30  1  0
 30 31  2  0
 32 35  1  0
 32 31  1  0
 33 32  2  0
 34 33  1  0
 34 29  2  0
 35 36  1  0
 36 37  1  0
 37 38  2  0
 39 38  1  0
 39 43  1  0
 40 39  2  0
 41 36  2  0
 41 40  1  0
 42 41  1  0
 44 45  1  0
 45 48  1  0
 45 47  1  0
 46 44  2  0
 49 24  1  0
 49 50  1  0
 51 49  1  0
 53 54  1  0
 53 52  2  0
 55 66  2  0
 56 54  1  0
 56 61  1  0
 57 65  1  0
 57 67  1  0
 58 64  1  0
 58 60  1  0
 59 65  1  0
 60 61  2  0
 60 59  1  0
 62 56  2  0
 63 62  1  0
 63 58  2  0
 64 57  1  0
 65 55  1  0
 67 69  2  0
 68 67  1  0
 70 68  1  0
 71 80  2  0
 71 76  1  0
 72 68  1  0
 72 76  1  0
 73 72  1  0
 74 75  1  0
 74 73  1  0
 75 71  1  0
 76 77  2  0
 77 78  1  0
 79 78  2  0
 80 79  1  0
 81 55  1  0
 81 86  1  0
 81 82  1  0
 82 85  1  1
 82 83  1  0
 84 82  1  0
 86 89  1  0
 87 91  1  0
 87 86  1  0
 88 87  2  0
 91 90  1  0
 93 91  1  0
 93 94  1  0
 93 92  1  0
M  ISO  4  14 100  23 100  53 101  54 101
M  END
>  <TORSDO>  (19) 
F 20

>  <SCORE>  (19) 
-14.269

>  <name>  (19) 
20

>  <ligand_id>  (19) 
20

>  <original_smiles>  (19) 
[H]c1nc(C(N(C(=O)N2C([H])([H])C([H])([H])C([H])([H])C([H])(n3nc(-c4c([H])c([H])c(Oc5c([H])c([H])c(F)c([H])c5F)c([H])c4[H])c(C(=O)N([H])[H])c3N([H])[H])C2([H])[H])C([H])([H])[H])(C([H])([H])[H])C([H])([H])[H])c(C(F)(F)F)nc1C([H])([H])C([H])([H])Oc1c([H])c([H])c2c(c1[H])C([H])([H])N(C(=O)C([H])(N([H])C(=O)C([H])(N([H])C([H])([H])[H])C([H])([H])[H])C(C([H])([H])[H])(C([H])([H])[H])C([H])([H])[H])C([H])(C(=O)N([H])C1([H])c3c([H])c([H])c([H])c([H])c3C([H])([H])C([H])([H])C1([H])[H])C2([H])[H]

>  <smiles>  (19) 
[H]c1nc(C(N(C(=O)N2C([H])([H])C([H])([H])C([H])([H])C([H])(n3nc(-c4c([H])c([H])c(Oc5c([H])c([H])c(F)c([H])c5F)c([H])c4[H])c(C(=O)N([H])[H])c3N([H])[H])C2([H])[H])C([H])([H])[H])(C([H])([H])[H])C([H])([H])[H])c(C(F)(F)F)nc1C([H])([H])C([H])([H])Oc1c([H])c([H])c2c(c1[H])C([H])([H])N(C(=O)C([H])(N([H])C(=O)C([H])(N([H])C([H])([H])[H])C([H])([H])[H])C(C([H])([H])[H])(C([H])([H])[H])C([H])([H])[H])C([H])(C(=O)N([H])C1([H])c3c([H])c([H])c([H])c([H])c3C([H])([H])C([H])([H])C1([H])[H])C2([H])[H]

$$$$
21:0:0
     RDKit          3D

 95104  0  0  1  0  0  0  0  0999 V2000
  -27.8280  -22.7020   19.2670 C   0  0  0  0  0  3  0  0  0  0  0  0
  -28.6760  -23.7760   19.6400 C   0  0  0  0  0  0  0  0  0  0  0  0
  -29.8390  -23.3100   20.3050 C   0  0  0  0  0  0  0  0  0  0  0  0
  -29.2210  -21.0280   20.1480 C   0  0  0  0  0  0  0  0  0  0  0  0
  -30.9290  -24.2700   20.7320 C   0  0  0  0  0  1  0  0  0  0  0  0
  -28.0920  -21.3830   19.5130 N   0  0  0  0  0  0  0  0  0  0  0  0
  -30.0860  -21.9830   20.5500 N   0  0  0  0  0  0  0  0  0  0  0  0
  -28.1600  -18.8450   20.9630 C   0  0  0  0  0  1  0  0  0  0  0  0
  -30.4560  -19.3860   21.7060 C   0  0  0  0  0  1  0  0  0  0  0  0
  -29.4950  -19.4650   20.5010 C   0  0  2  0  0  0  0  0  0  0  0  0
  -30.9720  -14.8530   19.9270 C   0  0  0  0  0  0  0  0  0  0  0  0
  -30.6760  -12.5880   18.9600 C   0  0  0  0  0  2  0  0  0  0  0  0
  -29.6910  -12.6940   17.7750 C   0  0  0  0  0  2  0  0  0  0  0  0
  -28.2410  -12.5390   18.2700 C   0  0  0  0  0  2  0  0  0  0  0  0
  -27.9330  -13.4210   19.5080 C   0  0  0  0  0  3  0  0  0  0  0  0
  -29.0380  -13.3260   20.5820 C   0  0  0  0  0  2  0  0  0  0  0  0
  -30.3100  -13.6480   19.9290 N   0  0  0  0  0  0  0  0  0  0  0  0
  -32.1690  -14.8780   19.6210 O   0  0  0  0  0  0  0  0  0  0  0  0
  -30.8660  -18.2790   17.4510 C   0  0  0  0  0  3  0  0  0  0  0  0
  -30.4030  -17.2320   19.2030 C   0  0  0  0  0  0  0  0  0  0  0  0
  -30.8790  -17.0260   17.9710 N   0  0  0  0  0  0  0  0  0  0  0  0
  -30.4060  -19.2260   18.2550 N   0  0  0  0  0  0  0  0  0  0  0  0
  -30.0720  -18.5790   19.4080 N   0  0  0  0  0  0  0  0  0  0  0  0
  -30.2540  -16.0370   20.0610 N   0  0  0  0  0  0  0  0  0  0  0  0
  -29.3810  -15.9700   20.5580 H   0  0  0  0  0  0  0  0  0  0  0  0
  -25.5930  -14.0260   20.3650 C   0  0  0  0  0  0  0  0  0  0  0  0
  -24.5350  -13.2570   20.7690 C   0  0  0  0  0  0  0  0  0  0  0  0
  -24.9780  -11.9010   20.6910 C   0  0  0  0  0  0  0  0  0  0  0  0
  -26.6100  -13.1380   20.0590 N   0  0  0  0  0  0  0  0  0  0  0  0
  -26.2520  -11.8540   20.3200 N   0  0  0  0  0  0  0  0  0  0  0  0
  -24.2450  -10.6440   20.8890 C   0  0  0  0  0  0  0  0  0  0  0  0
  -24.6530   -9.6920   21.8490 C   0  0  0  0  0  3  0  0  0  0  0  0
  -23.9190   -8.5010   22.0350 C   0  0  0  0  0  3  0  0  0  0  0  0
  -22.7610   -8.2530   21.2590 C   0  0  0  0  0  0  0  0  0  0  0  0
  -22.3720   -9.1930   20.2890 C   0  0  0  0  0  3  0  0  0  0  0  0
  -23.1070  -10.3760   20.1030 C   0  0  0  0  0  3  0  0  0  0  0  0
  -22.0000   -7.1130   21.3530 O   0  0  0  0  0  0  0  0  0  0  0  0
  -21.8460   -6.4450   22.5420 C   0  0  0  0  0  0  0  0  0  0  0  0
  -21.2930   -7.0700   23.6810 C   0  0  0  0  0  3  0  0  0  0  0  0
  -21.0870   -6.3280   24.8610 C   0  0  0  0  0  3  0  0  0  0  0  0
  -21.4250   -4.9610   24.9010 C   0  0  0  0  0  0  0  0  0  0  0  0
  -21.9690   -4.3370   23.7650 C   0  0  0  0  0  3  0  0  0  0  0  0
  -22.1750   -5.0760   22.5890 C   0  0  0  0  0  0  0  0  0  0  0  0
  -22.6820   -4.4630   21.4900 F   0  0  0  0  0  0  0  0  0  0  0  0
  -21.2200   -4.2450   26.0310 F   0  0  0  0  0  0  0  0  0  0  0  0
  -23.1590  -13.7460   21.1140 C   0  0  0  0  0  0  0  0  0  0  0  0
  -22.4650  -13.0460   22.0030 N   0  0  0  0  0  0  0  0  0  0  0  0
  -22.7110  -14.7850   20.6310 O   0  0  0  0  0  0  0  0  0  0  0  0
  -22.8410  -12.2060   22.4150 H   0  0  0  0  0  0  0  0  0  0  0  0
  -21.5420  -13.3560   22.2770 H   0  0  0  0  0  0  0  0  0  0  0  0
  -25.7650  -15.3970   20.2070 N   0  0  0  0  0  0  0  0  0  0  0  0
  -25.0080  -16.0520   20.3670 H   0  0  0  0  0  0  0  0  0  0  0  0
  -26.5810  -15.8280   19.7960 H   0  0  0  0  0  0  0  0  0  0  0  0
  -28.4420  -25.2510   19.0720 C   0  0  0  0  0  2  0  0  0  0  0  0
  -28.3090  -26.4790   19.9110 O   0  0  0  0  0  0  0  0  0  0  0  0
  -24.5290  -31.7820   23.0830 C   0  0  0  0  0  0  0  0  0  0  0  0
  -27.1760  -27.3230   19.8660 C   0  0  0  0  0  0  0  0  0  0  0  0
  -23.3300  -30.4030   21.4260 C   0  0  0  0  0  3  0  0  0  0  0  0
  -24.7870  -28.9150   19.9370 C   0  0  0  0  0  0  0  0  0  0  0  0
  -25.8630  -30.7650   21.2160 C   0  0  0  0  0  2  0  0  0  0  0  0
  -25.9560  -29.4020   20.5300 C   0  0  0  0  0  0  0  0  0  0  0  0
  -27.1510  -28.6160   20.4880 C   0  0  0  0  0  3  0  0  0  0  0  0
  -25.9710  -26.8900   19.2690 C   0  0  0  0  0  3  0  0  0  0  0  0
  -24.7970  -27.6660   19.3000 C   0  0  0  0  0  3  0  0  0  0  0  0
  -23.5370  -29.7700   20.0250 C   0  0  0  0  0  2  0  0  0  0  0  0
  -24.5940  -31.0010   21.9650 N   0  0  0  0  0  0  0  0  0  0  0  0
  -23.4480  -32.0250   23.6390 O   0  0  0  0  0  0  0  0  0  0  0  0
  -22.6990  -29.3490   22.3680 C   0  0  0  0  0  0  0  0  0  0  0  0
  -21.3760  -29.1460   22.2520 N   0  0  0  0  0  0  0  0  0  0  0  0
  -23.3990  -28.7200   23.1660 O   0  0  0  0  0  0  0  0  0  0  0  0
  -20.8660  -29.7070   21.5850 H   0  0  0  0  0  0  0  0  0  0  0  0
  -18.0320  -27.8550   22.7530 C   0  0  0  0  0  0  0  0  0  0  0  0
  -20.5860  -28.1730   23.0100 C   0  0  0  0  0  3  0  0  0  0  0  0
  -20.7180  -26.7560   22.4060 C   0  0  0  0  0  2  0  0  0  0  0  0
  -19.6180  -26.4260   21.3930 C   0  0  0  0  0  2  0  0  0  0  0  0
  -18.2380  -26.5240   22.0490 C   0  0  0  0  0  2  0  0  0  0  0  0
  -19.1340  -28.6360   23.1900 C   0  0  0  0  0  0  0  0  0  0  0  0
  -18.8890  -29.8810   23.8090 C   0  0  0  0  0  3  0  0  0  0  0  0
  -17.5740  -30.3460   23.9940 C   0  0  0  0  0  3  0  0  0  0  0  0
  -16.4850  -29.5620   23.5730 C   0  0  0  0  0  3  0  0  0  0  0  0
  -16.7160  -28.3180   22.9580 C   0  0  0  0  0  3  0  0  0  0  0  0
  -25.8070  -32.4250   23.7040 C   0  0  0  0  0  3  0  0  0  0  0  0
  -25.4720  -33.8060   24.0810 N   0  0  0  0  0  0  0  0  0  0  0  0
  -25.7810  -34.8900   23.3580 C   0  0  0  0  0  0  0  0  0  0  0  0
  -26.4490  -34.8340   22.3210 O   0  0  0  0  0  0  0  0  0  0  0  0
  -24.8790  -33.9220   24.8890 H   0  0  0  0  0  0  0  0  0  0  0  0
  -24.0330  -36.6750   23.0560 C   0  0  0  0  0  1  0  0  0  0  0  0
  -25.2710  -36.2530   23.8640 C   0  0  0  0  0  3  0  0  0  0  0  0
  -27.3820  -37.1380   24.7550 C   0  0  0  0  0  1  0  0  0  0  0  0
  -26.2910  -37.3240   23.8020 N   0  0  0  0  0  0  0  0  0  0  0  0
  -25.8710  -38.2330   23.9750 H   0  0  0  0  0  0  0  0  0  0  0  0
  -26.3590  -31.6290   24.9510 C   0  0  1  0  0  0  0  0  0  0  0  0
  -25.2880  -31.3360   26.0270 C   0  0  0  0  0  1  0  0  0  0  0  0
  -26.9650  -30.2760   24.5120 C   0  0  0  0  0  1  0  0  0  0  0  0
  -27.5030  -32.4290   25.6180 C   0  0  0  0  0  1  0  0  0  0  0  0
  1  6  1  0
  1  2  2  0
  2  3  1  0
  3  7  2  0
  3  5  1  0
  4 10  1  0
  4  7  1  0
  6  4  2  0
 10  8  1  1
 10  9  1  0
 11 17  1  0
 11 24  1  0
 12 17  1  0
 13 14  1  0
 13 12  1  0
 15 14  1  0
 15 29  1  0
 15 16  1  0
 17 16  1  0
 18 11  2  0
 19 21  1  0
 19 22  2  0
 20 23  1  0
 20 24  1  0
 21 20  2  0
 22 23  1  0
 23 10  1  0
 24 25  1  0
 26 27  2  0
 27 46  1  0
 28 27  1  0
 28 31  1  0
 29 30  1  0
 29 26  1  0
 30 28  2  0
 31 32  1  0
 32 33  2  0
 34 37  1  0
 34 33  1  0
 35 34  2  0
 36 35  1  0
 36 31  2  0
 37 38  1  0
 38 43  2  0
 38 39  1  0
 39 40  2  0
 40 41  1  0
 41 45  1  0
 42 41  2  0
 43 42  1  0
 44 43  1  0
 46 47  1  0
 47 50  1  0
 47 49  1  0
 48 46  2  0
 51 26  1  0
 51 52  1  0
 53 51  1  0
 54  2  1  0
 54 55  1  0
 56 67  2  0
 57 55  1  0
 57 62  1  0
 58 66  1  0
 58 68  1  0
 59 65  1  0
 59 61  1  0
 60 66  1  0
 61 60  1  0
 62 61  2  0
 63 64  1  0
 63 57  2  0
 64 59  2  0
 65 58  1  0
 66 56  1  0
 68 70  2  0
 69 68  1  0
 71 69  1  0
 72 81  2  0
 72 77  1  0
 73 69  1  0
 73 77  1  0
 74 73  1  0
 75 76  1  0
 75 74  1  0
 76 72  1  0
 77 78  2  0
 78 79  1  0
 80 79  2  0
 81 80  1  0
 82 56  1  0
 82 83  1  0
 82 92  1  0
 83 86  1  0
 84 88  1  0
 84 83  1  0
 85 84  2  0
 88 87  1  0
 90 88  1  0
 90 91  1  0
 90 89  1  0
 92 95  1  1
 92 93  1  0
 94 92  1  0
M  ISO  4  11 100  24 100  54 101  55 101
M  END
>  <TORSDO>  (20) 
F 18

>  <SCORE>  (20) 
-13.864

>  <name>  (20) 
21

>  <ligand_id>  (20) 
21

>  <original_smiles>  (20) 
[H]c1nc(N([H])C(=O)N2C([H])([H])C([H])([H])C([H])([H])C([H])(n3nc(-c4c([H])c([H])c(Oc5c([H])c([H])c(F)c([H])c5F)c([H])c4[H])c(C(=O)N([H])[H])c3N([H])[H])C2([H])[H])n(C(c2nc([H])c(C([H])([H])Oc3c([H])c([H])c4c(c3[H])C([H])([H])N(C(=O)C([H])(N([H])C(=O)C([H])(N([H])C([H])([H])[H])C([H])([H])[H])C(C([H])([H])[H])(C([H])([H])[H])C([H])([H])[H])C([H])(C(=O)N([H])C3([H])c5c([H])c([H])c([H])c([H])c5C([H])([H])C([H])([H])C3([H])[H])C4([H])[H])c(C([H])([H])[H])n2)(C([H])([H])[H])C([H])([H])[H])n1

>  <smiles>  (20) 
[H]c1nc(N([H])C(=O)N2C([H])([H])C([H])([H])C([H])([H])C([H])(n3nc(-c4c([H])c([H])c(Oc5c([H])c([H])c(F)c([H])c5F)c([H])c4[H])c(C(=O)N([H])[H])c3N([H])[H])C2([H])[H])n(C(c2nc([H])c(C([H])([H])Oc3c([H])c([H])c4c(c3[H])C([H])([H])N(C(=O)C([H])(N([H])C(=O)C([H])(N([H])C([H])([H])[H])C([H])([H])[H])C(C([H])([H])[H])(C([H])([H])[H])C([H])([H])[H])C([H])(C(=O)N([H])C3([H])c5c([H])c([H])c([H])c([H])c5C([H])([H])C([H])([H])C3([H])[H])C4([H])[H])c(C([H])([H])[H])n2)(C([H])([H])[H])C([H])([H])[H])n1

$$$$
22:0:0
     RDKit          3D

 94102  0  0  1  0  0  0  0  0999 V2000
  -29.2020  -19.8240   20.3340 C   0  0  0  0  0  3  0  0  0  0  0  0
  -27.5240  -18.5160   19.9010 C   0  0  0  0  0  3  0  0  0  0  0  0
  -28.0980  -20.6090   20.0080 C   0  0  0  0  0  0  0  0  0  0  0  0
  -27.0470  -19.7320   19.7210 N   0  0  0  0  0  0  0  0  0  0  0  0
  -28.8040  -18.4610   20.3110 N   0  0  0  0  0  0  0  0  0  0  0  0
  -26.9590  -22.3560   18.6820 C   0  0  0  0  0  1  0  0  0  0  0  0
  -26.8500  -22.4000   21.1950 C   0  0  0  0  0  1  0  0  0  0  0  0
  -27.7620  -22.1170   19.9810 C   0  0  1  0  0  0  0  0  0  0  0  0
  -28.9680  -23.1300   19.9930 C   0  0  0  0  0  2  0  0  0  0  0  0
  -28.5910  -24.6430   20.2830 C   0  0  0  0  0  3  0  0  0  0  0  0
  -29.4780  -25.7390   19.6200 C   0  0  0  0  0  3  0  0  0  0  0  0
  -29.3130  -27.0890   20.1290 O   0  0  0  0  0  0  0  0  0  0  0  0
  -24.8610  -31.6310   23.3650 C   0  0  0  0  0  0  0  0  0  0  0  0
  -28.0910  -27.7450   20.0570 C   0  0  0  0  0  0  0  0  0  0  0  0
  -23.9060  -30.3320   21.4890 C   0  0  0  0  0  3  0  0  0  0  0  0
  -25.5860  -29.0850   20.0280 C   0  0  0  0  0  0  0  0  0  0  0  0
  -26.4020  -30.9020   21.5350 C   0  0  0  0  0  2  0  0  0  0  0  0
  -26.6500  -29.6160   20.7660 C   0  0  0  0  0  0  0  0  0  0  0  0
  -27.9030  -28.9530   20.7790 C   0  0  0  0  0  3  0  0  0  0  0  0
  -27.0130  -27.2530   19.2920 C   0  0  0  0  0  3  0  0  0  0  0  0
  -25.7650  -27.9070   19.2850 C   0  0  0  0  0  3  0  0  0  0  0  0
  -24.2730  -29.8320   20.0650 C   0  0  0  0  0  2  0  0  0  0  0  0
  -25.0700  -30.9670   22.1910 N   0  0  0  0  0  0  0  0  0  0  0  0
  -23.7230  -31.7510   23.8420 O   0  0  0  0  0  0  0  0  0  0  0  0
  -23.2820  -29.1580   22.2810 C   0  0  0  0  0  0  0  0  0  0  0  0
  -21.9860  -28.8910   22.0430 N   0  0  0  0  0  0  0  0  0  0  0  0
  -23.9640  -28.4970   23.0690 O   0  0  0  0  0  0  0  0  0  0  0  0
  -21.4940  -29.4880   21.3920 H   0  0  0  0  0  0  0  0  0  0  0  0
  -18.6960  -27.4100   22.1800 C   0  0  0  0  0  0  0  0  0  0  0  0
  -21.2060  -27.8090   22.6410 C   0  0  0  0  0  3  0  0  0  0  0  0
  -21.4490  -26.4710   21.9020 C   0  0  0  0  0  2  0  0  0  0  0  0
  -20.4310  -26.2030   20.7890 C   0  0  0  0  0  2  0  0  0  0  0  0
  -19.0100  -26.1710   21.3590 C   0  0  0  0  0  2  0  0  0  0  0  0
  -19.7270  -28.1870   22.7690 C   0  0  0  0  0  0  0  0  0  0  0  0
  -19.3800  -29.3480   23.4930 C   0  0  0  0  0  3  0  0  0  0  0  0
  -18.0340  -29.7330   23.6360 C   0  0  0  0  0  3  0  0  0  0  0  0
  -17.0150  -28.9510   23.0650 C   0  0  0  0  0  3  0  0  0  0  0  0
  -17.3460  -27.7900   22.3430 C   0  0  0  0  0  3  0  0  0  0  0  0
  -26.0360  -32.2940   24.1510 C   0  0  0  0  0  3  0  0  0  0  0  0
  -25.6400  -33.6740   24.4570 N   0  0  0  0  0  0  0  0  0  0  0  0
  -26.0340  -34.7510   23.7660 C   0  0  0  0  0  0  0  0  0  0  0  0
  -26.8370  -34.6910   22.8310 O   0  0  0  0  0  0  0  0  0  0  0  0
  -24.9420  -33.7930   25.1760 H   0  0  0  0  0  0  0  0  0  0  0  0
  -24.3040  -36.4950   23.2220 C   0  0  0  0  0  1  0  0  0  0  0  0
  -25.4450  -36.1140   24.1790 C   0  0  0  0  0  3  0  0  0  0  0  0
  -27.4290  -37.0500   25.2810 C   0  0  0  0  0  1  0  0  0  0  0  0
  -26.4460  -37.2030   24.2120 N   0  0  0  0  0  0  0  0  0  0  0  0
  -25.9910  -38.1040   24.3260 H   0  0  0  0  0  0  0  0  0  0  0  0
  -26.4180  -31.5170   25.4700 C   0  0  1  0  0  0  0  0  0  0  0  0
  -25.2110  -31.2150   26.3880 C   0  0  0  0  0  1  0  0  0  0  0  0
  -27.1030  -30.1740   25.1290 C   0  0  0  0  0  1  0  0  0  0  0  0
  -27.4400  -32.3420   26.2880 C   0  0  0  0  0  1  0  0  0  0  0  0
  -30.2940  -17.6010   22.0280 C   0  0  0  0  0  1  0  0  0  0  0  0
  -28.5620  -16.0730   21.0910 C   0  0  0  0  0  1  0  0  0  0  0  0
  -29.5390  -17.2310   20.7360 C   0  0  1  0  0  0  0  0  0  0  0  0
  -30.5270  -16.6770   19.6470 C   0  0  0  0  0  2  0  0  0  0  0  0
  -31.8320  -14.5220   19.4860 C   0  0  0  0  0  0  0  0  0  0  0  0
  -31.4480  -12.1410   18.8930 C   0  0  0  0  0  2  0  0  0  0  0  0
  -30.4580  -12.0170   17.7190 C   0  0  0  0  0  2  0  0  0  0  0  0
  -29.0140  -12.0090   18.2460 C   0  0  0  0  0  2  0  0  0  0  0  0
  -28.7350  -13.1890   19.2150 C   0  0  0  0  0  3  0  0  0  0  0  0
  -29.8140  -13.2530   20.3180 C   0  0  0  0  0  2  0  0  0  0  0  0
  -31.1220  -13.3690   19.6560 N   0  0  0  0  0  0  0  0  0  0  0  0
  -32.8690  -14.5590   18.8170 O   0  0  0  0  0  0  0  0  0  0  0  0
  -31.4350  -15.6170   20.1680 N   0  0  0  0  0  0  0  0  0  0  0  0
  -32.2610  -16.0690   20.5390 H   0  0  0  0  0  0  0  0  0  0  0  0
  -26.4760  -14.1130   20.0470 C   0  0  0  0  0  0  0  0  0  0  0  0
  -25.3490  -13.4710   20.5040 C   0  0  0  0  0  0  0  0  0  0  0  0
  -25.6430  -12.0770   20.4650 C   0  0  0  0  0  0  0  0  0  0  0  0
  -27.3910  -13.1000   19.7790 N   0  0  0  0  0  0  0  0  0  0  0  0
  -26.9010  -11.8750   20.0940 N   0  0  0  0  0  0  0  0  0  0  0  0
  -24.7730  -10.9110   20.7020 C   0  0  0  0  0  0  0  0  0  0  0  0
  -25.1260   -9.9080   21.6230 C   0  0  0  0  0  3  0  0  0  0  0  0
  -24.2660   -8.8120   21.8600 C   0  0  0  0  0  3  0  0  0  0  0  0
  -23.0380   -8.7150   21.1620 C   0  0  0  0  0  0  0  0  0  0  0  0
  -22.6960   -9.7080   20.2310 C   0  0  0  0  0  3  0  0  0  0  0  0
  -23.5670  -10.7800   19.9870 C   0  0  0  0  0  3  0  0  0  0  0  0
  -22.1500   -7.6760   21.3020 O   0  0  0  0  0  0  0  0  0  0  0  0
  -22.0340   -6.9780   22.4730 C   0  0  0  0  0  0  0  0  0  0  0  0
  -21.6910   -7.6160   23.6840 C   0  0  0  0  0  3  0  0  0  0  0  0
  -21.5150   -6.8480   24.8530 C   0  0  0  0  0  3  0  0  0  0  0  0
  -21.6740   -5.4480   24.8130 C   0  0  0  0  0  0  0  0  0  0  0  0
  -22.0100   -4.8170   23.6050 C   0  0  0  0  0  3  0  0  0  0  0  0
  -22.1850   -5.5780   22.4380 C   0  0  0  0  0  0  0  0  0  0  0  0
  -22.5000   -4.9640   21.2710 F   0  0  0  0  0  0  0  0  0  0  0  0
  -21.4860   -4.7120   25.9320 F   0  0  0  0  0  0  0  0  0  0  0  0
  -24.0360  -14.1110   20.8590 C   0  0  0  0  0  0  0  0  0  0  0  0
  -23.2690  -13.4770   21.7390 N   0  0  0  0  0  0  0  0  0  0  0  0
  -23.6930  -15.1870   20.3790 O   0  0  0  0  0  0  0  0  0  0  0  0
  -23.5390  -12.5640   22.0700 H   0  0  0  0  0  0  0  0  0  0  0  0
  -22.3440  -13.8190   21.9600 H   0  0  0  0  0  0  0  0  0  0  0  0
  -26.7820  -15.4540   19.8070 N   0  0  0  0  0  0  0  0  0  0  0  0
  -26.0870  -16.1900   19.9260 H   0  0  0  0  0  0  0  0  0  0  0  0
  -27.6110  -15.7990   19.3380 H   0  0  0  0  0  0  0  0  0  0  0  0
  2  5  1  0
  3  1  2  0
  4  2  2  0
  4  3  1  0
  5  1  1  0
  5 55  1  0
  8  6  1  6
  8  9  1  0
  8  3  1  0
  8  7  1  0
  9 10  1  0
 11 12  1  0
 11 10  2  0
 13 24  2  0
 14 12  1  0
 14 19  1  0
 15 23  1  0
 15 25  1  0
 16 22  1  0
 16 18  1  0
 17 23  1  0
 18 19  2  0
 18 17  1  0
 20 14  2  0
 21 20  1  0
 21 16  2  0
 22 15  1  0
 23 13  1  0
 25 27  2  0
 26 25  1  0
 28 26  1  0
 29 38  2  0
 29 34  1  0
 30 26  1  0
 30 34  1  0
 31 30  1  0
 32 33  1  0
 32 31  1  0
 33 29  1  0
 34 35  2  0
 35 36  1  0
 37 36  2  0
 38 37  1  0
 39 13  1  0
 39 40  1  0
 39 49  1  0
 40 43  1  0
 41 45  1  0
 41 40  1  0
 42 41  2  0
 45 44  1  0
 45 47  1  0
 47 48  1  0
 47 46  1  0
 49 52  1  1
 49 50  1  0
 51 49  1  0
 55 54  1  1
 55 53  1  0
 56 65  1  0
 56 55  1  0
 57 63  1  0
 57 65  1  0
 58 63  1  0
 59 60  1  0
 59 58  1  0
 61 60  1  0
 61 70  1  0
 61 62  1  0
 63 62  1  0
 64 57  2  0
 65 66  1  0
 67 68  2  0
 68 87  1  0
 69 68  1  0
 69 72  1  0
 70 67  1  0
 70 71  1  0
 71 69  2  0
 72 73  1  0
 73 74  2  0
 75 78  1  0
 75 74  1  0
 76 75  2  0
 77 76  1  0
 77 72  2  0
 78 79  1  0
 79 80  1  0
 80 81  2  0
 82 81  1  0
 82 86  1  0
 83 82  2  0
 84 79  2  0
 84 83  1  0
 85 84  1  0
 87 88  1  0
 88 91  1  0
 88 90  1  0
 89 87  2  0
 92 93  1  0
 92 67  1  0
 94 92  1  0
M  ISO  4  11 101  12 101  57 100  65 100
M  END
>  <TORSDO>  (21) 
F 22

>  <SCORE>  (21) 
-10.393

>  <name>  (21) 
22

>  <ligand_id>  (21) 
22

>  <original_smiles>  (21) 
[H]c1c([H])c([H])c2c(c1[H])C([H])([H])C([H])([H])C([H])([H])C2([H])N([H])C(=O)C1([H])N(C(=O)C([H])(N([H])C(=O)C([H])(N([H])C([H])([H])[H])C([H])([H])[H])C(C([H])([H])[H])(C([H])([H])[H])C([H])([H])[H])C([H])([H])c2c([H])c(OC([H])([H])C([H])([H])C([H])([H])C(c3nc([H])n(C(C([H])([H])[H])(C([H])([H])[H])C([H])([H])N([H])C(=O)N4C([H])([H])C([H])([H])C([H])([H])C([H])(n5nc(-c6c([H])c([H])c(Oc7c([H])c([H])c(F)c([H])c7F)c([H])c6[H])c(C(=O)N([H])[H])c5N([H])[H])C4([H])[H])c3[H])(C([H])([H])[H])C([H])([H])[H])c([H])c([H])c2C1([H])[H]

>  <smiles>  (21) 
[H]c1c([H])c([H])c2c(c1[H])C([H])([H])C([H])([H])C([H])([H])C2([H])N([H])C(=O)C1([H])N(C(=O)C([H])(N([H])C(=O)C([H])(N([H])C([H])([H])[H])C([H])([H])[H])C(C([H])([H])[H])(C([H])([H])[H])C([H])([H])[H])C([H])([H])c2c([H])c(OC([H])([H])C([H])([H])C([H])([H])C(c3nc([H])n(C(C([H])([H])[H])(C([H])([H])[H])C([H])([H])N([H])C(=O)N4C([H])([H])C([H])([H])C([H])([H])C([H])(n5nc(-c6c([H])c([H])c(Oc7c([H])c([H])c(F)c([H])c7F)c([H])c6[H])c(C(=O)N([H])[H])c5N([H])[H])C4([H])[H])c3[H])(C([H])([H])[H])C([H])([H])[H])c([H])c([H])c2C1([H])[H]

$$$$
23:0:0
     RDKit          3D

 93101  0  0  1  0  0  0  0  0999 V2000
  -28.7160  -18.9500   19.1480 C   0  0  0  0  0  3  0  0  0  0  0  0
  -29.5000  -18.2370   20.1020 C   0  0  0  0  0  0  0  0  0  0  0  0
  -29.4110  -21.0630   19.9250 C   0  0  0  0  0  0  0  0  0  0  0  0
  -30.1890  -20.3590   20.9030 C   0  0  0  0  0  0  0  0  0  0  0  0
  -28.6720  -20.3170   19.0580 N   0  0  0  0  0  0  0  0  0  0  0  0
  -30.2210  -18.9840   20.9920 N   0  0  0  0  0  0  0  0  0  0  0  0
  -28.1160  -16.5770   21.3500 C   0  0  0  0  0  1  0  0  0  0  0  0
  -29.2630  -16.6790   20.3270 C   0  0  0  0  0  3  0  0  0  0  0  0
  -30.8110  -14.5990   19.9850 C   0  0  0  0  0  0  0  0  0  0  0  0
  -30.4560  -12.3750   18.9100 C   0  0  0  0  0  2  0  0  0  0  0  0
  -29.4650  -12.4900   17.7340 C   0  0  0  0  0  2  0  0  0  0  0  0
  -28.0150  -12.3460   18.2330 C   0  0  0  0  0  2  0  0  0  0  0  0
  -27.7240  -13.2220   19.4820 C   0  0  0  0  0  3  0  0  0  0  0  0
  -28.8340  -13.0720   20.5480 C   0  0  0  0  0  2  0  0  0  0  0  0
  -30.1090  -13.4160   19.9080 N   0  0  0  0  0  0  0  0  0  0  0  0
  -31.9260  -14.6680   19.4540 O   0  0  0  0  0  0  0  0  0  0  0  0
  -31.3260  -16.2560   21.6500 C   0  0  0  0  0  1  0  0  0  0  0  0
  -30.3490  -15.6830   20.7190 N   0  0  0  0  0  0  0  0  0  0  0  0
  -25.3600  -13.8400   20.2740 C   0  0  0  0  0  0  0  0  0  0  0  0
  -24.3090  -13.0800   20.7060 C   0  0  0  0  0  0  0  0  0  0  0  0
  -24.7600  -11.7260   20.6680 C   0  0  0  0  0  0  0  0  0  0  0  0
  -26.3940  -12.9520   20.0210 N   0  0  0  0  0  0  0  0  0  0  0  0
  -26.0380  -11.6740   20.3120 N   0  0  0  0  0  0  0  0  0  0  0  0
  -24.0280  -10.4730   20.8900 C   0  0  0  0  0  0  0  0  0  0  0  0
  -24.4770   -9.5100   21.8210 C   0  0  0  0  0  3  0  0  0  0  0  0
  -23.7430   -8.3230   22.0330 C   0  0  0  0  0  3  0  0  0  0  0  0
  -22.5460   -8.0910   21.3130 C   0  0  0  0  0  0  0  0  0  0  0  0
  -22.1160   -9.0430   20.3720 C   0  0  0  0  0  3  0  0  0  0  0  0
  -22.8510  -10.2200   20.1570 C   0  0  0  0  0  3  0  0  0  0  0  0
  -21.7820   -6.9570   21.4370 O   0  0  0  0  0  0  0  0  0  0  0  0
  -21.7510   -6.2330   22.6020 C   0  0  0  0  0  0  0  0  0  0  0  0
  -21.3510   -6.8080   23.8280 C   0  0  0  0  0  3  0  0  0  0  0  0
  -21.2690   -6.0100   24.9870 C   0  0  0  0  0  3  0  0  0  0  0  0
  -21.5760   -4.6380   24.9200 C   0  0  0  0  0  0  0  0  0  0  0  0
  -21.9700   -4.0620   23.7000 C   0  0  0  0  0  3  0  0  0  0  0  0
  -22.0550   -4.8570   22.5440 C   0  0  0  0  0  0  0  0  0  0  0  0
  -22.4150   -4.2920   21.3650 F   0  0  0  0  0  0  0  0  0  0  0  0
  -21.4890   -3.8700   26.0310 F   0  0  0  0  0  0  0  0  0  0  0  0
  -22.9300  -13.5750   21.0300 C   0  0  0  0  0  0  0  0  0  0  0  0
  -22.2320  -12.8970   21.9330 N   0  0  0  0  0  0  0  0  0  0  0  0
  -22.4830  -14.6010   20.5180 O   0  0  0  0  0  0  0  0  0  0  0  0
  -22.6070  -12.0690   22.3710 H   0  0  0  0  0  0  0  0  0  0  0  0
  -21.3080  -13.2120   22.1940 H   0  0  0  0  0  0  0  0  0  0  0  0
  -25.5030  -15.2030   20.0460 N   0  0  0  0  0  0  0  0  0  0  0  0
  -24.7060  -15.8260   20.1260 H   0  0  0  0  0  0  0  0  0  0  0  0
  -26.2910  -15.6250   19.5750 H   0  0  0  0  0  0  0  0  0  0  0  0
  -29.5080  -22.6110   19.5940 C   0  0  0  0  0  2  0  0  0  0  0  0
  -28.7240  -23.7730   20.3660 C   0  0  0  0  0  2  0  0  0  0  0  0
  -28.7380  -25.1970   19.6270 C   0  0  0  0  0  2  0  0  0  0  0  0
  -28.5160  -26.4780   20.3360 O   0  0  0  0  0  0  0  0  0  0  0  0
  -24.6340  -31.7840   23.2390 C   0  0  0  0  0  0  0  0  0  0  0  0
  -27.3610  -27.2680   20.2230 C   0  0  0  0  0  0  0  0  0  0  0  0
  -23.4820  -30.3970   21.5490 C   0  0  0  0  0  3  0  0  0  0  0  0
  -24.9790  -28.8580   20.1540 C   0  0  0  0  0  0  0  0  0  0  0  0
  -26.0210  -30.7280   21.4400 C   0  0  0  0  0  2  0  0  0  0  0  0
  -26.1230  -29.3550   20.7880 C   0  0  0  0  0  0  0  0  0  0  0  0
  -27.3110  -28.5690   20.8140 C   0  0  0  0  0  3  0  0  0  0  0  0
  -26.1900  -26.8110   19.5790 C   0  0  0  0  0  3  0  0  0  0  0  0
  -25.0130  -27.5910   19.5450 C   0  0  0  0  0  3  0  0  0  0  0  0
  -23.7380  -29.7300   20.1700 C   0  0  0  0  0  2  0  0  0  0  0  0
  -24.7300  -30.9870   22.1340 N   0  0  0  0  0  0  0  0  0  0  0  0
  -23.5350  -32.0530   23.7460 O   0  0  0  0  0  0  0  0  0  0  0  0
  -22.7950  -29.3720   22.4830 C   0  0  0  0  0  0  0  0  0  0  0  0
  -21.4730  -29.1950   22.3170 N   0  0  0  0  0  0  0  0  0  0  0  0
  -23.4510  -28.7410   23.3150 O   0  0  0  0  0  0  0  0  0  0  0  0
  -21.0050  -29.7550   21.6200 H   0  0  0  0  0  0  0  0  0  0  0  0
  -18.0860  -27.9880   22.7060 C   0  0  0  0  0  0  0  0  0  0  0  0
  -20.6340  -28.2500   23.0570 C   0  0  0  0  0  3  0  0  0  0  0  0
  -20.7590  -26.8230   22.4730 C   0  0  0  0  0  2  0  0  0  0  0  0
  -19.6900  -26.5050   21.4240 C   0  0  0  0  0  2  0  0  0  0  0  0
  -18.2870  -26.6430   22.0230 C   0  0  0  0  0  2  0  0  0  0  0  0
  -19.1900  -28.7470   23.1760 C   0  0  0  0  0  0  0  0  0  0  0  0
  -18.9510  -30.0060   23.7710 C   0  0  0  0  0  3  0  0  0  0  0  0
  -17.6420  -30.5030   23.9040 C   0  0  0  0  0  3  0  0  0  0  0  0
  -16.5520  -29.7400   23.4480 C   0  0  0  0  0  3  0  0  0  0  0  0
  -16.7750  -28.4850   22.8550 C   0  0  0  0  0  3  0  0  0  0  0  0
  -25.8960  -32.4120   23.9050 C   0  0  0  0  0  3  0  0  0  0  0  0
  -25.5780  -33.8090   24.2340 N   0  0  0  0  0  0  0  0  0  0  0  0
  -25.9240  -34.8670   23.4880 C   0  0  0  0  0  0  0  0  0  0  0  0
  -26.6140  -34.7690   22.4690 O   0  0  0  0  0  0  0  0  0  0  0  0
  -24.9690  -33.9590   25.0260 H   0  0  0  0  0  0  0  0  0  0  0  0
  -24.1910  -36.6540   23.1170 C   0  0  0  0  0  1  0  0  0  0  0  0
  -25.4230  -36.2510   23.9420 C   0  0  0  0  0  3  0  0  0  0  0  0
  -27.5410  -37.1480   24.8020 C   0  0  0  0  0  1  0  0  0  0  0  0
  -26.4520  -37.3100   23.8440 N   0  0  0  0  0  0  0  0  0  0  0  0
  -26.0390  -38.2270   23.9860 H   0  0  0  0  0  0  0  0  0  0  0  0
  -26.3740  -31.6340   25.1940 C   0  0  1  0  0  0  0  0  0  0  0  0
  -25.2470  -31.3890   26.2260 C   0  0  0  0  0  1  0  0  0  0  0  0
  -26.9750  -30.2600   24.8110 C   0  0  0  0  0  1  0  0  0  0  0  0
  -27.5020  -32.4260   25.8950 C   0  0  0  0  0  1  0  0  0  0  0  0
  -31.0520  -21.0790   21.9280 C   0  0  0  0  0  2  0  0  0  0  0  0
  -31.3110  -21.7070   24.3950 C   0  0  0  0  0  1  0  0  0  0  0  0
  -30.4160  -21.0620   23.3300 C   0  0  0  0  0  2  0  0  0  0  0  0
  1  2  1  0
  2  8  1  0
  2  6  2  0
  3  4  2  0
  4  6  1  0
  4 91  1  0
  5  1  2  0
  5  3  1  0
  8 18  1  0
  8  7  1  0
  9 18  1  0
 10 15  1  0
 11 12  1  0
 11 10  1  0
 13 12  1  0
 13 22  1  0
 13 14  1  0
 15  9  1  0
 15 14  1  0
 16  9  2  0
 18 17  1  0
 19 20  2  0
 20 39  1  0
 21 20  1  0
 21 24  1  0
 22 19  1  0
 22 23  1  0
 23 21  2  0
 24 25  1  0
 25 26  2  0
 27 30  1  0
 27 26  1  0
 28 27  2  0
 29 28  1  0
 29 24  2  0
 30 31  1  0
 31 32  1  0
 32 33  2  0
 34 33  1  0
 34 38  1  0
 35 34  2  0
 36 31  2  0
 36 35  1  0
 37 36  1  0
 39 40  1  0
 40 43  1  0
 40 42  1  0
 41 39  2  0
 44 45  1  0
 44 19  1  0
 46 44  1  0
 47  3  1  0
 47 48  1  0
 49 50  1  0
 49 48  1  0
 51 62  2  0
 52 50  1  0
 52 57  1  0
 53 61  1  0
 53 63  1  0
 54 60  1  0
 54 56  1  0
 55 61  1  0
 56 57  2  0
 56 55  1  0
 58 52  2  0
 59 58  1  0
 59 54  2  0
 60 53  1  0
 61 51  1  0
 63 65  2  0
 64 63  1  0
 66 64  1  0
 67 76  2  0
 67 72  1  0
 68 64  1  0
 68 72  1  0
 69 68  1  0
 70 71  1  0
 70 69  1  0
 71 67  1  0
 72 73  2  0
 73 74  1  0
 75 74  2  0
 76 75  1  0
 77 51  1  0
 77 78  1  0
 77 87  1  0
 78 81  1  0
 79 83  1  0
 79 78  1  0
 80 79  2  0
 83 82  1  0
 85 83  1  0
 85 86  1  0
 85 84  1  0
 87 90  1  1
 87 88  1  0
 89 87  1  0
 91 93  1  0
 93 92  1  0
M  ISO  4   9 100  18 100  49 101  50 101
M  END
>  <TORSDO>  (22) 
F 22

>  <SCORE>  (22) 
-12.517

>  <name>  (22) 
23

>  <ligand_id>  (22) 
23

>  <original_smiles>  (22) 
[H]c1nc(C([H])([H])C([H])([H])C([H])([H])Oc2c([H])c([H])c3c(c2[H])C([H])([H])N(C(=O)C([H])(N([H])C(=O)C([H])(N([H])C([H])([H])[H])C([H])([H])[H])C(C([H])([H])[H])(C([H])([H])[H])C([H])([H])[H])C([H])(C(=O)N([H])C2([H])c4c([H])c([H])c([H])c([H])c4C([H])([H])C([H])([H])C2([H])[H])C3([H])[H])c(C([H])([H])C([H])([H])C([H])([H])[H])nc1C([H])(N(C(=O)N1C([H])([H])C([H])([H])C([H])([H])C([H])(n2nc(-c3c([H])c([H])c(Oc4c([H])c([H])c(F)c([H])c4F)c([H])c3[H])c(C(=O)N([H])[H])c2N([H])[H])C1([H])[H])C([H])([H])[H])C([H])([H])[H]

>  <smiles>  (22) 
[H]c1nc(C([H])([H])C([H])([H])C([H])([H])Oc2c([H])c([H])c3c(c2[H])C([H])([H])N(C(=O)C([H])(N([H])C(=O)C([H])(N([H])C([H])([H])[H])C([H])([H])[H])C(C([H])([H])[H])(C([H])([H])[H])C([H])([H])[H])C([H])(C(=O)N([H])C2([H])c4c([H])c([H])c([H])c([H])c4C([H])([H])C([H])([H])C2([H])[H])C3([H])[H])c(C([H])([H])C([H])([H])C([H])([H])[H])nc1C([H])(N(C(=O)N1C([H])([H])C([H])([H])C([H])([H])C([H])(n2nc(-c3c([H])c([H])c(Oc4c([H])c([H])c(F)c([H])c4F)c([H])c3[H])c(C(=O)N([H])[H])c2N([H])[H])C1([H])[H])C([H])([H])[H])C([H])([H])[H]

$$$$
24:0:0
     RDKit          3D

 89 97  0  0  1  0  0  0  0  0999 V2000
  -30.0420  -23.1380   18.9390 C   0  0  0  0  0  1  0  0  0  0  0  0
  -27.6910  -22.4130   18.8830 C   0  0  0  0  0  1  0  0  0  0  0  0
  -28.8360  -22.7980   19.8360 C   0  0  1  0  0  0  0  0  0  0  0  0
  -28.2360  -21.1960   21.8340 C   0  0  0  0  0  1  0  0  0  0  0  0
  -30.6280  -21.5120   21.3450 C   0  0  0  0  0  1  0  0  0  0  0  0
  -29.2610  -21.2390   20.6870 C   0  0  2  0  0  0  0  0  0  0  0  0
  -30.2710  -18.4340   20.5230 C   0  0  0  0  0  3  0  0  0  0  0  0
  -28.4520  -18.8240   19.5660 C   0  0  0  0  0  3  0  0  0  0  0  0
  -29.8750  -17.0740   20.1000 C   0  0  0  0  0  0  0  0  0  0  0  0
  -28.6650  -17.4680   19.4700 N   0  0  0  0  0  0  0  0  0  0  0  0
  -29.3610  -19.6080   20.2090 N   0  0  0  0  0  0  0  0  0  0  0  0
  -30.6160  -15.4890   20.0460 C   0  0  0  0  0  0  0  0  0  0  0  0
  -30.5600  -13.0360   19.1830 C   0  0  0  0  0  2  0  0  0  0  0  0
  -29.6240  -12.8350   17.9640 C   0  0  0  0  0  2  0  0  0  0  0  0
  -28.1840  -12.5580   18.4260 C   0  0  0  0  0  2  0  0  0  0  0  0
  -27.7480  -13.5170   19.5610 C   0  0  0  0  0  3  0  0  0  0  0  0
  -28.8130  -13.6830   20.6630 C   0  0  0  0  0  2  0  0  0  0  0  0
  -30.0350  -14.1840   20.0170 N   0  0  0  0  0  0  0  0  0  0  0  0
  -31.8400  -15.4240   19.8510 O   0  0  0  0  0  0  0  0  0  0  0  0
  -25.3970  -14.0550   20.3740 C   0  0  0  0  0  0  0  0  0  0  0  0
  -24.3470  -13.2690   20.7640 C   0  0  0  0  0  0  0  0  0  0  0  0
  -24.8230  -11.9220   20.7240 C   0  0  0  0  0  0  0  0  0  0  0  0
  -26.4380  -13.1870   20.1040 N   0  0  0  0  0  0  0  0  0  0  0  0
  -26.1090  -11.8970   20.3860 N   0  0  0  0  0  0  0  0  0  0  0  0
  -24.1080  -10.6540   20.9290 C   0  0  0  0  0  0  0  0  0  0  0  0
  -24.5400   -9.7070   21.8830 C   0  0  0  0  0  3  0  0  0  0  0  0
  -23.8200   -8.5060   22.0760 C   0  0  0  0  0  3  0  0  0  0  0  0
  -22.6570   -8.2460   21.3140 C   0  0  0  0  0  0  0  0  0  0  0  0
  -22.2440   -9.1830   20.3510 C   0  0  0  0  0  3  0  0  0  0  0  0
  -22.9640  -10.3740   20.1570 C   0  0  0  0  0  3  0  0  0  0  0  0
  -21.9090   -7.0970   21.4150 O   0  0  0  0  0  0  0  0  0  0  0  0
  -21.8340   -6.3870   22.5870 C   0  0  0  0  0  0  0  0  0  0  0  0
  -21.3300   -6.9590   23.7740 C   0  0  0  0  0  3  0  0  0  0  0  0
  -21.2060   -6.1730   24.9370 C   0  0  0  0  0  3  0  0  0  0  0  0
  -21.5770   -4.8150   24.9140 C   0  0  0  0  0  0  0  0  0  0  0  0
  -22.0730   -4.2420   23.7300 C   0  0  0  0  0  3  0  0  0  0  0  0
  -22.1980   -5.0250   22.5690 C   0  0  0  0  0  0  0  0  0  0  0  0
  -22.6590   -4.4620   21.4260 F   0  0  0  0  0  0  0  0  0  0  0  0
  -21.4500   -4.0580   26.0290 F   0  0  0  0  0  0  0  0  0  0  0  0
  -22.9520  -13.7370   21.0570 C   0  0  0  0  0  0  0  0  0  0  0  0
  -22.2420  -13.0350   21.9310 N   0  0  0  0  0  0  0  0  0  0  0  0
  -22.5020  -14.7610   20.5450 O   0  0  0  0  0  0  0  0  0  0  0  0
  -22.6220  -12.2080   22.3680 H   0  0  0  0  0  0  0  0  0  0  0  0
  -21.3060  -13.3280   22.1680 H   0  0  0  0  0  0  0  0  0  0  0  0
  -25.5500  -15.4260   20.1970 N   0  0  0  0  0  0  0  0  0  0  0  0
  -24.7890  -16.0810   20.3400 H   0  0  0  0  0  0  0  0  0  0  0  0
  -26.4030  -15.8730   19.8750 H   0  0  0  0  0  0  0  0  0  0  0  0
  -28.3300  -24.4150   20.5180 C   0  0  0  0  0  2  0  0  0  0  0  0
  -28.4110  -26.0240   20.1180 O   0  0  0  0  0  0  0  0  0  0  0  0
  -24.6740  -31.8970   23.1590 C   0  0  0  0  0  0  0  0  0  0  0  0
  -27.3560  -27.0820   20.1440 C   0  0  0  0  0  0  0  0  0  0  0  0
  -23.5250  -30.4880   21.5000 C   0  0  0  0  0  3  0  0  0  0  0  0
  -25.0190  -28.9180   20.0860 C   0  0  0  0  0  0  0  0  0  0  0  0
  -26.0870  -30.7530   21.3770 C   0  0  0  0  0  2  0  0  0  0  0  0
  -26.1930  -29.3460   20.7170 C   0  0  0  0  0  0  0  0  0  0  0  0
  -27.3600  -28.4520   20.7130 C   0  0  0  0  0  3  0  0  0  0  0  0
  -26.1440  -26.8030   19.4770 C   0  0  0  0  0  3  0  0  0  0  0  0
  -25.0200  -27.6670   19.4450 C   0  0  0  0  0  3  0  0  0  0  0  0
  -23.7810  -29.8150   20.1240 C   0  0  0  0  0  2  0  0  0  0  0  0
  -24.7830  -31.0730   22.0650 N   0  0  0  0  0  0  0  0  0  0  0  0
  -23.5740  -32.1600   23.6720 O   0  0  0  0  0  0  0  0  0  0  0  0
  -22.8430  -29.4730   22.4540 C   0  0  0  0  0  0  0  0  0  0  0  0
  -21.5200  -29.2720   22.3070 N   0  0  0  0  0  0  0  0  0  0  0  0
  -23.5120  -28.8630   23.2920 O   0  0  0  0  0  0  0  0  0  0  0  0
  -21.0310  -29.8160   21.6090 H   0  0  0  0  0  0  0  0  0  0  0  0
  -18.1650  -27.9620   22.7550 C   0  0  0  0  0  0  0  0  0  0  0  0
  -20.7110  -28.3090   23.0630 C   0  0  0  0  0  3  0  0  0  0  0  0
  -20.8670  -26.8800   22.4880 C   0  0  0  0  0  2  0  0  0  0  0  0
  -19.7930  -26.5260   21.4550 C   0  0  0  0  0  2  0  0  0  0  0  0
  -18.3970  -26.6230   22.0760 C   0  0  0  0  0  2  0  0  0  0  0  0
  -19.2510  -28.7610   23.2040 C   0  0  0  0  0  0  0  0  0  0  0  0
  -18.9800  -30.0110   23.8010 C   0  0  0  0  0  3  0  0  0  0  0  0
  -17.6560  -30.4640   23.9530 C   0  0  0  0  0  3  0  0  0  0  0  0
  -16.5850  -29.6640   23.5180 C   0  0  0  0  0  3  0  0  0  0  0  0
  -16.8410  -28.4150   22.9260 C   0  0  0  0  0  3  0  0  0  0  0  0
  -25.9250  -32.5620   23.8090 C   0  0  0  0  0  3  0  0  0  0  0  0
  -26.4160  -31.8150   25.1110 C   0  0  1  0  0  0  0  0  0  0  0  0
  -25.2990  -31.5790   26.1550 C   0  0  0  0  0  1  0  0  0  0  0  0
  -27.0270  -30.4390   24.7630 C   0  0  0  0  0  1  0  0  0  0  0  0
  -27.5380  -32.6340   25.7930 C   0  0  0  0  0  1  0  0  0  0  0  0
  -25.5830  -33.9600   24.1280 N   0  0  0  0  0  0  0  0  0  0  0  0
  -25.9230  -35.0230   23.3850 C   0  0  0  0  0  0  0  0  0  0  0  0
  -26.6210  -34.9300   22.3720 O   0  0  0  0  0  0  0  0  0  0  0  0
  -24.9660  -34.1050   24.9130 H   0  0  0  0  0  0  0  0  0  0  0  0
  -24.1990  -36.8150   22.9860 C   0  0  0  0  0  1  0  0  0  0  0  0
  -25.4130  -36.4080   23.8370 C   0  0  0  0  0  3  0  0  0  0  0  0
  -27.5060  -37.3090   24.7550 C   0  0  0  0  0  1  0  0  0  0  0  0
  -26.4420  -37.4680   23.7660 N   0  0  0  0  0  0  0  0  0  0  0  0
  -26.0240  -38.3850   23.8950 H   0  0  0  0  0  0  0  0  0  0  0  0
  3  1  1  6
  2  3  1  0
  3 48  1  0
  3  6  1  0
  6  5  1  1
  6  4  1  0
  8 11  1  0
  9  7  2  0
 10  8  2  0
 10  9  1  0
 11  7  1  0
 11  6  1  0
 12  9  1  0
 13 18  1  0
 14 15  1  0
 14 13  1  0
 16 15  1  0
 16 23  1  0
 16 17  1  0
 18 12  1  0
 18 17  1  0
 19 12  2  0
 20 21  2  0
 21 40  1  0
 22 21  1  0
 22 25  1  0
 23 20  1  0
 23 24  1  0
 24 22  2  0
 25 26  1  0
 26 27  2  0
 28 31  1  0
 28 27  1  0
 29 28  2  0
 30 29  1  0
 30 25  2  0
 31 32  1  0
 32 33  1  0
 33 34  2  0
 35 34  1  0
 35 39  1  0
 36 35  2  0
 37 32  2  0
 37 36  1  0
 38 37  1  0
 40 41  1  0
 41 44  1  0
 41 43  1  0
 42 40  2  0
 45 46  1  0
 45 20  1  0
 47 45  1  0
 49 51  1  0
 49 48  1  0
 50 61  2  0
 51 56  1  0
 52 60  1  0
 52 62  1  0
 53 59  1  0
 53 55  1  0
 54 60  1  0
 55 54  1  0
 56 55  2  0
 57 51  2  0
 58 57  1  0
 58 53  2  0
 59 52  1  0
 60 50  1  0
 62 64  2  0
 63 62  1  0
 65 63  1  0
 66 75  2  0
 66 71  1  0
 67 63  1  0
 67 71  1  0
 68 67  1  0
 69 70  1  0
 69 68  1  0
 70 66  1  0
 71 72  2  0
 72 73  1  0
 74 73  2  0
 75 74  1  0
 76 50  1  0
 76 81  1  0
 76 77  1  0
 77 80  1  1
 77 78  1  0
 79 77  1  0
 81 84  1  0
 82 86  1  0
 82 81  1  0
 83 82  2  0
 86 85  1  0
 88 86  1  0
 88 89  1  0
 88 87  1  0
M  ISO  4   9 100  12 100  48 101  49 101
M  END
>  <TORSDO>  (23) 
F 19

>  <SCORE>  (23) 
-16.303

>  <name>  (23) 
24

>  <ligand_id>  (23) 
24

>  <original_smiles>  (23) 
[H]c1c([H])c([H])c2c(c1[H])C([H])([H])C([H])([H])C([H])([H])C2([H])N([H])C(=O)C1([H])N(C(=O)C([H])(N([H])C(=O)C([H])(N([H])C([H])([H])[H])C([H])([H])[H])C(C([H])([H])[H])(C([H])([H])[H])C([H])([H])[H])C([H])([H])c2c([H])c(OC([H])([H])C(C([H])([H])[H])(C([H])([H])[H])C(n3c([H])nc(C(=O)N4C([H])([H])C([H])([H])C([H])([H])C([H])(n5nc(-c6c([H])c([H])c(Oc7c([H])c([H])c(F)c([H])c7F)c([H])c6[H])c(C(=O)N([H])[H])c5N([H])[H])C4([H])[H])c3[H])(C([H])([H])[H])C([H])([H])[H])c([H])c([H])c2C1([H])[H]

>  <smiles>  (23) 
[H]c1c([H])c([H])c2c(c1[H])C([H])([H])C([H])([H])C([H])([H])C2([H])N([H])C(=O)C1([H])N(C(=O)C([H])(N([H])C(=O)C([H])(N([H])C([H])([H])[H])C([H])([H])[H])C(C([H])([H])[H])(C([H])([H])[H])C([H])([H])[H])C([H])([H])c2c([H])c(OC([H])([H])C(C([H])([H])[H])(C([H])([H])[H])C(n3c([H])nc(C(=O)N4C([H])([H])C([H])([H])C([H])([H])C([H])(n5nc(-c6c([H])c([H])c(Oc7c([H])c([H])c(F)c([H])c7F)c([H])c6[H])c(C(=O)N([H])[H])c5N([H])[H])C4([H])[H])c3[H])(C([H])([H])[H])C([H])([H])[H])c([H])c([H])c2C1([H])[H]

$$$$
25:0:0
     RDKit          3D

100108  0  0  1  0  0  0  0  0999 V2000
  -30.3240  -19.9250   19.8000 C   0  0  0  0  0  3  0  0  0  0  0  0
  -29.9590  -19.9000   21.1220 C   0  0  0  0  0  0  0  0  0  0  0  0
  -29.9350  -17.7940   20.3290 C   0  0  0  0  0  3  0  0  0  0  0  0
  -30.2750  -18.6340   19.3310 N   0  0  0  0  0  0  0  0  0  0  0  0
  -29.7700  -18.5690   21.4110 N   0  0  0  0  0  0  0  0  0  0  0  0
  -29.4900  -18.2150   22.3190 H   0  0  0  0  0  0  0  0  0  0  0  0
  -28.5410  -15.9050   21.2820 C   0  0  0  0  0  1  0  0  0  0  0  0
  -29.6710  -16.2910   20.2920 C   0  0  0  0  0  3  0  0  0  0  0  0
  -31.2630  -14.4570   19.6620 C   0  0  0  0  0  0  0  0  0  0  0  0
  -30.9270  -12.1190   18.9000 C   0  0  0  0  0  2  0  0  0  0  0  0
  -29.9320  -12.0420   17.7260 C   0  0  0  0  0  2  0  0  0  0  0  0
  -28.4780  -11.9790   18.2360 C   0  0  0  0  0  2  0  0  0  0  0  0
  -28.1780  -13.0550   19.3080 C   0  0  0  0  0  3  0  0  0  0  0  0
  -29.2790  -13.0470   20.3930 C   0  0  0  0  0  2  0  0  0  0  0  0
  -30.5750  -13.2790   19.7390 N   0  0  0  0  0  0  0  0  0  0  0  0
  -32.2850  -14.5570   18.9730 O   0  0  0  0  0  0  0  0  0  0  0  0
  -31.9990  -16.1920   21.1630 C   0  0  0  0  0  1  0  0  0  0  0  0
  -30.9020  -15.4730   20.4970 N   0  0  0  0  0  0  0  0  0  0  0  0
  -25.8950  -13.8520   20.1920 C   0  0  0  0  0  0  0  0  0  0  0  0
  -24.8040  -13.1620   20.6500 C   0  0  0  0  0  0  0  0  0  0  0  0
  -25.1590  -11.7800   20.5930 C   0  0  0  0  0  0  0  0  0  0  0  0
  -26.8490  -12.8920   19.8880 N   0  0  0  0  0  0  0  0  0  0  0  0
  -26.4140  -11.6410   20.1870 N   0  0  0  0  0  0  0  0  0  0  0  0
  -24.3590  -10.5750   20.8450 C   0  0  0  0  0  0  0  0  0  0  0  0
  -24.7200   -9.6460   21.8440 C   0  0  0  0  0  3  0  0  0  0  0  0
  -23.9250   -8.5030   22.0780 C   0  0  0  0  0  3  0  0  0  0  0  0
  -22.7550   -8.2830   21.3120 C   0  0  0  0  0  0  0  0  0  0  0  0
  -22.4130   -9.1990   20.3030 C   0  0  0  0  0  3  0  0  0  0  0  0
  -23.2080  -10.3340   20.0670 C   0  0  0  0  0  3  0  0  0  0  0  0
  -21.9370   -7.1880   21.4520 O   0  0  0  0  0  0  0  0  0  0  0  0
  -21.7490   -6.5820   22.6680 C   0  0  0  0  0  0  0  0  0  0  0  0
  -21.2350   -7.2830   23.7800 C   0  0  0  0  0  3  0  0  0  0  0  0
  -20.9910   -6.6040   24.9910 C   0  0  0  0  0  3  0  0  0  0  0  0
  -21.2530   -5.2250   25.0900 C   0  0  0  0  0  0  0  0  0  0  0  0
  -21.7620   -4.5230   23.9830 C   0  0  0  0  0  3  0  0  0  0  0  0
  -22.0060   -5.2000   22.7740 C   0  0  0  0  0  0  0  0  0  0  0  0
  -22.4760   -4.5150   21.7040 F   0  0  0  0  0  0  0  0  0  0  0  0
  -21.0140   -4.5700   26.2500 F   0  0  0  0  0  0  0  0  0  0  0  0
  -23.4700  -13.7420   21.0230 C   0  0  0  0  0  0  0  0  0  0  0  0
  -22.7690  -13.1120   21.9590 N   0  0  0  0  0  0  0  0  0  0  0  0
  -23.0630  -14.7880   20.5200 O   0  0  0  0  0  0  0  0  0  0  0  0
  -23.1120  -12.2630   22.3840 H   0  0  0  0  0  0  0  0  0  0  0  0
  -21.8770  -13.4830   22.2550 H   0  0  0  0  0  0  0  0  0  0  0  0
  -26.1470  -15.2050   19.9890 N   0  0  0  0  0  0  0  0  0  0  0  0
  -25.4240  -15.9010   20.1260 H   0  0  0  0  0  0  0  0  0  0  0  0
  -26.9560  -15.5670   19.5050 H   0  0  0  0  0  0  0  0  0  0  0  0
  -29.7640  -20.9760   22.1530 C   0  0  0  0  0  3  0  0  0  0  0  0
  -29.7880  -22.4340   21.6090 C   0  0  0  0  0  3  0  0  0  0  0  0
  -27.8530  -23.2730   23.0480 C   0  0  0  0  0  1  0  0  0  0  0  0
  -30.1950  -23.4730   23.8970 C   0  0  0  0  0  1  0  0  0  0  0  0
  -29.3180  -23.5270   22.6250 C   0  0  1  0  0  0  0  0  0  0  0  0
  -29.4700  -24.9750   22.0570 C   0  0  0  0  0  2  0  0  0  0  0  0
  -28.6350  -25.3910   20.8260 C   0  0  0  0  0  2  0  0  0  0  0  0
  -28.7500  -26.8150   20.6650 O   0  0  0  0  0  0  0  0  0  0  0  0
  -24.6170  -31.9950   23.2440 C   0  0  0  0  0  0  0  0  0  0  0  0
  -27.5630  -27.5030   20.5470 C   0  0  0  0  0  0  0  0  0  0  0  0
  -23.5480  -30.4710   21.6140 C   0  0  0  0  0  3  0  0  0  0  0  0
  -25.1250  -28.9180   20.3480 C   0  0  0  0  0  0  0  0  0  0  0  0
  -26.0660  -30.9100   21.5300 C   0  0  0  0  0  2  0  0  0  0  0  0
  -26.2310  -29.5140   20.9660 C   0  0  0  0  0  0  0  0  0  0  0  0
  -27.4550  -28.8160   21.0570 C   0  0  0  0  0  3  0  0  0  0  0  0
  -26.4400  -26.9170   19.9210 C   0  0  0  0  0  3  0  0  0  0  0  0
  -25.2240  -27.6180   19.8220 C   0  0  0  0  0  3  0  0  0  0  0  0
  -23.8540  -29.7320   20.2820 C   0  0  0  0  0  2  0  0  0  0  0  0
  -24.7590  -31.1420   22.1890 N   0  0  0  0  0  0  0  0  0  0  0  0
  -23.4990  -32.2560   23.7110 O   0  0  0  0  0  0  0  0  0  0  0  0
  -22.8780  -29.4760   22.5880 C   0  0  0  0  0  0  0  0  0  0  0  0
  -21.5710  -29.2390   22.3950 N   0  0  0  0  0  0  0  0  0  0  0  0
  -23.5320  -28.9190   23.4730 O   0  0  0  0  0  0  0  0  0  0  0  0
  -21.1020  -29.7400   21.6530 H   0  0  0  0  0  0  0  0  0  0  0  0
  -18.1990  -28.0080   22.8110 C   0  0  0  0  0  0  0  0  0  0  0  0
  -20.7420  -28.3110   23.1640 C   0  0  0  0  0  3  0  0  0  0  0  0
  -20.8850  -26.8650   22.6350 C   0  0  0  0  0  2  0  0  0  0  0  0
  -19.8240  -26.4970   21.5930 C   0  0  0  0  0  2  0  0  0  0  0  0
  -18.4180  -26.6410   22.1840 C   0  0  0  0  0  2  0  0  0  0  0  0
  -19.2920  -28.7990   23.2570 C   0  0  0  0  0  0  0  0  0  0  0  0
  -19.0360  -30.0770   23.7990 C   0  0  0  0  0  3  0  0  0  0  0  0
  -17.7200  -30.5640   23.9040 C   0  0  0  0  0  3  0  0  0  0  0  0
  -16.6410  -29.7710   23.4780 C   0  0  0  0  0  3  0  0  0  0  0  0
  -16.8810  -28.4950   22.9360 C   0  0  0  0  0  3  0  0  0  0  0  0
  -25.8480  -32.6970   23.8980 C   0  0  0  0  0  3  0  0  0  0  0  0
  -26.3720  -31.9580   25.1910 C   0  0  1  0  0  0  0  0  0  0  0  0
  -25.2530  -31.5870   26.1920 C   0  0  0  0  0  1  0  0  0  0  0  0
  -27.1180  -30.6580   24.8080 C   0  0  0  0  0  1  0  0  0  0  0  0
  -27.3940  -32.8540   25.9290 C   0  0  0  0  0  1  0  0  0  0  0  0
  -25.4550  -34.0770   24.2130 N   0  0  0  0  0  0  0  0  0  0  0  0
  -25.7360  -35.1400   23.4490 C   0  0  0  0  0  0  0  0  0  0  0  0
  -26.4270  -35.0670   22.4270 O   0  0  0  0  0  0  0  0  0  0  0  0
  -24.8440  -34.2040   25.0060 H   0  0  0  0  0  0  0  0  0  0  0  0
  -23.9020  -36.8150   23.0610 C   0  0  0  0  0  1  0  0  0  0  0  0
  -25.1600  -36.5000   23.8860 C   0  0  0  0  0  3  0  0  0  0  0  0
  -27.2380  -37.5160   24.7090 C   0  0  0  0  0  1  0  0  0  0  0  0
  -26.1260  -37.6140   23.7670 N   0  0  0  0  0  0  0  0  0  0  0  0
  -25.6660  -38.5080   23.9110 H   0  0  0  0  0  0  0  0  0  0  0  0
  -30.5120  -18.2470   17.9330 C   0  0  0  0  0  2  0  0  0  0  0  0
  -30.1310  -19.3960   16.9740 C   0  0  0  0  0  2  0  0  0  0  0  0
  -32.5060  -19.8480   16.1700 C   0  0  0  0  0  1  0  0  0  0  0  0
  -30.5470  -20.8400   14.9730 C   0  0  0  0  0  1  0  0  0  0  0  0
  -30.9830  -18.3840   14.8050 C   0  0  0  0  0  1  0  0  0  0  0  0
  -31.0460  -19.6020   15.7420 C   0  0  2  0  0  0  0  0  0  0  0  0
  1  2  2  0
  2  5  1  0
  2 47  1  0
  3  8  1  0
  3  5  1  0
  4  1  1  0
  4  3  1  0
  5  6  1  0
  8 18  1  0
  8  7  1  0
  9 15  1  0
  9 18  1  0
 10 15  1  0
 11 12  1  0
 11 10  1  0
 13 12  1  0
 13 22  1  0
 13 14  1  0
 15 14  1  0
 16  9  2  0
 18 17  1  0
 19 20  2  0
 20 39  1  0
 21 20  1  0
 21 24  1  0
 22 23  1  0
 22 19  1  0
 23 21  2  0
 24 25  1  0
 25 26  2  0
 27 30  1  0
 27 26  1  0
 28 27  2  0
 29 28  1  0
 29 24  2  0
 30 31  1  0
 31 36  2  0
 31 32  1  0
 32 33  2  0
 33 34  1  0
 34 38  1  0
 35 34  2  0
 36 35  1  0
 37 36  1  0
 39 40  1  0
 40 43  1  0
 40 42  1  0
 41 39  2  0
 44 45  1  0
 44 19  1  0
 46 44  1  0
 48 47  2  0
 48 51  1  0
 51 49  1  1
 51 50  1  0
 52 51  1  0
 53 52  1  0
 54 53  1  0
 55 66  2  0
 56 54  1  0
 56 61  1  0
 57 65  1  0
 57 67  1  0
 58 60  1  0
 59 65  1  0
 60 61  2  0
 60 59  1  0
 62 56  2  0
 63 62  1  0
 63 58  2  0
 64 58  1  0
 64 57  1  0
 65 55  1  0
 67 69  2  0
 68 67  1  0
 70 68  1  0
 71 80  2  0
 71 76  1  0
 72 68  1  0
 72 76  1  0
 73 72  1  0
 74 75  1  0
 74 73  1  0
 75 71  1  0
 76 77  2  0
 77 78  1  0
 79 78  2  0
 80 79  1  0
 81 55  1  0
 81 86  1  0
 81 82  1  0
 82 85  1  1
 82 83  1  0
 84 82  1  0
 86 89  1  0
 87 91  1  0
 87 86  1  0
 88 87  2  0
 91 90  1  0
 93 91  1  0
 93 94  1  0
 93 92  1  0
 95  4  1  0
 96 95  1  0
100 98  1  6
 99100  1  0
100 97  1  0
100 96  1  0
M  ISO  4   9 100  18 100  53 101  54 101
M  END
>  <TORSDO>  (24) 
F 25

>  <SCORE>  (24) 
-9.839

>  <name>  (24) 
25

>  <ligand_id>  (24) 
25

>  <original_smiles>  (24) 
[H]c1c([H])c([H])c2c(c1[H])C([H])([H])C([H])([H])C([H])([H])C2([H])N([H])C(=O)C1([H])N(C(=O)C([H])(N([H])C(=O)C([H])(N([H])C([H])([H])[H])C([H])([H])[H])C(C([H])([H])[H])(C([H])([H])[H])C([H])([H])[H])C([H])([H])c2c([H])c(OC([H])([H])C([H])([H])C(C([H])([H])[H])(C([H])([H])[H])C([H])([H])C([H])([H])c3c([H])n(C([H])([H])C([H])([H])C(C([H])([H])[H])(C([H])([H])[H])C([H])([H])[H])c(C([H])(N(C(=O)N4C([H])([H])C([H])([H])C([H])([H])C([H])(n5nc(-c6c([H])c([H])c(Oc7c([H])c([H])c(F)c([H])c7F)c([H])c6[H])c(C(=O)N([H])[H])c5N([H])[H])C4([H])[H])C([H])([H])[H])C([H])([H])[H])[n+]3[H])c([H])c([H])c2C1([H])[H]

>  <smiles>  (24) 
[H]c1c([H])c([H])c2c(c1[H])C([H])([H])C([H])([H])C([H])([H])C2([H])N([H])C(=O)C1([H])N(C(=O)C([H])(N([H])C(=O)C([H])(N([H])C([H])([H])[H])C([H])([H])[H])C(C([H])([H])[H])(C([H])([H])[H])C([H])([H])[H])C([H])([H])c2c([H])c(OC([H])([H])C([H])([H])C(C([H])([H])[H])(C([H])([H])[H])C([H])([H])C([H])([H])c3c([H])n(C([H])([H])C([H])([H])C(C([H])([H])[H])(C([H])([H])[H])C([H])([H])[H])c(C([H])(N(C(=O)N4C([H])([H])C([H])([H])C([H])([H])C([H])(n5nc(-c6c([H])c([H])c(Oc7c([H])c([H])c(F)c([H])c7F)c([H])c6[H])c(C(=O)N([H])[H])c5N([H])[H])C4([H])[H])C([H])([H])[H])C([H])([H])[H])[n+]3[H])c([H])c([H])c2C1([H])[H]

$$$$
26:0:0
     RDKit          3D

 96104  0  0  1  0  0  0  0  0999 V2000
  -29.9320  -19.3480   22.0430 C   0  0  0  0  0  3  0  0  0  0  0  0
  -30.0580  -17.9570   21.7600 C   0  0  0  0  0  3  0  0  0  0  0  0
  -30.5270  -20.2920   21.1670 C   0  0  0  0  0  0  0  0  0  0  0  0
  -30.7790  -17.5530   20.6030 C   0  0  0  0  0  0  0  0  0  0  0  0
  -31.2590  -19.8510   20.1170 N   0  0  0  0  0  0  0  0  0  0  0  0
  -31.3650  -18.5380   19.8500 N   0  0  0  0  0  0  0  0  0  0  0  0
  -30.5000  -21.8310   21.4140 C   0  0  0  0  0  3  0  0  0  0  0  0
  -29.5470  -22.7360   20.5400 C   0  0  0  0  0  3  0  0  0  0  0  0
  -29.6480  -24.2980   20.7810 C   0  0  0  0  0  3  0  0  0  0  0  0
  -28.5280  -25.1940   20.1290 C   0  0  0  0  0  3  0  0  0  0  0  0
  -28.6330  -26.6440   20.3250 O   0  0  0  0  0  0  0  0  0  0  0  0
  -24.6010  -31.7820   23.2780 C   0  0  0  0  0  0  0  0  0  0  0  0
  -27.4740  -27.4160   20.2240 C   0  0  0  0  0  0  0  0  0  0  0  0
  -23.5040  -30.3990   21.5500 C   0  0  0  0  0  3  0  0  0  0  0  0
  -25.0560  -28.9300   20.1480 C   0  0  0  0  0  0  0  0  0  0  0  0
  -26.0350  -30.8000   21.4810 C   0  0  0  0  0  2  0  0  0  0  0  0
  -26.1790  -29.4450   20.8070 C   0  0  0  0  0  0  0  0  0  0  0  0
  -27.3890  -28.6990   20.8370 C   0  0  0  0  0  3  0  0  0  0  0  0
  -26.3290  -26.9470   19.5350 C   0  0  0  0  0  3  0  0  0  0  0  0
  -25.1310  -27.6860   19.5030 C   0  0  0  0  0  3  0  0  0  0  0  0
  -23.7920  -29.7660   20.1630 C   0  0  0  0  0  2  0  0  0  0  0  0
  -24.7290  -31.0080   22.1610 N   0  0  0  0  0  0  0  0  0  0  0  0
  -23.4900  -32.0160   23.7750 O   0  0  0  0  0  0  0  0  0  0  0  0
  -22.8290  -29.3400   22.4530 C   0  0  0  0  0  0  0  0  0  0  0  0
  -21.5040  -29.1790   22.3070 N   0  0  0  0  0  0  0  0  0  0  0  0
  -23.4980  -28.6690   23.2430 O   0  0  0  0  0  0  0  0  0  0  0  0
  -21.0250  -29.7730   21.6430 H   0  0  0  0  0  0  0  0  0  0  0  0
  -18.1030  -28.0410   22.7720 C   0  0  0  0  0  0  0  0  0  0  0  0
  -20.6710  -28.2120   23.0230 C   0  0  0  0  0  3  0  0  0  0  0  0
  -20.7260  -26.8220   22.3470 C   0  0  0  0  0  2  0  0  0  0  0  0
  -19.6030  -26.5990   21.3310 C   0  0  0  0  0  2  0  0  0  0  0  0
  -18.2340  -26.7380   22.0040 C   0  0  0  0  0  2  0  0  0  0  0  0
  -19.2480  -28.7420   23.2370 C   0  0  0  0  0  0  0  0  0  0  0  0
  -19.0720  -29.9660   23.9170 C   0  0  0  0  0  3  0  0  0  0  0  0
  -17.7840  -30.4900   24.1350 C   0  0  0  0  0  3  0  0  0  0  0  0
  -16.6540  -29.7850   23.6870 C   0  0  0  0  0  3  0  0  0  0  0  0
  -16.8140  -28.5620   23.0110 C   0  0  0  0  0  3  0  0  0  0  0  0
  -25.8410  -32.4260   23.9720 C   0  0  0  0  0  3  0  0  0  0  0  0
  -26.2970  -31.6530   25.2710 C   0  0  1  0  0  0  0  0  0  0  0  0
  -25.1540  -31.4090   26.2830 C   0  0  0  0  0  1  0  0  0  0  0  0
  -26.9040  -30.2790   24.9050 C   0  0  0  0  0  1  0  0  0  0  0  0
  -27.4120  -32.4500   25.9900 C   0  0  0  0  0  1  0  0  0  0  0  0
  -25.4980  -33.8170   24.2920 N   0  0  0  0  0  0  0  0  0  0  0  0
  -25.8670  -34.8790   23.5620 C   0  0  0  0  0  0  0  0  0  0  0  0
  -26.6020  -34.7890   22.5740 O   0  0  0  0  0  0  0  0  0  0  0  0
  -24.8520  -33.9610   25.0550 H   0  0  0  0  0  0  0  0  0  0  0  0
  -24.1690  -36.6730   23.0890 C   0  0  0  0  0  1  0  0  0  0  0  0
  -25.3380  -36.2590   23.9970 C   0  0  0  0  0  3  0  0  0  0  0  0
  -27.3790  -37.1490   25.0320 C   0  0  0  0  0  1  0  0  0  0  0  0
  -26.3720  -37.3160   23.9880 N   0  0  0  0  0  0  0  0  0  0  0  0
  -25.9510  -38.2340   24.0970 H   0  0  0  0  0  0  0  0  0  0  0  0
  -30.5920  -16.1460   19.8930 C   0  0  2  0  0  0  0  0  0  0  0  0
  -30.8950  -14.8160   20.7840 C   0  0  0  0  0  0  0  0  0  0  0  0
  -30.6730  -12.4730   20.0370 C   0  0  0  0  0  2  0  0  0  0  0  0
  -29.8380  -12.3380   18.7490 C   0  0  0  0  0  2  0  0  0  0  0  0
  -28.3400  -12.1950   19.0820 C   0  0  0  0  0  2  0  0  0  0  0  0
  -27.8360  -13.1940   20.1510 C   0  0  0  0  0  3  0  0  0  0  0  0
  -28.8280  -13.3730   21.3260 C   0  0  0  0  0  2  0  0  0  0  0  0
  -30.1640  -13.6460   20.7690 N   0  0  0  0  0  0  0  0  0  0  0  0
  -32.0670  -14.7270   21.1410 O   0  0  0  0  0  0  0  0  0  0  0  0
  -25.4210  -13.8480   20.7010 C   0  0  0  0  0  0  0  0  0  0  0  0
  -24.3190  -13.0910   20.9790 C   0  0  0  0  0  0  0  0  0  0  0  0
  -24.7740  -11.7370   21.0130 C   0  0  0  0  0  0  0  0  0  0  0  0
  -26.4710  -12.9480   20.5720 N   0  0  0  0  0  0  0  0  0  0  0  0
  -26.0850  -11.6800   20.8320 N   0  0  0  0  0  0  0  0  0  0  0  0
  -24.0320  -10.4830   21.1480 C   0  0  0  0  0  0  0  0  0  0  0  0
  -24.3970   -9.5170   22.1100 C   0  0  0  0  0  3  0  0  0  0  0  0
  -23.6580   -8.3220   22.2350 C   0  0  0  0  0  3  0  0  0  0  0  0
  -22.5430   -8.0880   21.3960 C   0  0  0  0  0  0  0  0  0  0  0  0
  -22.2020   -9.0440   20.4220 C   0  0  0  0  0  3  0  0  0  0  0  0
  -22.9410  -10.2300   20.2940 C   0  0  0  0  0  3  0  0  0  0  0  0
  -21.7800   -6.9470   21.4310 O   0  0  0  0  0  0  0  0  0  0  0  0
  -21.6590   -6.2020   22.5760 C   0  0  0  0  0  0  0  0  0  0  0  0
  -21.0780   -6.7270   23.7500 C   0  0  0  0  0  3  0  0  0  0  0  0
  -20.9100   -5.9040   24.8820 C   0  0  0  0  0  3  0  0  0  0  0  0
  -21.3120   -4.5550   24.8370 C   0  0  0  0  0  0  0  0  0  0  0  0
  -21.8860   -4.0290   23.6670 C   0  0  0  0  0  3  0  0  0  0  0  0
  -22.0560   -4.8500   22.5390 C   0  0  0  0  0  0  0  0  0  0  0  0
  -22.5920   -4.3330   21.4060 F   0  0  0  0  0  0  0  0  0  0  0  0
  -21.1420   -3.7620   25.9200 F   0  0  0  0  0  0  0  0  0  0  0  0
  -22.9060  -13.5810   21.1090 C   0  0  0  0  0  0  0  0  0  0  0  0
  -22.0950  -12.8990   21.9090 N   0  0  0  0  0  0  0  0  0  0  0  0
  -22.5270  -14.6010   20.5350 O   0  0  0  0  0  0  0  0  0  0  0  0
  -22.4140  -12.0740   22.3970 H   0  0  0  0  0  0  0  0  0  0  0  0
  -21.1430  -13.2070   22.0400 H   0  0  0  0  0  0  0  0  0  0  0  0
  -25.6070  -15.2150   20.5200 N   0  0  0  0  0  0  0  0  0  0  0  0
  -24.8410  -15.8780   20.5690 H   0  0  0  0  0  0  0  0  0  0  0  0
  -26.5010  -15.6560   20.3350 H   0  0  0  0  0  0  0  0  0  0  0  0
  -31.6150  -16.0350   18.6870 C   0  0  1  0  0  0  0  0  0  0  0  0
  -32.8820  -16.2560   19.0580 F   0  0  0  0  0  0  0  0  0  0  0  0
  -31.6030  -14.8190   18.1340 F   0  0  0  0  0  0  0  0  0  0  0  0
  -31.3530  -16.8750   17.6800 F   0  0  0  0  0  0  0  0  0  0  0  0
  -29.1740  -16.2630   19.2670 C   0  0  1  0  0  0  0  0  0  0  0  0
  -29.0230  -17.3520   18.5070 F   0  0  0  0  0  0  0  0  0  0  0  0
  -28.8790  -15.2400   18.4710 F   0  0  0  0  0  0  0  0  0  0  0  0
  -28.2630  -16.3800   20.2340 F   0  0  0  0  0  0  0  0  0  0  0  0
  2  1  1  0
  3  7  1  0
  3  1  2  0
  4  2  2  0
  5  3  1  0
  6  5  2  0
  6  4  1  0
  8  9  1  0
  8  7  2  0
 10 11  1  0
 10  9  2  0
 12 23  2  0
 13 11  1  0
 13 18  1  0
 14 22  1  0
 14 24  1  0
 15 21  1  0
 15 17  1  0
 16 22  1  0
 17 18  2  0
 17 16  1  0
 19 13  2  0
 20 19  1  0
 20 15  2  0
 21 14  1  0
 22 12  1  0
 24 26  2  0
 25 24  1  0
 27 25  1  0
 28 37  2  0
 28 33  1  0
 29 25  1  0
 29 33  1  0
 30 29  1  0
 31 32  1  0
 31 30  1  0
 32 28  1  0
 33 34  2  0
 34 35  1  0
 36 35  2  0
 37 36  1  0
 38 12  1  0
 38 43  1  0
 38 39  1  0
 39 42  1  1
 39 40  1  0
 41 39  1  0
 43 46  1  0
 44 48  1  0
 44 43  1  0
 45 44  2  0
 48 47  1  0
 50 48  1  0
 50 51  1  0
 50 49  1  0
 52  4  1  0
 52 53  1  1
 53 60  2  0
 54 59  1  0
 55 56  1  0
 55 54  1  0
 57 56  1  0
 57 64  1  0
 57 58  1  0
 59 53  1  0
 59 58  1  0
 61 62  2  0
 62 63  1  0
 62 81  1  0
 63 66  1  0
 64 61  1  0
 64 65  1  0
 65 63  2  0
 66 67  1  0
 67 68  2  0
 69 72  1  0
 69 68  1  0
 70 69  2  0
 71 70  1  0
 71 66  2  0
 72 73  1  0
 73 74  1  0
 74 75  2  0
 76 75  1  0
 76 80  1  0
 77 76  2  0
 78 73  2  0
 78 77  1  0
 79 78  1  0
 81 82  1  0
 82 85  1  0
 82 84  1  0
 83 81  2  0
 86 87  1  0
 86 61  1  0
 88 86  1  0
 89 90  1  1
 89 52  1  0
 91 89  1  0
 92 89  1  0
 93 52  1  0
 93 96  1  1
 94 93  1  0
 95 93  1  0
M  ISO  4  10 101  11 101  52 100  53 100
M  END
>  <TORSDO>  (25) 
F 23

>  <SCORE>  (25) 
-12.135

>  <name>  (25) 
26

>  <ligand_id>  (25) 
26

>  <original_smiles>  (25) 
[H]c1c(C([H])([H])C([H])([H])C([H])([H])C([H])([H])Oc2c([H])c([H])c3c(c2[H])C([H])([H])N(C(=O)C([H])(N([H])C(=O)C([H])(N([H])C([H])([H])[H])C([H])([H])[H])C(C([H])([H])[H])(C([H])([H])[H])C([H])([H])[H])C([H])(C(=O)N([H])C2([H])c4c([H])c([H])c([H])c([H])c4C([H])([H])C([H])([H])C2([H])[H])C3([H])[H])nnc(C(C(=O)N2C([H])([H])C([H])([H])C([H])([H])C([H])(n3nc(-c4c([H])c([H])c(Oc5c([H])c([H])c(F)c([H])c5F)c([H])c4[H])c(C(=O)N([H])[H])c3N([H])[H])C2([H])[H])(C(F)(F)F)C(F)(F)F)c1[H]

>  <smiles>  (25) 
[H]c1c(C([H])([H])C([H])([H])C([H])([H])C([H])([H])Oc2c([H])c([H])c3c(c2[H])C([H])([H])N(C(=O)C([H])(N([H])C(=O)C([H])(N([H])C([H])([H])[H])C([H])([H])[H])C(C([H])([H])[H])(C([H])([H])[H])C([H])([H])[H])C([H])(C(=O)N([H])C2([H])c4c([H])c([H])c([H])c([H])c4C([H])([H])C([H])([H])C2([H])[H])C3([H])[H])nnc(C(C(=O)N2C([H])([H])C([H])([H])C([H])([H])C([H])(n3nc(-c4c([H])c([H])c(Oc5c([H])c([H])c(F)c([H])c5F)c([H])c4[H])c(C(=O)N([H])[H])c3N([H])[H])C2([H])[H])(C(F)(F)F)C(F)(F)F)c1[H]

$$$$
27:0:0
     RDKit          3D

 95103  0  0  1  0  0  0  0  0999 V2000
  -31.7290  -21.4960   20.1460 C   0  0  0  0  0  1  0  0  0  0  0  0
  -30.2850  -20.9300   20.0860 C   0  0  1  0  0  0  0  0  0  0  0  0
  -30.7100  -19.5750   17.9270 C   0  0  0  0  0  2  0  0  0  0  0  0
  -30.5250  -19.4650   19.2940 C   0  0  0  0  0  3  0  0  0  0  0  0
  -31.5810  -17.6080   18.4450 C   0  0  0  0  0  3  0  0  0  0  0  0
  -32.5080  -16.4420   18.1380 C   0  0  0  0  0  1  0  0  0  0  0  0
  -30.8480  -18.0040   19.5350 N   0  0  0  0  0  0  0  0  0  0  0  0
  -31.2970  -18.4590   17.4610 N   0  0  0  0  0  0  0  0  0  0  0  0
  -31.5090  -18.3260   16.4750 H   0  0  0  0  0  0  0  0  0  0  0  0
  -29.9280  -17.2800   21.8270 C   0  0  0  0  0  1  0  0  0  0  0  0
  -28.9150  -16.5930   19.6100 C   0  0  0  0  0  1  0  0  0  0  0  0
  -30.2150  -16.7850   20.4240 C   0  0  1  0  0  0  0  0  0  0  0  0
  -30.8280  -15.2270   20.6470 C   0  0  0  0  0  0  0  0  0  0  0  0
  -30.6490  -12.8700   19.7800 C   0  0  0  0  0  2  0  0  0  0  0  0
  -29.7600  -12.7260   18.5320 C   0  0  0  0  0  2  0  0  0  0  0  0
  -28.2890  -12.4700   18.9150 C   0  0  0  0  0  2  0  0  0  0  0  0
  -27.8010  -13.4220   20.0250 C   0  0  0  0  0  3  0  0  0  0  0  0
  -28.8320  -13.6010   21.1670 C   0  0  0  0  0  2  0  0  0  0  0  0
  -30.1350  -14.0070   20.5880 N   0  0  0  0  0  0  0  0  0  0  0  0
  -32.0390  -15.1040   20.7330 O   0  0  0  0  0  0  0  0  0  0  0  0
  -25.3940  -13.9800   20.6910 C   0  0  0  0  0  0  0  0  0  0  0  0
  -24.3260  -13.2060   21.0190 C   0  0  0  0  0  0  0  0  0  0  0  0
  -24.7990  -11.8530   21.0080 C   0  0  0  0  0  0  0  0  0  0  0  0
  -26.4580  -13.1140   20.5000 N   0  0  0  0  0  0  0  0  0  0  0  0
  -26.1090  -11.8270   20.7690 N   0  0  0  0  0  0  0  0  0  0  0  0
  -24.0790  -10.5860   21.1500 C   0  0  0  0  0  0  0  0  0  0  0  0
  -24.4650   -9.6280   22.1120 C   0  0  0  0  0  3  0  0  0  0  0  0
  -23.7490   -8.4190   22.2460 C   0  0  0  0  0  3  0  0  0  0  0  0
  -22.6360   -8.1610   21.4120 C   0  0  0  0  0  0  0  0  0  0  0  0
  -22.2690   -9.1080   20.4410 C   0  0  0  0  0  3  0  0  0  0  0  0
  -22.9840  -10.3120   20.3090 C   0  0  0  0  0  3  0  0  0  0  0  0
  -21.8950   -7.0060   21.4500 O   0  0  0  0  0  0  0  0  0  0  0  0
  -21.7650   -6.2750   22.6020 C   0  0  0  0  0  0  0  0  0  0  0  0
  -21.2150   -6.8260   23.7790 C   0  0  0  0  0  3  0  0  0  0  0  0
  -21.0520   -6.0220   24.9250 C   0  0  0  0  0  3  0  0  0  0  0  0
  -21.4230   -4.6630   24.8870 C   0  0  0  0  0  0  0  0  0  0  0  0
  -21.9670   -4.1120   23.7110 C   0  0  0  0  0  3  0  0  0  0  0  0
  -22.1410   -4.9160   22.5730 C   0  0  0  0  0  0  0  0  0  0  0  0
  -22.6450   -4.3780   21.4350 F   0  0  0  0  0  0  0  0  0  0  0  0
  -21.2550   -3.8810   25.9760 F   0  0  0  0  0  0  0  0  0  0  0  0
  -22.9060  -13.6650   21.2240 C   0  0  0  0  0  0  0  0  0  0  0  0
  -22.1290  -12.9670   22.0360 N   0  0  0  0  0  0  0  0  0  0  0  0
  -22.4950  -14.6940   20.6840 O   0  0  0  0  0  0  0  0  0  0  0  0
  -22.4490  -12.1190   22.4830 H   0  0  0  0  0  0  0  0  0  0  0  0
  -21.1930  -13.2990   22.2450 H   0  0  0  0  0  0  0  0  0  0  0  0
  -25.5620  -15.3470   20.4950 N   0  0  0  0  0  0  0  0  0  0  0  0
  -24.7740  -15.9860   20.4390 H   0  0  0  0  0  0  0  0  0  0  0  0
  -26.4300  -15.7390   20.1660 H   0  0  0  0  0  0  0  0  0  0  0  0
  -29.5450  -20.8960   21.4730 C   0  0  0  0  0  2  0  0  0  0  0  0
  -30.4920  -21.8990   23.7260 C   0  0  0  0  0  1  0  0  0  0  0  0
  -30.3720  -20.7230   22.7580 C   0  0  0  0  0  2  0  0  0  0  0  0
  -29.4440  -22.2050   19.3660 C   0  0  0  0  0  2  0  0  0  0  0  0
  -29.5700  -23.8610   19.7150 C   0  0  0  0  0  3  0  0  0  0  0  0
  -28.4100  -24.9220   20.2670 C   0  0  0  0  0  3  0  0  0  0  0  0
  -28.5010  -26.4730   20.3190 O   0  0  0  0  0  0  0  0  0  0  0  0
  -24.5880  -32.0060   23.3450 C   0  0  0  0  0  0  0  0  0  0  0  0
  -27.3560  -27.3510   20.3520 C   0  0  0  0  0  0  0  0  0  0  0  0
  -23.4470  -30.5640   21.7020 C   0  0  0  0  0  3  0  0  0  0  0  0
  -24.9550  -28.9880   20.3510 C   0  0  0  0  0  0  0  0  0  0  0  0
  -26.0040  -30.8910   21.5800 C   0  0  0  0  0  2  0  0  0  0  0  0
  -26.1190  -29.4930   20.9420 C   0  0  0  0  0  0  0  0  0  0  0  0
  -27.3180  -28.6870   20.9200 C   0  0  0  0  0  3  0  0  0  0  0  0
  -26.1450  -26.9380   19.7520 C   0  0  0  0  0  3  0  0  0  0  0  0
  -24.9740  -27.7200   19.7570 C   0  0  0  0  0  3  0  0  0  0  0  0
  -23.7020  -29.8310   20.3600 C   0  0  0  0  0  2  0  0  0  0  0  0
  -24.6990  -31.1780   22.2620 N   0  0  0  0  0  0  0  0  0  0  0  0
  -23.4830  -32.2730   23.8480 O   0  0  0  0  0  0  0  0  0  0  0  0
  -22.7550  -29.5800   22.6820 C   0  0  0  0  0  0  0  0  0  0  0  0
  -21.4410  -29.3500   22.5060 N   0  0  0  0  0  0  0  0  0  0  0  0
  -23.4090  -29.0090   23.5590 O   0  0  0  0  0  0  0  0  0  0  0  0
  -20.9590  -29.8550   21.7770 H   0  0  0  0  0  0  0  0  0  0  0  0
  -18.1190  -27.9350   22.8270 C   0  0  0  0  0  0  0  0  0  0  0  0
  -20.6280  -28.3910   23.2580 C   0  0  0  0  0  3  0  0  0  0  0  0
  -20.8760  -26.9490   22.7660 C   0  0  0  0  0  2  0  0  0  0  0  0
  -19.8620  -26.4850   21.7180 C   0  0  0  0  0  2  0  0  0  0  0  0
  -18.4320  -26.5630   22.2630 C   0  0  0  0  0  2  0  0  0  0  0  0
  -19.1470  -28.8000   23.2860 C   0  0  0  0  0  0  0  0  0  0  0  0
  -18.7980  -30.0780   23.7790 C   0  0  0  0  0  3  0  0  0  0  0  0
  -17.4530  -30.4960   23.8250 C   0  0  0  0  0  3  0  0  0  0  0  0
  -16.4440  -29.6260   23.3840 C   0  0  0  0  0  3  0  0  0  0  0  0
  -16.7740  -28.3520   22.8880 C   0  0  0  0  0  3  0  0  0  0  0  0
  -25.8420  -32.6700   23.9970 C   0  0  0  0  0  3  0  0  0  0  0  0
  -25.5110  -34.0770   24.2740 N   0  0  0  0  0  0  0  0  0  0  0  0
  -25.8670  -35.1070   23.4950 C   0  0  0  0  0  0  0  0  0  0  0  0
  -26.5640  -34.9730   22.4870 O   0  0  0  0  0  0  0  0  0  0  0  0
  -24.8910  -34.2540   25.0480 H   0  0  0  0  0  0  0  0  0  0  0  0
  -24.1460  -36.8890   23.0590 C   0  0  0  0  0  1  0  0  0  0  0  0
  -25.3720  -36.5070   23.9020 C   0  0  0  0  0  3  0  0  0  0  0  0
  -27.4880  -37.4330   24.7410 C   0  0  0  0  0  1  0  0  0  0  0  0
  -26.4050  -37.5570   23.7690 N   0  0  0  0  0  0  0  0  0  0  0  0
  -25.9920  -38.4800   23.8700 H   0  0  0  0  0  0  0  0  0  0  0  0
  -26.3220  -31.9430   25.3160 C   0  0  1  0  0  0  0  0  0  0  0  0
  -25.1930  -31.7260   26.3500 C   0  0  0  0  0  1  0  0  0  0  0  0
  -26.9300  -30.5540   24.9970 C   0  0  0  0  0  1  0  0  0  0  0  0
  -27.4430  -32.7660   25.9930 C   0  0  0  0  0  1  0  0  0  0  0  0
  2  1  1  1
  2 49  1  0
  3  4  1  0
  4  7  1  0
  4  2  1  0
  5  6  1  0
  5  7  1  0
  7 12  1  0
  8  3  1  0
  8  5  1  0
  9  8  1  0
 12 11  1  6
 12 13  1  0
 12 10  1  0
 13 20  2  0
 14 19  1  0
 15 16  1  0
 15 14  1  0
 17 16  1  0
 17 24  1  0
 17 18  1  0
 19 13  1  0
 19 18  1  0
 21 22  2  0
 22 41  1  0
 23 22  1  0
 23 26  1  0
 24 21  1  0
 24 25  1  0
 25 23  2  0
 26 27  1  0
 27 28  2  0
 29 32  1  0
 29 28  1  0
 30 29  2  0
 31 30  1  0
 31 26  2  0
 32 33  1  0
 33 34  1  0
 34 35  2  0
 36 35  1  0
 36 40  1  0
 37 36  2  0
 38 33  2  0
 38 37  1  0
 39 38  1  0
 41 42  1  0
 42 45  1  0
 42 44  1  0
 43 41  2  0
 46 21  1  0
 47 46  1  0
 48 46  1  0
 49 51  1  0
 51 50  1  0
 52 53  1  0
 52  2  1  0
 53 54  2  0
 54 55  1  0
 55 57  1  0
 56 67  2  0
 57 62  1  0
 58 66  1  0
 58 68  1  0
 59 65  1  0
 59 61  1  0
 60 66  1  0
 61 60  1  0
 62 61  2  0
 63 64  1  0
 63 57  2  0
 64 59  2  0
 65 58  1  0
 66 56  1  0
 68 70  2  0
 69 68  1  0
 71 69  1  0
 72 81  2  0
 72 77  1  0
 73 69  1  0
 73 77  1  0
 74 73  1  0
 75 76  1  0
 75 74  1  0
 76 72  1  0
 77 78  2  0
 78 79  1  0
 80 79  2  0
 81 80  1  0
 82 56  1  0
 82 83  1  0
 82 92  1  0
 83 86  1  0
 84 88  1  0
 84 83  1  0
 85 84  2  0
 88 87  1  0
 90 91  1  0
 90 88  1  0
 90 89  1  0
 92 95  1  1
 92 93  1  0
 94 92  1  0
M  ISO  4  12 100  13 100  54 101  55 101
M  END
>  <TORSDO>  (26) 
F 23

>  <SCORE>  (26) 
-13.557

>  <name>  (26) 
27

>  <ligand_id>  (26) 
27

>  <original_smiles>  (26) 
[H]c1c([H])c([H])c2c(c1[H])C([H])([H])C([H])([H])C([H])([H])C2([H])N([H])C(=O)C1([H])N(C(=O)C([H])(N([H])C(=O)C([H])(N([H])C([H])([H])[H])C([H])([H])[H])C(C([H])([H])[H])(C([H])([H])[H])C([H])([H])[H])C([H])([H])c2c([H])c(OC([H])([H])C([H])([H])C([H])([H])C(c3c([H])[n+]([H])c(C([H])([H])[H])n3C(C(=O)N3C([H])([H])C([H])([H])C([H])([H])C([H])(n4nc(-c5c([H])c([H])c(Oc6c([H])c([H])c(F)c([H])c6F)c([H])c5[H])c(C(=O)N([H])[H])c4N([H])[H])C3([H])[H])(C([H])([H])[H])C([H])([H])[H])(C([H])([H])[H])C([H])([H])C([H])([H])C([H])([H])[H])c([H])c([H])c2C1([H])[H]

>  <smiles>  (26) 
[H]c1c([H])c([H])c2c(c1[H])C([H])([H])C([H])([H])C([H])([H])C2([H])N([H])C(=O)C1([H])N(C(=O)C([H])(N([H])C(=O)C([H])(N([H])C([H])([H])[H])C([H])([H])[H])C(C([H])([H])[H])(C([H])([H])[H])C([H])([H])[H])C([H])([H])c2c([H])c(OC([H])([H])C([H])([H])C([H])([H])C(c3c([H])[n+]([H])c(C([H])([H])[H])n3C(C(=O)N3C([H])([H])C([H])([H])C([H])([H])C([H])(n4nc(-c5c([H])c([H])c(Oc6c([H])c([H])c(F)c([H])c6F)c([H])c5[H])c(C(=O)N([H])[H])c4N([H])[H])C3([H])[H])(C([H])([H])[H])C([H])([H])[H])(C([H])([H])[H])C([H])([H])C([H])([H])C([H])([H])[H])c([H])c([H])c2C1([H])[H]

$$$$
28:0:0
     RDKit          3D

 92100  0  0  1  0  0  0  0  0999 V2000
  -28.3860  -20.8660   20.0430 C   0  0  0  0  0  2  0  0  0  0  0  0
  -29.2580  -19.5620   19.9020 C   0  0  0  0  0  0  0  0  0  0  0  0
  -30.3060  -17.9840   18.9360 C   0  0  0  0  0  3  0  0  0  0  0  0
  -31.0890  -17.2520   17.8970 C   0  0  0  0  0  1  0  0  0  0  0  0
  -29.9340  -19.2660   18.7520 N   0  0  0  0  0  0  0  0  0  0  0  0
  -29.2500  -18.5130   20.7600 N   0  0  0  0  0  2  0  0  0  0  0  0
  -29.9080  -17.4490   20.1140 N   0  0  0  0  0  0  0  0  0  0  0  0
  -29.0830  -15.8810   21.8840 C   0  0  0  0  0  1  0  0  0  0  0  0
  -31.4570  -16.4600   21.7290 C   0  0  0  0  0  1  0  0  0  0  0  0
  -30.2160  -16.1220   20.8610 C   0  0  2  0  0  0  0  0  0  0  0  0
  -30.6520  -14.7560   20.0520 C   0  0  0  0  0  0  0  0  0  0  0  0
  -30.3310  -12.5520   18.8770 C   0  0  0  0  0  2  0  0  0  0  0  0
  -29.3050  -12.6830   17.7260 C   0  0  0  0  0  2  0  0  0  0  0  0
  -27.8630  -12.5030   18.2390 C   0  0  0  0  0  2  0  0  0  0  0  0
  -27.5950  -13.3170   19.5320 C   0  0  0  0  0  3  0  0  0  0  0  0
  -28.7240  -13.0810   20.5520 C   0  0  0  0  0  2  0  0  0  0  0  0
  -29.9790  -13.5440   19.9340 N   0  0  0  0  0  0  0  0  0  0  0  0
  -31.7470  -14.8160   19.4810 O   0  0  0  0  0  0  0  0  0  0  0  0
  -25.2600  -13.9100   20.4150 C   0  0  0  0  0  0  0  0  0  0  0  0
  -24.2170  -13.1350   20.8410 C   0  0  0  0  0  0  0  0  0  0  0  0
  -24.6690  -11.7820   20.7580 C   0  0  0  0  0  0  0  0  0  0  0  0
  -26.2820  -13.0300   20.0980 N   0  0  0  0  0  0  0  0  0  0  0  0
  -25.9350  -11.7440   20.3630 N   0  0  0  0  0  0  0  0  0  0  0  0
  -23.9500  -10.5210   20.9740 C   0  0  0  0  0  0  0  0  0  0  0  0
  -24.4200   -9.5480   21.8840 C   0  0  0  0  0  3  0  0  0  0  0  0
  -23.6990   -8.3520   22.0890 C   0  0  0  0  0  3  0  0  0  0  0  0
  -22.4950   -8.1190   21.3820 C   0  0  0  0  0  0  0  0  0  0  0  0
  -22.0440   -9.0800   20.4610 C   0  0  0  0  0  3  0  0  0  0  0  0
  -22.7650  -10.2680   20.2540 C   0  0  0  0  0  3  0  0  0  0  0  0
  -21.7430   -6.9750   21.4960 O   0  0  0  0  0  0  0  0  0  0  0  0
  -21.7150   -6.2460   22.6580 C   0  0  0  0  0  0  0  0  0  0  0  0
  -21.3290   -6.8190   23.8890 C   0  0  0  0  0  3  0  0  0  0  0  0
  -21.2470   -6.0160   25.0450 C   0  0  0  0  0  3  0  0  0  0  0  0
  -21.5410   -4.6410   24.9710 C   0  0  0  0  0  0  0  0  0  0  0  0
  -21.9200   -4.0680   23.7440 C   0  0  0  0  0  3  0  0  0  0  0  0
  -22.0040   -4.8670   22.5900 C   0  0  0  0  0  0  0  0  0  0  0  0
  -22.3500   -4.3050   21.4070 F   0  0  0  0  0  0  0  0  0  0  0  0
  -21.4550   -3.8680   26.0780 F   0  0  0  0  0  0  0  0  0  0  0  0
  -22.8420  -13.6140   21.2120 C   0  0  0  0  0  0  0  0  0  0  0  0
  -22.1710  -12.9100   22.1160 N   0  0  0  0  0  0  0  0  0  0  0  0
  -22.3750  -14.6470   20.7340 O   0  0  0  0  0  0  0  0  0  0  0  0
  -22.5640  -12.0750   22.5250 H   0  0  0  0  0  0  0  0  0  0  0  0
  -21.2520  -13.2130   22.4070 H   0  0  0  0  0  0  0  0  0  0  0  0
  -25.4180  -15.2830   20.2500 N   0  0  0  0  0  0  0  0  0  0  0  0
  -24.6650  -15.9370   20.4330 H   0  0  0  0  0  0  0  0  0  0  0  0
  -26.2470  -15.7290   19.8820 H   0  0  0  0  0  0  0  0  0  0  0  0
  -28.9480  -22.3480   20.3890 C   0  0  0  0  0  2  0  0  0  0  0  0
  -26.5980  -23.3430   20.2890 C   0  0  0  0  0  1  0  0  0  0  0  0
  -28.2560  -23.8910   18.4680 C   0  0  0  0  0  1  0  0  0  0  0  0
  -28.0750  -23.6720   19.9820 C   0  0  2  0  0  0  0  0  0  0  0  0
  -28.4190  -25.0780   20.7290 C   0  0  0  0  0  2  0  0  0  0  0  0
  -28.3720  -26.4480   20.1150 O   0  0  0  0  0  0  0  0  0  0  0  0
  -24.6470  -31.8870   23.2080 C   0  0  0  0  0  0  0  0  0  0  0  0
  -27.2400  -27.2810   20.1770 C   0  0  0  0  0  0  0  0  0  0  0  0
  -23.4380  -30.4790   21.5810 C   0  0  0  0  0  3  0  0  0  0  0  0
  -24.8810  -28.9120   20.1640 C   0  0  0  0  0  0  0  0  0  0  0  0
  -25.9790  -30.7870   21.3880 C   0  0  0  0  0  2  0  0  0  0  0  0
  -26.0530  -29.3980   20.7570 C   0  0  0  0  0  0  0  0  0  0  0  0
  -27.2370  -28.5950   20.7520 C   0  0  0  0  0  3  0  0  0  0  0  0
  -26.0540  -26.8630   19.5450 C   0  0  0  0  0  3  0  0  0  0  0  0
  -24.8850  -27.6490   19.5500 C   0  0  0  0  0  3  0  0  0  0  0  0
  -23.6490  -29.7930   20.2060 C   0  0  0  0  0  2  0  0  0  0  0  0
  -24.7070  -31.0710   22.1150 N   0  0  0  0  0  0  0  0  0  0  0  0
  -23.5650  -32.1690   23.7440 O   0  0  0  0  0  0  0  0  0  0  0  0
  -22.7780  -29.4700   22.5500 C   0  0  0  0  0  0  0  0  0  0  0  0
  -21.4510  -29.2910   22.4290 N   0  0  0  0  0  0  0  0  0  0  0  0
  -23.4590  -28.8490   23.3700 O   0  0  0  0  0  0  0  0  0  0  0  0
  -20.9610  -29.8430   21.7390 H   0  0  0  0  0  0  0  0  0  0  0  0
  -18.0770  -28.0930   22.9450 C   0  0  0  0  0  0  0  0  0  0  0  0
  -20.6350  -28.3590   23.2080 C   0  0  0  0  0  3  0  0  0  0  0  0
  -20.7390  -26.9230   22.6420 C   0  0  0  0  0  2  0  0  0  0  0  0
  -19.6350  -26.5920   21.6320 C   0  0  0  0  0  2  0  0  0  0  0  0
  -18.2540  -26.7400   22.2770 C   0  0  0  0  0  2  0  0  0  0  0  0
  -19.1950  -28.8600   23.3670 C   0  0  0  0  0  0  0  0  0  0  0  0
  -18.9740  -30.1260   23.9510 C   0  0  0  0  0  3  0  0  0  0  0  0
  -17.6690  -30.6260   24.1150 C   0  0  0  0  0  3  0  0  0  0  0  0
  -16.5650  -29.8560   23.7090 C   0  0  0  0  0  3  0  0  0  0  0  0
  -16.7700  -28.5920   23.1290 C   0  0  0  0  0  3  0  0  0  0  0  0
  -25.9320  -32.5250   23.8220 C   0  0  0  0  0  3  0  0  0  0  0  0
  -25.6160  -33.9200   24.1620 N   0  0  0  0  0  0  0  0  0  0  0  0
  -25.9350  -34.9790   23.4070 C   0  0  0  0  0  0  0  0  0  0  0  0
  -26.5940  -34.8860   22.3690 O   0  0  0  0  0  0  0  0  0  0  0  0
  -25.0250  -34.0650   24.9670 H   0  0  0  0  0  0  0  0  0  0  0  0
  -24.1920  -36.7660   23.0850 C   0  0  0  0  0  1  0  0  0  0  0  0
  -25.4450  -36.3620   23.8780 C   0  0  0  0  0  3  0  0  0  0  0  0
  -27.5870  -37.2540   24.6850 C   0  0  0  0  0  1  0  0  0  0  0  0
  -26.4700  -37.4210   23.7570 N   0  0  0  0  0  0  0  0  0  0  0  0
  -26.0620  -38.3390   23.9150 H   0  0  0  0  0  0  0  0  0  0  0  0
  -26.4610  -31.7510   25.0910 C   0  0  1  0  0  0  0  0  0  0  0  0
  -25.3780  -31.5040   26.1670 C   0  0  0  0  0  1  0  0  0  0  0  0
  -27.0480  -30.3770   24.6910 C   0  0  0  0  0  1  0  0  0  0  0  0
  -27.6150  -32.5480   25.7450 C   0  0  0  0  0  1  0  0  0  0  0  0
  1 47  1  0
  2  1  1  0
  2  6  1  0
  3  4  1  0
  3  7  1  0
  5  3  1  0
  5  2  2  0
  7  6  1  0
  7 10  1  0
 10  9  1  1
 10  8  1  0
 11 10  1  0
 12 17  1  0
 13 14  1  0
 13 12  1  0
 15 14  1  0
 15 22  1  0
 15 16  1  0
 17 11  1  0
 17 16  1  0
 18 11  2  0
 19 20  2  0
 20 39  1  0
 21 20  1  0
 21 24  1  0
 22 23  1  0
 22 19  1  0
 23 21  2  0
 24 25  1  0
 25 26  2  0
 27 30  1  0
 27 26  1  0
 28 27  2  0
 29 28  1  0
 29 24  2  0
 30 31  1  0
 31 32  1  0
 32 33  2  0
 34 33  1  0
 34 38  1  0
 35 34  2  0
 36 31  2  0
 36 35  1  0
 37 36  1  0
 39 40  1  0
 40 43  1  0
 40 42  1  0
 41 39  2  0
 44 19  1  0
 44 45  1  0
 46 44  1  0
 50 49  1  6
 50 48  1  0
 50 47  1  0
 50 51  1  0
 52 54  1  0
 52 51  1  0
 53 64  2  0
 54 59  1  0
 55 63  1  0
 55 65  1  0
 56 62  1  0
 56 58  1  0
 57 63  1  0
 58 57  1  0
 59 58  2  0
 60 61  1  0
 60 54  2  0
 61 56  2  0
 62 55  1  0
 63 53  1  0
 65 67  2  0
 66 65  1  0
 68 66  1  0
 69 78  2  0
 69 74  1  0
 70 66  1  0
 70 74  1  0
 71 70  1  0
 72 73  1  0
 72 71  1  0
 73 69  1  0
 74 75  2  0
 75 76  1  0
 77 76  2  0
 78 77  1  0
 79 53  1  0
 79 80  1  0
 79 89  1  0
 80 83  1  0
 81 85  1  0
 81 80  1  0
 82 81  2  0
 85 84  1  0
 87 85  1  0
 87 88  1  0
 87 86  1  0
 89 92  1  1
 89 90  1  0
 91 89  1  0
M  ISO  4  10 100  11 100  51 101  52 101
M  END
>  <TORSDO>  (27) 
F 21

>  <SCORE>  (27) 
-12.437

>  <name>  (27) 
28

>  <ligand_id>  (27) 
28

>  <original_smiles>  (27) 
[H]c1c([H])c([H])c2c(c1[H])C([H])([H])C([H])([H])C([H])([H])C2([H])N([H])C(=O)C1([H])N(C(=O)C([H])(N([H])C(=O)C([H])(N([H])C([H])([H])[H])C([H])([H])[H])C(C([H])([H])[H])(C([H])([H])[H])C([H])([H])[H])C([H])([H])c2c([H])c(OC([H])([H])C(C([H])([H])[H])(C([H])([H])[H])C([H])([H])C([H])([H])c3nc(C([H])([H])[H])n(C(C(=O)N4C([H])([H])C([H])([H])C([H])([H])C([H])(n5nc(-c6c([H])c([H])c(Oc7c([H])c([H])c(F)c([H])c7F)c([H])c6[H])c(C(=O)N([H])[H])c5N([H])[H])C4([H])[H])(C([H])([H])[H])C([H])([H])[H])n3)c([H])c([H])c2C1([H])[H]

>  <smiles>  (27) 
[H]c1c([H])c([H])c2c(c1[H])C([H])([H])C([H])([H])C([H])([H])C2([H])N([H])C(=O)C1([H])N(C(=O)C([H])(N([H])C(=O)C([H])(N([H])C([H])([H])[H])C([H])([H])[H])C(C([H])([H])[H])(C([H])([H])[H])C([H])([H])[H])C([H])([H])c2c([H])c(OC([H])([H])C(C([H])([H])[H])(C([H])([H])[H])C([H])([H])C([H])([H])c3nc(C([H])([H])[H])n(C(C(=O)N4C([H])([H])C([H])([H])C([H])([H])C([H])(n5nc(-c6c([H])c([H])c(Oc7c([H])c([H])c(F)c([H])c7F)c([H])c6[H])c(C(=O)N([H])[H])c5N([H])[H])C4([H])[H])(C([H])([H])[H])C([H])([H])[H])n3)c([H])c([H])c2C1([H])[H]

$$$$
29:0:0
     RDKit          3D

 93101  0  0  1  0  0  0  0  0999 V2000
  -29.0930  -20.9300   20.6390 C   0  0  0  0  0  3  0  0  0  0  0  0
  -29.8420  -20.0440   19.7470 C   0  0  0  0  0  0  0  0  0  0  0  0
  -29.2430  -22.2750   20.2360 C   0  0  0  0  0  0  0  0  0  0  0  0
  -30.6690  -23.1740   18.2910 C   0  0  0  0  0  1  0  0  0  0  0  0
  -30.3470  -20.8510   18.8100 N   0  0  0  0  0  0  0  0  0  0  0  0
  -30.0660  -22.1500   19.1250 N   0  0  0  0  0  0  0  0  0  0  0  0
  -31.5540  -18.2880   19.0260 C   0  0  0  0  0  1  0  0  0  0  0  0
  -29.1280  -17.9290   18.4520 C   0  0  0  0  0  1  0  0  0  0  0  0
  -30.0940  -18.4460   19.5490 C   0  0  2  0  0  0  0  0  0  0  0  0
  -30.0280  -17.4140   20.8080 C   0  0  0  0  0  2  0  0  0  0  0  0
  -30.5690  -14.7780   20.4090 C   0  0  0  0  0  0  0  0  0  0  0  0
  -30.3820  -12.5010   19.3880 C   0  0  0  0  0  2  0  0  0  0  0  0
  -29.4570  -12.5900   18.1510 C   0  0  0  0  0  2  0  0  0  0  0  0
  -27.9770  -12.4350   18.5550 C   0  0  0  0  0  2  0  0  0  0  0  0
  -27.5950  -13.2860   19.7970 C   0  0  0  0  0  3  0  0  0  0  0  0
  -28.6480  -13.1780   20.9210 C   0  0  0  0  0  2  0  0  0  0  0  0
  -29.9450  -13.5480   20.3390 N   0  0  0  0  0  0  0  0  0  0  0  0
  -31.7590  -14.8810   20.1090 O   0  0  0  0  0  0  0  0  0  0  0  0
  -29.7790  -15.8960   20.6410 N   0  0  0  0  0  0  0  0  0  0  0  0
  -28.8320  -15.6360   20.8670 H   0  0  0  0  0  0  0  0  0  0  0  0
  -25.2010  -13.8730   20.4970 C   0  0  0  0  0  0  0  0  0  0  0  0
  -24.1330  -13.1040   20.8610 C   0  0  0  0  0  0  0  0  0  0  0  0
  -24.5910  -11.7510   20.8420 C   0  0  0  0  0  0  0  0  0  0  0  0
  -26.2460  -12.9920   20.2750 N   0  0  0  0  0  0  0  0  0  0  0  0
  -25.8870  -11.7090   20.5460 N   0  0  0  0  0  0  0  0  0  0  0  0
  -23.8570  -10.4910   21.0370 C   0  0  0  0  0  0  0  0  0  0  0  0
  -24.2870   -9.5260   21.9760 C   0  0  0  0  0  3  0  0  0  0  0  0
  -23.5580   -8.3320   22.1630 C   0  0  0  0  0  3  0  0  0  0  0  0
  -22.3870   -8.0920   21.4060 C   0  0  0  0  0  0  0  0  0  0  0  0
  -21.9720   -9.0440   20.4580 C   0  0  0  0  0  3  0  0  0  0  0  0
  -22.7000  -10.2320   20.2730 C   0  0  0  0  0  3  0  0  0  0  0  0
  -21.6350   -6.9460   21.4920 O   0  0  0  0  0  0  0  0  0  0  0  0
  -21.5930   -6.1960   22.6400 C   0  0  0  0  0  0  0  0  0  0  0  0
  -21.1850   -6.7490   23.8720 C   0  0  0  0  0  3  0  0  0  0  0  0
  -21.0920   -5.9300   25.0130 C   0  0  0  0  0  3  0  0  0  0  0  0
  -21.3950   -4.5580   24.9230 C   0  0  0  0  0  0  0  0  0  0  0  0
  -21.7940   -4.0040   23.6940 C   0  0  0  0  0  3  0  0  0  0  0  0
  -21.8900   -4.8210   22.5540 C   0  0  0  0  0  0  0  0  0  0  0  0
  -22.2560   -4.2820   21.3680 F   0  0  0  0  0  0  0  0  0  0  0  0
  -21.2960   -3.7670   26.0180 F   0  0  0  0  0  0  0  0  0  0  0  0
  -22.7320  -13.5860   21.1120 C   0  0  0  0  0  0  0  0  0  0  0  0
  -21.9990  -12.8960   21.9740 N   0  0  0  0  0  0  0  0  0  0  0  0
  -22.2990  -14.6050   20.5750 O   0  0  0  0  0  0  0  0  0  0  0  0
  -22.3690  -12.0750   22.4270 H   0  0  0  0  0  0  0  0  0  0  0  0
  -21.0530  -13.1890   22.1750 H   0  0  0  0  0  0  0  0  0  0  0  0
  -25.3750  -15.2440   20.3090 N   0  0  0  0  0  0  0  0  0  0  0  0
  -24.6070  -15.9040   20.3730 H   0  0  0  0  0  0  0  0  0  0  0  0
  -26.2300  -15.6570   19.9640 H   0  0  0  0  0  0  0  0  0  0  0  0
  -29.9410  -24.2800   21.6820 C   0  0  0  0  0  1  0  0  0  0  0  0
  -27.6670  -23.3460   21.8970 C   0  0  0  0  0  1  0  0  0  0  0  0
  -28.7770  -23.6790   20.8710 C   0  0  2  0  0  0  0  0  0  0  0  0
  -28.2140  -24.8880   19.9170 C   0  0  0  0  0  2  0  0  0  0  0  0
  -28.2780  -26.3560   20.3110 O   0  0  0  0  0  0  0  0  0  0  0  0
  -24.6210  -31.8840   23.2320 C   0  0  0  0  0  0  0  0  0  0  0  0
  -27.1860  -27.2520   20.1930 C   0  0  0  0  0  0  0  0  0  0  0  0
  -23.4080  -30.4880   21.5940 C   0  0  0  0  0  3  0  0  0  0  0  0
  -24.8480  -28.9340   20.1530 C   0  0  0  0  0  0  0  0  0  0  0  0
  -25.9530  -30.7760   21.4200 C   0  0  0  0  0  2  0  0  0  0  0  0
  -26.0190  -29.3950   20.7700 C   0  0  0  0  0  0  0  0  0  0  0  0
  -27.1810  -28.5600   20.7910 C   0  0  0  0  0  3  0  0  0  0  0  0
  -26.0070  -26.8840   19.5060 C   0  0  0  0  0  3  0  0  0  0  0  0
  -24.8530  -27.6920   19.5050 C   0  0  0  0  0  3  0  0  0  0  0  0
  -23.6120  -29.8110   20.2140 C   0  0  0  0  0  2  0  0  0  0  0  0
  -24.6800  -31.0690   22.1360 N   0  0  0  0  0  0  0  0  0  0  0  0
  -23.5390  -32.1680   23.7670 O   0  0  0  0  0  0  0  0  0  0  0  0
  -22.7460  -29.4750   22.5590 C   0  0  0  0  0  0  0  0  0  0  0  0
  -21.4210  -29.2940   22.4280 N   0  0  0  0  0  0  0  0  0  0  0  0
  -23.4220  -28.8550   23.3840 O   0  0  0  0  0  0  0  0  0  0  0  0
  -20.9360  -29.8350   21.7260 H   0  0  0  0  0  0  0  0  0  0  0  0
  -18.0490  -28.0810   22.9220 C   0  0  0  0  0  0  0  0  0  0  0  0
  -20.6050  -28.3570   23.2030 C   0  0  0  0  0  3  0  0  0  0  0  0
  -20.7220  -26.9250   22.6360 C   0  0  0  0  0  2  0  0  0  0  0  0
  -19.6270  -26.5860   21.6200 C   0  0  0  0  0  2  0  0  0  0  0  0
  -18.2410  -26.7260   22.2550 C   0  0  0  0  0  2  0  0  0  0  0  0
  -19.1610  -28.8520   23.3500 C   0  0  0  0  0  0  0  0  0  0  0  0
  -18.9350  -30.1150   23.9360 C   0  0  0  0  0  3  0  0  0  0  0  0
  -17.6270  -30.6090   24.1000 C   0  0  0  0  0  3  0  0  0  0  0  0
  -16.5290  -29.8370   23.6870 C   0  0  0  0  0  3  0  0  0  0  0  0
  -16.7400  -28.5740   23.1040 C   0  0  0  0  0  3  0  0  0  0  0  0
  -25.9090  -32.5110   23.8480 C   0  0  0  0  0  3  0  0  0  0  0  0
  -26.4230  -31.7410   25.1270 C   0  0  1  0  0  0  0  0  0  0  0  0
  -25.3270  -31.5130   26.1920 C   0  0  0  0  0  1  0  0  0  0  0  0
  -27.0070  -30.3600   24.7490 C   0  0  0  0  0  1  0  0  0  0  0  0
  -27.5780  -32.5350   25.7850 C   0  0  0  0  0  1  0  0  0  0  0  0
  -25.6020  -33.9110   24.1790 N   0  0  0  0  0  0  0  0  0  0  0  0
  -25.9270  -34.9650   23.4200 C   0  0  0  0  0  0  0  0  0  0  0  0
  -26.5880  -34.8630   22.3820 O   0  0  0  0  0  0  0  0  0  0  0  0
  -25.0130  -34.0630   24.9850 H   0  0  0  0  0  0  0  0  0  0  0  0
  -24.1890  -36.7540   23.0860 C   0  0  0  0  0  1  0  0  0  0  0  0
  -25.4420  -36.3520   23.8820 C   0  0  0  0  0  3  0  0  0  0  0  0
  -27.5840  -37.2420   24.6870 C   0  0  0  0  0  1  0  0  0  0  0  0
  -26.4710  -37.4090   23.7580 N   0  0  0  0  0  0  0  0  0  0  0  0
  -26.0650  -38.3290   23.9120 H   0  0  0  0  0  0  0  0  0  0  0  0
  2  1  1  0
  3  1  2  0
  3 51  1  0
  4  6  1  0
  5  6  1  0
  5  2  2  0
  6  3  1  0
  9  7  1  6
  8  9  1  0
  9  2  1  0
  9 10  1  0
 11 19  1  0
 12 17  1  0
 13 14  1  0
 13 12  1  0
 15 14  1  0
 15 24  1  0
 15 16  1  0
 17 11  1  0
 17 16  1  0
 18 11  2  0
 19 10  1  0
 19 20  1  0
 21 22  2  0
 22 41  1  0
 23 22  1  0
 23 26  1  0
 24 21  1  0
 24 25  1  0
 25 23  2  0
 26 27  1  0
 27 28  2  0
 29 32  1  0
 29 28  1  0
 30 29  2  0
 31 30  1  0
 31 26  2  0
 32 33  1  0
 33 34  1  0
 34 35  2  0
 36 35  1  0
 36 40  1  0
 37 36  2  0
 38 33  2  0
 38 37  1  0
 39 38  1  0
 41 42  1  0
 42 45  1  0
 42 44  1  0
 43 41  2  0
 46 47  1  0
 46 21  1  0
 48 46  1  0
 51 49  1  1
 51 50  1  0
 52 53  1  0
 52 51  1  0
 54 65  2  0
 55 53  1  0
 55 60  1  0
 56 64  1  0
 56 66  1  0
 57 63  1  0
 57 59  1  0
 58 64  1  0
 59 60  2  0
 59 58  1  0
 61 55  2  0
 62 61  1  0
 62 57  2  0
 63 56  1  0
 64 54  1  0
 66 68  2  0
 67 66  1  0
 69 67  1  0
 70 79  2  0
 70 75  1  0
 71 67  1  0
 71 75  1  0
 72 71  1  0
 73 74  1  0
 73 72  1  0
 74 70  1  0
 75 76  2  0
 76 77  1  0
 78 77  2  0
 79 78  1  0
 80 54  1  0
 80 85  1  0
 80 81  1  0
 81 84  1  1
 81 82  1  0
 83 81  1  0
 85 88  1  0
 86 90  1  0
 86 85  1  0
 87 86  2  0
 90 89  1  0
 92 90  1  0
 92 93  1  0
 92 91  1  0
M  ISO  4  11 100  19 100  52 101  53 101
M  END
>  <TORSDO>  (28) 
F 20

>  <SCORE>  (28) 
-13.937

>  <name>  (28) 
29

>  <ligand_id>  (28) 
29

>  <original_smiles>  (28) 
[H]c1c([H])c([H])c2c(c1[H])C([H])([H])C([H])([H])C([H])([H])C2([H])N([H])C(=O)C1([H])N(C(=O)C([H])(N([H])C(=O)C([H])(N([H])C([H])([H])[H])C([H])([H])[H])C(C([H])([H])[H])(C([H])([H])[H])C([H])([H])[H])C([H])([H])c2c([H])c(OC([H])([H])C(c3c([H])c(C(C([H])([H])[H])(C([H])([H])[H])C([H])([H])N([H])C(=O)N4C([H])([H])C([H])([H])C([H])([H])C([H])(n5nc(-c6c([H])c([H])c(Oc7c([H])c([H])c(F)c([H])c7F)c([H])c6[H])c(C(=O)N([H])[H])c5N([H])[H])C4([H])[H])nn3C([H])([H])[H])(C([H])([H])[H])C([H])([H])[H])c([H])c([H])c2C1([H])[H]

>  <smiles>  (28) 
[H]c1c([H])c([H])c2c(c1[H])C([H])([H])C([H])([H])C([H])([H])C2([H])N([H])C(=O)C1([H])N(C(=O)C([H])(N([H])C(=O)C([H])(N([H])C([H])([H])[H])C([H])([H])[H])C(C([H])([H])[H])(C([H])([H])[H])C([H])([H])[H])C([H])([H])c2c([H])c(OC([H])([H])C(c3c([H])c(C(C([H])([H])[H])(C([H])([H])[H])C([H])([H])N([H])C(=O)N4C([H])([H])C([H])([H])C([H])([H])C([H])(n5nc(-c6c([H])c([H])c(Oc7c([H])c([H])c(F)c([H])c7F)c([H])c6[H])c(C(=O)N([H])[H])c5N([H])[H])C4([H])[H])nn3C([H])([H])[H])(C([H])([H])[H])C([H])([H])[H])c([H])c([H])c2C1([H])[H]

$$$$
30:0:0
     RDKit          3D

100108  0  0  1  0  0  0  0  0999 V2000
  -29.4490  -21.1390   20.1650 C   0  0  0  0  0  0  0  0  0  0  0  0
  -30.0700  -19.0960   19.6740 C   0  0  0  0  0  3  0  0  0  0  0  0
  -29.7780  -19.9060   20.7380 N   0  0  0  0  0  0  0  0  0  0  0  0
  -29.4830  -21.1070   18.8460 N   0  0  0  0  0  2  0  0  0  0  0  0
  -29.9200  -19.8450   18.5390 N   0  0  0  0  0  0  0  0  0  0  0  0
  -30.1550  -20.7730   16.1870 C   0  0  0  0  0  1  0  0  0  0  0  0
  -30.1590  -19.5450   17.1210 C   0  0  0  0  0  2  0  0  0  0  0  0
  -29.0200  -22.4440   20.9160 C   0  0  0  0  0  3  0  0  0  0  0  0
  -28.9160  -23.8820   20.1680 C   0  0  0  0  0  3  0  0  0  0  0  0
  -26.9470  -24.8320   21.5020 C   0  0  0  0  0  1  0  0  0  0  0  0
  -28.3530  -25.1930   20.9500 C   0  0  1  0  0  0  0  0  0  0  0  0
  -29.1100  -24.9360   23.4790 C   0  0  0  0  0  1  0  0  0  0  0  0
  -29.3220  -25.5890   22.1020 C   0  0  0  0  0  2  0  0  0  0  0  0
  -28.3420  -26.4820   20.1640 O   0  0  0  0  0  0  0  0  0  0  0  0
  -24.6260  -31.9360   23.2320 C   0  0  0  0  0  0  0  0  0  0  0  0
  -27.2410  -27.3660   20.1770 C   0  0  0  0  0  0  0  0  0  0  0  0
  -23.4210  -30.5240   21.6060 C   0  0  0  0  0  3  0  0  0  0  0  0
  -24.8720  -28.9810   20.1700 C   0  0  0  0  0  0  0  0  0  0  0  0
  -25.9560  -30.8510   21.4070 C   0  0  0  0  0  2  0  0  0  0  0  0
  -26.0430  -29.4700   20.7650 C   0  0  0  0  0  0  0  0  0  0  0  0
  -27.2320  -28.6740   20.7630 C   0  0  0  0  0  3  0  0  0  0  0  0
  -26.0560  -26.9470   19.5370 C   0  0  0  0  0  3  0  0  0  0  0  0
  -24.8820  -27.7230   19.5470 C   0  0  0  0  0  3  0  0  0  0  0  0
  -23.6300  -29.8460   20.2270 C   0  0  0  0  0  2  0  0  0  0  0  0
  -24.6860  -31.1250   22.1340 N   0  0  0  0  0  0  0  0  0  0  0  0
  -23.5460  -32.2090   23.7770 O   0  0  0  0  0  0  0  0  0  0  0  0
  -22.7740  -29.5050   22.5750 C   0  0  0  0  0  0  0  0  0  0  0  0
  -21.4500  -29.3110   22.4580 N   0  0  0  0  0  0  0  0  0  0  0  0
  -23.4640  -28.8910   23.3940 O   0  0  0  0  0  0  0  0  0  0  0  0
  -20.9500  -29.8540   21.7670 H   0  0  0  0  0  0  0  0  0  0  0  0
  -18.0930  -28.0630   22.9760 C   0  0  0  0  0  0  0  0  0  0  0  0
  -20.6460  -28.3690   23.2390 C   0  0  0  0  0  3  0  0  0  0  0  0
  -20.7720  -26.9330   22.6790 C   0  0  0  0  0  2  0  0  0  0  0  0
  -19.6750  -26.5810   21.6680 C   0  0  0  0  0  2  0  0  0  0  0  0
  -18.2910  -26.7100   22.3130 C   0  0  0  0  0  2  0  0  0  0  0  0
  -19.1990  -28.8480   23.3960 C   0  0  0  0  0  0  0  0  0  0  0  0
  -18.9610  -30.1140   23.9750 C   0  0  0  0  0  3  0  0  0  0  0  0
  -17.6480  -30.5950   24.1400 C   0  0  0  0  0  3  0  0  0  0  0  0
  -16.5550  -29.8080   23.7360 C   0  0  0  0  0  3  0  0  0  0  0  0
  -16.7780  -28.5440   23.1610 C   0  0  0  0  0  3  0  0  0  0  0  0
  -25.9100  -32.5830   23.8380 C   0  0  0  0  0  3  0  0  0  0  0  0
  -26.4480  -31.8220   25.1100 C   0  0  1  0  0  0  0  0  0  0  0  0
  -25.3710  -31.5720   26.1920 C   0  0  0  0  0  1  0  0  0  0  0  0
  -27.0470  -30.4490   24.7210 C   0  0  0  0  0  1  0  0  0  0  0  0
  -27.5960  -32.6330   25.7610 C   0  0  0  0  0  1  0  0  0  0  0  0
  -25.5910  -33.9810   24.1690 N   0  0  0  0  0  0  0  0  0  0  0  0
  -25.9050  -35.0360   23.4050 C   0  0  0  0  0  0  0  0  0  0  0  0
  -26.5660  -34.9390   22.3690 O   0  0  0  0  0  0  0  0  0  0  0  0
  -25.0030  -34.1310   24.9770 H   0  0  0  0  0  0  0  0  0  0  0  0
  -24.1610  -36.8170   23.0650 C   0  0  0  0  0  1  0  0  0  0  0  0
  -25.4100  -36.4200   23.8690 C   0  0  0  0  0  3  0  0  0  0  0  0
  -27.5400  -37.3240   24.6920 C   0  0  0  0  0  1  0  0  0  0  0  0
  -26.4330  -37.4820   23.7510 N   0  0  0  0  0  0  0  0  0  0  0  0
  -26.0200  -38.3980   23.9030 H   0  0  0  0  0  0  0  0  0  0  0  0
  -30.7540  -17.6330   19.6620 C   0  0  1  0  0  0  0  0  0  0  0  0
  -32.3110  -17.8510   19.8440 C   0  0  2  0  0  0  0  0  0  0  0  0
  -32.7060  -17.6580   21.0980 F   0  0  0  0  0  0  0  0  0  0  0  0
  -32.6730  -19.0930   19.5120 F   0  0  0  0  0  0  0  0  0  0  0  0
  -33.0420  -17.0540   19.0590 F   0  0  0  0  0  0  0  0  0  0  0  0
  -28.5750  -16.4390   20.2090 C   0  0  0  0  0  1  0  0  0  0  0  0
  -30.2400  -16.5250   22.0090 C   0  0  0  0  0  1  0  0  0  0  0  0
  -30.0920  -16.3480   20.4800 C   0  0  2  0  0  0  0  0  0  0  0  0
  -30.7110  -14.8670   20.1560 C   0  0  0  0  0  0  0  0  0  0  0  0
  -30.4370  -12.6050   19.1230 C   0  0  0  0  0  2  0  0  0  0  0  0
  -29.4580  -12.6700   17.9300 C   0  0  0  0  0  2  0  0  0  0  0  0
  -28.0090  -12.4480   18.4030 C   0  0  0  0  0  2  0  0  0  0  0  0
  -27.6650  -13.3270   19.6280 C   0  0  0  0  0  3  0  0  0  0  0  0
  -28.7690  -13.2680   20.7170 C   0  0  0  0  0  2  0  0  0  0  0  0
  -30.0380  -13.6600   20.0910 N   0  0  0  0  0  0  0  0  0  0  0  0
  -31.8870  -14.8560   19.7950 O   0  0  0  0  0  0  0  0  0  0  0  0
  -25.3000  -13.9320   20.4280 C   0  0  0  0  0  0  0  0  0  0  0  0
  -24.2510  -13.1560   20.8270 C   0  0  0  0  0  0  0  0  0  0  0  0
  -24.7210  -11.8070   20.7810 C   0  0  0  0  0  0  0  0  0  0  0  0
  -26.3400  -13.0510   20.1620 N   0  0  0  0  0  0  0  0  0  0  0  0
  -26.0010  -11.7710   20.4420 N   0  0  0  0  0  0  0  0  0  0  0  0
  -24.0070  -10.5430   20.9740 C   0  0  0  0  0  0  0  0  0  0  0  0
  -24.4530   -9.5800   21.9080 C   0  0  0  0  0  3  0  0  0  0  0  0
  -23.7380   -8.3770   22.0850 C   0  0  0  0  0  3  0  0  0  0  0  0
  -22.5650   -8.1310   21.3320 C   0  0  0  0  0  0  0  0  0  0  0  0
  -22.1410   -9.0840   20.3900 C   0  0  0  0  0  3  0  0  0  0  0  0
  -22.8580  -10.2790   20.2090 C   0  0  0  0  0  3  0  0  0  0  0  0
  -21.8170   -6.9830   21.4240 O   0  0  0  0  0  0  0  0  0  0  0  0
  -21.7560   -6.2620   22.5870 C   0  0  0  0  0  0  0  0  0  0  0  0
  -21.2840   -6.8250   23.7920 C   0  0  0  0  0  3  0  0  0  0  0  0
  -21.1710   -6.0270   24.9460 C   0  0  0  0  0  3  0  0  0  0  0  0
  -21.5220   -4.6640   24.8990 C   0  0  0  0  0  0  0  0  0  0  0  0
  -21.9890   -4.0990   23.6970 C   0  0  0  0  0  3  0  0  0  0  0  0
  -22.1020   -4.8960   22.5440 C   0  0  0  0  0  0  0  0  0  0  0  0
  -22.5330   -4.3420   21.3850 F   0  0  0  0  0  0  0  0  0  0  0  0
  -21.4050   -3.8930   26.0050 F   0  0  0  0  0  0  0  0  0  0  0  0
  -22.8610  -13.6270   21.1370 C   0  0  0  0  0  0  0  0  0  0  0  0
  -22.1590  -12.9220   22.0150 N   0  0  0  0  0  0  0  0  0  0  0  0
  -22.4100  -14.6600   20.6390 O   0  0  0  0  0  0  0  0  0  0  0  0
  -22.5390  -12.0840   22.4320 H   0  0  0  0  0  0  0  0  0  0  0  0
  -21.2280  -13.2200   22.2720 H   0  0  0  0  0  0  0  0  0  0  0  0
  -25.4360  -15.3050   20.2440 N   0  0  0  0  0  0  0  0  0  0  0  0
  -24.6660  -15.9440   20.4190 H   0  0  0  0  0  0  0  0  0  0  0  0
  -26.2530  -15.7670   19.8700 H   0  0  0  0  0  0  0  0  0  0  0  0
  -30.6640  -17.0800   18.3510 O   0  0  0  0  0  0  0  0  0  0  0  0
  -31.3630  -16.4290   18.3120 H   0  0  0  0  0  0  0  0  0  0  0  0
  1  3  2  0
  1  8  1  0
  2 55  1  0
  2  3  1  0
  4  1  1  0
  5  4  1  0
  5  2  1  0
  6  7  1  0
  7  5  1  0
  9  8  2  0
  9 11  1  0
 11 10  1  1
 11 13  1  0
 13 12  1  0
 14 16  1  0
 14 11  1  0
 15 26  2  0
 16 21  1  0
 17 25  1  0
 17 27  1  0
 18 24  1  0
 18 20  1  0
 19 25  1  0
 20 19  1  0
 21 20  2  0
 22 23  1  0
 22 16  2  0
 23 18  2  0
 24 17  1  0
 25 15  1  0
 27 29  2  0
 28 27  1  0
 30 28  1  0
 31 40  2  0
 31 36  1  0
 32 28  1  0
 32 36  1  0
 33 32  1  0
 34 35  1  0
 34 33  1  0
 35 31  1  0
 36 37  2  0
 37 38  1  0
 39 38  2  0
 40 39  1  0
 41 15  1  0
 41 46  1  0
 41 42  1  0
 42 45  1  1
 42 43  1  0
 44 42  1  0
 46 49  1  0
 47 51  1  0
 47 46  1  0
 48 47  2  0
 51 50  1  0
 53 51  1  0
 53 54  1  0
 53 52  1  0
 55 99  1  6
 55 56  1  0
 55 62  1  0
 56 57  1  1
 58 56  1  0
 59 56  1  0
 62 60  1  1
 62 61  1  0
 63 62  1  0
 64 69  1  0
 65 66  1  0
 65 64  1  0
 67 66  1  0
 67 74  1  0
 67 68  1  0
 69 63  1  0
 69 68  1  0
 70 63  2  0
 71 72  2  0
 72 91  1  0
 73 72  1  0
 73 76  1  0
 74 71  1  0
 74 75  1  0
 75 73  2  0
 76 77  1  0
 77 78  2  0
 79 82  1  0
 79 78  1  0
 80 79  2  0
 81 80  1  0
 81 76  2  0
 82 83  1  0
 83 84  1  0
 84 85  2  0
 86 85  1  0
 86 90  1  0
 87 86  2  0
 88 83  2  0
 88 87  1  0
 89 88  1  0
 91 92  1  0
 92 95  1  0
 92 94  1  0
 93 91  2  0
 96 97  1  0
 96 71  1  0
 98 96  1  0
100 99  1  0
M  ISO  4  11 101  14 101  62 100  63 100
M  END
>  <TORSDO>  (29) 
F 25

>  <SCORE>  (29) 
-12.946

>  <name>  (29) 
30

>  <ligand_id>  (29) 
30

>  <original_smiles>  (29) 
[H]OC(c1nc(C([H])([H])C([H])([H])C(Oc2c([H])c([H])c3c(c2[H])C([H])([H])N(C(=O)C([H])(N([H])C(=O)C([H])(N([H])C([H])([H])[H])C([H])([H])[H])C(C([H])([H])[H])(C([H])([H])[H])C([H])([H])[H])C([H])(C(=O)N([H])C2([H])c4c([H])c([H])c([H])c([H])c4C([H])([H])C([H])([H])C2([H])[H])C3([H])[H])(C([H])([H])[H])C([H])([H])C([H])([H])[H])nn1C([H])([H])C([H])([H])[H])(C(F)(F)F)C(C(=O)N1C([H])([H])C([H])([H])C([H])([H])C([H])(n2nc(-c3c([H])c([H])c(Oc4c([H])c([H])c(F)c([H])c4F)c([H])c3[H])c(C(=O)N([H])[H])c2N([H])[H])C1([H])[H])(C([H])([H])[H])C([H])([H])[H]

>  <smiles>  (29) 
[H]OC(c1nc(C([H])([H])C([H])([H])C(Oc2c([H])c([H])c3c(c2[H])C([H])([H])N(C(=O)C([H])(N([H])C(=O)C([H])(N([H])C([H])([H])[H])C([H])([H])[H])C(C([H])([H])[H])(C([H])([H])[H])C([H])([H])[H])C([H])(C(=O)N([H])C2([H])c4c([H])c([H])c([H])c([H])c4C([H])([H])C([H])([H])C2([H])[H])C3([H])[H])(C([H])([H])[H])C([H])([H])C([H])([H])[H])nn1C([H])([H])C([H])([H])[H])(C(F)(F)F)C(C(=O)N1C([H])([H])C([H])([H])C([H])([H])C([H])(n2nc(-c3c([H])c([H])c(Oc4c([H])c([H])c(F)c([H])c4F)c([H])c3[H])c(C(=O)N([H])[H])c2N([H])[H])C1([H])[H])(C([H])([H])[H])C([H])([H])[H]

$$$$
31:0:0
     RDKit          3D

 89 97  0  0  1  0  0  0  0  0999 V2000
  -29.4540  -19.8040   21.3400 C   0  0  0  0  0  3  0  0  0  0  0  0
  -29.1460  -21.2150   21.4080 C   0  0  0  0  0  0  0  0  0  0  0  0
  -29.7350  -19.1600   20.0960 C   0  0  0  0  0  0  0  0  0  0  0  0
  -29.1290  -22.0390   20.2340 C   0  0  0  0  0  0  0  0  0  0  0  0
  -29.6550  -20.0060   19.0040 N   0  0  0  0  0  0  0  0  0  0  0  0
  -29.3800  -21.3540   19.0630 N   0  0  0  0  0  0  0  0  0  0  0  0
  -28.9500  -21.7870   22.6220 F   0  0  0  0  0  0  0  0  0  0  0  0
  -29.2000  -23.6790   20.2900 C   0  0  0  0  0  3  0  0  0  0  0  0
  -28.0430  -24.8190   19.9650 C   0  0  0  0  0  3  0  0  0  0  0  0
  -28.2910  -26.3350   20.1230 O   0  0  0  0  0  0  0  0  0  0  0  0
  -24.6600  -31.9080   23.1990 C   0  0  0  0  0  0  0  0  0  0  0  0
  -27.2150  -27.2780   20.0810 C   0  0  0  0  0  0  0  0  0  0  0  0
  -23.4410  -30.5210   21.5650 C   0  0  0  0  0  3  0  0  0  0  0  0
  -24.8740  -28.9790   20.1010 C   0  0  0  0  0  0  0  0  0  0  0  0
  -25.9880  -30.8150   21.3620 C   0  0  0  0  0  2  0  0  0  0  0  0
  -26.0580  -29.4350   20.6940 C   0  0  0  0  0  0  0  0  0  0  0  0
  -27.2310  -28.6000   20.6690 C   0  0  0  0  0  3  0  0  0  0  0  0
  -26.0050  -26.9110   19.4540 C   0  0  0  0  0  3  0  0  0  0  0  0
  -24.8560  -27.7280   19.4660 C   0  0  0  0  0  3  0  0  0  0  0  0
  -23.6460  -29.8700   20.1720 C   0  0  0  0  0  2  0  0  0  0  0  0
  -24.7160  -31.1010   22.0960 N   0  0  0  0  0  0  0  0  0  0  0  0
  -23.5810  -32.1790   23.7490 O   0  0  0  0  0  0  0  0  0  0  0  0
  -22.7900  -29.4930   22.5250 C   0  0  0  0  0  0  0  0  0  0  0  0
  -21.4630  -29.3060   22.4110 N   0  0  0  0  0  0  0  0  0  0  0  0
  -23.4800  -28.8700   23.3350 O   0  0  0  0  0  0  0  0  0  0  0  0
  -20.9640  -29.8630   21.7320 H   0  0  0  0  0  0  0  0  0  0  0  0
  -18.1020  -28.0670   22.9420 C   0  0  0  0  0  0  0  0  0  0  0  0
  -20.6600  -28.3560   23.1860 C   0  0  0  0  0  3  0  0  0  0  0  0
  -20.7730  -26.9280   22.6040 C   0  0  0  0  0  2  0  0  0  0  0  0
  -19.6640  -26.5960   21.6000 C   0  0  0  0  0  2  0  0  0  0  0  0
  -18.2860  -26.7240   22.2570 C   0  0  0  0  0  2  0  0  0  0  0  0
  -19.2160  -28.8400   23.3640 C   0  0  0  0  0  0  0  0  0  0  0  0
  -18.9870  -30.0970   23.9660 C   0  0  0  0  0  3  0  0  0  0  0  0
  -17.6780  -30.5800   24.1490 C   0  0  0  0  0  3  0  0  0  0  0  0
  -16.5790  -29.8040   23.7410 C   0  0  0  0  0  3  0  0  0  0  0  0
  -16.7920  -28.5510   23.1430 C   0  0  0  0  0  3  0  0  0  0  0  0
  -25.9470  -32.5420   23.8090 C   0  0  0  0  0  3  0  0  0  0  0  0
  -26.4800  -31.7640   25.0760 C   0  0  1  0  0  0  0  0  0  0  0  0
  -25.3970  -31.5090   26.1510 C   0  0  0  0  0  1  0  0  0  0  0  0
  -27.0720  -30.3940   24.6710 C   0  0  0  0  0  1  0  0  0  0  0  0
  -27.6280  -32.5630   25.7350 C   0  0  0  0  0  1  0  0  0  0  0  0
  -25.6340  -33.9360   24.1600 N   0  0  0  0  0  0  0  0  0  0  0  0
  -25.9320  -34.9990   23.4010 C   0  0  0  0  0  0  0  0  0  0  0  0
  -26.5680  -34.9090   22.3480 O   0  0  0  0  0  0  0  0  0  0  0  0
  -25.0700  -34.0790   24.9840 H   0  0  0  0  0  0  0  0  0  0  0  0
  -24.1760  -36.7790   23.1230 C   0  0  0  0  0  1  0  0  0  0  0  0
  -25.4490  -36.3800   23.8860 C   0  0  0  0  0  3  0  0  0  0  0  0
  -27.5990  -37.2860   24.6500 C   0  0  0  0  0  1  0  0  0  0  0  0
  -26.4660  -37.4450   23.7420 N   0  0  0  0  0  0  0  0  0  0  0  0
  -26.0560  -38.3600   23.9050 H   0  0  0  0  0  0  0  0  0  0  0  0
  -30.3960  -17.6630   19.8730 C   0  0  0  0  0  2  0  0  0  0  0  0
  -30.6360  -15.0140   20.0520 C   0  0  0  0  0  0  0  0  0  0  0  0
  -30.4120  -12.7270   18.9770 C   0  0  0  0  0  2  0  0  0  0  0  0
  -29.4130  -12.7920   17.7970 C   0  0  0  0  0  2  0  0  0  0  0  0
  -27.9660  -12.5880   18.2880 C   0  0  0  0  0  2  0  0  0  0  0  0
  -27.6520  -13.4280   19.5540 C   0  0  0  0  0  3  0  0  0  0  0  0
  -28.7690  -13.2850   20.6090 C   0  0  0  0  0  2  0  0  0  0  0  0
  -30.0070  -13.7650   19.9730 N   0  0  0  0  0  0  0  0  0  0  0  0
  -31.7890  -15.0690   19.6040 O   0  0  0  0  0  0  0  0  0  0  0  0
  -28.9190  -16.2920   21.3870 C   0  0  0  0  0  1  0  0  0  0  0  0
  -29.9430  -16.2340   20.3420 N   0  0  0  0  0  0  0  0  0  0  0  0
  -25.3050  -14.0020   20.4050 C   0  0  0  0  0  0  0  0  0  0  0  0
  -24.2610  -13.2220   20.8180 C   0  0  0  0  0  0  0  0  0  0  0  0
  -24.7190  -11.8720   20.7320 C   0  0  0  0  0  0  0  0  0  0  0  0
  -26.3350  -13.1270   20.1000 N   0  0  0  0  0  0  0  0  0  0  0  0
  -25.9920  -11.8380   20.3580 N   0  0  0  0  0  0  0  0  0  0  0  0
  -23.9960  -10.6090   20.9270 C   0  0  0  0  0  0  0  0  0  0  0  0
  -24.4270   -9.6490   21.8680 C   0  0  0  0  0  3  0  0  0  0  0  0
  -23.7020   -8.4520   22.0530 C   0  0  0  0  0  3  0  0  0  0  0  0
  -22.5330   -8.2070   21.2960 C   0  0  0  0  0  0  0  0  0  0  0  0
  -22.1210   -9.1560   20.3440 C   0  0  0  0  0  3  0  0  0  0  0  0
  -22.8470  -10.3430   20.1570 C   0  0  0  0  0  3  0  0  0  0  0  0
  -21.7770   -7.0630   21.3890 O   0  0  0  0  0  0  0  0  0  0  0  0
  -21.6660   -6.3700   22.5680 C   0  0  0  0  0  0  0  0  0  0  0  0
  -21.1500   -6.9670   23.7390 C   0  0  0  0  0  3  0  0  0  0  0  0
  -20.9880   -6.1990   24.9090 C   0  0  0  0  0  3  0  0  0  0  0  0
  -21.3310   -4.8330   24.9080 C   0  0  0  0  0  0  0  0  0  0  0  0
  -21.8400   -4.2350   23.7420 C   0  0  0  0  0  3  0  0  0  0  0  0
  -22.0040   -5.0010   22.5750 C   0  0  0  0  0  0  0  0  0  0  0  0
  -22.4740   -4.4150   21.4480 F   0  0  0  0  0  0  0  0  0  0  0  0
  -21.1680   -4.0930   26.0290 F   0  0  0  0  0  0  0  0  0  0  0  0
  -22.8820  -13.7000   21.1700 C   0  0  0  0  0  0  0  0  0  0  0  0
  -22.1980  -12.9910   22.0610 N   0  0  0  0  0  0  0  0  0  0  0  0
  -22.4240  -14.7370   20.6920 O   0  0  0  0  0  0  0  0  0  0  0  0
  -22.5810  -12.1490   22.4630 H   0  0  0  0  0  0  0  0  0  0  0  0
  -21.2760  -13.2940   22.3440 H   0  0  0  0  0  0  0  0  0  0  0  0
  -25.4460  -15.3770   20.2390 N   0  0  0  0  0  0  0  0  0  0  0  0
  -24.6730  -16.0090   20.4170 H   0  0  0  0  0  0  0  0  0  0  0  0
  -26.2370  -15.8350   19.8060 H   0  0  0  0  0  0  0  0  0  0  0  0
  1  2  1  0
  2  7  1  0
  3  1  2  0
  4  8  1  0
  4  2  2  0
  5  6  2  0
  5  3  1  0
  6  4  1  0
  9 10  1  0
  9  8  2  0
 11 22  2  0
 12 10  1  0
 12 17  1  0
 13 21  1  0
 13 23  1  0
 14 20  1  0
 14 16  1  0
 15 21  1  0
 16 15  1  0
 17 16  2  0
 18 19  1  0
 18 12  2  0
 19 14  2  0
 20 13  1  0
 21 11  1  0
 23 25  2  0
 24 23  1  0
 26 24  1  0
 27 36  2  0
 27 32  1  0
 28 24  1  0
 28 32  1  0
 29 28  1  0
 30 31  1  0
 30 29  1  0
 31 27  1  0
 32 33  2  0
 33 34  1  0
 35 34  2  0
 36 35  1  0
 37 11  1  0
 37 42  1  0
 37 38  1  0
 38 41  1  1
 38 39  1  0
 40 38  1  0
 42 45  1  0
 43 47  1  0
 43 42  1  0
 44 43  2  0
 47 46  1  0
 49 47  1  0
 49 50  1  0
 49 48  1  0
 51  3  1  0
 51 61  1  0
 52 61  1  0
 53 58  1  0
 54 55  1  0
 54 53  1  0
 56 55  1  0
 56 65  1  0
 56 57  1  0
 58 52  1  0
 58 57  1  0
 59 52  2  0
 61 60  1  0
 62 63  2  0
 63 82  1  0
 64 63  1  0
 64 67  1  0
 65 66  1  0
 65 62  1  0
 66 64  2  0
 67 68  1  0
 68 69  2  0
 70 73  1  0
 70 69  1  0
 71 70  2  0
 72 71  1  0
 72 67  2  0
 73 74  1  0
 74 79  2  0
 74 75  1  0
 75 76  2  0
 77 76  1  0
 77 81  1  0
 78 77  2  0
 79 78  1  0
 80 79  1  0
 82 83  1  0
 83 86  1  0
 83 85  1  0
 84 82  2  0
 87 62  1  0
 87 88  1  0
 89 87  1  0
M  ISO  4   9 101  10 101  52 100  61 100
M  END
>  <TORSDO>  (30) 
F 19

>  <SCORE>  (30) 
-13.663

>  <name>  (30) 
31

>  <ligand_id>  (30) 
31

>  <original_smiles>  (30) 
[H]c1c([H])c([H])c2c(c1[H])C([H])([H])C([H])([H])C([H])([H])C2([H])N([H])C(=O)C1([H])N(C(=O)C([H])(N([H])C(=O)C([H])(N([H])C([H])([H])[H])C([H])([H])[H])C(C([H])([H])[H])(C([H])([H])[H])C([H])([H])[H])C([H])([H])c2c([H])c(OC([H])([H])C([H])([H])c3nnc(C([H])([H])N(C(=O)N4C([H])([H])C([H])([H])C([H])([H])C([H])(n5nc(-c6c([H])c([H])c(Oc7c([H])c([H])c(F)c([H])c7F)c([H])c6[H])c(C(=O)N([H])[H])c5N([H])[H])C4([H])[H])C([H])([H])[H])c([H])c3F)c([H])c([H])c2C1([H])[H]

>  <smiles>  (30) 
[H]c1c([H])c([H])c2c(c1[H])C([H])([H])C([H])([H])C([H])([H])C2([H])N([H])C(=O)C1([H])N(C(=O)C([H])(N([H])C(=O)C([H])(N([H])C([H])([H])[H])C([H])([H])[H])C(C([H])([H])[H])(C([H])([H])[H])C([H])([H])[H])C([H])([H])c2c([H])c(OC([H])([H])C([H])([H])c3nnc(C([H])([H])N(C(=O)N4C([H])([H])C([H])([H])C([H])([H])C([H])(n5nc(-c6c([H])c([H])c(Oc7c([H])c([H])c(F)c([H])c7F)c([H])c6[H])c(C(=O)N([H])[H])c5N([H])[H])C4([H])[H])C([H])([H])[H])c([H])c3F)c([H])c([H])c2C1([H])[H]

$$$$
32:0:0
     RDKit          3D

 93101  0  0  1  0  0  0  0  0999 V2000
  -27.9870  -20.2910   20.4220 C   0  0  0  0  0  3  0  0  0  0  0  0
  -29.1510  -20.9720   20.6540 C   0  0  0  0  0  0  0  0  0  0  0  0
  -29.5970  -18.6970   20.3070 C   0  0  0  0  0  3  0  0  0  0  0  0
  -28.2670  -18.9480   20.1960 N   0  0  0  0  0  0  0  0  0  0  0  0
  -30.1110  -19.9400   20.5880 N   0  0  0  0  0  0  0  0  0  0  0  0
  -31.1030  -20.0970   20.7180 H   0  0  0  0  0  0  0  0  0  0  0  0
  -30.4280  -17.2270   18.3960 C   0  0  0  0  0  1  0  0  0  0  0  0
  -30.4400  -17.3830   19.9320 C   0  0  0  0  0  3  0  0  0  0  0  0
  -30.9150  -14.8410   20.2050 C   0  0  0  0  0  0  0  0  0  0  0  0
  -30.6060  -12.6330   19.0470 C   0  0  0  0  0  2  0  0  0  0  0  0
  -29.6220  -12.7770   17.8650 C   0  0  0  0  0  2  0  0  0  0  0  0
  -28.1690  -12.6030   18.3470 C   0  0  0  0  0  2  0  0  0  0  0  0
  -27.8640  -13.4250   19.6270 C   0  0  0  0  0  3  0  0  0  0  0  0
  -28.9640  -13.2620   20.6960 C   0  0  0  0  0  2  0  0  0  0  0  0
  -30.2370  -13.6420   20.0740 N   0  0  0  0  0  0  0  0  0  0  0  0
  -32.0580  -14.9220   19.7380 O   0  0  0  0  0  0  0  0  0  0  0  0
  -30.1450  -16.1510   22.0780 C   0  0  0  0  0  1  0  0  0  0  0  0
  -30.2430  -16.0060   20.6190 N   0  0  0  0  0  0  0  0  0  0  0  0
  -25.5090  -14.0020   20.4460 C   0  0  0  0  0  0  0  0  0  0  0  0
  -24.4530  -13.2360   20.8470 C   0  0  0  0  0  0  0  0  0  0  0  0
  -24.9040  -11.8860   20.7700 C   0  0  0  0  0  0  0  0  0  0  0  0
  -26.5390  -13.1270   20.1590 N   0  0  0  0  0  0  0  0  0  0  0  0
  -26.1830  -11.8430   20.4130 N   0  0  0  0  0  0  0  0  0  0  0  0
  -24.1720  -10.6290   20.9560 C   0  0  0  0  0  0  0  0  0  0  0  0
  -24.5900   -9.6650   21.8980 C   0  0  0  0  0  3  0  0  0  0  0  0
  -23.8580   -8.4710   22.0720 C   0  0  0  0  0  3  0  0  0  0  0  0
  -22.6930   -8.2340   21.3030 C   0  0  0  0  0  0  0  0  0  0  0  0
  -22.2940   -9.1890   20.3510 C   0  0  0  0  0  3  0  0  0  0  0  0
  -23.0280  -10.3740   20.1740 C   0  0  0  0  0  3  0  0  0  0  0  0
  -21.9350   -7.0920   21.3860 O   0  0  0  0  0  0  0  0  0  0  0  0
  -21.8080   -6.3980   22.5620 C   0  0  0  0  0  0  0  0  0  0  0  0
  -21.3070   -7.0040   23.7350 C   0  0  0  0  0  3  0  0  0  0  0  0
  -21.1280   -6.2340   24.9030 C   0  0  0  0  0  3  0  0  0  0  0  0
  -21.4400   -4.8620   24.8970 C   0  0  0  0  0  0  0  0  0  0  0  0
  -21.9360   -4.2560   23.7290 C   0  0  0  0  0  3  0  0  0  0  0  0
  -22.1160   -5.0230   22.5640 C   0  0  0  0  0  0  0  0  0  0  0  0
  -22.5730   -4.4300   21.4350 F   0  0  0  0  0  0  0  0  0  0  0  0
  -21.2600   -4.1210   26.0160 F   0  0  0  0  0  0  0  0  0  0  0  0
  -23.0730  -13.7270   21.1760 C   0  0  0  0  0  0  0  0  0  0  0  0
  -22.3720  -13.0310   22.0630 N   0  0  0  0  0  0  0  0  0  0  0  0
  -22.6280  -14.7630   20.6850 O   0  0  0  0  0  0  0  0  0  0  0  0
  -22.7440  -12.1940   22.4840 H   0  0  0  0  0  0  0  0  0  0  0  0
  -21.4480  -13.3430   22.3250 H   0  0  0  0  0  0  0  0  0  0  0  0
  -25.6720  -15.3640   20.2700 N   0  0  0  0  0  0  0  0  0  0  0  0
  -24.8760  -15.9890   20.3230 H   0  0  0  0  0  0  0  0  0  0  0  0
  -26.4680  -15.7610   19.7950 H   0  0  0  0  0  0  0  0  0  0  0  0
  -29.3670  -22.4830   21.0560 C   0  0  0  0  0  2  0  0  0  0  0  0
  -28.6580  -23.7190   20.2760 C   0  0  0  0  0  2  0  0  0  0  0  0
  -28.4480  -25.1340   21.0450 C   0  0  0  0  0  2  0  0  0  0  0  0
  -28.4590  -26.4790   20.3890 O   0  0  0  0  0  0  0  0  0  0  0  0
  -24.5650  -31.9020   23.2730 C   0  0  0  0  0  0  0  0  0  0  0  0
  -27.3160  -27.3020   20.3900 C   0  0  0  0  0  0  0  0  0  0  0  0
  -23.4210  -30.4600   21.6250 C   0  0  0  0  0  3  0  0  0  0  0  0
  -24.9300  -28.8890   20.2760 C   0  0  0  0  0  0  0  0  0  0  0  0
  -25.9600  -30.8040   21.5010 C   0  0  0  0  0  2  0  0  0  0  0  0
  -26.0760  -29.4090   20.8910 C   0  0  0  0  0  0  0  0  0  0  0  0
  -27.2740  -28.6290   20.9310 C   0  0  0  0  0  3  0  0  0  0  0  0
  -26.1470  -26.8320   19.7580 C   0  0  0  0  0  3  0  0  0  0  0  0
  -24.9680  -27.6060   19.7000 C   0  0  0  0  0  3  0  0  0  0  0  0
  -23.6830  -29.7540   20.2670 C   0  0  0  0  0  2  0  0  0  0  0  0
  -24.6670  -31.0750   22.1900 N   0  0  0  0  0  0  0  0  0  0  0  0
  -23.4630  -32.1740   23.7740 O   0  0  0  0  0  0  0  0  0  0  0  0
  -22.7430  -29.4550   22.5880 C   0  0  0  0  0  0  0  0  0  0  0  0
  -21.4190  -29.2730   22.4410 N   0  0  0  0  0  0  0  0  0  0  0  0
  -23.4070  -28.8420   23.4270 O   0  0  0  0  0  0  0  0  0  0  0  0
  -20.9410  -29.8200   21.7390 H   0  0  0  0  0  0  0  0  0  0  0  0
  -18.0320  -28.1010   22.9270 C   0  0  0  0  0  0  0  0  0  0  0  0
  -20.5900  -28.3410   23.2090 C   0  0  0  0  0  3  0  0  0  0  0  0
  -20.6850  -26.9090   22.6330 C   0  0  0  0  0  2  0  0  0  0  0  0
  -19.5840  -26.5950   21.6150 C   0  0  0  0  0  2  0  0  0  0  0  0
  -18.2010  -26.7500   22.2520 C   0  0  0  0  0  2  0  0  0  0  0  0
  -19.1540  -28.8540   23.3620 C   0  0  0  0  0  0  0  0  0  0  0  0
  -18.9410  -30.1190   23.9540 C   0  0  0  0  0  3  0  0  0  0  0  0
  -17.6390  -30.6290   24.1160 C   0  0  0  0  0  3  0  0  0  0  0  0
  -16.5310  -29.8720   23.6970 C   0  0  0  0  0  3  0  0  0  0  0  0
  -16.7280  -28.6090   23.1090 C   0  0  0  0  0  3  0  0  0  0  0  0
  -25.8220  -32.5620   23.9180 C   0  0  0  0  0  3  0  0  0  0  0  0
  -25.4840  -33.9610   24.2220 N   0  0  0  0  0  0  0  0  0  0  0  0
  -25.8200  -35.0090   23.4570 C   0  0  0  0  0  0  0  0  0  0  0  0
  -26.5140  -34.9010   22.4420 O   0  0  0  0  0  0  0  0  0  0  0  0
  -24.8700  -34.1180   25.0080 H   0  0  0  0  0  0  0  0  0  0  0  0
  -24.0750  -36.7740   23.0460 C   0  0  0  0  0  1  0  0  0  0  0  0
  -25.3060  -36.3970   23.8860 C   0  0  0  0  0  3  0  0  0  0  0  0
  -27.4110  -37.3230   24.7470 C   0  0  0  0  0  1  0  0  0  0  0  0
  -26.3260  -37.4620   23.7790 N   0  0  0  0  0  0  0  0  0  0  0  0
  -25.9040  -38.3790   23.9040 H   0  0  0  0  0  0  0  0  0  0  0  0
  -26.3160  -31.8170   25.2190 C   0  0  1  0  0  0  0  0  0  0  0  0
  -25.1970  -31.5680   26.2560 C   0  0  0  0  0  1  0  0  0  0  0  0
  -26.9400  -30.4480   24.8620 C   0  0  0  0  0  1  0  0  0  0  0  0
  -27.4280  -32.6440   25.9060 C   0  0  0  0  0  1  0  0  0  0  0  0
  -27.2670  -17.9180   19.8690 C   0  0  0  0  0  2  0  0  0  0  0  0
  -25.7780  -19.0660   18.0890 C   0  0  0  0  0  1  0  0  0  0  0  0
  -25.8640  -18.4600   19.4970 C   0  0  0  0  0  2  0  0  0  0  0  0
  1  2  2  0
  2 47  1  0
  3  8  1  0
  3  5  1  0
  4  3  1  0
  4  1  1  0
  5  2  1  0
  5  6  1  0
  8  7  1  0
  8 18  1  0
  9 18  1  0
 10 15  1  0
 11 12  1  0
 11 10  1  0
 13 12  1  0
 13 22  1  0
 13 14  1  0
 15  9  1  0
 15 14  1  0
 16  9  2  0
 18 17  1  0
 19 20  2  0
 20 39  1  0
 21 20  1  0
 21 24  1  0
 22 23  1  0
 22 19  1  0
 23 21  2  0
 24 25  1  0
 25 26  2  0
 27 30  1  0
 27 26  1  0
 28 27  2  0
 29 28  1  0
 29 24  2  0
 30 31  1  0
 31 36  2  0
 31 32  1  0
 32 33  2  0
 34 33  1  0
 34 38  1  0
 35 34  2  0
 36 35  1  0
 37 36  1  0
 39 40  1  0
 40 43  1  0
 40 42  1  0
 41 39  2  0
 44 45  1  0
 44 19  1  0
 46 44  1  0
 48 49  1  0
 48 47  1  0
 50 52  1  0
 50 49  1  0
 51 62  2  0
 52 57  1  0
 53 61  1  0
 53 63  1  0
 54 56  1  0
 55 61  1  0
 56 57  2  0
 56 55  1  0
 58 52  2  0
 59 58  1  0
 59 54  2  0
 60 54  1  0
 60 53  1  0
 61 51  1  0
 63 65  2  0
 64 63  1  0
 66 64  1  0
 67 76  2  0
 67 72  1  0
 68 64  1  0
 68 72  1  0
 69 68  1  0
 70 71  1  0
 70 69  1  0
 71 67  1  0
 72 73  2  0
 73 74  1  0
 75 74  2  0
 76 75  1  0
 77 51  1  0
 77 78  1  0
 77 87  1  0
 78 81  1  0
 79 83  1  0
 79 78  1  0
 80 79  2  0
 83 82  1  0
 85 83  1  0
 85 86  1  0
 85 84  1  0
 87 90  1  1
 87 88  1  0
 89 87  1  0
 91  4  1  0
 92 93  1  0
 93 91  1  0
M  ISO  4   9 100  18 100  49 101  50 101
M  END
>  <TORSDO>  (31) 
F 22

>  <SCORE>  (31) 
-11.933

>  <name>  (31) 
32

>  <ligand_id>  (31) 
32

>  <original_smiles>  (31) 
[H]c1c([H])c([H])c2c(c1[H])C([H])([H])C([H])([H])C([H])([H])C2([H])N([H])C(=O)C1([H])N(C(=O)C([H])(N([H])C(=O)C([H])(N([H])C([H])([H])[H])C([H])([H])[H])C(C([H])([H])[H])(C([H])([H])[H])C([H])([H])[H])C([H])([H])c2c([H])c(OC([H])([H])C([H])([H])C([H])([H])c3c([H])n(C([H])([H])C([H])([H])C([H])([H])[H])c(C([H])(N(C(=O)N4C([H])([H])C([H])([H])C([H])([H])C([H])(n5nc(-c6c([H])c([H])c(Oc7c([H])c([H])c(F)c([H])c7F)c([H])c6[H])c(C(=O)N([H])[H])c5N([H])[H])C4([H])[H])C([H])([H])[H])C([H])([H])[H])[n+]3[H])c([H])c([H])c2C1([H])[H]

>  <smiles>  (31) 
[H]c1c([H])c([H])c2c(c1[H])C([H])([H])C([H])([H])C([H])([H])C2([H])N([H])C(=O)C1([H])N(C(=O)C([H])(N([H])C(=O)C([H])(N([H])C([H])([H])[H])C([H])([H])[H])C(C([H])([H])[H])(C([H])([H])[H])C([H])([H])[H])C([H])([H])c2c([H])c(OC([H])([H])C([H])([H])C([H])([H])c3c([H])n(C([H])([H])C([H])([H])C([H])([H])[H])c(C([H])(N(C(=O)N4C([H])([H])C([H])([H])C([H])([H])C([H])(n5nc(-c6c([H])c([H])c(Oc7c([H])c([H])c(F)c([H])c7F)c([H])c6[H])c(C(=O)N([H])[H])c5N([H])[H])C4([H])[H])C([H])([H])[H])C([H])([H])[H])[n+]3[H])c([H])c([H])c2C1([H])[H]

$$$$
33:0:0
     RDKit          3D

 92100  0  0  1  0  0  0  0  0999 V2000
  -27.9590  -20.4390   18.7820 C   0  0  0  0  0  3  0  0  0  0  0  0
  -29.1010  -20.7170   19.5550 C   0  0  0  0  0  0  0  0  0  0  0  0
  -27.3270  -22.7060   18.5930 C   0  0  0  0  0  0  0  0  0  0  0  0
  -28.4080  -23.1870   19.4020 C   0  0  0  0  0  0  0  0  0  0  0  0
  -27.1100  -21.3890   18.3280 N   0  0  0  0  0  0  0  0  0  0  0  0
  -29.2850  -22.1240   19.8680 N   0  0  0  0  0  0  0  0  0  0  0  0
  -31.3700  -19.7910   20.4180 C   0  0  0  0  0  1  0  0  0  0  0  0
  -29.2540  -19.0640   21.5200 C   0  0  0  0  0  1  0  0  0  0  0  0
  -29.9130  -19.3670   20.1650 C   0  0  1  0  0  0  0  0  0  0  0  0
  -30.0330  -17.8390   19.3670 C   0  0  0  0  0  2  0  0  0  0  0  0
  -30.8280  -15.1600   19.7960 C   0  0  0  0  0  0  0  0  0  0  0  0
  -30.6880  -12.7510   18.9730 C   0  0  0  0  0  2  0  0  0  0  0  0
  -29.6990  -12.6570   17.7860 C   0  0  0  0  0  2  0  0  0  0  0  0
  -28.2590  -12.4560   18.2940 C   0  0  0  0  0  2  0  0  0  0  0  0
  -27.9080  -13.4180   19.4580 C   0  0  0  0  0  3  0  0  0  0  0  0
  -29.0160  -13.4760   20.5330 C   0  0  0  0  0  2  0  0  0  0  0  0
  -30.2530  -13.8820   19.8540 N   0  0  0  0  0  0  0  0  0  0  0  0
  -31.9920  -15.2110   19.3860 O   0  0  0  0  0  0  0  0  0  0  0  0
  -30.0550  -16.3550   19.9960 N   0  0  0  0  0  0  0  0  0  0  0  0
  -29.1780  -16.1350   20.4460 H   0  0  0  0  0  0  0  0  0  0  0  0
  -25.5930  -14.0340   20.3550 C   0  0  0  0  0  0  0  0  0  0  0  0
  -24.5300  -13.2760   20.7640 C   0  0  0  0  0  0  0  0  0  0  0  0
  -24.9540  -11.9150   20.6690 C   0  0  0  0  0  0  0  0  0  0  0  0
  -26.5940  -13.1360   20.0270 N   0  0  0  0  0  0  0  0  0  0  0  0
  -26.2230  -11.8540   20.2830 N   0  0  0  0  0  0  0  0  0  0  0  0
  -24.2040  -10.6670   20.8670 C   0  0  0  0  0  0  0  0  0  0  0  0
  -24.6020   -9.7070   21.8230 C   0  0  0  0  0  3  0  0  0  0  0  0
  -23.8520   -8.5250   22.0070 C   0  0  0  0  0  3  0  0  0  0  0  0
  -22.6910   -8.2930   21.2320 C   0  0  0  0  0  0  0  0  0  0  0  0
  -22.3120   -9.2400   20.2640 C   0  0  0  0  0  3  0  0  0  0  0  0
  -23.0620  -10.4140   20.0800 C   0  0  0  0  0  3  0  0  0  0  0  0
  -21.9140   -7.1630   21.3230 O   0  0  0  0  0  0  0  0  0  0  0  0
  -21.7440   -6.5020   22.5140 C   0  0  0  0  0  0  0  0  0  0  0  0
  -21.1670   -7.1290   23.6400 C   0  0  0  0  0  3  0  0  0  0  0  0
  -20.9470   -6.3920   24.8200 C   0  0  0  0  0  3  0  0  0  0  0  0
  -21.2940   -5.0290   24.8750 C   0  0  0  0  0  0  0  0  0  0  0  0
  -21.8620   -4.4020   23.7530 C   0  0  0  0  0  3  0  0  0  0  0  0
  -22.0840   -5.1370   22.5750 C   0  0  0  0  0  0  0  0  0  0  0  0
  -22.6140   -4.5200   21.4910 F   0  0  0  0  0  0  0  0  0  0  0  0
  -21.0760   -4.3190   26.0080 F   0  0  0  0  0  0  0  0  0  0  0  0
  -23.1640  -13.7820   21.1280 C   0  0  0  0  0  0  0  0  0  0  0  0
  -22.4750  -13.0960   22.0320 N   0  0  0  0  0  0  0  0  0  0  0  0
  -22.7180  -14.8210   20.6430 O   0  0  0  0  0  0  0  0  0  0  0  0
  -22.8490  -12.2540   22.4430 H   0  0  0  0  0  0  0  0  0  0  0  0
  -21.5620  -13.4200   22.3210 H   0  0  0  0  0  0  0  0  0  0  0  0
  -25.7830  -15.4050   20.2090 N   0  0  0  0  0  0  0  0  0  0  0  0
  -25.0390  -16.0720   20.3810 H   0  0  0  0  0  0  0  0  0  0  0  0
  -26.6060  -15.8310   19.8040 H   0  0  0  0  0  0  0  0  0  0  0  0
  -24.9160  -23.4640   18.1560 C   0  0  0  0  0  1  0  0  0  0  0  0
  -26.4000  -23.6000   17.7720 C   0  0  0  0  0  2  0  0  0  0  0  0
  -28.7810  -24.8330   19.2920 C   0  0  0  0  0  2  0  0  0  0  0  0
  -28.3100  -26.1910   19.9720 O   0  0  0  0  0  0  0  0  0  0  0  0
  -24.6580  -31.7880   23.0450 C   0  0  0  0  0  0  0  0  0  0  0  0
  -27.2450  -27.1680   19.8070 C   0  0  0  0  0  0  0  0  0  0  0  0
  -23.4470  -30.4290   21.3820 C   0  0  0  0  0  3  0  0  0  0  0  0
  -24.8910  -28.9140   19.8700 C   0  0  0  0  0  0  0  0  0  0  0  0
  -25.9950  -30.7210   21.1820 C   0  0  0  0  0  2  0  0  0  0  0  0
  -26.0740  -29.3500   20.4780 C   0  0  0  0  0  0  0  0  0  0  0  0
  -27.2400  -28.4890   20.4340 C   0  0  0  0  0  3  0  0  0  0  0  0
  -26.0310  -26.8430   19.1710 C   0  0  0  0  0  3  0  0  0  0  0  0
  -24.8850  -27.6780   19.2010 C   0  0  0  0  0  3  0  0  0  0  0  0
  -23.6520  -29.7950   19.9770 C   0  0  0  0  0  2  0  0  0  0  0  0
  -24.7220  -31.0020   21.9250 N   0  0  0  0  0  0  0  0  0  0  0  0
  -23.5780  -32.0440   23.6010 O   0  0  0  0  0  0  0  0  0  0  0  0
  -22.7960  -29.3880   22.3270 C   0  0  0  0  0  0  0  0  0  0  0  0
  -21.4660  -29.2180   22.2320 N   0  0  0  0  0  0  0  0  0  0  0  0
  -23.4910  -28.7370   23.1120 O   0  0  0  0  0  0  0  0  0  0  0  0
  -20.9610  -29.7970   21.5760 H   0  0  0  0  0  0  0  0  0  0  0  0
  -18.1050  -27.9730   22.7720 C   0  0  0  0  0  0  0  0  0  0  0  0
  -20.6670  -28.2480   22.9890 C   0  0  0  0  0  3  0  0  0  0  0  0
  -20.7660  -26.8370   22.3630 C   0  0  0  0  0  2  0  0  0  0  0  0
  -19.6430  -26.5390   21.3650 C   0  0  0  0  0  2  0  0  0  0  0  0
  -18.2760  -26.6500   22.0440 C   0  0  0  0  0  2  0  0  0  0  0  0
  -19.2270  -28.7300   23.2020 C   0  0  0  0  0  0  0  0  0  0  0  0
  -19.0100  -29.9660   23.8470 C   0  0  0  0  0  3  0  0  0  0  0  0
  -17.7060  -30.4470   24.0640 C   0  0  0  0  0  3  0  0  0  0  0  0
  -16.5990  -29.6870   23.6480 C   0  0  0  0  0  3  0  0  0  0  0  0
  -16.7990  -28.4510   23.0080 C   0  0  0  0  0  3  0  0  0  0  0  0
  -25.9390  -32.4240   23.6710 C   0  0  0  0  0  3  0  0  0  0  0  0
  -26.4840  -31.6200   24.9160 C   0  0  1  0  0  0  0  0  0  0  0  0
  -25.4090  -31.3380   25.9930 C   0  0  0  0  0  1  0  0  0  0  0  0
  -27.0770  -30.2620   24.4770 C   0  0  0  0  0  1  0  0  0  0  0  0
  -27.6320  -32.4100   25.5890 C   0  0  0  0  0  1  0  0  0  0  0  0
  -25.6110  -33.8060   24.0600 N   0  0  0  0  0  0  0  0  0  0  0  0
  -25.9230  -34.8970   23.3490 C   0  0  0  0  0  0  0  0  0  0  0  0
  -26.5830  -34.8470   22.3080 O   0  0  0  0  0  0  0  0  0  0  0  0
  -25.0230  -33.9170   24.8730 H   0  0  0  0  0  0  0  0  0  0  0  0
  -24.1860  -36.7000   23.0840 C   0  0  0  0  0  1  0  0  0  0  0  0
  -25.4290  -36.2590   23.8740 C   0  0  0  0  0  3  0  0  0  0  0  0
  -27.5500  -37.1250   24.7630 C   0  0  0  0  0  1  0  0  0  0  0  0
  -26.4550  -37.3230   23.8160 N   0  0  0  0  0  0  0  0  0  0  0  0
  -26.0410  -38.2330   23.9980 H   0  0  0  0  0  0  0  0  0  0  0  0
  1  2  1  0
  2  6  2  0
  2  9  1  0
  3  4  2  0
  4  6  1  0
  5  3  1  0
  5  1  2  0
  9  7  1  1
  9  8  1  0
 10 19  1  0
 10  9  1  0
 11 17  1  0
 11 19  1  0
 12 17  1  0
 13 14  1  0
 13 12  1  0
 15 14  1  0
 15 24  1  0
 15 16  1  0
 17 16  1  0
 18 11  2  0
 19 20  1  0
 21 22  2  0
 22 41  1  0
 23 22  1  0
 23 26  1  0
 24 25  1  0
 24 21  1  0
 25 23  2  0
 26 27  1  0
 27 28  2  0
 29 32  1  0
 29 28  1  0
 30 29  2  0
 31 30  1  0
 31 26  2  0
 32 33  1  0
 33 38  2  0
 33 34  1  0
 34 35  2  0
 35 36  1  0
 36 40  1  0
 37 36  2  0
 38 37  1  0
 39 38  1  0
 41 42  1  0
 42 45  1  0
 42 44  1  0
 43 41  2  0
 46 21  1  0
 46 47  1  0
 48 46  1  0
 50 49  1  0
 50  3  1  0
 51  4  1  0
 51 52  1  0
 53 64  2  0
 54 52  1  0
 54 59  1  0
 55 63  1  0
 55 65  1  0
 56 62  1  0
 56 58  1  0
 57 63  1  0
 58 57  1  0
 59 58  2  0
 60 61  1  0
 60 54  2  0
 61 56  2  0
 62 55  1  0
 63 53  1  0
 65 67  2  0
 66 65  1  0
 68 66  1  0
 69 78  2  0
 69 74  1  0
 70 66  1  0
 70 74  1  0
 71 70  1  0
 72 73  1  0
 72 71  1  0
 73 69  1  0
 74 75  2  0
 75 76  1  0
 77 76  2  0
 78 77  1  0
 79 53  1  0
 79 84  1  0
 79 80  1  0
 80 83  1  1
 80 81  1  0
 82 80  1  0
 84 87  1  0
 85 89  1  0
 85 84  1  0
 86 85  2  0
 89 88  1  0
 91 89  1  0
 91 92  1  0
 91 90  1  0
M  ISO  4  11 100  19 100  51 101  52 101
M  END
>  <TORSDO>  (32) 
F 20

>  <SCORE>  (32) 
-13.405

>  <name>  (32) 
33

>  <ligand_id>  (32) 
33

>  <original_smiles>  (32) 
[H]c1nc(C([H])([H])C([H])([H])[H])c(C([H])([H])Oc2c([H])c([H])c3c(c2[H])C([H])([H])N(C(=O)C([H])(N([H])C(=O)C([H])(N([H])C([H])([H])[H])C([H])([H])[H])C(C([H])([H])[H])(C([H])([H])[H])C([H])([H])[H])C([H])(C(=O)N([H])C2([H])c4c([H])c([H])c([H])c([H])c4C([H])([H])C([H])([H])C2([H])[H])C3([H])[H])nc1C(C([H])([H])[H])(C([H])([H])[H])C([H])([H])N([H])C(=O)N1C([H])([H])C([H])([H])C([H])([H])C([H])(n2nc(-c3c([H])c([H])c(Oc4c([H])c([H])c(F)c([H])c4F)c([H])c3[H])c(C(=O)N([H])[H])c2N([H])[H])C1([H])[H]

>  <smiles>  (32) 
[H]c1nc(C([H])([H])C([H])([H])[H])c(C([H])([H])Oc2c([H])c([H])c3c(c2[H])C([H])([H])N(C(=O)C([H])(N([H])C(=O)C([H])(N([H])C([H])([H])[H])C([H])([H])[H])C(C([H])([H])[H])(C([H])([H])[H])C([H])([H])[H])C([H])(C(=O)N([H])C2([H])c4c([H])c([H])c([H])c([H])c4C([H])([H])C([H])([H])C2([H])[H])C3([H])[H])nc1C(C([H])([H])[H])(C([H])([H])[H])C([H])([H])N([H])C(=O)N1C([H])([H])C([H])([H])C([H])([H])C([H])(n2nc(-c3c([H])c([H])c(Oc4c([H])c([H])c(F)c([H])c4F)c([H])c3[H])c(C(=O)N([H])[H])c2N([H])[H])C1([H])[H]

$$$$
34:0:0
     RDKit          3D

 92100  0  0  1  0  0  0  0  0999 V2000
  -27.6680  -21.3320   20.7800 C   0  0  0  0  0  3  0  0  0  0  0  0
  -28.7670  -23.1130   20.4000 C   0  0  0  0  0  3  0  0  0  0  0  0
  -27.0930  -19.9800   20.7540 C   0  0  0  0  0  1  0  0  0  0  0  0
  -27.0110  -22.3060   21.3500 N   0  0  0  0  0  2  0  0  0  0  0  0
  -27.7430  -23.4180   21.1660 N   0  0  0  0  0  2  0  0  0  0  0  0
  -28.8940  -21.6780   20.3510 N   0  0  0  0  0  0  0  0  0  0  0  0
  -29.5120  -24.4380   19.9290 C   0  0  0  0  0  2  0  0  0  0  0  0
  -28.4750  -25.6630   19.6330 C   0  0  0  0  0  2  0  0  0  0  0  0
  -28.7240  -27.1050   19.4010 O   0  0  0  0  0  0  0  0  0  0  0  0
  -24.4880  -31.6060   23.1210 C   0  0  0  0  0  0  0  0  0  0  0  0
  -27.5490  -27.8790   19.4200 C   0  0  0  0  0  0  0  0  0  0  0  0
  -23.4080  -30.3210   21.3090 C   0  0  0  0  0  3  0  0  0  0  0  0
  -24.9910  -29.1560   19.6740 C   0  0  0  0  0  0  0  0  0  0  0  0
  -25.8830  -30.9530   21.1480 C   0  0  0  0  0  2  0  0  0  0  0  0
  -26.1170  -29.6990   20.3190 C   0  0  0  0  0  0  0  0  0  0  0  0
  -27.3980  -29.0710   20.1920 C   0  0  0  0  0  3  0  0  0  0  0  0
  -26.3950  -27.4250   18.7300 C   0  0  0  0  0  3  0  0  0  0  0  0
  -25.1250  -28.0180   18.8670 C   0  0  0  0  0  3  0  0  0  0  0  0
  -23.6640  -29.8550   19.8570 C   0  0  0  0  0  2  0  0  0  0  0  0
  -24.6140  -30.9630   21.9270 N   0  0  0  0  0  0  0  0  0  0  0  0
  -23.3950  -31.6850   23.7000 O   0  0  0  0  0  0  0  0  0  0  0  0
  -22.8820  -29.1160   22.1270 C   0  0  0  0  0  0  0  0  0  0  0  0
  -21.5930  -28.7730   21.9390 N   0  0  0  0  0  0  0  0  0  0  0  0
  -23.6320  -28.4940   22.8800 O   0  0  0  0  0  0  0  0  0  0  0  0
  -21.0390  -29.3370   21.3120 H   0  0  0  0  0  0  0  0  0  0  0  0
  -18.4320  -27.0380   22.1460 C   0  0  0  0  0  0  0  0  0  0  0  0
  -20.9080  -27.6480   22.5740 C   0  0  0  0  0  3  0  0  0  0  0  0
  -21.2520  -26.3170   21.8630 C   0  0  0  0  0  2  0  0  0  0  0  0
  -20.2510  -25.9420   20.7680 C   0  0  0  0  0  2  0  0  0  0  0  0
  -18.8420  -25.8080   21.3490 C   0  0  0  0  0  2  0  0  0  0  0  0
  -19.4040  -27.9100   22.7070 C   0  0  0  0  0  0  0  0  0  0  0  0
  -18.9670  -29.0590   23.4020 C   0  0  0  0  0  3  0  0  0  0  0  0
  -17.5960  -29.3360   23.5440 C   0  0  0  0  0  3  0  0  0  0  0  0
  -16.6400  -28.4610   22.9990 C   0  0  0  0  0  3  0  0  0  0  0  0
  -17.0600  -27.3130   22.3050 C   0  0  0  0  0  3  0  0  0  0  0  0
  -25.7070  -32.2840   23.8100 C   0  0  0  0  0  3  0  0  0  0  0  0
  -25.3280  -33.6610   24.1490 N   0  0  0  0  0  0  0  0  0  0  0  0
  -25.6980  -34.7460   23.4510 C   0  0  0  0  0  0  0  0  0  0  0  0
  -26.4660  -34.6960   22.4850 O   0  0  0  0  0  0  0  0  0  0  0  0
  -24.6480  -33.7710   24.8880 H   0  0  0  0  0  0  0  0  0  0  0  0
  -23.9580  -36.4980   22.9720 C   0  0  0  0  0  1  0  0  0  0  0  0
  -25.1220  -36.1060   23.8960 C   0  0  0  0  0  3  0  0  0  0  0  0
  -27.1320  -37.0190   24.9610 C   0  0  0  0  0  1  0  0  0  0  0  0
  -26.1250  -37.1890   23.9210 N   0  0  0  0  0  0  0  0  0  0  0  0
  -25.6780  -38.0910   24.0590 H   0  0  0  0  0  0  0  0  0  0  0  0
  -26.2030  -31.5140   25.0940 C   0  0  1  0  0  0  0  0  0  0  0  0
  -25.0720  -31.2140   26.1060 C   0  0  0  0  0  1  0  0  0  0  0  0
  -26.8640  -30.1710   24.7050 C   0  0  0  0  0  1  0  0  0  0  0  0
  -27.2880  -32.3420   25.8240 C   0  0  0  0  0  1  0  0  0  0  0  0
  -29.8950  -20.7270   19.8730 C   0  0  0  0  0  2  0  0  0  0  0  0
  -31.1700  -20.1470   21.8800 C   0  0  0  0  0  1  0  0  0  0  0  0
  -30.6190  -19.3990   20.6300 C   0  0  1  0  0  0  0  0  0  0  0  0
  -29.6620  -18.5400   20.9660 F   0  0  0  0  0  0  0  0  0  0  0  0
  -31.7410  -18.3120   20.0300 C   0  0  0  0  0  2  0  0  0  0  0  0
  -32.2660  -15.6500   19.9680 C   0  0  0  0  0  0  0  0  0  0  0  0
  -32.3540  -13.0980   19.7720 C   0  0  0  0  0  2  0  0  0  0  0  0
  -31.4400  -12.6080   18.5880 C   0  0  0  0  0  2  0  0  0  0  0  0
  -29.9400  -12.5730   19.0560 C   0  0  0  0  0  2  0  0  0  0  0  0
  -29.5090  -13.8240   19.8700 C   0  0  0  0  0  3  0  0  0  0  0  0
  -30.5490  -13.9610   20.9910 C   0  0  0  0  0  2  0  0  0  0  0  0
  -31.7670  -14.3670   20.2660 N   0  0  0  0  0  0  0  0  0  0  0  0
  -33.4540  -15.7270   19.6300 O   0  0  0  0  0  0  0  0  0  0  0  0
  -31.4360  -16.7690   19.8120 N   0  0  0  0  0  0  0  0  0  0  0  0
  -31.0200  -16.6930   18.8710 H   0  0  0  0  0  0  0  0  0  0  0  0
  -27.1630  -14.6420   20.5760 C   0  0  0  0  0  0  0  0  0  0  0  0
  -26.0080  -13.9750   20.8640 C   0  0  0  0  0  0  0  0  0  0  0  0
  -26.3090  -12.5910   20.7190 C   0  0  0  0  0  0  0  0  0  0  0  0
  -28.1260  -13.6650   20.3110 N   0  0  0  0  0  0  0  0  0  0  0  0
  -27.5880  -12.4180   20.4200 N   0  0  0  0  0  0  0  0  0  0  0  0
  -25.4650  -11.4100   20.8410 C   0  0  0  0  0  0  0  0  0  0  0  0
  -25.7480  -10.4200   21.8290 C   0  0  0  0  0  3  0  0  0  0  0  0
  -24.9420   -9.2640   21.9160 C   0  0  0  0  0  3  0  0  0  0  0  0
  -23.8440   -9.1070   21.0280 C   0  0  0  0  0  0  0  0  0  0  0  0
  -23.6050  -10.0780   20.0280 C   0  0  0  0  0  3  0  0  0  0  0  0
  -24.4040  -11.2180   19.9440 C   0  0  0  0  0  3  0  0  0  0  0  0
  -22.9730   -8.0500   21.0550 O   0  0  0  0  0  0  0  0  0  0  0  0
  -22.5840   -7.4700   22.2450 C   0  0  0  0  0  0  0  0  0  0  0  0
  -21.8500   -8.1980   23.2080 C   0  0  0  0  0  3  0  0  0  0  0  0
  -21.3710   -7.5480   24.3610 C   0  0  0  0  0  3  0  0  0  0  0  0
  -21.5970   -6.1750   24.5560 C   0  0  0  0  0  0  0  0  0  0  0  0
  -22.3060   -5.4440   23.5880 C   0  0  0  0  0  3  0  0  0  0  0  0
  -22.7960   -6.0860   22.4400 C   0  0  0  0  0  0  0  0  0  0  0  0
  -23.4530   -5.3700   21.4980 F   0  0  0  0  0  0  0  0  0  0  0  0
  -21.1600   -5.5610   25.6740 F   0  0  0  0  0  0  0  0  0  0  0  0
  -24.6640  -14.5830   21.1780 C   0  0  0  0  0  0  0  0  0  0  0  0
  -23.9150  -13.9050   22.0470 N   0  0  0  0  0  0  0  0  0  0  0  0
  -24.3130  -15.6770   20.7510 O   0  0  0  0  0  0  0  0  0  0  0  0
  -24.1820  -12.9950   22.3840 H   0  0  0  0  0  0  0  0  0  0  0  0
  -23.0180  -14.2670   22.3060 H   0  0  0  0  0  0  0  0  0  0  0  0
  -27.4090  -16.0260   20.4900 N   0  0  0  0  0  0  0  0  0  0  0  0
  -26.7300  -16.7320   20.7900 H   0  0  0  0  0  0  0  0  0  0  0  0
  -28.2790  -16.4680   20.2330 H   0  0  0  0  0  0  0  0  0  0  0  0
  1  3  1  0
  1  4  1  0
  2  7  1  0
  2  5  1  0
  5  4  1  0
  6  2  1  0
  6  1  1  0
  8  7  1  0
  9 11  1  0
  9  8  1  0
 10 21  2  0
 11 16  1  0
 12 20  1  0
 12 22  1  0
 13 19  1  0
 13 15  1  0
 14 20  1  0
 15 14  1  0
 16 15  2  0
 17 18  1  0
 17 11  2  0
 18 13  2  0
 19 12  1  0
 20 10  1  0
 22 24  2  0
 23 22  1  0
 25 23  1  0
 26 35  2  0
 26 31  1  0
 27 23  1  0
 27 31  1  0
 28 27  1  0
 29 30  1  0
 29 28  1  0
 30 26  1  0
 31 32  2  0
 32 33  1  0
 34 33  2  0
 35 34  1  0
 36 10  1  0
 36 37  1  0
 36 46  1  0
 37 40  1  0
 38 42  1  0
 38 37  1  0
 39 38  2  0
 42 41  1  0
 42 44  1  0
 44 45  1  0
 44 43  1  0
 46 49  1  1
 46 47  1  0
 48 46  1  0
 50  6  1  0
 50 52  1  0
 52 53  1  0
 52 51  1  1
 54 52  1  0
 55 61  1  0
 56 61  1  0
 57 58  1  0
 57 56  1  0
 59 58  1  0
 59 68  1  0
 59 60  1  0
 61 60  1  0
 62 55  2  0
 63 55  1  0
 63 54  1  0
 64 63  1  0
 65 66  2  0
 66 85  1  0
 67 70  1  0
 67 66  1  0
 68 69  1  0
 68 65  1  0
 69 67  2  0
 70 71  1  0
 71 72  2  0
 73 76  1  0
 73 72  1  0
 74 73  2  0
 75 74  1  0
 75 70  2  0
 76 77  1  0
 77 82  2  0
 77 78  1  0
 78 79  2  0
 79 80  1  0
 80 84  1  0
 81 80  2  0
 82 81  1  0
 83 82  1  0
 85 86  1  0
 86 89  1  0
 86 88  1  0
 87 85  2  0
 90 65  1  0
 90 91  1  0
 92 90  1  0
M  ISO  4   8 101   9 101  55 100  63 100
M  END
>  <TORSDO>  (33) 
F 21

>  <SCORE>  (33) 
-8.096

>  <name>  (33) 
34

>  <ligand_id>  (33) 
34

>  <original_smiles>  (33) 
[H]c1c([H])c([H])c2c(c1[H])C([H])([H])C([H])([H])C([H])([H])C2([H])N([H])C(=O)C1([H])N(C(=O)C([H])(N([H])C(=O)C([H])(N([H])C([H])([H])[H])C([H])([H])[H])C(C([H])([H])[H])(C([H])([H])[H])C([H])([H])[H])C([H])([H])c2c([H])c(OC([H])([H])C([H])([H])c3nnc(C([H])([H])[H])n3C([H])([H])C(F)(C([H])([H])[H])C([H])([H])N([H])C(=O)N3C([H])([H])C([H])([H])C([H])([H])C([H])(n4nc(-c5c([H])c([H])c(Oc6c([H])c([H])c(F)c([H])c6F)c([H])c5[H])c(C(=O)N([H])[H])c4N([H])[H])C3([H])[H])c([H])c([H])c2C1([H])[H]

>  <smiles>  (33) 
[H]c1c([H])c([H])c2c(c1[H])C([H])([H])C([H])([H])C([H])([H])C2([H])N([H])C(=O)C1([H])N(C(=O)C([H])(N([H])C(=O)C([H])(N([H])C([H])([H])[H])C([H])([H])[H])C(C([H])([H])[H])(C([H])([H])[H])C([H])([H])[H])C([H])([H])c2c([H])c(OC([H])([H])C([H])([H])c3nnc(C([H])([H])[H])n3C([H])([H])C(F)(C([H])([H])[H])C([H])([H])N([H])C(=O)N3C([H])([H])C([H])([H])C([H])([H])C([H])(n4nc(-c5c([H])c([H])c(Oc6c([H])c([H])c(F)c([H])c6F)c([H])c5[H])c(C(=O)N([H])[H])c4N([H])[H])C3([H])[H])c([H])c([H])c2C1([H])[H]

$$$$
35:0:0
     RDKit          3D

 93101  0  0  1  0  0  0  0  0999 V2000
  -29.6010  -20.5880   20.9740 C   0  0  0  0  0  3  0  0  0  0  0  0
  -29.0350  -21.7600   20.2570 C   0  0  0  0  0  0  0  0  0  0  0  0
  -29.5550  -19.3570   20.2440 C   0  0  0  0  0  0  0  0  0  0  0  0
  -28.6320  -21.2160   19.1180 N   0  0  0  0  0  0  0  0  0  0  0  0
  -28.9150  -19.8480   19.0720 N   0  0  0  0  0  0  0  0  0  0  0  0
  -28.4580  -17.7230   17.7940 C   0  0  0  0  0  1  0  0  0  0  0  0
  -29.9470  -19.5440   16.8640 C   0  0  0  0  0  1  0  0  0  0  0  0
  -27.4800  -19.8580   17.0400 C   0  0  0  0  0  1  0  0  0  0  0  0
  -28.7150  -19.2390   17.7390 C   0  0  2  0  0  0  0  0  0  0  0  0
  -30.8350  -17.9470   21.9790 C   0  0  0  0  0  1  0  0  0  0  0  0
  -31.6530  -18.0260   19.6430 C   0  0  0  0  0  1  0  0  0  0  0  0
  -30.3750  -17.9010   20.5060 C   0  0  2  0  0  0  0  0  0  0  0  0
  -30.5660  -15.1120   20.3020 C   0  0  0  0  0  0  0  0  0  0  0  0
  -30.4200  -12.7500   19.3750 C   0  0  0  0  0  2  0  0  0  0  0  0
  -29.4880  -12.6710   18.1460 C   0  0  0  0  0  2  0  0  0  0  0  0
  -28.0310  -12.4430   18.5880 C   0  0  0  0  0  2  0  0  0  0  0  0
  -27.6150  -13.3780   19.7540 C   0  0  0  0  0  3  0  0  0  0  0  0
  -28.6740  -13.4410   20.8720 C   0  0  0  0  0  2  0  0  0  0  0  0
  -29.9280  -13.8670   20.2380 N   0  0  0  0  0  0  0  0  0  0  0  0
  -31.7840  -15.0760   20.1020 O   0  0  0  0  0  0  0  0  0  0  0  0
  -29.8690  -16.3740   20.3820 N   0  0  0  0  0  0  0  0  0  0  0  0
  -28.8660  -16.2720   20.4600 H   0  0  0  0  0  0  0  0  0  0  0  0
  -25.2380  -13.9240   20.5130 C   0  0  0  0  0  0  0  0  0  0  0  0
  -24.1820  -13.1350   20.8820 C   0  0  0  0  0  0  0  0  0  0  0  0
  -24.6620  -11.7890   20.8430 C   0  0  0  0  0  0  0  0  0  0  0  0
  -26.2870  -13.0580   20.2640 N   0  0  0  0  0  0  0  0  0  0  0  0
  -25.9540  -11.7680   20.5320 N   0  0  0  0  0  0  0  0  0  0  0  0
  -23.9490  -10.5170   21.0270 C   0  0  0  0  0  0  0  0  0  0  0  0
  -24.3780   -9.5580   21.9700 C   0  0  0  0  0  3  0  0  0  0  0  0
  -23.6630   -8.3530   22.1420 C   0  0  0  0  0  3  0  0  0  0  0  0
  -22.5040   -8.1000   21.3690 C   0  0  0  0  0  0  0  0  0  0  0  0
  -22.0960   -9.0460   20.4150 C   0  0  0  0  0  3  0  0  0  0  0  0
  -22.8120  -10.2430   20.2410 C   0  0  0  0  0  3  0  0  0  0  0  0
  -21.7620   -6.9450   21.4510 O   0  0  0  0  0  0  0  0  0  0  0  0
  -21.6870   -6.2180   22.6100 C   0  0  0  0  0  0  0  0  0  0  0  0
  -21.1850   -6.7740   23.8080 C   0  0  0  0  0  3  0  0  0  0  0  0
  -21.0600   -5.9710   24.9590 C   0  0  0  0  0  3  0  0  0  0  0  0
  -21.4260   -4.6130   24.9130 C   0  0  0  0  0  0  0  0  0  0  0  0
  -21.9200   -4.0550   23.7200 C   0  0  0  0  0  3  0  0  0  0  0  0
  -22.0460   -4.8550   22.5720 C   0  0  0  0  0  0  0  0  0  0  0  0
  -22.5030   -4.3090   21.4190 F   0  0  0  0  0  0  0  0  0  0  0  0
  -21.2980   -3.8380   26.0160 F   0  0  0  0  0  0  0  0  0  0  0  0
  -22.7810  -13.5960   21.1520 C   0  0  0  0  0  0  0  0  0  0  0  0
  -22.0600  -12.8870   22.0160 N   0  0  0  0  0  0  0  0  0  0  0  0
  -22.3320  -14.6160   20.6330 O   0  0  0  0  0  0  0  0  0  0  0  0
  -22.4350  -12.0600   22.4550 H   0  0  0  0  0  0  0  0  0  0  0  0
  -21.1180  -13.1770   22.2400 H   0  0  0  0  0  0  0  0  0  0  0  0
  -25.3850  -15.2960   20.3380 N   0  0  0  0  0  0  0  0  0  0  0  0
  -24.6120  -15.9430   20.4510 H   0  0  0  0  0  0  0  0  0  0  0  0
  -26.2210  -15.7400   19.9820 H   0  0  0  0  0  0  0  0  0  0  0  0
  -29.1480  -23.4240   20.4320 C   0  0  0  0  0  3  0  0  0  0  0  0
  -27.9830  -24.6640   20.3140 C   0  0  0  0  0  3  0  0  0  0  0  0
  -28.2320  -26.2240   20.4120 O   0  0  0  0  0  0  0  0  0  0  0  0
  -24.6300  -32.0010   23.3280 C   0  0  0  0  0  0  0  0  0  0  0  0
  -27.1780  -27.2220   20.3480 C   0  0  0  0  0  0  0  0  0  0  0  0
  -23.4230  -30.6020   21.6990 C   0  0  0  0  0  3  0  0  0  0  0  0
  -24.8620  -29.0010   20.2940 C   0  0  0  0  0  0  0  0  0  0  0  0
  -25.9810  -30.8450   21.5380 C   0  0  0  0  0  2  0  0  0  0  0  0
  -26.0480  -29.4430   20.8970 C   0  0  0  0  0  0  0  0  0  0  0  0
  -27.2070  -28.5750   20.8950 C   0  0  0  0  0  3  0  0  0  0  0  0
  -25.9600  -26.8850   19.7180 C   0  0  0  0  0  3  0  0  0  0  0  0
  -24.8340  -27.7380   19.6870 C   0  0  0  0  0  3  0  0  0  0  0  0
  -23.6410  -29.9070   20.3300 C   0  0  0  0  0  2  0  0  0  0  0  0
  -24.6980  -31.1750   22.2400 N   0  0  0  0  0  0  0  0  0  0  0  0
  -23.5450  -32.2960   23.8500 O   0  0  0  0  0  0  0  0  0  0  0  0
  -22.7330  -29.6130   22.6730 C   0  0  0  0  0  0  0  0  0  0  0  0
  -21.4090  -29.4230   22.5200 N   0  0  0  0  0  0  0  0  0  0  0  0
  -23.3920  -29.0160   23.5270 O   0  0  0  0  0  0  0  0  0  0  0  0
  -20.9330  -29.9530   21.8020 H   0  0  0  0  0  0  0  0  0  0  0  0
  -18.0350  -28.1830   22.9600 C   0  0  0  0  0  0  0  0  0  0  0  0
  -20.5800  -28.5010   23.2960 C   0  0  0  0  0  3  0  0  0  0  0  0
  -20.7250  -27.0540   22.7710 C   0  0  0  0  0  2  0  0  0  0  0  0
  -19.6620  -26.6820   21.7340 C   0  0  0  0  0  2  0  0  0  0  0  0
  -18.2570  -26.8190   22.3300 C   0  0  0  0  0  2  0  0  0  0  0  0
  -19.1250  -28.9800   23.3990 C   0  0  0  0  0  0  0  0  0  0  0  0
  -18.8640  -30.2560   23.9480 C   0  0  0  0  0  3  0  0  0  0  0  0
  -17.5440  -30.7330   24.0630 C   0  0  0  0  0  3  0  0  0  0  0  0
  -16.4680  -29.9370   23.6380 C   0  0  0  0  0  3  0  0  0  0  0  0
  -16.7140  -28.6630   23.0920 C   0  0  0  0  0  3  0  0  0  0  0  0
  -25.9100  -32.6310   23.9560 C   0  0  0  0  0  3  0  0  0  0  0  0
  -26.4040  -31.8760   25.2500 C   0  0  1  0  0  0  0  0  0  0  0  0
  -25.2930  -31.6580   26.3020 C   0  0  0  0  0  1  0  0  0  0  0  0
  -26.9880  -30.4910   24.8910 C   0  0  0  0  0  1  0  0  0  0  0  0
  -27.5430  -32.6760   25.9230 C   0  0  0  0  0  1  0  0  0  0  0  0
  -25.6050  -34.0370   24.2670 N   0  0  0  0  0  0  0  0  0  0  0  0
  -25.9220  -35.0820   23.4920 C   0  0  0  0  0  0  0  0  0  0  0  0
  -26.5650  -34.9650   22.4460 O   0  0  0  0  0  0  0  0  0  0  0  0
  -25.0320  -34.2020   25.0810 H   0  0  0  0  0  0  0  0  0  0  0  0
  -24.1720  -36.8700   23.1930 C   0  0  0  0  0  1  0  0  0  0  0  0
  -25.4520  -36.4780   23.9490 C   0  0  0  0  0  3  0  0  0  0  0  0
  -27.6130  -37.3980   24.6700 C   0  0  0  0  0  1  0  0  0  0  0  0
  -26.4720  -37.5340   23.7690 N   0  0  0  0  0  0  0  0  0  0  0  0
  -26.0630  -38.4540   23.9110 H   0  0  0  0  0  0  0  0  0  0  0  0
  2 51  1  0
  2  1  1  0
  3 12  1  0
  3  1  2  0
  4  2  2  0
  5  4  1  0
  5  3  1  0
  9  7  1  6
  8  9  1  0
  9  6  1  0
  9  5  1  0
 12 11  1  6
 12 10  1  0
 13 21  1  0
 14 19  1  0
 15 16  1  0
 15 14  1  0
 17 16  1  0
 17 26  1  0
 17 18  1  0
 19 13  1  0
 19 18  1  0
 20 13  2  0
 21 22  1  0
 21 12  1  0
 23 24  2  0
 24 43  1  0
 25 24  1  0
 25 28  1  0
 26 23  1  0
 26 27  1  0
 27 25  2  0
 28 29  1  0
 29 30  2  0
 31 34  1  0
 31 30  1  0
 32 31  2  0
 33 32  1  0
 33 28  2  0
 34 35  1  0
 35 36  1  0
 36 37  2  0
 38 37  1  0
 38 42  1  0
 39 38  2  0
 40 35  2  0
 40 39  1  0
 41 40  1  0
 43 44  1  0
 44 47  1  0
 44 46  1  0
 45 43  2  0
 48 49  1  0
 48 23  1  0
 50 48  1  0
 52 53  1  0
 52 51  2  0
 54 65  2  0
 55 53  1  0
 55 60  1  0
 56 64  1  0
 56 66  1  0
 57 63  1  0
 57 59  1  0
 58 64  1  0
 59 58  1  0
 60 59  2  0
 61 55  2  0
 62 61  1  0
 62 57  2  0
 63 56  1  0
 64 54  1  0
 66 68  2  0
 67 66  1  0
 69 67  1  0
 70 79  2  0
 70 75  1  0
 71 67  1  0
 71 75  1  0
 72 71  1  0
 73 74  1  0
 73 72  1  0
 74 70  1  0
 75 76  2  0
 76 77  1  0
 78 77  2  0
 79 78  1  0
 80 54  1  0
 80 85  1  0
 80 81  1  0
 81 84  1  1
 81 82  1  0
 83 81  1  0
 85 88  1  0
 86 90  1  0
 86 85  1  0
 87 86  2  0
 90 89  1  0
 92 93  1  0
 92 90  1  0
 92 91  1  0
M  ISO  4  13 100  21 100  52 101  53 101
M  END
>  <TORSDO>  (34) 
F 20

>  <SCORE>  (34) 
-14.818

>  <name>  (34) 
35

>  <ligand_id>  (34) 
35

>  <original_smiles>  (34) 
[H]c1c([H])c([H])c2c(c1[H])C([H])([H])C([H])([H])C([H])([H])C2([H])N([H])C(=O)C1([H])N(C(=O)C([H])(N([H])C(=O)C([H])(N([H])C([H])([H])[H])C([H])([H])[H])C(C([H])([H])[H])(C([H])([H])[H])C([H])([H])[H])C([H])([H])c2c([H])c(OC([H])([H])C([H])([H])c3nn(C(C([H])([H])[H])(C([H])([H])[H])C([H])([H])[H])c(C(N([H])C(=O)N4C([H])([H])C([H])([H])C([H])([H])C([H])(n5nc(-c6c([H])c([H])c(Oc7c([H])c([H])c(F)c([H])c7F)c([H])c6[H])c(C(=O)N([H])[H])c5N([H])[H])C4([H])[H])(C([H])([H])[H])C([H])([H])[H])c3[H])c([H])c([H])c2C1([H])[H]

>  <smiles>  (34) 
[H]c1c([H])c([H])c2c(c1[H])C([H])([H])C([H])([H])C([H])([H])C2([H])N([H])C(=O)C1([H])N(C(=O)C([H])(N([H])C(=O)C([H])(N([H])C([H])([H])[H])C([H])([H])[H])C(C([H])([H])[H])(C([H])([H])[H])C([H])([H])[H])C([H])([H])c2c([H])c(OC([H])([H])C([H])([H])c3nn(C(C([H])([H])[H])(C([H])([H])[H])C([H])([H])[H])c(C(N([H])C(=O)N4C([H])([H])C([H])([H])C([H])([H])C([H])(n5nc(-c6c([H])c([H])c(Oc7c([H])c([H])c(F)c([H])c7F)c([H])c6[H])c(C(=O)N([H])[H])c5N([H])[H])C4([H])[H])(C([H])([H])[H])C([H])([H])[H])c3[H])c([H])c([H])c2C1([H])[H]

$$$$
36:0:0
     RDKit          3D

 95103  0  0  1  0  0  0  0  0999 V2000
  -28.6610  -20.5210   21.0440 C   0  0  0  0  0  3  0  0  0  0  0  0
  -29.5660  -19.8440   20.1730 C   0  0  0  0  0  0  0  0  0  0  0  0
  -29.4440  -22.6430   20.3950 C   0  0  0  0  0  0  0  0  0  0  0  0
  -30.3760  -21.9650   19.5450 C   0  0  0  0  0  0  0  0  0  0  0  0
  -28.6000  -21.8850   21.1520 N   0  0  0  0  0  0  0  0  0  0  0  0
  -30.4290  -20.5990   19.4390 N   0  0  0  0  0  0  0  0  0  0  0  0
  -32.7880  -22.7240   19.4280 C   0  0  0  0  0  1  0  0  0  0  0  0
  -31.4280  -22.6860   18.7150 C   0  0  0  0  0  2  0  0  0  0  0  0
  -29.4400  -24.1970   20.6530 C   0  0  0  0  0  3  0  0  0  0  0  0
  -28.2780  -25.0990   20.0650 C   0  0  0  0  0  3  0  0  0  0  0  0
  -28.4040  -26.5630   20.2290 O   0  0  0  0  0  0  0  0  0  0  0  0
  -24.6150  -31.9080   23.2000 C   0  0  0  0  0  0  0  0  0  0  0  0
  -27.2540  -27.3620   20.1770 C   0  0  0  0  0  0  0  0  0  0  0  0
  -23.4080  -30.4860   21.5800 C   0  0  0  0  0  3  0  0  0  0  0  0
  -24.8620  -28.9300   20.1620 C   0  0  0  0  0  0  0  0  0  0  0  0
  -25.9370  -30.8300   21.3690 C   0  0  0  0  0  2  0  0  0  0  0  0
  -26.0250  -29.4440   20.7440 C   0  0  0  0  0  0  0  0  0  0  0  0
  -27.2220  -28.6720   20.7440 C   0  0  0  0  0  3  0  0  0  0  0  0
  -26.0650  -26.8920   19.5720 C   0  0  0  0  0  3  0  0  0  0  0  0
  -24.8830  -27.6580   19.5660 C   0  0  0  0  0  3  0  0  0  0  0  0
  -23.6140  -29.7900   20.2070 C   0  0  0  0  0  2  0  0  0  0  0  0
  -24.6720  -31.0920   22.1070 N   0  0  0  0  0  0  0  0  0  0  0  0
  -23.5360  -32.1800   23.7430 O   0  0  0  0  0  0  0  0  0  0  0  0
  -22.7590  -29.4760   22.5580 C   0  0  0  0  0  0  0  0  0  0  0  0
  -21.4350  -29.2820   22.4380 N   0  0  0  0  0  0  0  0  0  0  0  0
  -23.4480  -28.8690   23.3840 O   0  0  0  0  0  0  0  0  0  0  0  0
  -20.9380  -29.8270   21.7480 H   0  0  0  0  0  0  0  0  0  0  0  0
  -18.0700  -28.0670   22.9720 C   0  0  0  0  0  0  0  0  0  0  0  0
  -20.6280  -28.3450   23.2250 C   0  0  0  0  0  3  0  0  0  0  0  0
  -20.7360  -26.9080   22.6620 C   0  0  0  0  0  2  0  0  0  0  0  0
  -19.6290  -26.5670   21.6590 C   0  0  0  0  0  2  0  0  0  0  0  0
  -18.2510  -26.7110   22.3080 C   0  0  0  0  0  2  0  0  0  0  0  0
  -19.1860  -28.8400   23.3880 C   0  0  0  0  0  0  0  0  0  0  0  0
  -18.9620  -30.1080   23.9680 C   0  0  0  0  0  3  0  0  0  0  0  0
  -17.6560  -30.6030   24.1350 C   0  0  0  0  0  3  0  0  0  0  0  0
  -16.5540  -29.8260   23.7340 C   0  0  0  0  0  3  0  0  0  0  0  0
  -16.7630  -28.5600   23.1590 C   0  0  0  0  0  3  0  0  0  0  0  0
  -25.9000  -32.5550   23.8050 C   0  0  0  0  0  3  0  0  0  0  0  0
  -25.5800  -33.9490   24.1440 N   0  0  0  0  0  0  0  0  0  0  0  0
  -25.9050  -35.0100   23.3920 C   0  0  0  0  0  0  0  0  0  0  0  0
  -26.5750  -34.9180   22.3600 O   0  0  0  0  0  0  0  0  0  0  0  0
  -24.9890  -34.0920   24.9490 H   0  0  0  0  0  0  0  0  0  0  0  0
  -24.1770  -36.8020   23.0360 C   0  0  0  0  0  1  0  0  0  0  0  0
  -25.4080  -36.3920   23.8600 C   0  0  0  0  0  3  0  0  0  0  0  0
  -27.5260  -37.2750   24.7310 C   0  0  0  0  0  1  0  0  0  0  0  0
  -26.4390  -37.4480   23.7720 N   0  0  0  0  0  0  0  0  0  0  0  0
  -26.0280  -38.3660   23.9210 H   0  0  0  0  0  0  0  0  0  0  0  0
  -26.4420  -31.7890   25.0730 C   0  0  1  0  0  0  0  0  0  0  0  0
  -25.3610  -31.5200   26.1470 C   0  0  0  0  0  1  0  0  0  0  0  0
  -27.0540  -30.4290   24.6650 C   0  0  0  0  0  1  0  0  0  0  0  0
  -27.5760  -32.6070   25.7350 C   0  0  0  0  0  1  0  0  0  0  0  0
  -29.4610  -18.3040   19.8420 C   0  0  0  0  0  3  0  0  0  0  0  0
  -27.9940  -17.9340   19.5200 C   0  0  1  0  0  0  0  0  0  0  0  0
  -27.9700  -16.8110   18.8050 F   0  0  0  0  0  0  0  0  0  0  0  0
  -27.2940  -17.7430   20.6360 F   0  0  0  0  0  0  0  0  0  0  0  0
  -27.3970  -18.8800   18.7900 F   0  0  0  0  0  0  0  0  0  0  0  0
  -30.2140  -17.2450   20.7820 C   0  0  0  0  0  2  0  0  0  0  0  0
  -30.6720  -14.7040   20.2750 C   0  0  0  0  0  0  0  0  0  0  0  0
  -30.4240  -12.5140   19.1320 C   0  0  0  0  0  2  0  0  0  0  0  0
  -29.4590  -12.6930   17.9390 C   0  0  0  0  0  2  0  0  0  0  0  0
  -27.9960  -12.5150   18.3900 C   0  0  0  0  0  2  0  0  0  0  0  0
  -27.6630  -13.3320   19.6660 C   0  0  0  0  0  3  0  0  0  0  0  0
  -28.7430  -13.1390   20.7540 C   0  0  0  0  0  2  0  0  0  0  0  0
  -30.0380  -13.4990   20.1590 N   0  0  0  0  0  0  0  0  0  0  0  0
  -31.8350  -14.8610   19.8960 O   0  0  0  0  0  0  0  0  0  0  0  0
  -29.8910  -15.7680   20.6410 N   0  0  0  0  0  0  0  0  0  0  0  0
  -28.9420  -15.5110   20.8700 H   0  0  0  0  0  0  0  0  0  0  0  0
  -25.2750  -13.9160   20.4140 C   0  0  0  0  0  0  0  0  0  0  0  0
  -24.2190  -13.1390   20.8050 C   0  0  0  0  0  0  0  0  0  0  0  0
  -24.6900  -11.7930   20.7650 C   0  0  0  0  0  0  0  0  0  0  0  0
  -26.3210  -13.0440   20.1680 N   0  0  0  0  0  0  0  0  0  0  0  0
  -25.9770  -11.7600   20.4400 N   0  0  0  0  0  0  0  0  0  0  0  0
  -23.9720  -10.5270   20.9600 C   0  0  0  0  0  0  0  0  0  0  0  0
  -24.4110   -9.5700   21.9000 C   0  0  0  0  0  3  0  0  0  0  0  0
  -23.6960   -8.3670   22.0830 C   0  0  0  0  0  3  0  0  0  0  0  0
  -22.5260   -8.1150   21.3290 C   0  0  0  0  0  0  0  0  0  0  0  0
  -22.1050   -9.0620   20.3780 C   0  0  0  0  0  3  0  0  0  0  0  0
  -22.8200  -10.2570   20.1930 C   0  0  0  0  0  3  0  0  0  0  0  0
  -21.7800   -6.9640   21.4210 O   0  0  0  0  0  0  0  0  0  0  0  0
  -21.7260   -6.2360   22.5820 C   0  0  0  0  0  0  0  0  0  0  0  0
  -21.2660   -6.7970   23.7930 C   0  0  0  0  0  3  0  0  0  0  0  0
  -21.1590   -5.9920   24.9460 C   0  0  0  0  0  3  0  0  0  0  0  0
  -21.5010   -4.6280   24.8880 C   0  0  0  0  0  0  0  0  0  0  0  0
  -21.9560   -4.0670   23.6810 C   0  0  0  0  0  3  0  0  0  0  0  0
  -22.0640   -4.8690   22.5310 C   0  0  0  0  0  0  0  0  0  0  0  0
  -22.4810   -4.3180   21.3650 F   0  0  0  0  0  0  0  0  0  0  0  0
  -21.3930   -3.8540   25.9920 F   0  0  0  0  0  0  0  0  0  0  0  0
  -22.8240  -13.6110   21.0940 C   0  0  0  0  0  0  0  0  0  0  0  0
  -22.1130  -12.9180   21.9770 N   0  0  0  0  0  0  0  0  0  0  0  0
  -22.3700  -14.6290   20.5720 O   0  0  0  0  0  0  0  0  0  0  0  0
  -22.4890  -12.0980   22.4250 H   0  0  0  0  0  0  0  0  0  0  0  0
  -21.1760  -13.2180   22.2090 H   0  0  0  0  0  0  0  0  0  0  0  0
  -25.4150  -15.2840   20.2170 N   0  0  0  0  0  0  0  0  0  0  0  0
  -24.6190  -15.9080   20.2610 H   0  0  0  0  0  0  0  0  0  0  0  0
  -26.2250  -15.7100   19.7810 H   0  0  0  0  0  0  0  0  0  0  0  0
  1  5  1  0
  2  1  2  0
  3  9  1  0
  3  5  2  0
  4  3  1  0
  6  4  2  0
  6  2  1  0
  8  7  1  0
  8  4  1  0
 10 11  1  0
 10  9  2  0
 12 23  2  0
 13 11  1  0
 13 18  1  0
 14 22  1  0
 14 24  1  0
 15 21  1  0
 15 17  1  0
 16 22  1  0
 17 18  2  0
 17 16  1  0
 19 13  2  0
 20 19  1  0
 20 15  2  0
 21 14  1  0
 22 12  1  0
 24 26  2  0
 25 24  1  0
 27 25  1  0
 28 37  2  0
 28 33  1  0
 29 25  1  0
 29 33  1  0
 30 29  1  0
 31 32  1  0
 31 30  1  0
 32 28  1  0
 33 34  2  0
 34 35  1  0
 36 35  2  0
 37 36  1  0
 38 12  1  0
 38 39  1  0
 38 48  1  0
 39 42  1  0
 40 44  1  0
 40 39  1  0
 41 40  2  0
 44 43  1  0
 46 44  1  0
 46 47  1  0
 46 45  1  0
 48 51  1  1
 48 49  1  0
 50 48  1  0
 52  2  1  0
 52 57  1  0
 53 52  1  0
 53 55  1  1
 54 53  1  0
 56 53  1  0
 58 66  1  0
 59 64  1  0
 60 61  1  0
 60 59  1  0
 62 61  1  0
 62 71  1  0
 62 63  1  0
 64 58  1  0
 64 63  1  0
 65 58  2  0
 66 57  1  0
 66 67  1  0
 68 69  2  0
 69 88  1  0
 70 69  1  0
 70 73  1  0
 71 68  1  0
 71 72  1  0
 72 70  2  0
 73 74  1  0
 74 75  2  0
 76 79  1  0
 76 75  1  0
 77 76  2  0
 78 77  1  0
 78 73  2  0
 79 80  1  0
 80 81  1  0
 81 82  2  0
 83 82  1  0
 83 87  1  0
 84 83  2  0
 85 80  2  0
 85 84  1  0
 86 85  1  0
 88 89  1  0
 89 92  1  0
 89 91  1  0
 90 88  2  0
 93 94  1  0
 93 68  1  0
 95 93  1  0
M  ISO  4  10 101  11 101  58 100  66 100
M  END
>  <TORSDO>  (35) 
F 22

>  <SCORE>  (35) 
-13.659

>  <name>  (35) 
36

>  <ligand_id>  (35) 
36

>  <original_smiles>  (35) 
[H]c1nc(C([H])([H])C([H])([H])Oc2c([H])c([H])c3c(c2[H])C([H])([H])N(C(=O)C([H])(N([H])C(=O)C([H])(N([H])C([H])([H])[H])C([H])([H])[H])C(C([H])([H])[H])(C([H])([H])[H])C([H])([H])[H])C([H])(C(=O)N([H])C2([H])c4c([H])c([H])c([H])c([H])c4C([H])([H])C([H])([H])C2([H])[H])C3([H])[H])c(C([H])([H])C([H])([H])[H])nc1C([H])(C(F)(F)F)C([H])([H])N([H])C(=O)N1C([H])([H])C([H])([H])C([H])([H])C([H])(n2nc(-c3c([H])c([H])c(Oc4c([H])c([H])c(F)c([H])c4F)c([H])c3[H])c(C(=O)N([H])[H])c2N([H])[H])C1([H])[H]

>  <smiles>  (35) 
[H]c1nc(C([H])([H])C([H])([H])Oc2c([H])c([H])c3c(c2[H])C([H])([H])N(C(=O)C([H])(N([H])C(=O)C([H])(N([H])C([H])([H])[H])C([H])([H])[H])C(C([H])([H])[H])(C([H])([H])[H])C([H])([H])[H])C([H])(C(=O)N([H])C2([H])c4c([H])c([H])c([H])c([H])c4C([H])([H])C([H])([H])C2([H])[H])C3([H])[H])c(C([H])([H])C([H])([H])[H])nc1C([H])(C(F)(F)F)C([H])([H])N([H])C(=O)N1C([H])([H])C([H])([H])C([H])([H])C([H])(n2nc(-c3c([H])c([H])c(Oc4c([H])c([H])c(F)c([H])c4F)c([H])c3[H])c(C(=O)N([H])[H])c2N([H])[H])C1([H])[H]

$$$$
37:0:0
     RDKit          3D

 99107  0  0  1  0  0  0  0  0999 V2000
  -27.5180  -19.3280   20.1220 C   0  0  0  0  0  2  0  0  0  0  0  0
  -27.7800  -17.9960   19.3940 C   0  0  0  0  0  2  0  0  0  0  0  0
  -26.3940  -15.4410   21.4110 C   0  0  0  0  0  0  0  0  0  0  0  0
  -27.4380  -16.7680   20.1960 C   0  0  0  0  0  3  0  0  0  0  0  0
  -26.2110  -16.5750   20.6720 N   0  0  0  0  0  0  0  0  0  0  0  0
  -27.6480  -14.9830   21.4190 N   0  0  0  0  0  2  0  0  0  0  0  0
  -28.2890  -15.7560   20.5000 N   0  0  0  0  0  0  0  0  0  0  0  0
  -25.3000  -14.8040   22.2400 C   0  0  1  0  0  0  0  0  0  0  0  0
  -24.0930  -15.1200   21.7620 F   0  0  0  0  0  0  0  0  0  0  0  0
  -25.4220  -13.4760   22.2180 F   0  0  0  0  0  0  0  0  0  0  0  0
  -25.3740  -15.2230   23.5070 F   0  0  0  0  0  0  0  0  0  0  0  0
  -30.2140  -15.8650   18.8240 C   0  0  0  0  0  1  0  0  0  0  0  0
  -30.3970  -16.6790   21.2010 C   0  0  0  0  0  1  0  0  0  0  0  0
  -29.7510  -15.5930   20.2900 C   0  0  1  0  0  0  0  0  0  0  0  0
  -30.4080  -14.2020   20.6380 C   0  0  0  0  0  0  0  0  0  0  0  0
  -30.3620  -11.8960   19.8140 C   0  0  0  0  0  2  0  0  0  0  0  0
  -29.6530  -11.8570   18.4410 C   0  0  0  0  0  2  0  0  0  0  0  0
  -28.1290  -11.7090   18.6040 C   0  0  0  0  0  2  0  0  0  0  0  0
  -27.5290  -12.6620   19.6690 C   0  0  0  0  0  3  0  0  0  0  0  0
  -28.3800  -12.6480   20.9500 C   0  0  0  0  0  2  0  0  0  0  0  0
  -29.7620  -12.9960   20.5920 N   0  0  0  0  0  0  0  0  0  0  0  0
  -31.6400  -14.2240   20.5960 O   0  0  0  0  0  0  0  0  0  0  0  0
  -25.0020  -13.1240   19.7540 C   0  0  0  0  0  0  0  0  0  0  0  0
  -23.9370  -12.3370   20.0880 C   0  0  0  0  0  0  0  0  0  0  0  0
  -24.4860  -11.0770   20.4770 C   0  0  0  0  0  0  0  0  0  0  0  0
  -26.1310  -12.3450   19.9470 N   0  0  0  0  0  0  0  0  0  0  0  0
  -25.8120  -11.1200   20.4390 N   0  0  0  0  0  0  0  0  0  0  0  0
  -23.8230   -9.8150   20.8260 C   0  0  0  0  0  0  0  0  0  0  0  0
  -24.2190   -9.0570   21.9510 C   0  0  0  0  0  3  0  0  0  0  0  0
  -23.5520   -7.8550   22.2740 C   0  0  0  0  0  3  0  0  0  0  0  0
  -22.4770   -7.4030   21.4720 C   0  0  0  0  0  0  0  0  0  0  0  0
  -22.1010   -8.1500   20.3420 C   0  0  0  0  0  3  0  0  0  0  0  0
  -22.7690   -9.3440   20.0190 C   0  0  0  0  0  3  0  0  0  0  0  0
  -21.7880   -6.2350   21.6940 O   0  0  0  0  0  0  0  0  0  0  0  0
  -21.7570   -5.6420   22.9310 C   0  0  0  0  0  0  0  0  0  0  0  0
  -21.2620   -6.3170   24.0670 C   0  0  0  0  0  3  0  0  0  0  0  0
  -21.1860   -5.6490   25.3050 C   0  0  0  0  0  3  0  0  0  0  0  0
  -21.5900   -4.3030   25.4060 C   0  0  0  0  0  0  0  0  0  0  0  0
  -22.0770   -3.6280   24.2730 C   0  0  0  0  0  3  0  0  0  0  0  0
  -22.1580   -4.2960   23.0380 C   0  0  0  0  0  0  0  0  0  0  0  0
  -22.6090   -3.6350   21.9460 F   0  0  0  0  0  0  0  0  0  0  0  0
  -21.5090   -3.6580   26.5930 F   0  0  0  0  0  0  0  0  0  0  0  0
  -22.4850  -12.7000   19.9690 C   0  0  0  0  0  0  0  0  0  0  0  0
  -21.6450  -12.1540   20.8400 N   0  0  0  0  0  0  0  0  0  0  0  0
  -22.0950  -13.5110   19.1290 O   0  0  0  0  0  0  0  0  0  0  0  0
  -21.9690  -11.5090   21.5420 H   0  0  0  0  0  0  0  0  0  0  0  0
  -20.6660  -12.3930   20.8080 H   0  0  0  0  0  0  0  0  0  0  0  0
  -25.1050  -14.4300   19.2850 N   0  0  0  0  0  0  0  0  0  0  0  0
  -24.2950  -15.0160   19.1210 H   0  0  0  0  0  0  0  0  0  0  0  0
  -25.9800  -14.9130   19.1360 H   0  0  0  0  0  0  0  0  0  0  0  0
  -27.9700  -20.5260   19.2590 C   0  0  0  0  0  2  0  0  0  0  0  0
  -26.3250  -22.2920   19.6950 C   0  0  0  0  0  1  0  0  0  0  0  0
  -27.7290  -21.8430   19.9060 N   0  0  2  0  0  4  0  0  0  0  0  0
  -27.8370  -21.6840   20.8970 H   0  0  0  0  0  0  0  0  0  0  0  0
  -28.8580  -23.0920   18.0260 C   0  0  0  0  0  1  0  0  0  0  0  0
  -28.7600  -22.8700   19.5540 C   0  0  0  0  0  3  0  0  0  0  0  0
  -28.5700  -24.1660   20.3880 C   0  0  0  0  0  2  0  0  0  0  0  0
  -29.1370  -25.4460   19.7440 C   0  0  0  0  0  2  0  0  0  0  0  0
  -28.8880  -26.5800   20.5620 O   0  0  0  0  0  0  0  0  0  0  0  0
  -24.8210  -31.7670   23.1900 C   0  0  0  0  0  0  0  0  0  0  0  0
  -27.6680  -27.2150   20.4750 C   0  0  0  0  0  0  0  0  0  0  0  0
  -23.7130  -30.2590   21.5810 C   0  0  0  0  0  3  0  0  0  0  0  0
  -25.2490  -28.6680   20.3140 C   0  0  0  0  0  0  0  0  0  0  0  0
  -26.2430  -30.6400   21.4840 C   0  0  0  0  0  2  0  0  0  0  0  0
  -26.3690  -29.2410   20.9220 C   0  0  0  0  0  0  0  0  0  0  0  0
  -27.5770  -28.5160   21.0090 C   0  0  0  0  0  3  0  0  0  0  0  0
  -26.5170  -26.6440   19.8740 C   0  0  0  0  0  3  0  0  0  0  0  0
  -25.3120  -27.3620   19.8030 C   0  0  0  0  0  3  0  0  0  0  0  0
  -23.9930  -29.5080   20.2540 C   0  0  0  0  0  2  0  0  0  0  0  0
  -24.9410  -30.9070   22.1420 N   0  0  0  0  0  0  0  0  0  0  0  0
  -23.7130  -32.0560   23.6590 O   0  0  0  0  0  0  0  0  0  0  0  0
  -23.0350  -29.2770   22.5610 C   0  0  0  0  0  0  0  0  0  0  0  0
  -21.7170  -29.0760   22.3930 N   0  0  0  0  0  0  0  0  0  0  0  0
  -23.6910  -28.6930   23.4270 O   0  0  0  0  0  0  0  0  0  0  0  0
  -21.2500  -29.6040   21.6670 H   0  0  0  0  0  0  0  0  0  0  0  0
  -18.3180  -27.9400   22.8700 C   0  0  0  0  0  0  0  0  0  0  0  0
  -20.8740  -28.1740   23.1780 C   0  0  0  0  0  3  0  0  0  0  0  0
  -20.9620  -26.7200   22.6550 C   0  0  0  0  0  2  0  0  0  0  0  0
  -19.8750  -26.3790   21.6330 C   0  0  0  0  0  2  0  0  0  0  0  0
  -18.4840  -26.5650   22.2470 C   0  0  0  0  0  2  0  0  0  0  0  0
  -19.4380  -28.7030   23.2940 C   0  0  0  0  0  0  0  0  0  0  0  0
  -19.2260  -29.9900   23.8320 C   0  0  0  0  0  3  0  0  0  0  0  0
  -17.9250  -30.5130   23.9520 C   0  0  0  0  0  3  0  0  0  0  0  0
  -16.8170  -29.7500   23.5430 C   0  0  0  0  0  3  0  0  0  0  0  0
  -17.0160  -28.4640   23.0080 C   0  0  0  0  0  3  0  0  0  0  0  0
  -26.0680  -32.4500   23.8330 C   0  0  0  0  0  3  0  0  0  0  0  0
  -26.6380  -31.6600   25.0730 C   0  0  1  0  0  0  0  0  0  0  0  0
  -25.5580  -31.2540   26.1040 C   0  0  0  0  0  1  0  0  0  0  0  0
  -27.3600  -30.3720   24.6130 C   0  0  0  0  0  1  0  0  0  0  0  0
  -27.6970  -32.5270   25.7960 C   0  0  0  0  0  1  0  0  0  0  0  0
  -25.6700  -33.8100   24.2200 N   0  0  0  0  0  0  0  0  0  0  0  0
  -25.9240  -34.9070   23.4950 C   0  0  0  0  0  0  0  0  0  0  0  0
  -26.5850  -34.8830   22.4530 O   0  0  0  0  0  0  0  0  0  0  0  0
  -25.0680  -33.8950   25.0260 H   0  0  0  0  0  0  0  0  0  0  0  0
  -24.0700  -36.5840   23.2250 C   0  0  0  0  0  1  0  0  0  0  0  0
  -25.3490  -36.2430   24.0040 C   0  0  0  0  0  3  0  0  0  0  0  0
  -27.4410  -37.2390   24.8150 C   0  0  0  0  0  1  0  0  0  0  0  0
  -26.3060  -37.3650   23.9060 N   0  0  0  0  0  0  0  0  0  0  0  0
  -25.8460  -38.2520   24.0890 H   0  0  0  0  0  0  0  0  0  0  0  0
  2  1  1  0
  3  6  1  0
  3  8  1  0
  4  2  1  0
  4  7  1  0
  4  5  1  0
  5  3  2  0
  7  6  1  0
  8 11  1  1
  9  8  1  0
 10  8  1  0
 14 12  1  6
 14  7  1  0
 14 15  1  0
 14 13  1  0
 16 21  1  0
 17 18  1  0
 17 16  1  0
 19 18  1  0
 19 26  1  0
 19 20  1  0
 21 15  1  0
 21 20  1  0
 22 15  2  0
 23 26  1  0
 23 24  2  0
 24 25  1  0
 25 28  1  0
 26 27  1  0
 27 25  2  0
 28 29  1  0
 29 30  2  0
 31 34  1  0
 31 30  1  0
 32 31  2  0
 33 32  1  0
 33 28  2  0
 34 35  1  0
 35 40  2  0
 35 36  1  0
 36 37  2  0
 37 38  1  0
 38 42  1  0
 39 38  2  0
 40 39  1  0
 41 40  1  0
 43 24  1  0
 43 44  1  0
 44 46  1  0
 45 43  2  0
 47 44  1  0
 48 23  1  0
 49 48  1  0
 50 48  1  0
 51 53  1  0
 51  1  1  0
 52 53  1  0
 53 54  1  1
 56 55  1  0
 56 53  1  0
 56 57  1  0
 58 57  1  0
 58 59  1  0
 60 71  2  0
 61 59  1  0
 61 66  1  0
 62 70  1  0
 62 72  1  0
 63 65  1  0
 64 70  1  0
 65 66  2  0
 65 64  1  0
 67 61  2  0
 68 67  1  0
 68 63  2  0
 69 63  1  0
 69 62  1  0
 70 60  1  0
 72 74  2  0
 73 72  1  0
 75 73  1  0
 76 85  2  0
 76 81  1  0
 77 73  1  0
 77 81  1  0
 78 77  1  0
 79 80  1  0
 79 78  1  0
 80 76  1  0
 81 82  2  0
 82 83  1  0
 84 83  2  0
 85 84  1  0
 86 60  1  0
 86 91  1  0
 86 87  1  0
 87 90  1  1
 87 88  1  0
 89 87  1  0
 91 94  1  0
 92 96  1  0
 92 91  1  0
 93 92  2  0
 96 95  1  0
 98 96  1  0
 98 99  1  0
 98 97  1  0
M  ISO  4  14 100  15 100  58 101  59 101
M  END
>  <TORSDO>  (36) 
F 25

>  <SCORE>  (36) 
-5.184

>  <name>  (36) 
37

>  <ligand_id>  (36) 
37

>  <original_smiles>  (36) 
[H]c1c([H])c([H])c2c(c1[H])C([H])([H])C([H])([H])C([H])([H])C2([H])N([H])C(=O)C1([H])N(C(=O)C([H])(N([H])C(=O)C([H])(N([H])C([H])([H])[H])C([H])([H])[H])C(C([H])([H])[H])(C([H])([H])[H])C([H])([H])[H])C([H])([H])c2c([H])c(OC([H])([H])C([H])([H])C([H])(C([H])([H])[H])[N+]([H])(C([H])([H])[H])C([H])([H])C([H])([H])C([H])([H])c3nc(C(F)(F)F)nn3C(C(=O)N3C([H])([H])C([H])([H])C([H])([H])C([H])(n4nc(-c5c([H])c([H])c(Oc6c([H])c([H])c(F)c([H])c6F)c([H])c5[H])c(C(=O)N([H])[H])c4N([H])[H])C3([H])[H])(C([H])([H])[H])C([H])([H])[H])c([H])c([H])c2C1([H])[H]

>  <smiles>  (36) 
[H]c1c([H])c([H])c2c(c1[H])C([H])([H])C([H])([H])C([H])([H])C2([H])N([H])C(=O)C1([H])N(C(=O)C([H])(N([H])C(=O)C([H])(N([H])C([H])([H])[H])C([H])([H])[H])C(C([H])([H])[H])(C([H])([H])[H])C([H])([H])[H])C([H])([H])c2c([H])c(OC([H])([H])C([H])([H])C([H])(C([H])([H])[H])[N+]([H])(C([H])([H])[H])C([H])([H])C([H])([H])C([H])([H])c3nc(C(F)(F)F)nn3C(C(=O)N3C([H])([H])C([H])([H])C([H])([H])C([H])(n4nc(-c5c([H])c([H])c(Oc6c([H])c([H])c(F)c([H])c6F)c([H])c5[H])c(C(=O)N([H])[H])c4N([H])[H])C3([H])[H])(C([H])([H])[H])C([H])([H])[H])c([H])c([H])c2C1([H])[H]

$$$$
38:0:0
     RDKit          3D

102104  0  0  1  0  0  0  0  0999 V2000
  -28.4100  -18.3060   18.5540 C   0  0  0  0  0  2  0  0  0  0  0  0
  -31.0470  -15.0300   18.0510 C   0  0  0  0  0  3  0  0  0  0  0  0
  -29.9600  -14.8870   18.9650 C   0  0  0  0  0  0  0  0  0  0  0  0
  -30.4760  -17.1840   17.4930 C   0  0  0  0  0  0  0  0  0  0  0  0
  -29.3720  -17.1180   18.3800 C   0  0  0  0  0  0  0  0  0  0  0  0
  -31.2830  -16.1240   17.3000 N   0  0  0  0  0  0  0  0  0  0  0  0
  -29.1320  -15.9830   19.1070 N   0  0  0  0  0  0  0  0  0  0  0  0
  -32.2330  -18.9940   17.2060 C   0  0  0  0  0  1  0  0  0  0  0  0
  -30.8850  -18.4330   16.7220 C   0  0  0  0  0  2  0  0  0  0  0  0
  -30.0420  -13.7650   20.1740 C   0  0  0  0  0  3  0  0  0  0  0  0
  -29.4700  -12.3380   20.3150 F   0  0  0  0  0  0  0  0  0  0  0  0
  -30.9510  -14.5390   21.1370 C   0  0  0  0  0  3  0  0  0  0  0  0
  -31.6200  -12.3740   19.9230 C   0  0  0  0  0 15  0  0  0  0  0  0
  -30.2870  -12.2280   18.3460 C   0  0  0  0  0 15  0  0  0  0  0  0
  -28.3590  -12.8010   18.5620 C   0  0  0  0  0 15  0  0  0  0  0  0
  -27.6840  -13.6100   20.2770 C   0  0  0  0  0  1  0  0  0  0  0  0
  -28.8420  -13.7240   21.9430 C   0  0  0  0  0 15  0  0  0  0  0  0
  -30.7530  -13.4030   21.4590 N   0  0  0  0  0  2  0  0  0  0  0  0
  -32.0020  -15.0780   20.7620 O   0  0  0  0  0  1  0  0  0  0  0  0
  -25.3170  -14.0830   20.6960 C   0  0  0  0  0  0  0  0  0  0  0  0
  -24.2660  -13.2690   20.9530 C   0  0  0  0  0  0  0  0  0  0  0  0
  -24.7670  -11.9300   20.9570 C   0  0  0  0  0  0  0  0  0  0  0  0
  -26.3720  -13.2290   20.5660 N   0  0  0  0  0  0  0  0  0  0  0  0
  -26.0620  -11.9290   20.7220 N   0  0  0  0  0  0  0  0  0  0  0  0
  -24.0740  -10.6530   21.0950 C   0  0  0  0  0  0  0  0  0  0  0  0
  -24.4670   -9.6860   22.0470 C   0  0  0  0  0  3  0  0  0  0  0  0
  -23.7410   -8.4830   22.1770 C   0  0  0  0  0  3  0  0  0  0  0  0
  -22.6170   -8.2440   21.3490 C   0  0  0  0  0  0  0  0  0  0  0  0
  -22.2540   -9.1990   20.3840 C   0  0  0  0  0  3  0  0  0  0  0  0
  -22.9800  -10.3920   20.2530 C   0  0  0  0  0  3  0  0  0  0  0  0
  -21.8640   -7.0970   21.3800 O   0  0  0  0  0  0  0  0  0  0  0  0
  -21.7570   -6.3370   22.5150 C   0  0  0  0  0  0  0  0  0  0  0  0
  -21.2970   -6.8790   23.7340 C   0  0  0  0  0  3  0  0  0  0  0  0
  -21.1340   -6.0430   24.8570 C   0  0  0  0  0  3  0  0  0  0  0  0
  -21.4270   -4.6700   24.7620 C   0  0  0  0  0  0  0  0  0  0  0  0
  -21.8860   -4.1300   23.5480 C   0  0  0  0  0  3  0  0  0  0  0  0
  -22.0470   -4.9620   22.4270 C   0  0  0  0  0  0  0  0  0  0  0  0
  -22.4660   -4.4330   21.2510 F   0  0  0  0  0  0  0  0  0  0  0  0
  -21.2660   -3.8660   25.8390 F   0  0  0  0  0  0  0  0  0  0  0  0
  -22.8600  -13.7280   21.0920 C   0  0  0  0  0  0  0  0  0  0  0  0
  -22.0810  -13.0380   21.9100 N   0  0  0  0  0  0  0  0  0  0  0  0
  -22.4710  -14.7440   20.5160 O   0  0  0  0  0  0  0  0  0  0  0  0
  -22.4280  -12.2230   22.3950 H   0  0  0  0  0  0  0  0  0  0  0  0
  -21.1250  -13.3300   22.0640 H   0  0  0  0  0  0  0  0  0  0  0  0
  -25.4560  -15.4620   20.5500 N   0  0  0  0  0  0  0  0  0  0  0  0
  -24.6460  -16.0710   20.5960 H   0  0  0  0  0  0  0  0  0  0  0  0
  -26.3090  -15.9500   20.3040 H   0  0  0  0  0  0  0  0  0  0  0  0
  -29.6120  -11.5920   20.7920 C   0  0  1  0  0  0  0  0  0  0  0  0
  -30.4650  -11.0560   21.7590 F   0  0  0  0  0  0  0  0  0  0  0  0
  -28.5060  -11.1300   21.5670 F   0  0  0  0  0  0  0  0  0  0  0  0
  -29.7670  -10.4110   19.9780 F   0  0  0  0  0  0  0  0  0  0  0  0
  -28.9980  -19.5510   19.2860 C   0  0  0  0  0  2  0  0  0  0  0  0
  -28.0920  -20.8250   19.1700 C   0  0  0  0  0  2  0  0  0  0  0  0
  -28.6110  -22.1500   19.6850 N   0  0  2  0  0  4  0  0  0  0  0  0
  -29.2800  -22.4570   18.9940 H   0  0  0  0  0  0  0  0  0  0  0  0
  -28.5020  -21.6980   22.2000 C   0  0  0  0  0  1  0  0  0  0  0  0
  -30.3770  -23.1560   21.2520 C   0  0  0  0  0  1  0  0  0  0  0  0
  -29.3790  -22.0180   20.9720 C   0  0  0  0  0  3  0  0  0  0  0  0
  -27.4840  -23.1560   19.6820 C   0  0  0  0  0  2  0  0  0  0  0  0
  -27.7520  -24.6540   20.0560 C   0  0  0  0  0  2  0  0  0  0  0  0
  -28.1430  -25.6160   18.9040 C   0  0  0  0  0  2  0  0  0  0  0  0
  -28.1750  -26.9980   19.3250 O   0  0  0  0  0  0  0  0  0  0  0  0
  -24.6340  -31.8400   23.1910 C   0  0  0  0  0  0  0  0  0  0  0  0
  -26.9960  -27.7150   19.4730 C   0  0  0  0  0  0  0  0  0  0  0  0
  -23.3020  -30.6350   21.4950 C   0  0  0  0  0  3  0  0  0  0  0  0
  -24.6310  -29.2510   19.8120 C   0  0  0  0  0  0  0  0  0  0  0  0
  -25.8160  -30.9850   21.1630 C   0  0  0  0  0  2  0  0  0  0  0  0
  -25.8350  -29.6850   20.3810 C   0  0  0  0  0  0  0  0  0  0  0  0
  -27.0160  -28.9250   20.2090 C   0  0  0  0  0  3  0  0  0  0  0  0
  -25.7680  -27.2980   18.9080 C   0  0  0  0  0  3  0  0  0  0  0  0
  -24.5960  -28.0620   19.0680 C   0  0  0  0  0  3  0  0  0  0  0  0
  -23.4050  -30.1080   20.0390 C   0  0  0  0  0  2  0  0  0  0  0  0
  -24.6090  -31.1600   22.0080 N   0  0  0  0  0  0  0  0  0  0  0  0
  -23.5930  -32.0620   23.8260 O   0  0  0  0  0  0  0  0  0  0  0  0
  -22.6980  -29.5210   22.3830 C   0  0  0  0  0  0  0  0  0  0  0  0
  -21.3710  -29.3410   22.2980 N   0  0  0  0  0  0  0  0  0  0  0  0
  -23.4210  -28.8270   23.1040 O   0  0  0  0  0  0  0  0  0  0  0  0
  -20.8520  -29.9630   21.6930 H   0  0  0  0  0  0  0  0  0  0  0  0
  -18.0310  -28.0350   22.7730 C   0  0  0  0  0  0  0  0  0  0  0  0
  -20.5890  -28.3300   23.0070 C   0  0  0  0  0  3  0  0  0  0  0  0
  -20.7070  -26.9500   22.3210 C   0  0  0  0  0  2  0  0  0  0  0  0
  -19.5880  -26.6810   21.3080 C   0  0  0  0  0  2  0  0  0  0  0  0
  -18.2190  -26.7450   21.9920 C   0  0  0  0  0  2  0  0  0  0  0  0
  -19.1430  -28.7880   23.2350 C   0  0  0  0  0  0  0  0  0  0  0  0
  -18.9130  -29.9970   23.9270 C   0  0  0  0  0  3  0  0  0  0  0  0
  -17.6020  -30.4580   24.1540 C   0  0  0  0  0  3  0  0  0  0  0  0
  -16.5050  -29.7020   23.7050 C   0  0  0  0  0  3  0  0  0  0  0  0
  -16.7200  -28.4910   23.0240 C   0  0  0  0  0  3  0  0  0  0  0  0
  -25.9660  -32.3910   23.7880 C   0  0  0  0  0  3  0  0  0  0  0  0
  -25.6930  -33.7360   24.3090 N   0  0  0  0  0  0  0  0  0  0  0  0
  -26.0050  -34.8760   23.6760 C   0  0  0  0  0  0  0  0  0  0  0  0
  -26.6260  -34.9010   22.6100 O   0  0  0  0  0  0  0  0  0  0  0  0
  -25.1420  -33.7870   25.1530 H   0  0  0  0  0  0  0  0  0  0  0  0
  -24.2930  -36.7180   23.6340 C   0  0  0  0  0  1  0  0  0  0  0  0
  -25.5620  -36.2010   24.3310 C   0  0  0  0  0  3  0  0  0  0  0  0
  -27.7490  -36.9430   25.1620 C   0  0  0  0  0  1  0  0  0  0  0  0
  -26.6070  -37.2480   24.3040 N   0  0  0  0  0  0  0  0  0  0  0  0
  -26.2270  -38.1470   24.5880 H   0  0  0  0  0  0  0  0  0  0  0  0
  -26.5680  -31.4670   24.9170 C   0  0  1  0  0  0  0  0  0  0  0  0
  -25.5540  -31.1060   26.0290 C   0  0  0  0  0  1  0  0  0  0  0  0
  -27.1020  -30.1480   24.3110 C   0  0  0  0  0  1  0  0  0  0  0  0
  -27.7760  -32.1730   25.5780 C   0  0  0  0  0  1  0  0  0  0  0  0
  1 52  1  0
  2  3  1  0
  3  7  2  0
  4  5  2  0
  5  1  1  0
  5  7  1  0
  6  4  1  0
  6  2  2  0
  9  8  1  0
  9  4  1  0
 10  3  1  0
 10 12  1  0
 10 18  1  0
 48 11  1  6
 12 19  1  0
 12 18  1  0
 16 23  1  0
 20 21  2  0
 21 22  1  0
 21 40  1  0
 22 25  1  0
 23 20  1  0
 23 24  1  0
 24 22  2  0
 25 26  1  0
 26 27  2  0
 28 31  1  0
 28 27  1  0
 29 28  2  0
 30 29  1  0
 30 25  2  0
 31 32  1  0
 32 33  1  0
 33 34  2  0
 35 34  1  0
 35 39  1  0
 36 35  2  0
 37 32  2  0
 37 36  1  0
 38 37  1  0
 40 41  1  0
 41 44  1  0
 41 43  1  0
 42 40  2  0
 45 46  1  0
 45 20  1  0
 47 45  1  0
 48 50  1  0
 48 49  1  0
 51 48  1  0
 53 52  1  0
 53 54  1  0
 54 58  1  0
 54 55  1  6
 58 57  1  0
 58 56  1  0
 59 54  1  0
 59 60  1  0
 61 62  1  0
 61 60  1  0
 62 64  1  0
 63 74  2  0
 64 69  1  0
 65 73  1  0
 65 75  1  0
 66 72  1  0
 66 68  1  0
 67 73  1  0
 68 67  1  0
 69 68  2  0
 70 71  1  0
 70 64  2  0
 71 66  2  0
 72 65  1  0
 73 63  1  0
 75 77  2  0
 76 75  1  0
 78 76  1  0
 79 88  2  0
 79 84  1  0
 80 76  1  0
 80 84  1  0
 81 80  1  0
 82 83  1  0
 82 81  1  0
 83 79  1  0
 84 85  2  0
 85 86  1  0
 87 86  2  0
 88 87  1  0
 89 63  1  0
 89 90  1  0
 89 99  1  0
 90 93  1  0
 91 90  1  0
 91 95  1  0
 92 91  2  0
 95 94  1  0
 97 95  1  0
 97 98  1  0
 97 96  1  0
 99102  1  1
 99100  1  0
101 99  1  0
M  ISO  4  10 100  12 100  61 101  62 101
M  END
>  <TORSDO>  (37) 
F 27

>  <SCORE>  (37) 
-10.715

>  <name>  (37) 
38

>  <ligand_id>  (37) 
38

>  <original_smiles>  (37) 
[H]c1nc(C([H])([H])C([H])([H])[H])c(C([H])([H])C([H])([H])C([H])([H])[N+]([H])(C([H])([H])C([H])([H])C([H])([H])Oc2c([H])c([H])c3c(c2[H])C([H])([H])N(C(=O)C([H])(N([H])C(=O)C([H])(N([H])C([H])([H])[H])C([H])([H])[H])C(C([H])([H])[H])(C([H])([H])[H])C([H])([H])[H])C([H])(C(=O)N([H])C2([H])c4c([H])c([H])c([H])c([H])c4C([H])([H])C([H])([H])C2([H])[H])C3([H])[H])C([H])(C([H])([H])[H])C([H])([H])[H])nc1C(F)(C(=O)N1C([H])([H])C([H])([H])C([H])([H])C([H])(n2nc(-c3c([H])c([H])c(Oc4c([H])c([H])c(F)c([H])c4F)c([H])c3[H])c(C(=O)N([H])[H])c2N([H])[H])C1([H])[H])C(F)(F)F

>  <smiles>  (37) 
[H]c1nc(C([H])([H])C([H])([H])[H])c(C([H])([H])C([H])([H])C([H])([H])[N+]([H])(C([H])([H])C([H])([H])C([H])([H])Oc2c([H])c([H])c3c(c2[H])C([H])([H])N(C(=O)C([H])(N([H])C(=O)C([H])(N([H])C([H])([H])[H])C([H])([H])[H])C(C([H])([H])[H])(C([H])([H])[H])C([H])([H])[H])C([H])(C(=O)N([H])C2([H])c4c([H])c([H])c([H])c([H])c4C([H])([H])C([H])([H])C2([H])[H])C3([H])[H])C([H])(C([H])([H])[H])C([H])([H])[H])nc1C(F)(C(=O)N1C([H])([H])C([H])([H])C([H])([H])C([H])(n2nc(-c3c([H])c([H])c(Oc4c([H])c([H])c(F)c([H])c4F)c([H])c3[H])c(C(=O)N([H])[H])c2N([H])[H])C1([H])[H])C(F)(F)F

$$$$
39:0:0
     RDKit          3D

 95103  0  0  1  0  0  0  0  0999 V2000
  -28.9990  -19.8810   19.6100 C   0  0  0  0  0  3  0  0  0  0  0  0
  -30.0650  -19.4560   21.3530 C   0  0  0  0  0  3  0  0  0  0  0  0
  -29.0110  -21.2060   20.2320 C   0  0  0  0  0  0  0  0  0  0  0  0
  -29.7570  -20.8020   21.3730 N   0  0  0  0  0  0  0  0  0  0  0  0
  -29.6450  -18.6920   20.3100 N   0  0  0  0  0  0  0  0  0  0  0  0
  -27.2000  -22.4600   18.8870 C   0  0  0  0  0  1  0  0  0  0  0  0
  -27.2830  -22.8490   21.3240 C   0  0  0  0  0  1  0  0  0  0  0  0
  -28.1600  -22.7500   20.0600 C   0  0  1  0  0  0  0  0  0  0  0  0
  -28.6280  -24.4560   19.6940 C   0  0  0  0  0  2  0  0  0  0  0  0
  -28.3250  -26.0390   20.1120 O   0  0  0  0  0  0  0  0  0  0  0  0
  -24.6780  -31.8990   23.0990 C   0  0  0  0  0  0  0  0  0  0  0  0
  -27.2660  -27.0820   19.9800 C   0  0  0  0  0  0  0  0  0  0  0  0
  -23.4750  -30.5000   21.4620 C   0  0  0  0  0  3  0  0  0  0  0  0
  -24.9270  -28.9170   20.0010 C   0  0  0  0  0  0  0  0  0  0  0  0
  -26.0370  -30.7420   21.2830 C   0  0  0  0  0  2  0  0  0  0  0  0
  -26.1150  -29.3400   20.6060 C   0  0  0  0  0  0  0  0  0  0  0  0
  -27.2690  -28.4370   20.5790 C   0  0  0  0  0  3  0  0  0  0  0  0
  -26.0460  -26.8040   19.3290 C   0  0  0  0  0  3  0  0  0  0  0  0
  -24.9160  -27.6690   19.3490 C   0  0  0  0  0  3  0  0  0  0  0  0
  -23.6960  -29.8200   20.0790 C   0  0  0  0  0  2  0  0  0  0  0  0
  -24.7520  -31.0720   22.0030 N   0  0  0  0  0  0  0  0  0  0  0  0
  -23.5930  -32.1730   23.6360 O   0  0  0  0  0  0  0  0  0  0  0  0
  -22.8060  -29.4920   22.4310 C   0  0  0  0  0  0  0  0  0  0  0  0
  -21.4750  -29.3220   22.3340 N   0  0  0  0  0  0  0  0  0  0  0  0
  -23.4920  -28.8600   23.2400 O   0  0  0  0  0  0  0  0  0  0  0  0
  -20.9690  -29.8860   21.6660 H   0  0  0  0  0  0  0  0  0  0  0  0
  -18.1120  -28.0860   22.9050 C   0  0  0  0  0  0  0  0  0  0  0  0
  -20.6770  -28.3670   23.1100 C   0  0  0  0  0  3  0  0  0  0  0  0
  -20.7710  -26.9410   22.5140 C   0  0  0  0  0  2  0  0  0  0  0  0
  -19.6490  -26.6260   21.5200 C   0  0  0  0  0  2  0  0  0  0  0  0
  -18.2820  -26.7510   22.2000 C   0  0  0  0  0  2  0  0  0  0  0  0
  -19.2360  -28.8510   23.3210 C   0  0  0  0  0  0  0  0  0  0  0  0
  -19.0210  -30.0980   23.9460 C   0  0  0  0  0  3  0  0  0  0  0  0
  -17.7150  -30.5850   24.1500 C   0  0  0  0  0  3  0  0  0  0  0  0
  -16.6080  -29.8170   23.7510 C   0  0  0  0  0  3  0  0  0  0  0  0
  -16.8070  -28.5680   23.1370 C   0  0  0  0  0  3  0  0  0  0  0  0
  -25.9500  -32.5510   23.7180 C   0  0  0  0  0  3  0  0  0  0  0  0
  -25.6160  -33.9350   24.1040 N   0  0  0  0  0  0  0  0  0  0  0  0
  -25.9270  -35.0260   23.3910 C   0  0  0  0  0  0  0  0  0  0  0  0
  -26.5910  -34.9750   22.3530 O   0  0  0  0  0  0  0  0  0  0  0  0
  -25.0300  -34.0480   24.9190 H   0  0  0  0  0  0  0  0  0  0  0  0
  -24.1880  -36.8240   23.1100 C   0  0  0  0  0  1  0  0  0  0  0  0
  -25.4270  -36.3910   23.9100 C   0  0  0  0  0  3  0  0  0  0  0  0
  -27.5470  -37.2560   24.7970 C   0  0  0  0  0  1  0  0  0  0  0  0
  -26.4520  -37.4560   23.8500 N   0  0  0  0  0  0  0  0  0  0  0  0
  -26.0370  -38.3650   24.0360 H   0  0  0  0  0  0  0  0  0  0  0  0
  -26.5050  -31.7640   24.9700 C   0  0  1  0  0  0  0  0  0  0  0  0
  -25.4380  -31.4890   26.0550 C   0  0  0  0  0  1  0  0  0  0  0  0
  -27.1020  -30.4020   24.5480 C   0  0  0  0  0  1  0  0  0  0  0  0
  -27.6570  -32.5620   25.6290 C   0  0  0  0  0  1  0  0  0  0  0  0
  -29.8970  -17.0600   19.8710 C   0  0  2  0  0  0  0  0  0  0  0  0
  -30.4560  -15.5380   20.6750 C   0  0  0  0  0  0  0  0  0  0  0  0
  -30.5810  -13.0070   20.0770 C   0  0  0  0  0  2  0  0  0  0  0  0
  -29.7840  -12.5660   18.8250 C   0  0  0  0  0  2  0  0  0  0  0  0
  -28.3200  -12.2560   19.1860 C   0  0  0  0  0  2  0  0  0  0  0  0
  -27.7040  -13.3070   20.1360 C   0  0  0  0  0  3  0  0  0  0  0  0
  -28.6550  -13.7050   21.2860 C   0  0  0  0  0  2  0  0  0  0  0  0
  -29.9060  -14.2130   20.6810 N   0  0  0  0  0  0  0  0  0  0  0  0
  -31.6680  -15.4560   20.9420 O   0  0  0  0  0  0  0  0  0  0  0  0
  -25.2810  -13.8290   20.7450 C   0  0  0  0  0  0  0  0  0  0  0  0
  -24.2120  -13.0360   21.0340 C   0  0  0  0  0  0  0  0  0  0  0  0
  -24.7100  -11.6990   21.0550 C   0  0  0  0  0  0  0  0  0  0  0  0
  -26.3600  -12.9760   20.5880 N   0  0  0  0  0  0  0  0  0  0  0  0
  -26.0230  -11.6870   20.8420 N   0  0  0  0  0  0  0  0  0  0  0  0
  -23.9990  -10.4240   21.1990 C   0  0  0  0  0  0  0  0  0  0  0  0
  -24.3830   -9.4710   22.1670 C   0  0  0  0  0  3  0  0  0  0  0  0
  -23.6670   -8.2620   22.2980 C   0  0  0  0  0  3  0  0  0  0  0  0
  -22.5550   -8.0010   21.4620 C   0  0  0  0  0  0  0  0  0  0  0  0
  -22.1920   -8.9450   20.4860 C   0  0  0  0  0  3  0  0  0  0  0  0
  -22.9070  -10.1450   20.3520 C   0  0  0  0  0  3  0  0  0  0  0  0
  -21.8160   -6.8450   21.5020 O   0  0  0  0  0  0  0  0  0  0  0  0
  -21.7050   -6.1040   22.6520 C   0  0  0  0  0  0  0  0  0  0  0  0
  -21.1730   -6.6520   23.8390 C   0  0  0  0  0  3  0  0  0  0  0  0
  -21.0110   -5.8380   24.9780 C   0  0  0  0  0  3  0  0  0  0  0  0
  -21.3720   -4.4780   24.9270 C   0  0  0  0  0  0  0  0  0  0  0  0
  -21.8980   -3.9300   23.7440 C   0  0  0  0  0  3  0  0  0  0  0  0
  -22.0620   -4.7420   22.6080 C   0  0  0  0  0  0  0  0  0  0  0  0
  -22.5520   -4.2070   21.4630 F   0  0  0  0  0  0  0  0  0  0  0  0
  -21.2100   -3.6930   26.0180 F   0  0  0  0  0  0  0  0  0  0  0  0
  -22.7900  -13.4910   21.1870 C   0  0  0  0  0  0  0  0  0  0  0  0
  -22.0060  -12.7970   22.0020 N   0  0  0  0  0  0  0  0  0  0  0  0
  -22.3790  -14.5000   20.6140 O   0  0  0  0  0  0  0  0  0  0  0  0
  -22.3440  -11.9800   22.4890 H   0  0  0  0  0  0  0  0  0  0  0  0
  -21.0540  -13.0970   22.1520 H   0  0  0  0  0  0  0  0  0  0  0  0
  -25.4030  -15.2020   20.5640 N   0  0  0  0  0  0  0  0  0  0  0  0
  -24.5940  -15.8120   20.6050 H   0  0  0  0  0  0  0  0  0  0  0  0
  -26.2480  -15.6920   20.2960 H   0  0  0  0  0  0  0  0  0  0  0  0
  -31.0120  -17.2320   18.7730 C   0  0  1  0  0  0  0  0  0  0  0  0
  -32.1340  -17.7050   19.3240 F   0  0  0  0  0  0  0  0  0  0  0  0
  -31.3230  -16.0930   18.1480 F   0  0  0  0  0  0  0  0  0  0  0  0
  -30.6700  -18.1040   17.8200 F   0  0  0  0  0  0  0  0  0  0  0  0
  -28.5920  -16.6710   19.1290 C   0  0  2  0  0  0  0  0  0  0  0  0
  -28.2120  -17.5130   18.1720 F   0  0  0  0  0  0  0  0  0  0  0  0
  -27.6180  -16.6410   20.0320 F   0  0  0  0  0  0  0  0  0  0  0  0
  -28.6770  -15.4880   18.5260 F   0  0  0  0  0  0  0  0  0  0  0  0
  1  3  2  0
  1  5  1  0
  2  4  2  0
  3  4  1  0
  5  2  1  0
  8  6  1  6
  8  3  1  0
  8  7  1  0
  9  8  1  0
  9 10  1  0
 11 22  2  0
 12 10  1  0
 12 17  1  0
 13 21  1  0
 13 23  1  0
 14 20  1  0
 14 16  1  0
 15 21  1  0
 16 15  1  0
 17 16  2  0
 18 19  1  0
 18 12  2  0
 19 14  2  0
 20 13  1  0
 21 11  1  0
 23 25  2  0
 24 23  1  0
 26 24  1  0
 27 36  2  0
 27 32  1  0
 28 24  1  0
 28 32  1  0
 29 28  1  0
 30 31  1  0
 30 29  1  0
 31 27  1  0
 32 33  2  0
 33 34  1  0
 35 34  2  0
 36 35  1  0
 37 11  1  0
 37 38  1  0
 37 47  1  0
 38 41  1  0
 39 43  1  0
 39 38  1  0
 40 39  2  0
 43 42  1  0
 45 43  1  0
 45 46  1  0
 45 44  1  0
 47 50  1  1
 47 48  1  0
 49 47  1  0
 51  5  1  1
 51 52  1  0
 52 58  1  0
 52 59  2  0
 53 58  1  0
 54 55  1  0
 54 53  1  0
 56 55  1  0
 56 63  1  0
 56 57  1  0
 58 57  1  0
 60 61  2  0
 61 62  1  0
 61 80  1  0
 62 65  1  0
 63 60  1  0
 63 64  1  0
 64 62  2  0
 65 66  1  0
 66 67  2  0
 68 71  1  0
 68 67  1  0
 69 68  2  0
 70 69  1  0
 70 65  2  0
 71 72  1  0
 72 73  1  0
 73 74  2  0
 75 74  1  0
 75 79  1  0
 76 75  2  0
 77 72  2  0
 77 76  1  0
 78 77  1  0
 80 81  1  0
 81 84  1  0
 81 83  1  0
 82 80  2  0
 85 86  1  0
 85 60  1  0
 87 85  1  0
 88 89  1  1
 88 51  1  0
 90 88  1  0
 91 88  1  0
 92 51  1  0
 92 94  1  1
 93 92  1  0
 95 92  1  0
M  ISO  4   9 101  10 101  51 100  52 100
M  END
>  <TORSDO>  (38) 
F 21

>  <SCORE>  (38) 
-16.010

>  <name>  (38) 
39

>  <ligand_id>  (38) 
39

>  <original_smiles>  (38) 
[H]c1c([H])c([H])c2c(c1[H])C([H])([H])C([H])([H])C([H])([H])C2([H])N([H])C(=O)C1([H])N(C(=O)C([H])(N([H])C(=O)C([H])(N([H])C([H])([H])[H])C([H])([H])[H])C(C([H])([H])[H])(C([H])([H])[H])C([H])([H])[H])C([H])([H])c2c([H])c(OC([H])([H])C(c3nc([H])n(C(C(=O)N4C([H])([H])C([H])([H])C([H])([H])C([H])(n5nc(-c6c([H])c([H])c(Oc7c([H])c([H])c(F)c([H])c7F)c([H])c6[H])c(C(=O)N([H])[H])c5N([H])[H])C4([H])[H])(C(F)(F)F)C(F)(F)F)c3[H])(C([H])([H])[H])C([H])([H])[H])c([H])c([H])c2C1([H])[H]

>  <smiles>  (38) 
[H]c1c([H])c([H])c2c(c1[H])C([H])([H])C([H])([H])C([H])([H])C2([H])N([H])C(=O)C1([H])N(C(=O)C([H])(N([H])C(=O)C([H])(N([H])C([H])([H])[H])C([H])([H])[H])C(C([H])([H])[H])(C([H])([H])[H])C([H])([H])[H])C([H])([H])c2c([H])c(OC([H])([H])C(c3nc([H])n(C(C(=O)N4C([H])([H])C([H])([H])C([H])([H])C([H])(n5nc(-c6c([H])c([H])c(Oc7c([H])c([H])c(F)c([H])c7F)c([H])c6[H])c(C(=O)N([H])[H])c5N([H])[H])C4([H])[H])(C(F)(F)F)C(F)(F)F)c3[H])(C([H])([H])[H])C([H])([H])[H])c([H])c([H])c2C1([H])[H]

$$$$
40:0:0
     RDKit          3D

100108  0  0  1  0  0  0  0  0999 V2000
  -30.0800  -20.9500   20.8560 C   0  0  0  0  0  0  0  0  0  0  0  0
  -30.5020  -18.9030   20.0840 C   0  0  0  0  0  0  0  0  0  0  0  0
  -30.7180  -20.2360   21.8020 N   0  0  0  0  0  0  0  0  0  0  0  0
  -31.0070  -18.9850   21.3180 N   0  0  0  0  0  0  0  0  0  0  0  0
  -29.8720  -20.1340   19.7510 N   0  0  0  0  0  0  0  0  0  0  0  0
  -29.0940  -22.3990   22.6480 C   0  0  0  0  0  1  0  0  0  0  0  0
  -31.1120  -23.1830   21.3540 C   0  0  0  0  0  1  0  0  0  0  0  0
  -29.7340  -22.4830   21.2370 C   0  0  1  0  0  0  0  0  0  0  0  0
  -28.8400  -23.5560   20.3780 C   0  0  0  0  0  2  0  0  0  0  0  0
  -28.7020  -25.1150   20.8860 C   0  0  0  0  0  2  0  0  0  0  0  0
  -28.5760  -26.3250   20.0250 O   0  0  0  0  0  0  0  0  0  0  0  0
  -24.6090  -31.6590   22.9770 C   0  0  0  0  0  0  0  0  0  0  0  0
  -27.4310  -27.1370   20.0570 C   0  0  0  0  0  0  0  0  0  0  0  0
  -23.4860  -30.2000   21.3300 C   0  0  0  0  0  3  0  0  0  0  0  0
  -25.0140  -28.6740   19.9590 C   0  0  0  0  0  0  0  0  0  0  0  0
  -26.0130  -30.6020   21.1880 C   0  0  0  0  0  2  0  0  0  0  0  0
  -26.1540  -29.2120   20.5740 C   0  0  0  0  0  0  0  0  0  0  0  0
  -27.3640  -28.4530   20.6190 C   0  0  0  0  0  3  0  0  0  0  0  0
  -26.2730  -26.6540   19.4140 C   0  0  0  0  0  3  0  0  0  0  0  0
  -25.0740  -27.4000   19.3710 C   0  0  0  0  0  3  0  0  0  0  0  0
  -23.7510  -29.5080   19.9670 C   0  0  0  0  0  2  0  0  0  0  0  0
  -24.7180  -30.8420   21.8900 N   0  0  0  0  0  0  0  0  0  0  0  0
  -23.5080  -31.9060   23.4960 O   0  0  0  0  0  0  0  0  0  0  0  0
  -22.8420  -29.1790   22.2950 C   0  0  0  0  0  0  0  0  0  0  0  0
  -21.5200  -28.9730   22.1660 N   0  0  0  0  0  0  0  0  0  0  0  0
  -23.5320  -28.5740   23.1180 O   0  0  0  0  0  0  0  0  0  0  0  0
  -21.0190  -29.5010   21.4680 H   0  0  0  0  0  0  0  0  0  0  0  0
  -18.1650  -27.7450   22.7310 C   0  0  0  0  0  0  0  0  0  0  0  0
  -20.7280  -28.0190   22.9440 C   0  0  0  0  0  3  0  0  0  0  0  0
  -20.8290  -26.5970   22.3470 C   0  0  0  0  0  2  0  0  0  0  0  0
  -19.7080  -26.2820   21.3520 C   0  0  0  0  0  2  0  0  0  0  0  0
  -18.3380  -26.4080   22.0260 C   0  0  0  0  0  2  0  0  0  0  0  0
  -19.2890  -28.5050   23.1490 C   0  0  0  0  0  0  0  0  0  0  0  0
  -19.0760  -29.7550   23.7720 C   0  0  0  0  0  3  0  0  0  0  0  0
  -17.7730  -30.2450   23.9790 C   0  0  0  0  0  3  0  0  0  0  0  0
  -16.6630  -29.4830   23.5740 C   0  0  0  0  0  3  0  0  0  0  0  0
  -16.8600  -28.2340   22.9570 C   0  0  0  0  0  3  0  0  0  0  0  0
  -25.8580  -32.3440   23.6100 C   0  0  0  0  0  3  0  0  0  0  0  0
  -26.4690  -31.5350   24.8180 C   0  0  1  0  0  0  0  0  0  0  0  0
  -25.4190  -31.1120   25.8730 C   0  0  0  0  0  1  0  0  0  0  0  0
  -27.1810  -30.2560   24.3200 C   0  0  0  0  0  1  0  0  0  0  0  0
  -27.5470  -32.3880   25.5290 C   0  0  0  0  0  1  0  0  0  0  0  0
  -25.4610  -33.6900   24.0450 N   0  0  0  0  0  0  0  0  0  0  0  0
  -25.6910  -34.8140   23.3540 C   0  0  0  0  0  0  0  0  0  0  0  0
  -26.3290  -34.8310   22.3000 O   0  0  0  0  0  0  0  0  0  0  0  0
  -24.8900  -33.7470   24.8750 H   0  0  0  0  0  0  0  0  0  0  0  0
  -23.8280  -36.4890   23.1820 C   0  0  0  0  0  1  0  0  0  0  0  0
  -25.1220  -36.1270   23.9260 C   0  0  0  0  0  3  0  0  0  0  0  0
  -27.2150  -37.1080   24.7520 C   0  0  0  0  0  1  0  0  0  0  0  0
  -26.0710  -37.2580   23.8560 N   0  0  0  0  0  0  0  0  0  0  0  0
  -25.6070  -38.1340   24.0840 H   0  0  0  0  0  0  0  0  0  0  0  0
  -27.6950  -20.8060   18.5400 C   0  0  0  0  0  1  0  0  0  0  0  0
  -29.2210  -20.5710   18.5040 C   0  0  0  0  0  2  0  0  0  0  0  0
  -30.7490  -17.5350   19.2490 C   0  0  1  0  0  0  0  0  0  0  0  0
  -32.1140  -17.6760   18.4890 C   0  0  2  0  0  0  0  0  0  0  0  0
  -33.1040  -17.8400   19.3660 F   0  0  0  0  0  0  0  0  0  0  0  0
  -32.1380  -18.7110   17.6600 F   0  0  0  0  0  0  0  0  0  0  0  0
  -32.4150  -16.6250   17.7320 F   0  0  0  0  0  0  0  0  0  0  0  0
  -30.8570  -16.1050   20.0910 C   0  0  0  0  0  2  0  0  0  0  0  0
  -31.2490  -14.6240   19.5360 C   0  0  0  0  0  0  0  0  0  0  0  0
  -30.9490  -12.2020   18.9160 C   0  0  0  0  0  2  0  0  0  0  0  0
  -29.9290  -12.0670   17.7640 C   0  0  0  0  0  2  0  0  0  0  0  0
  -28.5010  -11.9610   18.3240 C   0  0  0  0  0  2  0  0  0  0  0  0
  -28.2120  -13.0260   19.4140 C   0  0  0  0  0  3  0  0  0  0  0  0
  -29.3560  -13.1550   20.4480 C   0  0  0  0  0  2  0  0  0  0  0  0
  -30.6010  -13.4100   19.7190 N   0  0  0  0  0  0  0  0  0  0  0  0
  -32.3020  -14.5900   18.8900 O   0  0  0  0  0  0  0  0  0  0  0  0
  -25.9750  -13.7590   20.4340 C   0  0  0  0  0  0  0  0  0  0  0  0
  -24.9150  -13.0570   20.9220 C   0  0  0  0  0  0  0  0  0  0  0  0
  -25.2390  -11.6780   20.7350 C   0  0  0  0  0  0  0  0  0  0  0  0
  -26.9130  -12.8180   20.0400 N   0  0  0  0  0  0  0  0  0  0  0  0
  -26.4750  -11.5530   20.2650 N   0  0  0  0  0  0  0  0  0  0  0  0
  -24.4180  -10.4780   20.9170 C   0  0  0  0  0  0  0  0  0  0  0  0
  -24.8030   -9.4470   21.8010 C   0  0  0  0  0  3  0  0  0  0  0  0
  -23.9850   -8.3110   21.9720 C   0  0  0  0  0  3  0  0  0  0  0  0
  -22.7680   -8.1990   21.2600 C   0  0  0  0  0  0  0  0  0  0  0  0
  -22.3980   -9.2200   20.3650 C   0  0  0  0  0  3  0  0  0  0  0  0
  -23.2160  -10.3470   20.1920 C   0  0  0  0  0  3  0  0  0  0  0  0
  -21.9220   -7.1210   21.3480 O   0  0  0  0  0  0  0  0  0  0  0  0
  -21.7410   -6.4420   22.5280 C   0  0  0  0  0  0  0  0  0  0  0  0
  -21.2820   -7.0900   23.6940 C   0  0  0  0  0  3  0  0  0  0  0  0
  -21.0440   -6.3450   24.8660 C   0  0  0  0  0  3  0  0  0  0  0  0
  -21.2540   -4.9540   24.8700 C   0  0  0  0  0  0  0  0  0  0  0  0
  -21.7060   -4.3040   23.7070 C   0  0  0  0  0  3  0  0  0  0  0  0
  -21.9460   -5.0480   22.5370 C   0  0  0  0  0  0  0  0  0  0  0  0
  -22.3620   -4.4160   21.4130 F   0  0  0  0  0  0  0  0  0  0  0  0
  -21.0150   -4.2350   25.9920 F   0  0  0  0  0  0  0  0  0  0  0  0
  -23.6210  -13.6350   21.4170 C   0  0  0  0  0  0  0  0  0  0  0  0
  -22.9570  -12.9490   22.3380 N   0  0  0  0  0  0  0  0  0  0  0  0
  -23.2170  -14.7320   21.0270 O   0  0  0  0  0  0  0  0  0  0  0  0
  -23.2990  -12.0590   22.6690 H   0  0  0  0  0  0  0  0  0  0  0  0
  -22.1000  -13.3230   22.7170 H   0  0  0  0  0  0  0  0  0  0  0  0
  -26.1830  -15.1180   20.2460 N   0  0  0  0  0  0  0  0  0  0  0  0
  -25.4630  -15.8000   20.4540 H   0  0  0  0  0  0  0  0  0  0  0  0
  -26.9100  -15.4840   19.6500 H   0  0  0  0  0  0  0  0  0  0  0  0
  -29.5520  -17.3580   18.2630 C   0  0  0  0  0  2  0  0  0  0  0  0
  -27.0840  -17.7500   17.7200 C   0  0  0  0  0  1  0  0  0  0  0  0
  -27.7700  -17.8530   20.1290 C   0  0  0  0  0  1  0  0  0  0  0  0
  -28.0750  -17.2150   18.7670 C   0  0  2  0  0  0  0  0  0  0  0  0
  -27.7680  -15.9250   18.8900 F   0  0  0  0  0  0  0  0  0  0  0  0
  1  8  1  0
  1  3  2  0
  2  4  2  0
  4  3  1  0
  5  2  1  0
  5  1  1  0
  8  7  1  1
  8  6  1  0
  9 10  1  0
  9  8  1  0
 11 13  1  0
 11 10  1  0
 12 23  2  0
 13 18  1  0
 14 22  1  0
 14 24  1  0
 15 21  1  0
 15 17  1  0
 16 22  1  0
 17 18  2  0
 17 16  1  0
 19 13  2  0
 20 19  1  0
 20 15  2  0
 21 14  1  0
 22 12  1  0
 24 26  2  0
 25 24  1  0
 27 25  1  0
 28 37  2  0
 28 33  1  0
 29 25  1  0
 29 33  1  0
 30 29  1  0
 31 32  1  0
 31 30  1  0
 32 28  1  0
 33 34  2  0
 34 35  1  0
 36 35  2  0
 37 36  1  0
 38 12  1  0
 38 43  1  0
 38 39  1  0
 39 42  1  1
 39 40  1  0
 41 39  1  0
 43 46  1  0
 44 48  1  0
 44 43  1  0
 45 44  2  0
 48 47  1  0
 50 48  1  0
 50 51  1  0
 50 49  1  0
 53 52  1  0
 53  5  1  0
 54 96  1  6
 54  2  1  0
 54 59  1  0
 55 54  1  0
 55 56  1  1
 57 55  1  0
 58 55  1  0
 60 66  1  0
 60 59  1  0
 61 66  1  0
 62 63  1  0
 62 61  1  0
 64 63  1  0
 64 71  1  0
 64 65  1  0
 66 65  1  0
 67 60  2  0
 68 69  2  0
 69 88  1  0
 70 73  1  0
 70 69  1  0
 71 72  1  0
 71 68  1  0
 72 70  2  0
 73 74  1  0
 74 75  2  0
 76 79  1  0
 76 75  1  0
 77 76  2  0
 78 77  1  0
 78 73  2  0
 79 80  1  0
 80 85  2  0
 80 81  1  0
 81 82  2  0
 82 83  1  0
 83 87  1  0
 84 83  2  0
 85 84  1  0
 86 85  1  0
 88 89  1  0
 89 91  1  0
 89 92  1  0
 90 88  2  0
 93 68  1  0
 93 94  1  0
 95 93  1  0
 96 99  1  0
 99 97  1  6
 99100  1  0
 99 98  1  0
M  ISO  4  10 101  11 101  59 100  60 100
M  END
>  <TORSDO>  (39) 
F 25

>  <SCORE>  (39) 
-10.999

>  <name>  (39) 
40

>  <ligand_id>  (39) 
40

>  <original_smiles>  (39) 
[H]c1c([H])c([H])c2c(c1[H])C([H])([H])C([H])([H])C([H])([H])C2([H])N([H])C(=O)C1([H])N(C(=O)C([H])(N([H])C(=O)C([H])(N([H])C([H])([H])[H])C([H])([H])[H])C(C([H])([H])[H])(C([H])([H])[H])C([H])([H])[H])C([H])([H])c2c([H])c(OC([H])([H])C([H])([H])C(c3nnc(C(C(F)(F)F)(C([H])([H])C(=O)N4C([H])([H])C([H])([H])C([H])([H])C([H])(n5nc(-c6c([H])c([H])c(Oc7c([H])c([H])c(F)c([H])c7F)c([H])c6[H])c(C(=O)N([H])[H])c5N([H])[H])C4([H])[H])C([H])([H])C(F)(C([H])([H])[H])C([H])([H])[H])n3C([H])([H])C([H])([H])[H])(C([H])([H])[H])C([H])([H])[H])c([H])c([H])c2C1([H])[H]

>  <smiles>  (39) 
[H]c1c([H])c([H])c2c(c1[H])C([H])([H])C([H])([H])C([H])([H])C2([H])N([H])C(=O)C1([H])N(C(=O)C([H])(N([H])C(=O)C([H])(N([H])C([H])([H])[H])C([H])([H])[H])C(C([H])([H])[H])(C([H])([H])[H])C([H])([H])[H])C([H])([H])c2c([H])c(OC([H])([H])C([H])([H])C(c3nnc(C(C(F)(F)F)(C([H])([H])C(=O)N4C([H])([H])C([H])([H])C([H])([H])C([H])(n5nc(-c6c([H])c([H])c(Oc7c([H])c([H])c(F)c([H])c7F)c([H])c6[H])c(C(=O)N([H])[H])c5N([H])[H])C4([H])[H])C([H])([H])C(F)(C([H])([H])[H])C([H])([H])[H])n3C([H])([H])C([H])([H])[H])(C([H])([H])[H])C([H])([H])[H])c([H])c([H])c2C1([H])[H]

$$$$
41:0:0
     RDKit          3D

 96104  0  0  1  0  0  0  0  0999 V2000
  -31.0360  -18.7880   21.6070 C   0  0  0  0  0  3  0  0  0  0  0  0
  -31.4940  -20.0730   21.9900 C   0  0  0  0  0  0  0  0  0  0  0  0
  -29.9710  -18.9620   20.7670 C   0  0  0  0  0  0  0  0  0  0  0  0
  -30.7530  -21.0280   21.4510 N   0  0  0  0  0  0  0  0  0  0  0  0
  -29.7520  -20.4640   20.7200 N   0  0  0  0  0  0  0  0  0  0  0  0
  -32.7550  -21.8150   23.3570 C   0  0  0  0  0  1  0  0  0  0  0  0
  -33.9720  -20.2730   21.8090 C   0  0  0  0  0  1  0  0  0  0  0  0
  -32.9750  -19.3790   23.9240 C   0  0  0  0  0  1  0  0  0  0  0  0
  -32.7730  -20.3880   22.7670 C   0  0  2  0  0  0  0  0  0  0  0  0
  -29.8030  -17.5330   18.6200 C   0  0  0  0  0  1  0  0  0  0  0  0
  -27.8520  -17.6570   20.1520 C   0  0  0  0  0  1  0  0  0  0  0  0
  -29.3870  -17.5840   20.1030 C   0  0  2  0  0  0  0  0  0  0  0  0
  -30.5000  -14.9840   20.4070 C   0  0  0  0  0  0  0  0  0  0  0  0
  -30.4440  -12.6160   19.4980 C   0  0  0  0  0  2  0  0  0  0  0  0
  -29.5320  -12.5680   18.2510 C   0  0  0  0  0  2  0  0  0  0  0  0
  -28.0670  -12.3310   18.6510 C   0  0  0  0  0  2  0  0  0  0  0  0
  -27.6340  -13.2460   19.8310 C   0  0  0  0  0  3  0  0  0  0  0  0
  -28.6700  -13.2680   20.9770 C   0  0  0  0  0  2  0  0  0  0  0  0
  -29.9510  -13.6980   20.4020 N   0  0  0  0  0  0  0  0  0  0  0  0
  -31.6690  -15.0940   20.0150 O   0  0  0  0  0  0  0  0  0  0  0  0
  -29.6780  -16.1160   20.6780 N   0  0  0  0  0  0  0  0  0  0  0  0
  -28.8680  -15.8020   21.1910 H   0  0  0  0  0  0  0  0  0  0  0  0
  -25.2470  -13.8090   20.5620 C   0  0  0  0  0  0  0  0  0  0  0  0
  -24.1790  -13.0330   20.9130 C   0  0  0  0  0  0  0  0  0  0  0  0
  -24.6430  -11.6830   20.8640 C   0  0  0  0  0  0  0  0  0  0  0  0
  -26.2910  -12.9350   20.3120 N   0  0  0  0  0  0  0  0  0  0  0  0
  -25.9380  -11.6470   20.5600 N   0  0  0  0  0  0  0  0  0  0  0  0
  -23.9110  -10.4230   21.0330 C   0  0  0  0  0  0  0  0  0  0  0  0
  -24.3650   -9.4170   21.9140 C   0  0  0  0  0  3  0  0  0  0  0  0
  -23.6300   -8.2230   22.0750 C   0  0  0  0  0  3  0  0  0  0  0  0
  -22.4270   -8.0290   21.3540 C   0  0  0  0  0  0  0  0  0  0  0  0
  -21.9920   -9.0220   20.4610 C   0  0  0  0  0  3  0  0  0  0  0  0
  -22.7280  -10.2080   20.2990 C   0  0  0  0  0  3  0  0  0  0  0  0
  -21.6660   -6.8870   21.4230 O   0  0  0  0  0  0  0  0  0  0  0  0
  -21.6890   -6.0720   22.5260 C   0  0  0  0  0  0  0  0  0  0  0  0
  -21.4040   -6.5620   23.8200 C   0  0  0  0  0  3  0  0  0  0  0  0
  -21.3660   -5.6780   24.9150 C   0  0  0  0  0  3  0  0  0  0  0  0
  -21.6070   -4.3040   24.7230 C   0  0  0  0  0  0  0  0  0  0  0  0
  -21.8820   -3.8130   23.4340 C   0  0  0  0  0  3  0  0  0  0  0  0
  -21.9210   -4.6940   22.3390 C   0  0  0  0  0  0  0  0  0  0  0  0
  -22.1660   -4.2120   21.0980 F   0  0  0  0  0  0  0  0  0  0  0  0
  -21.5620   -3.4520   25.7720 F   0  0  0  0  0  0  0  0  0  0  0  0
  -22.7830  -13.5160   21.1760 C   0  0  0  0  0  0  0  0  0  0  0  0
  -22.0490  -12.8190   22.0350 N   0  0  0  0  0  0  0  0  0  0  0  0
  -22.3500  -14.5430   20.6590 O   0  0  0  0  0  0  0  0  0  0  0  0
  -22.4180  -11.9990   22.4900 H   0  0  0  0  0  0  0  0  0  0  0  0
  -21.1030  -13.1140   22.2370 H   0  0  0  0  0  0  0  0  0  0  0  0
  -25.3990  -15.1820   20.4090 N   0  0  0  0  0  0  0  0  0  0  0  0
  -24.6150  -15.8180   20.5120 H   0  0  0  0  0  0  0  0  0  0  0  0
  -26.2390  -15.6320   20.0720 H   0  0  0  0  0  0  0  0  0  0  0  0
  -27.4060  -21.3560   20.8100 C   0  0  0  0  0  1  0  0  0  0  0  0
  -28.6310  -21.4180   18.6470 C   0  0  0  0  0  1  0  0  0  0  0  0
  -28.7740  -21.6050   20.1640 C   0  0  2  0  0  0  0  0  0  0  0  0
  -29.0810  -23.2790   20.4290 C   0  0  0  0  0  3  0  0  0  0  0  0
  -28.1340  -24.6100   19.9280 C   0  0  0  0  0  3  0  0  0  0  0  0
  -28.3040  -26.1420   20.2250 O   0  0  0  0  0  0  0  0  0  0  0  0
  -24.6420  -31.8400   23.1860 C   0  0  0  0  0  0  0  0  0  0  0  0
  -27.2370  -27.1210   20.1350 C   0  0  0  0  0  0  0  0  0  0  0  0
  -23.4490  -30.4590   21.5290 C   0  0  0  0  0  3  0  0  0  0  0  0
  -24.9020  -28.8770   20.1050 C   0  0  0  0  0  0  0  0  0  0  0  0
  -26.0080  -30.7010   21.3880 C   0  0  0  0  0  2  0  0  0  0  0  0
  -26.0780  -29.3110   20.7290 C   0  0  0  0  0  0  0  0  0  0  0  0
  -27.2420  -28.4500   20.7310 C   0  0  0  0  0  3  0  0  0  0  0  0
  -26.0390  -26.7970   19.4590 C   0  0  0  0  0  3  0  0  0  0  0  0
  -24.8960  -27.6320   19.4560 C   0  0  0  0  0  3  0  0  0  0  0  0
  -23.6780  -29.7820   20.1500 C   0  0  0  0  0  2  0  0  0  0  0  0
  -24.7210  -31.0180   22.0910 N   0  0  0  0  0  0  0  0  0  0  0  0
  -23.5540  -32.1300   23.7030 O   0  0  0  0  0  0  0  0  0  0  0  0
  -22.7550  -29.4510   22.4800 C   0  0  0  0  0  0  0  0  0  0  0  0
  -21.4230  -29.3080   22.3590 N   0  0  0  0  0  0  0  0  0  0  0  0
  -23.4180  -28.8070   23.2960 O   0  0  0  0  0  0  0  0  0  0  0  0
  -20.9420  -29.8790   21.6780 H   0  0  0  0  0  0  0  0  0  0  0  0
  -18.0300  -28.1420   22.8460 C   0  0  0  0  0  0  0  0  0  0  0  0
  -20.5900  -28.3740   23.1220 C   0  0  0  0  0  3  0  0  0  0  0  0
  -20.6790  -26.9440   22.5400 C   0  0  0  0  0  2  0  0  0  0  0  0
  -19.5770  -26.6360   21.5220 C   0  0  0  0  0  2  0  0  0  0  0  0
  -18.1940  -26.7940   22.1610 C   0  0  0  0  0  2  0  0  0  0  0  0
  -19.1560  -28.8880   23.2840 C   0  0  0  0  0  0  0  0  0  0  0  0
  -18.9480  -30.1470   23.8890 C   0  0  0  0  0  3  0  0  0  0  0  0
  -17.6480  -30.6610   24.0560 C   0  0  0  0  0  3  0  0  0  0  0  0
  -16.5370  -29.9120   23.6340 C   0  0  0  0  0  3  0  0  0  0  0  0
  -16.7270  -28.6540   23.0370 C   0  0  0  0  0  3  0  0  0  0  0  0
  -25.9190  -32.4670   23.8260 C   0  0  0  0  0  3  0  0  0  0  0  0
  -25.5910  -33.8490   24.2150 N   0  0  0  0  0  0  0  0  0  0  0  0
  -25.9080  -34.9380   23.5050 C   0  0  0  0  0  0  0  0  0  0  0  0
  -26.5670  -34.8890   22.4650 O   0  0  0  0  0  0  0  0  0  0  0  0
  -25.0020  -33.9640   25.0260 H   0  0  0  0  0  0  0  0  0  0  0  0
  -24.1490  -36.7260   23.2650 C   0  0  0  0  0  1  0  0  0  0  0  0
  -25.4120  -36.3000   24.0310 C   0  0  0  0  0  3  0  0  0  0  0  0
  -27.5560  -37.1780   24.8450 C   0  0  0  0  0  1  0  0  0  0  0  0
  -26.4260  -37.3710   23.9410 N   0  0  0  0  0  0  0  0  0  0  0  0
  -26.0100  -38.2760   24.1470 H   0  0  0  0  0  0  0  0  0  0  0  0
  -26.4510  -31.6570   25.0730 C   0  0  1  0  0  0  0  0  0  0  0  0
  -25.3680  -31.3750   26.1410 C   0  0  0  0  0  1  0  0  0  0  0  0
  -27.0380  -30.2960   24.6330 C   0  0  0  0  0  1  0  0  0  0  0  0
  -27.6030  -32.4360   25.7520 C   0  0  0  0  0  1  0  0  0  0  0  0
  1  2  1  0
  2  9  1  0
  3  1  2  0
  4  2  2  0
  5  3  1  0
  5  4  1  0
  9  7  1  6
  9  6  1  0
  9  8  1  0
 12 10  1  6
 12 11  1  0
 12 21  1  0
 12  3  1  0
 13 21  1  0
 14 19  1  0
 15 16  1  0
 15 14  1  0
 17 16  1  0
 17 26  1  0
 17 18  1  0
 19 13  1  0
 19 18  1  0
 20 13  2  0
 21 22  1  0
 23 24  2  0
 24 43  1  0
 25 24  1  0
 25 28  1  0
 26 27  1  0
 26 23  1  0
 27 25  2  0
 28 29  1  0
 29 30  2  0
 31 34  1  0
 31 30  1  0
 32 31  2  0
 33 32  1  0
 33 28  2  0
 34 35  1  0
 35 36  1  0
 36 37  2  0
 38 37  1  0
 38 42  1  0
 39 38  2  0
 40 35  2  0
 40 39  1  0
 41 40  1  0
 43 44  1  0
 44 47  1  0
 44 46  1  0
 45 43  2  0
 48 49  1  0
 48 23  1  0
 50 48  1  0
 53 52  1  6
 53 54  1  0
 53  5  1  0
 53 51  1  0
 55 56  1  0
 55 54  2  0
 57 68  2  0
 58 56  1  0
 58 63  1  0
 59 67  1  0
 59 69  1  0
 60 66  1  0
 60 62  1  0
 61 67  1  0
 62 63  2  0
 62 61  1  0
 64 58  2  0
 65 64  1  0
 65 60  2  0
 66 59  1  0
 67 57  1  0
 69 71  2  0
 70 69  1  0
 72 70  1  0
 73 82  2  0
 73 78  1  0
 74 70  1  0
 74 78  1  0
 75 74  1  0
 76 77  1  0
 76 75  1  0
 77 73  1  0
 78 79  2  0
 79 80  1  0
 81 80  2  0
 82 81  1  0
 83 57  1  0
 83 84  1  0
 83 93  1  0
 84 87  1  0
 85 89  1  0
 85 84  1  0
 86 85  2  0
 89 88  1  0
 91 89  1  0
 91 92  1  0
 91 90  1  0
 93 96  1  1
 93 94  1  0
 95 93  1  0
M  ISO  4  13 100  21 100  55 101  56 101
M  END
>  <TORSDO>  (40) 
F 21

>  <SCORE>  (40) 
-11.150

>  <name>  (40) 
41

>  <ligand_id>  (40) 
41

>  <original_smiles>  (40) 
[H]c1c([H])c([H])c2c(c1[H])C([H])([H])C([H])([H])C([H])([H])C2([H])N([H])C(=O)C1([H])N(C(=O)C([H])(N([H])C(=O)C([H])(N([H])C([H])([H])[H])C([H])([H])[H])C(C([H])([H])[H])(C([H])([H])[H])C([H])([H])[H])C([H])([H])c2c([H])c(OC([H])([H])C([H])([H])C(n3nc(C(C([H])([H])[H])(C([H])([H])[H])C([H])([H])[H])c([H])c3C(N([H])C(=O)N3C([H])([H])C([H])([H])C([H])([H])C([H])(n4nc(-c5c([H])c([H])c(Oc6c([H])c([H])c(F)c([H])c6F)c([H])c5[H])c(C(=O)N([H])[H])c4N([H])[H])C3([H])[H])(C([H])([H])[H])C([H])([H])[H])(C([H])([H])[H])C([H])([H])[H])c([H])c([H])c2C1([H])[H]

>  <smiles>  (40) 
[H]c1c([H])c([H])c2c(c1[H])C([H])([H])C([H])([H])C([H])([H])C2([H])N([H])C(=O)C1([H])N(C(=O)C([H])(N([H])C(=O)C([H])(N([H])C([H])([H])[H])C([H])([H])[H])C(C([H])([H])[H])(C([H])([H])[H])C([H])([H])[H])C([H])([H])c2c([H])c(OC([H])([H])C([H])([H])C(n3nc(C(C([H])([H])[H])(C([H])([H])[H])C([H])([H])[H])c([H])c3C(N([H])C(=O)N3C([H])([H])C([H])([H])C([H])([H])C([H])(n4nc(-c5c([H])c([H])c(Oc6c([H])c([H])c(F)c([H])c6F)c([H])c5[H])c(C(=O)N([H])[H])c4N([H])[H])C3([H])[H])(C([H])([H])[H])C([H])([H])[H])(C([H])([H])[H])C([H])([H])[H])c([H])c([H])c2C1([H])[H]

$$$$
42:0:0
     RDKit          3D

 92100  0  0  1  0  0  0  0  0999 V2000
  -27.8110  -18.6570   20.0130 C   0  0  0  0  0  0  0  0  0  0  0  0
  -29.9240  -18.0440   20.2840 C   0  0  0  0  0  3  0  0  0  0  0  0
  -29.3830  -20.2180   20.1870 C   0  0  0  0  0  0  0  0  0  0  0  0
  -26.3550  -18.2920   19.8290 C   0  0  0  0  0  1  0  0  0  0  0  0
  -28.6650  -17.6470   20.1340 N   0  0  0  0  0  0  0  0  0  0  0  0
  -28.0910  -19.9570   20.0380 N   0  0  0  0  0  0  0  0  0  0  0  0
  -30.3550  -19.3120   20.3050 N   0  0  0  0  0  0  0  0  0  0  0  0
  -31.5930  -17.2130   21.9800 C   0  0  0  0  0  1  0  0  0  0  0  0
  -30.9390  -16.9330   20.6150 C   0  0  0  0  0  3  0  0  0  0  0  0
  -31.0000  -14.4590   20.1900 C   0  0  0  0  0  0  0  0  0  0  0  0
  -30.6330  -12.2350   19.1850 C   0  0  0  0  0  2  0  0  0  0  0  0
  -29.6670  -12.3680   17.9910 C   0  0  0  0  0  2  0  0  0  0  0  0
  -28.2050  -12.2640   18.4680 C   0  0  0  0  0  2  0  0  0  0  0  0
  -27.9030  -13.1750   19.6870 C   0  0  0  0  0  3  0  0  0  0  0  0
  -28.9890  -13.0410   20.7790 C   0  0  0  0  0  2  0  0  0  0  0  0
  -30.2920  -13.2950   20.1490 N   0  0  0  0  0  0  0  0  0  0  0  0
  -32.1350  -14.5470   19.7170 O   0  0  0  0  0  0  0  0  0  0  0  0
  -30.3640  -15.5660   20.6270 N   0  0  0  0  0  0  0  0  0  0  0  0
  -29.3970  -15.5210   20.9140 H   0  0  0  0  0  0  0  0  0  0  0  0
  -25.5650  -13.8460   20.5170 C   0  0  0  0  0  0  0  0  0  0  0  0
  -24.4820  -13.1040   20.9040 C   0  0  0  0  0  0  0  0  0  0  0  0
  -24.8880  -11.7360   20.8150 C   0  0  0  0  0  0  0  0  0  0  0  0
  -26.5650  -12.9330   20.2180 N   0  0  0  0  0  0  0  0  0  0  0  0
  -26.1640  -11.6580   20.4560 N   0  0  0  0  0  0  0  0  0  0  0  0
  -24.1190  -10.4990   20.9960 C   0  0  0  0  0  0  0  0  0  0  0  0
  -24.5060   -9.5200   21.9370 C   0  0  0  0  0  3  0  0  0  0  0  0
  -23.7400   -8.3460   22.1060 C   0  0  0  0  0  3  0  0  0  0  0  0
  -22.5720   -8.1440   21.3320 C   0  0  0  0  0  0  0  0  0  0  0  0
  -22.2030   -9.1120   20.3810 C   0  0  0  0  0  3  0  0  0  0  0  0
  -22.9700  -10.2760   20.2110 C   0  0  0  0  0  3  0  0  0  0  0  0
  -21.7810   -7.0230   21.4090 O   0  0  0  0  0  0  0  0  0  0  0  0
  -21.6440   -6.3180   22.5780 C   0  0  0  0  0  0  0  0  0  0  0  0
  -21.1000   -6.9020   23.7420 C   0  0  0  0  0  3  0  0  0  0  0  0
  -20.9130   -6.1210   24.9000 C   0  0  0  0  0  3  0  0  0  0  0  0
  -21.2600   -4.7570   24.8940 C   0  0  0  0  0  0  0  0  0  0  0  0
  -21.7960   -4.1720   23.7330 C   0  0  0  0  0  3  0  0  0  0  0  0
  -21.9840   -4.9500   22.5780 C   0  0  0  0  0  0  0  0  0  0  0  0
  -22.4820   -4.3760   21.4560 F   0  0  0  0  0  0  0  0  0  0  0  0
  -21.0740   -4.0050   26.0030 F   0  0  0  0  0  0  0  0  0  0  0  0
  -23.1180  -13.6280   21.2480 C   0  0  0  0  0  0  0  0  0  0  0  0
  -22.4140  -12.9580   22.1530 N   0  0  0  0  0  0  0  0  0  0  0  0
  -22.6890  -14.6680   20.7500 O   0  0  0  0  0  0  0  0  0  0  0  0
  -22.7740  -12.1170   22.5790 H   0  0  0  0  0  0  0  0  0  0  0  0
  -21.5000  -13.2920   22.4250 H   0  0  0  0  0  0  0  0  0  0  0  0
  -25.7780  -15.2140   20.3750 N   0  0  0  0  0  0  0  0  0  0  0  0
  -25.0380  -15.8900   20.5220 H   0  0  0  0  0  0  0  0  0  0  0  0
  -26.6480  -15.6290   20.0660 H   0  0  0  0  0  0  0  0  0  0  0  0
  -29.7850  -21.5280   20.2340 O   0  0  0  0  0  0  0  0  0  0  0  0
  -28.7930  -22.5810   20.3630 C   0  0  0  0  0  2  0  0  0  0  0  0
  -29.3340  -24.0520   20.2650 C   0  0  0  0  0  2  0  0  0  0  0  0
  -28.2760  -25.1260   20.6780 C   0  0  0  0  0  2  0  0  0  0  0  0
  -28.5250  -26.5090   20.2850 O   0  0  0  0  0  0  0  0  0  0  0  0
  -24.5450  -31.7150   23.1820 C   0  0  0  0  0  0  0  0  0  0  0  0
  -27.3880  -27.3000   20.2040 C   0  0  0  0  0  0  0  0  0  0  0  0
  -23.4390  -30.3040   21.4800 C   0  0  0  0  0  3  0  0  0  0  0  0
  -24.9820  -28.8050   20.1050 C   0  0  0  0  0  0  0  0  0  0  0  0
  -25.9690  -30.6970   21.3990 C   0  0  0  0  0  2  0  0  0  0  0  0
  -26.1080  -29.3310   20.7530 C   0  0  0  0  0  0  0  0  0  0  0  0
  -27.3170  -28.5880   20.7970 C   0  0  0  0  0  3  0  0  0  0  0  0
  -26.2500  -26.8170   19.5180 C   0  0  0  0  0  3  0  0  0  0  0  0
  -25.0510  -27.5510   19.4800 C   0  0  0  0  0  3  0  0  0  0  0  0
  -23.7220  -29.6430   20.1060 C   0  0  0  0  0  2  0  0  0  0  0  0
  -24.6660  -30.9200   22.0800 N   0  0  0  0  0  0  0  0  0  0  0  0
  -23.4350  -31.9640   23.6750 O   0  0  0  0  0  0  0  0  0  0  0  0
  -22.7640  -29.2630   22.4040 C   0  0  0  0  0  0  0  0  0  0  0  0
  -21.4380  -29.1010   22.2600 N   0  0  0  0  0  0  0  0  0  0  0  0
  -23.4310  -28.6060   23.2090 O   0  0  0  0  0  0  0  0  0  0  0  0
  -20.9610  -29.6830   21.5850 H   0  0  0  0  0  0  0  0  0  0  0  0
  -18.0290  -28.0190   22.7840 C   0  0  0  0  0  0  0  0  0  0  0  0
  -20.6010  -28.1510   22.9960 C   0  0  0  0  0  3  0  0  0  0  0  0
  -20.6260  -26.7560   22.3290 C   0  0  0  0  0  2  0  0  0  0  0  0
  -19.4830  -26.5440   21.3300 C   0  0  0  0  0  2  0  0  0  0  0  0
  -18.1270  -26.7070   22.0230 C   0  0  0  0  0  2  0  0  0  0  0  0
  -19.1910  -28.7040   23.2270 C   0  0  0  0  0  0  0  0  0  0  0  0
  -19.0430  -29.9360   23.9000 C   0  0  0  0  0  3  0  0  0  0  0  0
  -17.7680  -30.4810   24.1330 C   0  0  0  0  0  3  0  0  0  0  0  0
  -16.6200  -29.7900   23.7070 C   0  0  0  0  0  3  0  0  0  0  0  0
  -16.7520  -28.5610   23.0380 C   0  0  0  0  0  3  0  0  0  0  0  0
  -25.7900  -32.3660   23.8600 C   0  0  0  0  0  3  0  0  0  0  0  0
  -25.4450  -33.7600   24.1730 N   0  0  0  0  0  0  0  0  0  0  0  0
  -25.7840  -34.8150   23.4200 C   0  0  0  0  0  0  0  0  0  0  0  0
  -26.4900  -34.7190   22.4130 O   0  0  0  0  0  0  0  0  0  0  0  0
  -24.8220  -33.9070   24.9540 H   0  0  0  0  0  0  0  0  0  0  0  0
  -24.0270  -36.5670   23.0090 C   0  0  0  0  0  1  0  0  0  0  0  0
  -25.2550  -36.1960   23.8550 C   0  0  0  0  0  3  0  0  0  0  0  0
  -27.3370  -37.1440   24.7460 C   0  0  0  0  0  1  0  0  0  0  0  0
  -26.2680  -37.2690   23.7590 N   0  0  0  0  0  0  0  0  0  0  0  0
  -25.8370  -38.1830   23.8730 H   0  0  0  0  0  0  0  0  0  0  0  0
  -26.2600  -31.6030   25.1580 C   0  0  1  0  0  0  0  0  0  0  0  0
  -25.1210  -31.3290   26.1670 C   0  0  0  0  0  1  0  0  0  0  0  0
  -26.9010  -30.2440   24.7900 C   0  0  0  0  0  1  0  0  0  0  0  0
  -27.3520  -32.4250   25.8830 C   0  0  0  0  0  1  0  0  0  0  0  0
  1  6  1  0
  1  5  2  0
  2  7  1  0
  2  9  1  0
  3 48  1  0
  3  7  2  0
  4  1  1  0
  5  2  1  0
  6  3  2  0
  9 18  1  0
  9  8  1  0
 10 18  1  0
 11 16  1  0
 12 13  1  0
 12 11  1  0
 14 13  1  0
 14 23  1  0
 14 15  1  0
 16 10  1  0
 16 15  1  0
 17 10  2  0
 18 19  1  0
 20 21  2  0
 21 40  1  0
 22 21  1  0
 22 25  1  0
 23 24  1  0
 23 20  1  0
 24 22  2  0
 25 26  1  0
 26 27  2  0
 28 31  1  0
 28 27  1  0
 29 28  2  0
 30 29  1  0
 30 25  2  0
 31 32  1  0
 32 37  2  0
 32 33  1  0
 33 34  2  0
 35 34  1  0
 35 39  1  0
 36 35  2  0
 37 36  1  0
 38 37  1  0
 40 41  1  0
 41 44  1  0
 41 43  1  0
 42 40  2  0
 45 20  1  0
 45 46  1  0
 47 45  1  0
 48 49  1  0
 50 49  1  0
 50 51  1  0
 52 51  1  0
 53 64  2  0
 54 52  1  0
 54 59  1  0
 55 63  1  0
 55 65  1  0
 56 62  1  0
 56 58  1  0
 57 63  1  0
 58 59  2  0
 58 57  1  0
 60 54  2  0
 61 60  1  0
 61 56  2  0
 62 55  1  0
 63 53  1  0
 65 67  2  0
 66 65  1  0
 68 66  1  0
 69 78  2  0
 69 74  1  0
 70 66  1  0
 70 74  1  0
 71 70  1  0
 72 73  1  0
 72 71  1  0
 73 69  1  0
 74 75  2  0
 75 76  1  0
 77 76  2  0
 78 77  1  0
 79 53  1  0
 79 80  1  0
 79 89  1  0
 80 83  1  0
 81 85  1  0
 81 80  1  0
 82 81  2  0
 85 84  1  0
 87 85  1  0
 87 88  1  0
 87 86  1  0
 89 92  1  1
 89 90  1  0
 91 89  1  0
M  ISO  4  10 100  18 100  51 101  52 101
M  END
>  <TORSDO>  (41) 
F 21

>  <SCORE>  (41) 
-12.932

>  <name>  (41) 
42

>  <ligand_id>  (41) 
42

>  <original_smiles>  (41) 
[H]c1c([H])c([H])c2c(c1[H])C([H])([H])C([H])([H])C([H])([H])C2([H])N([H])C(=O)C1([H])N(C(=O)C([H])(N([H])C(=O)C([H])(N([H])C([H])([H])[H])C([H])([H])[H])C(C([H])([H])[H])(C([H])([H])[H])C([H])([H])[H])C([H])([H])c2c([H])c(OC([H])([H])C([H])([H])C([H])([H])Oc3nc(C([H])([H])[H])nc(C([H])(N([H])C(=O)N4C([H])([H])C([H])([H])C([H])([H])C([H])(n5nc(-c6c([H])c([H])c(Oc7c([H])c([H])c(F)c([H])c7F)c([H])c6[H])c(C(=O)N([H])[H])c5N([H])[H])C4([H])[H])C([H])([H])[H])n3)c([H])c([H])c2C1([H])[H]

>  <smiles>  (41) 
[H]c1c([H])c([H])c2c(c1[H])C([H])([H])C([H])([H])C([H])([H])C2([H])N([H])C(=O)C1([H])N(C(=O)C([H])(N([H])C(=O)C([H])(N([H])C([H])([H])[H])C([H])([H])[H])C(C([H])([H])[H])(C([H])([H])[H])C([H])([H])[H])C([H])([H])c2c([H])c(OC([H])([H])C([H])([H])C([H])([H])Oc3nc(C([H])([H])[H])nc(C([H])(N([H])C(=O)N4C([H])([H])C([H])([H])C([H])([H])C([H])(n5nc(-c6c([H])c([H])c(Oc7c([H])c([H])c(F)c([H])c7F)c([H])c6[H])c(C(=O)N([H])[H])c5N([H])[H])C4([H])[H])C([H])([H])[H])n3)c([H])c([H])c2C1([H])[H]

$$$$
43:0:0
     RDKit          3D

 96105  0  0  1  0  0  0  0  0999 V2000
  -29.7890  -17.1580   20.3680 C   0  0  0  0  0  0  0  0  0  0  0  0
  -28.3470  -18.3870   19.3900 C   0  0  0  0  0  0  0  0  0  0  0  0
  -27.8500  -21.0480   19.4950 C   0  0  0  0  0  3  0  0  0  0  0  0
  -28.9740  -20.6000   20.1620 C   0  0  0  0  0  0  0  0  0  0  0  0
  -27.0340  -20.1340   18.7940 C   0  0  0  0  0  0  0  0  0  0  0  0
  -28.7280  -17.1190   19.5150 N   0  0  0  0  0  4  0  0  0  0  0  0
  -30.1080  -18.4040   20.7920 N   0  0  0  0  0  2  0  0  0  0  0  0
  -27.2900  -18.8370   18.7110 N   0  0  0  0  0  0  0  0  0  0  0  0
  -29.1940  -19.2220   20.1440 N   0  0  0  0  0  0  0  0  0  0  0  0
  -25.8650  -20.6750   16.6110 C   0  0  0  0  0  1  0  0  0  0  0  0
  -24.5470  -19.7370   18.5860 C   0  0  0  0  0  1  0  0  0  0  0  0
  -25.7390  -20.5980   18.1390 C   0  0  0  0  0  3  0  0  0  0  0  0
  -29.4540  -15.4590   22.1940 C   0  0  0  0  0  1  0  0  0  0  0  0
  -31.7320  -16.2220   21.6400 C   0  0  0  0  0  1  0  0  0  0  0  0
  -30.3570  -15.8610   21.0040 C   0  0  2  0  0  0  0  0  0  0  0  0
  -30.6570  -14.6480   19.9840 C   0  0  0  0  0  0  0  0  0  0  0  0
  -30.1950  -12.5910   18.6500 C   0  0  0  0  0  2  0  0  0  0  0  0
  -29.1530  -12.8740   17.5480 C   0  0  0  0  0  2  0  0  0  0  0  0
  -27.7260  -12.6650   18.0860 C   0  0  0  0  0  2  0  0  0  0  0  0
  -27.5040  -13.3820   19.4410 C   0  0  0  0  0  3  0  0  0  0  0  0
  -28.6560  -13.0880   20.4230 C   0  0  0  0  0  2  0  0  0  0  0  0
  -29.9200  -13.4990   19.7930 N   0  0  0  0  0  0  0  0  0  0  0  0
  -31.6760  -14.7860   19.2930 O   0  0  0  0  0  0  0  0  0  0  0  0
  -25.1700  -13.9220   20.3640 C   0  0  0  0  0  0  0  0  0  0  0  0
  -24.1470  -13.1230   20.7920 C   0  0  0  0  0  0  0  0  0  0  0  0
  -24.6280  -11.7820   20.6880 C   0  0  0  0  0  0  0  0  0  0  0  0
  -26.2030  -13.0670   20.0200 N   0  0  0  0  0  0  0  0  0  0  0  0
  -25.8880  -11.7740   20.2780 N   0  0  0  0  0  0  0  0  0  0  0  0
  -23.9420  -10.5060   20.9000 C   0  0  0  0  0  0  0  0  0  0  0  0
  -24.4330   -9.5490   21.8140 C   0  0  0  0  0  3  0  0  0  0  0  0
  -23.7470   -8.3310   22.0120 C   0  0  0  0  0  3  0  0  0  0  0  0
  -22.5560   -8.0630   21.2970 C   0  0  0  0  0  0  0  0  0  0  0  0
  -22.0870   -9.0110   20.3700 C   0  0  0  0  0  3  0  0  0  0  0  0
  -22.7720  -10.2190   20.1700 C   0  0  0  0  0  3  0  0  0  0  0  0
  -21.8350   -6.8990   21.4070 O   0  0  0  0  0  0  0  0  0  0  0  0
  -21.8100   -6.1760   22.5730 C   0  0  0  0  0  0  0  0  0  0  0  0
  -21.3730   -6.7390   23.7910 C   0  0  0  0  0  3  0  0  0  0  0  0
  -21.2980   -5.9410   24.9500 C   0  0  0  0  0  3  0  0  0  0  0  0
  -21.6490   -4.5790   24.8920 C   0  0  0  0  0  0  0  0  0  0  0  0
  -22.0800   -4.0140   23.6780 C   0  0  0  0  0  3  0  0  0  0  0  0
  -22.1570   -4.8110   22.5210 C   0  0  0  0  0  0  0  0  0  0  0  0
  -22.5520   -4.2570   21.3510 F   0  0  0  0  0  0  0  0  0  0  0  0
  -21.5690   -3.8090   26.0020 F   0  0  0  0  0  0  0  0  0  0  0  0
  -22.7700  -13.5700   21.1870 C   0  0  0  0  0  0  0  0  0  0  0  0
  -22.1240  -12.8430   22.0920 N   0  0  0  0  0  0  0  0  0  0  0  0
  -22.2770  -14.6000   20.7300 O   0  0  0  0  0  0  0  0  0  0  0  0
  -22.5350  -12.0090   22.4830 H   0  0  0  0  0  0  0  0  0  0  0  0
  -21.2050  -13.1300   22.3990 H   0  0  0  0  0  0  0  0  0  0  0  0
  -25.2990  -15.2950   20.2200 N   0  0  0  0  0  0  0  0  0  0  0  0
  -24.5200  -15.9280   20.3510 H   0  0  0  0  0  0  0  0  0  0  0  0
  -26.1100  -15.7460   19.8040 H   0  0  0  0  0  0  0  0  0  0  0  0
  -29.8260  -21.6100   20.9790 C   0  0  0  0  0  2  0  0  0  0  0  0
  -30.0780  -23.0280   20.3120 C   0  0  0  0  0  2  0  0  0  0  0  0
  -29.9060  -24.3200   21.1930 C   0  0  0  0  0  2  0  0  0  0  0  0
  -30.1220  -25.6730   20.4240 C   0  0  0  0  0  2  0  0  0  0  0  0
  -29.7270  -26.8940   21.1130 O   0  0  0  0  0  0  0  0  0  0  0  0
  -25.0370  -31.7720   23.4400 C   0  0  0  0  0  0  0  0  0  0  0  0
  -28.4960  -27.5070   20.9010 C   0  0  0  0  0  0  0  0  0  0  0  0
  -24.2110  -30.2270   21.6980 C   0  0  0  0  0  3  0  0  0  0  0  0
  -25.9880  -28.8100   20.5370 C   0  0  0  0  0  0  0  0  0  0  0  0
  -26.7000  -30.8180   21.8390 C   0  0  0  0  0  2  0  0  0  0  0  0
  -27.0040  -29.4470   21.2590 C   0  0  0  0  0  0  0  0  0  0  0  0
  -28.2560  -28.8040   21.4350 C   0  0  0  0  0  3  0  0  0  0  0  0
  -27.4470  -26.8910   20.1800 C   0  0  0  0  0  3  0  0  0  0  0  0
  -26.2080  -27.5330   19.9940 C   0  0  0  0  0  3  0  0  0  0  0  0
  -24.6740  -29.5430   20.3840 C   0  0  0  0  0  2  0  0  0  0  0  0
  -25.3250  -30.9580   22.3840 N   0  0  0  0  0  0  0  0  0  0  0  0
  -23.8690  -31.9480   23.8180 O   0  0  0  0  0  0  0  0  0  0  0  0
  -23.5320  -29.1660   22.5950 C   0  0  0  0  0  0  0  0  0  0  0  0
  -22.2410  -28.8970   22.3350 N   0  0  0  0  0  0  0  0  0  0  0  0
  -24.1660  -28.5890   23.4810 O   0  0  0  0  0  0  0  0  0  0  0  0
  -21.7860  -29.4170   21.5980 H   0  0  0  0  0  0  0  0  0  0  0  0
  -18.8990  -27.5430   22.5650 C   0  0  0  0  0  0  0  0  0  0  0  0
  -21.4160  -27.9050   23.0250 C   0  0  0  0  0  3  0  0  0  0  0  0
  -21.6240  -26.4940   22.4280 C   0  0  0  0  0  2  0  0  0  0  0  0
  -20.6130  -26.1490   21.3310 C   0  0  0  0  0  2  0  0  0  0  0  0
  -19.1840  -26.2190   21.8760 C   0  0  0  0  0  2  0  0  0  0  0  0
  -19.9490  -28.3410   23.0910 C   0  0  0  0  0  0  0  0  0  0  0  0
  -19.6320  -29.5800   23.6910 C   0  0  0  0  0  3  0  0  0  0  0  0
  -18.2980  -30.0210   23.7710 C   0  0  0  0  0  3  0  0  0  0  0  0
  -17.2610  -29.2190   23.2630 C   0  0  0  0  0  3  0  0  0  0  0  0
  -17.5620  -27.9820   22.6660 C   0  0  0  0  0  3  0  0  0  0  0  0
  -26.1570  -32.5430   24.2070 C   0  0  0  0  0  3  0  0  0  0  0  0
  -25.6830  -33.9180   24.4170 N   0  0  0  0  0  0  0  0  0  0  0  0
  -26.0170  -34.9650   23.6490 C   0  0  0  0  0  0  0  0  0  0  0  0
  -26.8220  -34.8810   22.7180 O   0  0  0  0  0  0  0  0  0  0  0  0
  -24.9760  -34.0490   25.1250 H   0  0  0  0  0  0  0  0  0  0  0  0
  -24.1890  -36.5600   22.9880 C   0  0  0  0  0  1  0  0  0  0  0  0
  -25.3510  -36.3180   23.9640 C   0  0  0  0  0  3  0  0  0  0  0  0
  -27.2750  -37.4470   24.9910 C   0  0  0  0  0  1  0  0  0  0  0  0
  -26.2890  -37.4600   23.9130 N   0  0  0  0  0  0  0  0  0  0  0  0
  -25.7850  -38.3420   23.9550 H   0  0  0  0  0  0  0  0  0  0  0  0
  -26.5430  -31.8720   25.5820 C   0  0  1  0  0  0  0  0  0  0  0  0
  -25.3270  -31.5510   26.4790 C   0  0  0  0  0  1  0  0  0  0  0  0
  -27.3180  -30.5540   25.3480 C   0  0  0  0  0  1  0  0  0  0  0  0
  -27.4880  -32.8060   26.3740 C   0  0  0  0  0  1  0  0  0  0  0  0
  1  7  1  0
  1 15  1  0
  2  6  2  0
  2  9  1  0
  3  4  2  0
  4 52  1  0
  5  3  1  0
  6  1  2  0
  8  5  2  0
  8  2  1  0
  9  4  1  0
  9  7  1  0
 10 12  1  0
 12 11  1  0
 12  5  1  0
 15 14  1  1
 15 13  1  0
 16 15  1  0
 17 22  1  0
 18 19  1  0
 18 17  1  0
 20 19  1  0
 20 27  1  0
 20 21  1  0
 22 16  1  0
 22 21  1  0
 23 16  2  0
 24 25  2  0
 25 44  1  0
 26 25  1  0
 26 29  1  0
 27 28  1  0
 27 24  1  0
 28 26  2  0
 29 30  1  0
 30 31  2  0
 32 35  1  0
 32 31  1  0
 33 32  2  0
 34 33  1  0
 34 29  2  0
 35 36  1  0
 36 37  1  0
 37 38  2  0
 39 38  1  0
 39 43  1  0
 40 39  2  0
 41 36  2  0
 41 40  1  0
 42 41  1  0
 44 45  1  0
 45 48  1  0
 45 47  1  0
 46 44  2  0
 49 50  1  0
 49 24  1  0
 51 49  1  0
 53 52  1  0
 53 54  1  0
 55 56  1  0
 55 54  1  0
 57 68  2  0
 58 56  1  0
 58 63  1  0
 59 67  1  0
 59 69  1  0
 60 62  1  0
 61 67  1  0
 62 63  2  0
 62 61  1  0
 64 58  2  0
 65 64  1  0
 65 60  2  0
 66 60  1  0
 66 59  1  0
 67 57  1  0
 69 71  2  0
 70 69  1  0
 72 70  1  0
 73 82  2  0
 73 78  1  0
 74 70  1  0
 74 78  1  0
 75 74  1  0
 76 77  1  0
 76 75  1  0
 77 73  1  0
 78 79  2  0
 79 80  1  0
 81 80  2  0
 82 81  1  0
 83 57  1  0
 83 84  1  0
 83 93  1  0
 84 87  1  0
 85 89  1  0
 85 84  1  0
 86 85  2  0
 89 88  1  0
 91 92  1  0
 91 89  1  0
 91 90  1  0
 93 96  1  1
 93 94  1  0
 95 93  1  0
M  ISO  4  15 100  16 100  55 101  56 101
M  END
>  <TORSDO>  (42) 
F 22

>  <SCORE>  (42) 
-9.370

>  <name>  (42) 
43

>  <ligand_id>  (42) 
43

>  <original_smiles>  (42) 
[H]c1c([H])c([H])c2c(c1[H])C([H])([H])C([H])([H])C([H])([H])C2([H])N([H])C(=O)C1([H])N(C(=O)C([H])(N([H])C(=O)C([H])(N([H])C([H])([H])[H])C([H])([H])[H])C(C([H])([H])[H])(C([H])([H])[H])C([H])([H])[H])C([H])([H])c2c([H])c(OC([H])([H])C([H])([H])C([H])([H])C([H])([H])c3c([H])c(C([H])(C([H])([H])[H])C([H])([H])[H])nc4nc(C(C(=O)N5C([H])([H])C([H])([H])C([H])([H])C([H])(n6nc(-c7c([H])c([H])c(Oc8c([H])c([H])c(F)c([H])c8F)c([H])c7[H])c(C(=O)N([H])[H])c6N([H])[H])C5([H])[H])(C([H])([H])[H])C([H])([H])[H])nn34)c([H])c([H])c2C1([H])[H]

>  <smiles>  (42) 
[H]c1c([H])c([H])c2c(c1[H])C([H])([H])C([H])([H])C([H])([H])C2([H])N([H])C(=O)C1([H])N(C(=O)C([H])(N([H])C(=O)C([H])(N([H])C([H])([H])[H])C([H])([H])[H])C(C([H])([H])[H])(C([H])([H])[H])C([H])([H])[H])C([H])([H])c2c([H])c(OC([H])([H])C([H])([H])C([H])([H])C([H])([H])c3c([H])c(C([H])(C([H])([H])[H])C([H])([H])[H])nc4nc(C(C(=O)N5C([H])([H])C([H])([H])C([H])([H])C([H])(n6nc(-c7c([H])c([H])c(Oc8c([H])c([H])c(F)c([H])c8F)c([H])c7[H])c(C(=O)N([H])[H])c6N([H])[H])C5([H])[H])(C([H])([H])[H])C([H])([H])[H])nn34)c([H])c([H])c2C1([H])[H]

$$$$
44:0:0
     RDKit          3D

 92100  0  0  1  0  0  0  0  0999 V2000
  -29.6390  -22.4450   23.0090 C   0  0  0  0  0  3  0  0  0  0  0  0
  -29.0490  -23.5250   22.3260 C   0  0  0  0  0  3  0  0  0  0  0  0
  -30.2430  -21.3560   22.3370 C   0  0  0  0  0  0  0  0  0  0  0  0
  -29.1780  -23.6500   20.9370 C   0  0  0  0  0  0  0  0  0  0  0  0
  -30.0570  -21.2150   20.9270 C   0  0  0  0  0  0  0  0  0  0  0  0
  -29.6210  -22.4390   20.2690 N   0  0  0  0  0  0  0  0  0  0  0  0
  -31.0760  -20.4180   23.2020 C   0  0  1  0  0  0  0  0  0  0  0  0
  -31.4320  -21.0020   24.3480 F   0  0  0  0  0  0  0  0  0  0  0  0
  -30.3570  -19.3330   23.4930 F   0  0  0  0  0  0  0  0  0  0  0  0
  -32.2160  -20.0900   22.5960 F   0  0  0  0  0  0  0  0  0  0  0  0
  -30.1630  -19.6800   20.1910 C   0  0  0  0  0  2  0  0  0  0  0  0
  -30.8870  -18.1750   20.6940 C   0  0  0  0  0  2  0  0  0  0  0  0
  -31.1280  -15.3960   20.2590 C   0  0  0  0  0  0  0  0  0  0  0  0
  -30.9580  -13.0150   19.3530 C   0  0  0  0  0  2  0  0  0  0  0  0
  -30.0420  -12.8860   18.1140 C   0  0  0  0  0  2  0  0  0  0  0  0
  -28.5790  -12.6770   18.5510 C   0  0  0  0  0  2  0  0  0  0  0  0
  -28.1520  -13.6620   19.6710 C   0  0  0  0  0  3  0  0  0  0  0  0
  -29.1990  -13.7550   20.8050 C   0  0  0  0  0  2  0  0  0  0  0  0
  -30.4700  -14.1590   20.1840 N   0  0  0  0  0  0  0  0  0  0  0  0
  -32.3410  -15.3770   20.0230 O   0  0  0  0  0  0  0  0  0  0  0  0
  -30.4430  -16.6570   20.3930 N   0  0  0  0  0  0  0  0  0  0  0  0
  -29.4450  -16.5310   20.4560 H   0  0  0  0  0  0  0  0  0  0  0  0
  -25.7990  -14.2930   20.4370 C   0  0  0  0  0  0  0  0  0  0  0  0
  -24.7070  -13.5490   20.7770 C   0  0  0  0  0  0  0  0  0  0  0  0
  -25.1150  -12.1810   20.6930 C   0  0  0  0  0  0  0  0  0  0  0  0
  -26.8070  -13.3860   20.1620 N   0  0  0  0  0  0  0  0  0  0  0  0
  -26.4060  -12.1090   20.3860 N   0  0  0  0  0  0  0  0  0  0  0  0
  -24.3380  -10.9440   20.8360 C   0  0  0  0  0  0  0  0  0  0  0  0
  -24.7040   -9.9420   21.7610 C   0  0  0  0  0  3  0  0  0  0  0  0
  -23.9260   -8.7710   21.8940 C   0  0  0  0  0  3  0  0  0  0  0  0
  -22.7690   -8.5920   21.0990 C   0  0  0  0  0  0  0  0  0  0  0  0
  -22.4230   -9.5830   20.1620 C   0  0  0  0  0  3  0  0  0  0  0  0
  -23.2020  -10.7440   20.0280 C   0  0  0  0  0  3  0  0  0  0  0  0
  -21.9700   -7.4740   21.1410 O   0  0  0  0  0  0  0  0  0  0  0  0
  -21.8000   -6.7550   22.2970 C   0  0  0  0  0  0  0  0  0  0  0  0
  -21.2450   -7.3330   23.4590 C   0  0  0  0  0  3  0  0  0  0  0  0
  -21.0230   -6.5400   24.6030 C   0  0  0  0  0  3  0  0  0  0  0  0
  -21.3440   -5.1690   24.5840 C   0  0  0  0  0  0  0  0  0  0  0  0
  -21.8900   -4.5910   23.4240 C   0  0  0  0  0  3  0  0  0  0  0  0
  -22.1140   -5.3810   22.2840 C   0  0  0  0  0  0  0  0  0  0  0  0
  -22.6210   -4.8130   21.1630 F   0  0  0  0  0  0  0  0  0  0  0  0
  -21.1240   -4.4050   25.6800 F   0  0  0  0  0  0  0  0  0  0  0  0
  -23.3260  -14.0720   21.0590 C   0  0  0  0  0  0  0  0  0  0  0  0
  -22.5760  -13.3890   21.9150 N   0  0  0  0  0  0  0  0  0  0  0  0
  -22.9230  -15.1210   20.5560 O   0  0  0  0  0  0  0  0  0  0  0  0
  -22.9160  -12.5420   22.3470 H   0  0  0  0  0  0  0  0  0  0  0  0
  -21.6490  -13.7190   22.1480 H   0  0  0  0  0  0  0  0  0  0  0  0
  -26.0150  -15.6650   20.3060 N   0  0  0  0  0  0  0  0  0  0  0  0
  -25.2700  -16.3410   20.4400 H   0  0  0  0  0  0  0  0  0  0  0  0
  -26.8690  -16.0770   19.9590 H   0  0  0  0  0  0  0  0  0  0  0  0
  -29.3210  -25.2650   20.5000 C   0  0  0  0  0  2  0  0  0  0  0  0
  -28.4450  -26.3830   19.8220 O   0  0  0  0  0  0  0  0  0  0  0  0
  -24.6340  -31.8840   23.2130 C   0  0  0  0  0  0  0  0  0  0  0  0
  -27.3330  -27.2560   20.1490 C   0  0  0  0  0  0  0  0  0  0  0  0
  -23.4540  -30.4750   21.5650 C   0  0  0  0  0  3  0  0  0  0  0  0
  -24.9390  -28.9330   20.1420 C   0  0  0  0  0  0  0  0  0  0  0  0
  -25.9970  -30.8130   21.3720 C   0  0  0  0  0  2  0  0  0  0  0  0
  -26.1120  -29.4130   20.7420 C   0  0  0  0  0  0  0  0  0  0  0  0
  -27.3170  -28.5970   20.7150 C   0  0  0  0  0  3  0  0  0  0  0  0
  -26.1240  -26.8790   19.5330 C   0  0  0  0  0  3  0  0  0  0  0  0
  -24.9600  -27.6770   19.5170 C   0  0  0  0  0  3  0  0  0  0  0  0
  -23.6870  -29.7980   20.1860 C   0  0  0  0  0  2  0  0  0  0  0  0
  -24.7160  -31.0850   22.1060 N   0  0  0  0  0  0  0  0  0  0  0  0
  -23.5490  -32.1240   23.7580 O   0  0  0  0  0  0  0  0  0  0  0  0
  -22.8180  -29.4430   22.5310 C   0  0  0  0  0  0  0  0  0  0  0  0
  -21.5030  -29.1930   22.3880 N   0  0  0  0  0  0  0  0  0  0  0  0
  -23.5130  -28.8580   23.3660 O   0  0  0  0  0  0  0  0  0  0  0  0
  -20.9920  -29.7160   21.6890 H   0  0  0  0  0  0  0  0  0  0  0  0
  -18.2100  -27.7230   22.7850 C   0  0  0  0  0  0  0  0  0  0  0  0
  -20.7270  -28.2090   23.1530 C   0  0  0  0  0  3  0  0  0  0  0  0
  -20.9670  -26.7760   22.6250 C   0  0  0  0  0  2  0  0  0  0  0  0
  -19.9440  -26.3310   21.5730 C   0  0  0  0  0  2  0  0  0  0  0  0
  -18.5290  -26.3770   22.1570 C   0  0  0  0  0  2  0  0  0  0  0  0
  -19.2420  -28.5880   23.2390 C   0  0  0  0  0  0  0  0  0  0  0  0
  -18.8910  -29.8420   23.7870 C   0  0  0  0  0  3  0  0  0  0  0  0
  -17.5430  -30.2320   23.8880 C   0  0  0  0  0  3  0  0  0  0  0  0
  -16.5260  -29.3670   23.4520 C   0  0  0  0  0  3  0  0  0  0  0  0
  -16.8600  -28.1160   22.9060 C   0  0  0  0  0  3  0  0  0  0  0  0
  -25.8950  -32.5580   23.8330 C   0  0  0  0  0  3  0  0  0  0  0  0
  -26.4150  -31.8110   25.1280 C   0  0  1  0  0  0  0  0  0  0  0  0
  -25.3280  -31.5630   26.2000 C   0  0  0  0  0  1  0  0  0  0  0  0
  -27.0330  -30.4410   24.7590 C   0  0  0  0  0  1  0  0  0  0  0  0
  -27.5410  -32.6450   25.7900 C   0  0  0  0  0  1  0  0  0  0  0  0
  -25.5420  -33.9540   24.1540 N   0  0  0  0  0  0  0  0  0  0  0  0
  -25.8720  -35.0160   23.4080 C   0  0  0  0  0  0  0  0  0  0  0  0
  -26.5730  -34.9250   22.3950 O   0  0  0  0  0  0  0  0  0  0  0  0
  -24.9180  -34.0810   24.9380 H   0  0  0  0  0  0  0  0  0  0  0  0
  -24.1430  -36.8080   23.0030 C   0  0  0  0  0  1  0  0  0  0  0  0
  -25.3560  -36.3970   23.8560 C   0  0  0  0  0  3  0  0  0  0  0  0
  -27.4510  -37.3170   24.7620 C   0  0  0  0  0  1  0  0  0  0  0  0
  -26.3770  -37.4660   23.7810 N   0  0  0  0  0  0  0  0  0  0  0  0
  -25.9490  -38.3790   23.9050 H   0  0  0  0  0  0  0  0  0  0  0  0
  2  1  2  0
  3  1  1  0
  3  7  1  0
  4  2  1  0
  5  3  2  0
  6  5  1  0
  6  4  2  0
  7  9  1  1
  7  8  1  0
 10  7  1  0
 11 12  1  0
 11  5  1  0
 13 21  1  0
 14 19  1  0
 15 16  1  0
 15 14  1  0
 17 16  1  0
 17 26  1  0
 17 18  1  0
 19 13  1  0
 19 18  1  0
 20 13  2  0
 21 22  1  0
 21 12  1  0
 23 24  2  0
 24 43  1  0
 25 24  1  0
 25 28  1  0
 26 27  1  0
 26 23  1  0
 27 25  2  0
 28 29  1  0
 29 30  2  0
 31 34  1  0
 31 30  1  0
 32 31  2  0
 33 32  1  0
 33 28  2  0
 34 35  1  0
 35 36  1  0
 36 37  2  0
 38 37  1  0
 38 42  1  0
 39 38  2  0
 40 35  2  0
 40 39  1  0
 41 40  1  0
 43 44  1  0
 44 47  1  0
 44 46  1  0
 45 43  2  0
 48 23  1  0
 48 49  1  0
 50 48  1  0
 51  4  1  0
 52 54  1  0
 52 51  1  0
 53 64  2  0
 54 59  1  0
 55 63  1  0
 55 65  1  0
 56 62  1  0
 56 58  1  0
 57 63  1  0
 58 57  1  0
 59 58  2  0
 60 54  2  0
 61 60  1  0
 61 56  2  0
 62 55  1  0
 63 53  1  0
 65 67  2  0
 66 65  1  0
 68 66  1  0
 69 78  2  0
 69 74  1  0
 70 66  1  0
 70 74  1  0
 71 70  1  0
 72 73  1  0
 72 71  1  0
 73 69  1  0
 74 75  2  0
 75 76  1  0
 77 76  2  0
 78 77  1  0
 79 53  1  0
 79 84  1  0
 79 80  1  0
 80 83  1  1
 80 81  1  0
 82 80  1  0
 84 87  1  0
 85 89  1  0
 85 84  1  0
 86 85  2  0
 89 88  1  0
 91 89  1  0
 91 92  1  0
 91 90  1  0
M  ISO  4  13 100  21 100  51 101  52 101
M  END
>  <TORSDO>  (43) 
F 20

>  <SCORE>  (43) 
-14.296

>  <name>  (43) 
44

>  <ligand_id>  (43) 
44

>  <original_smiles>  (43) 
[H]c1c(C([H])([H])Oc2c([H])c([H])c3c(c2[H])C([H])([H])N(C(=O)C([H])(N([H])C(=O)C([H])(N([H])C([H])([H])[H])C([H])([H])[H])C(C([H])([H])[H])(C([H])([H])[H])C([H])([H])[H])C([H])(C(=O)N([H])C2([H])c4c([H])c([H])c([H])c([H])c4C([H])([H])C([H])([H])C2([H])[H])C3([H])[H])nc(C([H])([H])C([H])([H])N([H])C(=O)N2C([H])([H])C([H])([H])C([H])([H])C([H])(n3nc(-c4c([H])c([H])c(Oc5c([H])c([H])c(F)c([H])c5F)c([H])c4[H])c(C(=O)N([H])[H])c3N([H])[H])C2([H])[H])c(C(F)(F)F)c1[H]

>  <smiles>  (43) 
[H]c1c(C([H])([H])Oc2c([H])c([H])c3c(c2[H])C([H])([H])N(C(=O)C([H])(N([H])C(=O)C([H])(N([H])C([H])([H])[H])C([H])([H])[H])C(C([H])([H])[H])(C([H])([H])[H])C([H])([H])[H])C([H])(C(=O)N([H])C2([H])c4c([H])c([H])c([H])c([H])c4C([H])([H])C([H])([H])C2([H])[H])C3([H])[H])nc(C([H])([H])C([H])([H])N([H])C(=O)N2C([H])([H])C([H])([H])C([H])([H])C([H])(n3nc(-c4c([H])c([H])c(Oc5c([H])c([H])c(F)c([H])c5F)c([H])c4[H])c(C(=O)N([H])[H])c3N([H])[H])C2([H])[H])c(C(F)(F)F)c1[H]

$$$$
45:0:0
     RDKit          3D

 94102  0  0  1  0  0  0  0  0999 V2000
  -30.3420  -18.6980   21.1460 C   0  0  0  0  0  3  0  0  0  0  0  0
  -30.2800  -17.5410   20.3570 C   0  0  0  0  0  0  0  0  0  0  0  0
  -29.8640  -18.0340   19.1020 N   0  0  0  0  0  0  0  0  0  0  0  0
  -29.7380  -19.3470   19.1110 N   0  0  0  0  0  0  0  0  0  0  0  0
  -29.9900  -19.8140   20.3620 N   0  0  0  0  0  0  0  0  0  0  0  0
  -30.0570  -21.3070   20.6720 C   0  0  0  0  0  3  0  0  0  0  0  0
  -28.8030  -22.2920   20.4380 C   0  0  0  0  0  3  0  0  0  0  0  0
  -29.0470  -23.8940   20.5220 C   0  0  0  0  0  3  0  0  0  0  0  0
  -27.8360  -24.9290   20.2980 C   0  0  0  0  0  3  0  0  0  0  0  0
  -28.1020  -26.4080   20.2420 O   0  0  0  0  0  0  0  0  0  0  0  0
  -24.4520  -31.9260   23.2030 C   0  0  0  0  0  0  0  0  0  0  0  0
  -27.0050  -27.2950   20.1760 C   0  0  0  0  0  0  0  0  0  0  0  0
  -23.2240  -30.5020   21.6070 C   0  0  0  0  0  3  0  0  0  0  0  0
  -24.6520  -28.9430   20.1650 C   0  0  0  0  0  0  0  0  0  0  0  0
  -25.7600  -30.8160   21.3770 C   0  0  0  0  0  2  0  0  0  0  0  0
  -25.8320  -29.4280   20.7430 C   0  0  0  0  0  0  0  0  0  0  0  0
  -27.0130  -28.6180   20.7350 C   0  0  0  0  0  3  0  0  0  0  0  0
  -25.8030  -26.8800   19.5600 C   0  0  0  0  0  3  0  0  0  0  0  0
  -24.6430  -27.6770   19.5600 C   0  0  0  0  0  3  0  0  0  0  0  0
  -23.4150  -29.8200   20.2290 C   0  0  0  0  0  2  0  0  0  0  0  0
  -24.4990  -31.0980   22.1190 N   0  0  0  0  0  0  0  0  0  0  0  0
  -23.3780  -32.2090   23.7500 O   0  0  0  0  0  0  0  0  0  0  0  0
  -22.5830  -29.4920   22.5880 C   0  0  0  0  0  0  0  0  0  0  0  0
  -21.2720  -29.2450   22.4290 N   0  0  0  0  0  0  0  0  0  0  0  0
  -23.2660  -28.9360   23.4520 O   0  0  0  0  0  0  0  0  0  0  0  0
  -20.7770  -29.7500   21.7080 H   0  0  0  0  0  0  0  0  0  0  0  0
  -17.9540  -27.8650   22.8470 C   0  0  0  0  0  0  0  0  0  0  0  0
  -20.4760  -28.3020   23.2150 C   0  0  0  0  0  3  0  0  0  0  0  0
  -20.6950  -26.8490   22.7340 C   0  0  0  0  0  2  0  0  0  0  0  0
  -19.6670  -26.3990   21.6900 C   0  0  0  0  0  2  0  0  0  0  0  0
  -18.2470  -26.4920   22.2610 C   0  0  0  0  0  2  0  0  0  0  0  0
  -19.0020  -28.7200   23.2810 C   0  0  0  0  0  0  0  0  0  0  0  0
  -18.6780  -29.9980   23.7810 C   0  0  0  0  0  3  0  0  0  0  0  0
  -17.3400  -30.4260   23.8530 C   0  0  0  0  0  3  0  0  0  0  0  0
  -16.3060  -29.5680   23.4410 C   0  0  0  0  0  3  0  0  0  0  0  0
  -16.6120  -28.2910   22.9430 C   0  0  0  0  0  3  0  0  0  0  0  0
  -25.7440  -32.5710   23.7920 C   0  0  0  0  0  3  0  0  0  0  0  0
  -26.2780  -31.8270   25.0780 C   0  0  1  0  0  0  0  0  0  0  0  0
  -25.1930  -31.5810   26.1540 C   0  0  0  0  0  1  0  0  0  0  0  0
  -26.8850  -30.4550   24.7050 C   0  0  0  0  0  1  0  0  0  0  0  0
  -27.4130  -32.6540   25.7220 C   0  0  0  0  0  1  0  0  0  0  0  0
  -25.4390  -33.9770   24.0920 N   0  0  0  0  0  0  0  0  0  0  0  0
  -25.7450  -35.0100   23.2990 C   0  0  0  0  0  0  0  0  0  0  0  0
  -26.3890  -34.8820   22.2520 O   0  0  0  0  0  0  0  0  0  0  0  0
  -24.8620  -34.1480   24.9040 H   0  0  0  0  0  0  0  0  0  0  0  0
  -23.9970  -36.7860   22.9610 C   0  0  0  0  0  1  0  0  0  0  0  0
  -25.2690  -36.4100   23.7340 C   0  0  0  0  0  3  0  0  0  0  0  0
  -27.4300  -37.3270   24.4610 C   0  0  0  0  0  1  0  0  0  0  0  0
  -26.2930  -37.4620   23.5540 N   0  0  0  0  0  0  0  0  0  0  0  0
  -25.8880  -38.3850   23.6920 H   0  0  0  0  0  0  0  0  0  0  0  0
  -30.4290  -15.9860   20.7590 C   0  0  1  0  0  0  0  0  0  0  0  0
  -30.5780  -14.8620   19.5640 C   0  0  0  0  0  0  0  0  0  0  0  0
  -30.0960  -12.7980   18.1820 C   0  0  0  0  0  2  0  0  0  0  0  0
  -28.9710  -13.0220   17.1430 C   0  0  0  0  0  2  0  0  0  0  0  0
  -27.5820  -12.7730   17.7610 C   0  0  0  0  0  2  0  0  0  0  0  0
  -27.4310  -13.4860   19.1310 C   0  0  0  0  0  3  0  0  0  0  0  0
  -28.6440  -13.1520   20.0250 C   0  0  0  0  0  2  0  0  0  0  0  0
  -29.8580  -13.6780   19.3670 N   0  0  0  0  0  0  0  0  0  0  0  0
  -31.5040  -15.0560   18.7630 O   0  0  0  0  0  0  0  0  0  0  0  0
  -25.1830  -14.0200   20.2680 C   0  0  0  0  0  0  0  0  0  0  0  0
  -24.1880  -13.2190   20.7490 C   0  0  0  0  0  0  0  0  0  0  0  0
  -24.6250  -11.8740   20.5410 C   0  0  0  0  0  0  0  0  0  0  0  0
  -26.1700  -13.1660   19.7980 N   0  0  0  0  0  0  0  0  0  0  0  0
  -25.8490  -11.8650   20.0210 N   0  0  0  0  0  0  0  0  0  0  0  0
  -23.9290  -10.6010   20.7480 C   0  0  0  0  0  0  0  0  0  0  0  0
  -24.4760   -9.5830   21.5580 C   0  0  0  0  0  3  0  0  0  0  0  0
  -23.7780   -8.3720   21.7520 C   0  0  0  0  0  3  0  0  0  0  0  0
  -22.5220   -8.1710   21.1350 C   0  0  0  0  0  0  0  0  0  0  0  0
  -21.9930   -9.1790   20.3090 C   0  0  0  0  0  3  0  0  0  0  0  0
  -22.6900  -10.3810   20.1130 C   0  0  0  0  0  3  0  0  0  0  0  0
  -21.7830   -7.0170   21.2410 O   0  0  0  0  0  0  0  0  0  0  0  0
  -21.8500   -6.2210   22.3570 C   0  0  0  0  0  0  0  0  0  0  0  0
  -21.5740   -6.7240   23.6480 C   0  0  0  0  0  3  0  0  0  0  0  0
  -21.5840   -5.8560   24.7570 C   0  0  0  0  0  3  0  0  0  0  0  0
  -21.8640   -4.4860   24.5800 C   0  0  0  0  0  0  0  0  0  0  0  0
  -22.1350   -3.9850   23.2930 C   0  0  0  0  0  3  0  0  0  0  0  0
  -22.1260   -4.8490   22.1860 C   0  0  0  0  0  0  0  0  0  0  0  0
  -22.3650   -4.3570   20.9470 F   0  0  0  0  0  0  0  0  0  0  0  0
  -21.8670   -3.6500   25.6430 F   0  0  0  0  0  0  0  0  0  0  0  0
  -22.8580  -13.6700   21.2840 C   0  0  0  0  0  0  0  0  0  0  0  0
  -22.2860  -12.9210   22.2180 N   0  0  0  0  0  0  0  0  0  0  0  0
  -22.3410  -14.7200   20.9060 O   0  0  0  0  0  0  0  0  0  0  0  0
  -22.7280  -12.0780   22.5570 H   0  0  0  0  0  0  0  0  0  0  0  0
  -21.3930  -13.2010   22.6000 H   0  0  0  0  0  0  0  0  0  0  0  0
  -25.3190  -15.4000   20.1740 N   0  0  0  0  0  0  0  0  0  0  0  0
  -24.6130  -16.0360   20.5220 H   0  0  0  0  0  0  0  0  0  0  0  0
  -26.1720  -15.8680   19.8970 H   0  0  0  0  0  0  0  0  0  0  0  0
  -31.7510  -15.8020   21.5890 C   0  0  2  0  0  0  0  0  0  0  0  0
  -31.7090  -16.4330   22.7660 F   0  0  0  0  0  0  0  0  0  0  0  0
  -32.8210  -16.2680   20.9400 F   0  0  0  0  0  0  0  0  0  0  0  0
  -31.9770  -14.5090   21.8500 F   0  0  0  0  0  0  0  0  0  0  0  0
  -29.2540  -15.7050   21.7390 C   0  0  0  0  0  3  0  0  0  0  0  0
  -29.2030  -16.5570   22.7640 F   0  0  0  0  0  0  0  0  0  0  0  0
  -28.0780  -15.7760   21.1180 F   0  0  0  0  0  0  0  0  0  0  0  0
  2 51  1  0
  2  1  2  0
  3  4  2  0
  3  2  1  0
  4  5  1  0
  5  6  1  0
  5  1  1  0
  7  8  1  0
  7  6  2  0
  9  8  2  0
 10  9  1  0
 11 22  2  0
 12 10  1  0
 12 17  1  0
 13 21  1  0
 13 23  1  0
 14 20  1  0
 14 16  1  0
 15 21  1  0
 16 15  1  0
 17 16  2  0
 18 12  2  0
 19 18  1  0
 19 14  2  0
 20 13  1  0
 21 11  1  0
 23 25  2  0
 24 23  1  0
 26 24  1  0
 27 36  2  0
 27 32  1  0
 28 24  1  0
 28 32  1  0
 29 28  1  0
 30 31  1  0
 30 29  1  0
 31 27  1  0
 32 33  2  0
 33 34  1  0
 35 34  2  0
 36 35  1  0
 37 11  1  0
 37 42  1  0
 37 38  1  0
 38 41  1  1
 38 39  1  0
 40 38  1  0
 42 45  1  0
 43 47  1  0
 43 42  1  0
 44 43  2  0
 47 46  1  0
 49 50  1  0
 49 47  1  0
 49 48  1  0
 51 52  1  0
 51 88  1  0
 51 92  1  1
 53 58  1  0
 54 55  1  0
 54 53  1  0
 56 55  1  0
 56 63  1  0
 56 57  1  0
 58 52  1  0
 58 57  1  0
 59 52  2  0
 60 61  2  0
 61 80  1  0
 62 65  1  0
 62 61  1  0
 63 64  1  0
 63 60  1  0
 64 62  2  0
 65 66  1  0
 66 67  2  0
 68 71  1  0
 68 67  1  0
 69 68  2  0
 70 69  1  0
 70 65  2  0
 71 72  1  0
 72 73  1  0
 73 74  2  0
 75 74  1  0
 75 79  1  0
 76 75  2  0
 77 72  2  0
 77 76  1  0
 78 77  1  0
 80 81  1  0
 81 83  1  0
 81 84  1  0
 82 80  2  0
 85 60  1  0
 85 86  1  0
 87 85  1  0
 88 91  1  1
 88 89  1  0
 90 88  1  0
 92 93  1  0
 94 92  1  0
M  ISO  4   9 101  10 101  51 100  52 100
M  END
>  <TORSDO>  (44) 
F 23

>  <SCORE>  (44) 
-8.217

>  <name>  (44) 
45

>  <ligand_id>  (44) 
45

>  <original_smiles>  (44) 
[H]c1c([H])c([H])c2c(c1[H])C([H])([H])C([H])([H])C([H])([H])C2([H])N([H])C(=O)C1([H])N(C(=O)C([H])(N([H])C(=O)C([H])(N([H])C([H])([H])[H])C([H])([H])[H])C(C([H])([H])[H])(C([H])([H])[H])C([H])([H])[H])C([H])([H])c2c([H])c(OC([H])([H])C([H])([H])C([H])([H])C([H])([H])n3nnc(C(C(=O)N4C([H])([H])C([H])([H])C([H])([H])C([H])(n5nc(-c6c([H])c([H])c(Oc7c([H])c([H])c(F)c([H])c7F)c([H])c6[H])c(C(=O)N([H])[H])c5N([H])[H])C4([H])[H])(C([H])(F)F)C(F)(F)F)c3[H])c([H])c([H])c2C1([H])[H]

>  <smiles>  (44) 
[H]c1c([H])c([H])c2c(c1[H])C([H])([H])C([H])([H])C([H])([H])C2([H])N([H])C(=O)C1([H])N(C(=O)C([H])(N([H])C(=O)C([H])(N([H])C([H])([H])[H])C([H])([H])[H])C(C([H])([H])[H])(C([H])([H])[H])C([H])([H])[H])C([H])([H])c2c([H])c(OC([H])([H])C([H])([H])C([H])([H])C([H])([H])n3nnc(C(C(=O)N4C([H])([H])C([H])([H])C([H])([H])C([H])(n5nc(-c6c([H])c([H])c(Oc7c([H])c([H])c(F)c([H])c7F)c([H])c6[H])c(C(=O)N([H])[H])c5N([H])[H])C4([H])[H])(C([H])(F)F)C(F)(F)F)c3[H])c([H])c([H])c2C1([H])[H]

$$$$
46:0:0
     RDKit          3D

 97105  0  0  1  0  0  0  0  0999 V2000
  -29.5260  -19.2460   19.3310 C   0  0  0  0  0  3  0  0  0  0  0  0
  -30.2830  -19.9070   20.2670 C   0  0  0  0  0  0  0  0  0  0  0  0
  -30.7020  -17.6170   20.3770 C   0  0  0  0  0  3  0  0  0  0  0  0
  -29.7840  -17.8830   19.4130 N   0  0  0  0  0  0  0  0  0  0  0  0
  -31.0210  -18.8670   20.8390 N   0  0  0  0  0  0  0  0  0  0  0  0
  -31.7650  -19.0410   21.5070 H   0  0  0  0  0  0  0  0  0  0  0  0
  -32.6240  -16.5690   21.6320 C   0  0  0  0  0  1  0  0  0  0  0  0
  -31.2160  -16.2540   21.0440 C   0  0  2  0  0  0  0  0  0  0  0  0
  -31.5060  -14.9500   20.0970 C   0  0  0  0  0  0  0  0  0  0  0  0
  -31.0790  -12.7930   18.8770 C   0  0  0  0  0  2  0  0  0  0  0  0
  -30.0260  -12.9770   17.7640 C   0  0  0  0  0  2  0  0  0  0  0  0
  -28.5940  -12.8010   18.3160 C   0  0  0  0  0  2  0  0  0  0  0  0
  -28.3770  -13.5870   19.6350 C   0  0  0  0  0  3  0  0  0  0  0  0
  -29.5340  -13.3050   20.6130 C   0  0  0  0  0  2  0  0  0  0  0  0
  -30.7900  -13.7590   19.9760 N   0  0  0  0  0  0  0  0  0  0  0  0
  -32.5150  -15.0590   19.3910 O   0  0  0  0  0  0  0  0  0  0  0  0
  -26.1310  -14.2070   20.7240 C   0  0  0  0  0  0  0  0  0  0  0  0
  -25.0650  -13.4490   21.1260 C   0  0  0  0  0  0  0  0  0  0  0  0
  -25.4220  -12.0940   20.8480 C   0  0  0  0  0  0  0  0  0  0  0  0
  -27.0730  -13.3150   20.2330 N   0  0  0  0  0  0  0  0  0  0  0  0
  -26.6560  -12.0290   20.3650 N   0  0  0  0  0  0  0  0  0  0  0  0
  -24.6330  -10.8610   20.9610 C   0  0  0  0  0  0  0  0  0  0  0  0
  -25.0650   -9.7790   21.7590 C   0  0  0  0  0  3  0  0  0  0  0  0
  -24.2790   -8.6100   21.8640 C   0  0  0  0  0  3  0  0  0  0  0  0
  -23.0510   -8.5180   21.1640 C   0  0  0  0  0  0  0  0  0  0  0  0
  -22.6390   -9.5890   20.3510 C   0  0  0  0  0  3  0  0  0  0  0  0
  -23.4240  -10.7500   20.2440 C   0  0  0  0  0  3  0  0  0  0  0  0
  -22.2320   -7.4140   21.1860 O   0  0  0  0  0  0  0  0  0  0  0  0
  -22.1250   -6.6210   22.2990 C   0  0  0  0  0  0  0  0  0  0  0  0
  -21.7240   -7.1400   23.5490 C   0  0  0  0  0  3  0  0  0  0  0  0
  -21.5630   -6.2790   24.6520 C   0  0  0  0  0  3  0  0  0  0  0  0
  -21.7870   -4.8970   24.5050 C   0  0  0  0  0  0  0  0  0  0  0  0
  -22.1790   -4.3770   23.2600 C   0  0  0  0  0  3  0  0  0  0  0  0
  -22.3440   -5.2350   22.1590 C   0  0  0  0  0  0  0  0  0  0  0  0
  -22.7020   -4.7260   20.9560 F   0  0  0  0  0  0  0  0  0  0  0  0
  -21.6290   -4.0650   25.5610 F   0  0  0  0  0  0  0  0  0  0  0  0
  -23.7480  -13.9620   21.6350 C   0  0  0  0  0  0  0  0  0  0  0  0
  -23.0860  -13.2060   22.5060 N   0  0  0  0  0  0  0  0  0  0  0  0
  -23.3170  -15.0600   21.2910 O   0  0  0  0  0  0  0  0  0  0  0  0
  -23.4500  -12.3190   22.8200 H   0  0  0  0  0  0  0  0  0  0  0  0
  -22.1920  -13.5240   22.8560 H   0  0  0  0  0  0  0  0  0  0  0  0
  -26.3640  -15.5780   20.7140 N   0  0  0  0  0  0  0  0  0  0  0  0
  -27.0130  -16.0080   20.0670 H   0  0  0  0  0  0  0  0  0  0  0  0
  -25.5930  -16.1970   20.9430 H   0  0  0  0  0  0  0  0  0  0  0  0
  -30.2800  -15.9140   22.2490 C   0  0  0  0  0  2  0  0  0  0  0  0
  -30.0710  -16.9630   23.2770 N   0  0  0  0  0  4  0  0  0  0  0  0
  -29.7100  -17.8210   22.9000 H   0  0  0  0  0  0  0  0  0  0  0  0
  -30.9040  -17.1410   23.8090 H   0  0  0  0  0  0  0  0  0  0  0  0
  -29.3830  -16.6350   23.9340 H   0  0  0  0  0  0  0  0  0  0  0  0
  -30.4440  -21.4230   20.6120 C   0  0  0  0  0  3  0  0  0  0  0  0
  -29.2800  -22.4700   20.2530 C   0  0  0  0  0  3  0  0  0  0  0  0
  -29.5380  -24.0450   20.4850 C   0  0  0  0  0  3  0  0  0  0  0  0
  -28.4030  -25.0800   20.0240 C   0  0  0  0  0  3  0  0  0  0  0  0
  -28.5440  -26.5470   20.2510 O   0  0  0  0  0  0  0  0  0  0  0  0
  -24.6350  -31.8680   23.1880 C   0  0  0  0  0  0  0  0  0  0  0  0
  -27.4060  -27.3760   20.1630 C   0  0  0  0  0  0  0  0  0  0  0  0
  -23.4940  -30.4620   21.5110 C   0  0  0  0  0  3  0  0  0  0  0  0
  -25.0030  -28.9500   20.1060 C   0  0  0  0  0  0  0  0  0  0  0  0
  -26.0300  -30.8270   21.3850 C   0  0  0  0  0  2  0  0  0  0  0  0
  -26.1490  -29.4550   20.7300 C   0  0  0  0  0  0  0  0  0  0  0  0
  -27.3490  -28.6810   20.7500 C   0  0  0  0  0  3  0  0  0  0  0  0
  -26.2320  -26.9290   19.5090 C   0  0  0  0  0  3  0  0  0  0  0  0
  -25.0470  -27.6900   19.4870 C   0  0  0  0  0  3  0  0  0  0  0  0
  -23.7480  -29.7980   20.1320 C   0  0  0  0  0  2  0  0  0  0  0  0
  -24.7380  -31.0720   22.0850 N   0  0  0  0  0  0  0  0  0  0  0  0
  -23.5360  -32.1190   23.7040 O   0  0  0  0  0  0  0  0  0  0  0  0
  -22.8270  -29.4270   22.4500 C   0  0  0  0  0  0  0  0  0  0  0  0
  -21.5090  -29.2220   22.2870 N   0  0  0  0  0  0  0  0  0  0  0  0
  -23.4970  -28.8110   23.2830 O   0  0  0  0  0  0  0  0  0  0  0  0
  -21.0290  -29.7700   21.5860 H   0  0  0  0  0  0  0  0  0  0  0  0
  -18.1520  -27.9260   22.6740 C   0  0  0  0  0  0  0  0  0  0  0  0
  -20.6890  -28.2640   23.0320 C   0  0  0  0  0  3  0  0  0  0  0  0
  -20.8550  -26.8340   22.4660 C   0  0  0  0  0  2  0  0  0  0  0  0
  -19.8000  -26.4760   21.4140 C   0  0  0  0  0  2  0  0  0  0  0  0
  -18.3930  -26.5810   22.0090 C   0  0  0  0  0  2  0  0  0  0  0  0
  -19.2320  -28.7220   23.1400 C   0  0  0  0  0  0  0  0  0  0  0  0
  -18.9540  -29.9770   23.7250 C   0  0  0  0  0  3  0  0  0  0  0  0
  -17.6300  -30.4400   23.8420 C   0  0  0  0  0  3  0  0  0  0  0  0
  -16.5650  -29.6420   23.3920 C   0  0  0  0  0  3  0  0  0  0  0  0
  -16.8250  -28.3860   22.8150 C   0  0  0  0  0  3  0  0  0  0  0  0
  -25.8920  -32.5190   23.8450 C   0  0  0  0  0  3  0  0  0  0  0  0
  -26.3980  -31.7410   25.1220 C   0  0  1  0  0  0  0  0  0  0  0  0
  -25.2880  -31.4700   26.1670 C   0  0  0  0  0  1  0  0  0  0  0  0
  -27.0140  -30.3800   24.7260 C   0  0  0  0  0  1  0  0  0  0  0  0
  -27.5240  -32.5460   25.8140 C   0  0  0  0  0  1  0  0  0  0  0  0
  -25.5470  -33.9060   24.1910 N   0  0  0  0  0  0  0  0  0  0  0  0
  -25.8690  -34.9770   23.4530 C   0  0  0  0  0  0  0  0  0  0  0  0
  -26.5560  -34.9020   22.4310 O   0  0  0  0  0  0  0  0  0  0  0  0
  -24.9410  -34.0350   24.9870 H   0  0  0  0  0  0  0  0  0  0  0  0
  -24.1080  -36.7370   23.1020 C   0  0  0  0  0  1  0  0  0  0  0  0
  -25.3470  -36.3470   23.9240 C   0  0  0  0  0  3  0  0  0  0  0  0
  -27.4520  -37.2640   24.7930 C   0  0  0  0  0  1  0  0  0  0  0  0
  -26.3570  -37.4240   23.8390 N   0  0  0  0  0  0  0  0  0  0  0  0
  -25.9300  -38.3320   23.9940 H   0  0  0  0  0  0  0  0  0  0  0  0
  -29.1320  -16.9020   18.5350 C   0  0  0  0  0  2  0  0  0  0  0  0
  -26.9440  -15.6750   18.0370 C   0  0  0  0  0  1  0  0  0  0  0  0
  -27.6110  -16.8510   18.7560 C   0  0  0  0  0  2  0  0  0  0  0  0
  1  4  1  0
  1  2  2  0
  2 50  1  0
  2  5  1  0
  3  5  1  0
  3  8  1  0
  4  3  1  0
  5  6  1  0
  8  7  1  1
  8 45  1  0
  9  8  1  0
 10 15  1  0
 11 12  1  0
 11 10  1  0
 13 12  1  0
 13 20  1  0
 13 14  1  0
 15  9  1  0
 15 14  1  0
 16  9  2  0
 17 18  2  0
 18 37  1  0
 19 22  1  0
 19 18  1  0
 20 21  1  0
 20 17  1  0
 21 19  2  0
 22 23  1  0
 23 24  2  0
 25 28  1  0
 25 24  1  0
 26 25  2  0
 27 26  1  0
 27 22  2  0
 28 29  1  0
 29 30  1  0
 30 31  2  0
 32 31  1  0
 32 36  1  0
 33 32  2  0
 34 29  2  0
 34 33  1  0
 35 34  1  0
 37 38  1  0
 38 40  1  0
 38 41  1  0
 39 37  2  0
 42 17  1  0
 42 44  1  0
 43 42  1  0
 45 46  1  0
 46 48  1  0
 46 49  1  0
 47 46  1  0
 51 52  1  0
 51 50  2  0
 53 54  1  0
 53 52  2  0
 55 66  2  0
 56 54  1  0
 56 61  1  0
 57 65  1  0
 57 67  1  0
 58 64  1  0
 58 60  1  0
 59 65  1  0
 60 61  2  0
 60 59  1  0
 62 56  2  0
 63 62  1  0
 63 58  2  0
 64 57  1  0
 65 55  1  0
 67 69  2  0
 68 67  1  0
 70 68  1  0
 71 80  2  0
 71 76  1  0
 72 68  1  0
 72 76  1  0
 73 72  1  0
 74 75  1  0
 74 73  1  0
 75 71  1  0
 76 77  2  0
 77 78  1  0
 79 78  2  0
 80 79  1  0
 81 55  1  0
 81 86  1  0
 81 82  1  0
 82 85  1  1
 82 83  1  0
 84 82  1  0
 86 89  1  0
 87 91  1  0
 87 86  1  0
 88 87  2  0
 91 90  1  0
 93 91  1  0
 93 94  1  0
 93 92  1  0
 95 97  1  0
 95  4  1  0
 96 97  1  0
M  ISO  4   8 100   9 100  53 101  54 101
M  END
>  <TORSDO>  (45) 
F 25

>  <SCORE>  (45) 
-5.840

>  <name>  (45) 
46

>  <ligand_id>  (45) 
46

>  <original_smiles>  (45) 
[H]c1c([H])c([H])c2c(c1[H])C([H])([H])C([H])([H])C([H])([H])C2([H])N([H])C(=O)C1([H])N(C(=O)C([H])(N([H])C(=O)C([H])(N([H])C([H])([H])[H])C([H])([H])[H])C(C([H])([H])[H])(C([H])([H])[H])C([H])([H])[H])C([H])([H])c2c([H])c(OC([H])([H])C([H])([H])C([H])([H])C([H])([H])c3c([H])n(C([H])([H])C([H])([H])C([H])([H])[H])c(C(C(=O)N4C([H])([H])C([H])([H])C([H])([H])C([H])(n5nc(-c6c([H])c([H])c(Oc7c([H])c([H])c(F)c([H])c7F)c([H])c6[H])c(C(=O)N([H])[H])c5N([H])[H])C4([H])[H])(C([H])([H])[H])C([H])([H])[N+]([H])([H])[H])[n+]3[H])c([H])c([H])c2C1([H])[H]

>  <smiles>  (45) 
[H]c1c([H])c([H])c2c(c1[H])C([H])([H])C([H])([H])C([H])([H])C2([H])N([H])C(=O)C1([H])N(C(=O)C([H])(N([H])C(=O)C([H])(N([H])C([H])([H])[H])C([H])([H])[H])C(C([H])([H])[H])(C([H])([H])[H])C([H])([H])[H])C([H])([H])c2c([H])c(OC([H])([H])C([H])([H])C([H])([H])C([H])([H])c3c([H])n(C([H])([H])C([H])([H])C([H])([H])[H])c(C(C(=O)N4C([H])([H])C([H])([H])C([H])([H])C([H])(n5nc(-c6c([H])c([H])c(Oc7c([H])c([H])c(F)c([H])c7F)c([H])c6[H])c(C(=O)N([H])[H])c5N([H])[H])C4([H])[H])(C([H])([H])[H])C([H])([H])[N+]([H])([H])[H])[n+]3[H])c([H])c([H])c2C1([H])[H]

$$$$
47:0:0
     RDKit          3D

 94102  0  0  1  0  0  0  0  0999 V2000
  -30.0910  -19.9850   20.4190 C   0  0  0  0  0  3  0  0  0  0  0  0
  -31.1740  -19.0590   20.3250 C   0  0  0  0  0  0  0  0  0  0  0  0
  -30.0740  -20.3720   21.7330 C   0  0  0  0  0  0  0  0  0  0  0  0
  -31.4230  -19.6370   23.7620 C   0  0  0  0  0  1  0  0  0  0  0  0
  -31.7640  -18.8850   21.5070 N   0  0  0  0  0  0  0  0  0  0  0  0
  -31.0700  -19.6630   22.3670 N   0  0  0  0  0  0  0  0  0  0  0  0
  -32.9270  -17.4960   19.3770 C   0  0  0  0  0  1  0  0  0  0  0  0
  -31.8170  -19.1250   17.9110 C   0  0  0  0  0  1  0  0  0  0  0  0
  -31.5590  -18.1990   19.1260 C   0  0  2  0  0  0  0  0  0  0  0  0
  -30.3800  -17.2320   18.7300 C   0  0  0  0  0  2  0  0  0  0  0  0
  -30.7170  -15.1080   19.9860 C   0  0  0  0  0  0  0  0  0  0  0  0
  -30.6570  -12.8210   19.0780 C   0  0  0  0  0  2  0  0  0  0  0  0
  -29.6500  -12.6900   17.9170 C   0  0  0  0  0  2  0  0  0  0  0  0
  -28.2000  -12.5320   18.4290 C   0  0  0  0  0  2  0  0  0  0  0  0
  -27.8070  -13.5150   19.5600 C   0  0  0  0  0  3  0  0  0  0  0  0
  -28.9020  -13.4290   20.6470 C   0  0  0  0  0  2  0  0  0  0  0  0
  -30.1420  -13.8700   19.9870 N   0  0  0  0  0  0  0  0  0  0  0  0
  -31.9170  -15.2010   19.7190 O   0  0  0  0  0  0  0  0  0  0  0  0
  -28.6430  -16.5840   20.3470 C   0  0  0  0  0  1  0  0  0  0  0  0
  -29.9210  -16.1980   19.7060 N   0  0  0  0  0  0  0  0  0  0  0  0
  -25.4420  -14.0990   20.4010 C   0  0  0  0  0  0  0  0  0  0  0  0
  -24.3980  -13.3140   20.7930 C   0  0  0  0  0  0  0  0  0  0  0  0
  -24.8570  -11.9630   20.6940 C   0  0  0  0  0  0  0  0  0  0  0  0
  -26.4760  -13.2300   20.0900 N   0  0  0  0  0  0  0  0  0  0  0  0
  -26.1340  -11.9410   20.3380 N   0  0  0  0  0  0  0  0  0  0  0  0
  -24.1350  -10.6960   20.8650 C   0  0  0  0  0  0  0  0  0  0  0  0
  -24.5610   -9.7290   21.8040 C   0  0  0  0  0  3  0  0  0  0  0  0
  -23.8510   -8.5210   21.9610 C   0  0  0  0  0  3  0  0  0  0  0  0
  -22.7000   -8.2700   21.1790 C   0  0  0  0  0  0  0  0  0  0  0  0
  -22.2850   -9.2270   20.2360 C   0  0  0  0  0  3  0  0  0  0  0  0
  -22.9960  -10.4280   20.0760 C   0  0  0  0  0  3  0  0  0  0  0  0
  -21.9600   -7.1190   21.2500 O   0  0  0  0  0  0  0  0  0  0  0  0
  -21.8520   -6.4050   22.4190 C   0  0  0  0  0  0  0  0  0  0  0  0
  -21.3220   -6.9780   23.5930 C   0  0  0  0  0  3  0  0  0  0  0  0
  -21.1580   -6.1890   24.7510 C   0  0  0  0  0  3  0  0  0  0  0  0
  -21.5200   -4.8290   24.7310 C   0  0  0  0  0  0  0  0  0  0  0  0
  -22.0460   -4.2560   23.5610 C   0  0  0  0  0  3  0  0  0  0  0  0
  -22.2080   -5.0430   22.4050 C   0  0  0  0  0  0  0  0  0  0  0  0
  -22.6980   -4.4810   21.2750 F   0  0  0  0  0  0  0  0  0  0  0  0
  -21.3540   -4.0680   25.8410 F   0  0  0  0  0  0  0  0  0  0  0  0
  -23.0130  -13.7730   21.1450 C   0  0  0  0  0  0  0  0  0  0  0  0
  -22.3230  -13.0640   22.0230 N   0  0  0  0  0  0  0  0  0  0  0  0
  -22.5510  -14.8120   20.6700 O   0  0  0  0  0  0  0  0  0  0  0  0
  -22.7040  -12.2280   22.4480 H   0  0  0  0  0  0  0  0  0  0  0  0
  -21.3970  -13.3790   22.2780 H   0  0  0  0  0  0  0  0  0  0  0  0
  -25.5900  -15.4810   20.2680 N   0  0  0  0  0  0  0  0  0  0  0  0
  -24.8200  -16.1200   20.4350 H   0  0  0  0  0  0  0  0  0  0  0  0
  -26.4180  -15.9460   19.9240 H   0  0  0  0  0  0  0  0  0  0  0  0
  -29.2820  -21.2270   22.4360 O   0  0  0  0  0  0  0  0  0  0  0  0
  -28.4620  -22.1320   21.6890 C   0  0  0  0  0  2  0  0  0  0  0  0
  -28.7630  -23.5800   22.1200 C   0  0  0  0  0  2  0  0  0  0  0  0
  -28.5030  -24.5800   20.9770 C   0  0  0  0  0  2  0  0  0  0  0  0
  -28.7880  -26.0440   21.3550 C   0  0  0  0  0  2  0  0  0  0  0  0
  -28.7290  -26.8860   20.1990 O   0  0  0  0  0  0  0  0  0  0  0  0
  -24.6510  -31.8370   23.1960 C   0  0  0  0  0  0  0  0  0  0  0  0
  -27.5600  -27.5920   20.1280 C   0  0  0  0  0  0  0  0  0  0  0  0
  -23.5430  -30.3950   21.5140 C   0  0  0  0  0  3  0  0  0  0  0  0
  -25.0970  -28.9600   20.0970 C   0  0  0  0  0  0  0  0  0  0  0  0
  -26.0490  -30.8920   21.3620 C   0  0  0  0  0  2  0  0  0  0  0  0
  -26.2120  -29.5340   20.7210 C   0  0  0  0  0  0  0  0  0  0  0  0
  -27.4480  -28.8580   20.7380 C   0  0  0  0  0  3  0  0  0  0  0  0
  -26.4390  -27.0260   19.4880 C   0  0  0  0  0  3  0  0  0  0  0  0
  -25.2050  -27.7010   19.4830 C   0  0  0  0  0  3  0  0  0  0  0  0
  -23.8070  -29.7470   20.1300 C   0  0  0  0  0  2  0  0  0  0  0  0
  -24.7650  -31.0560   22.0840 N   0  0  0  0  0  0  0  0  0  0  0  0
  -23.5490  -32.0410   23.7250 O   0  0  0  0  0  0  0  0  0  0  0  0
  -22.9320  -29.3280   22.4500 C   0  0  0  0  0  0  0  0  0  0  0  0
  -21.6200  -29.0790   22.3000 N   0  0  0  0  0  0  0  0  0  0  0  0
  -23.6360  -28.7290   23.2680 O   0  0  0  0  0  0  0  0  0  0  0  0
  -21.1100  -29.6110   21.6090 H   0  0  0  0  0  0  0  0  0  0  0  0
  -18.3080  -27.7060   22.7160 C   0  0  0  0  0  0  0  0  0  0  0  0
  -20.8420  -28.0950   23.0510 C   0  0  0  0  0  3  0  0  0  0  0  0
  -21.0350  -26.6750   22.4680 C   0  0  0  0  0  2  0  0  0  0  0  0
  -19.9750  -26.3010   21.4290 C   0  0  0  0  0  2  0  0  0  0  0  0
  -18.5720  -26.3700   22.0380 C   0  0  0  0  0  2  0  0  0  0  0  0
  -19.3730  -28.5210   23.1790 C   0  0  0  0  0  0  0  0  0  0  0  0
  -19.0750  -29.7680   23.7700 C   0  0  0  0  0  3  0  0  0  0  0  0
  -17.7430  -30.1990   23.9080 C   0  0  0  0  0  3  0  0  0  0  0  0
  -16.6910  -29.3790   23.4680 C   0  0  0  0  0  3  0  0  0  0  0  0
  -16.9720  -28.1340   22.8750 C   0  0  0  0  0  3  0  0  0  0  0  0
  -25.8910  -32.5310   23.8390 C   0  0  0  0  0  3  0  0  0  0  0  0
  -25.5130  -33.9120   24.1690 N   0  0  0  0  0  0  0  0  0  0  0  0
  -25.8160  -34.9810   23.4190 C   0  0  0  0  0  0  0  0  0  0  0  0
  -26.5170  -34.9120   22.4080 O   0  0  0  0  0  0  0  0  0  0  0  0
  -24.8980  -34.0380   24.9600 H   0  0  0  0  0  0  0  0  0  0  0  0
  -24.0200  -36.6920   23.0160 C   0  0  0  0  0  1  0  0  0  0  0  0
  -25.2510  -36.3430   23.8660 C   0  0  0  0  0  3  0  0  0  0  0  0
  -27.3150  -37.3170   24.7720 C   0  0  0  0  0  1  0  0  0  0  0  0
  -26.2390  -37.4420   23.7910 N   0  0  0  0  0  0  0  0  0  0  0  0
  -25.7840  -38.3390   23.9360 H   0  0  0  0  0  0  0  0  0  0  0  0
  -26.4220  -31.7820   25.1230 C   0  0  1  0  0  0  0  0  0  0  0  0
  -25.3200  -31.4770   26.1680 C   0  0  0  0  0  1  0  0  0  0  0  0
  -27.0850  -30.4420   24.7280 C   0  0  0  0  0  1  0  0  0  0  0  0
  -27.5210  -32.6280   25.8090 C   0  0  0  0  0  1  0  0  0  0  0  0
  1  3  2  0
  2  1  1  0
  2  5  2  0
  3  6  1  0
  3 49  1  0
  5  6  1  0
  6  4  1  0
  9  8  1  6
  9  7  1  0
  9  2  1  0
 10  9  1  0
 10 20  1  0
 11 17  1  0
 12 17  1  0
 13 14  1  0
 13 12  1  0
 15 14  1  0
 15 24  1  0
 15 16  1  0
 17 16  1  0
 18 11  2  0
 20 11  1  0
 20 19  1  0
 21 22  2  0
 22 41  1  0
 23 22  1  0
 23 26  1  0
 24 25  1  0
 24 21  1  0
 25 23  2  0
 26 27  1  0
 27 28  2  0
 29 32  1  0
 29 28  1  0
 30 29  2  0
 31 30  1  0
 31 26  2  0
 32 33  1  0
 33 34  1  0
 34 35  2  0
 36 35  1  0
 36 40  1  0
 37 36  2  0
 38 33  2  0
 38 37  1  0
 39 38  1  0
 41 42  1  0
 42 45  1  0
 42 44  1  0
 43 41  2  0
 46 21  1  0
 46 47  1  0
 48 46  1  0
 50 51  1  0
 50 49  1  0
 52 53  1  0
 52 51  1  0
 54 53  1  0
 55 66  2  0
 56 54  1  0
 56 61  1  0
 57 65  1  0
 57 67  1  0
 58 64  1  0
 58 60  1  0
 59 65  1  0
 60 61  2  0
 60 59  1  0
 62 56  2  0
 63 62  1  0
 63 58  2  0
 64 57  1  0
 65 55  1  0
 67 69  2  0
 68 67  1  0
 70 68  1  0
 71 80  2  0
 71 76  1  0
 72 68  1  0
 72 76  1  0
 73 72  1  0
 74 75  1  0
 74 73  1  0
 75 71  1  0
 76 77  2  0
 77 78  1  0
 79 78  2  0
 80 79  1  0
 81 55  1  0
 81 82  1  0
 81 91  1  0
 82 85  1  0
 83 87  1  0
 83 82  1  0
 84 83  2  0
 87 86  1  0
 89 87  1  0
 89 90  1  0
 89 88  1  0
 91 94  1  1
 91 92  1  0
 93 91  1  0
M  ISO  4  11 100  20 100  53 101  54 101
M  END
>  <TORSDO>  (46) 
F 23

>  <SCORE>  (46) 
-12.730

>  <name>  (46) 
47

>  <ligand_id>  (46) 
47

>  <original_smiles>  (46) 
[H]c1c([H])c([H])c2c(c1[H])C([H])([H])C([H])([H])C([H])([H])C2([H])N([H])C(=O)C1([H])N(C(=O)C([H])(N([H])C(=O)C([H])(N([H])C([H])([H])[H])C([H])([H])[H])C(C([H])([H])[H])(C([H])([H])[H])C([H])([H])[H])C([H])([H])c2c([H])c(OC([H])([H])C([H])([H])C([H])([H])C([H])([H])Oc3c([H])c(C(C([H])([H])[H])(C([H])([H])[H])C([H])([H])N(C(=O)N4C([H])([H])C([H])([H])C([H])([H])C([H])(n5nc(-c6c([H])c([H])c(Oc7c([H])c([H])c(F)c([H])c7F)c([H])c6[H])c(C(=O)N([H])[H])c5N([H])[H])C4([H])[H])C([H])([H])[H])nn3C([H])([H])[H])c([H])c([H])c2C1([H])[H]

>  <smiles>  (46) 
[H]c1c([H])c([H])c2c(c1[H])C([H])([H])C([H])([H])C([H])([H])C2([H])N([H])C(=O)C1([H])N(C(=O)C([H])(N([H])C(=O)C([H])(N([H])C([H])([H])[H])C([H])([H])[H])C(C([H])([H])[H])(C([H])([H])[H])C([H])([H])[H])C([H])([H])c2c([H])c(OC([H])([H])C([H])([H])C([H])([H])C([H])([H])Oc3c([H])c(C(C([H])([H])[H])(C([H])([H])[H])C([H])([H])N(C(=O)N4C([H])([H])C([H])([H])C([H])([H])C([H])(n5nc(-c6c([H])c([H])c(Oc7c([H])c([H])c(F)c([H])c7F)c([H])c6[H])c(C(=O)N([H])[H])c5N([H])[H])C4([H])[H])C([H])([H])[H])nn3C([H])([H])[H])c([H])c([H])c2C1([H])[H]

$$$$
48:0:0
     RDKit          3D

 90 98  0  0  1  0  0  0  0  0999 V2000
  -29.6700  -19.8910   20.7590 C   0  0  0  0  0  3  0  0  0  0  0  0
  -29.1830  -21.0980   20.0950 C   0  0  0  0  0  0  0  0  0  0  0  0
  -28.8840  -20.3550   18.8870 C   0  0  0  0  0  0  0  0  0  0  0  0
  -28.3190  -20.9560   17.6330 C   0  0  0  0  0  1  0  0  0  0  0  0
  -29.1300  -18.9910   18.8870 N   0  0  0  0  0  0  0  0  0  0  0  0
  -29.7000  -18.5630   20.0610 N   0  0  0  0  0  0  0  0  0  0  0  0
  -28.6550  -22.7910   22.0250 C   0  0  0  0  0  1  0  0  0  0  0  0
  -30.5460  -23.2820   20.4770 C   0  0  0  0  0  1  0  0  0  0  0  0
  -29.0800  -22.8230   20.5470 C   0  0  1  0  0  0  0  0  0  0  0  0
  -28.1810  -24.2820   19.9600 C   0  0  0  0  0  2  0  0  0  0  0  0
  -28.2750  -25.8910   20.3530 O   0  0  0  0  0  0  0  0  0  0  0  0
  -24.6650  -31.8650   23.2600 C   0  0  0  0  0  0  0  0  0  0  0  0
  -27.2510  -26.9770   20.2620 C   0  0  0  0  0  0  0  0  0  0  0  0
  -23.4810  -30.4620   21.6190 C   0  0  0  0  0  3  0  0  0  0  0  0
  -24.9390  -28.8480   20.2070 C   0  0  0  0  0  0  0  0  0  0  0  0
  -26.0480  -30.6730   21.4850 C   0  0  0  0  0  2  0  0  0  0  0  0
  -26.1230  -29.2610   20.8320 C   0  0  0  0  0  0  0  0  0  0  0  0
  -27.2700  -28.3450   20.8350 C   0  0  0  0  0  3  0  0  0  0  0  0
  -26.0350  -26.7170   19.5890 C   0  0  0  0  0  3  0  0  0  0  0  0
  -24.9200  -27.5980   19.5670 C   0  0  0  0  0  3  0  0  0  0  0  0
  -23.7190  -29.7700   20.2470 C   0  0  0  0  0  2  0  0  0  0  0  0
  -24.7530  -31.0270   22.1760 N   0  0  0  0  0  0  0  0  0  0  0  0
  -23.5740  -32.1570   23.7740 O   0  0  0  0  0  0  0  0  0  0  0  0
  -22.7810  -29.4720   22.5860 C   0  0  0  0  0  0  0  0  0  0  0  0
  -21.4530  -29.2990   22.4460 N   0  0  0  0  0  0  0  0  0  0  0  0
  -23.4390  -28.8590   23.4290 O   0  0  0  0  0  0  0  0  0  0  0  0
  -20.9750  -29.8450   21.7430 H   0  0  0  0  0  0  0  0  0  0  0  0
  -18.0730  -28.0650   22.9240 C   0  0  0  0  0  0  0  0  0  0  0  0
  -20.6260  -28.3610   23.2150 C   0  0  0  0  0  3  0  0  0  0  0  0
  -20.7480  -26.9240   22.6560 C   0  0  0  0  0  2  0  0  0  0  0  0
  -19.6630  -26.5800   21.6310 C   0  0  0  0  0  2  0  0  0  0  0  0
  -18.2730  -26.7130   22.2580 C   0  0  0  0  0  2  0  0  0  0  0  0
  -19.1790  -28.8450   23.3580 C   0  0  0  0  0  0  0  0  0  0  0  0
  -18.9380  -30.1060   23.9450 C   0  0  0  0  0  3  0  0  0  0  0  0
  -17.6240  -30.5900   24.0980 C   0  0  0  0  0  3  0  0  0  0  0  0
  -16.5340  -29.8100   23.6790 C   0  0  0  0  0  3  0  0  0  0  0  0
  -16.7590  -28.5490   23.0980 C   0  0  0  0  0  3  0  0  0  0  0  0
  -25.9330  -32.5120   23.8960 C   0  0  0  0  0  3  0  0  0  0  0  0
  -26.4240  -31.7620   25.1970 C   0  0  1  0  0  0  0  0  0  0  0  0
  -25.3100  -31.5400   26.2480 C   0  0  0  0  0  1  0  0  0  0  0  0
  -27.0160  -30.3780   24.8470 C   0  0  0  0  0  1  0  0  0  0  0  0
  -27.5630  -32.5650   25.8670 C   0  0  0  0  0  1  0  0  0  0  0  0
  -25.6180  -33.9160   24.2130 N   0  0  0  0  0  0  0  0  0  0  0  0
  -25.9350  -34.9680   23.4470 C   0  0  0  0  0  0  0  0  0  0  0  0
  -26.5880  -34.8580   22.4050 O   0  0  0  0  0  0  0  0  0  0  0  0
  -25.0350  -34.0750   25.0220 H   0  0  0  0  0  0  0  0  0  0  0  0
  -24.1860  -36.7530   23.1340 C   0  0  0  0  0  1  0  0  0  0  0  0
  -25.4570  -36.3620   23.9050 C   0  0  0  0  0  3  0  0  0  0  0  0
  -27.6090  -37.2770   24.6580 C   0  0  0  0  0  1  0  0  0  0  0  0
  -26.4800  -37.4200   23.7420 N   0  0  0  0  0  0  0  0  0  0  0  0
  -26.0730  -38.3400   23.8820 H   0  0  0  0  0  0  0  0  0  0  0  0
  -28.4370  -16.6840   21.1300 C   0  0  0  0  0  1  0  0  0  0  0  0
  -30.7860  -17.0980   21.7870 C   0  0  0  0  0  1  0  0  0  0  0  0
  -29.8430  -16.9450   20.5740 C   0  0  2  0  0  0  0  0  0  0  0  0
  -30.4460  -15.3900   19.9030 C   0  0  0  0  0  0  0  0  0  0  0  0
  -30.3820  -12.9500   18.9420 C   0  0  0  0  0  2  0  0  0  0  0  0
  -29.3710  -12.7720   17.7760 C   0  0  0  0  0  2  0  0  0  0  0  0
  -27.9550  -12.4750   18.3040 C   0  0  0  0  0  2  0  0  0  0  0  0
  -27.5940  -13.3900   19.4990 C   0  0  0  0  0  3  0  0  0  0  0  0
  -28.7300  -13.4610   20.5420 C   0  0  0  0  0  2  0  0  0  0  0  0
  -29.9050  -14.0540   19.8670 N   0  0  0  0  0  0  0  0  0  0  0  0
  -31.5940  -15.3850   19.4260 O   0  0  0  0  0  0  0  0  0  0  0  0
  -25.2820  -13.9260   20.4400 C   0  0  0  0  0  0  0  0  0  0  0  0
  -24.2500  -13.1410   20.8660 C   0  0  0  0  0  0  0  0  0  0  0  0
  -24.7090  -11.7930   20.7550 C   0  0  0  0  0  0  0  0  0  0  0  0
  -26.3040  -13.0600   20.0920 N   0  0  0  0  0  0  0  0  0  0  0  0
  -25.9730  -11.7670   20.3460 N   0  0  0  0  0  0  0  0  0  0  0  0
  -23.9880  -10.5290   20.9550 C   0  0  0  0  0  0  0  0  0  0  0  0
  -24.4530   -9.5480   21.8580 C   0  0  0  0  0  3  0  0  0  0  0  0
  -23.7280   -8.3520   22.0500 C   0  0  0  0  0  3  0  0  0  0  0  0
  -22.5240   -8.1290   21.3390 C   0  0  0  0  0  0  0  0  0  0  0  0
  -22.0790   -9.0990   20.4230 C   0  0  0  0  0  3  0  0  0  0  0  0
  -22.8040  -10.2860   20.2310 C   0  0  0  0  0  3  0  0  0  0  0  0
  -21.7680   -6.9860   21.4410 O   0  0  0  0  0  0  0  0  0  0  0  0
  -21.7280   -6.2510   22.5990 C   0  0  0  0  0  0  0  0  0  0  0  0
  -21.2780   -6.8040   23.8170 C   0  0  0  0  0  3  0  0  0  0  0  0
  -21.1890   -5.9950   24.9680 C   0  0  0  0  0  3  0  0  0  0  0  0
  -21.5370   -4.6320   24.9000 C   0  0  0  0  0  0  0  0  0  0  0  0
  -21.9790   -4.0780   23.6860 C   0  0  0  0  0  3  0  0  0  0  0  0
  -22.0710   -4.8860   22.5380 C   0  0  0  0  0  0  0  0  0  0  0  0
  -22.4800   -4.3410   21.3650 F   0  0  0  0  0  0  0  0  0  0  0  0
  -21.4430   -3.8520   26.0000 F   0  0  0  0  0  0  0  0  0  0  0  0
  -22.8810  -13.6160   21.2540 C   0  0  0  0  0  0  0  0  0  0  0  0
  -22.2150  -12.8950   22.1480 N   0  0  0  0  0  0  0  0  0  0  0  0
  -22.4150  -14.6620   20.8030 O   0  0  0  0  0  0  0  0  0  0  0  0
  -22.6100  -12.0510   22.5350 H   0  0  0  0  0  0  0  0  0  0  0  0
  -21.2980  -13.1900   22.4500 H   0  0  0  0  0  0  0  0  0  0  0  0
  -25.4180  -15.3000   20.2890 N   0  0  0  0  0  0  0  0  0  0  0  0
  -24.6580  -15.9410   20.4890 H   0  0  0  0  0  0  0  0  0  0  0  0
  -26.2300  -15.7590   19.8990 H   0  0  0  0  0  0  0  0  0  0  0  0
  2  9  1  0
  2  1  2  0
  3  5  2  0
  3  2  1  0
  4  3  1  0
  5  6  1  0
  6 54  1  0
  6  1  1  0
  9  8  1  1
  9  7  1  0
 10 11  1  0
 10  9  1  0
 12 23  2  0
 13 11  1  0
 13 18  1  0
 14 22  1  0
 14 24  1  0
 15 21  1  0
 15 17  1  0
 16 22  1  0
 17 18  2  0
 17 16  1  0
 19 13  2  0
 20 19  1  0
 20 15  2  0
 21 14  1  0
 22 12  1  0
 24 26  2  0
 25 24  1  0
 27 25  1  0
 28 37  2  0
 28 33  1  0
 29 25  1  0
 29 33  1  0
 30 29  1  0
 31 32  1  0
 31 30  1  0
 32 28  1  0
 33 34  2  0
 34 35  1  0
 36 35  2  0
 37 36  1  0
 38 12  1  0
 38 43  1  0
 38 39  1  0
 39 42  1  1
 39 40  1  0
 41 39  1  0
 43 46  1  0
 44 48  1  0
 44 43  1  0
 45 44  2  0
 48 47  1  0
 50 51  1  0
 50 48  1  0
 50 49  1  0
 54 52  1  1
 54 53  1  0
 55 54  1  0
 56 61  1  0
 57 58  1  0
 57 56  1  0
 59 58  1  0
 59 66  1  0
 59 60  1  0
 61 55  1  0
 61 60  1  0
 62 55  2  0
 63 64  2  0
 64 83  1  0
 65 64  1  0
 65 68  1  0
 66 67  1  0
 66 63  1  0
 67 65  2  0
 68 69  1  0
 69 70  2  0
 71 74  1  0
 71 70  1  0
 72 71  2  0
 73 72  1  0
 73 68  2  0
 74 75  1  0
 75 76  1  0
 76 77  2  0
 78 77  1  0
 78 82  1  0
 79 78  2  0
 80 75  2  0
 80 79  1  0
 81 80  1  0
 83 84  1  0
 84 87  1  0
 84 86  1  0
 85 83  2  0
 88 63  1  0
 88 89  1  0
 90 88  1  0
M  ISO  4  10 101  11 101  54 100  55 100
M  END
>  <TORSDO>  (47) 
F 19

>  <SCORE>  (47) 
-16.592

>  <name>  (47) 
48

>  <ligand_id>  (47) 
48

>  <original_smiles>  (47) 
[H]c1c([H])c([H])c2c(c1[H])C([H])([H])C([H])([H])C([H])([H])C2([H])N([H])C(=O)C1([H])N(C(=O)C([H])(N([H])C(=O)C([H])(N([H])C([H])([H])[H])C([H])([H])[H])C(C([H])([H])[H])(C([H])([H])[H])C([H])([H])[H])C([H])([H])c2c([H])c(OC([H])([H])C(c3c(C([H])([H])[H])nn(C(C(=O)N4C([H])([H])C([H])([H])C([H])([H])C([H])(n5nc(-c6c([H])c([H])c(Oc7c([H])c([H])c(F)c([H])c7F)c([H])c6[H])c(C(=O)N([H])[H])c5N([H])[H])C4([H])[H])(C([H])([H])[H])C([H])([H])[H])c3[H])(C([H])([H])[H])C([H])([H])[H])c([H])c([H])c2C1([H])[H]

>  <smiles>  (47) 
[H]c1c([H])c([H])c2c(c1[H])C([H])([H])C([H])([H])C([H])([H])C2([H])N([H])C(=O)C1([H])N(C(=O)C([H])(N([H])C(=O)C([H])(N([H])C([H])([H])[H])C([H])([H])[H])C(C([H])([H])[H])(C([H])([H])[H])C([H])([H])[H])C([H])([H])c2c([H])c(OC([H])([H])C(c3c(C([H])([H])[H])nn(C(C(=O)N4C([H])([H])C([H])([H])C([H])([H])C([H])(n5nc(-c6c([H])c([H])c(Oc7c([H])c([H])c(F)c([H])c7F)c([H])c6[H])c(C(=O)N([H])[H])c5N([H])[H])C4([H])[H])(C([H])([H])[H])C([H])([H])[H])c3[H])(C([H])([H])[H])C([H])([H])[H])c([H])c([H])c2C1([H])[H]

$$$$
49:0:0
     RDKit          3D

 96104  0  0  1  0  0  0  0  0999 V2000
  -28.4120  -17.8320   19.0090 C   0  0  0  0  0  0  0  0  0  0  0  0
  -30.0020  -19.2960   19.5210 C   0  0  0  0  0  0  0  0  0  0  0  0
  -30.2690  -17.1060   20.0230 C   0  0  0  0  0  0  0  0  0  0  0  0
  -27.0480  -17.5410   18.4220 C   0  0  0  0  0  1  0  0  0  0  0  0
  -28.8160  -19.0960   18.9640 N   0  0  0  0  0  4  0  0  0  0  0  0
  -29.0740  -16.7970   19.5180 N   0  0  0  0  0  0  0  0  0  0  0  0
  -30.7390  -18.3620   20.1300 N   0  0  0  0  0  2  0  0  0  0  0  0
  -32.5320  -16.4470   21.0380 C   0  0  0  0  0  1  0  0  0  0  0  0
  -31.0720  -15.9600   20.7300 C   0  0  2  0  0  0  0  0  0  0  0  0
  -31.2800  -14.7130   19.7470 C   0  0  0  0  0  0  0  0  0  0  0  0
  -30.7220  -12.6310   18.5040 C   0  0  0  0  0  2  0  0  0  0  0  0
  -29.6850  -12.9200   17.3990 C   0  0  0  0  0  2  0  0  0  0  0  0
  -28.2500  -12.8110   17.9500 C   0  0  0  0  0  2  0  0  0  0  0  0
  -28.0750  -13.5800   19.2840 C   0  0  0  0  0  3  0  0  0  0  0  0
  -29.2160  -13.2320   20.2600 C   0  0  0  0  0  2  0  0  0  0  0  0
  -30.4950  -13.5850   19.6190 N   0  0  0  0  0  0  0  0  0  0  0  0
  -32.2710  -14.8000   19.0100 O   0  0  0  0  0  0  0  0  0  0  0  0
  -25.8040  -14.2550   20.2800 C   0  0  0  0  0  0  0  0  0  0  0  0
  -24.7340  -13.5140   20.7060 C   0  0  0  0  0  0  0  0  0  0  0  0
  -25.1110  -12.1470   20.5360 C   0  0  0  0  0  0  0  0  0  0  0  0
  -26.7640  -13.3400   19.8790 N   0  0  0  0  0  0  0  0  0  0  0  0
  -26.3570  -12.0620   20.0890 N   0  0  0  0  0  0  0  0  0  0  0  0
  -24.3370  -10.9120   20.7210 C   0  0  0  0  0  0  0  0  0  0  0  0
  -24.7860   -9.8770   21.5700 C   0  0  0  0  0  3  0  0  0  0  0  0
  -24.0140   -8.7080   21.7440 C   0  0  0  0  0  3  0  0  0  0  0  0
  -22.7790   -8.5660   21.0690 C   0  0  0  0  0  0  0  0  0  0  0  0
  -22.3470   -9.5900   20.2050 C   0  0  0  0  0  3  0  0  0  0  0  0
  -23.1190  -10.7510   20.0290 C   0  0  0  0  0  3  0  0  0  0  0  0
  -21.9760   -7.4560   21.1550 O   0  0  0  0  0  0  0  0  0  0  0  0
  -21.9340   -6.6830   22.2880 C   0  0  0  0  0  0  0  0  0  0  0  0
  -21.6010   -7.2270   23.5470 C   0  0  0  0  0  3  0  0  0  0  0  0
  -21.5030   -6.3870   24.6740 C   0  0  0  0  0  3  0  0  0  0  0  0
  -21.7280   -5.0030   24.5420 C   0  0  0  0  0  0  0  0  0  0  0  0
  -22.0540   -4.4580   23.2870 C   0  0  0  0  0  3  0  0  0  0  0  0
  -22.1540   -5.2970   22.1630 C   0  0  0  0  0  0  0  0  0  0  0  0
  -22.4480   -4.7640   20.9530 F   0  0  0  0  0  0  0  0  0  0  0  0
  -21.6260   -4.1930   25.6220 F   0  0  0  0  0  0  0  0  0  0  0  0
  -23.4030  -14.0410   21.1580 C   0  0  0  0  0  0  0  0  0  0  0  0
  -22.7420  -13.3350   22.0700 N   0  0  0  0  0  0  0  0  0  0  0  0
  -22.9640  -15.1120   20.7430 O   0  0  0  0  0  0  0  0  0  0  0  0
  -23.1150  -12.4670   22.4270 H   0  0  0  0  0  0  0  0  0  0  0  0
  -21.8530  -13.6640   22.4150 H   0  0  0  0  0  0  0  0  0  0  0  0
  -26.0430  -15.6220   20.1850 N   0  0  0  0  0  0  0  0  0  0  0  0
  -25.3430  -16.3160   20.4210 H   0  0  0  0  0  0  0  0  0  0  0  0
  -26.9070  -16.0180   19.8360 H   0  0  0  0  0  0  0  0  0  0  0  0
  -30.4170  -15.6420   22.1130 C   0  0  0  0  0  2  0  0  0  0  0  0
  -30.5390  -16.6950   23.1520 N   0  0  0  0  0  4  0  0  0  0  0  0
  -31.5020  -16.8710   23.3780 H   0  0  0  0  0  0  0  0  0  0  0  0
  -30.0820  -16.3960   23.9970 H   0  0  0  0  0  0  0  0  0  0  0  0
  -30.1160  -17.5610   22.8650 H   0  0  0  0  0  0  0  0  0  0  0  0
  -30.6250  -20.6890   19.3240 C   0  0  0  0  0  2  0  0  0  0  0  0
  -30.1370  -21.8680   20.2240 C   0  0  0  0  0  2  0  0  0  0  0  0
  -29.1970  -22.9180   19.5540 C   0  0  0  0  0  2  0  0  0  0  0  0
  -29.3200  -24.3830   20.0860 C   0  0  0  0  0  2  0  0  0  0  0  0
  -28.2000  -25.3260   19.5630 C   0  0  0  0  0  2  0  0  0  0  0  0
  -28.3440  -26.7320   19.8920 O   0  0  0  0  0  0  0  0  0  0  0  0
  -24.6110  -31.8980   23.1280 C   0  0  0  0  0  0  0  0  0  0  0  0
  -27.1940  -27.5170   19.8700 C   0  0  0  0  0  0  0  0  0  0  0  0
  -23.3850  -30.5640   21.4470 C   0  0  0  0  0  3  0  0  0  0  0  0
  -24.8180  -29.0760   19.9500 C   0  0  0  0  0  0  0  0  0  0  0  0
  -25.9170  -30.9030   21.2480 C   0  0  0  0  0  2  0  0  0  0  0  0
  -25.9870  -29.5550   20.5530 C   0  0  0  0  0  0  0  0  0  0  0  0
  -27.1760  -28.7830   20.5130 C   0  0  0  0  0  3  0  0  0  0  0  0
  -26.0060  -27.0820   19.2350 C   0  0  0  0  0  3  0  0  0  0  0  0
  -24.8250  -27.8430   19.2850 C   0  0  0  0  0  3  0  0  0  0  0  0
  -23.5810  -29.9410   20.0400 C   0  0  0  0  0  2  0  0  0  0  0  0
  -24.6570  -31.1340   21.9990 N   0  0  0  0  0  0  0  0  0  0  0  0
  -23.5350  -32.1570   23.6850 O   0  0  0  0  0  0  0  0  0  0  0  0
  -22.7340  -29.5120   22.3730 C   0  0  0  0  0  0  0  0  0  0  0  0
  -21.4080  -29.3350   22.2420 N   0  0  0  0  0  0  0  0  0  0  0  0
  -23.4170  -28.8580   23.1660 O   0  0  0  0  0  0  0  0  0  0  0  0
  -20.9170  -29.9140   21.5770 H   0  0  0  0  0  0  0  0  0  0  0  0
  -18.0380  -28.1050   22.6830 C   0  0  0  0  0  0  0  0  0  0  0  0
  -20.5910  -28.3730   22.9830 C   0  0  0  0  0  3  0  0  0  0  0  0
  -20.7090  -26.9570   22.3730 C   0  0  0  0  0  2  0  0  0  0  0  0
  -19.6180  -26.6520   21.3420 C   0  0  0  0  0  2  0  0  0  0  0  0
  -18.2290  -26.7730   21.9770 C   0  0  0  0  0  2  0  0  0  0  0  0
  -19.1470  -28.8640   23.1410 C   0  0  0  0  0  0  0  0  0  0  0  0
  -18.9160  -30.1110   23.7600 C   0  0  0  0  0  3  0  0  0  0  0  0
  -17.6060  -30.6010   23.9250 C   0  0  0  0  0  3  0  0  0  0  0  0
  -16.5110  -29.8390   23.4830 C   0  0  0  0  0  3  0  0  0  0  0  0
  -16.7280  -28.5930   22.8690 C   0  0  0  0  0  3  0  0  0  0  0  0
  -25.9050  -32.4980   23.7600 C   0  0  0  0  0  3  0  0  0  0  0  0
  -26.4380  -31.6690   24.9920 C   0  0  1  0  0  0  0  0  0  0  0  0
  -25.3610  -31.3830   26.0640 C   0  0  0  0  0  1  0  0  0  0  0  0
  -27.0110  -30.3090   24.5280 C   0  0  0  0  0  1  0  0  0  0  0  0
  -27.6000  -32.4290   25.6730 C   0  0  0  0  0  1  0  0  0  0  0  0
  -25.6010  -33.8800   24.1570 N   0  0  0  0  0  0  0  0  0  0  0  0
  -25.9310  -34.9660   23.4450 C   0  0  0  0  0  0  0  0  0  0  0  0
  -26.5930  -34.9080   22.4050 O   0  0  0  0  0  0  0  0  0  0  0  0
  -25.0130  -33.9980   24.9690 H   0  0  0  0  0  0  0  0  0  0  0  0
  -24.2050  -36.7750   23.1840 C   0  0  0  0  0  1  0  0  0  0  0  0
  -25.4490  -36.3320   23.9690 C   0  0  0  0  0  3  0  0  0  0  0  0
  -27.5910  -37.1710   24.8250 C   0  0  0  0  0  1  0  0  0  0  0  0
  -26.4830  -37.3870   23.8990 N   0  0  0  0  0  0  0  0  0  0  0  0
  -26.0800  -38.3000   24.0940 H   0  0  0  0  0  0  0  0  0  0  0  0
  1  6  1  0
  2  7  1  0
  3  7  1  0
  3  9  1  0
  4  1  1  0
  5  1  2  0
  5  2  2  0
  6  3  2  0
  9  8  1  1
  9 46  1  0
 10  9  1  0
 11 16  1  0
 12 13  1  0
 12 11  1  0
 14 13  1  0
 14 21  1  0
 14 15  1  0
 16 10  1  0
 16 15  1  0
 17 10  2  0
 18 19  2  0
 19 38  1  0
 20 19  1  0
 20 23  1  0
 21 22  1  0
 21 18  1  0
 22 20  2  0
 23 24  1  0
 24 25  2  0
 26 29  1  0
 26 25  1  0
 27 26  2  0
 28 27  1  0
 28 23  2  0
 29 30  1  0
 30 31  1  0
 31 32  2  0
 33 32  1  0
 33 37  1  0
 34 33  2  0
 35 30  2  0
 35 34  1  0
 36 35  1  0
 38 39  1  0
 39 42  1  0
 39 41  1  0
 40 38  2  0
 43 18  1  0
 43 44  1  0
 45 43  1  0
 46 47  1  0
 47 48  1  0
 47 49  1  0
 50 47  1  0
 51  2  1  0
 51 52  1  0
 53 54  1  0
 53 52  1  0
 55 56  1  0
 55 54  1  0
 57 68  2  0
 58 56  1  0
 58 63  1  0
 59 67  1  0
 59 69  1  0
 60 66  1  0
 60 62  1  0
 61 67  1  0
 62 61  1  0
 63 62  2  0
 64 65  1  0
 64 58  2  0
 65 60  2  0
 66 59  1  0
 67 57  1  0
 69 71  2  0
 70 69  1  0
 72 70  1  0
 73 82  2  0
 73 78  1  0
 74 70  1  0
 74 78  1  0
 75 74  1  0
 76 77  1  0
 76 75  1  0
 77 73  1  0
 78 79  2  0
 79 80  1  0
 81 80  2  0
 82 81  1  0
 83 57  1  0
 83 88  1  0
 83 84  1  0
 84 87  1  1
 84 85  1  0
 86 84  1  0
 88 91  1  0
 89 93  1  0
 89 88  1  0
 90 89  2  0
 93 92  1  0
 95 93  1  0
 95 96  1  0
 95 94  1  0
M  ISO  4   9 100  10 100  55 101  56 101
M  END
>  <TORSDO>  (48) 
F 24

>  <SCORE>  (48) 
-9.922

>  <name>  (48) 
49

>  <ligand_id>  (48) 
49

>  <original_smiles>  (48) 
[H]c1c([H])c([H])c2c(c1[H])C([H])([H])C([H])([H])C([H])([H])C2([H])N([H])C(=O)C1([H])N(C(=O)C([H])(N([H])C(=O)C([H])(N([H])C([H])([H])[H])C([H])([H])[H])C(C([H])([H])[H])(C([H])([H])[H])C([H])([H])[H])C([H])([H])c2c([H])c(OC([H])([H])C([H])([H])C([H])([H])C([H])([H])C([H])([H])c3nc(C([H])([H])[H])nc(C(C(=O)N4C([H])([H])C([H])([H])C([H])([H])C([H])(n5nc(-c6c([H])c([H])c(Oc7c([H])c([H])c(F)c([H])c7F)c([H])c6[H])c(C(=O)N([H])[H])c5N([H])[H])C4([H])[H])(C([H])([H])[H])C([H])([H])[N+]([H])([H])[H])n3)c([H])c([H])c2C1([H])[H]

>  <smiles>  (48) 
[H]c1c([H])c([H])c2c(c1[H])C([H])([H])C([H])([H])C([H])([H])C2([H])N([H])C(=O)C1([H])N(C(=O)C([H])(N([H])C(=O)C([H])(N([H])C([H])([H])[H])C([H])([H])[H])C(C([H])([H])[H])(C([H])([H])[H])C([H])([H])[H])C([H])([H])c2c([H])c(OC([H])([H])C([H])([H])C([H])([H])C([H])([H])C([H])([H])c3nc(C([H])([H])[H])nc(C(C(=O)N4C([H])([H])C([H])([H])C([H])([H])C([H])(n5nc(-c6c([H])c([H])c(Oc7c([H])c([H])c(F)c([H])c7F)c([H])c6[H])c(C(=O)N([H])[H])c5N([H])[H])C4([H])[H])(C([H])([H])[H])C([H])([H])[N+]([H])([H])[H])n3)c([H])c([H])c2C1([H])[H]

$$$$
50:0:0
     RDKit          3D

 95102  0  0  1  0  0  0  0  0999 V2000
  -27.2070  -18.0930   20.0890 C   0  0  0  0  0  0  0  0  0  0  0  0
  -29.2990  -17.8450   20.1890 C   0  0  0  0  0  3  0  0  0  0  0  0
  -28.1840  -17.1530   19.9280 N   0  0  0  0  0  0  0  0  0  0  0  0
  -27.6540  -19.3260   20.2870 N   0  0  0  0  0  2  0  0  0  0  0  0
  -29.0040  -19.2080   20.3550 N   0  0  0  0  0  0  0  0  0  0  0  0
  -25.7170  -17.8200   20.0310 C   0  0  0  0  0  3  0  0  0  0  0  0
  -25.4560  -16.5160   20.1260 F   0  0  0  0  0  0  0  0  0  0  0  0
  -25.0970  -18.4320   21.0440 F   0  0  0  0  0  0  0  0  0  0  0  0
  -25.2090  -18.2770   18.8840 F   0  0  0  0  0  0  0  0  0  0  0  0
  -30.6420  -17.0370   20.2500 C   0  0  0  0  0  2  0  0  0  0  0  0
  -31.1540  -14.4810   20.1420 C   0  0  0  0  0  0  0  0  0  0  0  0
  -30.8250  -12.2880   18.9750 C   0  0  0  0  0  2  0  0  0  0  0  0
  -29.8540  -12.4550   17.7850 C   0  0  0  0  0  2  0  0  0  0  0  0
  -28.3900  -12.3230   18.2480 C   0  0  0  0  0  2  0  0  0  0  0  0
  -28.0910  -13.1590   19.5210 C   0  0  0  0  0  3  0  0  0  0  0  0
  -29.1690  -12.9360   20.6010 C   0  0  0  0  0  2  0  0  0  0  0  0
  -30.4670  -13.2900   20.0090 N   0  0  0  0  0  0  0  0  0  0  0  0
  -32.2560  -14.6080   19.5970 O   0  0  0  0  0  0  0  0  0  0  0  0
  -30.4270  -15.5190   22.2020 C   0  0  0  0  0  1  0  0  0  0  0  0
  -30.5330  -15.5780   20.7340 N   0  0  0  0  0  0  0  0  0  0  0  0
  -25.7250  -13.8110   20.2740 C   0  0  0  0  0  0  0  0  0  0  0  0
  -24.6490  -13.0660   20.6730 C   0  0  0  0  0  0  0  0  0  0  0  0
  -25.0830  -11.7050   20.6520 C   0  0  0  0  0  0  0  0  0  0  0  0
  -26.7470  -12.9070   20.0340 N   0  0  0  0  0  0  0  0  0  0  0  0
  -26.3670  -11.6340   20.3200 N   0  0  0  0  0  0  0  0  0  0  0  0
  -24.3330  -10.4620   20.8670 C   0  0  0  0  0  0  0  0  0  0  0  0
  -24.6900   -9.5510   21.8850 C   0  0  0  0  0  3  0  0  0  0  0  0
  -23.9400   -8.3700   22.0840 C   0  0  0  0  0  3  0  0  0  0  0  0
  -22.8210   -8.0940   21.2640 C   0  0  0  0  0  0  0  0  0  0  0  0
  -22.4850   -8.9930   20.2370 C   0  0  0  0  0  3  0  0  0  0  0  0
  -23.2330  -10.1640   20.0360 C   0  0  0  0  0  3  0  0  0  0  0  0
  -22.0520   -6.9600   21.3670 O   0  0  0  0  0  0  0  0  0  0  0  0
  -21.8000   -6.3690   22.5780 C   0  0  0  0  0  0  0  0  0  0  0  0
  -21.1640   -7.0660   23.6300 C   0  0  0  0  0  3  0  0  0  0  0  0
  -20.8620   -6.4000   24.8340 C   0  0  0  0  0  3  0  0  0  0  0  0
  -21.1860   -5.0380   24.9870 C   0  0  0  0  0  0  0  0  0  0  0  0
  -21.8130   -4.3420   23.9390 C   0  0  0  0  0  3  0  0  0  0  0  0
  -22.1170   -5.0050   22.7370 C   0  0  0  0  0  0  0  0  0  0  0  0
  -22.7020   -4.3230   21.7240 F   0  0  0  0  0  0  0  0  0  0  0  0
  -20.8880   -4.3970   26.1410 F   0  0  0  0  0  0  0  0  0  0  0  0
  -23.2700  -13.5790   20.9710 C   0  0  0  0  0  0  0  0  0  0  0  0
  -22.5500  -12.9170   21.8700 N   0  0  0  0  0  0  0  0  0  0  0  0
  -22.8380  -14.6000   20.4380 O   0  0  0  0  0  0  0  0  0  0  0  0
  -22.9090  -12.0900   22.3240 H   0  0  0  0  0  0  0  0  0  0  0  0
  -21.6250  -13.2460   22.1100 H   0  0  0  0  0  0  0  0  0  0  0  0
  -25.9170  -15.1710   20.0790 N   0  0  0  0  0  2  0  0  0  0  0  0
  -25.1840  -15.8320   20.3000 H   0  0  0  0  0  0  0  0  0  0  0  0
  -26.8240  -15.6100   19.9530 H   0  0  0  0  0  0  0  0  0  0  0  0
  -29.6970  -20.5290   20.6510 C   0  0  0  0  0  3  0  0  0  0  0  0
  -28.8020  -21.8910   20.4630 C   0  0  0  0  0  3  0  0  0  0  0  0
  -29.6110  -23.5120   22.2670 C   0  0  0  0  0  1  0  0  0  0  0  0
  -30.6130  -23.6280   19.9680 C   0  0  0  0  0  1  0  0  0  0  0  0
  -29.3150  -23.3990   20.7640 C   0  0  1  0  0  0  0  0  0  0  0  0
  -28.2580  -24.5650   20.3710 C   0  0  0  0  0  2  0  0  0  0  0  0
  -28.4930  -26.0360   20.5860 O   0  0  0  0  0  0  0  0  0  0  0  0
  -24.5920  -31.5640   23.2470 C   0  0  0  0  0  0  0  0  0  0  0  0
  -27.3900  -26.9150   20.4560 C   0  0  0  0  0  0  0  0  0  0  0  0
  -23.4860  -30.1040   21.5950 C   0  0  0  0  0  3  0  0  0  0  0  0
  -25.0190  -28.5340   20.2830 C   0  0  0  0  0  0  0  0  0  0  0  0
  -26.0310  -30.4420   21.5200 C   0  0  0  0  0  2  0  0  0  0  0  0
  -26.1580  -29.0420   20.9210 C   0  0  0  0  0  0  0  0  0  0  0  0
  -27.3460  -28.2450   20.9970 C   0  0  0  0  0  3  0  0  0  0  0  0
  -26.2230  -26.4770   19.7870 C   0  0  0  0  0  3  0  0  0  0  0  0
  -25.0570  -27.2570   19.7080 C   0  0  0  0  0  3  0  0  0  0  0  0
  -23.7740  -29.3980   20.2450 C   0  0  0  0  0  2  0  0  0  0  0  0
  -24.7210  -30.7230   22.1780 N   0  0  0  0  0  0  0  0  0  0  0  0
  -23.4800  -31.8420   23.7220 O   0  0  0  0  0  0  0  0  0  0  0  0
  -22.7890  -29.1040   22.5510 C   0  0  0  0  0  0  0  0  0  0  0  0
  -21.4730  -28.9040   22.3680 N   0  0  0  0  0  0  0  0  0  0  0  0
  -23.4350  -28.5140   23.4210 O   0  0  0  0  0  0  0  0  0  0  0  0
  -21.0090  -29.4400   21.6470 H   0  0  0  0  0  0  0  0  0  0  0  0
  -18.0840  -27.6930   22.7620 C   0  0  0  0  0  0  0  0  0  0  0  0
  -20.6300  -27.9780   23.1300 C   0  0  0  0  0  3  0  0  0  0  0  0
  -20.7630  -26.5340   22.5930 C   0  0  0  0  0  2  0  0  0  0  0  0
  -19.7060  -26.1800   21.5430 C   0  0  0  0  0  2  0  0  0  0  0  0
  -18.2990  -26.3300   22.1260 C   0  0  0  0  0  2  0  0  0  0  0  0
  -19.1810  -28.4730   23.2190 C   0  0  0  0  0  0  0  0  0  0  0  0
  -18.9300  -29.7470   23.7710 C   0  0  0  0  0  3  0  0  0  0  0  0
  -17.6170  -30.2430   23.8720 C   0  0  0  0  0  3  0  0  0  0  0  0
  -16.5330  -29.4600   23.4340 C   0  0  0  0  0  3  0  0  0  0  0  0
  -16.7690  -28.1880   22.8840 C   0  0  0  0  0  3  0  0  0  0  0  0
  -25.8350  -32.2340   23.9110 C   0  0  0  0  0  3  0  0  0  0  0  0
  -25.5180  -33.6550   24.1200 N   0  0  0  0  0  0  0  0  0  0  0  0
  -25.9130  -34.6490   23.3140 C   0  0  0  0  0  0  0  0  0  0  0  0
  -26.6490  -34.4700   22.3400 O   0  0  0  0  0  0  0  0  0  0  0  0
  -24.8740  -33.8680   24.8660 H   0  0  0  0  0  0  0  0  0  0  0  0
  -24.2250  -36.4220   22.7240 C   0  0  0  0  0  1  0  0  0  0  0  0
  -25.4080  -36.0700   23.6380 C   0  0  0  0  0  3  0  0  0  0  0  0
  -27.4920  -37.0030   24.5420 C   0  0  0  0  0  1  0  0  0  0  0  0
  -26.4550  -37.1090   23.5170 N   0  0  0  0  0  0  0  0  0  0  0  0
  -26.0490  -38.0380   23.5760 H   0  0  0  0  0  0  0  0  0  0  0  0
  -26.2540  -31.5550   25.2710 C   0  0  1  0  0  0  0  0  0  0  0  0
  -25.0870  -31.3930   26.2730 C   0  0  0  0  0  1  0  0  0  0  0  0
  -26.8560  -30.1540   25.0150 C   0  0  0  0  0  1  0  0  0  0  0  0
  -27.3580  -32.3920   25.9590 C   0  0  0  0  0  1  0  0  0  0  0  0
  1  4  1  0
  2 10  1  0
  2  5  1  0
  3  1  2  0
  3  2  1  0
  4  5  1  0
  5 49  1  0
  6  1  1  0
  6  8  1  0
  7 47  1  0
  9  6  1  0
 10 20  1  0
 11 20  1  0
 12 17  1  0
 13 14  1  0
 13 12  1  0
 15 14  1  0
 15 24  1  0
 15 16  1  0
 17 11  1  0
 17 16  1  0
 18 11  2  0
 20 19  1  0
 21 22  2  0
 22 41  1  0
 23 22  1  0
 23 26  1  0
 24 21  1  0
 24 25  1  0
 25 23  2  0
 26 27  1  0
 27 28  2  0
 29 32  1  0
 29 28  1  0
 30 29  2  0
 31 30  1  0
 31 26  2  0
 32 33  1  0
 33 38  2  0
 33 34  1  0
 34 35  2  0
 35 36  1  0
 36 40  1  0
 37 36  2  0
 38 37  1  0
 39 38  1  0
 41 42  1  0
 42 45  1  0
 42 44  1  0
 43 41  2  0
 46 21  1  0
 48 46  1  0
 50 49  2  0
 50 53  1  0
 53 52  1  6
 53 51  1  0
 54 55  1  0
 54 53  1  0
 56 67  2  0
 57 55  1  0
 57 62  1  0
 58 66  1  0
 58 68  1  0
 59 61  1  0
 60 66  1  0
 61 62  2  0
 61 60  1  0
 63 57  2  0
 64 63  1  0
 64 59  2  0
 65 59  1  0
 65 58  1  0
 66 56  1  0
 68 70  2  0
 69 68  1  0
 71 69  1  0
 72 81  2  0
 72 77  1  0
 73 69  1  0
 73 77  1  0
 74 73  1  0
 75 76  1  0
 75 74  1  0
 76 72  1  0
 77 78  2  0
 78 79  1  0
 80 79  2  0
 81 80  1  0
 82 56  1  0
 82 83  1  0
 82 92  1  0
 83 86  1  0
 84 88  1  0
 84 83  1  0
 85 84  2  0
 88 87  1  0
 90 91  1  0
 90 88  1  0
 90 89  1  0
 92 95  1  1
 92 93  1  0
 94 92  1  0
M  ISO  4  11 100  20 100  54 101  55 101
M  END
>  <TORSDO>  (49) 
F 22

>  <SCORE>  (49) 
-10.221

>  <name>  (49) 
50

>  <ligand_id>  (49) 
50

>  <original_smiles>  (49) 
[H]c1c([H])c([H])c2c(c1[H])C([H])([H])C([H])([H])C([H])([H])C2([H])N([H])C(=O)C1([H])N(C(=O)C([H])(N([H])C(=O)C([H])(N([H])C([H])([H])[H])C([H])([H])[H])C(C([H])([H])[H])(C([H])([H])[H])C([H])([H])[H])C([H])([H])c2c([H])c(OC([H])([H])C(C([H])([H])[H])(C([H])([H])[H])C([H])([H])C([H])([H])n3nc(C(F)(F)F)nc3C([H])([H])N(C(=O)N3C([H])([H])C([H])([H])C([H])([H])C([H])(n4nc(-c5c([H])c([H])c(Oc6c([H])c([H])c(F)c([H])c6F)c([H])c5[H])c(C(=O)N([H])[H])c4N([H])[H])C3([H])[H])C([H])([H])[H])c([H])c([H])c2C1([H])[H]

>  <smiles>  (49) 
[H]c1c([H])c([H])c2c(c1[H])C([H])([H])C([H])([H])C([H])([H])C2([H])N([H])C(=O)C1([H])N(C(=O)C([H])(N([H])C(=O)C([H])(N([H])C([H])([H])[H])C([H])([H])[H])C(C([H])([H])[H])(C([H])([H])[H])C([H])([H])[H])C([H])([H])c2c([H])c(OC([H])([H])C(C([H])([H])[H])(C([H])([H])[H])C([H])([H])C([H])([H])n3nc(C(F)(F)F)nc3C([H])([H])N(C(=O)N3C([H])([H])C([H])([H])C([H])([H])C([H])(n4nc(-c5c([H])c([H])c(Oc6c([H])c([H])c(F)c([H])c6F)c([H])c5[H])c(C(=O)N([H])[H])c4N([H])[H])C3([H])[H])C([H])([H])[H])c([H])c([H])c2C1([H])[H]

$$$$
51:0:0
     RDKit          3D

 91 99  0  0  1  0  0  0  0  0999 V2000
  -30.4360  -23.4850   20.3060 C   0  0  0  0  0  3  0  0  0  0  0  0
  -28.6510  -22.2850   20.3550 C   0  0  0  0  0  3  0  0  0  0  0  0
  -29.0140  -23.6320   20.2690 C   0  0  0  0  0  0  0  0  0  0  0  0
  -30.8610  -22.2080   20.4230 N   0  0  0  0  0  0  0  0  0  0  0  0
  -29.7580  -21.4070   20.4220 N   0  0  0  0  0  0  0  0  0  0  0  0
  -30.2080  -19.7360   22.2070 C   0  0  0  0  0  1  0  0  0  0  0  0
  -29.8000  -19.8930   20.7280 C   0  0  0  0  0  3  0  0  0  0  0  0
  -30.5160  -19.3190   18.3450 C   0  0  0  0  0  1  0  0  0  0  0  0
  -32.0870  -18.7240   20.1310 C   0  0  0  0  0  1  0  0  0  0  0  0
  -30.5750  -18.7810   19.7930 C   0  0  1  0  0  0  0  0  0  0  0  0
  -29.9320  -17.2660   19.7390 C   0  0  0  0  0  2  0  0  0  0  0  0
  -31.0170  -14.8690   19.9870 C   0  0  0  0  0  0  0  0  0  0  0  0
  -30.7220  -12.5740   19.0110 C   0  0  0  0  0  2  0  0  0  0  0  0
  -29.7500  -12.5840   17.8100 C   0  0  0  0  0  2  0  0  0  0  0  0
  -28.3000  -12.4150   18.2920 C   0  0  0  0  0  2  0  0  0  0  0  0
  -27.9580  -13.3530   19.4770 C   0  0  0  0  0  3  0  0  0  0  0  0
  -29.0460  -13.3310   20.5760 C   0  0  0  0  0  2  0  0  0  0  0  0
  -30.3370  -13.6620   19.9500 N   0  0  0  0  0  0  0  0  0  0  0  0
  -32.1100  -14.9530   19.4230 O   0  0  0  0  0  0  0  0  0  0  0  0
  -30.3410  -16.1900   21.9560 C   0  0  0  0  0  1  0  0  0  0  0  0
  -30.4120  -16.0210   20.5010 N   0  0  0  0  0  0  0  0  0  0  0  0
  -25.6080  -13.9650   20.3000 C   0  0  0  0  0  0  0  0  0  0  0  0
  -24.5470  -13.2010   20.7100 C   0  0  0  0  0  0  0  0  0  0  0  0
  -24.9890  -11.8430   20.6470 C   0  0  0  0  0  0  0  0  0  0  0  0
  -26.6300  -13.0740   20.0170 N   0  0  0  0  0  0  0  0  0  0  0  0
  -26.2670  -11.7920   20.2860 N   0  0  0  0  0  0  0  0  0  0  0  0
  -24.2530  -10.5890   20.8600 C   0  0  0  0  0  0  0  0  0  0  0  0
  -24.6480   -9.6580   21.8470 C   0  0  0  0  0  3  0  0  0  0  0  0
  -23.9140   -8.4690   22.0420 C   0  0  0  0  0  3  0  0  0  0  0  0
  -22.7720   -8.2010   21.2490 C   0  0  0  0  0  0  0  0  0  0  0  0
  -22.3990   -9.1190   20.2520 C   0  0  0  0  0  3  0  0  0  0  0  0
  -23.1320  -10.3000   20.0550 C   0  0  0  0  0  3  0  0  0  0  0  0
  -22.0120   -7.0600   21.3520 O   0  0  0  0  0  0  0  0  0  0  0  0
  -21.8220   -6.4240   22.5540 C   0  0  0  0  0  0  0  0  0  0  0  0
  -21.2420   -7.0790   23.6630 C   0  0  0  0  0  3  0  0  0  0  0  0
  -21.0050   -6.3690   24.8560 C   0  0  0  0  0  3  0  0  0  0  0  0
  -21.3380   -5.0040   24.9410 C   0  0  0  0  0  0  0  0  0  0  0  0
  -21.9070   -4.3460   23.8370 C   0  0  0  0  0  3  0  0  0  0  0  0
  -22.1460   -5.0540   22.6460 C   0  0  0  0  0  0  0  0  0  0  0  0
  -22.6760   -4.4110   21.5780 F   0  0  0  0  0  0  0  0  0  0  0  0
  -21.1040   -4.3180   26.0850 F   0  0  0  0  0  0  0  0  0  0  0  0
  -23.1690  -13.6930   21.0450 C   0  0  0  0  0  0  0  0  0  0  0  0
  -22.4790  -13.0050   21.9500 N   0  0  0  0  0  0  0  0  0  0  0  0
  -22.7130  -14.7170   20.5390 O   0  0  0  0  0  0  0  0  0  0  0  0
  -22.8620  -12.1760   22.3780 H   0  0  0  0  0  0  0  0  0  0  0  0
  -21.5520  -13.3060   22.2160 H   0  0  0  0  0  0  0  0  0  0  0  0
  -25.7860  -15.3340   20.1220 N   0  0  0  0  0  0  0  0  0  0  0  0
  -25.0470  -16.0100   20.2750 H   0  0  0  0  0  0  0  0  0  0  0  0
  -26.6490  -15.7510   19.7900 H   0  0  0  0  0  0  0  0  0  0  0  0
  -28.0410  -24.8820   20.0730 C   0  0  0  0  0  2  0  0  0  0  0  0
  -28.3640  -26.3380   20.3310 O   0  0  0  0  0  0  0  0  0  0  0  0
  -24.5930  -31.8750   23.1890 C   0  0  0  0  0  0  0  0  0  0  0  0
  -27.2880  -27.2650   20.2160 C   0  0  0  0  0  0  0  0  0  0  0  0
  -23.4340  -30.4660   21.5290 C   0  0  0  0  0  3  0  0  0  0  0  0
  -24.9250  -28.9240   20.1370 C   0  0  0  0  0  0  0  0  0  0  0  0
  -25.9820  -30.7820   21.4050 C   0  0  0  0  0  2  0  0  0  0  0  0
  -26.0850  -29.3990   20.7630 C   0  0  0  0  0  0  0  0  0  0  0  0
  -27.2660  -28.5840   20.7960 C   0  0  0  0  0  3  0  0  0  0  0  0
  -26.1030  -26.8820   19.5370 C   0  0  0  0  0  3  0  0  0  0  0  0
  -24.9420  -27.6710   19.5130 C   0  0  0  0  0  3  0  0  0  0  0  0
  -23.6850  -29.7960   20.1550 C   0  0  0  0  0  2  0  0  0  0  0  0
  -24.6860  -31.0600   22.0960 N   0  0  0  0  0  0  0  0  0  0  0  0
  -23.4970  -32.1440   23.7020 O   0  0  0  0  0  0  0  0  0  0  0  0
  -22.7560  -29.4450   22.4780 C   0  0  0  0  0  0  0  0  0  0  0  0
  -21.4280  -29.2730   22.3440 N   0  0  0  0  0  0  0  0  0  0  0  0
  -23.4250  -28.8120   23.2970 O   0  0  0  0  0  0  0  0  0  0  0  0
  -20.9420  -29.8390   21.6620 H   0  0  0  0  0  0  0  0  0  0  0  0
  -18.0420  -28.0890   22.8310 C   0  0  0  0  0  0  0  0  0  0  0  0
  -20.6020  -28.3350   23.1090 C   0  0  0  0  0  3  0  0  0  0  0  0
  -20.6990  -26.9030   22.5290 C   0  0  0  0  0  2  0  0  0  0  0  0
  -19.5980  -26.5910   21.5100 C   0  0  0  0  0  2  0  0  0  0  0  0
  -18.2150  -26.7420   22.1490 C   0  0  0  0  0  2  0  0  0  0  0  0
  -19.1640  -28.8420   23.2680 C   0  0  0  0  0  0  0  0  0  0  0  0
  -18.9470  -30.1030   23.8650 C   0  0  0  0  0  3  0  0  0  0  0  0
  -17.6440  -30.6110   24.0260 C   0  0  0  0  0  3  0  0  0  0  0  0
  -16.5370  -29.8520   23.6040 C   0  0  0  0  0  3  0  0  0  0  0  0
  -16.7390  -28.5920   23.0140 C   0  0  0  0  0  3  0  0  0  0  0  0
  -25.8570  -32.5230   23.8290 C   0  0  0  0  0  3  0  0  0  0  0  0
  -26.3700  -31.7520   25.1080 C   0  0  1  0  0  0  0  0  0  0  0  0
  -25.2710  -31.4860   26.1620 C   0  0  0  0  0  1  0  0  0  0  0  0
  -26.9830  -30.3860   24.7180 C   0  0  0  0  0  1  0  0  0  0  0  0
  -27.4950  -32.5620   25.7950 C   0  0  0  0  0  1  0  0  0  0  0  0
  -25.5210  -33.9140   24.1670 N   0  0  0  0  0  0  0  0  0  0  0  0
  -25.8600  -34.9810   23.4320 C   0  0  0  0  0  0  0  0  0  0  0  0
  -26.5590  -34.9020   22.4180 O   0  0  0  0  0  0  0  0  0  0  0  0
  -24.9070  -34.0470   24.9570 H   0  0  0  0  0  0  0  0  0  0  0  0
  -24.1420  -36.7780   23.0340 C   0  0  0  0  0  1  0  0  0  0  0  0
  -25.3450  -36.3580   23.8940 C   0  0  0  0  0  3  0  0  0  0  0  0
  -27.4320  -37.2400   24.8410 C   0  0  0  0  0  1  0  0  0  0  0  0
  -26.3740  -37.4190   23.8520 N   0  0  0  0  0  0  0  0  0  0  0  0
  -25.9530  -38.3310   24.0020 H   0  0  0  0  0  0  0  0  0  0  0  0
  1  4  2  0
  2  5  1  0
  3  1  1  0
  3  2  2  0
  5  4  1  0
  5  7  1  0
  7  6  1  0
 10  8  1  6
 10  9  1  0
 10  7  1  0
 11 10  1  0
 11 21  1  0
 12 21  1  0
 13 18  1  0
 14 15  1  0
 14 13  1  0
 16 15  1  0
 16 25  1  0
 16 17  1  0
 18 12  1  0
 18 17  1  0
 19 12  2  0
 21 20  1  0
 22 23  2  0
 23 42  1  0
 24 23  1  0
 24 27  1  0
 25 26  1  0
 25 22  1  0
 26 24  2  0
 27 28  1  0
 28 29  2  0
 30 33  1  0
 30 29  1  0
 31 30  2  0
 32 31  1  0
 32 27  2  0
 33 34  1  0
 34 39  2  0
 34 35  1  0
 35 36  2  0
 36 37  1  0
 37 41  1  0
 38 37  2  0
 39 38  1  0
 40 39  1  0
 42 43  1  0
 43 46  1  0
 43 45  1  0
 44 42  2  0
 47 48  1  0
 47 22  1  0
 49 47  1  0
 50  3  1  0
 50 51  1  0
 52 63  2  0
 53 51  1  0
 53 58  1  0
 54 62  1  0
 54 64  1  0
 55 61  1  0
 55 57  1  0
 56 62  1  0
 57 58  2  0
 57 56  1  0
 59 53  2  0
 60 59  1  0
 60 55  2  0
 61 54  1  0
 62 52  1  0
 64 66  2  0
 65 64  1  0
 67 65  1  0
 68 77  2  0
 68 73  1  0
 69 65  1  0
 69 73  1  0
 70 69  1  0
 71 72  1  0
 71 70  1  0
 72 68  1  0
 73 74  2  0
 74 75  1  0
 76 75  2  0
 77 76  1  0
 78 52  1  0
 78 83  1  0
 78 79  1  0
 79 82  1  1
 79 80  1  0
 81 79  1  0
 83 86  1  0
 84 88  1  0
 84 83  1  0
 85 84  2  0
 88 87  1  0
 90 88  1  0
 90 91  1  0
 90 89  1  0
M  ISO  4  12 100  21 100  50 101  51 101
M  END
>  <TORSDO>  (50) 
F 20

>  <SCORE>  (50) 
-13.320

>  <name>  (50) 
51

>  <ligand_id>  (50) 
51

>  <original_smiles>  (50) 
[H]c1nn(C([H])(C([H])([H])[H])C(C([H])([H])[H])(C([H])([H])[H])C([H])([H])N(C(=O)N2C([H])([H])C([H])([H])C([H])([H])C([H])(n3nc(-c4c([H])c([H])c(Oc5c([H])c([H])c(F)c([H])c5F)c([H])c4[H])c(C(=O)N([H])[H])c3N([H])[H])C2([H])[H])C([H])([H])[H])c([H])c1C([H])([H])Oc1c([H])c([H])c2c(c1[H])C([H])([H])N(C(=O)C([H])(N([H])C(=O)C([H])(N([H])C([H])([H])[H])C([H])([H])[H])C(C([H])([H])[H])(C([H])([H])[H])C([H])([H])[H])C([H])(C(=O)N([H])C1([H])c3c([H])c([H])c([H])c([H])c3C([H])([H])C([H])([H])C1([H])[H])C2([H])[H]

>  <smiles>  (50) 
[H]c1nn(C([H])(C([H])([H])[H])C(C([H])([H])[H])(C([H])([H])[H])C([H])([H])N(C(=O)N2C([H])([H])C([H])([H])C([H])([H])C([H])(n3nc(-c4c([H])c([H])c(Oc5c([H])c([H])c(F)c([H])c5F)c([H])c4[H])c(C(=O)N([H])[H])c3N([H])[H])C2([H])[H])C([H])([H])[H])c([H])c1C([H])([H])Oc1c([H])c([H])c2c(c1[H])C([H])([H])N(C(=O)C([H])(N([H])C(=O)C([H])(N([H])C([H])([H])[H])C([H])([H])[H])C(C([H])([H])[H])(C([H])([H])[H])C([H])([H])[H])C([H])(C(=O)N([H])C1([H])c3c([H])c([H])c([H])c([H])c3C([H])([H])C([H])([H])C1([H])[H])C2([H])[H]

$$$$
52:0:0
     RDKit          3D

 98106  0  0  1  0  0  0  0  0999 V2000
  -27.0340  -22.5150   20.3140 C   0  0  0  0  0  1  0  0  0  0  0  0
  -27.3180  -23.6680   18.2090 C   0  0  0  0  0  1  0  0  0  0  0  0
  -28.1100  -23.2940   19.4930 C   0  0  2  0  0  0  0  0  0  0  0  0
  -30.6160  -22.7340   18.6900 C   0  0  0  0  0  1  0  0  0  0  0  0
  -29.2920  -22.0260   19.0770 C   0  0  1  0  0  0  0  0  0  0  0  0
  -30.5750  -20.4940   22.0180 C   0  0  0  0  0  3  0  0  0  0  0  0
  -30.1730  -19.4770   20.2100 C   0  0  0  0  0  0  0  0  0  0  0  0
  -30.7130  -19.2890   21.4130 N   0  0  0  0  0  0  0  0  0  0  0  0
  -30.0140  -21.4420   21.2940 N   0  0  0  0  0  0  0  0  0  0  0  0
  -29.7250  -20.8710   20.0910 N   0  0  0  0  0  0  0  0  0  0  0  0
  -30.2750  -18.1020   19.2980 C   0  0  0  0  0  2  0  0  0  0  0  0
  -30.7800  -15.3980   19.8590 C   0  0  0  0  0  0  0  0  0  0  0  0
  -30.7360  -12.9440   19.1030 C   0  0  0  0  0  2  0  0  0  0  0  0
  -29.7790  -12.7100   17.9040 C   0  0  0  0  0  2  0  0  0  0  0  0
  -28.3300  -12.4700   18.3710 C   0  0  0  0  0  2  0  0  0  0  0  0
  -27.9090  -13.4950   19.4510 C   0  0  0  0  0  3  0  0  0  0  0  0
  -28.9870  -13.6140   20.5560 C   0  0  0  0  0  2  0  0  0  0  0  0
  -30.2150  -14.1040   19.9010 N   0  0  0  0  0  0  0  0  0  0  0  0
  -31.9750  -15.4230   19.5340 O   0  0  0  0  0  0  0  0  0  0  0  0
  -28.7210  -16.6870   20.5980 C   0  0  0  0  0  1  0  0  0  0  0  0
  -30.0060  -16.6350   19.8970 N   0  0  0  0  0  0  0  0  0  0  0  0
  -25.5710  -14.1470   20.2870 C   0  0  0  0  0  0  0  0  0  0  0  0
  -24.5090  -13.4010   20.7040 C   0  0  0  0  0  0  0  0  0  0  0  0
  -24.9410  -12.0430   20.6520 C   0  0  0  0  0  0  0  0  0  0  0  0
  -26.5870  -13.2440   20.0050 N   0  0  0  0  0  0  0  0  0  0  0  0
  -26.2180  -11.9710   20.2960 N   0  0  0  0  0  0  0  0  0  0  0  0
  -24.1870  -10.8000   20.8530 C   0  0  0  0  0  0  0  0  0  0  0  0
  -24.5890   -9.8440   21.8110 C   0  0  0  0  0  3  0  0  0  0  0  0
  -23.8380   -8.6660   22.0000 C   0  0  0  0  0  3  0  0  0  0  0  0
  -22.6730   -8.4380   21.2290 C   0  0  0  0  0  0  0  0  0  0  0  0
  -22.2930   -9.3810   20.2600 C   0  0  0  0  0  3  0  0  0  0  0  0
  -23.0440  -10.5510   20.0690 C   0  0  0  0  0  3  0  0  0  0  0  0
  -21.8920   -7.3130   21.3270 O   0  0  0  0  0  0  0  0  0  0  0  0
  -21.7590   -6.6330   22.5110 C   0  0  0  0  0  0  0  0  0  0  0  0
  -21.2730   -7.2570   23.6790 C   0  0  0  0  0  3  0  0  0  0  0  0
  -21.0850   -6.5030   24.8530 C   0  0  0  0  0  3  0  0  0  0  0  0
  -21.3720   -5.1270   24.8590 C   0  0  0  0  0  0  0  0  0  0  0  0
  -21.8510   -4.5010   23.6950 C   0  0  0  0  0  3  0  0  0  0  0  0
  -22.0410   -5.2520   22.5220 C   0  0  0  0  0  0  0  0  0  0  0  0
  -22.4830   -4.6420   21.3970 F   0  0  0  0  0  0  0  0  0  0  0  0
  -21.1820   -4.4000   25.9850 F   0  0  0  0  0  0  0  0  0  0  0  0
  -23.1350  -13.9180   21.0150 C   0  0  0  0  0  0  0  0  0  0  0  0
  -22.4180  -13.2490   21.9120 N   0  0  0  0  0  0  0  0  0  0  0  0
  -22.7050  -14.9480   20.4940 O   0  0  0  0  0  0  0  0  0  0  0  0
  -22.7810  -12.4160   22.3500 H   0  0  0  0  0  0  0  0  0  0  0  0
  -21.4920  -13.5720   22.1620 H   0  0  0  0  0  0  0  0  0  0  0  0
  -25.7180  -15.5160   20.0910 N   0  0  0  0  0  0  0  0  0  0  0  0
  -24.9320  -16.1400   20.2200 H   0  0  0  0  0  0  0  0  0  0  0  0
  -26.5260  -15.9690   19.6880 H   0  0  0  0  0  0  0  0  0  0  0  0
  -29.8570  -20.4590   16.9560 C   0  0  0  0  0  1  0  0  0  0  0  0
  -28.8290  -21.2780   17.7660 C   0  0  0  0  0  2  0  0  0  0  0  0
  -28.3760  -24.9010   20.1910 C   0  0  2  0  0  0  0  0  0  0  0  0
  -29.7100  -24.8720   20.4120 F   0  0  0  0  0  0  0  0  0  0  0  0
  -27.8490  -25.0270   21.6670 C   0  0  1  0  0  0  0  0  0  0  0  0
  -28.2810  -24.0320   22.4380 F   0  0  0  0  0  0  0  0  0  0  0  0
  -28.2770  -26.1640   22.2310 F   0  0  0  0  0  0  0  0  0  0  0  0
  -26.5140  -25.0330   21.7130 F   0  0  0  0  0  0  0  0  0  0  0  0
  -28.1740  -26.2300   19.5870 O   0  0  0  0  0  0  0  0  0  0  0  0
  -24.6990  -31.8680   23.0840 C   0  0  0  0  0  0  0  0  0  0  0  0
  -27.1080  -27.2030   19.7830 C   0  0  0  0  0  0  0  0  0  0  0  0
  -23.4290  -30.5250   21.4550 C   0  0  0  0  0  3  0  0  0  0  0  0
  -24.8070  -28.9920   19.9290 C   0  0  0  0  0  0  0  0  0  0  0  0
  -25.9790  -30.7820   21.1920 C   0  0  0  0  0  2  0  0  0  0  0  0
  -26.0200  -29.4020   20.4980 C   0  0  0  0  0  0  0  0  0  0  0  0
  -27.1720  -28.5200   20.4140 C   0  0  0  0  0  3  0  0  0  0  0  0
  -25.8640  -26.9150   19.1910 C   0  0  0  0  0  3  0  0  0  0  0  0
  -24.7400  -27.7600   19.2700 C   0  0  0  0  0  3  0  0  0  0  0  0
  -23.5970  -29.9040   20.0490 C   0  0  0  0  0  2  0  0  0  0  0  0
  -24.7260  -31.0810   21.9660 N   0  0  0  0  0  0  0  0  0  0  0  0
  -23.6350  -32.1300   23.6660 O   0  0  0  0  0  0  0  0  0  0  0  0
  -22.7980  -29.4810   22.4130 C   0  0  0  0  0  0  0  0  0  0  0  0
  -21.4700  -29.2870   22.3260 N   0  0  0  0  0  0  0  0  0  0  0  0
  -23.5060  -28.8480   23.2020 O   0  0  0  0  0  0  0  0  0  0  0  0
  -20.9460  -29.8440   21.6640 H   0  0  0  0  0  0  0  0  0  0  0  0
  -18.1440  -27.9710   22.8890 C   0  0  0  0  0  0  0  0  0  0  0  0
  -20.6980  -28.3200   23.1120 C   0  0  0  0  0  3  0  0  0  0  0  0
  -20.8420  -26.8950   22.5280 C   0  0  0  0  0  2  0  0  0  0  0  0
  -19.7320  -26.5420   21.5320 C   0  0  0  0  0  2  0  0  0  0  0  0
  -18.3560  -26.6360   22.1990 C   0  0  0  0  0  2  0  0  0  0  0  0
  -19.2440  -28.7640   23.3080 C   0  0  0  0  0  0  0  0  0  0  0  0
  -18.9890  -30.0140   23.9160 C   0  0  0  0  0  3  0  0  0  0  0  0
  -17.6710  -30.4670   24.1080 C   0  0  0  0  0  3  0  0  0  0  0  0
  -16.5850  -29.6680   23.7070 C   0  0  0  0  0  3  0  0  0  0  0  0
  -16.8240  -28.4240   23.1010 C   0  0  0  0  0  3  0  0  0  0  0  0
  -26.0010  -32.4940   23.6740 C   0  0  0  0  0  3  0  0  0  0  0  0
  -25.6950  -33.8770   24.0720 N   0  0  0  0  0  0  0  0  0  0  0  0
  -25.9860  -34.9610   23.3390 C   0  0  0  0  0  0  0  0  0  0  0  0
  -26.6040  -34.9020   22.2750 O   0  0  0  0  0  0  0  0  0  0  0  0
  -25.1560  -34.0050   24.9150 H   0  0  0  0  0  0  0  0  0  0  0  0
  -24.2320  -36.7500   23.1420 C   0  0  0  0  0  1  0  0  0  0  0  0
  -25.5120  -36.3260   23.8790 C   0  0  0  0  0  3  0  0  0  0  0  0
  -27.6790  -37.1910   24.6440 C   0  0  0  0  0  1  0  0  0  0  0  0
  -26.5310  -37.3930   23.7630 N   0  0  0  0  0  0  0  0  0  0  0  0
  -26.1240  -38.3000   23.9730 H   0  0  0  0  0  0  0  0  0  0  0  0
  -26.5770  -31.6830   24.8970 C   0  0  1  0  0  0  0  0  0  0  0  0
  -25.5350  -31.4150   26.0070 C   0  0  0  0  0  1  0  0  0  0  0  0
  -27.1440  -30.3190   24.4410 C   0  0  0  0  0  1  0  0  0  0  0  0
  -27.7560  -32.4610   25.5290 C   0  0  0  0  0  1  0  0  0  0  0  0
  3  2  1  6
  3 52  1  0
  3  1  1  0
  5  4  1  6
  5  3  1  0
  5 10  1  0
  7  8  2  0
  8  6  1  0
  9  6  2  0
 10  7  1  0
 10  9  1  0
 11 21  1  0
 11  7  1  0
 12 21  1  0
 12 18  1  0
 13 18  1  0
 14 15  1  0
 14 13  1  0
 16 15  1  0
 16 25  1  0
 16 17  1  0
 18 17  1  0
 19 12  2  0
 21 20  1  0
 22 23  2  0
 23 42  1  0
 24 23  1  0
 24 27  1  0
 25 22  1  0
 25 26  1  0
 26 24  2  0
 27 28  1  0
 28 29  2  0
 30 33  1  0
 30 29  1  0
 31 30  2  0
 32 31  1  0
 32 27  2  0
 33 34  1  0
 34 39  2  0
 34 35  1  0
 35 36  2  0
 36 37  1  0
 37 41  1  0
 38 37  2  0
 39 38  1  0
 40 39  1  0
 42 43  1  0
 43 46  1  0
 43 45  1  0
 44 42  2  0
 47 48  1  0
 47 22  1  0
 49 47  1  0
 50 51  1  0
 51  5  1  0
 52 53  1  1
 52 54  1  0
 54 57  1  6
 54 56  1  0
 54 55  1  0
 58 60  1  0
 58 52  1  0
 59 70  2  0
 60 65  1  0
 61 69  1  0
 61 71  1  0
 62 68  1  0
 62 64  1  0
 63 69  1  0
 64 63  1  0
 65 64  2  0
 66 67  1  0
 66 60  2  0
 67 62  2  0
 68 61  1  0
 69 59  1  0
 71 73  2  0
 72 71  1  0
 74 72  1  0
 75 84  2  0
 75 80  1  0
 76 72  1  0
 76 80  1  0
 77 76  1  0
 78 79  1  0
 78 77  1  0
 79 75  1  0
 80 81  2  0
 81 82  1  0
 83 82  2  0
 84 83  1  0
 85 59  1  0
 85 86  1  0
 85 95  1  0
 86 89  1  0
 87 91  1  0
 87 86  1  0
 88 87  2  0
 91 90  1  0
 93 91  1  0
 93 94  1  0
 93 92  1  0
 95 98  1  1
 95 96  1  0
 97 95  1  0
M  ISO  4  12 100  21 100  52 101  58 101
M  END
>  <TORSDO>  (51) 
F 22

>  <SCORE>  (51) 
-13.860

>  <name>  (51) 
52

>  <ligand_id>  (51) 
52

>  <original_smiles>  (51) 
[H]c1nc(C([H])([H])N(C(=O)N2C([H])([H])C([H])([H])C([H])([H])C([H])(n3nc(-c4c([H])c([H])c(Oc5c([H])c([H])c(F)c([H])c5F)c([H])c4[H])c(C(=O)N([H])[H])c3N([H])[H])C2([H])[H])C([H])([H])[H])n(C(C([H])([H])[H])(C([H])([H])C([H])([H])[H])C(C([H])([H])[H])(C([H])([H])[H])C(F)(Oc2c([H])c([H])c3c(c2[H])C([H])([H])N(C(=O)C([H])(N([H])C(=O)C([H])(N([H])C([H])([H])[H])C([H])([H])[H])C(C([H])([H])[H])(C([H])([H])[H])C([H])([H])[H])C([H])(C(=O)N([H])C2([H])c4c([H])c([H])c([H])c([H])c4C([H])([H])C([H])([H])C2([H])[H])C3([H])[H])C(F)(F)F)n1

>  <smiles>  (51) 
[H]c1nc(C([H])([H])N(C(=O)N2C([H])([H])C([H])([H])C([H])([H])C([H])(n3nc(-c4c([H])c([H])c(Oc5c([H])c([H])c(F)c([H])c5F)c([H])c4[H])c(C(=O)N([H])[H])c3N([H])[H])C2([H])[H])C([H])([H])[H])n(C(C([H])([H])[H])(C([H])([H])C([H])([H])[H])C(C([H])([H])[H])(C([H])([H])[H])C(F)(Oc2c([H])c([H])c3c(c2[H])C([H])([H])N(C(=O)C([H])(N([H])C(=O)C([H])(N([H])C([H])([H])[H])C([H])([H])[H])C(C([H])([H])[H])(C([H])([H])[H])C([H])([H])[H])C([H])(C(=O)N([H])C2([H])c4c([H])c([H])c([H])c([H])c4C([H])([H])C([H])([H])C2([H])[H])C3([H])[H])C(F)(F)F)n1

$$$$
53:0:0
     RDKit          3D

 93101  0  0  1  0  0  0  0  0999 V2000
  -28.9850  -18.9300   20.9460 C   0  0  0  0  0  3  0  0  0  0  0  0
  -29.7690  -18.5760   19.8170 C   0  0  0  0  0  0  0  0  0  0  0  0
  -29.0360  -21.2410   20.3920 C   0  0  0  0  0  0  0  0  0  0  0  0
  -29.8600  -20.8940   19.2790 C   0  0  0  0  0  0  0  0  0  0  0  0
  -28.6260  -20.2270   21.2170 N   0  0  0  0  0  0  0  0  0  0  0  0
  -30.1780  -19.5950   19.0020 N   0  0  0  0  0  0  0  0  0  0  0  0
  -31.4100  -17.1420   18.5230 C   0  0  0  0  0  1  0  0  0  0  0  0
  -28.9470  -16.8440   18.2240 C   0  0  0  0  0  1  0  0  0  0  0  0
  -30.0450  -17.1090   19.2750 C   0  0  2  0  0  0  0  0  0  0  0  0
  -30.7270  -14.7640   20.2400 C   0  0  0  0  0  0  0  0  0  0  0  0
  -30.4750  -12.5150   19.2530 C   0  0  0  0  0  2  0  0  0  0  0  0
  -29.5390  -12.6250   18.0320 C   0  0  0  0  0  2  0  0  0  0  0  0
  -28.0680  -12.4700   18.4660 C   0  0  0  0  0  2  0  0  0  0  0  0
  -27.7010  -13.3520   19.6910 C   0  0  0  0  0  3  0  0  0  0  0  0
  -28.7650  -13.2590   20.8070 C   0  0  0  0  0  2  0  0  0  0  0  0
  -30.0690  -13.5640   20.2090 N   0  0  0  0  0  0  0  0  0  0  0  0
  -31.9350  -14.8060   20.0100 O   0  0  0  0  0  0  0  0  0  0  0  0
  -29.9500  -15.9050   20.2080 N   0  0  0  0  0  0  0  0  0  0  0  0
  -29.0180  -15.7490   20.5560 H   0  0  0  0  0  0  0  0  0  0  0  0
  -25.3080  -13.9220   20.4240 C   0  0  0  0  0  0  0  0  0  0  0  0
  -24.2520  -13.1370   20.8000 C   0  0  0  0  0  0  0  0  0  0  0  0
  -24.7310  -11.7920   20.7790 C   0  0  0  0  0  0  0  0  0  0  0  0
  -26.3610  -13.0530   20.1880 N   0  0  0  0  0  0  0  0  0  0  0  0
  -26.0210  -11.7670   20.4690 N   0  0  0  0  0  0  0  0  0  0  0  0
  -24.0200  -10.5220   20.9760 C   0  0  0  0  0  0  0  0  0  0  0  0
  -24.4560   -9.5690   21.9230 C   0  0  0  0  0  3  0  0  0  0  0  0
  -23.7430   -8.3640   22.1060 C   0  0  0  0  0  3  0  0  0  0  0  0
  -22.5830   -8.1030   21.3390 C   0  0  0  0  0  0  0  0  0  0  0  0
  -22.1690   -9.0430   20.3810 C   0  0  0  0  0  3  0  0  0  0  0  0
  -22.8790  -10.2400   20.1960 C   0  0  0  0  0  3  0  0  0  0  0  0
  -21.8420   -6.9490   21.4310 O   0  0  0  0  0  0  0  0  0  0  0  0
  -21.7790   -6.2260   22.5960 C   0  0  0  0  0  0  0  0  0  0  0  0
  -21.2990   -6.7890   23.7980 C   0  0  0  0  0  3  0  0  0  0  0  0
  -21.1840   -5.9900   24.9540 C   0  0  0  0  0  3  0  0  0  0  0  0
  -21.5410   -4.6300   24.9080 C   0  0  0  0  0  0  0  0  0  0  0  0
  -22.0150   -4.0650   23.7110 C   0  0  0  0  0  3  0  0  0  0  0  0
  -22.1310   -4.8610   22.5580 C   0  0  0  0  0  0  0  0  0  0  0  0
  -22.5680   -4.3070   21.4020 F   0  0  0  0  0  0  0  0  0  0  0  0
  -21.4250   -3.8610   26.0170 F   0  0  0  0  0  0  0  0  0  0  0  0
  -22.8480  -13.6000   21.0660 C   0  0  0  0  0  0  0  0  0  0  0  0
  -22.1220  -12.9020   21.9330 N   0  0  0  0  0  0  0  0  0  0  0  0
  -22.4030  -14.6190   20.5390 O   0  0  0  0  0  0  0  0  0  0  0  0
  -22.4940  -12.0830   22.3880 H   0  0  0  0  0  0  0  0  0  0  0  0
  -21.1800  -13.1960   22.1460 H   0  0  0  0  0  0  0  0  0  0  0  0
  -25.4570  -15.2930   20.2380 N   0  0  0  0  0  0  0  0  0  0  0  0
  -24.6790  -15.9390   20.3400 H   0  0  0  0  0  0  0  0  0  0  0  0
  -26.2880  -15.7330   19.8690 H   0  0  0  0  0  0  0  0  0  0  0  0
  -29.5180  -22.1150   17.0740 C   0  0  0  0  0  1  0  0  0  0  0  0
  -30.4340  -21.8910   18.2820 C   0  0  0  0  0  2  0  0  0  0  0  0
  -28.4190  -22.6510   20.7400 C   0  0  0  0  0  2  0  0  0  0  0  0
  -28.9510  -24.0490   20.2070 C   0  0  0  0  0  2  0  0  0  0  0  0
  -28.2680  -25.3060   20.8850 C   0  0  0  0  0  2  0  0  0  0  0  0
  -28.4570  -26.6440   20.3020 O   0  0  0  0  0  0  0  0  0  0  0  0
  -24.6040  -31.9490   23.2500 C   0  0  0  0  0  0  0  0  0  0  0  0
  -27.3230  -27.4550   20.2540 C   0  0  0  0  0  0  0  0  0  0  0  0
  -23.4350  -30.5270   21.6000 C   0  0  0  0  0  3  0  0  0  0  0  0
  -24.9260  -28.9960   20.1940 C   0  0  0  0  0  0  0  0  0  0  0  0
  -25.9660  -30.8970   21.4340 C   0  0  0  0  0  2  0  0  0  0  0  0
  -26.0770  -29.5180   20.8010 C   0  0  0  0  0  0  0  0  0  0  0  0
  -27.2790  -28.7610   20.8200 C   0  0  0  0  0  3  0  0  0  0  0  0
  -26.1580  -26.9750   19.6170 C   0  0  0  0  0  3  0  0  0  0  0  0
  -24.9700  -27.7300   19.5900 C   0  0  0  0  0  3  0  0  0  0  0  0
  -23.6720  -29.8470   20.2250 C   0  0  0  0  0  2  0  0  0  0  0  0
  -24.6870  -31.1410   22.1530 N   0  0  0  0  0  0  0  0  0  0  0  0
  -23.5130  -32.2120   23.7720 O   0  0  0  0  0  0  0  0  0  0  0  0
  -22.7780  -29.5040   22.5560 C   0  0  0  0  0  0  0  0  0  0  0  0
  -21.4550  -29.3130   22.4220 N   0  0  0  0  0  0  0  0  0  0  0  0
  -23.4570  -28.8820   23.3790 O   0  0  0  0  0  0  0  0  0  0  0  0
  -20.9620  -29.8730   21.7400 H   0  0  0  0  0  0  0  0  0  0  0  0
  -18.0850  -28.0950   22.8990 C   0  0  0  0  0  0  0  0  0  0  0  0
  -20.6400  -28.3680   23.1860 C   0  0  0  0  0  3  0  0  0  0  0  0
  -20.7530  -26.9380   22.6100 C   0  0  0  0  0  2  0  0  0  0  0  0
  -19.6590  -26.6100   21.5890 C   0  0  0  0  0  2  0  0  0  0  0  0
  -18.2730  -26.7470   22.2250 C   0  0  0  0  0  2  0  0  0  0  0  0
  -19.1960  -28.8630   23.3360 C   0  0  0  0  0  0  0  0  0  0  0  0
  -18.9670  -30.1260   23.9250 C   0  0  0  0  0  3  0  0  0  0  0  0
  -17.6580  -30.6210   24.0810 C   0  0  0  0  0  3  0  0  0  0  0  0
  -16.5610  -29.8500   23.6570 C   0  0  0  0  0  3  0  0  0  0  0  0
  -16.7750  -28.5880   23.0750 C   0  0  0  0  0  3  0  0  0  0  0  0
  -25.8730  -32.5990   23.8840 C   0  0  0  0  0  3  0  0  0  0  0  0
  -25.5470  -33.9970   24.1930 N   0  0  0  0  0  0  0  0  0  0  0  0
  -25.8860  -35.0440   23.4290 C   0  0  0  0  0  0  0  0  0  0  0  0
  -26.5770  -34.9340   22.4120 O   0  0  0  0  0  0  0  0  0  0  0  0
  -24.9310  -34.1570   24.9770 H   0  0  0  0  0  0  0  0  0  0  0  0
  -24.1600  -36.8260   23.0120 C   0  0  0  0  0  1  0  0  0  0  0  0
  -25.3790  -36.4330   23.8610 C   0  0  0  0  0  3  0  0  0  0  0  0
  -27.4850  -37.3380   24.7450 C   0  0  0  0  0  1  0  0  0  0  0  0
  -26.4090  -37.4910   23.7690 N   0  0  0  0  0  0  0  0  0  0  0  0
  -25.9930  -38.4100   23.8960 H   0  0  0  0  0  0  0  0  0  0  0  0
  -26.3760  -31.8470   25.1760 C   0  0  1  0  0  0  0  0  0  0  0  0
  -25.2680  -31.6130   26.2290 C   0  0  0  0  0  1  0  0  0  0  0  0
  -26.9790  -30.4700   24.8070 C   0  0  0  0  0  1  0  0  0  0  0  0
  -27.5070  -32.6600   25.8470 C   0  0  0  0  0  1  0  0  0  0  0  0
  1  5  1  0
  2  1  2  0
  3 50  1  0
  3  5  2  0
  4  3  1  0
  6  4  2  0
  6  2  1  0
  9  7  1  6
  8  9  1  0
  9  2  1  0
  9 18  1  0
 11 16  1  0
 12 13  1  0
 12 11  1  0
 14 13  1  0
 14 23  1  0
 14 15  1  0
 16 10  1  0
 16 15  1  0
 17 10  2  0
 18 10  1  0
 18 19  1  0
 20 21  2  0
 21 40  1  0
 22 21  1  0
 22 25  1  0
 23 20  1  0
 23 24  1  0
 24 22  2  0
 25 26  1  0
 26 27  2  0
 28 31  1  0
 28 27  1  0
 29 28  2  0
 30 29  1  0
 30 25  2  0
 31 32  1  0
 32 33  1  0
 33 34  2  0
 35 34  1  0
 35 39  1  0
 36 35  2  0
 37 32  2  0
 37 36  1  0
 38 37  1  0
 40 41  1  0
 41 44  1  0
 41 43  1  0
 42 40  2  0
 45 46  1  0
 45 20  1  0
 47 45  1  0
 48 49  1  0
 49  4  1  0
 51 50  1  0
 51 52  1  0
 53 52  1  0
 54 65  2  0
 55 53  1  0
 55 60  1  0
 56 64  1  0
 56 66  1  0
 57 63  1  0
 57 59  1  0
 58 64  1  0
 59 60  2  0
 59 58  1  0
 61 55  2  0
 62 61  1  0
 62 57  2  0
 63 56  1  0
 64 54  1  0
 66 68  2  0
 67 66  1  0
 69 67  1  0
 70 79  2  0
 70 75  1  0
 71 67  1  0
 71 75  1  0
 72 71  1  0
 73 74  1  0
 73 72  1  0
 74 70  1  0
 75 76  2  0
 76 77  1  0
 78 77  2  0
 79 78  1  0
 80 54  1  0
 80 81  1  0
 80 90  1  0
 81 84  1  0
 82 86  1  0
 82 81  1  0
 83 82  2  0
 86 85  1  0
 88 86  1  0
 88 89  1  0
 88 87  1  0
 90 93  1  1
 90 91  1  0
 92 90  1  0
M  ISO  4  10 100  18 100  52 101  53 101
M  END
>  <TORSDO>  (52) 
F 21

>  <SCORE>  (52) 
-12.897

>  <name>  (52) 
53

>  <ligand_id>  (52) 
53

>  <original_smiles>  (52) 
[H]c1nc(C([H])([H])C([H])([H])C([H])([H])Oc2c([H])c([H])c3c(c2[H])C([H])([H])N(C(=O)C([H])(N([H])C(=O)C([H])(N([H])C([H])([H])[H])C([H])([H])[H])C(C([H])([H])[H])(C([H])([H])[H])C([H])([H])[H])C([H])(C(=O)N([H])C2([H])c4c([H])c([H])c([H])c([H])c4C([H])([H])C([H])([H])C2([H])[H])C3([H])[H])c(C([H])([H])C([H])([H])[H])nc1C(N([H])C(=O)N1C([H])([H])C([H])([H])C([H])([H])C([H])(n2nc(-c3c([H])c([H])c(Oc4c([H])c([H])c(F)c([H])c4F)c([H])c3[H])c(C(=O)N([H])[H])c2N([H])[H])C1([H])[H])(C([H])([H])[H])C([H])([H])[H]

>  <smiles>  (52) 
[H]c1nc(C([H])([H])C([H])([H])C([H])([H])Oc2c([H])c([H])c3c(c2[H])C([H])([H])N(C(=O)C([H])(N([H])C(=O)C([H])(N([H])C([H])([H])[H])C([H])([H])[H])C(C([H])([H])[H])(C([H])([H])[H])C([H])([H])[H])C([H])(C(=O)N([H])C2([H])c4c([H])c([H])c([H])c([H])c4C([H])([H])C([H])([H])C2([H])[H])C3([H])[H])c(C([H])([H])C([H])([H])[H])nc1C(N([H])C(=O)N1C([H])([H])C([H])([H])C([H])([H])C([H])(n2nc(-c3c([H])c([H])c(Oc4c([H])c([H])c(F)c([H])c4F)c([H])c3[H])c(C(=O)N([H])[H])c2N([H])[H])C1([H])[H])(C([H])([H])[H])C([H])([H])[H]

$$$$
54:0:0
     RDKit          3D

 90 98  0  0  1  0  0  0  0  0999 V2000
  -29.8070  -20.5070   21.0260 C   0  0  0  0  0  2  0  0  0  0  0  0
  -28.3240  -20.2940   19.2100 C   0  0  0  0  0  3  0  0  0  0  0  0
  -29.0270  -21.1760   20.0540 C   0  0  0  0  0  3  0  0  0  0  0  0
  -29.3780  -18.4190   20.0950 C   0  0  0  0  0  0  0  0  0  0  0  0
  -29.9760  -19.1520   21.0410 N   0  0  0  0  0  0  0  0  0  0  0  0
  -28.5170  -18.9510   19.2250 N   0  0  0  0  0  0  0  0  0  0  0  0
  -31.4560  -17.3760   19.1210 C   0  0  0  0  0  1  0  0  0  0  0  0
  -30.0360  -17.0620   19.6480 C   0  0  0  0  0  0  0  0  0  0  0  0
  -30.6310  -14.6510   20.3570 C   0  0  0  0  0  0  0  0  0  0  0  0
  -30.3620  -12.4100   19.3540 C   0  0  0  0  0  2  0  0  0  0  0  0
  -29.4320  -12.5430   18.1290 C   0  0  0  0  0  2  0  0  0  0  0  0
  -27.9590  -12.3970   18.5550 C   0  0  0  0  0  2  0  0  0  0  0  0
  -27.5980  -13.2750   19.7830 C   0  0  0  0  0  3  0  0  0  0  0  0
  -28.6540  -13.1550   20.9050 C   0  0  0  0  0  2  0  0  0  0  0  0
  -29.9650  -13.4550   20.3190 N   0  0  0  0  0  0  0  0  0  0  0  0
  -31.8210  -14.6990   20.0470 O   0  0  0  0  0  0  0  0  0  0  0  0
  -29.8790  -15.7930   20.4560 N   0  0  0  0  0  4  0  0  0  0  0  0
  -28.9490  -15.6680   20.8210 H   0  0  0  0  0  0  0  0  0  0  0  0
  -25.2090  -13.8750   20.5060 C   0  0  0  0  0  0  0  0  0  0  0  0
  -24.1420  -13.1020   20.8830 C   0  0  0  0  0  0  0  0  0  0  0  0
  -24.6050  -11.7510   20.8590 C   0  0  0  0  0  0  0  0  0  0  0  0
  -26.2520  -12.9930   20.2740 N   0  0  0  0  0  0  0  0  0  0  0  0
  -25.8950  -11.7130   20.5490 N   0  0  0  0  0  0  0  0  0  0  0  0
  -23.8780  -10.4890   21.0530 C   0  0  0  0  0  0  0  0  0  0  0  0
  -24.3210   -9.5160   21.9770 C   0  0  0  0  0  3  0  0  0  0  0  0
  -23.5950   -8.3200   22.1590 C   0  0  0  0  0  3  0  0  0  0  0  0
  -22.4130   -8.0870   21.4190 C   0  0  0  0  0  0  0  0  0  0  0  0
  -21.9890   -9.0470   20.4840 C   0  0  0  0  0  3  0  0  0  0  0  0
  -22.7150  -10.2360   20.2990 C   0  0  0  0  0  3  0  0  0  0  0  0
  -21.6560   -6.9430   21.5130 O   0  0  0  0  0  0  0  0  0  0  0  0
  -21.6350   -6.1860   22.6570 C   0  0  0  0  0  0  0  0  0  0  0  0
  -21.2540   -6.7310   23.9030 C   0  0  0  0  0  3  0  0  0  0  0  0
  -21.1790   -5.9010   25.0400 C   0  0  0  0  0  3  0  0  0  0  0  0
  -21.4720   -4.5290   24.9320 C   0  0  0  0  0  0  0  0  0  0  0  0
  -21.8440   -3.9840   23.6900 C   0  0  0  0  0  3  0  0  0  0  0  0
  -21.9220   -4.8100   22.5560 C   0  0  0  0  0  0  0  0  0  0  0  0
  -22.2610   -4.2760   21.3580 F   0  0  0  0  0  0  0  0  0  0  0  0
  -21.3910   -3.7300   26.0210 F   0  0  0  0  0  0  0  0  0  0  0  0
  -22.7450  -13.5800   21.1490 C   0  0  0  0  0  0  0  0  0  0  0  0
  -22.0150  -12.8910   22.0190 N   0  0  0  0  0  0  0  0  0  0  0  0
  -22.3080  -14.6010   20.6190 O   0  0  0  0  0  0  0  0  0  0  0  0
  -22.3800  -12.0670   22.4730 H   0  0  0  0  0  0  0  0  0  0  0  0
  -21.0750  -13.1910   22.2370 H   0  0  0  0  0  0  0  0  0  0  0  0
  -25.3720  -15.2440   20.3190 N   0  0  0  0  0  0  0  0  0  0  0  0
  -24.5940  -15.8880   20.4120 H   0  0  0  0  0  0  0  0  0  0  0  0
  -26.2010  -15.6780   19.9370 H   0  0  0  0  0  0  0  0  0  0  0  0
  -29.1600  -22.7030   19.6930 C   0  0  0  0  0  2  0  0  0  0  0  0
  -28.4260  -23.9050   20.4300 C   0  0  0  0  0  2  0  0  0  0  0  0
  -28.5620  -25.2840   19.6370 C   0  0  0  0  0  2  0  0  0  0  0  0
  -28.3850  -26.5870   20.2910 O   0  0  0  0  0  0  0  0  0  0  0  0
  -24.5970  -31.8980   23.2340 C   0  0  0  0  0  0  0  0  0  0  0  0
  -27.2250  -27.3610   20.1980 C   0  0  0  0  0  0  0  0  0  0  0  0
  -23.3920  -30.4910   21.5980 C   0  0  0  0  0  3  0  0  0  0  0  0
  -24.8440  -28.9360   20.1740 C   0  0  0  0  0  0  0  0  0  0  0  0
  -25.9250  -30.8240   21.4060 C   0  0  0  0  0  2  0  0  0  0  0  0
  -26.0050  -29.4420   20.7710 C   0  0  0  0  0  0  0  0  0  0  0  0
  -27.1920  -28.6620   20.7770 C   0  0  0  0  0  3  0  0  0  0  0  0
  -26.0410  -26.8920   19.5830 C   0  0  0  0  0  3  0  0  0  0  0  0
  -24.8630  -27.6670   19.5720 C   0  0  0  0  0  3  0  0  0  0  0  0
  -23.6040  -29.8050   20.2190 C   0  0  0  0  0  2  0  0  0  0  0  0
  -24.6570  -31.0890   22.1370 N   0  0  0  0  0  0  0  0  0  0  0  0
  -23.5150  -32.1750   23.7710 O   0  0  0  0  0  0  0  0  0  0  0  0
  -22.7340  -29.4790   22.5650 C   0  0  0  0  0  0  0  0  0  0  0  0
  -21.4080  -29.3000   22.4390 N   0  0  0  0  0  0  0  0  0  0  0  0
  -23.4140  -28.8570   23.3840 O   0  0  0  0  0  0  0  0  0  0  0  0
  -20.9180  -29.8570   21.7520 H   0  0  0  0  0  0  0  0  0  0  0  0
  -18.0340  -28.1010   22.9350 C   0  0  0  0  0  0  0  0  0  0  0  0
  -20.5900  -28.3660   23.2140 C   0  0  0  0  0  3  0  0  0  0  0  0
  -20.6980  -26.9320   22.6460 C   0  0  0  0  0  2  0  0  0  0  0  0
  -19.6000  -26.6010   21.6300 C   0  0  0  0  0  2  0  0  0  0  0  0
  -18.2160  -26.7470   22.2690 C   0  0  0  0  0  2  0  0  0  0  0  0
  -19.1490  -28.8670   23.3650 C   0  0  0  0  0  0  0  0  0  0  0  0
  -18.9260  -30.1330   23.9470 C   0  0  0  0  0  3  0  0  0  0  0  0
  -17.6200  -30.6330   24.1060 C   0  0  0  0  0  3  0  0  0  0  0  0
  -16.5200  -29.8640   23.6930 C   0  0  0  0  0  3  0  0  0  0  0  0
  -16.7270  -28.5990   23.1130 C   0  0  0  0  0  3  0  0  0  0  0  0
  -25.8810  -32.5320   23.8550 C   0  0  0  0  0  3  0  0  0  0  0  0
  -26.4020  -31.7610   25.1300 C   0  0  1  0  0  0  0  0  0  0  0  0
  -25.3130  -31.5250   26.2020 C   0  0  0  0  0  1  0  0  0  0  0  0
  -26.9820  -30.3840   24.7350 C   0  0  0  0  0  1  0  0  0  0  0  0
  -27.5560  -32.5540   25.7880 C   0  0  0  0  0  1  0  0  0  0  0  0
  -25.5710  -33.9300   24.1860 N   0  0  0  0  0  0  0  0  0  0  0  0
  -25.9050  -34.9840   23.4290 C   0  0  0  0  0  0  0  0  0  0  0  0
  -26.5780  -34.8810   22.3990 O   0  0  0  0  0  0  0  0  0  0  0  0
  -24.9740  -34.0850   24.9870 H   0  0  0  0  0  0  0  0  0  0  0  0
  -24.1770  -36.7770   23.0760 C   0  0  0  0  0  1  0  0  0  0  0  0
  -25.4190  -36.3730   23.8860 C   0  0  0  0  0  3  0  0  0  0  0  0
  -27.5560  -37.2560   24.7140 C   0  0  0  0  0  1  0  0  0  0  0  0
  -26.4530  -37.4260   23.7720 N   0  0  0  0  0  0  0  0  0  0  0  0
  -26.0470  -38.3450   23.9200 H   0  0  0  0  0  0  0  0  0  0  0  0
  1  5  1  0
  2  6  2  0
  2  3  1  0
  3 47  1  0
  3  1  1  0
  4  5  2  0
  6  4  1  0
  7  8  1  0
  8  4  1  0
  8 17  2  0
  9 17  1  0
 10 15  1  0
 11 12  1  0
 11 10  1  0
 13 12  1  0
 13 22  1  0
 13 14  1  0
 15  9  1  0
 15 14  1  0
 16  9  2  0
 17 18  1  0
 19 20  2  0
 20 39  1  0
 21 20  1  0
 21 24  1  0
 22 19  1  0
 22 23  1  0
 23 21  2  0
 24 25  1  0
 25 26  2  0
 27 30  1  0
 27 26  1  0
 28 27  2  0
 29 28  1  0
 29 24  2  0
 30 31  1  0
 31 32  1  0
 32 33  2  0
 34 33  1  0
 34 38  1  0
 35 34  2  0
 36 31  2  0
 36 35  1  0
 37 36  1  0
 39 40  1  0
 40 43  1  0
 40 42  1  0
 41 39  2  0
 44 45  1  0
 44 19  1  0
 46 44  1  0
 47 48  1  0
 49 50  1  0
 49 48  1  0
 51 62  2  0
 52 50  1  0
 52 57  1  0
 53 61  1  0
 53 63  1  0
 54 60  1  0
 54 56  1  0
 55 61  1  0
 56 57  2  0
 56 55  1  0
 58 52  2  0
 59 58  1  0
 59 54  2  0
 60 53  1  0
 61 51  1  0
 63 65  2  0
 64 63  1  0
 66 64  1  0
 67 76  2  0
 67 72  1  0
 68 64  1  0
 68 72  1  0
 69 68  1  0
 70 71  1  0
 70 69  1  0
 71 67  1  0
 72 73  2  0
 73 74  1  0
 75 74  2  0
 76 75  1  0
 77 51  1  0
 77 82  1  0
 77 78  1  0
 78 81  1  1
 78 79  1  0
 80 78  1  0
 82 85  1  0
 83 87  1  0
 83 82  1  0
 84 83  2  0
 87 86  1  0
 89 87  1  0
 89 90  1  0
 89 88  1  0
M  ISO  4   9 100  17 100  49 101  50 101
M  END
>  <TORSDO>  (53) 
F 20

>  <SCORE>  (53) 
-13.903

>  <name>  (53) 
54

>  <ligand_id>  (53) 
54

>  <original_smiles>  (53) 
[H]c1nc(C([H])(N([H])C(=O)N2C([H])([H])C([H])([H])C([H])([H])C([H])(n3nc(-c4c([H])c([H])c(Oc5c([H])c([H])c(F)c([H])c5F)c([H])c4[H])c(C(=O)N([H])[H])c3N([H])[H])C2([H])[H])C([H])([H])[H])nc([H])c1C([H])([H])C([H])([H])C([H])([H])Oc1c([H])c([H])c2c(c1[H])C([H])([H])N(C(=O)C([H])(N([H])C(=O)C([H])(N([H])C([H])([H])[H])C([H])([H])[H])C(C([H])([H])[H])(C([H])([H])[H])C([H])([H])[H])C([H])(C(=O)N([H])C1([H])c3c([H])c([H])c([H])c([H])c3C([H])([H])C([H])([H])C1([H])[H])C2([H])[H]

>  <smiles>  (53) 
[H]c1nc(C([H])(N([H])C(=O)N2C([H])([H])C([H])([H])C([H])([H])C([H])(n3nc(-c4c([H])c([H])c(Oc5c([H])c([H])c(F)c([H])c5F)c([H])c4[H])c(C(=O)N([H])[H])c3N([H])[H])C2([H])[H])C([H])([H])[H])nc([H])c1C([H])([H])C([H])([H])C([H])([H])Oc1c([H])c([H])c2c(c1[H])C([H])([H])N(C(=O)C([H])(N([H])C(=O)C([H])(N([H])C([H])([H])[H])C([H])([H])[H])C(C([H])([H])[H])(C([H])([H])[H])C([H])([H])[H])C([H])(C(=O)N([H])C1([H])c3c([H])c([H])c([H])c([H])c3C([H])([H])C([H])([H])C1([H])[H])C2([H])[H]

$$$$
55:0:0
     RDKit          3D

 97105  0  0  1  0  0  0  0  0999 V2000
  -27.4620  -22.6360   21.3360 C   0  0  0  0  0  1  0  0  0  0  0  0
  -29.7720  -23.2800   21.9070 C   0  0  0  0  0  1  0  0  0  0  0  0
  -28.8520  -22.9090   20.7300 C   0  0  1  0  0  0  0  0  0  0  0  0
  -29.0040  -19.9450   20.6090 C   0  0  0  0  0  3  0  0  0  0  0  0
  -30.5410  -20.9420   19.6330 C   0  0  0  0  0  3  0  0  0  0  0  0
  -29.8350  -18.8070   20.1640 C   0  0  0  0  0  0  0  0  0  0  0  0
  -30.8150  -19.5960   19.5180 N   0  0  0  0  0  0  0  0  0  0  0  0
  -29.4070  -21.3610   20.2690 N   0  0  0  0  0  0  0  0  0  0  0  0
  -28.5650  -16.8140   21.1480 C   0  0  0  0  0  1  0  0  0  0  0  0
  -29.6140  -17.0480   20.0380 C   0  0  2  0  0  0  0  0  0  0  0  0
  -30.6220  -15.5480   20.0830 C   0  0  0  0  0  0  0  0  0  0  0  0
  -30.7400  -13.0720   19.2590 C   0  0  0  0  0  2  0  0  0  0  0  0
  -29.7780  -12.8090   18.0660 C   0  0  0  0  0  2  0  0  0  0  0  0
  -28.3340  -12.5250   18.5320 C   0  0  0  0  0  2  0  0  0  0  0  0
  -27.9020  -13.4610   19.6870 C   0  0  0  0  0  3  0  0  0  0  0  0
  -28.9970  -13.5610   20.7680 C   0  0  0  0  0  2  0  0  0  0  0  0
  -30.1770  -14.1800   20.1180 N   0  0  0  0  0  0  0  0  0  0  0  0
  -31.8470  -15.5960   19.8730 O   0  0  0  0  0  0  0  0  0  0  0  0
  -25.5510  -14.0420   20.4780 C   0  0  0  0  0  0  0  0  0  0  0  0
  -24.4840  -13.2660   20.8400 C   0  0  0  0  0  0  0  0  0  0  0  0
  -24.9410  -11.9130   20.7790 C   0  0  0  0  0  0  0  0  0  0  0  0
  -26.5830  -13.1570   20.2140 N   0  0  0  0  0  0  0  0  0  0  0  0
  -26.2280  -11.8720   20.4550 N   0  0  0  0  0  0  0  0  0  0  0  0
  -24.2110  -10.6540   20.9580 C   0  0  0  0  0  0  0  0  0  0  0  0
  -24.6090   -9.7020   21.9210 C   0  0  0  0  0  3  0  0  0  0  0  0
  -23.8780   -8.5070   22.0890 C   0  0  0  0  0  3  0  0  0  0  0  0
  -22.7360   -8.2560   21.2920 C   0  0  0  0  0  0  0  0  0  0  0  0
  -22.3570   -9.1980   20.3190 C   0  0  0  0  0  3  0  0  0  0  0  0
  -23.0890  -10.3840   20.1490 C   0  0  0  0  0  3  0  0  0  0  0  0
  -21.9790   -7.1120   21.3690 O   0  0  0  0  0  0  0  0  0  0  0  0
  -21.8140   -6.4350   22.5500 C   0  0  0  0  0  0  0  0  0  0  0  0
  -21.2360   -7.0460   23.6840 C   0  0  0  0  0  3  0  0  0  0  0  0
  -21.0230   -6.2930   24.8560 C   0  0  0  0  0  3  0  0  0  0  0  0
  -21.3760   -4.9310   24.8940 C   0  0  0  0  0  0  0  0  0  0  0  0
  -21.9480   -4.3210   23.7650 C   0  0  0  0  0  3  0  0  0  0  0  0
  -22.1640   -5.0700   22.5950 C   0  0  0  0  0  0  0  0  0  0  0  0
  -22.6950   -4.4710   21.5020 F   0  0  0  0  0  0  0  0  0  0  0  0
  -21.1640   -4.2060   26.0170 F   0  0  0  0  0  0  0  0  0  0  0  0
  -23.0980  -13.7490   21.1450 C   0  0  0  0  0  0  0  0  0  0  0  0
  -22.3820  -13.0490   22.0170 N   0  0  0  0  0  0  0  0  0  0  0  0
  -22.6680  -14.7910   20.6510 O   0  0  0  0  0  0  0  0  0  0  0  0
  -22.7470  -12.2100   22.4420 H   0  0  0  0  0  0  0  0  0  0  0  0
  -21.4530  -13.3580   22.2650 H   0  0  0  0  0  0  0  0  0  0  0  0
  -25.7330  -15.4190   20.3390 N   0  0  0  0  0  0  0  0  0  0  0  0
  -24.8000  -15.8250   20.3800 H   0  0  0  0  0  0  0  0  0  0  0  0
  -26.1700  -15.7030   21.2100 H   0  0  0  0  0  0  0  0  0  0  0  0
  -28.9870  -16.9540   18.5990 C   0  0  0  0  0  2  0  0  0  0  0  0
  -27.5530  -17.3190   18.4820 N   0  0  0  0  0  4  0  0  0  0  0  0
  -26.9410  -16.6610   18.9600 H   0  0  0  0  0  0  0  0  0  0  0  0
  -27.2840  -17.3110   17.5130 H   0  0  0  0  0  0  0  0  0  0  0  0
  -27.3800  -18.2420   18.8390 H   0  0  0  0  0  0  0  0  0  0  0  0
  -28.5720  -24.5080   19.8880 C   0  0  0  0  0  3  0  0  0  0  0  0
  -29.2150  -26.0210   17.8740 C   0  0  0  0  0  1  0  0  0  0  0  0
  -30.9680  -24.6770   18.9810 C   0  0  0  0  0  1  0  0  0  0  0  0
  -29.1610  -23.5890   17.5620 C   0  0  0  0  0  1  0  0  0  0  0  0
  -29.4730  -24.6820   18.6070 C   0  0  1  0  0  0  0  0  0  0  0  0
  -28.4360  -26.0480   20.4860 O   0  0  0  0  0  0  0  0  0  0  0  0
  -24.6820  -31.9690   23.2720 C   0  0  0  0  0  0  0  0  0  0  0  0
  -27.3860  -27.1040   20.3510 C   0  0  0  0  0  0  0  0  0  0  0  0
  -23.5370  -30.5270   21.6360 C   0  0  0  0  0  3  0  0  0  0  0  0
  -25.0370  -28.9300   20.2560 C   0  0  0  0  0  0  0  0  0  0  0  0
  -26.1000  -30.7850   21.5230 C   0  0  0  0  0  2  0  0  0  0  0  0
  -26.2080  -29.3680   20.8870 C   0  0  0  0  0  0  0  0  0  0  0  0
  -27.3700  -28.4740   20.9130 C   0  0  0  0  0  3  0  0  0  0  0  0
  -26.1790  -26.8150   19.6700 C   0  0  0  0  0  3  0  0  0  0  0  0
  -25.0480  -27.6720   19.6300 C   0  0  0  0  0  3  0  0  0  0  0  0
  -23.7990  -29.8250   20.2740 C   0  0  0  0  0  2  0  0  0  0  0  0
  -24.7930  -31.1220   22.1980 N   0  0  0  0  0  0  0  0  0  0  0  0
  -23.5800  -32.2460   23.7730 O   0  0  0  0  0  0  0  0  0  0  0  0
  -22.8470  -29.5350   22.6080 C   0  0  0  0  0  0  0  0  0  0  0  0
  -21.5250  -29.3310   22.4550 N   0  0  0  0  0  0  0  0  0  0  0  0
  -23.5070  -28.9460   23.4670 O   0  0  0  0  0  0  0  0  0  0  0  0
  -21.0430  -29.8570   21.7390 H   0  0  0  0  0  0  0  0  0  0  0  0
  -18.1670  -28.0340   22.9040 C   0  0  0  0  0  0  0  0  0  0  0  0
  -20.7090  -28.3880   23.2280 C   0  0  0  0  0  3  0  0  0  0  0  0
  -20.8690  -26.9450   22.6920 C   0  0  0  0  0  2  0  0  0  0  0  0
  -19.8060  -26.5640   21.6570 C   0  0  0  0  0  2  0  0  0  0  0  0
  -18.4030  -26.6770   22.2610 C   0  0  0  0  0  2  0  0  0  0  0  0
  -19.2480  -28.8430   23.3420 C   0  0  0  0  0  0  0  0  0  0  0  0
  -18.9690  -30.1080   23.9050 C   0  0  0  0  0  3  0  0  0  0  0  0
  -17.6450  -30.5660   24.0310 C   0  0  0  0  0  3  0  0  0  0  0  0
  -16.5780  -29.7550   23.6060 C   0  0  0  0  0  3  0  0  0  0  0  0
  -16.8390  -28.4910   23.0490 C   0  0  0  0  0  3  0  0  0  0  0  0
  -25.9320  -32.6440   23.9140 C   0  0  0  0  0  3  0  0  0  0  0  0
  -25.5880  -34.0460   24.2120 N   0  0  0  0  0  0  0  0  0  0  0  0
  -25.9170  -35.0970   23.4490 C   0  0  0  0  0  0  0  0  0  0  0  0
  -26.6040  -34.9890   22.4300 O   0  0  0  0  0  0  0  0  0  0  0  0
  -24.9790  -34.2010   25.0020 H   0  0  0  0  0  0  0  0  0  0  0  0
  -24.1700  -36.8660   23.0510 C   0  0  0  0  0  1  0  0  0  0  0  0
  -25.4050  -36.4860   23.8820 C   0  0  0  0  0  3  0  0  0  0  0  0
  -27.5150  -37.4170   24.7310 C   0  0  0  0  0  1  0  0  0  0  0  0
  -26.4240  -37.5540   23.7700 N   0  0  0  0  0  0  0  0  0  0  0  0
  -26.0020  -38.4690   23.8990 H   0  0  0  0  0  0  0  0  0  0  0  0
  -26.4230  -31.9150   25.2270 C   0  0  1  0  0  0  0  0  0  0  0  0
  -25.3000  -31.6750   26.2640 C   0  0  0  0  0  1  0  0  0  0  0  0
  -27.0520  -30.5440   24.8950 C   0  0  0  0  0  1  0  0  0  0  0  0
  -27.5320  -32.7530   25.9070 C   0  0  0  0  0  1  0  0  0  0  0  0
  3  1  1  1
  3  2  1  0
  5  8  1  0
  6  4  2  0
  7  5  2  0
  7  6  1  0
  8  4  1  0
  8  3  1  0
 10 11  1  0
 10  6  1  0
 10  9  1  1
 11 17  1  0
 12 17  1  0
 13 14  1  0
 13 12  1  0
 15 14  1  0
 15 22  1  0
 15 16  1  0
 17 16  1  0
 18 11  2  0
 19 20  2  0
 20 39  1  0
 21 20  1  0
 21 24  1  0
 22 23  1  0
 22 19  1  0
 23 21  2  0
 24 25  1  0
 25 26  2  0
 27 30  1  0
 27 26  1  0
 28 27  2  0
 29 28  1  0
 29 24  2  0
 30 31  1  0
 31 36  2  0
 31 32  1  0
 32 33  2  0
 33 34  1  0
 34 38  1  0
 35 34  2  0
 36 35  1  0
 37 36  1  0
 39 40  1  0
 40 43  1  0
 40 42  1  0
 41 39  2  0
 44 45  1  0
 44 19  1  0
 44 46  1  0
 47 10  1  0
 48 47  1  0
 48 51  1  0
 48 49  1  0
 50 48  1  0
 52 57  1  0
 52  3  1  0
 56 53  1  6
 55 56  1  0
 56 54  1  0
 56 52  1  0
 58 69  2  0
 59 57  1  0
 59 64  1  0
 60 68  1  0
 60 70  1  0
 61 67  1  0
 61 63  1  0
 62 68  1  0
 63 64  2  0
 63 62  1  0
 65 59  2  0
 66 65  1  0
 66 61  2  0
 67 60  1  0
 68 58  1  0
 70 72  2  0
 71 70  1  0
 73 71  1  0
 74 83  2  0
 74 79  1  0
 75 71  1  0
 75 79  1  0
 76 75  1  0
 77 78  1  0
 77 76  1  0
 78 74  1  0
 79 80  2  0
 80 81  1  0
 82 81  2  0
 83 82  1  0
 84 58  1  0
 84 85  1  0
 84 94  1  0
 85 88  1  0
 86 90  1  0
 86 85  1  0
 87 86  2  0
 90 89  1  0
 92 90  1  0
 92 93  1  0
 92 91  1  0
 94 97  1  1
 94 95  1  0
 96 94  1  0
M  ISO  4  10 100  11 100  52 101  57 101
M  END
>  <TORSDO>  (54) 
F 22

>  <SCORE>  (54) 
-15.381

>  <name>  (54) 
55

>  <ligand_id>  (54) 
55

>  <original_smiles>  (54) 
[H]c1c([H])c([H])c2c(c1[H])C([H])([H])C([H])([H])C([H])([H])C2([H])N([H])C(=O)C1([H])N(C(=O)C([H])(N([H])C(=O)C([H])(N([H])C([H])([H])[H])C([H])([H])[H])C(C([H])([H])[H])(C([H])([H])[H])C([H])([H])[H])C([H])([H])c2c([H])c(OC([H])(C(n3c([H])nc(C(C(=O)N4C([H])([H])C([H])([H])C([H])([H])C([H])(n5nc(-c6c([H])c([H])c(Oc7c([H])c([H])c(F)c([H])c7F)c([H])c6[H])c(C(=O)N([H])[H])c5N([H])[H])C4([H])[H])(C([H])([H])[H])C([H])([H])[N+]([H])([H])[H])c3[H])(C([H])([H])[H])C([H])([H])[H])C(C([H])([H])[H])(C([H])([H])[H])C([H])([H])[H])c([H])c([H])c2C1([H])[H]

>  <smiles>  (54) 
[H]c1c([H])c([H])c2c(c1[H])C([H])([H])C([H])([H])C([H])([H])C2([H])N([H])C(=O)C1([H])N(C(=O)C([H])(N([H])C(=O)C([H])(N([H])C([H])([H])[H])C([H])([H])[H])C(C([H])([H])[H])(C([H])([H])[H])C([H])([H])[H])C([H])([H])c2c([H])c(OC([H])(C(n3c([H])nc(C(C(=O)N4C([H])([H])C([H])([H])C([H])([H])C([H])(n5nc(-c6c([H])c([H])c(Oc7c([H])c([H])c(F)c([H])c7F)c([H])c6[H])c(C(=O)N([H])[H])c5N([H])[H])C4([H])[H])(C([H])([H])[H])C([H])([H])[N+]([H])([H])[H])c3[H])(C([H])([H])[H])C([H])([H])[H])C(C([H])([H])[H])(C([H])([H])[H])C([H])([H])[H])c([H])c([H])c2C1([H])[H]

$$$$
56:0:0
     RDKit          3D

 96104  0  0  1  0  0  0  0  0999 V2000
  -27.4070  -21.6400   20.7300 C   0  0  0  0  0  1  0  0  0  0  0  0
  -29.4670  -21.4780   22.0680 C   0  0  0  0  0  1  0  0  0  0  0  0
  -28.9480  -21.7570   20.6430 C   0  0  1  0  0  0  0  0  0  0  0  0
  -29.2600  -19.6020   17.7860 C   0  0  0  0  0  0  0  0  0  0  0  0
  -29.8370  -19.1090   19.7540 C   0  0  0  0  0  3  0  0  0  0  0  0
  -29.7870  -18.5940   18.5250 N   0  0  0  0  0  0  0  0  0  0  0  0
  -28.9980  -20.7140   18.4580 N   0  0  0  0  0  2  0  0  0  0  0  0
  -29.3950  -20.5010   19.7440 N   0  0  0  0  0  0  0  0  0  0  0  0
  -28.8860  -19.4590   16.3280 C   0  0  1  0  0  0  0  0  0  0  0  0
  -27.5640  -19.3100   16.2140 F   0  0  0  0  0  0  0  0  0  0  0  0
  -29.2540  -20.5430   15.6410 F   0  0  0  0  0  0  0  0  0  0  0  0
  -29.4800  -18.3940   15.7840 F   0  0  0  0  0  0  0  0  0  0  0  0
  -30.4240  -17.9800   20.7730 C   0  0  0  0  0  2  0  0  0  0  0  0
  -30.7030  -15.2140   20.3900 C   0  0  0  0  0  0  0  0  0  0  0  0
  -30.6170  -12.9050   19.2850 C   0  0  0  0  0  2  0  0  0  0  0  0
  -29.6570  -12.8610   18.0690 C   0  0  0  0  0  2  0  0  0  0  0  0
  -28.1950  -12.6080   18.4980 C   0  0  0  0  0  2  0  0  0  0  0  0
  -27.8000  -13.4600   19.7300 C   0  0  0  0  0  3  0  0  0  0  0  0
  -28.8840  -13.3690   20.8310 C   0  0  0  0  0  2  0  0  0  0  0  0
  -30.1100  -13.9400   20.2430 N   0  0  0  0  0  0  0  0  0  0  0  0
  -31.9090  -15.2520   20.1140 O   0  0  0  0  0  0  0  0  0  0  0  0
  -28.5390  -16.5080   20.9290 C   0  0  0  0  0  1  0  0  0  0  0  0
  -29.9760  -16.4510   20.6410 N   0  0  0  0  0  0  0  0  0  0  0  0
  -25.4060  -14.0300   20.4460 C   0  0  0  0  0  0  0  0  0  0  0  0
  -24.3480  -13.2480   20.8130 C   0  0  0  0  0  0  0  0  0  0  0  0
  -24.8260  -11.9030   20.7870 C   0  0  0  0  0  0  0  0  0  0  0  0
  -26.4620  -13.1600   20.2200 N   0  0  0  0  0  0  0  0  0  0  0  0
  -26.1190  -11.8750   20.4850 N   0  0  0  0  0  0  0  0  0  0  0  0
  -24.1100  -10.6390   20.9740 C   0  0  0  0  0  0  0  0  0  0  0  0
  -24.5360   -9.6800   21.9180 C   0  0  0  0  0  3  0  0  0  0  0  0
  -23.8150   -8.4790   22.0900 C   0  0  0  0  0  3  0  0  0  0  0  0
  -22.6570   -8.2300   21.3160 C   0  0  0  0  0  0  0  0  0  0  0  0
  -22.2530   -9.1780   20.3590 C   0  0  0  0  0  3  0  0  0  0  0  0
  -22.9730  -10.3710   20.1850 C   0  0  0  0  0  3  0  0  0  0  0  0
  -21.9110   -7.0810   21.3980 O   0  0  0  0  0  0  0  0  0  0  0  0
  -21.8300   -6.3570   22.5610 C   0  0  0  0  0  0  0  0  0  0  0  0
  -21.3530   -6.9240   23.7630 C   0  0  0  0  0  3  0  0  0  0  0  0
  -21.2310   -6.1260   24.9170 C   0  0  0  0  0  3  0  0  0  0  0  0
  -21.5670   -4.7600   24.8700 C   0  0  0  0  0  0  0  0  0  0  0  0
  -22.0330   -4.1920   23.6720 C   0  0  0  0  0  3  0  0  0  0  0  0
  -22.1620   -4.9880   22.5200 C   0  0  0  0  0  0  0  0  0  0  0  0
  -22.5930   -4.4290   21.3640 F   0  0  0  0  0  0  0  0  0  0  0  0
  -21.4400   -3.9920   25.9770 F   0  0  0  0  0  0  0  0  0  0  0  0
  -22.9450  -13.7180   21.0690 C   0  0  0  0  0  0  0  0  0  0  0  0
  -22.2210  -13.0300   21.9470 N   0  0  0  0  0  0  0  0  0  0  0  0
  -22.5010  -14.7290   20.5310 O   0  0  0  0  0  0  0  0  0  0  0  0
  -22.5910  -12.2090   22.4010 H   0  0  0  0  0  0  0  0  0  0  0  0
  -21.2810  -13.3310   22.1660 H   0  0  0  0  0  0  0  0  0  0  0  0
  -25.5410  -15.4000   20.2610 N   0  0  0  0  0  0  0  0  0  0  0  0
  -24.7570  -16.0360   20.3750 H   0  0  0  0  0  0  0  0  0  0  0  0
  -26.3850  -15.8650   19.9580 H   0  0  0  0  0  0  0  0  0  0  0  0
  -30.6130  -23.8210   20.7170 C   0  0  0  0  0  1  0  0  0  0  0  0
  -29.2630  -23.6100   18.6750 C   0  0  0  0  0  1  0  0  0  0  0  0
  -29.2080  -23.4360   20.2060 C   0  0  1  0  0  0  0  0  0  0  0  0
  -28.2080  -24.7400   20.6810 C   0  0  0  0  0  2  0  0  0  0  0  0
  -28.4230  -26.2790   20.4390 O   0  0  0  0  0  0  0  0  0  0  0  0
  -24.6460  -31.9860   23.2460 C   0  0  0  0  0  0  0  0  0  0  0  0
  -27.3430  -27.2400   20.3680 C   0  0  0  0  0  0  0  0  0  0  0  0
  -23.4940  -30.5420   21.6140 C   0  0  0  0  0  3  0  0  0  0  0  0
  -24.9890  -28.9560   20.2490 C   0  0  0  0  0  0  0  0  0  0  0  0
  -26.0470  -30.8390   21.4880 C   0  0  0  0  0  2  0  0  0  0  0  0
  -26.1520  -29.4330   20.8670 C   0  0  0  0  0  0  0  0  0  0  0  0
  -27.3300  -28.5940   20.9040 C   0  0  0  0  0  3  0  0  0  0  0  0
  -26.1560  -26.8690   19.7000 C   0  0  0  0  0  3  0  0  0  0  0  0
  -25.0050  -27.6880   19.6470 C   0  0  0  0  0  3  0  0  0  0  0  0
  -23.7500  -29.8380   20.2530 C   0  0  0  0  0  2  0  0  0  0  0  0
  -24.7470  -31.1470   22.1700 N   0  0  0  0  0  0  0  0  0  0  0  0
  -23.5470  -32.2660   23.7510 O   0  0  0  0  0  0  0  0  0  0  0  0
  -22.8120  -29.5460   22.5850 C   0  0  0  0  0  0  0  0  0  0  0  0
  -21.4880  -29.3590   22.4420 N   0  0  0  0  0  0  0  0  0  0  0  0
  -23.4760  -28.9430   23.4300 O   0  0  0  0  0  0  0  0  0  0  0  0
  -21.0050  -29.8950   21.7330 H   0  0  0  0  0  0  0  0  0  0  0  0
  -18.1110  -28.1340   22.9250 C   0  0  0  0  0  0  0  0  0  0  0  0
  -20.6650  -28.4270   23.2190 C   0  0  0  0  0  3  0  0  0  0  0  0
  -20.7880  -26.9870   22.6680 C   0  0  0  0  0  2  0  0  0  0  0  0
  -19.7020  -26.6360   21.6460 C   0  0  0  0  0  2  0  0  0  0  0  0
  -18.3110  -26.7760   22.2710 C   0  0  0  0  0  2  0  0  0  0  0  0
  -19.2170  -28.9150   23.3560 C   0  0  0  0  0  0  0  0  0  0  0  0
  -18.9780  -30.1820   23.9290 C   0  0  0  0  0  3  0  0  0  0  0  0
  -17.6660  -30.6700   24.0760 C   0  0  0  0  0  3  0  0  0  0  0  0
  -16.5750  -29.8870   23.6610 C   0  0  0  0  0  3  0  0  0  0  0  0
  -16.7980  -28.6210   23.0910 C   0  0  0  0  0  3  0  0  0  0  0  0
  -25.9030  -32.6540   23.8810 C   0  0  0  0  0  3  0  0  0  0  0  0
  -25.5640  -34.0520   24.1870 N   0  0  0  0  0  0  0  0  0  0  0  0
  -25.8900  -35.1030   23.4230 C   0  0  0  0  0  0  0  0  0  0  0  0
  -26.5730  -34.9990   22.4020 O   0  0  0  0  0  0  0  0  0  0  0  0
  -24.9560  -34.2050   24.9780 H   0  0  0  0  0  0  0  0  0  0  0  0
  -24.1360  -36.8660   23.0380 C   0  0  0  0  0  1  0  0  0  0  0  0
  -25.3790  -36.4910   23.8600 C   0  0  0  0  0  3  0  0  0  0  0  0
  -27.4950  -37.4220   24.6900 C   0  0  0  0  0  1  0  0  0  0  0  0
  -26.3950  -37.5600   23.7390 N   0  0  0  0  0  0  0  0  0  0  0  0
  -25.9720  -38.4750   23.8730 H   0  0  0  0  0  0  0  0  0  0  0  0
  -26.4040  -31.9140   25.1820 C   0  0  1  0  0  0  0  0  0  0  0  0
  -25.2900  -31.6630   26.2250 C   0  0  0  0  0  1  0  0  0  0  0  0
  -27.0340  -30.5470   24.8320 C   0  0  0  0  0  1  0  0  0  0  0  0
  -27.5170  -32.7470   25.8620 C   0  0  0  0  0  1  0  0  0  0  0  0
  3  1  1  1
  3  2  1  0
  4  7  1  0
  4  6  2  0
  5 13  1  0
  6  5  1  0
  7  8  1  0
  8  5  1  0
  8  3  1  0
  9  4  1  0
  9 10  1  1
 11  9  1  0
 12  9  1  0
 14 23  1  0
 15 20  1  0
 16 17  1  0
 16 15  1  0
 18 17  1  0
 18 27  1  0
 18 19  1  0
 20 14  1  0
 20 19  1  0
 21 14  2  0
 23 13  1  0
 23 22  1  0
 24 25  2  0
 25 44  1  0
 26 25  1  0
 26 29  1  0
 27 24  1  0
 27 28  1  0
 28 26  2  0
 29 30  1  0
 30 31  2  0
 32 35  1  0
 32 31  1  0
 33 32  2  0
 34 33  1  0
 34 29  2  0
 35 36  1  0
 36 37  1  0
 37 38  2  0
 39 38  1  0
 39 43  1  0
 40 39  2  0
 41 36  2  0
 41 40  1  0
 42 41  1  0
 44 45  1  0
 45 48  1  0
 45 47  1  0
 46 44  2  0
 49 50  1  0
 49 24  1  0
 51 49  1  0
 54 53  1  6
 54  3  1  0
 54 55  1  0
 54 52  1  0
 56 55  1  0
 57 68  2  0
 58 56  1  0
 58 63  1  0
 59 67  1  0
 59 69  1  0
 60 66  1  0
 60 62  1  0
 61 67  1  0
 62 63  2  0
 62 61  1  0
 64 58  2  0
 65 64  1  0
 65 60  2  0
 66 59  1  0
 67 57  1  0
 69 71  2  0
 70 69  1  0
 72 70  1  0
 73 82  2  0
 73 78  1  0
 74 70  1  0
 74 78  1  0
 75 74  1  0
 76 77  1  0
 76 75  1  0
 77 73  1  0
 78 79  2  0
 79 80  1  0
 81 80  2  0
 82 81  1  0
 83 57  1  0
 83 84  1  0
 83 93  1  0
 84 87  1  0
 85 89  1  0
 85 84  1  0
 86 85  2  0
 89 88  1  0
 91 89  1  0
 91 92  1  0
 91 90  1  0
 93 96  1  1
 93 94  1  0
 95 93  1  0
M  ISO  4  14 100  23 100  55 101  56 101
M  END
>  <TORSDO>  (55) 
F 21

>  <SCORE>  (55) 
-14.718

>  <name>  (55) 
56

>  <ligand_id>  (55) 
56

>  <original_smiles>  (55) 
[H]c1c([H])c([H])c2c(c1[H])C([H])([H])C([H])([H])C([H])([H])C2([H])N([H])C(=O)C1([H])N(C(=O)C([H])(N([H])C(=O)C([H])(N([H])C([H])([H])[H])C([H])([H])[H])C(C([H])([H])[H])(C([H])([H])[H])C([H])([H])[H])C([H])([H])c2c([H])c(OC([H])([H])C(C([H])([H])[H])(C([H])([H])[H])C(n3nc(C(F)(F)F)nc3C([H])([H])N(C(=O)N3C([H])([H])C([H])([H])C([H])([H])C([H])(n4nc(-c5c([H])c([H])c(Oc6c([H])c([H])c(F)c([H])c6F)c([H])c5[H])c(C(=O)N([H])[H])c4N([H])[H])C3([H])[H])C([H])([H])[H])(C([H])([H])[H])C([H])([H])[H])c([H])c([H])c2C1([H])[H]

>  <smiles>  (55) 
[H]c1c([H])c([H])c2c(c1[H])C([H])([H])C([H])([H])C([H])([H])C2([H])N([H])C(=O)C1([H])N(C(=O)C([H])(N([H])C(=O)C([H])(N([H])C([H])([H])[H])C([H])([H])[H])C(C([H])([H])[H])(C([H])([H])[H])C([H])([H])[H])C([H])([H])c2c([H])c(OC([H])([H])C(C([H])([H])[H])(C([H])([H])[H])C(n3nc(C(F)(F)F)nc3C([H])([H])N(C(=O)N3C([H])([H])C([H])([H])C([H])([H])C([H])(n4nc(-c5c([H])c([H])c(Oc6c([H])c([H])c(F)c([H])c6F)c([H])c5[H])c(C(=O)N([H])[H])c4N([H])[H])C3([H])[H])C([H])([H])[H])(C([H])([H])[H])C([H])([H])[H])c([H])c([H])c2C1([H])[H]

$$$$
57:0:0
     RDKit          3D

 98107  0  0  1  0  0  0  0  0999 V2000
  -28.2040  -17.8170   21.5600 C   0  0  0  0  0  3  0  0  0  0  0  0
  -27.9540  -16.7280   20.6340 C   0  0  0  0  0  0  0  0  0  0  0  0
  -29.0000  -19.4950   19.9510 C   0  0  0  0  0  0  0  0  0  0  0  0
  -28.7580  -18.4080   18.9960 C   0  0  0  0  0  0  0  0  0  0  0  0
  -28.6750  -19.1100   21.2420 N   0  0  0  0  0  0  0  0  0  0  0  0
  -28.2480  -17.1500   19.3530 N   0  0  0  0  0  0  0  0  0  0  0  0
  -30.4550  -18.7740   17.1240 C   0  0  0  0  0  1  0  0  0  0  0  0
  -28.0240  -19.6120   16.8430 C   0  0  0  0  0  1  0  0  0  0  0  0
  -28.6020  -17.2450   16.6780 C   0  0  0  0  0  1  0  0  0  0  0  0
  -28.9630  -18.5450   17.4550 C   0  0  2  0  0  0  0  0  0  0  0  0
  -29.2490  -21.1120   19.5280 C   0  0  0  0  0  2  0  0  0  0  0  0
  -30.3130  -22.3600   19.9840 C   0  0  0  0  0  3  0  0  0  0  0  0
  -30.0060  -24.0110   19.6460 C   0  0  0  0  0  3  0  0  0  0  0  0
  -30.5180  -25.4070   20.2150 O   0  0  0  0  0  0  0  0  0  0  0  0
  -26.1650  -29.7470   24.2180 C   0  0  0  0  0  0  0  0  0  0  0  0
  -29.5780  -26.5010   20.2730 C   0  0  0  0  0  0  0  0  0  0  0  0
  -25.4150  -29.0300   21.9900 C   0  0  0  0  0  3  0  0  0  0  0  0
  -27.2300  -28.1810   20.3940 C   0  0  0  0  0  0  0  0  0  0  0  0
  -27.9230  -29.4020   22.4410 C   0  0  0  0  0  2  0  0  0  0  0  0
  -28.2350  -28.3580   21.3540 C   0  0  0  0  0  0  0  0  0  0  0  0
  -29.4250  -27.5350   21.2890 C   0  0  0  0  0  3  0  0  0  0  0  0
  -28.5970  -26.5170   19.2660 C   0  0  0  0  0  3  0  0  0  0  0  0
  -27.4330  -27.2950   19.3350 C   0  0  0  0  0  3  0  0  0  0  0  0
  -25.9330  -28.9550   20.5320 C   0  0  0  0  0  2  0  0  0  0  0  0
  -26.5100  -29.3970   22.9440 N   0  0  0  0  0  0  0  0  0  0  0  0
  -24.9810  -29.7740   24.5870 O   0  0  0  0  0  0  0  0  0  0  0  0
  -24.7040  -27.7020   22.3590 C   0  0  0  0  0  0  0  0  0  0  0  0
  -23.4440  -27.5370   21.9180 N   0  0  0  0  0  0  0  0  0  0  0  0
  -25.2940  -26.8390   23.0150 O   0  0  0  0  0  0  0  0  0  0  0  0
  -23.0240  -28.2940   21.3960 H   0  0  0  0  0  0  0  0  0  0  0  0
  -20.1730  -26.1130   21.2920 C   0  0  0  0  0  0  0  0  0  0  0  0
  -22.6100  -26.3500   22.1230 C   0  0  0  0  0  3  0  0  0  0  0  0
  -22.9560  -25.2420   21.1020 C   0  0  0  0  0  2  0  0  0  0  0  0
  -22.0760  -25.2820   19.8470 C   0  0  0  0  0  2  0  0  0  0  0  0
  -20.5990  -25.1240   20.2200 C   0  0  0  0  0  2  0  0  0  0  0  0
  -21.1170  -26.7000   22.1760 C   0  0  0  0  0  0  0  0  0  0  0  0
  -20.6680  -27.6370   23.1320 C   0  0  0  0  0  3  0  0  0  0  0  0
  -19.3070  -27.9870   23.2130 C   0  0  0  0  0  3  0  0  0  0  0  0
  -18.3750  -27.3920   22.3460 C   0  0  0  0  0  3  0  0  0  0  0  0
  -18.8070  -26.4540   21.3910 C   0  0  0  0  0  3  0  0  0  0  0  0
  -27.2420  -30.1530   25.2680 C   0  0  0  0  0  3  0  0  0  0  0  0
  -26.8310  -31.4380   25.8540 N   0  0  0  0  0  0  0  0  0  0  0  0
  -27.3550  -32.6290   25.5360 C   0  0  0  0  0  0  0  0  0  0  0  0
  -28.2990  -32.7510   24.7500 O   0  0  0  0  0  0  0  0  0  0  0  0
  -26.0260  -31.4170   26.4630 H   0  0  0  0  0  0  0  0  0  0  0  0
  -25.8490  -34.6120   25.1780 C   0  0  0  0  0  1  0  0  0  0  0  0
  -26.7410  -33.8800   26.1930 C   0  0  0  0  0  3  0  0  0  0  0  0
  -28.4590  -34.2940   27.8990 C   0  0  0  0  0  1  0  0  0  0  0  0
  -27.7490  -34.8180   26.7350 N   0  0  0  0  0  0  0  0  0  0  0  0
  -27.3190  -35.7000   26.9980 H   0  0  0  0  0  0  0  0  0  0  0  0
  -27.4380  -29.0720   26.4000 C   0  0  1  0  0  0  0  0  0  0  0  0
  -26.1230  -28.6590   27.1020 C   0  0  0  0  0  1  0  0  0  0  0  0
  -28.0860  -27.7880   25.8310 C   0  0  0  0  0  1  0  0  0  0  0  0
  -28.4090  -29.6120   27.4760 C   0  0  0  0  0  1  0  0  0  0  0  0
  -27.0790  -15.2810   20.9450 C   0  0  0  0  0  3  0  0  0  0  0  0
  -24.6970  -14.9600   21.6580 C   0  0  0  0  0  1  0  0  0  0  0  0
  -25.1700  -16.7830   20.1190 C   0  0  0  0  0  1  0  0  0  0  0  0
  -25.6180  -15.4450   20.5970 N   0  0  1  0  0  4  0  0  0  0  0  0
  -25.4780  -14.8410   19.8000 H   0  0  0  0  0  0  0  0  0  0  0  0
  -27.5730  -13.5460   20.9180 C   0  0  0  0  0  3  0  0  0  0  0  0
  -30.7280  -13.9850   20.9150 C   0  0  0  0  0  0  0  0  0  0  0  0
  -32.2110  -11.8600   20.9740 C   0  0  0  0  0  2  0  0  0  0  0  0
  -31.8310  -10.8950   19.7710 C   0  0  0  0  0  2  0  0  0  0  0  0
  -30.3430  -10.4760   19.6250 C   0  0  0  0  0  2  0  0  0  0  0  0
  -29.6570  -11.7200   19.9620 C   0  0  0  0  0  3  0  0  0  0  0  0
  -30.0240  -11.9490   21.5000 C   0  0  0  0  0  2  0  0  0  0  0  0
  -31.0970  -12.7650   21.3500 N   0  0  0  0  0  0  0  0  0  0  0  0
  -31.7430  -14.6590   20.5640 O   0  0  0  0  0  0  0  0  0  0  0  0
  -29.2200  -14.2150   20.8080 N   0  0  0  0  0  0  0  0  0  0  0  0
  -29.1480  -15.1580   20.4630 H   0  0  0  0  0  0  0  0  0  0  0  0
  -26.9340  -12.9040   19.2730 C   0  0  2  0  0  0  0  0  0  0  0  0
  -25.5630  -12.5280   20.2700 C   0  0  0  0  0  3  0  0  0  0  0  0
  -25.9650  -11.2050   21.4040 C   0  0  0  0  0  3  0  0  0  0  0  0
  -28.3320  -11.7480   19.8760 N   0  0  0  0  0  0  0  0  0  0  0  0
  -27.5890  -10.8010   21.2380 N   0  0  0  0  0  2  0  0  0  0  0  0
  -25.1980   -9.8410   21.4350 C   0  0  0  0  0  0  0  0  0  0  0  0
  -25.0920   -9.1490   22.6600 C   0  0  0  0  0  3  0  0  0  0  0  0
  -24.3530   -7.9480   22.8130 C   0  0  0  0  0  3  0  0  0  0  0  0
  -23.6960   -7.3360   21.7230 C   0  0  0  0  0  0  0  0  0  0  0  0
  -23.9080   -7.9110   20.4480 C   0  0  0  0  0  3  0  0  0  0  0  0
  -24.6600   -9.1190   20.3060 C   0  0  0  0  0  3  0  0  0  0  0  0
  -22.9050   -6.2030   21.8580 O   0  0  0  0  0  0  0  0  0  0  0  0
  -21.9980   -6.0700   22.8970 C   0  0  0  0  0  0  0  0  0  0  0  0
  -21.0560   -7.0810   23.1960 C   0  0  0  0  0  3  0  0  0  0  0  0
  -20.1240   -6.9050   24.2420 C   0  0  0  0  0  3  0  0  0  0  0  0
  -20.1190   -5.7130   24.9900 C   0  0  0  0  0  0  0  0  0  0  0  0
  -21.0410   -4.6950   24.6900 C   0  0  0  0  0  3  0  0  0  0  0  0
  -21.9710   -4.8700   23.6470 C   0  0  0  0  0  0  0  0  0  0  0  0
  -22.8390   -3.8710   23.3590 F   0  0  0  0  0  0  0  0  0  0  0  0
  -19.2280   -5.5420   25.9970 F   0  0  0  0  0  0  0  0  0  0  0  0
  -24.1580  -12.6230   19.7660 C   0  0  0  0  0  0  0  0  0  0  0  0
  -23.1910  -12.1230   20.5300 N   0  0  0  0  0  0  0  0  0  0  0  0
  -23.9200  -13.1730   18.7020 O   0  0  0  0  0  0  0  0  0  0  0  0
  -23.3720  -11.6740   21.4140 H   0  0  0  0  0  0  0  0  0  0  0  0
  -22.2340  -12.1890   20.2120 H   0  0  0  0  0  0  0  0  0  0  0  0
  -27.2000  -13.9140   18.4420 N   0  0  0  0  0  0  0  0  0  0  0  0
  -26.6480  -14.7660   18.3870 H   0  0  0  0  0  0  0  0  0  0  0  0
  -28.1310  -14.0520   18.0650 H   0  0  0  0  0  0  0  0  0  0  0  0
  2 55  1  0
  2  1  2  0
  3  5  2  0
  4  6  2  0
  4  3  1  0
  5  1  1  0
  6  2  1  0
 10  7  1  1
  8 10  1  0
  9 10  1  0
 10  4  1  0
 11  3  1  0
 11 12  1  0
 13 12  2  0
 13 14  1  0
 14 16  1  0
 15 26  2  0
 16 21  1  0
 17 27  1  0
 17 25  1  0
 18 24  1  0
 18 20  1  0
 19 25  1  0
 20 19  1  0
 21 20  2  0
 22 23  1  0
 22 16  2  0
 23 18  2  0
 24 17  1  0
 25 15  1  0
 27 29  2  0
 28 27  1  0
 30 28  1  0
 31 40  2  0
 31 36  1  0
 32 28  1  0
 32 36  1  0
 33 32  1  0
 34 35  1  0
 34 33  1  0
 35 31  1  0
 36 37  2  0
 37 38  1  0
 39 38  2  0
 40 39  1  0
 41 15  1  0
 41 42  1  0
 41 51  1  0
 42 45  1  0
 43 42  1  0
 43 47  1  0
 44 43  2  0
 47 46  1  0
 47 49  1  0
 49 50  1  0
 49 48  1  0
 51 52  1  1
 51 54  1  0
 53 51  1  0
 55 58  1  0
 57 58  1  0
 58 56  1  0
 58 59  1  6
 60 55  1  0
 61 67  1  0
 62 67  1  0
 63 62  1  0
 64 63  1  0
 65 64  1  0
 65 66  1  0
 67 66  1  0
 68 61  2  0
 69 61  1  0
 69 60  1  0
 70 69  1  0
 71 96  1  1
 71 74  1  0
 71 72  1  0
 71 60  1  0
 72 91  1  0
 72 73  1  0
 73 76  1  0
 74 65  1  0
 74 75  1  0
 75 73  1  0
 76 77  1  0
 77 78  2  0
 79 82  1  0
 79 78  1  0
 80 79  2  0
 81 80  1  0
 81 76  2  0
 82 83  1  0
 83 84  2  0
 83 88  1  0
 84 85  1  0
 85 86  2  0
 86 90  1  0
 87 86  1  0
 88 87  2  0
 89 88  1  0
 91 92  1  0
 92 94  1  0
 93 91  2  0
 95 92  1  0
 97 96  1  0
 98 96  1  0
M  ISO  4  13 101  14 101  61 100  69 100
M  END
>  <TORSDO>  (56) 
F 23

>  <SCORE>  (56) 
-1.967

>  <name>  (56) 
57

>  <ligand_id>  (56) 
57

>  <original_smiles>  (56) 
[H]c1nc(C([H])([H])C([H])([H])C([H])([H])Oc2c([H])c([H])c3c(c2[H])C([H])([H])N(C(=O)C([H])(N([H])C(=O)C([H])(N([H])C([H])([H])[H])C([H])([H])[H])C(C([H])([H])[H])(C([H])([H])[H])C([H])([H])[H])C([H])(C(=O)N([H])C2([H])c4c([H])c([H])c([H])c([H])c4C([H])([H])C([H])([H])C2([H])[H])C3([H])[H])c(C(C([H])([H])[H])(C([H])([H])[H])C([H])([H])[H])nc1C([H])(C([H])([H])N([H])C(=O)N1C([H])([H])C([H])([H])C([H])([H])C([H])(n2nc(-c3c([H])c([H])c(Oc4c([H])c([H])c(F)c([H])c4F)c([H])c3[H])c(C(=O)N([H])[H])c2N([H])[H])C1([H])[H])[N+]([H])(C([H])([H])[H])C([H])([H])[H]

>  <smiles>  (56) 
[H]c1nc(C([H])([H])C([H])([H])C([H])([H])Oc2c([H])c([H])c3c(c2[H])C([H])([H])N(C(=O)C([H])(N([H])C(=O)C([H])(N([H])C([H])([H])[H])C([H])([H])[H])C(C([H])([H])[H])(C([H])([H])[H])C([H])([H])[H])C([H])(C(=O)N([H])C2([H])c4c([H])c([H])c([H])c([H])c4C([H])([H])C([H])([H])C2([H])[H])C3([H])[H])c(C(C([H])([H])[H])(C([H])([H])[H])C([H])([H])[H])nc1C([H])(C([H])([H])N([H])C(=O)N1C([H])([H])C([H])([H])C([H])([H])C([H])(n2nc(-c3c([H])c([H])c(Oc4c([H])c([H])c(F)c([H])c4F)c([H])c3[H])c(C(=O)N([H])[H])c2N([H])[H])C1([H])[H])[N+]([H])(C([H])([H])[H])C([H])([H])[H]

$$$$
58:0:0
     RDKit          3D

 91 99  0  0  1  0  0  0  0  0999 V2000
  -29.1650  -19.8960   20.0120 C   0  0  0  0  0  0  0  0  0  0  0  0
  -27.9840  -19.3110   19.8010 N   0  0  0  0  0  0  0  0  0  0  0  0
  -27.0490  -20.2920   19.6610 N   0  0  0  0  0  0  0  0  0  0  0  0
  -27.5610  -21.4710   19.7600 N   0  0  0  0  0  0  0  0  0  0  0  0
  -28.9000  -21.3840   19.9890 N   0  0  0  0  0  0  0  0  0  0  0  0
  -31.0740  -18.9800   21.5320 C   0  0  0  0  0  1  0  0  0  0  0  0
  -30.3480  -18.6680   20.2070 C   0  0  2  0  0  0  0  0  0  0  0  0
  -31.3450  -18.8260   19.0340 C   0  0  1  0  0  0  0  0  0  0  0  0
  -31.7150  -20.1010   18.9080 F   0  0  0  0  0  0  0  0  0  0  0  0
  -32.4460  -18.0950   19.2180 F   0  0  0  0  0  0  0  0  0  0  0  0
  -30.7740  -18.4400   17.8920 F   0  0  0  0  0  0  0  0  0  0  0  0
  -29.9490  -16.9150   20.3070 C   0  0  0  0  0  2  0  0  0  0  0  0
  -30.8210  -15.4070   20.1520 C   0  0  0  0  0  0  0  0  0  0  0  0
  -30.8130  -12.9480   19.3210 C   0  0  0  0  0  2  0  0  0  0  0  0
  -29.8780  -12.7460   18.0990 C   0  0  0  0  0  2  0  0  0  0  0  0
  -28.4330  -12.4780   18.5580 C   0  0  0  0  0  2  0  0  0  0  0  0
  -27.9910  -13.4600   19.6700 C   0  0  0  0  0  3  0  0  0  0  0  0
  -29.0490  -13.6100   20.7840 C   0  0  0  0  0  2  0  0  0  0  0  0
  -30.2910  -14.0890   20.1550 N   0  0  0  0  0  0  0  0  0  0  0  0
  -32.0310  -15.4190   19.8880 O   0  0  0  0  0  0  0  0  0  0  0  0
  -25.6430  -14.0280   20.4880 C   0  0  0  0  0  0  0  0  0  0  0  0
  -24.5760  -13.2530   20.8530 C   0  0  0  0  0  0  0  0  0  0  0  0
  -25.0260  -11.8990   20.7770 C   0  0  0  0  0  0  0  0  0  0  0  0
  -26.6680  -13.1460   20.1970 N   0  0  0  0  0  0  0  0  0  0  0  0
  -26.3120  -11.8590   20.4420 N   0  0  0  0  0  0  0  0  0  0  0  0
  -24.2900  -10.6400   20.9480 C   0  0  0  0  0  0  0  0  0  0  0  0
  -24.6750   -9.6800   21.9100 C   0  0  0  0  0  3  0  0  0  0  0  0
  -23.9360   -8.4870   22.0680 C   0  0  0  0  0  3  0  0  0  0  0  0
  -22.7960   -8.2480   21.2610 C   0  0  0  0  0  0  0  0  0  0  0  0
  -22.4310   -9.1950   20.2890 C   0  0  0  0  0  3  0  0  0  0  0  0
  -23.1710  -10.3780   20.1310 C   0  0  0  0  0  3  0  0  0  0  0  0
  -22.0330   -7.1070   21.3280 O   0  0  0  0  0  0  0  0  0  0  0  0
  -21.8510   -6.4290   22.5070 C   0  0  0  0  0  0  0  0  0  0  0  0
  -21.1980   -7.0150   23.6110 C   0  0  0  0  0  3  0  0  0  0  0  0
  -20.9700   -6.2590   24.7780 C   0  0  0  0  0  3  0  0  0  0  0  0
  -21.3890   -4.9170   24.8400 C   0  0  0  0  0  0  0  0  0  0  0  0
  -22.0360   -4.3280   23.7390 C   0  0  0  0  0  3  0  0  0  0  0  0
  -22.2640   -5.0820   22.5750 C   0  0  0  0  0  0  0  0  0  0  0  0
  -22.8690   -4.5050   21.5080 F   0  0  0  0  0  0  0  0  0  0  0  0
  -21.1650   -4.1860   25.9570 F   0  0  0  0  0  0  0  0  0  0  0  0
  -23.1900  -13.7380   21.1610 C   0  0  0  0  0  0  0  0  0  0  0  0
  -22.4750  -13.0340   22.0310 N   0  0  0  0  0  0  0  0  0  0  0  0
  -22.7510  -14.7750   20.6650 O   0  0  0  0  0  0  0  0  0  0  0  0
  -22.8420  -12.1930   22.4490 H   0  0  0  0  0  0  0  0  0  0  0  0
  -21.5460  -13.3420   22.2840 H   0  0  0  0  0  0  0  0  0  0  0  0
  -25.8220  -15.4010   20.3520 N   0  0  0  0  0  0  0  0  0  0  0  0
  -25.0770  -16.0680   20.5260 H   0  0  0  0  0  0  0  0  0  0  0  0
  -26.6870  -15.8440   20.0670 H   0  0  0  0  0  0  0  0  0  0  0  0
  -29.4120  -22.9500   20.1420 C   0  0  0  0  0  3  0  0  0  0  0  0
  -28.4160  -24.4390   19.9620 C   0  0  0  0  0  3  0  0  0  0  0  0
  -28.6180  -26.0520   20.2030 O   0  0  0  0  0  0  0  0  0  0  0  0
  -24.7880  -31.7520   23.3160 C   0  0  0  0  0  0  0  0  0  0  0  0
  -27.5750  -27.1090   20.1590 C   0  0  0  0  0  0  0  0  0  0  0  0
  -23.6950  -30.4390   21.5420 C   0  0  0  0  0  3  0  0  0  0  0  0
  -25.2390  -28.9360   20.1090 C   0  0  0  0  0  0  0  0  0  0  0  0
  -26.2610  -30.6960   21.5330 C   0  0  0  0  0  2  0  0  0  0  0  0
  -26.3890  -29.3290   20.8060 C   0  0  0  0  0  0  0  0  0  0  0  0
  -27.5510  -28.4390   20.8060 C   0  0  0  0  0  3  0  0  0  0  0  0
  -26.3910  -26.8600   19.4280 C   0  0  0  0  0  3  0  0  0  0  0  0
  -25.2630  -27.7210   19.4060 C   0  0  0  0  0  3  0  0  0  0  0  0
  -24.0040  -29.8340   20.1440 C   0  0  0  0  0  2  0  0  0  0  0  0
  -24.9320  -30.9860   22.1860 N   0  0  0  0  0  0  0  0  0  0  0  0
  -23.6710  -31.9980   23.7980 O   0  0  0  0  0  0  0  0  0  0  0  0
  -22.9710  -29.3800   22.4150 C   0  0  0  0  0  0  0  0  0  0  0  0
  -21.6500  -29.2120   22.2200 N   0  0  0  0  0  0  0  0  0  0  0  0
  -23.6050  -28.7130   23.2370 O   0  0  0  0  0  0  0  0  0  0  0  0
  -21.1950  -29.7970   21.5340 H   0  0  0  0  0  0  0  0  0  0  0  0
  -18.2480  -28.0070   22.5770 C   0  0  0  0  0  0  0  0  0  0  0  0
  -20.8050  -28.2230   22.8990 C   0  0  0  0  0  3  0  0  0  0  0  0
  -20.9030  -26.8420   22.2090 C   0  0  0  0  0  2  0  0  0  0  0  0
  -19.8130  -26.6170   21.1560 C   0  0  0  0  0  2  0  0  0  0  0  0
  -18.4230  -26.7210   21.7890 C   0  0  0  0  0  2  0  0  0  0  0  0
  -19.3670  -28.7210   23.0860 C   0  0  0  0  0  0  0  0  0  0  0  0
  -19.1500  -29.9250   23.7880 C   0  0  0  0  0  3  0  0  0  0  0  0
  -17.8480  -30.4230   23.9810 C   0  0  0  0  0  3  0  0  0  0  0  0
  -16.7430  -29.7070   23.4880 C   0  0  0  0  0  3  0  0  0  0  0  0
  -16.9430  -28.4990   22.7930 C   0  0  0  0  0  3  0  0  0  0  0  0
  -26.0180  -32.3710   24.0450 C   0  0  0  0  0  3  0  0  0  0  0  0
  -25.7040  -33.7800   24.3400 N   0  0  0  0  0  0  0  0  0  0  0  0
  -26.0510  -34.8230   23.5740 C   0  0  0  0  0  0  0  0  0  0  0  0
  -26.7290  -34.6990   22.5510 O   0  0  0  0  0  0  0  0  0  0  0  0
  -25.0970  -33.9490   25.1280 H   0  0  0  0  0  0  0  0  0  0  0  0
  -24.3030  -36.6030   23.2230 C   0  0  0  0  0  1  0  0  0  0  0  0
  -25.5690  -36.2230   24.0050 C   0  0  0  0  0  3  0  0  0  0  0  0
  -27.7090  -37.1600   24.7660 C   0  0  0  0  0  1  0  0  0  0  0  0
  -26.5930  -37.2770   23.8320 N   0  0  0  0  0  0  0  0  0  0  0  0
  -26.1840  -38.2000   23.9480 H   0  0  0  0  0  0  0  0  0  0  0  0
  -26.4030  -31.6090   25.3740 C   0  0  1  0  0  0  0  0  0  0  0  0
  -25.2090  -31.4020   26.3370 C   0  0  0  0  0  1  0  0  0  0  0  0
  -26.9980  -30.2170   25.0630 C   0  0  0  0  0  1  0  0  0  0  0  0
  -27.5060  -32.3930   26.1260 C   0  0  0  0  0  1  0  0  0  0  0  0
  1  7  1  0
  2  1  2  0
  3  4  2  0
  3  2  1  0
  4  5  1  0
  5  1  1  0
  5 49  1  0
  7 12  1  0
  7  6  1  1
  8 10  1  1
  8  7  1  0
  9  8  1  0
 11  8  1  0
 13 19  1  0
 13 12  1  0
 14 19  1  0
 15 16  1  0
 15 14  1  0
 17 16  1  0
 17 24  1  0
 17 18  1  0
 19 18  1  0
 20 13  2  0
 21 22  2  0
 22 41  1  0
 23 22  1  0
 23 26  1  0
 24 25  1  0
 24 21  1  0
 25 23  2  0
 26 27  1  0
 27 28  2  0
 29 32  1  0
 29 28  1  0
 30 29  2  0
 31 30  1  0
 31 26  2  0
 32 33  1  0
 33 38  2  0
 33 34  1  0
 34 35  2  0
 35 36  1  0
 36 40  1  0
 37 36  2  0
 38 37  1  0
 39 38  1  0
 41 42  1  0
 42 45  1  0
 42 44  1  0
 43 41  2  0
 46 21  1  0
 46 47  1  0
 48 46  1  0
 50 49  2  0
 50 51  1  0
 52 63  2  0
 53 51  1  0
 53 58  1  0
 54 62  1  0
 54 64  1  0
 55 61  1  0
 55 57  1  0
 56 62  1  0
 57 56  1  0
 58 57  2  0
 59 53  2  0
 60 59  1  0
 60 55  2  0
 61 54  1  0
 62 52  1  0
 64 66  2  0
 65 64  1  0
 67 65  1  0
 68 77  2  0
 68 73  1  0
 69 65  1  0
 69 73  1  0
 70 69  1  0
 71 72  1  0
 71 70  1  0
 72 68  1  0
 73 74  2  0
 74 75  1  0
 76 75  2  0
 77 76  1  0
 78 52  1  0
 78 79  1  0
 78 88  1  0
 79 82  1  0
 80 84  1  0
 80 79  1  0
 81 80  2  0
 84 83  1  0
 86 87  1  0
 86 84  1  0
 86 85  1  0
 88 91  1  1
 88 89  1  0
 90 88  1  0
M  ISO  4  12 100  13 100  50 101  51 101
M  END
>  <TORSDO>  (57) 
F 21

>  <SCORE>  (57) 
-14.841

>  <name>  (57) 
58

>  <ligand_id>  (57) 
58

>  <original_smiles>  (57) 
[H]c1c([H])c([H])c2c(c1[H])C([H])([H])C([H])([H])C([H])([H])C2([H])N([H])C(=O)C1([H])N(C(=O)C([H])(N([H])C(=O)C([H])(N([H])C([H])([H])[H])C([H])([H])[H])C(C([H])([H])[H])(C([H])([H])[H])C([H])([H])[H])C([H])([H])c2c([H])c(OC([H])([H])C([H])([H])n3nnnc3C(C([H])([H])[H])(C(F)(F)F)C([H])([H])C(=O)N3C([H])([H])C([H])([H])C([H])([H])C([H])(n4nc(-c5c([H])c([H])c(Oc6c([H])c([H])c(F)c([H])c6F)c([H])c5[H])c(C(=O)N([H])[H])c4N([H])[H])C3([H])[H])c([H])c([H])c2C1([H])[H]

>  <smiles>  (57) 
[H]c1c([H])c([H])c2c(c1[H])C([H])([H])C([H])([H])C([H])([H])C2([H])N([H])C(=O)C1([H])N(C(=O)C([H])(N([H])C(=O)C([H])(N([H])C([H])([H])[H])C([H])([H])[H])C(C([H])([H])[H])(C([H])([H])[H])C([H])([H])[H])C([H])([H])c2c([H])c(OC([H])([H])C([H])([H])n3nnnc3C(C([H])([H])[H])(C(F)(F)F)C([H])([H])C(=O)N3C([H])([H])C([H])([H])C([H])([H])C([H])(n4nc(-c5c([H])c([H])c(Oc6c([H])c([H])c(F)c([H])c6F)c([H])c5[H])c(C(=O)N([H])[H])c4N([H])[H])C3([H])[H])c([H])c([H])c2C1([H])[H]

$$$$
59:0:0
     RDKit          3D

 95103  0  0  1  0  0  0  0  0999 V2000
  -28.7520  -20.7310   20.1150 C   0  0  0  0  0  0  0  0  0  0  0  0
  -30.2090  -19.1800   19.9690 C   0  0  0  0  0  3  0  0  0  0  0  0
  -30.0720  -20.4550   20.3890 N   0  0  0  0  0  0  0  0  0  0  0  0
  -28.0520  -19.6390   19.7860 N   0  0  0  0  0  2  0  0  0  0  0  0
  -28.9890  -18.6420   19.6620 N   0  0  0  0  0  0  0  0  0  0  0  0
  -32.7770  -19.4710   20.1420 C   0  0  0  0  0  1  0  0  0  0  0  0
  -31.8350  -17.9960   18.3870 C   0  0  0  0  0  1  0  0  0  0  0  0
  -31.8160  -17.2980   20.7890 C   0  0  0  0  0  1  0  0  0  0  0  0
  -31.5980  -18.4920   19.8290 C   0  0  2  0  0  0  0  0  0  0  0  0
  -27.3130  -22.5750   21.1380 C   0  0  0  0  0  1  0  0  0  0  0  0
  -27.2620  -22.0520   18.7100 C   0  0  0  0  0  1  0  0  0  0  0  0
  -28.2000  -22.1750   19.9200 C   0  0  2  0  0  0  0  0  0  0  0  0
  -29.2370  -23.3680   19.6960 C   0  0  0  0  0  2  0  0  0  0  0  0
  -29.1630  -25.6490   18.3460 C   0  0  0  0  0  0  0  0  0  0  0  0
  -28.1920  -27.6690   17.2640 C   0  0  0  0  0  2  0  0  0  0  0  0
  -26.8370  -27.9770   17.9350 C   0  0  0  0  0  2  0  0  0  0  0  0
  -25.7060  -27.2050   17.2260 C   0  0  0  0  0  2  0  0  0  0  0  0
  -26.0360  -25.6930   17.0870 C   0  0  0  0  0  3  0  0  0  0  0  0
  -27.4520  -25.5000   16.4940 C   0  0  0  0  0  2  0  0  0  0  0  0
  -28.4070  -26.2190   17.3550 N   0  0  0  0  0  0  0  0  0  0  0  0
  -29.9450  -26.3170   19.0330 O   0  0  0  0  0  0  0  0  0  0  0  0
  -28.8800  -24.3350   18.5900 N   0  0  0  0  0  0  0  0  0  0  0  0
  -28.2980  -23.9360   17.8700 H   0  0  0  0  0  0  0  0  0  0  0  0
  -24.1320  -24.0010   16.6810 C   0  0  0  0  0  0  0  0  0  0  0  0
  -23.4110  -23.6800   15.5640 C   0  0  0  0  0  0  0  0  0  0  0  0
  -23.9030  -24.5210   14.5270 C   0  0  0  0  0  0  0  0  0  0  0  0
  -25.0370  -24.9800   16.2910 N   0  0  0  0  0  0  0  0  0  0  0  0
  -24.9200  -25.2530   14.9660 N   0  0  0  0  0  0  0  0  0  0  0  0
  -23.4030  -24.7310   13.1650 C   0  0  0  0  0  0  0  0  0  0  0  0
  -24.0060  -24.1030   12.0560 C   0  0  0  0  0  3  0  0  0  0  0  0
  -23.4880  -24.3050   10.7580 C   0  0  0  0  0  3  0  0  0  0  0  0
  -22.3650  -25.1450   10.5640 C   0  0  0  0  0  0  0  0  0  0  0  0
  -21.7900  -25.7900   11.6720 C   0  0  0  0  0  3  0  0  0  0  0  0
  -22.3070  -25.5940   12.9630 C   0  0  0  0  0  3  0  0  0  0  0  0
  -21.8100  -25.4250    9.3400 O   0  0  0  0  0  0  0  0  0  0  0  0
  -21.3280  -24.4260    8.5280 C   0  0  0  0  0  0  0  0  0  0  0  0
  -20.2050  -23.6530    8.8890 C   0  0  0  0  0  3  0  0  0  0  0  0
  -19.7080  -22.6780    7.9990 C   0  0  0  0  0  3  0  0  0  0  0  0
  -20.3220  -22.4880    6.7460 C   0  0  0  0  0  0  0  0  0  0  0  0
  -21.4380  -23.2640    6.3850 C   0  0  0  0  0  3  0  0  0  0  0  0
  -21.9390  -24.2300    7.2750 C   0  0  0  0  0  0  0  0  0  0  0  0
  -23.0030  -24.9890    6.9160 F   0  0  0  0  0  0  0  0  0  0  0  0
  -19.8340  -21.5640    5.8840 F   0  0  0  0  0  0  0  0  0  0  0  0
  -22.2600  -22.7150   15.5050 C   0  0  0  0  0  0  0  0  0  0  0  0
  -21.9310  -22.2240   14.3110 N   0  0  0  0  0  0  0  0  0  0  0  0
  -21.6780  -22.3580   16.5240 O   0  0  0  0  0  0  0  0  0  0  0  0
  -22.4330  -22.4920   13.4780 H   0  0  0  0  0  0  0  0  0  0  0  0
  -21.1720  -21.5640   14.2220 H   0  0  0  0  0  0  0  0  0  0  0  0
  -24.0500  -23.5540   17.9850 N   0  0  0  0  0  0  0  0  0  0  0  0
  -23.2720  -22.9720   18.2860 H   0  0  0  0  0  0  0  0  0  0  0  0
  -24.6280  -23.8920   18.7440 H   0  0  0  0  0  0  0  0  0  0  0  0
  -28.5060  -17.3350   19.1310 C   0  0  0  0  0  2  0  0  0  0  0  0
  -27.9800  -16.3090   20.1810 C   0  0  0  0  0  2  0  0  0  0  0  0
  -28.9560  -15.2220   20.7470 C   0  0  0  0  0  2  0  0  0  0  0  0
  -28.9050  -13.8930   20.1330 O   0  0  0  0  0  0  0  0  0  0  0  0
  -34.8250   -9.9300   20.7390 C   0  0  0  0  0  0  0  0  0  0  0  0
  -30.1040  -13.4910   19.5720 C   0  0  0  0  0  0  0  0  0  0  0  0
  -34.9070  -11.8060   19.1300 C   0  0  0  0  0  3  0  0  0  0  0  0
  -32.6590  -12.8570   18.5310 C   0  0  0  0  0  0  0  0  0  0  0  0
  -32.6970  -10.6140   19.6260 C   0  0  0  0  0  2  0  0  0  0  0  0
  -31.9820  -11.9250   19.3280 C   0  0  0  0  0  0  0  0  0  0  0  0
  -30.6990  -12.2330   19.8490 C   0  0  0  0  0  3  0  0  0  0  0  0
  -30.7850  -14.3920   18.7290 C   0  0  0  0  0  3  0  0  0  0  0  0
  -32.0630  -14.0910   18.2240 C   0  0  0  0  0  3  0  0  0  0  0  0
  -34.0360  -12.4770   18.0340 C   0  0  0  0  0  2  0  0  0  0  0  0
  -34.1520  -10.7590   19.8890 N   0  0  0  0  0  0  0  0  0  0  0  0
  -36.0560  -10.0070   20.8700 O   0  0  0  0  0  0  0  0  0  0  0  0
  -35.5110  -12.9090   20.0370 C   0  0  0  0  0  0  0  0  0  0  0  0
  -36.8420  -13.0820   19.9710 N   0  0  0  0  0  0  0  0  0  0  0  0
  -34.7860  -13.5990   20.7560 O   0  0  0  0  0  0  0  0  0  0  0  0
  -37.3650  -12.4570   19.3770 H   0  0  0  0  0  0  0  0  0  0  0  0
  -40.1620  -13.9410   21.1020 C   0  0  0  0  0  0  0  0  0  0  0  0
  -37.6150  -14.0870   20.7060 C   0  0  0  0  0  3  0  0  0  0  0  0
  -37.9300  -15.3140   19.8160 C   0  0  0  0  0  2  0  0  0  0  0  0
  -39.2800  -15.2150   19.1010 C   0  0  0  0  0  2  0  0  0  0  0  0
  -40.4130  -15.0690   20.1200 C   0  0  0  0  0  2  0  0  0  0  0  0
  -38.8510  -13.4680   21.3670 C   0  0  0  0  0  0  0  0  0  0  0  0
  -38.6800  -12.3930   22.2660 C   0  0  0  0  0  3  0  0  0  0  0  0
  -39.7870  -11.7860   22.8840 C   0  0  0  0  0  3  0  0  0  0  0  0
  -41.0830  -12.2760   22.6380 C   0  0  0  0  0  3  0  0  0  0  0  0
  -41.2670  -13.3520   21.7490 C   0  0  0  0  0  3  0  0  0  0  0  0
  -34.0850   -8.8350   21.5700 C   0  0  0  0  0  3  0  0  0  0  0  0
  -34.7400   -7.5480   21.2930 N   0  0  0  0  0  0  0  0  0  0  0  0
  -34.0900   -6.4130   20.9950 C   0  0  0  0  0  0  0  0  0  0  0  0
  -32.8590   -6.3280   20.9970 O   0  0  0  0  0  0  0  0  0  0  0  0
  -35.7480   -7.5560   21.2360 H   0  0  0  0  0  0  0  0  0  0  0  0
  -34.6770   -4.7760   19.1830 C   0  0  0  0  0  1  0  0  0  0  0  0
  -34.9380   -5.1780   20.6430 C   0  0  0  0  0  3  0  0  0  0  0  0
  -35.0850   -4.2620   22.9150 C   0  0  0  0  0  1  0  0  0  0  0  0
  -34.6890   -4.0210   21.5300 N   0  0  0  0  0  0  0  0  0  0  0  0
  -35.1960   -3.2020   21.2030 H   0  0  0  0  0  0  0  0  0  0  0  0
  -34.0820   -9.1310   23.1190 C   0  0  1  0  0  0  0  0  0  0  0  0
  -35.3090   -8.5470   23.8590 C   0  0  0  0  0  1  0  0  0  0  0  0
  -34.0510  -10.6540   23.3830 C   0  0  0  0  0  1  0  0  0  0  0  0
  -32.8060   -8.5510   23.7650 C   0  0  0  0  0  1  0  0  0  0  0  0
  1  3  2  0
  2  9  1  0
  2  3  1  0
  4  1  1  0
  5  4  1  0
  5  2  1  0
  9  7  1  6
  9  6  1  0
  9  8  1  0
 12 11  1  6
 12  1  1  0
 12 10  1  0
 13 12  1  0
 14 22  1  0
 14 21  2  0
 15 20  1  0
 15 16  1  0
 17 16  1  0
 18 27  1  0
 18 17  1  0
 19 18  1  0
 19 20  1  0
 20 14  1  0
 22 13  1  0
 23 22  1  0
 24 49  1  0
 25 24  2  0
 26 28  2  0
 26 25  1  0
 27 24  1  0
 28 27  1  0
 29 26  1  0
 30 29  2  0
 31 30  1  0
 32 31  2  0
 32 33  1  0
 33 34  2  0
 34 29  1  0
 35 32  1  0
 36 37  1  0
 36 35  1  0
 38 37  2  0
 39 38  1  0
 40 39  2  0
 40 41  1  0
 41 36  2  0
 42 41  1  0
 43 39  1  0
 44 25  1  0
 44 46  2  0
 45 44  1  0
 47 45  1  0
 48 45  1  0
 49 50  1  0
 49 51  1  0
 52  5  1  0
 52 53  1  0
 53 54  1  0
 55 54  1  0
 56 67  2  0
 57 62  1  0
 57 55  1  0
 58 66  1  0
 58 68  1  0
 59 61  1  0
 60 66  1  0
 61 60  1  0
 61 62  2  0
 63 57  2  0
 64 59  2  0
 64 63  1  0
 65 59  1  0
 65 58  1  0
 66 56  1  0
 68 70  2  0
 69 68  1  0
 71 69  1  0
 72 77  2  0
 72 81  1  0
 73 69  1  0
 73 77  1  0
 74 73  1  0
 75 74  1  0
 75 76  1  0
 76 72  1  0
 77 78  1  0
 78 79  2  0
 80 79  1  0
 81 80  2  0
 82 56  1  0
 82 92  1  0
 83 82  1  0
 84 85  2  0
 84 83  1  0
 86 83  1  0
 88 87  1  0
 88 84  1  0
 88 90  1  0
 90 89  1  0
 91 90  1  0
 92 94  1  6
 92 95  1  0
 92 93  1  0
M  ISO  4  14 100  22 100  54 101  55 101
M  END
>  <TORSDO>  (58) 
F 22

>  <SCORE>  (58) 
-6.475

>  <name>  (58) 
59

>  <ligand_id>  (58) 
59

>  <original_smiles>  (58) 
[H]c1c([H])c([H])c2c(c1[H])C([H])([H])C([H])([H])C([H])([H])C2([H])N([H])C(=O)C1([H])N(C(=O)C([H])(N([H])C(=O)C([H])(N([H])C([H])([H])[H])C([H])([H])[H])C(C([H])([H])[H])(C([H])([H])[H])C([H])([H])[H])C([H])([H])c2c([H])c(OC([H])([H])C([H])([H])C([H])([H])n3nc(C(C([H])([H])[H])(C([H])([H])[H])C([H])([H])N([H])C(=O)N4C([H])([H])C([H])([H])C([H])([H])C([H])(n5nc(-c6c([H])c([H])c(Oc7c([H])c([H])c(F)c([H])c7F)c([H])c6[H])c(C(=O)N([H])[H])c5N([H])[H])C4([H])[H])nc3C(C([H])([H])[H])(C([H])([H])[H])C([H])([H])[H])c([H])c([H])c2C1([H])[H]

>  <smiles>  (58) 
[H]c1c([H])c([H])c2c(c1[H])C([H])([H])C([H])([H])C([H])([H])C2([H])N([H])C(=O)C1([H])N(C(=O)C([H])(N([H])C(=O)C([H])(N([H])C([H])([H])[H])C([H])([H])[H])C(C([H])([H])[H])(C([H])([H])[H])C([H])([H])[H])C([H])([H])c2c([H])c(OC([H])([H])C([H])([H])C([H])([H])n3nc(C(C([H])([H])[H])(C([H])([H])[H])C([H])([H])N([H])C(=O)N4C([H])([H])C([H])([H])C([H])([H])C([H])(n5nc(-c6c([H])c([H])c(Oc7c([H])c([H])c(F)c([H])c7F)c([H])c6[H])c(C(=O)N([H])[H])c5N([H])[H])C4([H])[H])nc3C(C([H])([H])[H])(C([H])([H])[H])C([H])([H])[H])c([H])c([H])c2C1([H])[H]

$$$$
60:0:0
     RDKit          3D

 90 98  0  0  1  0  0  0  0  0999 V2000
  -29.1270  -21.0630   21.2820 C   0  0  0  0  0  3  0  0  0  0  0  0
  -29.3690  -21.3350   19.0000 C   0  0  0  0  0  3  0  0  0  0  0  0
  -29.1250  -22.0190   20.2170 C   0  0  0  0  0  0  0  0  0  0  0  0
  -29.6590  -19.1430   19.9540 C   0  0  0  0  0  0  0  0  0  0  0  0
  -29.3990  -19.7070   21.1530 N   0  0  0  0  0  0  0  0  0  0  0  0
  -29.6310  -19.9840   18.8950 N   0  0  0  0  0  0  0  0  0  0  0  0
  -31.8830  -18.0520   20.3430 C   0  0  0  0  0  1  0  0  0  0  0  0
  -30.6470  -17.4800   18.2480 C   0  0  0  0  0  1  0  0  0  0  0  0
  -30.4830  -17.7050   19.7790 C   0  0  2  0  0  0  0  0  0  0  0  0
  -30.7070  -15.0100   20.0610 C   0  0  0  0  0  0  0  0  0  0  0  0
  -30.4230  -12.7570   18.9350 C   0  0  0  0  0  2  0  0  0  0  0  0
  -29.4100  -12.8140   17.7710 C   0  0  0  0  0  2  0  0  0  0  0  0
  -27.9700  -12.6080   18.2810 C   0  0  0  0  0  2  0  0  0  0  0  0
  -27.6700  -13.4470   19.5510 C   0  0  0  0  0  3  0  0  0  0  0  0
  -28.7970  -13.3140   20.5920 C   0  0  0  0  0  2  0  0  0  0  0  0
  -30.0280  -13.7900   19.9420 N   0  0  0  0  0  0  0  0  0  0  0  0
  -31.8700  -14.9920   19.6450 O   0  0  0  0  0  0  0  0  0  0  0  0
  -29.1540  -16.3630   21.4720 C   0  0  0  0  0  1  0  0  0  0  0  0
  -30.0620  -16.2690   20.3250 N   0  0  0  0  0  0  0  0  0  0  0  0
  -25.3400  -14.0100   20.4480 C   0  0  0  0  0  0  0  0  0  0  0  0
  -24.2990  -13.2260   20.8600 C   0  0  0  0  0  0  0  0  0  0  0  0
  -24.7560  -11.8760   20.7590 C   0  0  0  0  0  0  0  0  0  0  0  0
  -26.3630  -13.1380   20.1170 N   0  0  0  0  0  0  0  0  0  0  0  0
  -26.0250  -11.8480   20.3690 N   0  0  0  0  0  0  0  0  0  0  0  0
  -24.0390  -10.6110   20.9540 C   0  0  0  0  0  0  0  0  0  0  0  0
  -24.4860   -9.6420   21.8810 C   0  0  0  0  0  3  0  0  0  0  0  0
  -23.7690   -8.4410   22.0640 C   0  0  0  0  0  3  0  0  0  0  0  0
  -22.5900   -8.1980   21.3190 C   0  0  0  0  0  0  0  0  0  0  0  0
  -22.1600   -9.1560   20.3840 C   0  0  0  0  0  3  0  0  0  0  0  0
  -22.8790  -10.3490   20.2000 C   0  0  0  0  0  3  0  0  0  0  0  0
  -21.8420   -7.0490   21.4110 O   0  0  0  0  0  0  0  0  0  0  0  0
  -21.7540   -6.3380   22.5810 C   0  0  0  0  0  0  0  0  0  0  0  0
  -21.2820   -6.9250   23.7750 C   0  0  0  0  0  3  0  0  0  0  0  0
  -21.1440   -6.1410   24.9370 C   0  0  0  0  0  3  0  0  0  0  0  0
  -21.4670   -4.7710   24.9060 C   0  0  0  0  0  0  0  0  0  0  0  0
  -21.9350   -4.1840   23.7160 C   0  0  0  0  0  3  0  0  0  0  0  0
  -22.0740   -4.9670   22.5560 C   0  0  0  0  0  0  0  0  0  0  0  0
  -22.5030   -4.3920   21.4060 F   0  0  0  0  0  0  0  0  0  0  0  0
  -21.3270   -4.0140   26.0190 F   0  0  0  0  0  0  0  0  0  0  0  0
  -22.9230  -13.6970   21.2270 C   0  0  0  0  0  0  0  0  0  0  0  0
  -22.2470  -12.9800   22.1180 N   0  0  0  0  0  0  0  0  0  0  0  0
  -22.4570  -14.7350   20.7590 O   0  0  0  0  0  0  0  0  0  0  0  0
  -22.6380  -12.1400   22.5200 H   0  0  0  0  0  0  0  0  0  0  0  0
  -21.3220  -13.2740   22.4020 H   0  0  0  0  0  0  0  0  0  0  0  0
  -25.4930  -15.3850   20.2990 N   0  0  0  0  0  0  0  0  0  0  0  0
  -24.7320  -16.0300   20.4830 H   0  0  0  0  0  0  0  0  0  0  0  0
  -26.3080  -15.8330   19.9040 H   0  0  0  0  0  0  0  0  0  0  0  0
  -29.1820  -23.6480   20.4000 C   0  0  0  0  0  3  0  0  0  0  0  0
  -28.0210  -24.7890   20.1060 C   0  0  0  0  0  3  0  0  0  0  0  0
  -28.2570  -26.3070   20.2670 O   0  0  0  0  0  0  0  0  0  0  0  0
  -24.5780  -31.9140   23.2390 C   0  0  0  0  0  0  0  0  0  0  0  0
  -27.1790  -27.2480   20.2040 C   0  0  0  0  0  0  0  0  0  0  0  0
  -23.3790  -30.5100   21.6060 C   0  0  0  0  0  3  0  0  0  0  0  0
  -24.8330  -28.9480   20.1780 C   0  0  0  0  0  0  0  0  0  0  0  0
  -25.9260  -30.8050   21.4240 C   0  0  0  0  0  2  0  0  0  0  0  0
  -26.0090  -29.4140   20.7780 C   0  0  0  0  0  0  0  0  0  0  0  0
  -27.1840  -28.5790   20.7740 C   0  0  0  0  0  3  0  0  0  0  0  0
  -25.9750  -26.8710   19.5690 C   0  0  0  0  0  3  0  0  0  0  0  0
  -24.8270  -27.6900   19.5570 C   0  0  0  0  0  3  0  0  0  0  0  0
  -23.5960  -29.8310   20.2270 C   0  0  0  0  0  2  0  0  0  0  0  0
  -24.6480  -31.0960   22.1460 N   0  0  0  0  0  0  0  0  0  0  0  0
  -23.4940  -32.1900   23.7730 O   0  0  0  0  0  0  0  0  0  0  0  0
  -22.7140  -29.4960   22.5710 C   0  0  0  0  0  0  0  0  0  0  0  0
  -21.3880  -29.3100   22.4470 N   0  0  0  0  0  0  0  0  0  0  0  0
  -23.3950  -28.8810   23.3960 O   0  0  0  0  0  0  0  0  0  0  0  0
  -20.8960  -29.8630   21.7590 H   0  0  0  0  0  0  0  0  0  0  0  0
  -18.0190  -28.0840   22.9580 C   0  0  0  0  0  0  0  0  0  0  0  0
  -20.5760  -28.3690   23.2230 C   0  0  0  0  0  3  0  0  0  0  0  0
  -20.6900  -26.9350   22.6540 C   0  0  0  0  0  2  0  0  0  0  0  0
  -19.5900  -26.5990   21.6420 C   0  0  0  0  0  2  0  0  0  0  0  0
  -18.2080  -26.7340   22.2860 C   0  0  0  0  0  2  0  0  0  0  0  0
  -19.1310  -28.8580   23.3830 C   0  0  0  0  0  0  0  0  0  0  0  0
  -18.8990  -30.1200   23.9720 C   0  0  0  0  0  3  0  0  0  0  0  0
  -17.5890  -30.6080   24.1400 C   0  0  0  0  0  3  0  0  0  0  0  0
  -16.4920  -29.8310   23.7280 C   0  0  0  0  0  3  0  0  0  0  0  0
  -16.7080  -28.5720   23.1430 C   0  0  0  0  0  3  0  0  0  0  0  0
  -25.8550  -32.5580   23.8590 C   0  0  0  0  0  3  0  0  0  0  0  0
  -26.3750  -31.7950   25.1410 C   0  0  1  0  0  0  0  0  0  0  0  0
  -25.2810  -31.5540   26.2080 C   0  0  0  0  0  1  0  0  0  0  0  0
  -26.9660  -30.4180   24.7600 C   0  0  0  0  0  1  0  0  0  0  0  0
  -27.5190  -32.5990   25.7990 C   0  0  0  0  0  1  0  0  0  0  0  0
  -25.5350  -33.9550   24.1880 N   0  0  0  0  0  0  0  0  0  0  0  0
  -25.8480  -35.0100   23.4250 C   0  0  0  0  0  0  0  0  0  0  0  0
  -26.5040  -34.9100   22.3840 O   0  0  0  0  0  0  0  0  0  0  0  0
  -24.9480  -34.1050   24.9960 H   0  0  0  0  0  0  0  0  0  0  0  0
  -24.0960  -36.7920   23.0990 C   0  0  0  0  0  1  0  0  0  0  0  0
  -25.3590  -36.3990   23.8850 C   0  0  0  0  0  3  0  0  0  0  0  0
  -27.5020  -37.3110   24.6650 C   0  0  0  0  0  1  0  0  0  0  0  0
  -26.3800  -37.4610   23.7440 N   0  0  0  0  0  0  0  0  0  0  0  0
  -25.9670  -38.3780   23.8920 H   0  0  0  0  0  0  0  0  0  0  0  0
  2  3  1  0
  3 48  1  0
  3  1  2  0
  4  5  2  0
  5  1  1  0
  6  2  2  0
  6  4  1  0
  9  8  1  6
  9  4  1  0
  9 19  1  0
  9  7  1  0
 10 19  1  0
 11 16  1  0
 12 13  1  0
 12 11  1  0
 14 13  1  0
 14 23  1  0
 14 15  1  0
 16 10  1  0
 16 15  1  0
 17 10  2  0
 19 18  1  0
 20 21  2  0
 21 40  1  0
 22 21  1  0
 22 25  1  0
 23 24  1  0
 23 20  1  0
 24 22  2  0
 25 26  1  0
 26 27  2  0
 28 31  1  0
 28 27  1  0
 29 28  2  0
 30 29  1  0
 30 25  2  0
 31 32  1  0
 32 33  1  0
 33 34  2  0
 35 34  1  0
 35 39  1  0
 36 35  2  0
 37 32  2  0
 37 36  1  0
 38 37  1  0
 40 41  1  0
 41 44  1  0
 41 43  1  0
 42 40  2  0
 45 20  1  0
 45 46  1  0
 47 45  1  0
 49 50  1  0
 49 48  2  0
 51 62  2  0
 52 50  1  0
 52 57  1  0
 53 61  1  0
 53 63  1  0
 54 60  1  0
 54 56  1  0
 55 61  1  0
 56 55  1  0
 57 56  2  0
 58 52  2  0
 59 58  1  0
 59 54  2  0
 60 53  1  0
 61 51  1  0
 63 65  2  0
 64 63  1  0
 66 64  1  0
 67 76  2  0
 67 72  1  0
 68 64  1  0
 68 72  1  0
 69 68  1  0
 70 71  1  0
 70 69  1  0
 71 67  1  0
 72 73  2  0
 73 74  1  0
 75 74  2  0
 76 75  1  0
 77 51  1  0
 77 82  1  0
 77 78  1  0
 78 81  1  1
 78 79  1  0
 80 78  1  0
 82 85  1  0
 83 87  1  0
 83 82  1  0
 84 83  2  0
 87 86  1  0
 89 87  1  0
 89 90  1  0
 89 88  1  0
M  ISO  4  10 100  19 100  49 101  50 101
M  END
>  <TORSDO>  (59) 
F 19

>  <SCORE>  (59) 
-13.833

>  <name>  (59) 
60

>  <ligand_id>  (59) 
60

>  <original_smiles>  (59) 
[H]c1nc(C(N(C(=O)N2C([H])([H])C([H])([H])C([H])([H])C([H])(n3nc(-c4c([H])c([H])c(Oc5c([H])c([H])c(F)c([H])c5F)c([H])c4[H])c(C(=O)N([H])[H])c3N([H])[H])C2([H])[H])C([H])([H])[H])(C([H])([H])[H])C([H])([H])[H])nc([H])c1C([H])([H])C([H])([H])Oc1c([H])c([H])c2c(c1[H])C([H])([H])N(C(=O)C([H])(N([H])C(=O)C([H])(N([H])C([H])([H])[H])C([H])([H])[H])C(C([H])([H])[H])(C([H])([H])[H])C([H])([H])[H])C([H])(C(=O)N([H])C1([H])c3c([H])c([H])c([H])c([H])c3C([H])([H])C([H])([H])C1([H])[H])C2([H])[H]

>  <smiles>  (59) 
[H]c1nc(C(N(C(=O)N2C([H])([H])C([H])([H])C([H])([H])C([H])(n3nc(-c4c([H])c([H])c(Oc5c([H])c([H])c(F)c([H])c5F)c([H])c4[H])c(C(=O)N([H])[H])c3N([H])[H])C2([H])[H])C([H])([H])[H])(C([H])([H])[H])C([H])([H])[H])nc([H])c1C([H])([H])C([H])([H])Oc1c([H])c([H])c2c(c1[H])C([H])([H])N(C(=O)C([H])(N([H])C(=O)C([H])(N([H])C([H])([H])[H])C([H])([H])[H])C(C([H])([H])[H])(C([H])([H])[H])C([H])([H])[H])C([H])(C(=O)N([H])C1([H])c3c([H])c([H])c([H])c([H])c3C([H])([H])C([H])([H])C1([H])[H])C2([H])[H]

$$$$
61:0:0
     RDKit          3D

 93101  0  0  1  0  0  0  0  0999 V2000
  -29.4580  -24.0300   23.5180 C   0  0  0  0  0  1  0  0  0  0  0  0
  -29.1850  -23.8860   22.0630 N   0  0  2  0  0  4  0  0  0  0  0  0
  -30.0790  -23.9970   21.6050 H   0  0  0  0  0  0  0  0  0  0  0  0
  -26.8200  -24.7590   21.7030 C   0  0  0  0  0  1  0  0  0  0  0  0
  -28.3370  -25.0230   21.5680 C   0  0  0  0  0  3  0  0  0  0  0  0
  -28.7780  -25.5150   20.1620 C   0  0  0  0  0  2  0  0  0  0  0  0
  -28.7580  -26.9490   20.0510 O   0  0  0  0  0  0  0  0  0  0  0  0
  -24.6410  -31.7800   23.2110 C   0  0  0  0  0  0  0  0  0  0  0  0
  -27.5420  -27.5970   20.0260 C   0  0  0  0  0  0  0  0  0  0  0  0
  -23.5350  -30.4030   21.4810 C   0  0  0  0  0  3  0  0  0  0  0  0
  -25.0810  -28.9900   20.0320 C   0  0  0  0  0  0  0  0  0  0  0  0
  -26.0440  -30.8830   21.3530 C   0  0  0  0  0  2  0  0  0  0  0  0
  -26.2010  -29.5450   20.6600 C   0  0  0  0  0  0  0  0  0  0  0  0
  -27.4360  -28.8600   20.6470 C   0  0  0  0  0  3  0  0  0  0  0  0
  -26.4030  -27.0530   19.3890 C   0  0  0  0  0  3  0  0  0  0  0  0
  -25.1740  -27.7390   19.4000 C   0  0  0  0  0  3  0  0  0  0  0  0
  -23.8040  -29.7980   20.0780 C   0  0  0  0  0  2  0  0  0  0  0  0
  -24.7570  -31.0350   22.0750 N   0  0  0  0  0  0  0  0  0  0  0  0
  -23.5360  -31.9890   23.7290 O   0  0  0  0  0  0  0  0  0  0  0  0
  -22.9060  -29.3120   22.3790 C   0  0  0  0  0  0  0  0  0  0  0  0
  -21.5890  -29.0980   22.2240 N   0  0  0  0  0  0  0  0  0  0  0  0
  -23.5980  -28.6650   23.1680 O   0  0  0  0  0  0  0  0  0  0  0  0
  -21.0920  -29.6730   21.5590 H   0  0  0  0  0  0  0  0  0  0  0  0
  -18.2370  -27.8120   22.6380 C   0  0  0  0  0  0  0  0  0  0  0  0
  -20.7890  -28.1000   22.9380 C   0  0  0  0  0  3  0  0  0  0  0  0
  -20.9230  -26.7090   22.2760 C   0  0  0  0  0  2  0  0  0  0  0  0
  -19.8270  -26.4320   21.2380 C   0  0  0  0  0  2  0  0  0  0  0  0
  -18.4410  -26.5080   21.8900 C   0  0  0  0  0  2  0  0  0  0  0  0
  -19.3390  -28.5660   23.1210 C   0  0  0  0  0  0  0  0  0  0  0  0
  -19.0970  -29.7850   23.7920 C   0  0  0  0  0  3  0  0  0  0  0  0
  -17.7830  -30.2520   23.9840 C   0  0  0  0  0  3  0  0  0  0  0  0
  -16.6950  -29.4980   23.5120 C   0  0  0  0  0  3  0  0  0  0  0  0
  -16.9210  -28.2790   22.8470 C   0  0  0  0  0  3  0  0  0  0  0  0
  -25.8840  -32.4290   23.8980 C   0  0  0  0  0  3  0  0  0  0  0  0
  -25.5210  -33.8090   24.2510 N   0  0  0  0  0  0  0  0  0  0  0  0
  -25.8380  -34.8910   23.5270 C   0  0  0  0  0  0  0  0  0  0  0  0
  -26.5410  -34.8350   22.5150 O   0  0  0  0  0  0  0  0  0  0  0  0
  -24.9110  -33.9260   25.0470 H   0  0  0  0  0  0  0  0  0  0  0  0
  -24.0610  -36.6330   23.1580 C   0  0  0  0  0  1  0  0  0  0  0  0
  -25.2880  -36.2510   24.0020 C   0  0  0  0  0  3  0  0  0  0  0  0
  -27.3660  -37.1840   24.9160 C   0  0  0  0  0  1  0  0  0  0  0  0
  -26.2870  -37.3420   23.9450 N   0  0  0  0  0  0  0  0  0  0  0  0
  -25.8470  -38.2430   24.1060 H   0  0  0  0  0  0  0  0  0  0  0  0
  -26.3810  -31.6400   25.1720 C   0  0  1  0  0  0  0  0  0  0  0  0
  -25.2620  -31.3430   26.1970 C   0  0  0  0  0  1  0  0  0  0  0  0
  -27.0190  -30.2920   24.7620 C   0  0  0  0  0  1  0  0  0  0  0  0
  -27.4770  -32.4560   25.8970 C   0  0  0  0  0  1  0  0  0  0  0  0
  -28.7030  -22.5120   21.7310 C   0  0  0  0  0  2  0  0  0  0  0  0
  -29.8160  -21.4310   21.7020 C   0  0  0  0  0  2  0  0  0  0  0  0
  -29.3940  -20.1040   22.3820 C   0  0  0  0  0  2  0  0  0  0  0  0
  -31.5070  -18.4560   22.4500 C   0  0  0  0  0  3  0  0  0  0  0  0
  -29.9530  -18.0110   20.9830 C   0  0  0  0  0  3  0  0  0  0  0  0
  -30.2470  -18.9210   21.9600 C   0  0  0  0  0  0  0  0  0  0  0  0
  -31.9740  -17.4090   21.7650 N   0  0  0  0  0  0  0  0  0  0  0  0
  -31.0120  -17.1320   20.8520 N   0  0  0  0  0  0  0  0  0  0  0  0
  -31.7270  -16.8470   18.5290 C   0  0  0  0  0  1  0  0  0  0  0  0
  -31.1290  -16.1430   19.7690 C   0  0  0  0  0  3  0  0  0  0  0  0
  -31.8650  -14.7760   19.9920 C   0  0  0  0  0  0  0  0  0  0  0  0
  -31.4650  -12.5100   19.1330 C   0  0  0  0  0  2  0  0  0  0  0  0
  -30.5440  -12.6530   17.9000 C   0  0  0  0  0  2  0  0  0  0  0  0
  -29.0640  -12.5910   18.3270 C   0  0  0  0  0  2  0  0  0  0  0  0
  -28.7450  -13.5580   19.4960 C   0  0  0  0  0  3  0  0  0  0  0  0
  -29.8020  -13.4620   20.6210 C   0  0  0  0  0  2  0  0  0  0  0  0
  -31.1430  -13.6210   20.0440 N   0  0  0  0  0  0  0  0  0  0  0  0
  -33.0710  -14.7610   19.7330 O   0  0  0  0  0  0  0  0  0  0  0  0
  -26.4520  -14.3670   20.3130 C   0  0  0  0  0  0  0  0  0  0  0  0
  -25.3280  -13.6890   20.7000 C   0  0  0  0  0  0  0  0  0  0  0  0
  -25.6600  -12.3040   20.6200 C   0  0  0  0  0  0  0  0  0  0  0  0
  -27.3940  -13.3970   20.0160 N   0  0  0  0  0  0  0  0  0  0  0  0
  -26.9280  -12.1480   20.2670 N   0  0  0  0  0  0  0  0  0  0  0  0
  -24.8230  -11.1100   20.7960 C   0  0  0  0  0  0  0  0  0  0  0  0
  -25.1800  -10.0970   21.7100 C   0  0  0  0  0  3  0  0  0  0  0  0
  -24.3580   -8.9630   21.8790 C   0  0  0  0  0  3  0  0  0  0  0  0
  -23.1640   -8.8360   21.1310 C   0  0  0  0  0  0  0  0  0  0  0  0
  -22.8240   -9.8360   20.2030 C   0  0  0  0  0  3  0  0  0  0  0  0
  -23.6470  -10.9630   20.0340 C   0  0  0  0  0  3  0  0  0  0  0  0
  -22.3180   -7.7570   21.2070 O   0  0  0  0  0  0  0  0  0  0  0  0
  -22.1660   -7.0410   22.3680 C   0  0  0  0  0  0  0  0  0  0  0  0
  -21.7790   -7.6560   23.5780 C   0  0  0  0  0  3  0  0  0  0  0  0
  -21.5650   -6.8730   24.7290 C   0  0  0  0  0  3  0  0  0  0  0  0
  -21.7290   -5.4750   24.6730 C   0  0  0  0  0  0  0  0  0  0  0  0
  -22.1090   -4.8610   23.4670 C   0  0  0  0  0  3  0  0  0  0  0  0
  -22.3250   -5.6410   22.3190 C   0  0  0  0  0  0  0  0  0  0  0  0
  -22.6680   -5.0430   21.1520 F   0  0  0  0  0  0  0  0  0  0  0  0
  -21.5170   -4.7200   25.7750 F   0  0  0  0  0  0  0  0  0  0  0  0
  -23.9910  -14.2860   21.0270 C   0  0  0  0  0  0  0  0  0  0  0  0
  -23.2340  -13.6500   21.9130 N   0  0  0  0  0  0  0  0  0  0  0  0
  -23.6240  -15.3470   20.5240 O   0  0  0  0  0  0  0  0  0  0  0  0
  -23.5380  -12.7850   22.3350 H   0  0  0  0  0  0  0  0  0  0  0  0
  -22.3360  -14.0360   22.1680 H   0  0  0  0  0  0  0  0  0  0  0  0
  -26.7430  -15.7230   20.1670 N   0  0  0  0  0  0  0  0  0  0  0  0
  -26.0470  -16.4460   20.3100 H   0  0  0  0  0  0  0  0  0  0  0  0
  -27.6120  -16.0820   19.7940 H   0  0  0  0  0  0  0  0  0  0  0  0
  2  1  1  0
  2  3  1  6
  5  4  1  0
  5  2  1  0
  6  5  1  0
  7  6  1  0
  8 19  2  0
  9  7  1  0
  9 14  1  0
 10 18  1  0
 10 20  1  0
 11 17  1  0
 11 13  1  0
 12 18  1  0
 13 12  1  0
 14 13  2  0
 15 16  1  0
 15  9  2  0
 16 11  2  0
 17 10  1  0
 18  8  1  0
 20 22  2  0
 21 20  1  0
 23 21  1  0
 24 33  2  0
 24 29  1  0
 25 21  1  0
 25 29  1  0
 26 25  1  0
 27 28  1  0
 27 26  1  0
 28 24  1  0
 29 30  2  0
 30 31  1  0
 32 31  2  0
 33 32  1  0
 34  8  1  0
 34 35  1  0
 34 44  1  0
 35 38  1  0
 36 40  1  0
 36 35  1  0
 37 36  2  0
 40 39  1  0
 42 40  1  0
 42 43  1  0
 42 41  1  0
 44 47  1  1
 44 45  1  0
 46 44  1  0
 48  2  1  0
 49 48  1  0
 49 50  1  0
 52 53  2  0
 53 50  1  0
 53 51  1  0
 54 51  2  0
 55 52  1  0
 55 54  1  0
 57 56  1  0
 57 58  1  0
 57 55  1  0
 58 64  1  0
 59 64  1  0
 60 61  1  0
 60 59  1  0
 62 61  1  0
 62 69  1  0
 62 63  1  0
 64 63  1  0
 65 58  2  0
 66 67  2  0
 67 86  1  0
 68 67  1  0
 68 71  1  0
 69 70  1  0
 69 66  1  0
 70 68  2  0
 71 72  1  0
 72 73  2  0
 74 77  1  0
 74 73  1  0
 75 74  2  0
 76 75  1  0
 76 71  2  0
 77 78  1  0
 78 79  1  0
 79 80  2  0
 81 80  1  0
 81 85  1  0
 82 81  2  0
 83 78  2  0
 83 82  1  0
 84 83  1  0
 86 87  1  0
 87 90  1  0
 87 89  1  0
 88 86  2  0
 91 92  1  0
 91 66  1  0
 93 91  1  0
M  ISO  4   6 101   7 101  57 100  58 100
M  END
>  <TORSDO>  (60) 
F 23

>  <SCORE>  (60) 
-9.675

>  <name>  (60) 
61

>  <ligand_id>  (60) 
61

>  <original_smiles>  (60) 
[H]c1nn(C([H])(C(=O)N2C([H])([H])C([H])([H])C([H])([H])C([H])(n3nc(-c4c([H])c([H])c(Oc5c([H])c([H])c(F)c([H])c5F)c([H])c4[H])c(C(=O)N([H])[H])c3N([H])[H])C2([H])[H])C([H])([H])[H])c([H])c1C([H])([H])C([H])([H])C([H])([H])[N+]([H])(C([H])([H])[H])C([H])(C([H])([H])[H])C([H])([H])Oc1c([H])c([H])c2c(c1[H])C([H])([H])N(C(=O)C([H])(N([H])C(=O)C([H])(N([H])C([H])([H])[H])C([H])([H])[H])C(C([H])([H])[H])(C([H])([H])[H])C([H])([H])[H])C([H])(C(=O)N([H])C1([H])c3c([H])c([H])c([H])c([H])c3C([H])([H])C([H])([H])C1([H])[H])C2([H])[H]

>  <smiles>  (60) 
[H]c1nn(C([H])(C(=O)N2C([H])([H])C([H])([H])C([H])([H])C([H])(n3nc(-c4c([H])c([H])c(Oc5c([H])c([H])c(F)c([H])c5F)c([H])c4[H])c(C(=O)N([H])[H])c3N([H])[H])C2([H])[H])C([H])([H])[H])c([H])c1C([H])([H])C([H])([H])C([H])([H])[N+]([H])(C([H])([H])[H])C([H])(C([H])([H])[H])C([H])([H])Oc1c([H])c([H])c2c(c1[H])C([H])([H])N(C(=O)C([H])(N([H])C(=O)C([H])(N([H])C([H])([H])[H])C([H])([H])[H])C(C([H])([H])[H])(C([H])([H])[H])C([H])([H])[H])C([H])(C(=O)N([H])C1([H])c3c([H])c([H])c([H])c([H])c3C([H])([H])C([H])([H])C1([H])[H])C2([H])[H]

$$$$
62:0:0
     RDKit          3D

 89 97  0  0  1  0  0  0  0  0999 V2000
  -29.2850  -20.2390   20.3350 O   0  0  0  0  0  0  0  0  0  0  0  0
  -28.4290  -18.0170   17.8270 C   0  0  0  0  0  3  0  0  0  0  0  0
  -29.1260  -19.0800   19.5120 C   0  0  0  0  0  0  0  0  0  0  0  0
  -28.4650  -19.2610   18.3650 N   0  0  0  0  0  0  0  0  0  0  0  0
  -29.0100  -17.0600   18.5320 N   0  0  0  0  0  0  0  0  0  0  0  0
  -29.5310  -17.6820   19.6260 N   0  0  0  0  0  0  0  0  0  0  0  0
  -31.4150  -17.2840   21.1890 C   0  0  0  0  0  1  0  0  0  0  0  0
  -29.1720  -16.4190   21.7400 C   0  0  0  0  0  1  0  0  0  0  0  0
  -30.1700  -16.5970   20.5830 C   0  0  1  0  0  0  0  0  0  0  0  0
  -30.7070  -15.0690   20.0280 C   0  0  0  0  0  0  0  0  0  0  0  0
  -30.4880  -12.7320   19.0140 C   0  0  0  0  0  2  0  0  0  0  0  0
  -29.4960  -12.7370   17.8280 C   0  0  0  0  0  2  0  0  0  0  0  0
  -28.0510  -12.5290   18.3200 C   0  0  0  0  0  2  0  0  0  0  0  0
  -27.7250  -13.4080   19.5540 C   0  0  0  0  0  3  0  0  0  0  0  0
  -28.8380  -13.3380   20.6190 C   0  0  0  0  0  2  0  0  0  0  0  0
  -30.0790  -13.8080   19.9800 N   0  0  0  0  0  0  0  0  0  0  0  0
  -31.8560  -15.0510   19.5640 O   0  0  0  0  0  0  0  0  0  0  0  0
  -25.3860  -13.9920   20.4100 C   0  0  0  0  0  0  0  0  0  0  0  0
  -24.3350  -13.2200   20.8240 C   0  0  0  0  0  0  0  0  0  0  0  0
  -24.7860  -11.8660   20.7510 C   0  0  0  0  0  0  0  0  0  0  0  0
  -26.4090  -13.1100   20.1090 N   0  0  0  0  0  0  0  0  0  0  0  0
  -26.0600  -11.8240   20.3770 N   0  0  0  0  0  0  0  0  0  0  0  0
  -24.0560  -10.6080   20.9570 C   0  0  0  0  0  0  0  0  0  0  0  0
  -24.5040   -9.6320   21.8750 C   0  0  0  0  0  3  0  0  0  0  0  0
  -23.7710   -8.4410   22.0700 C   0  0  0  0  0  3  0  0  0  0  0  0
  -22.5760   -8.2170   21.3480 C   0  0  0  0  0  0  0  0  0  0  0  0
  -22.1460   -9.1790   20.4180 C   0  0  0  0  0  3  0  0  0  0  0  0
  -22.8790  -10.3610   20.2200 C   0  0  0  0  0  3  0  0  0  0  0  0
  -21.8130   -7.0790   21.4520 O   0  0  0  0  0  0  0  0  0  0  0  0
  -21.7630   -6.3510   22.6140 C   0  0  0  0  0  0  0  0  0  0  0  0
  -21.3530   -6.9240   23.8370 C   0  0  0  0  0  3  0  0  0  0  0  0
  -21.2510   -6.1230   24.9920 C   0  0  0  0  0  3  0  0  0  0  0  0
  -21.5490   -4.7480   24.9240 C   0  0  0  0  0  0  0  0  0  0  0  0
  -21.9510   -4.1750   23.7060 C   0  0  0  0  0  3  0  0  0  0  0  0
  -22.0560   -4.9730   22.5540 C   0  0  0  0  0  0  0  0  0  0  0  0
  -22.4250   -4.4100   21.3780 F   0  0  0  0  0  0  0  0  0  0  0  0
  -21.4430   -3.9770   26.0300 F   0  0  0  0  0  0  0  0  0  0  0  0
  -22.9580  -13.7060   21.1680 C   0  0  0  0  0  0  0  0  0  0  0  0
  -22.2680  -13.0100   22.0650 N   0  0  0  0  0  0  0  0  0  0  0  0
  -22.5040  -14.7380   20.6760 O   0  0  0  0  0  0  0  0  0  0  0  0
  -22.6500  -12.1760   22.4850 H   0  0  0  0  0  0  0  0  0  0  0  0
  -21.3450  -13.3180   22.3370 H   0  0  0  0  0  0  0  0  0  0  0  0
  -25.5510  -15.3620   20.2400 N   0  0  0  0  0  0  0  0  0  0  0  0
  -24.7910  -16.0180   20.3870 H   0  0  0  0  0  0  0  0  0  0  0  0
  -26.3770  -15.7920   19.8430 H   0  0  0  0  0  0  0  0  0  0  0  0
  -28.6380  -21.6170   19.9100 C   0  0  0  0  0  2  0  0  0  0  0  0
  -28.8230  -23.1990   20.5290 C   0  0  0  0  0  3  0  0  0  0  0  0
  -27.9480  -24.5900   20.0580 C   0  0  0  0  0  3  0  0  0  0  0  0
  -28.1740  -26.1110   20.4020 O   0  0  0  0  0  0  0  0  0  0  0  0
  -24.5950  -31.9200   23.2650 C   0  0  0  0  0  0  0  0  0  0  0  0
  -27.1400  -27.1240   20.3000 C   0  0  0  0  0  0  0  0  0  0  0  0
  -23.3930  -30.5170   21.6370 C   0  0  0  0  0  3  0  0  0  0  0  0
  -24.8330  -28.9120   20.2340 C   0  0  0  0  0  0  0  0  0  0  0  0
  -25.9510  -30.7480   21.4860 C   0  0  0  0  0  2  0  0  0  0  0  0
  -26.0140  -29.3460   20.8490 C   0  0  0  0  0  0  0  0  0  0  0  0
  -27.1650  -28.4670   20.8670 C   0  0  0  0  0  3  0  0  0  0  0  0
  -25.9370  -26.8040   19.6330 C   0  0  0  0  0  3  0  0  0  0  0  0
  -24.8100  -27.6550   19.6090 C   0  0  0  0  0  3  0  0  0  0  0  0
  -23.6150  -29.8240   20.2660 C   0  0  0  0  0  2  0  0  0  0  0  0
  -24.6670  -31.0850   22.1840 N   0  0  0  0  0  0  0  0  0  0  0  0
  -23.5090  -32.2220   23.7840 O   0  0  0  0  0  0  0  0  0  0  0  0
  -22.6970  -29.5270   22.6070 C   0  0  0  0  0  0  0  0  0  0  0  0
  -21.3690  -29.3670   22.4740 N   0  0  0  0  0  0  0  0  0  0  0  0
  -23.3580  -28.9080   23.4450 O   0  0  0  0  0  0  0  0  0  0  0  0
  -20.8920  -29.9150   21.7710 H   0  0  0  0  0  0  0  0  0  0  0  0
  -17.9770  -28.1900   22.9630 C   0  0  0  0  0  0  0  0  0  0  0  0
  -20.5340  -28.4460   23.2520 C   0  0  0  0  0  3  0  0  0  0  0  0
  -20.6360  -27.0040   22.7020 C   0  0  0  0  0  2  0  0  0  0  0  0
  -19.5430  -26.6700   21.6820 C   0  0  0  0  0  2  0  0  0  0  0  0
  -18.1540  -26.8310   22.3090 C   0  0  0  0  0  2  0  0  0  0  0  0
  -19.0950  -28.9550   23.3910 C   0  0  0  0  0  0  0  0  0  0  0  0
  -18.8730  -30.2270   23.9660 C   0  0  0  0  0  3  0  0  0  0  0  0
  -17.5690  -30.7340   24.1130 C   0  0  0  0  0  3  0  0  0  0  0  0
  -16.4660  -29.9660   23.7000 C   0  0  0  0  0  3  0  0  0  0  0  0
  -16.6710  -28.6970   23.1320 C   0  0  0  0  0  3  0  0  0  0  0  0
  -25.8750  -32.5540   23.8920 C   0  0  0  0  0  3  0  0  0  0  0  0
  -25.5690  -33.9570   24.2140 N   0  0  0  0  0  0  0  0  0  0  0  0
  -25.8990  -35.0070   23.4490 C   0  0  0  0  0  0  0  0  0  0  0  0
  -26.5590  -34.8950   22.4130 O   0  0  0  0  0  0  0  0  0  0  0  0
  -24.9830  -34.1180   25.0190 H   0  0  0  0  0  0  0  0  0  0  0  0
  -24.1690  -36.8050   23.1170 C   0  0  0  0  0  1  0  0  0  0  0  0
  -25.4260  -36.4010   23.9050 C   0  0  0  0  0  3  0  0  0  0  0  0
  -27.5780  -37.2910   24.6850 C   0  0  0  0  0  1  0  0  0  0  0  0
  -26.4590  -37.4510   23.7610 N   0  0  0  0  0  0  0  0  0  0  0  0
  -26.0570  -38.3740   23.9060 H   0  0  0  0  0  0  0  0  0  0  0  0
  -26.3750  -31.7930   25.1810 C   0  0  1  0  0  0  0  0  0  0  0  0
  -25.2710  -31.5730   26.2430 C   0  0  0  0  0  1  0  0  0  0  0  0
  -26.9520  -30.4060   24.8140 C   0  0  0  0  0  1  0  0  0  0  0  0
  -27.5270  -32.5840   25.8430 C   0  0  0  0  0  1  0  0  0  0  0  0
  2  4  1  0
  2  5  2  0
  3  6  1  0
  3  1  1  0
  4  3  2  0
  5  6  1  0
  6  9  1  0
  9  7  1  1
  9  8  1  0
 10  9  1  0
 11 16  1  0
 12 13  1  0
 12 11  1  0
 14 13  1  0
 14 21  1  0
 14 15  1  0
 16 10  1  0
 16 15  1  0
 17 10  2  0
 18 19  2  0
 19 38  1  0
 20 19  1  0
 20 23  1  0
 21 22  1  0
 21 18  1  0
 22 20  2  0
 23 24  1  0
 24 25  2  0
 26 29  1  0
 26 25  1  0
 27 26  2  0
 28 27  1  0
 28 23  2  0
 29 30  1  0
 30 31  1  0
 31 32  2  0
 33 32  1  0
 33 37  1  0
 34 33  2  0
 35 30  2  0
 35 34  1  0
 36 35  1  0
 38 39  1  0
 39 42  1  0
 39 41  1  0
 40 38  2  0
 43 44  1  0
 43 18  1  0
 45 43  1  0
 46  1  1  0
 46 47  1  0
 48 49  1  0
 48 47  2  0
 50 61  2  0
 51 49  1  0
 51 56  1  0
 52 60  1  0
 52 62  1  0
 53 59  1  0
 53 55  1  0
 54 60  1  0
 55 56  2  0
 55 54  1  0
 57 51  2  0
 58 57  1  0
 58 53  2  0
 59 52  1  0
 60 50  1  0
 62 64  2  0
 63 62  1  0
 65 63  1  0
 66 75  2  0
 66 71  1  0
 67 63  1  0
 67 71  1  0
 68 67  1  0
 69 70  1  0
 69 68  1  0
 70 66  1  0
 71 72  2  0
 72 73  1  0
 74 73  2  0
 75 74  1  0
 76 50  1  0
 76 77  1  0
 76 86  1  0
 77 80  1  0
 78 82  1  0
 78 77  1  0
 79 78  2  0
 82 81  1  0
 84 82  1  0
 84 85  1  0
 84 83  1  0
 86 89  1  1
 86 87  1  0
 88 86  1  0
M  ISO  4   9 100  10 100  48 101  49 101
M  END
>  <TORSDO>  (61) 
F 21

>  <SCORE>  (61) 
-14.300

>  <name>  (61) 
62

>  <ligand_id>  (61) 
62

>  <original_smiles>  (61) 
[H]c1nc(OC([H])([H])C([H])([H])C([H])([H])Oc2c([H])c([H])c3c(c2[H])C([H])([H])N(C(=O)C([H])(N([H])C(=O)C([H])(N([H])C([H])([H])[H])C([H])([H])[H])C(C([H])([H])[H])(C([H])([H])[H])C([H])([H])[H])C([H])(C(=O)N([H])C2([H])c4c([H])c([H])c([H])c([H])c4C([H])([H])C([H])([H])C2([H])[H])C3([H])[H])n(C(C(=O)N2C([H])([H])C([H])([H])C([H])([H])C([H])(n3nc(-c4c([H])c([H])c(Oc5c([H])c([H])c(F)c([H])c5F)c([H])c4[H])c(C(=O)N([H])[H])c3N([H])[H])C2([H])[H])(C([H])([H])[H])C([H])([H])[H])n1

>  <smiles>  (61) 
[H]c1nc(OC([H])([H])C([H])([H])C([H])([H])Oc2c([H])c([H])c3c(c2[H])C([H])([H])N(C(=O)C([H])(N([H])C(=O)C([H])(N([H])C([H])([H])[H])C([H])([H])[H])C(C([H])([H])[H])(C([H])([H])[H])C([H])([H])[H])C([H])(C(=O)N([H])C2([H])c4c([H])c([H])c([H])c([H])c4C([H])([H])C([H])([H])C2([H])[H])C3([H])[H])n(C(C(=O)N2C([H])([H])C([H])([H])C([H])([H])C([H])(n3nc(-c4c([H])c([H])c(Oc5c([H])c([H])c(F)c([H])c5F)c([H])c4[H])c(C(=O)N([H])[H])c3N([H])[H])C2([H])[H])(C([H])([H])[H])C([H])([H])[H])n1

$$$$
63:0:0
     RDKit          3D

102110  0  0  1  0  0  0  0  0999 V2000
  -30.1640  -23.3980   20.3120 N   0  0  1  0  0  4  0  0  0  0  0  0
  -29.4190  -23.8660   19.8170 H   0  0  0  0  0  0  0  0  0  0  0  0
  -30.1120  -23.9710   21.6840 C   0  0  0  0  0  2  0  0  0  0  0  0
  -29.8790  -25.4960   21.6500 C   0  0  0  0  0  2  0  0  0  0  0  0
  -28.4370  -25.8820   21.2760 C   0  0  0  0  0  2  0  0  0  0  0  0
  -28.4390  -26.8630   20.2450 O   0  0  0  0  0  0  0  0  0  0  0  0
  -24.5890  -31.9700   23.2830 C   0  0  0  0  0  0  0  0  0  0  0  0
  -27.2720  -27.5780   20.2120 C   0  0  0  0  0  0  0  0  0  0  0  0
  -23.3920  -30.5550   21.6410 C   0  0  0  0  0  3  0  0  0  0  0  0
  -24.8600  -29.0300   20.2160 C   0  0  0  0  0  0  0  0  0  0  0  0
  -25.9090  -30.9450   21.4400 C   0  0  0  0  0  2  0  0  0  0  0  0
  -26.0080  -29.5770   20.8010 C   0  0  0  0  0  0  0  0  0  0  0  0
  -27.2190  -28.8570   20.7960 C   0  0  0  0  0  3  0  0  0  0  0  0
  -26.1140  -27.0280   19.6230 C   0  0  0  0  0  3  0  0  0  0  0  0
  -24.9060  -27.7540   19.6220 C   0  0  0  0  0  3  0  0  0  0  0  0
  -23.6030  -29.8700   20.2640 C   0  0  0  0  0  2  0  0  0  0  0  0
  -24.6480  -31.1700   22.1810 N   0  0  0  0  0  0  0  0  0  0  0  0
  -23.5060  -32.2380   23.8210 O   0  0  0  0  0  0  0  0  0  0  0  0
  -22.7460  -29.5330   22.6030 C   0  0  0  0  0  0  0  0  0  0  0  0
  -21.4230  -29.3480   22.4780 N   0  0  0  0  0  0  0  0  0  0  0  0
  -23.4330  -28.9080   23.4150 O   0  0  0  0  0  0  0  0  0  0  0  0
  -20.9310  -29.9090   21.7950 H   0  0  0  0  0  0  0  0  0  0  0  0
  -18.0470  -28.1600   22.9720 C   0  0  0  0  0  0  0  0  0  0  0  0
  -20.6050  -28.4070   23.2420 C   0  0  0  0  0  3  0  0  0  0  0  0
  -20.7030  -26.9790   22.6590 C   0  0  0  0  0  2  0  0  0  0  0  0
  -19.5980  -26.6630   21.6470 C   0  0  0  0  0  2  0  0  0  0  0  0
  -18.2170  -26.8110   22.2930 C   0  0  0  0  0  2  0  0  0  0  0  0
  -19.1690  -28.9160   23.4030 C   0  0  0  0  0  0  0  0  0  0  0  0
  -18.9570  -30.1780   23.9980 C   0  0  0  0  0  3  0  0  0  0  0  0
  -17.6570  -30.6850   24.1680 C   0  0  0  0  0  3  0  0  0  0  0  0
  -16.5480  -29.9250   23.7580 C   0  0  0  0  0  3  0  0  0  0  0  0
  -16.7450  -28.6640   23.1650 C   0  0  0  0  0  3  0  0  0  0  0  0
  -25.8730  -32.6060   23.9050 C   0  0  0  0  0  3  0  0  0  0  0  0
  -25.5650  -34.0060   24.2220 N   0  0  0  0  0  0  0  0  0  0  0  0
  -25.9110  -35.0510   23.4590 C   0  0  0  0  0  0  0  0  0  0  0  0
  -26.5930  -34.9380   22.4360 O   0  0  0  0  0  0  0  0  0  0  0  0
  -24.9640  -34.1700   25.0150 H   0  0  0  0  0  0  0  0  0  0  0  0
  -24.1960  -36.8470   23.0570 C   0  0  0  0  0  1  0  0  0  0  0  0
  -25.4200  -36.4440   23.8980 C   0  0  0  0  0  3  0  0  0  0  0  0
  -27.5400  -37.3220   24.7680 C   0  0  0  0  0  1  0  0  0  0  0  0
  -26.4580  -37.4930   23.8020 N   0  0  0  0  0  0  0  0  0  0  0  0
  -26.0540  -38.4160   23.9390 H   0  0  0  0  0  0  0  0  0  0  0  0
  -26.3890  -31.8430   25.1860 C   0  0  1  0  0  0  0  0  0  0  0  0
  -25.2920  -31.6070   26.2500 C   0  0  0  0  0  1  0  0  0  0  0  0
  -26.9810  -30.4690   24.7970 C   0  0  0  0  0  1  0  0  0  0  0  0
  -27.5380  -32.6420   25.8450 C   0  0  0  0  0  1  0  0  0  0  0  0
  -31.3880  -23.7570   19.5480 C   0  0  0  0  0  2  0  0  0  0  0  0
  -31.0430  -24.6630   18.3460 C   0  0  0  0  0  2  0  0  0  0  0  0
  -31.7320  -26.1130   16.4240 C   0  0  0  0  0  1  0  0  0  0  0  0
  -32.7690  -26.5100   18.6500 C   0  0  0  0  0  1  0  0  0  0  0  0
  -33.3660  -24.4390   17.3300 C   0  0  0  0  0  1  0  0  0  0  0  0
  -32.2340  -25.4160   17.7030 C   0  0  1  0  0  0  0  0  0  0  0  0
  -29.7740  -21.9670   20.2130 C   0  0  0  0  0  2  0  0  0  0  0  0
  -30.7160  -20.9720   20.9330 C   0  0  0  0  0  2  0  0  0  0  0  0
  -29.8480  -17.6000   20.5710 C   0  0  0  0  0  0  0  0  0  0  0  0
  -30.1400  -17.9820   19.2230 C   0  0  0  0  0  0  0  0  0  0  0  0
  -30.0410  -18.6310   21.3630 N   0  0  0  0  0  0  0  0  0  0  0  0
  -30.5400  -19.2320   19.2140 N   0  0  0  0  0  0  0  0  0  0  0  0
  -30.4380  -19.6100   20.5110 N   0  0  0  0  0  0  0  0  0  0  0  0
  -30.0350  -17.1900   17.9400 C   0  0  1  0  0  0  0  0  0  0  0  0
  -29.3580  -16.0570   18.1060 F   0  0  0  0  0  0  0  0  0  0  0  0
  -29.3960  -17.8830   16.9970 F   0  0  0  0  0  0  0  0  0  0  0  0
  -31.2390  -16.8780   17.4610 F   0  0  0  0  0  0  0  0  0  0  0  0
  -29.3600  -16.2800   21.1240 C   0  0  0  0  0  2  0  0  0  0  0  0
  -30.7760  -14.4630   20.2840 C   0  0  0  0  0  0  0  0  0  0  0  0
  -30.3510  -12.3700   19.0400 C   0  0  0  0  0  2  0  0  0  0  0  0
  -29.3690  -12.5700   17.8710 C   0  0  0  0  0  2  0  0  0  0  0  0
  -27.9110  -12.4440   18.3520 C   0  0  0  0  0  2  0  0  0  0  0  0
  -27.6240  -13.2820   19.6240 C   0  0  0  0  0  3  0  0  0  0  0  0
  -28.7130  -13.0530   20.6980 C   0  0  0  0  0  2  0  0  0  0  0  0
  -30.0290  -13.3390   20.0990 N   0  0  0  0  0  0  0  0  0  0  0  0
  -31.8030  -14.6930   19.6400 O   0  0  0  0  0  0  0  0  0  0  0  0
  -31.4400  -15.6620   22.2810 C   0  0  0  0  0  1  0  0  0  0  0  0
  -30.4170  -15.2710   21.3060 N   0  0  0  0  0  0  0  0  0  0  0  0
  -25.2640  -13.9200   20.4280 C   0  0  0  0  0  0  0  0  0  0  0  0
  -24.2010  -13.1590   20.8320 C   0  0  0  0  0  0  0  0  0  0  0  0
  -24.6440  -11.8020   20.7700 C   0  0  0  0  0  0  0  0  0  0  0  0
  -26.2880  -13.0270   20.1490 N   0  0  0  0  0  0  0  0  0  0  0  0
  -25.9200  -11.7480   20.4130 N   0  0  0  0  0  0  0  0  0  0  0  0
  -23.9120  -10.5470   20.9720 C   0  0  0  0  0  0  0  0  0  0  0  0
  -24.3460   -9.5830   21.9100 C   0  0  0  0  0  3  0  0  0  0  0  0
  -23.6150   -8.3900   22.0990 C   0  0  0  0  0  3  0  0  0  0  0  0
  -22.4380   -8.1540   21.3520 C   0  0  0  0  0  0  0  0  0  0  0  0
  -22.0230   -9.1060   20.4040 C   0  0  0  0  0  3  0  0  0  0  0  0
  -22.7540  -10.2900   20.2120 C   0  0  0  0  0  3  0  0  0  0  0  0
  -21.6790   -7.0130   21.4500 O   0  0  0  0  0  0  0  0  0  0  0  0
  -21.6140   -6.2890   22.6150 C   0  0  0  0  0  0  0  0  0  0  0  0
  -21.1680   -6.8650   23.8250 C   0  0  0  0  0  3  0  0  0  0  0  0
  -21.0510   -6.0680   24.9810 C   0  0  0  0  0  3  0  0  0  0  0  0
  -21.3700   -4.6980   24.9280 C   0  0  0  0  0  0  0  0  0  0  0  0
  -21.8070   -4.1220   23.7220 C   0  0  0  0  0  3  0  0  0  0  0  0
  -21.9260   -4.9160   22.5680 C   0  0  0  0  0  0  0  0  0  0  0  0
  -22.3280   -4.3520   21.4030 F   0  0  0  0  0  0  0  0  0  0  0  0
  -21.2490   -3.9300   26.0360 F   0  0  0  0  0  0  0  0  0  0  0  0
  -22.8210  -13.6500   21.1620 C   0  0  0  0  0  0  0  0  0  0  0  0
  -22.1140  -12.9470   22.0390 N   0  0  0  0  0  0  0  0  0  0  0  0
  -22.3780  -14.6890   20.6750 O   0  0  0  0  0  0  0  0  0  0  0  0
  -22.4860  -12.1040   22.4520 H   0  0  0  0  0  0  0  0  0  0  0  0
  -21.1880  -13.2550   22.3010 H   0  0  0  0  0  0  0  0  0  0  0  0
  -25.4390  -15.2910   20.2570 N   0  0  0  0  0  0  0  0  0  0  0  0
  -24.6720  -15.9440   20.3830 H   0  0  0  0  0  0  0  0  0  0  0  0
  -26.2570  -15.7200   19.8470 H   0  0  0  0  0  0  0  0  0  0  0  0
  1  3  1  0
  1  2  1  6
  4  3  1  0
  5  4  1  0
  6  5  1  0
  7 18  2  0
  8  6  1  0
  8 13  1  0
  9 17  1  0
  9 19  1  0
 10 16  1  0
 10 12  1  0
 11 17  1  0
 12 11  1  0
 13 12  2  0
 14  8  2  0
 15 14  1  0
 15 10  2  0
 16  9  1  0
 17  7  1  0
 19 21  2  0
 20 19  1  0
 22 20  1  0
 23 32  2  0
 23 28  1  0
 24 20  1  0
 24 28  1  0
 25 24  1  0
 26 27  1  0
 26 25  1  0
 27 23  1  0
 28 29  2  0
 29 30  1  0
 31 30  2  0
 32 31  1  0
 33  7  1  0
 33 34  1  0
 33 43  1  0
 34 37  1  0
 35 39  1  0
 35 34  1  0
 36 35  2  0
 39 38  1  0
 41 39  1  0
 41 42  1  0
 41 40  1  0
 43 46  1  1
 43 44  1  0
 45 43  1  0
 47  1  1  0
 48 47  1  0
 52 49  1  6
 51 52  1  0
 52 48  1  0
 52 50  1  0
 53  1  1  0
 53 54  1  0
 55 64  1  0
 55 57  2  0
 56 55  1  0
 58 56  2  0
 58 59  1  0
 59 54  1  0
 59 57  1  0
 60 61  1  1
 60 56  1  0
 62 60  1  0
 63 60  1  0
 64 74  1  0
 65 74  1  0
 66 71  1  0
 67 68  1  0
 67 66  1  0
 69 68  1  0
 69 78  1  0
 69 70  1  0
 71 65  1  0
 71 70  1  0
 72 65  2  0
 74 73  1  0
 75 76  2  0
 76 95  1  0
 77 76  1  0
 77 80  1  0
 78 79  1  0
 78 75  1  0
 79 77  2  0
 80 81  1  0
 81 82  2  0
 83 86  1  0
 83 82  1  0
 84 83  2  0
 85 84  1  0
 85 80  2  0
 86 87  1  0
 87 88  1  0
 88 89  2  0
 90 89  1  0
 90 94  1  0
 91 90  2  0
 92 87  2  0
 92 91  1  0
 93 92  1  0
 95 96  1  0
 96 99  1  0
 96 98  1  0
 97 95  2  0
100101  1  0
100 75  1  0
102100  1  0
M  ISO  4   5 101   6 101  65 100  74 100
M  END
>  <TORSDO>  (62) 
F 27

>  <SCORE>  (62) 
-10.704

>  <name>  (62) 
63

>  <ligand_id>  (62) 
63

>  <original_smiles>  (62) 
[H]c1c([H])c([H])c2c(c1[H])C([H])([H])C([H])([H])C([H])([H])C2([H])N([H])C(=O)C1([H])N(C(=O)C([H])(N([H])C(=O)C([H])(N([H])C([H])([H])[H])C([H])([H])[H])C(C([H])([H])[H])(C([H])([H])[H])C([H])([H])[H])C([H])([H])c2c([H])c(OC([H])([H])C([H])([H])C([H])([H])[N+]([H])(C([H])([H])C([H])([H])n3nc(C(F)(F)F)c(C([H])([H])N(C(=O)N4C([H])([H])C([H])([H])C([H])([H])C([H])(n5nc(-c6c([H])c([H])c(Oc7c([H])c([H])c(F)c([H])c7F)c([H])c6[H])c(C(=O)N([H])[H])c5N([H])[H])C4([H])[H])C([H])([H])[H])n3)C([H])([H])C([H])([H])C(C([H])([H])[H])(C([H])([H])[H])C([H])([H])[H])c([H])c([H])c2C1([H])[H]

>  <smiles>  (62) 
[H]c1c([H])c([H])c2c(c1[H])C([H])([H])C([H])([H])C([H])([H])C2([H])N([H])C(=O)C1([H])N(C(=O)C([H])(N([H])C(=O)C([H])(N([H])C([H])([H])[H])C([H])([H])[H])C(C([H])([H])[H])(C([H])([H])[H])C([H])([H])[H])C([H])([H])c2c([H])c(OC([H])([H])C([H])([H])C([H])([H])[N+]([H])(C([H])([H])C([H])([H])n3nc(C(F)(F)F)c(C([H])([H])N(C(=O)N4C([H])([H])C([H])([H])C([H])([H])C([H])(n5nc(-c6c([H])c([H])c(Oc7c([H])c([H])c(F)c([H])c7F)c([H])c6[H])c(C(=O)N([H])[H])c5N([H])[H])C4([H])[H])C([H])([H])[H])n3)C([H])([H])C([H])([H])C(C([H])([H])[H])(C([H])([H])[H])C([H])([H])[H])c([H])c([H])c2C1([H])[H]

$$$$
65:0:0
     RDKit          3D

 91 99  0  0  1  0  0  0  0  0999 V2000
  -29.6860  -18.6340   20.3960 C   0  0  0  0  0  0  0  0  0  0  0  0
  -30.6490  -20.5280   20.4950 C   0  0  0  0  0  3  0  0  0  0  0  0
  -31.6930  -21.5890   20.5690 C   0  0  0  0  0  1  0  0  0  0  0  0
  -30.9300  -19.2010   20.4910 N   0  0  0  0  0  0  0  0  0  0  0  0
  -28.7170  -19.5870   20.3070 N   0  0  0  0  0  2  0  0  0  0  0  0
  -29.3360  -20.8270   20.4090 N   0  0  0  0  0  0  0  0  0  0  0  0
  -27.9860  -16.8690   20.7740 C   0  0  0  0  0  1  0  0  0  0  0  0
  -29.3850  -16.8500   18.6440 C   0  0  0  0  0  1  0  0  0  0  0  0
  -29.3800  -17.0820   20.1710 C   0  0  1  0  0  0  0  0  0  0  0  0
  -30.7390  -14.7900   20.3550 C   0  0  0  0  0  0  0  0  0  0  0  0
  -30.4160  -12.5330   19.3170 C   0  0  0  0  0  2  0  0  0  0  0  0
  -29.4780  -12.5830   18.0930 C   0  0  0  0  0  2  0  0  0  0  0  0
  -28.0200  -12.3900   18.5440 C   0  0  0  0  0  2  0  0  0  0  0  0
  -27.6420  -13.3050   19.7360 C   0  0  0  0  0  3  0  0  0  0  0  0
  -28.7150  -13.2650   20.8560 C   0  0  0  0  0  2  0  0  0  0  0  0
  -30.0090  -13.6160   20.2510 N   0  0  0  0  0  0  0  0  0  0  0  0
  -31.9060  -14.7980   19.9670 O   0  0  0  0  0  0  0  0  0  0  0  0
  -30.2260  -15.9890   20.8300 N   0  0  0  0  0  0  0  0  0  0  0  0
  -30.9800  -16.4750   21.2970 H   0  0  0  0  0  0  0  0  0  0  0  0
  -25.2330  -13.8810   20.4240 C   0  0  0  0  0  0  0  0  0  0  0  0
  -24.1800  -13.1090   20.8170 C   0  0  0  0  0  0  0  0  0  0  0  0
  -24.6570  -11.7620   20.8090 C   0  0  0  0  0  0  0  0  0  0  0  0
  -26.2970  -13.0140   20.2280 N   0  0  0  0  0  0  0  0  0  0  0  0
  -25.9510  -11.7320   20.5150 N   0  0  0  0  0  0  0  0  0  0  0  0
  -23.9380  -10.4980   21.0060 C   0  0  0  0  0  0  0  0  0  0  0  0
  -24.3770   -9.5340   21.9380 C   0  0  0  0  0  3  0  0  0  0  0  0
  -23.6540   -8.3370   22.1250 C   0  0  0  0  0  3  0  0  0  0  0  0
  -22.4770   -8.0950   21.3770 C   0  0  0  0  0  0  0  0  0  0  0  0
  -22.0570   -9.0460   20.4300 C   0  0  0  0  0  3  0  0  0  0  0  0
  -22.7810  -10.2350   20.2430 C   0  0  0  0  0  3  0  0  0  0  0  0
  -21.7220   -6.9510   21.4750 O   0  0  0  0  0  0  0  0  0  0  0  0
  -21.6870   -6.2120   22.6310 C   0  0  0  0  0  0  0  0  0  0  0  0
  -21.2780   -6.7700   23.8630 C   0  0  0  0  0  3  0  0  0  0  0  0
  -21.1910   -5.9560   25.0090 C   0  0  0  0  0  3  0  0  0  0  0  0
  -21.4990   -4.5840   24.9250 C   0  0  0  0  0  0  0  0  0  0  0  0
  -21.9010   -4.0260   23.6970 C   0  0  0  0  0  3  0  0  0  0  0  0
  -21.9910   -4.8370   22.5540 C   0  0  0  0  0  0  0  0  0  0  0  0
  -22.3580   -4.2900   21.3690 F   0  0  0  0  0  0  0  0  0  0  0  0
  -21.4070   -3.8010   26.0240 F   0  0  0  0  0  0  0  0  0  0  0  0
  -22.7800  -13.5810   21.0720 C   0  0  0  0  0  0  0  0  0  0  0  0
  -22.0530  -12.8930   21.9450 N   0  0  0  0  0  0  0  0  0  0  0  0
  -22.3390  -14.5950   20.5330 O   0  0  0  0  0  0  0  0  0  0  0  0
  -22.4260  -12.0700   22.3930 H   0  0  0  0  0  0  0  0  0  0  0  0
  -21.1130  -13.1910   22.1660 H   0  0  0  0  0  0  0  0  0  0  0  0
  -25.3530  -15.2430   20.1740 N   0  0  0  0  0  0  0  0  0  0  0  0
  -24.5590  -15.8740   20.2020 H   0  0  0  0  0  0  0  0  0  0  0  0
  -26.1680  -15.6530   19.7410 H   0  0  0  0  0  0  0  0  0  0  0  0
  -28.4970  -22.1210   20.4240 C   0  0  0  0  0  2  0  0  0  0  0  0
  -29.0750  -23.6470   20.4010 C   0  0  0  0  0  3  0  0  0  0  0  0
  -28.0010  -24.8640   20.2490 C   0  0  0  0  0  3  0  0  0  0  0  0
  -28.2930  -26.3490   20.3300 O   0  0  0  0  0  0  0  0  0  0  0  0
  -24.6190  -31.9380   23.2490 C   0  0  0  0  0  0  0  0  0  0  0  0
  -27.2080  -27.2690   20.2580 C   0  0  0  0  0  0  0  0  0  0  0  0
  -23.4200  -30.5330   21.6180 C   0  0  0  0  0  3  0  0  0  0  0  0
  -24.8680  -28.9560   20.2130 C   0  0  0  0  0  0  0  0  0  0  0  0
  -25.9700  -30.8110   21.4540 C   0  0  0  0  0  2  0  0  0  0  0  0
  -26.0430  -29.4220   20.8170 C   0  0  0  0  0  0  0  0  0  0  0  0
  -27.2160  -28.5940   20.8240 C   0  0  0  0  0  3  0  0  0  0  0  0
  -26.0040  -26.8820   19.6240 C   0  0  0  0  0  3  0  0  0  0  0  0
  -24.8560  -27.6950   19.6040 C   0  0  0  0  0  3  0  0  0  0  0  0
  -23.6430  -29.8500   20.2440 C   0  0  0  0  0  2  0  0  0  0  0  0
  -24.6900  -31.1140   22.1620 N   0  0  0  0  0  0  0  0  0  0  0  0
  -23.5340  -32.2280   23.7730 O   0  0  0  0  0  0  0  0  0  0  0  0
  -22.7400  -29.5300   22.5830 C   0  0  0  0  0  0  0  0  0  0  0  0
  -21.4120  -29.3640   22.4550 N   0  0  0  0  0  0  0  0  0  0  0  0
  -23.4090  -28.9040   23.4100 O   0  0  0  0  0  0  0  0  0  0  0  0
  -20.9280  -29.9190   21.7610 H   0  0  0  0  0  0  0  0  0  0  0  0
  -18.0240  -28.1970   22.9720 C   0  0  0  0  0  0  0  0  0  0  0  0
  -20.5860  -28.4410   23.2350 C   0  0  0  0  0  3  0  0  0  0  0  0
  -20.6760  -27.0020   22.6760 C   0  0  0  0  0  2  0  0  0  0  0  0
  -19.5710  -26.6770   21.6670 C   0  0  0  0  0  2  0  0  0  0  0  0
  -18.1900  -26.8400   22.3070 C   0  0  0  0  0  2  0  0  0  0  0  0
  -19.1490  -28.9540   23.3950 C   0  0  0  0  0  0  0  0  0  0  0  0
  -18.9370  -30.2220   23.9790 C   0  0  0  0  0  3  0  0  0  0  0  0
  -17.6370  -30.7340   24.1410 C   0  0  0  0  0  3  0  0  0  0  0  0
  -16.5270  -29.9760   23.7310 C   0  0  0  0  0  3  0  0  0  0  0  0
  -16.7210  -28.7090   23.1530 C   0  0  0  0  0  3  0  0  0  0  0  0
  -25.8990  -32.5740   23.8720 C   0  0  0  0  0  3  0  0  0  0  0  0
  -26.4090  -31.8110   25.1570 C   0  0  1  0  0  0  0  0  0  0  0  0
  -25.3080  -31.5870   26.2210 C   0  0  0  0  0  1  0  0  0  0  0  0
  -26.9910  -30.4280   24.7820 C   0  0  0  0  0  1  0  0  0  0  0  0
  -27.5570  -32.6110   25.8170 C   0  0  0  0  0  1  0  0  0  0  0  0
  -25.5900  -33.9740   24.1950 N   0  0  0  0  0  0  0  0  0  0  0  0
  -25.9220  -35.0240   23.4320 C   0  0  0  0  0  0  0  0  0  0  0  0
  -26.5900  -34.9150   22.4010 O   0  0  0  0  0  0  0  0  0  0  0  0
  -24.9990  -34.1340   24.9970 H   0  0  0  0  0  0  0  0  0  0  0  0
  -24.2000  -36.8240   23.0680 C   0  0  0  0  0  1  0  0  0  0  0  0
  -25.4370  -36.4160   23.8840 C   0  0  0  0  0  3  0  0  0  0  0  0
  -27.5750  -37.2990   24.7150 C   0  0  0  0  0  1  0  0  0  0  0  0
  -26.4750  -37.4650   23.7690 N   0  0  0  0  0  0  0  0  0  0  0  0
  -26.0720  -38.3870   23.9100 H   0  0  0  0  0  0  0  0  0  0  0  0
  1  4  2  0
  2  3  1  0
  4  2  1  0
  5  1  1  0
  5  6  1  0
  6 48  1  0
  6  2  1  0
  9  8  1  6
  9  1  1  0
  9  7  1  0
  9 18  1  0
 10 18  1  0
 11 16  1  0
 12 13  1  0
 12 11  1  0
 14 13  1  0
 14 23  1  0
 14 15  1  0
 16 10  1  0
 16 15  1  0
 17 10  2  0
 18 19  1  0
 20 21  2  0
 21 40  1  0
 22 21  1  0
 22 25  1  0
 23 20  1  0
 23 24  1  0
 24 22  2  0
 25 26  1  0
 26 27  2  0
 28 31  1  0
 28 27  1  0
 29 28  2  0
 30 29  1  0
 30 25  2  0
 31 32  1  0
 32 33  1  0
 33 34  2  0
 35 34  1  0
 35 39  1  0
 36 35  2  0
 37 32  2  0
 37 36  1  0
 38 37  1  0
 40 41  1  0
 41 44  1  0
 41 43  1  0
 42 40  2  0
 45 46  1  0
 45 20  1  0
 47 45  1  0
 49 48  1  0
 50 51  1  0
 50 49  2  0
 52 63  2  0
 53 51  1  0
 53 58  1  0
 54 62  1  0
 54 64  1  0
 55 61  1  0
 55 57  1  0
 56 62  1  0
 57 58  2  0
 57 56  1  0
 59 53  2  0
 60 59  1  0
 60 55  2  0
 61 54  1  0
 62 52  1  0
 64 66  2  0
 65 64  1  0
 67 65  1  0
 68 77  2  0
 68 73  1  0
 69 65  1  0
 69 73  1  0
 70 69  1  0
 71 72  1  0
 71 70  1  0
 72 68  1  0
 73 74  2  0
 74 75  1  0
 76 75  2  0
 77 76  1  0
 78 52  1  0
 78 83  1  0
 78 79  1  0
 79 82  1  1
 79 80  1  0
 81 79  1  0
 83 86  1  0
 84 88  1  0
 84 83  1  0
 85 84  2  0
 88 87  1  0
 90 88  1  0
 90 91  1  0
 90 89  1  0
M  ISO  4  10 100  18 100  50 101  51 101
M  END
>  <TORSDO>  (63) 
F 20

>  <SCORE>  (63) 
-13.647

>  <name>  (63) 
65

>  <ligand_id>  (63) 
65

>  <original_smiles>  (63) 
[H]c1c([H])c([H])c2c(c1[H])C([H])([H])C([H])([H])C([H])([H])C2([H])N([H])C(=O)C1([H])N(C(=O)C([H])(N([H])C(=O)C([H])(N([H])C([H])([H])[H])C([H])([H])[H])C(C([H])([H])[H])(C([H])([H])[H])C([H])([H])[H])C([H])([H])c2c([H])c(OC([H])([H])C([H])([H])C([H])([H])n3nc(C(N([H])C(=O)N4C([H])([H])C([H])([H])C([H])([H])C([H])(n5nc(-c6c([H])c([H])c(Oc7c([H])c([H])c(F)c([H])c7F)c([H])c6[H])c(C(=O)N([H])[H])c5N([H])[H])C4([H])[H])(C([H])([H])[H])C([H])([H])[H])nc3C([H])([H])[H])c([H])c([H])c2C1([H])[H]

>  <smiles>  (63) 
[H]c1c([H])c([H])c2c(c1[H])C([H])([H])C([H])([H])C([H])([H])C2([H])N([H])C(=O)C1([H])N(C(=O)C([H])(N([H])C(=O)C([H])(N([H])C([H])([H])[H])C([H])([H])[H])C(C([H])([H])[H])(C([H])([H])[H])C([H])([H])[H])C([H])([H])c2c([H])c(OC([H])([H])C([H])([H])C([H])([H])n3nc(C(N([H])C(=O)N4C([H])([H])C([H])([H])C([H])([H])C([H])(n5nc(-c6c([H])c([H])c(Oc7c([H])c([H])c(F)c([H])c7F)c([H])c6[H])c(C(=O)N([H])[H])c5N([H])[H])C4([H])[H])(C([H])([H])[H])C([H])([H])[H])nc3C([H])([H])[H])c([H])c([H])c2C1([H])[H]

$$$$
66:0:0
     RDKit          3D

 96104  0  0  1  0  0  0  0  0999 V2000
  -31.2000  -22.6170   19.3760 C   0  0  0  0  0  1  0  0  0  0  0  0
  -29.6880  -22.3410   19.5980 C   0  0  2  0  0  0  0  0  0  0  0  0
  -29.4420  -20.7550   17.5190 C   0  0  0  0  0  1  0  0  0  0  0  0
  -29.3850  -23.1700   17.1290 C   0  0  0  0  0  1  0  0  0  0  0  0
  -27.4600  -22.0090   18.2710 C   0  0  0  0  0  1  0  0  0  0  0  0
  -29.0030  -22.0890   18.1770 C   0  0  2  0  0  0  0  0  0  0  0  0
  -29.1640  -23.7020   20.3840 C   0  0  0  0  0  2  0  0  0  0  0  0
  -28.1520  -24.8520   19.8490 C   0  0  0  0  0  2  0  0  0  0  0  0
  -28.2870  -26.2900   20.2470 O   0  0  0  0  0  0  0  0  0  0  0  0
  -24.5320  -31.7870   23.1090 C   0  0  0  0  0  0  0  0  0  0  0  0
  -27.1760  -27.1630   20.1420 C   0  0  0  0  0  0  0  0  0  0  0  0
  -23.3480  -30.3720   21.4710 C   0  0  0  0  0  3  0  0  0  0  0  0
  -24.8160  -28.8020   20.0770 C   0  0  0  0  0  0  0  0  0  0  0  0
  -25.8930  -30.6740   21.3230 C   0  0  0  0  0  2  0  0  0  0  0  0
  -25.9780  -29.2870   20.6920 C   0  0  0  0  0  0  0  0  0  0  0  0
  -27.1570  -28.4760   20.7170 C   0  0  0  0  0  3  0  0  0  0  0  0
  -25.9920  -26.7490   19.4870 C   0  0  0  0  0  3  0  0  0  0  0  0
  -24.8280  -27.5400   19.4660 C   0  0  0  0  0  3  0  0  0  0  0  0
  -23.5800  -29.6810   20.1010 C   0  0  0  0  0  2  0  0  0  0  0  0
  -24.6090  -30.9630   22.0240 N   0  0  0  0  0  0  0  0  0  0  0  0
  -23.4420  -32.0730   23.6270 O   0  0  0  0  0  0  0  0  0  0  0  0
  -22.6680  -29.3680   22.4320 C   0  0  0  0  0  0  0  0  0  0  0  0
  -21.3410  -29.2060   22.3000 N   0  0  0  0  0  0  0  0  0  0  0  0
  -23.3350  -28.7400   23.2580 O   0  0  0  0  0  0  0  0  0  0  0  0
  -20.8600  -29.7630   21.6080 H   0  0  0  0  0  0  0  0  0  0  0  0
  -17.9480  -28.0550   22.7970 C   0  0  0  0  0  0  0  0  0  0  0  0
  -20.5090  -28.2800   23.0730 C   0  0  0  0  0  3  0  0  0  0  0  0
  -20.5910  -26.8460   22.5020 C   0  0  0  0  0  2  0  0  0  0  0  0
  -19.4880  -26.5350   21.4870 C   0  0  0  0  0  2  0  0  0  0  0  0
  -18.1070  -26.7010   22.1270 C   0  0  0  0  0  2  0  0  0  0  0  0
  -19.0750  -28.8030   23.2280 C   0  0  0  0  0  0  0  0  0  0  0  0
  -18.8710  -30.0710   23.8140 C   0  0  0  0  0  3  0  0  0  0  0  0
  -17.5730  -30.5890   23.9770 C   0  0  0  0  0  3  0  0  0  0  0  0
  -16.4590  -29.8360   23.5630 C   0  0  0  0  0  3  0  0  0  0  0  0
  -16.6470  -28.5710   22.9780 C   0  0  0  0  0  3  0  0  0  0  0  0
  -25.8080  -32.4230   23.7440 C   0  0  0  0  0  3  0  0  0  0  0  0
  -25.4830  -33.8140   24.0940 N   0  0  0  0  0  0  0  0  0  0  0  0
  -25.8020  -34.8800   23.3500 C   0  0  0  0  0  0  0  0  0  0  0  0
  -26.4710  -34.8000   22.3170 O   0  0  0  0  0  0  0  0  0  0  0  0
  -24.8850  -33.9500   24.8960 H   0  0  0  0  0  0  0  0  0  0  0  0
  -24.0550  -36.6620   23.0320 C   0  0  0  0  0  1  0  0  0  0  0  0
  -25.3020  -36.2560   23.8320 C   0  0  0  0  0  3  0  0  0  0  0  0
  -27.4300  -37.1510   24.6700 C   0  0  0  0  0  1  0  0  0  0  0  0
  -26.3230  -37.3230   23.7320 N   0  0  0  0  0  0  0  0  0  0  0  0
  -25.9080  -38.2360   23.8970 H   0  0  0  0  0  0  0  0  0  0  0  0
  -26.3280  -31.6380   25.0100 C   0  0  1  0  0  0  0  0  0  0  0  0
  -25.2360  -31.3760   26.0730 C   0  0  0  0  0  1  0  0  0  0  0  0
  -26.9270  -30.2720   24.6030 C   0  0  0  0  0  1  0  0  0  0  0  0
  -27.4690  -32.4360   25.6870 C   0  0  0  0  0  1  0  0  0  0  0  0
  -29.6080  -21.0000   20.5410 C   0  0  0  0  0  2  0  0  0  0  0  0
  -31.5130  -19.3110   19.8600 C   0  0  0  0  0  2  0  0  0  0  0  0
  -30.6030  -17.4610   20.3240 C   0  0  0  0  0  0  0  0  0  0  0  0
  -31.7910  -17.9990   19.8840 N   0  0  0  0  0  0  0  0  0  0  0  0
  -29.6680  -18.4330   20.5360 N   0  0  0  0  0  2  0  0  0  0  0  0
  -30.2680  -19.6500   20.2260 N   0  0  0  0  0  0  0  0  0  0  0  0
  -30.4100  -15.9620   20.8290 C   0  0  1  0  0  0  0  0  0  0  0  0
  -29.0840  -15.8230   20.9450 F   0  0  0  0  0  0  0  0  0  0  0  0
  -30.9710  -14.6950   19.9820 C   0  0  0  0  0  0  0  0  0  0  0  0
  -30.5520  -12.5540   18.7230 C   0  0  0  0  0  2  0  0  0  0  0  0
  -29.5000  -12.7840   17.6140 C   0  0  0  0  0  2  0  0  0  0  0  0
  -28.0720  -12.6120   18.1690 C   0  0  0  0  0  2  0  0  0  0  0  0
  -27.8600  -13.3910   19.4910 C   0  0  0  0  0  3  0  0  0  0  0  0
  -29.0130  -13.1220   20.4830 C   0  0  0  0  0  2  0  0  0  0  0  0
  -30.2730  -13.5080   19.8240 N   0  0  0  0  0  0  0  0  0  0  0  0
  -32.0670  -14.7920   19.4160 O   0  0  0  0  0  0  0  0  0  0  0  0
  -25.5690  -14.0170   20.4640 C   0  0  0  0  0  0  0  0  0  0  0  0
  -24.5090  -13.2550   20.8750 C   0  0  0  0  0  0  0  0  0  0  0  0
  -24.9170  -11.8950   20.7210 C   0  0  0  0  0  0  0  0  0  0  0  0
  -26.5540  -13.1200   20.0810 N   0  0  0  0  0  0  0  0  0  0  0  0
  -26.1720  -11.8340   20.2960 N   0  0  0  0  0  0  0  0  0  0  0  0
  -24.1670  -10.6440   20.8970 C   0  0  0  0  0  0  0  0  0  0  0  0
  -24.6240   -9.6210   21.7570 C   0  0  0  0  0  3  0  0  0  0  0  0
  -23.8750   -8.4380   21.9230 C   0  0  0  0  0  3  0  0  0  0  0  0
  -22.6510   -8.2710   21.2300 C   0  0  0  0  0  0  0  0  0  0  0  0
  -22.2140   -9.2810   20.3540 C   0  0  0  0  0  3  0  0  0  0  0  0
  -22.9650  -10.4550   20.1860 C   0  0  0  0  0  3  0  0  0  0  0  0
  -21.8680   -7.1450   21.3110 O   0  0  0  0  0  0  0  0  0  0  0  0
  -21.8380   -6.3670   22.4410 C   0  0  0  0  0  0  0  0  0  0  0  0
  -21.4900   -6.8980   23.7020 C   0  0  0  0  0  3  0  0  0  0  0  0
  -21.4050   -6.0490   24.8230 C   0  0  0  0  0  3  0  0  0  0  0  0
  -21.6570   -4.6710   24.6830 C   0  0  0  0  0  0  0  0  0  0  0  0
  -22.0000   -4.1400   23.4280 C   0  0  0  0  0  3  0  0  0  0  0  0
  -22.0850   -4.9850   22.3080 C   0  0  0  0  0  0  0  0  0  0  0  0
  -22.3940   -4.4640   21.0970 F   0  0  0  0  0  0  0  0  0  0  0  0
  -21.5660   -3.8540   25.7610 F   0  0  0  0  0  0  0  0  0  0  0  0
  -23.1600  -13.7530   21.3050 C   0  0  0  0  0  0  0  0  0  0  0  0
  -22.5010  -13.0310   22.2070 N   0  0  0  0  0  0  0  0  0  0  0  0
  -22.7030  -14.8120   20.8770 O   0  0  0  0  0  0  0  0  0  0  0  0
  -22.8870  -12.1710   22.5640 H   0  0  0  0  0  0  0  0  0  0  0  0
  -21.5990  -13.3390   22.5400 H   0  0  0  0  0  0  0  0  0  0  0  0
  -25.7770  -15.3890   20.3660 N   0  0  0  0  0  0  0  0  0  0  0  0
  -25.0760  -16.0760   20.6240 H   0  0  0  0  0  0  0  0  0  0  0  0
  -26.6650  -15.8030   20.1100 H   0  0  0  0  0  0  0  0  0  0  0  0
  -31.0100  -15.8750   22.2560 C   0  0  0  0  0  3  0  0  0  0  0  0
  -30.4350  -16.7390   23.0960 F   0  0  0  0  0  0  0  0  0  0  0  0
  -30.9590  -14.6540   22.7930 F   0  0  0  0  0  0  0  0  0  0  0  0
  2  1  1  6
  2  7  1  0
  2 50  1  0
  6  3  1  6
  4  6  1  0
  6  5  1  0
  6  2  1  0
  8  9  1  0
  8  7  1  0
 10 21  2  0
 11  9  1  0
 11 16  1  0
 12 20  1  0
 12 22  1  0
 13 19  1  0
 13 15  1  0
 14 20  1  0
 15 16  2  0
 15 14  1  0
 17 11  2  0
 18 17  1  0
 18 13  2  0
 19 12  1  0
 20 10  1  0
 22 24  2  0
 23 22  1  0
 25 23  1  0
 26 35  2  0
 26 31  1  0
 27 23  1  0
 27 31  1  0
 28 27  1  0
 29 30  1  0
 29 28  1  0
 30 26  1  0
 31 32  2  0
 32 33  1  0
 34 33  2  0
 35 34  1  0
 36 10  1  0
 36 37  1  0
 36 46  1  0
 37 40  1  0
 38 42  1  0
 38 37  1  0
 39 38  2  0
 42 41  1  0
 44 42  1  0
 44 45  1  0
 44 43  1  0
 46 49  1  1
 46 47  1  0
 48 46  1  0
 51 53  1  0
 51 55  1  0
 52 54  1  0
 52 56  1  0
 53 52  2  0
 55 54  1  0
 55 50  1  0
 56 57  1  1
 56 94  1  0
 58 56  1  0
 59 64  1  0
 60 61  1  0
 60 59  1  0
 62 61  1  0
 62 69  1  0
 62 63  1  0
 64 58  1  0
 64 63  1  0
 65 58  2  0
 66 67  2  0
 67 86  1  0
 68 67  1  0
 68 71  1  0
 69 70  1  0
 69 66  1  0
 70 68  2  0
 71 72  1  0
 72 73  2  0
 74 77  1  0
 74 73  1  0
 75 74  2  0
 76 75  1  0
 76 71  2  0
 77 78  1  0
 78 79  1  0
 79 80  2  0
 81 80  1  0
 81 85  1  0
 82 81  2  0
 83 78  2  0
 83 82  1  0
 84 83  1  0
 86 87  1  0
 87 90  1  0
 87 89  1  0
 88 86  2  0
 91 66  1  0
 91 92  1  0
 93 91  1  0
 94 96  1  0
 94 95  1  0
M  ISO  4   8 101   9 101  56 100  58 100
M  END
>  <TORSDO>  (64) 
F 23

>  <SCORE>  (64) 
-11.799

>  <name>  (64) 
66

>  <ligand_id>  (64) 
66

>  <original_smiles>  (64) 
[H]c1c([H])c([H])c2c(c1[H])C([H])([H])C([H])([H])C([H])([H])C2([H])N([H])C(=O)C1([H])N(C(=O)C([H])(N([H])C(=O)C([H])(N([H])C([H])([H])[H])C([H])([H])[H])C(C([H])([H])[H])(C([H])([H])[H])C([H])([H])[H])C([H])([H])c2c([H])c(OC([H])([H])C([H])([H])C(C([H])([H])[H])(C([H])([H])n3nc(C(F)(C(=O)N4C([H])([H])C([H])([H])C([H])([H])C([H])(n5nc(-c6c([H])c([H])c(Oc7c([H])c([H])c(F)c([H])c7F)c([H])c6[H])c(C(=O)N([H])[H])c5N([H])[H])C4([H])[H])C([H])(F)F)nc3[H])C(C([H])([H])[H])(C([H])([H])[H])C([H])([H])[H])c([H])c([H])c2C1([H])[H]

>  <smiles>  (64) 
[H]c1c([H])c([H])c2c(c1[H])C([H])([H])C([H])([H])C([H])([H])C2([H])N([H])C(=O)C1([H])N(C(=O)C([H])(N([H])C(=O)C([H])(N([H])C([H])([H])[H])C([H])([H])[H])C(C([H])([H])[H])(C([H])([H])[H])C([H])([H])[H])C([H])([H])c2c([H])c(OC([H])([H])C([H])([H])C(C([H])([H])[H])(C([H])([H])n3nc(C(F)(C(=O)N4C([H])([H])C([H])([H])C([H])([H])C([H])(n5nc(-c6c([H])c([H])c(Oc7c([H])c([H])c(F)c([H])c7F)c([H])c6[H])c(C(=O)N([H])[H])c5N([H])[H])C4([H])[H])C([H])(F)F)nc3[H])C(C([H])([H])[H])(C([H])([H])[H])C([H])([H])[H])c([H])c([H])c2C1([H])[H]

$$$$
67:0:0
     RDKit          3D

 95103  0  0  1  0  0  0  0  0999 V2000
  -28.8090  -20.3230   19.4580 C   0  0  0  0  0  0  0  0  0  0  0  0
  -29.7730  -21.3780   19.5730 C   0  0  0  0  0  0  0  0  0  0  0  0
  -30.4440  -18.6640   19.7920 C   0  0  0  0  0  0  0  0  0  0  0  0
  -31.3820  -19.7170   20.0420 C   0  0  0  0  0  0  0  0  0  0  0  0
  -29.1430  -18.9970   19.5630 N   0  0  0  0  0  0  0  0  0  0  0  0
  -31.0430  -21.0420   19.9120 N   0  0  0  0  0  0  0  0  0  0  0  0
  -32.8460  -19.4320   20.3900 C   0  0  1  0  0  0  0  0  0  0  0  0
  -32.9240  -18.4810   21.3240 F   0  0  0  0  0  0  0  0  0  0  0  0
  -33.5140  -19.0370   19.3060 F   0  0  0  0  0  0  0  0  0  0  0  0
  -33.4440  -20.5240   20.8710 F   0  0  0  0  0  0  0  0  0  0  0  0
  -26.6630  -21.3270   20.3460 C   0  0  0  0  0  1  0  0  0  0  0  0
  -27.3280  -20.5670   19.1920 C   0  0  0  0  0  2  0  0  0  0  0  0
  -29.5580  -22.8480   19.0500 C   0  0  0  0  0  2  0  0  0  0  0  0
  -29.4010  -24.1110   19.9950 C   0  0  0  0  0  2  0  0  0  0  0  0
  -29.1920  -25.4750   19.1950 C   0  0  0  0  0  2  0  0  0  0  0  0
  -28.9420  -26.7480   19.9000 O   0  0  0  0  0  0  0  0  0  0  0  0
  -24.5850  -31.5740   22.9940 C   0  0  0  0  0  0  0  0  0  0  0  0
  -27.7240  -27.4380   19.8310 C   0  0  0  0  0  0  0  0  0  0  0  0
  -23.5840  -30.1680   21.2310 C   0  0  0  0  0  3  0  0  0  0  0  0
  -25.2230  -28.8340   19.8010 C   0  0  0  0  0  0  0  0  0  0  0  0
  -26.0900  -30.7170   21.1870 C   0  0  0  0  0  2  0  0  0  0  0  0
  -26.3160  -29.3900   20.4720 C   0  0  0  0  0  0  0  0  0  0  0  0
  -27.5650  -28.7040   20.4780 C   0  0  0  0  0  3  0  0  0  0  0  0
  -26.5880  -26.9180   19.1620 C   0  0  0  0  0  3  0  0  0  0  0  0
  -25.3580  -27.6040   19.1420 C   0  0  0  0  0  3  0  0  0  0  0  0
  -23.9160  -29.5990   19.8280 C   0  0  0  0  0  2  0  0  0  0  0  0
  -24.7680  -30.8340   21.8630 N   0  0  0  0  0  0  0  0  0  0  0  0
  -23.4570  -31.7280   23.4870 O   0  0  0  0  0  0  0  0  0  0  0  0
  -22.9750  -29.0440   22.1030 C   0  0  0  0  0  0  0  0  0  0  0  0
  -21.6670  -28.7880   21.9310 N   0  0  0  0  0  0  0  0  0  0  0  0
  -23.6760  -28.4110   22.8950 O   0  0  0  0  0  0  0  0  0  0  0  0
  -21.1600  -29.3410   21.2550 H   0  0  0  0  0  0  0  0  0  0  0  0
  -18.3530  -27.4080   22.3310 C   0  0  0  0  0  0  0  0  0  0  0  0
  -20.8990  -27.7490   22.6180 C   0  0  0  0  0  3  0  0  0  0  0  0
  -21.0590  -26.3850   21.9070 C   0  0  0  0  0  2  0  0  0  0  0  0
  -19.9670  -26.1220   20.8660 C   0  0  0  0  0  2  0  0  0  0  0  0
  -18.5860  -26.1390   21.5280 C   0  0  0  0  0  2  0  0  0  0  0  0
  -19.4420  -28.1730   22.8270 C   0  0  0  0  0  0  0  0  0  0  0  0
  -19.1720  -29.3650   23.5340 C   0  0  0  0  0  3  0  0  0  0  0  0
  -17.8500  -29.7940   23.7500 C   0  0  0  0  0  3  0  0  0  0  0  0
  -16.7760  -29.0240   23.2720 C   0  0  0  0  0  3  0  0  0  0  0  0
  -17.0290  -27.8320   22.5690 C   0  0  0  0  0  3  0  0  0  0  0  0
  -25.7750  -32.2830   23.7070 C   0  0  0  0  0  3  0  0  0  0  0  0
  -25.3480  -33.6480   24.0400 N   0  0  0  0  0  0  0  0  0  0  0  0
  -25.6540  -34.7380   23.3240 C   0  0  0  0  0  0  0  0  0  0  0  0
  -26.3970  -34.7050   22.3400 O   0  0  0  0  0  0  0  0  0  0  0  0
  -24.6980  -33.7470   24.8060 H   0  0  0  0  0  0  0  0  0  0  0  0
  -23.8280  -36.4080   22.8920 C   0  0  0  0  0  1  0  0  0  0  0  0
  -25.0420  -36.0790   23.7730 C   0  0  0  0  0  3  0  0  0  0  0  0
  -27.0410  -37.1080   24.7600 C   0  0  0  0  0  1  0  0  0  0  0  0
  -26.0000  -37.2030   23.7400 N   0  0  0  0  0  0  0  0  0  0  0  0
  -25.5200  -38.0890   23.8620 H   0  0  0  0  0  0  0  0  0  0  0  0
  -26.2660  -31.5210   25.0000 C   0  0  1  0  0  0  0  0  0  0  0  0
  -25.1270  -31.1730   25.9890 C   0  0  0  0  0  1  0  0  0  0  0  0
  -26.9740  -30.2010   24.6200 C   0  0  0  0  0  1  0  0  0  0  0  0
  -27.3100  -32.3790   25.7500 C   0  0  0  0  0  1  0  0  0  0  0  0
  -30.8870  -17.1910   19.4450 C   0  0  0  0  0  2  0  0  0  0  0  0
  -31.3810  -14.8240   20.0450 C   0  0  0  0  0  0  0  0  0  0  0  0
  -30.9610  -12.6170   18.9690 C   0  0  0  0  0  2  0  0  0  0  0  0
  -29.9820  -12.7790   17.7870 C   0  0  0  0  0  2  0  0  0  0  0  0
  -28.5310  -12.6470   18.2860 C   0  0  0  0  0  2  0  0  0  0  0  0
  -28.2490  -13.5400   19.5250 C   0  0  0  0  0  3  0  0  0  0  0  0
  -29.3480  -13.3850   20.5990 C   0  0  0  0  0  2  0  0  0  0  0  0
  -30.6450  -13.6660   19.9640 N   0  0  0  0  0  0  0  0  0  0  0  0
  -32.5110  -14.8700   19.5470 O   0  0  0  0  0  0  0  0  0  0  0  0
  -30.4670  -16.3420   21.7590 C   0  0  0  0  0  1  0  0  0  0  0  0
  -30.7390  -16.0050   20.3600 N   0  0  0  0  0  0  0  0  0  0  0  0
  -25.9380  -14.2010   20.4330 C   0  0  0  0  0  0  0  0  0  0  0  0
  -24.8550  -13.4590   20.8130 C   0  0  0  0  0  0  0  0  0  0  0  0
  -25.2440  -12.0900   20.6700 C   0  0  0  0  0  0  0  0  0  0  0  0
  -26.9190  -13.2910   20.0760 N   0  0  0  0  0  0  0  0  0  0  0  0
  -26.5110  -12.0110   20.2800 N   0  0  0  0  0  0  0  0  0  0  0  0
  -24.4650  -10.8540   20.8220 C   0  0  0  0  0  0  0  0  0  0  0  0
  -24.8270   -9.8610   21.7580 C   0  0  0  0  0  3  0  0  0  0  0  0
  -24.0500   -8.6920   21.8990 C   0  0  0  0  0  3  0  0  0  0  0  0
  -22.8970   -8.5050   21.1020 C   0  0  0  0  0  0  0  0  0  0  0  0
  -22.5500   -9.4880   20.1600 C   0  0  0  0  0  3  0  0  0  0  0  0
  -23.3270  -10.6490   20.0160 C   0  0  0  0  0  3  0  0  0  0  0  0
  -22.0970   -7.3890   21.1520 O   0  0  0  0  0  0  0  0  0  0  0  0
  -21.8870   -6.7050   22.3220 C   0  0  0  0  0  0  0  0  0  0  0  0
  -21.2870   -7.3160   23.4440 C   0  0  0  0  0  3  0  0  0  0  0  0
  -21.0260   -6.5570   24.6020 C   0  0  0  0  0  3  0  0  0  0  0  0
  -21.3580   -5.1900   24.6400 C   0  0  0  0  0  0  0  0  0  0  0  0
  -21.9540   -4.5800   23.5220 C   0  0  0  0  0  3  0  0  0  0  0  0
  -22.2160   -5.3350   22.3650 C   0  0  0  0  0  0  0  0  0  0  0  0
  -22.7700   -4.7360   21.2830 F   0  0  0  0  0  0  0  0  0  0  0  0
  -21.1010   -4.4590   25.7500 F   0  0  0  0  0  0  0  0  0  0  0  0
  -23.5030  -13.9840   21.1960 C   0  0  0  0  0  0  0  0  0  0  0  0
  -22.7950  -13.2730   22.0650 N   0  0  0  0  0  0  0  0  0  0  0  0
  -23.0860  -15.0590   20.7640 O   0  0  0  0  0  0  0  0  0  0  0  0
  -23.1450  -12.4000   22.4310 H   0  0  0  0  0  0  0  0  0  0  0  0
  -21.8900  -13.6060   22.3680 H   0  0  0  0  0  0  0  0  0  0  0  0
  -26.1680  -15.5720   20.3380 N   0  0  0  0  0  0  0  0  0  0  0  0
  -25.4470  -16.2520   20.5480 H   0  0  0  0  0  0  0  0  0  0  0  0
  -27.0390  -15.9960   20.0450 H   0  0  0  0  0  0  0  0  0  0  0  0
  1  5  2  0
  1  2  1  0
  2  6  2  0
  3  4  2  0
  4  7  1  0
  5  3  1  0
  6  4  1  0
  7 10  1  1
  7  8  1  0
  9  7  1  0
 12  1  1  0
 12 11  1  0
 13  2  1  0
 13 14  1  0
 15 16  1  0
 15 14  1  0
 17 28  2  0
 18 16  1  0
 18 23  1  0
 19 27  1  0
 19 29  1  0
 20 26  1  0
 20 22  1  0
 21 27  1  0
 22 23  2  0
 22 21  1  0
 24 18  2  0
 25 24  1  0
 25 20  2  0
 26 19  1  0
 27 17  1  0
 29 31  2  0
 30 29  1  0
 32 30  1  0
 33 42  2  0
 33 38  1  0
 34 30  1  0
 34 38  1  0
 35 34  1  0
 36 37  1  0
 36 35  1  0
 37 33  1  0
 38 39  2  0
 39 40  1  0
 41 40  2  0
 42 41  1  0
 43 17  1  0
 43 44  1  0
 43 53  1  0
 44 47  1  0
 45 49  1  0
 45 44  1  0
 46 45  2  0
 49 48  1  0
 51 49  1  0
 51 52  1  0
 51 50  1  0
 53 56  1  1
 53 54  1  0
 55 53  1  0
 57  3  1  0
 57 67  1  0
 58 67  1  0
 59 64  1  0
 60 61  1  0
 60 59  1  0
 62 61  1  0
 62 71  1  0
 62 63  1  0
 64 58  1  0
 64 63  1  0
 65 58  2  0
 67 66  1  0
 68 69  2  0
 69 88  1  0
 70 69  1  0
 70 73  1  0
 71 72  1  0
 71 68  1  0
 72 70  2  0
 73 74  1  0
 74 75  2  0
 76 79  1  0
 76 75  1  0
 77 76  2  0
 78 77  1  0
 78 73  2  0
 79 80  1  0
 80 85  2  0
 80 81  1  0
 81 82  2  0
 82 83  1  0
 83 87  1  0
 84 83  2  0
 85 84  1  0
 86 85  1  0
 88 89  1  0
 89 92  1  0
 89 91  1  0
 90 88  2  0
 93 68  1  0
 93 94  1  0
 95 93  1  0
M  ISO  4  15 101  16 101  58 100  67 100
M  END
>  <TORSDO>  (65) 
F 22

>  <SCORE>  (65) 
-11.073

>  <name>  (65) 
67

>  <ligand_id>  (65) 
67

>  <original_smiles>  (65) 
[H]c1c([H])c([H])c2c(c1[H])C([H])([H])C([H])([H])C([H])([H])C2([H])N([H])C(=O)C1([H])N(C(=O)C([H])(N([H])C(=O)C([H])(N([H])C([H])([H])[H])C([H])([H])[H])C(C([H])([H])[H])(C([H])([H])[H])C([H])([H])[H])C([H])([H])c2c([H])c(OC([H])([H])C([H])([H])C([H])([H])c3nc(C(F)(F)F)c(C([H])([H])N(C(=O)N4C([H])([H])C([H])([H])C([H])([H])C([H])(n5nc(-c6c([H])c([H])c(Oc7c([H])c([H])c(F)c([H])c7F)c([H])c6[H])c(C(=O)N([H])[H])c5N([H])[H])C4([H])[H])C([H])([H])[H])nc3C([H])([H])C([H])([H])[H])c([H])c([H])c2C1([H])[H]

>  <smiles>  (65) 
[H]c1c([H])c([H])c2c(c1[H])C([H])([H])C([H])([H])C([H])([H])C2([H])N([H])C(=O)C1([H])N(C(=O)C([H])(N([H])C(=O)C([H])(N([H])C([H])([H])[H])C([H])([H])[H])C(C([H])([H])[H])(C([H])([H])[H])C([H])([H])[H])C([H])([H])c2c([H])c(OC([H])([H])C([H])([H])C([H])([H])c3nc(C(F)(F)F)c(C([H])([H])N(C(=O)N4C([H])([H])C([H])([H])C([H])([H])C([H])(n5nc(-c6c([H])c([H])c(Oc7c([H])c([H])c(F)c([H])c7F)c([H])c6[H])c(C(=O)N([H])[H])c5N([H])[H])C4([H])[H])C([H])([H])[H])nc3C([H])([H])C([H])([H])[H])c([H])c([H])c2C1([H])[H]

$$$$
68:0:0
     RDKit          3D

 97105  0  0  1  0  0  0  0  0999 V2000
  -29.0010  -20.5320   20.0400 C   0  0  0  0  0  2  0  0  0  0  0  0
  -29.2260  -18.0590   20.8670 C   0  0  0  0  0  3  0  0  0  0  0  0
  -30.1410  -17.0260   20.5040 C   0  0  0  0  0  0  0  0  0  0  0  0
  -29.5600  -19.1370   20.0890 C   0  0  0  0  0  0  0  0  0  0  0  0
  -30.9820  -17.4630   19.5730 N   0  0  0  0  0  0  0  0  0  0  0  0
  -30.6000  -18.7230   19.2740 N   0  0  0  0  0  0  0  0  0  0  0  0
  -31.2730  -15.7350   22.3260 C   0  0  0  0  0  1  0  0  0  0  0  0
  -30.2790  -15.6490   21.1530 C   0  0  0  0  0  3  0  0  0  0  0  0
  -30.7210  -14.5150   20.1760 C   0  0  0  0  0  0  0  0  0  0  0  0
  -30.3210  -12.4100   18.9370 C   0  0  0  0  0  2  0  0  0  0  0  0
  -29.3270  -12.6410   17.7830 C   0  0  0  0  0  2  0  0  0  0  0  0
  -27.8760  -12.4860   18.2780 C   0  0  0  0  0  2  0  0  0  0  0  0
  -27.6000  -13.2940   19.5750 C   0  0  0  0  0  3  0  0  0  0  0  0
  -28.7040  -13.0340   20.6230 C   0  0  0  0  0  2  0  0  0  0  0  0
  -29.9990  -13.3700   20.0090 N   0  0  0  0  0  0  0  0  0  0  0  0
  -31.7760  -14.6810   19.5510 O   0  0  0  0  0  0  0  0  0  0  0  0
  -25.2240  -13.8780   20.3720 C   0  0  0  0  0  0  0  0  0  0  0  0
  -24.1790  -13.0950   20.7870 C   0  0  0  0  0  0  0  0  0  0  0  0
  -24.6540  -11.7480   20.7430 C   0  0  0  0  0  0  0  0  0  0  0  0
  -26.2690  -13.0070   20.1070 N   0  0  0  0  0  0  0  0  0  0  0  0
  -25.9310  -11.7210   20.3830 N   0  0  0  0  0  0  0  0  0  0  0  0
  -23.9510  -10.4790   20.9670 C   0  0  0  0  0  0  0  0  0  0  0  0
  -24.3880   -9.5550   21.9430 C   0  0  0  0  0  3  0  0  0  0  0  0
  -23.6840   -8.3490   22.1530 C   0  0  0  0  0  3  0  0  0  0  0  0
  -22.5290   -8.0590   21.3890 C   0  0  0  0  0  0  0  0  0  0  0  0
  -22.1110   -8.9710   20.4040 C   0  0  0  0  0  3  0  0  0  0  0  0
  -22.8160  -10.1680   20.1920 C   0  0  0  0  0  3  0  0  0  0  0  0
  -21.7980   -6.9020   21.5070 O   0  0  0  0  0  0  0  0  0  0  0  0
  -21.6970   -6.2310   22.7000 C   0  0  0  0  0  0  0  0  0  0  0  0
  -21.1720   -6.8470   23.8570 C   0  0  0  0  0  3  0  0  0  0  0  0
  -21.0220   -6.1010   25.0430 C   0  0  0  0  0  3  0  0  0  0  0  0
  -21.3860   -4.7410   25.0730 C   0  0  0  0  0  0  0  0  0  0  0  0
  -21.9020   -4.1250   23.9180 C   0  0  0  0  0  3  0  0  0  0  0  0
  -22.0540   -4.8690   22.7350 C   0  0  0  0  0  0  0  0  0  0  0  0
  -22.5330   -4.2660   21.6200 F   0  0  0  0  0  0  0  0  0  0  0  0
  -21.2330   -4.0220   26.2090 F   0  0  0  0  0  0  0  0  0  0  0  0
  -22.7890  -13.5570   21.1160 C   0  0  0  0  0  0  0  0  0  0  0  0
  -22.1040  -12.8530   22.0090 N   0  0  0  0  0  0  0  0  0  0  0  0
  -22.3200  -14.5790   20.6160 O   0  0  0  0  0  0  0  0  0  0  0  0
  -22.4970  -12.0270   22.4360 H   0  0  0  0  0  0  0  0  0  0  0  0
  -21.1730  -13.1450   22.2720 H   0  0  0  0  0  0  0  0  0  0  0  0
  -25.3660  -15.2480   20.1820 N   0  0  0  0  0  0  0  0  0  0  0  0
  -24.5970  -15.8950   20.3180 H   0  0  0  0  0  0  0  0  0  0  0  0
  -26.2010  -15.6960   19.8260 H   0  0  0  0  0  0  0  0  0  0  0  0
  -31.3280  -19.4580   18.2380 C   0  0  0  0  0  2  0  0  0  0  0  0
  -31.4420  -17.7340   16.3540 C   0  0  0  0  0  1  0  0  0  0  0  0
  -29.3930  -19.1580   16.5820 C   0  0  0  0  0  1  0  0  0  0  0  0
  -31.5530  -20.1750   15.8370 C   0  0  0  0  0  1  0  0  0  0  0  0
  -30.9240  -19.1240   16.7700 C   0  0  1  0  0  0  0  0  0  0  0  0
  -28.1520  -20.9400   21.2590 C   0  0  0  0  0  2  0  0  0  0  0  0
  -27.5270  -22.3510   21.1380 C   0  0  0  0  0  2  0  0  0  0  0  0
  -28.9910  -23.7090   22.5930 C   0  0  0  0  0  1  0  0  0  0  0  0
  -28.5120  -23.4710   21.2060 N   0  0  2  0  0  4  0  0  0  0  0  0
  -29.3180  -23.1860   20.6690 H   0  0  0  0  0  0  0  0  0  0  0  0
  -27.9820  -24.7020   20.5450 C   0  0  0  0  0  2  0  0  0  0  0  0
  -28.8920  -25.9520   20.6560 C   0  0  0  0  0  2  0  0  0  0  0  0
  -28.6230  -26.9300   19.6470 O   0  0  0  0  0  0  0  0  0  0  0  0
  -24.6060  -31.7200   23.0780 C   0  0  0  0  0  0  0  0  0  0  0  0
  -27.4220  -27.5860   19.7530 C   0  0  0  0  0  0  0  0  0  0  0  0
  -23.4500  -30.3500   21.3730 C   0  0  0  0  0  3  0  0  0  0  0  0
  -24.9590  -28.9540   19.8660 C   0  0  0  0  0  0  0  0  0  0  0  0
  -25.9520  -30.8380   21.1760 C   0  0  0  0  0  2  0  0  0  0  0  0
  -26.0940  -29.5060   20.4740 C   0  0  0  0  0  0  0  0  0  0  0  0
  -27.3310  -28.8260   20.4200 C   0  0  0  0  0  3  0  0  0  0  0  0
  -26.2760  -27.0490   19.1320 C   0  0  0  0  0  3  0  0  0  0  0  0
  -25.0420  -27.7220   19.1960 C   0  0  0  0  0  3  0  0  0  0  0  0
  -23.6770  -29.7490   19.9600 C   0  0  0  0  0  2  0  0  0  0  0  0
  -24.6870  -30.9820   21.9340 N   0  0  0  0  0  0  0  0  0  0  0  0
  -23.5200  -31.9130   23.6410 O   0  0  0  0  0  0  0  0  0  0  0  0
  -22.8570  -29.2510   22.2840 C   0  0  0  0  0  0  0  0  0  0  0  0
  -21.5400  -29.0180   22.1590 N   0  0  0  0  0  0  0  0  0  0  0  0
  -23.5770  -28.6120   23.0560 O   0  0  0  0  0  0  0  0  0  0  0  0
  -21.0200  -29.5900   21.5090 H   0  0  0  0  0  0  0  0  0  0  0  0
  -18.2240  -27.6660   22.6320 C   0  0  0  0  0  0  0  0  0  0  0  0
  -20.7720  -28.0070   22.8860 C   0  0  0  0  0  3  0  0  0  0  0  0
  -20.9220  -26.6160   22.2280 C   0  0  0  0  0  2  0  0  0  0  0  0
  -19.8170  -26.3080   21.2120 C   0  0  0  0  0  2  0  0  0  0  0  0
  -18.4410  -26.3640   21.8800 C   0  0  0  0  0  2  0  0  0  0  0  0
  -19.3190  -28.4460   23.0900 C   0  0  0  0  0  0  0  0  0  0  0  0
  -19.0610  -29.6660   23.7530 C   0  0  0  0  0  3  0  0  0  0  0  0
  -17.7410  -30.1070   23.9620 C   0  0  0  0  0  3  0  0  0  0  0  0
  -16.6610  -29.3230   23.5210 C   0  0  0  0  0  3  0  0  0  0  0  0
  -16.9030  -28.1050   22.8620 C   0  0  0  0  0  3  0  0  0  0  0  0
  -25.8700  -32.3740   23.7180 C   0  0  0  0  0  3  0  0  0  0  0  0
  -26.4340  -31.5670   24.9520 C   0  0  1  0  0  0  0  0  0  0  0  0
  -25.3620  -31.2300   26.0150 C   0  0  0  0  0  1  0  0  0  0  0  0
  -27.0730  -30.2380   24.4870 C   0  0  0  0  0  1  0  0  0  0  0  0
  -27.5560  -32.3790   25.6410 C   0  0  0  0  0  1  0  0  0  0  0  0
  -25.5070  -33.7410   24.1130 N   0  0  0  0  0  0  0  0  0  0  0  0
  -25.7930  -34.8400   23.4010 C   0  0  0  0  0  0  0  0  0  0  0  0
  -26.4630  -34.8100   22.3650 O   0  0  0  0  0  0  0  0  0  0  0  0
  -24.9140  -33.8360   24.9230 H   0  0  0  0  0  0  0  0  0  0  0  0
  -23.9930  -36.5720   23.1250 C   0  0  0  0  0  1  0  0  0  0  0  0
  -25.2480  -36.1840   23.9210 C   0  0  0  0  0  3  0  0  0  0  0  0
  -27.3430  -37.1170   24.8000 C   0  0  0  0  0  1  0  0  0  0  0  0
  -26.2380  -37.2820   23.8600 N   0  0  0  0  0  0  0  0  0  0  0  0
  -25.7930  -38.1760   24.0470 H   0  0  0  0  0  0  0  0  0  0  0  0
  1  4  1  0
  1 50  1  0
  3  2  1  0
  3  8  1  0
  4  2  2  0
  5  3  2  0
  6  5  1  0
  6  4  1  0
  8  7  1  0
  9  8  1  0
 10 15  1  0
 11 12  1  0
 11 10  1  0
 13 12  1  0
 13 20  1  0
 13 14  1  0
 15  9  1  0
 15 14  1  0
 16  9  2  0
 17 18  2  0
 18 37  1  0
 19 18  1  0
 19 22  1  0
 20 17  1  0
 20 21  1  0
 21 19  2  0
 22 23  1  0
 23 24  2  0
 25 28  1  0
 25 24  1  0
 26 25  2  0
 27 26  1  0
 27 22  2  0
 28 29  1  0
 29 34  2  0
 29 30  1  0
 30 31  2  0
 31 32  1  0
 32 36  1  0
 33 32  2  0
 34 33  1  0
 35 34  1  0
 37 38  1  0
 38 41  1  0
 38 40  1  0
 39 37  2  0
 42 43  1  0
 42 17  1  0
 44 42  1  0
 45  6  1  0
 49 46  1  6
 47 49  1  0
 48 49  1  0
 49 45  1  0
 51 53  1  0
 51 50  1  0
 53 52  1  0
 53 54  1  6
 55 56  1  0
 55 53  1  0
 57 59  1  0
 57 56  1  0
 58 69  2  0
 59 64  1  0
 60 68  1  0
 60 70  1  0
 61 67  1  0
 61 63  1  0
 62 68  1  0
 63 62  1  0
 64 63  2  0
 65 66  1  0
 65 59  2  0
 66 61  2  0
 67 60  1  0
 68 58  1  0
 70 72  2  0
 71 70  1  0
 73 71  1  0
 74 83  2  0
 74 79  1  0
 75 71  1  0
 75 79  1  0
 76 75  1  0
 77 78  1  0
 77 76  1  0
 78 74  1  0
 79 80  2  0
 80 81  1  0
 82 81  2  0
 83 82  1  0
 84 58  1  0
 84 89  1  0
 84 85  1  0
 85 88  1  1
 85 86  1  0
 87 85  1  0
 89 92  1  0
 90 94  1  0
 90 89  1  0
 91 90  2  0
 94 93  1  0
 96 94  1  0
 96 97  1  0
 96 95  1  0
M  ISO  4   8 100   9 100  56 101  57 101
M  END
>  <TORSDO>  (66) 
F 25

>  <SCORE>  (66) 
-11.253

>  <name>  (66) 
68

>  <ligand_id>  (66) 
68

>  <original_smiles>  (66) 
[H]c1c([H])c([H])c2c(c1[H])C([H])([H])C([H])([H])C([H])([H])C2([H])N([H])C(=O)C1([H])N(C(=O)C([H])(N([H])C(=O)C([H])(N([H])C([H])([H])[H])C([H])([H])[H])C(C([H])([H])[H])(C([H])([H])[H])C([H])([H])[H])C([H])([H])c2c([H])c(OC([H])([H])C([H])([H])[N+]([H])(C([H])([H])[H])C([H])([H])C([H])([H])C([H])([H])c3c([H])c(C([H])(C(=O)N4C([H])([H])C([H])([H])C([H])([H])C([H])(n5nc(-c6c([H])c([H])c(Oc7c([H])c([H])c(F)c([H])c7F)c([H])c6[H])c(C(=O)N([H])[H])c5N([H])[H])C4([H])[H])C([H])([H])[H])nn3C([H])([H])C(C([H])([H])[H])(C([H])([H])[H])C([H])([H])[H])c([H])c([H])c2C1([H])[H]

>  <smiles>  (66) 
[H]c1c([H])c([H])c2c(c1[H])C([H])([H])C([H])([H])C([H])([H])C2([H])N([H])C(=O)C1([H])N(C(=O)C([H])(N([H])C(=O)C([H])(N([H])C([H])([H])[H])C([H])([H])[H])C(C([H])([H])[H])(C([H])([H])[H])C([H])([H])[H])C([H])([H])c2c([H])c(OC([H])([H])C([H])([H])[N+]([H])(C([H])([H])[H])C([H])([H])C([H])([H])C([H])([H])c3c([H])c(C([H])(C(=O)N4C([H])([H])C([H])([H])C([H])([H])C([H])(n5nc(-c6c([H])c([H])c(Oc7c([H])c([H])c(F)c([H])c7F)c([H])c6[H])c(C(=O)N([H])[H])c5N([H])[H])C4([H])[H])C([H])([H])[H])nn3C([H])([H])C(C([H])([H])[H])(C([H])([H])[H])C([H])([H])[H])c([H])c([H])c2C1([H])[H]

$$$$
69:0:0
     RDKit          3D

 96104  0  0  1  0  0  0  0  0999 V2000
  -28.1170  -22.3820   20.5050 C   0  0  0  0  0  2  0  0  0  0  0  0
  -28.8560  -23.6680   20.7330 N   0  0  0  0  0  4  0  0  0  0  0  0
  -28.7460  -24.1860   19.8700 H   0  0  0  0  0  0  0  0  0  0  0  0
  -29.8450  -23.4820   20.8010 H   0  0  0  0  0  0  0  0  0  0  0  0
  -29.1370  -24.2590   23.1280 C   0  0  0  0  0  1  0  0  0  0  0  0
  -26.9040  -24.5970   22.0760 C   0  0  0  0  0  1  0  0  0  0  0  0
  -28.4260  -24.6340   21.8030 C   0  0  2  0  0  0  0  0  0  0  0  0
  -28.8600  -26.0960   21.3940 C   0  0  0  0  0  2  0  0  0  0  0  0
  -28.3480  -26.5770   20.1320 O   0  0  0  0  0  0  0  0  0  0  0  0
  -24.6160  -31.8700   23.2070 C   0  0  0  0  0  0  0  0  0  0  0  0
  -27.2350  -27.4000   20.1550 C   0  0  0  0  0  0  0  0  0  0  0  0
  -23.4050  -30.4920   21.5420 C   0  0  0  0  0  3  0  0  0  0  0  0
  -24.8620  -28.9490   20.1200 C   0  0  0  0  0  0  0  0  0  0  0  0
  -25.9320  -30.8320   21.3590 C   0  0  0  0  0  2  0  0  0  0  0  0
  -26.0160  -29.4530   20.7330 C   0  0  0  0  0  0  0  0  0  0  0  0
  -27.2070  -28.6850   20.7580 C   0  0  0  0  0  3  0  0  0  0  0  0
  -26.0770  -26.9320   19.5050 C   0  0  0  0  0  3  0  0  0  0  0  0
  -24.8890  -27.6880   19.4950 C   0  0  0  0  0  3  0  0  0  0  0  0
  -23.6220  -29.8160   20.1590 C   0  0  0  0  0  2  0  0  0  0  0  0
  -24.6690  -31.0820   22.0930 N   0  0  0  0  0  0  0  0  0  0  0  0
  -23.5350  -32.1420   23.7500 O   0  0  0  0  0  0  0  0  0  0  0  0
  -22.7440  -29.4690   22.4960 C   0  0  0  0  0  0  0  0  0  0  0  0
  -21.4160  -29.3070   22.3760 N   0  0  0  0  0  0  0  0  0  0  0  0
  -23.4260  -28.8230   23.2970 O   0  0  0  0  0  0  0  0  0  0  0  0
  -20.9270  -29.8770   21.7010 H   0  0  0  0  0  0  0  0  0  0  0  0
  -18.0330  -28.1370   22.8520 C   0  0  0  0  0  0  0  0  0  0  0  0
  -20.5910  -28.3690   23.1360 C   0  0  0  0  0  3  0  0  0  0  0  0
  -20.6830  -26.9430   22.5400 C   0  0  0  0  0  2  0  0  0  0  0  0
  -19.5760  -26.6390   21.5240 C   0  0  0  0  0  2  0  0  0  0  0  0
  -18.1950  -26.7920   22.1630 C   0  0  0  0  0  2  0  0  0  0  0  0
  -19.1580  -28.8840   23.2920 C   0  0  0  0  0  0  0  0  0  0  0  0
  -18.9470  -30.1470   23.8890 C   0  0  0  0  0  3  0  0  0  0  0  0
  -17.6470  -30.6570   24.0590 C   0  0  0  0  0  3  0  0  0  0  0  0
  -16.5370  -29.9060   23.6340 C   0  0  0  0  0  3  0  0  0  0  0  0
  -16.7320  -28.6470   23.0360 C   0  0  0  0  0  3  0  0  0  0  0  0
  -25.9040  -32.4860   23.8390 C   0  0  0  0  0  3  0  0  0  0  0  0
  -25.5900  -33.8660   24.2340 N   0  0  0  0  0  0  0  0  0  0  0  0
  -25.9030  -34.9520   23.5130 C   0  0  0  0  0  0  0  0  0  0  0  0
  -26.5570  -34.8960   22.4680 O   0  0  0  0  0  0  0  0  0  0  0  0
  -25.0190  -33.9810   25.0580 H   0  0  0  0  0  0  0  0  0  0  0  0
  -24.1480  -36.7320   23.2640 C   0  0  0  0  0  1  0  0  0  0  0  0
  -25.4100  -36.3160   24.0350 C   0  0  0  0  0  3  0  0  0  0  0  0
  -27.5580  -37.1830   24.8470 C   0  0  0  0  0  1  0  0  0  0  0  0
  -26.4290  -37.3860   23.9430 N   0  0  0  0  0  0  0  0  0  0  0  0
  -26.0200  -38.2950   24.1430 H   0  0  0  0  0  0  0  0  0  0  0  0
  -26.4440  -31.6640   25.0730 C   0  0  1  0  0  0  0  0  0  0  0  0
  -25.3690  -31.3720   26.1480 C   0  0  0  0  0  1  0  0  0  0  0  0
  -27.0250  -30.3100   24.6050 C   0  0  0  0  0  1  0  0  0  0  0  0
  -27.6050  -32.4300   25.7480 C   0  0  0  0  0  1  0  0  0  0  0  0
  -28.5400  -21.1400   21.3600 C   0  0  0  0  0  2  0  0  0  0  0  0
  -27.8510  -19.8310   20.8540 C   0  0  0  0  0  2  0  0  0  0  0  0
  -29.5660  -17.8650   21.2710 C   0  0  0  0  0  3  0  0  0  0  0  0
  -29.3950  -16.5210   21.7500 C   0  0  0  0  0  0  0  0  0  0  0  0
  -28.3350  -18.4720   21.3470 C   0  0  0  0  0  0  0  0  0  0  0  0
  -26.0860  -17.6310   22.2460 C   0  0  0  0  0  1  0  0  0  0  0  0
  -28.1220  -16.3320   22.0900 N   0  0  0  0  0  0  0  0  0  0  0  0
  -27.4900  -17.5140   21.8860 N   0  0  0  0  0  0  0  0  0  0  0  0
  -30.1910  -14.6860   23.3530 C   0  0  0  0  0  1  0  0  0  0  0  0
  -31.7990  -16.1610   22.2890 C   0  0  0  0  0  1  0  0  0  0  0  0
  -30.4600  -15.4210   22.0020 C   0  0  2  0  0  0  0  0  0  0  0  0
  -30.7320  -14.4410   20.7720 C   0  0  0  0  0  0  0  0  0  0  0  0
  -30.4030  -12.3490   19.4540 C   0  0  0  0  0  2  0  0  0  0  0  0
  -29.5090  -12.5610   18.2150 C   0  0  0  0  0  2  0  0  0  0  0  0
  -28.0270  -12.3870   18.5950 C   0  0  0  0  0  2  0  0  0  0  0  0
  -27.6530  -13.2040   19.8580 C   0  0  0  0  0  3  0  0  0  0  0  0
  -28.6630  -12.9950   20.9980 C   0  0  0  0  0  2  0  0  0  0  0  0
  -30.0070  -13.3100   20.5060 N   0  0  0  0  0  0  0  0  0  0  0  0
  -31.7210  -14.6870   20.0640 O   0  0  0  0  0  0  0  0  0  0  0  0
  -25.2500  -13.8040   20.5380 C   0  0  0  0  0  0  0  0  0  0  0  0
  -24.1810  -13.0370   20.9020 C   0  0  0  0  0  0  0  0  0  0  0  0
  -24.6380  -11.6840   20.8640 C   0  0  0  0  0  0  0  0  0  0  0  0
  -26.2970  -12.9220   20.3130 N   0  0  0  0  0  0  0  0  0  0  0  0
  -25.9310  -11.6400   20.5630 N   0  0  0  0  0  0  0  0  0  0  0  0
  -23.9040  -10.4260   21.0360 C   0  0  0  0  0  0  0  0  0  0  0  0
  -24.3610   -9.4190   21.9150 C   0  0  0  0  0  3  0  0  0  0  0  0
  -23.6280   -8.2230   22.0750 C   0  0  0  0  0  3  0  0  0  0  0  0
  -22.4270   -8.0240   21.3540 C   0  0  0  0  0  0  0  0  0  0  0  0
  -21.9880   -9.0210   20.4650 C   0  0  0  0  0  3  0  0  0  0  0  0
  -22.7210  -10.2080   20.3020 C   0  0  0  0  0  3  0  0  0  0  0  0
  -21.6640   -6.8850   21.4250 O   0  0  0  0  0  0  0  0  0  0  0  0
  -21.6860   -6.0700   22.5280 C   0  0  0  0  0  0  0  0  0  0  0  0
  -21.4030   -6.5610   23.8210 C   0  0  0  0  0  3  0  0  0  0  0  0
  -21.3670   -5.6780   24.9180 C   0  0  0  0  0  3  0  0  0  0  0  0
  -21.6050   -4.3030   24.7240 C   0  0  0  0  0  0  0  0  0  0  0  0
  -21.8820   -3.8110   23.4360 C   0  0  0  0  0  3  0  0  0  0  0  0
  -21.9210   -4.6920   22.3410 C   0  0  0  0  0  0  0  0  0  0  0  0
  -22.1660   -4.2110   21.0990 F   0  0  0  0  0  0  0  0  0  0  0  0
  -21.5640   -3.4530   25.7750 F   0  0  0  0  0  0  0  0  0  0  0  0
  -22.7870  -13.5180   21.1790 C   0  0  0  0  0  0  0  0  0  0  0  0
  -22.0560  -12.8220   22.0380 N   0  0  0  0  0  0  0  0  0  0  0  0
  -22.3560  -14.5530   20.6670 O   0  0  0  0  0  0  0  0  0  0  0  0
  -22.4160  -11.9850   22.4740 H   0  0  0  0  0  0  0  0  0  0  0  0
  -21.1210  -13.1290   22.2620 H   0  0  0  0  0  0  0  0  0  0  0  0
  -25.4220  -15.1700   20.3610 N   0  0  0  0  0  0  0  0  0  0  0  0
  -24.6790  -15.8250   20.5710 H   0  0  0  0  0  0  0  0  0  0  0  0
  -26.3430  -15.5940   20.3730 H   0  0  0  0  0  0  0  0  0  0  0  0
  1  2  1  0
  1 50  1  0
  2  4  1  0
  2  7  1  0
  3  2  1  0
  7  6  1  1
  7  5  1  0
  8  7  1  0
  9 11  1  0
  9  8  1  0
 10 21  2  0
 11 16  1  0
 12 20  1  0
 12 22  1  0
 13 19  1  0
 13 15  1  0
 14 20  1  0
 15 16  2  0
 15 14  1  0
 17 11  2  0
 18 17  1  0
 18 13  2  0
 19 12  1  0
 20 10  1  0
 22 24  2  0
 23 22  1  0
 25 23  1  0
 26 35  2  0
 26 31  1  0
 27 23  1  0
 27 31  1  0
 28 27  1  0
 29 30  1  0
 29 28  1  0
 30 26  1  0
 31 32  2  0
 32 33  1  0
 34 33  2  0
 35 34  1  0
 36 10  1  0
 36 37  1  0
 36 46  1  0
 37 40  1  0
 38 42  1  0
 38 37  1  0
 39 38  2  0
 42 41  1  0
 44 42  1  0
 44 45  1  0
 44 43  1  0
 46 49  1  1
 46 47  1  0
 48 46  1  0
 51 54  1  0
 51 50  1  0
 52 54  2  0
 52 53  1  0
 53 60  1  0
 53 56  2  0
 54 57  1  0
 57 56  1  0
 57 55  1  0
 60 59  1  1
 60 58  1  0
 61 60  1  0
 62 67  1  0
 63 64  1  0
 63 62  1  0
 65 64  1  0
 65 72  1  0
 65 66  1  0
 67 61  1  0
 67 66  1  0
 68 61  2  0
 69 70  2  0
 70 89  1  0
 71 70  1  0
 71 74  1  0
 72 69  1  0
 72 73  1  0
 73 71  2  0
 74 75  1  0
 75 76  2  0
 77 80  1  0
 77 76  1  0
 78 77  2  0
 79 78  1  0
 79 74  2  0
 80 81  1  0
 81 82  1  0
 82 83  2  0
 84 83  1  0
 84 88  1  0
 85 84  2  0
 86 81  2  0
 86 85  1  0
 87 86  1  0
 89 90  1  0
 90 93  1  0
 90 92  1  0
 91 89  2  0
 94 96  1  0
 94 69  1  0
 94 95  1  0
M  ISO  4   8 101   9 101  60 100  61 100
M  END
>  <TORSDO>  (67) 
F 23

>  <SCORE>  (67) 
4.900

>  <name>  (67) 
69

>  <ligand_id>  (67) 
69

>  <original_smiles>  (67) 
[H]c1c([H])c([H])c2c(c1[H])C([H])([H])C([H])([H])C([H])([H])C2([H])N([H])C(=O)C1([H])N(C(=O)C([H])(N([H])C(=O)C([H])(N([H])C([H])([H])[H])C([H])([H])[H])C(C([H])([H])[H])(C([H])([H])[H])C([H])([H])[H])C([H])([H])c2c([H])c(OC([H])([H])C(C([H])([H])[H])(C([H])([H])[H])[N+]([H])([H])C([H])([H])C([H])([H])C([H])([H])c3c([H])c(C(C(=O)N4C([H])([H])C([H])([H])C([H])([H])C([H])(n5nc(-c6c([H])c([H])c(Oc7c([H])c([H])c(F)c([H])c7F)c([H])c6[H])c(C(=O)N([H])[H])c5N([H])[H])C4([H])[H])(C([H])([H])[H])C([H])([H])[H])nn3C([H])([H])[H])c([H])c([H])c2C1([H])[H]

>  <smiles>  (67) 
[H]c1c([H])c([H])c2c(c1[H])C([H])([H])C([H])([H])C([H])([H])C2([H])N([H])C(=O)C1([H])N(C(=O)C([H])(N([H])C(=O)C([H])(N([H])C([H])([H])[H])C([H])([H])[H])C(C([H])([H])[H])(C([H])([H])[H])C([H])([H])[H])C([H])([H])c2c([H])c(OC([H])([H])C(C([H])([H])[H])(C([H])([H])[H])[N+]([H])([H])C([H])([H])C([H])([H])C([H])([H])c3c([H])c(C(C(=O)N4C([H])([H])C([H])([H])C([H])([H])C([H])(n5nc(-c6c([H])c([H])c(Oc7c([H])c([H])c(F)c([H])c7F)c([H])c6[H])c(C(=O)N([H])[H])c5N([H])[H])C4([H])[H])(C([H])([H])[H])C([H])([H])[H])nn3C([H])([H])[H])c([H])c([H])c2C1([H])[H]

$$$$
70:0:0
     RDKit          3D

101109  0  0  1  0  0  0  0  0999 V2000
  -29.3950  -17.6000   19.3580 C   0  0  0  0  0  3  0  0  0  0  0  0
  -29.2050  -18.4150   20.4840 C   0  0  0  0  0  0  0  0  0  0  0  0
  -29.7330  -17.9180   21.6920 C   0  0  0  0  0  0  0  0  0  0  0  0
  -30.6630  -16.1240   20.5790 C   0  0  0  0  0  0  0  0  0  0  0  0
  -30.1000  -16.4610   19.4200 N   0  0  0  0  0  0  0  0  0  0  0  0
  -30.5080  -16.8140   21.7130 N   0  0  0  0  0  0  0  0  0  0  0  0
  -30.7380  -19.6530   23.2420 C   0  0  0  0  0  1  0  0  0  0  0  0
  -29.6080  -18.6430   23.0220 C   0  0  0  0  0  2  0  0  0  0  0  0
  -33.1370  -15.9710   20.4790 C   0  0  0  0  0  1  0  0  0  0  0  0
  -31.8420  -15.1170   20.5320 C   0  0  2  0  0  0  0  0  0  0  0  0
  -31.7390  -14.2110   19.2530 C   0  0  0  0  0  0  0  0  0  0  0  0
  -30.9090  -12.1480   18.1550 C   0  0  0  0  0  2  0  0  0  0  0  0
  -29.7450  -12.3530   17.1710 C   0  0  0  0  0  2  0  0  0  0  0  0
  -28.3960  -12.3420   17.9090 C   0  0  0  0  0  2  0  0  0  0  0  0
  -28.3950  -13.2930   19.1300 C   0  0  0  0  0  3  0  0  0  0  0  0
  -29.6250  -13.0370   20.0170 C   0  0  0  0  0  2  0  0  0  0  0  0
  -30.8420  -13.1850   19.1980 N   0  0  0  0  0  0  0  0  0  0  0  0
  -32.5570  -14.3820   18.3340 O   0  0  0  0  0  0  0  0  0  0  0  0
  -26.4320  -14.1640   20.5500 C   0  0  0  0  0  0  0  0  0  0  0  0
  -25.3270  -13.5370   21.0580 C   0  0  0  0  0  0  0  0  0  0  0  0
  -25.4430  -12.1650   20.6790 C   0  0  0  0  0  0  0  0  0  0  0  0
  -27.1620  -13.1790   19.9030 N   0  0  0  0  0  0  0  0  0  0  0  0
  -26.5840  -11.9580   20.0360 N   0  0  0  0  0  0  0  0  0  0  0  0
  -24.5030  -11.0460   20.8380 C   0  0  0  0  0  0  0  0  0  0  0  0
  -24.8480   -9.8920   21.5750 C   0  0  0  0  0  3  0  0  0  0  0  0
  -23.9220   -8.8390   21.7300 C   0  0  0  0  0  3  0  0  0  0  0  0
  -22.6350   -8.9340   21.1500 C   0  0  0  0  0  0  0  0  0  0  0  0
  -22.3030  -10.0760   20.4000 C   0  0  0  0  0  3  0  0  0  0  0  0
  -23.2290  -11.1220   20.2410 C   0  0  0  0  0  3  0  0  0  0  0  0
  -21.6810   -7.9500   21.2270 O   0  0  0  0  0  0  0  0  0  0  0  0
  -21.5660   -7.1410   22.3310 C   0  0  0  0  0  0  0  0  0  0  0  0
  -21.3070   -7.6680   23.6150 C   0  0  0  0  0  3  0  0  0  0  0  0
  -21.1260   -6.7990   24.7090 C   0  0  0  0  0  3  0  0  0  0  0  0
  -21.1940   -5.4050   24.5190 C   0  0  0  0  0  0  0  0  0  0  0  0
  -21.4440   -4.8780   23.2410 C   0  0  0  0  0  3  0  0  0  0  0  0
  -21.6270   -5.7450   22.1490 C   0  0  0  0  0  0  0  0  0  0  0  0
  -21.8480   -5.2330   20.9150 F   0  0  0  0  0  0  0  0  0  0  0  0
  -21.0120   -4.5680   25.5680 F   0  0  0  0  0  0  0  0  0  0  0  0
  -24.1740  -14.1880   21.7630 C   0  0  0  0  0  0  0  0  0  0  0  0
  -23.5180  -13.4640   22.6620 N   0  0  0  0  0  0  0  0  0  0  0  0
  -23.8760  -15.3630   21.5500 O   0  0  0  0  0  0  0  0  0  0  0  0
  -22.7310  -13.8630   23.1540 H   0  0  0  0  0  0  0  0  0  0  0  0
  -23.7830  -12.5100   22.8590 H   0  0  0  0  0  0  0  0  0  0  0  0
  -26.8650  -15.4850   20.5620 N   0  0  0  0  0  0  0  0  0  0  0  0
  -26.2830  -16.2280   20.9330 H   0  0  0  0  0  0  0  0  0  0  0  0
  -27.6870  -15.8240   20.0800 H   0  0  0  0  0  0  0  0  0  0  0  0
  -31.9850  -14.1600   21.7800 C   0  0  0  0  0  2  0  0  0  0  0  0
  -32.2120  -14.8370   23.0760 N   0  0  0  0  0  4  0  0  0  0  0  0
  -33.1210  -15.2600   23.1260 H   0  0  0  0  0  0  0  0  0  0  0  0
  -32.1180  -14.1920   23.8410 H   0  0  0  0  0  0  0  0  0  0  0  0
  -31.5080  -15.5590   23.1620 H   0  0  0  0  0  0  0  0  0  0  0  0
  -28.6230  -19.8230   20.3560 C   0  0  0  0  0  2  0  0  0  0  0  0
  -28.1340  -20.2570   18.9610 C   0  0  0  0  0  2  0  0  0  0  0  0
  -27.6680  -21.7250   18.9630 C   0  0  0  0  0  2  0  0  0  0  0  0
  -28.8430  -22.7390   18.9640 C   0  0  0  0  0  2  0  0  0  0  0  0
  -27.1490  -24.5380   19.3090 C   0  0  0  0  0  1  0  0  0  0  0  0
  -28.5410  -24.0750   19.5570 N   0  0  2  0  0  4  0  0  0  0  0  0
  -28.6200  -23.9520   20.5580 H   0  0  0  0  0  0  0  0  0  0  0  0
  -29.5740  -25.0800   19.1580 C   0  0  0  0  0  2  0  0  0  0  0  0
  -29.6710  -26.3180   20.0850 C   0  0  0  0  0  2  0  0  0  0  0  0
  -29.4760  -27.5440   19.3680 O   0  0  0  0  0  0  0  0  0  0  0  0
  -24.6230  -31.0000   23.2270 C   0  0  0  0  0  0  0  0  0  0  0  0
  -28.1890  -28.0130   19.4360 C   0  0  0  0  0  0  0  0  0  0  0  0
  -23.7600  -29.7430   21.2770 C   0  0  0  0  0  3  0  0  0  0  0  0
  -25.5230  -28.9010   19.6370 C   0  0  0  0  0  0  0  0  0  0  0  0
  -26.1390  -30.6810   21.2800 C   0  0  0  0  0  2  0  0  0  0  0  0
  -26.5290  -29.5270   20.3820 C   0  0  0  0  0  0  0  0  0  0  0  0
  -27.8660  -29.0850   20.2900 C   0  0  0  0  0  3  0  0  0  0  0  0
  -27.1770  -27.4200   18.6550 C   0  0  0  0  0  3  0  0  0  0  0  0
  -25.8400  -27.8420   18.7690 C   0  0  0  0  0  3  0  0  0  0  0  0
  -24.1170  -29.4310   19.7990 C   0  0  0  0  0  2  0  0  0  0  0  0
  -24.8560  -30.4790   21.9900 N   0  0  0  0  0  0  0  0  0  0  0  0
  -23.5090  -30.9130   23.7590 O   0  0  0  0  0  0  0  0  0  0  0  0
  -23.3560  -28.4260   21.9760 C   0  0  0  0  0  0  0  0  0  0  0  0
  -22.1300  -27.9550   21.6980 N   0  0  0  0  0  0  0  0  0  0  0  0
  -24.1430  -27.8390   22.7230 O   0  0  0  0  0  0  0  0  0  0  0  0
  -21.5420  -28.5010   21.0840 H   0  0  0  0  0  0  0  0  0  0  0  0
  -19.1810  -25.8730   21.6040 C   0  0  0  0  0  0  0  0  0  0  0  0
  -21.5460  -26.7160   22.2110 C   0  0  0  0  0  3  0  0  0  0  0  0
  -22.0740  -25.4890   21.4320 C   0  0  0  0  0  2  0  0  0  0  0  0
  -21.1740  -25.0880   20.2580 C   0  0  0  0  0  2  0  0  0  0  0  0
  -19.7630  -24.7580   20.7510 C   0  0  0  0  0  2  0  0  0  0  0  0
  -20.0180  -26.8010   22.2760 C   0  0  0  0  0  0  0  0  0  0  0  0
  -19.4260  -27.8390   23.0280 C   0  0  0  0  0  3  0  0  0  0  0  0
  -18.0250  -27.9560   23.1140 C   0  0  0  0  0  3  0  0  0  0  0  0
  -17.2010  -27.0240   22.4600 C   0  0  0  0  0  3  0  0  0  0  0  0
  -17.7780  -25.9840   21.7120 C   0  0  0  0  0  3  0  0  0  0  0  0
  -25.7390  -31.7510   24.0210 C   0  0  0  0  0  3  0  0  0  0  0  0
  -26.1760  -31.0010   25.3380 C   0  0  1  0  0  0  0  0  0  0  0  0
  -24.9910  -30.6130   26.2540 C   0  0  0  0  0  1  0  0  0  0  0  0
  -26.9530  -29.7080   24.9980 C   0  0  0  0  0  1  0  0  0  0  0  0
  -27.1380  -31.8940   26.1560 C   0  0  0  0  0  1  0  0  0  0  0  0
  -25.2350  -33.0950   24.3260 N   0  0  0  0  0  0  0  0  0  0  0  0
  -25.5850  -34.2060   23.6650 C   0  0  0  0  0  0  0  0  0  0  0  0
  -26.4340  -34.2140   22.7700 O   0  0  0  0  0  0  0  0  0  0  0  0
  -24.4970  -33.1570   25.0130 H   0  0  0  0  0  0  0  0  0  0  0  0
  -23.8000  -35.8540   23.0210 C   0  0  0  0  0  1  0  0  0  0  0  0
  -24.8810  -35.5190   24.0600 C   0  0  0  0  0  3  0  0  0  0  0  0
  -26.7160  -36.5320   25.3390 C   0  0  0  0  0  1  0  0  0  0  0  0
  -25.8080  -36.6620   24.2030 N   0  0  0  0  0  0  0  0  0  0  0  0
  -25.2920  -37.5320   24.3080 H   0  0  0  0  0  0  0  0  0  0  0  0
  1  5  1  0
  1  2  2  0
  2  3  1  0
  3  6  2  0
  3  8  1  0
  4  6  1  0
  5  4  2  0
  8  7  1  0
 10  9  1  6
 10  4  1  0
 10 47  1  0
 11 10  1  0
 12 17  1  0
 13 14  1  0
 13 12  1  0
 15 14  1  0
 15 22  1  0
 15 16  1  0
 17 11  1  0
 17 16  1  0
 18 11  2  0
 19 44  1  0
 19 20  2  0
 20 39  1  0
 21 24  1  0
 21 20  1  0
 22 23  1  0
 22 19  1  0
 23 21  2  0
 24 25  1  0
 25 26  2  0
 27 30  1  0
 27 26  1  0
 28 27  2  0
 29 28  1  0
 29 24  2  0
 30 31  1  0
 31 32  1  0
 32 33  2  0
 34 33  1  0
 34 38  1  0
 35 34  2  0
 36 31  2  0
 36 35  1  0
 37 36  1  0
 39 40  1  0
 40 43  1  0
 40 42  1  0
 41 39  2  0
 44 45  1  0
 46 44  1  0
 47 48  1  0
 48 49  1  0
 48 51  1  0
 48 50  1  0
 52  2  1  0
 53 54  1  0
 53 52  1  0
 54 55  1  0
 55 57  1  0
 56 57  1  0
 57 58  1  1
 59 57  1  0
 59 60  1  0
 61 63  1  0
 61 60  1  0
 62 73  2  0
 63 68  1  0
 64 74  1  0
 64 72  1  0
 65 71  1  0
 65 67  1  0
 66 72  1  0
 67 66  1  0
 68 67  2  0
 69 70  1  0
 69 63  2  0
 70 65  2  0
 71 64  1  0
 72 62  1  0
 74 76  2  0
 75 74  1  0
 77 75  1  0
 78 87  2  0
 78 83  1  0
 79 75  1  0
 79 83  1  0
 80 79  1  0
 81 82  1  0
 81 80  1  0
 82 78  1  0
 83 84  2  0
 84 85  1  0
 86 85  2  0
 87 86  1  0
 88 62  1  0
 88 93  1  0
 88 89  1  0
 89 92  1  1
 89 90  1  0
 91 89  1  0
 93 96  1  0
 94 98  1  0
 94 93  1  0
 95 94  2  0
 98 97  1  0
 98100  1  0
100101  1  0
100 99  1  0
M  ISO  4  10 100  11 100  60 101  61 101
M  END
>  <TORSDO>  (68) 
F 27

>  <SCORE>  (68) 
-1.929

>  <name>  (68) 
70

>  <ligand_id>  (68) 
70

>  <original_smiles>  (68) 
[H]c1nc(C(C(=O)N2C([H])([H])C([H])([H])C([H])([H])C([H])(n3nc(-c4c([H])c([H])c(Oc5c([H])c([H])c(F)c([H])c5F)c([H])c4[H])c(C(=O)N([H])[H])c3N([H])[H])C2([H])[H])(C([H])([H])[H])C([H])([H])[N+]([H])([H])[H])nc(C([H])([H])C([H])([H])[H])c1C([H])([H])C([H])([H])C([H])([H])C([H])([H])[N+]([H])(C([H])([H])[H])C([H])([H])C([H])([H])Oc1c([H])c([H])c2c(c1[H])C([H])([H])N(C(=O)C([H])(N([H])C(=O)C([H])(N([H])C([H])([H])[H])C([H])([H])[H])C(C([H])([H])[H])(C([H])([H])[H])C([H])([H])[H])C([H])(C(=O)N([H])C1([H])c3c([H])c([H])c([H])c([H])c3C([H])([H])C([H])([H])C1([H])[H])C2([H])[H]

>  <smiles>  (68) 
[H]c1nc(C(C(=O)N2C([H])([H])C([H])([H])C([H])([H])C([H])(n3nc(-c4c([H])c([H])c(Oc5c([H])c([H])c(F)c([H])c5F)c([H])c4[H])c(C(=O)N([H])[H])c3N([H])[H])C2([H])[H])(C([H])([H])[H])C([H])([H])[N+]([H])([H])[H])nc(C([H])([H])C([H])([H])[H])c1C([H])([H])C([H])([H])C([H])([H])C([H])([H])[N+]([H])(C([H])([H])[H])C([H])([H])C([H])([H])Oc1c([H])c([H])c2c(c1[H])C([H])([H])N(C(=O)C([H])(N([H])C(=O)C([H])(N([H])C([H])([H])[H])C([H])([H])[H])C(C([H])([H])[H])(C([H])([H])[H])C([H])([H])[H])C([H])(C(=O)N([H])C1([H])c3c([H])c([H])c([H])c([H])c3C([H])([H])C([H])([H])C1([H])[H])C2([H])[H]

$$$$
71:0:0
     RDKit          3D

 92100  0  0  1  0  0  0  0  0999 V2000
  -28.7050  -20.3350   18.7940 C   0  0  0  0  0  3  0  0  0  0  0  0
  -29.1480  -21.2550   19.7670 C   0  0  0  0  0  0  0  0  0  0  0  0
  -29.7540  -20.6260   20.8820 C   0  0  0  0  0  0  0  0  0  0  0  0
  -29.6700  -18.5080   19.8730 C   0  0  0  0  0  0  0  0  0  0  0  0
  -30.2790  -21.4160   22.0620 C   0  0  0  0  0  1  0  0  0  0  0  0
  -28.9650  -19.0070   18.8530 N   0  0  0  0  0  0  0  0  0  0  0  0
  -29.9990  -19.2840   20.9180 N   0  0  0  0  0  0  0  0  0  0  0  0
  -31.9950  -17.6360   19.8000 C   0  0  0  0  0  1  0  0  0  0  0  0
  -30.3940  -16.8140   18.0920 C   0  0  0  0  0  1  0  0  0  0  0  0
  -30.5190  -17.1780   19.6030 C   0  0  2  0  0  0  0  0  0  0  0  0
  -30.8630  -14.6710   20.1250 C   0  0  0  0  0  0  0  0  0  0  0  0
  -30.4590  -12.5160   18.9510 C   0  0  0  0  0  2  0  0  0  0  0  0
  -29.4730  -12.7250   17.7830 C   0  0  0  0  0  2  0  0  0  0  0  0
  -28.0210  -12.5740   18.2750 C   0  0  0  0  0  2  0  0  0  0  0  0
  -27.7450  -13.3790   19.5730 C   0  0  0  0  0  3  0  0  0  0  0  0
  -28.8500  -13.1540   20.6240 C   0  0  0  0  0  2  0  0  0  0  0  0
  -30.1270  -13.5150   19.9930 N   0  0  0  0  0  0  0  0  0  0  0  0
  -32.0180  -14.6690   19.6980 O   0  0  0  0  0  0  0  0  0  0  0  0
  -29.6380  -16.0690   21.7120 C   0  0  0  0  0  1  0  0  0  0  0  0
  -30.2220  -15.8800   20.3780 N   0  0  0  0  0  0  0  0  0  0  0  0
  -25.3960  -13.9770   20.4090 C   0  0  0  0  0  0  0  0  0  0  0  0
  -24.3430  -13.2030   20.8140 C   0  0  0  0  0  0  0  0  0  0  0  0
  -24.7960  -11.8500   20.7430 C   0  0  0  0  0  0  0  0  0  0  0  0
  -26.4230  -13.0950   20.1160 N   0  0  0  0  0  0  0  0  0  0  0  0
  -26.0710  -11.8100   20.3770 N   0  0  0  0  0  0  0  0  0  0  0  0
  -24.0730  -10.5880   20.9460 C   0  0  0  0  0  0  0  0  0  0  0  0
  -24.5150   -9.6230   21.8770 C   0  0  0  0  0  3  0  0  0  0  0  0
  -23.7920   -8.4260   22.0680 C   0  0  0  0  0  3  0  0  0  0  0  0
  -22.6110   -8.1860   21.3270 C   0  0  0  0  0  0  0  0  0  0  0  0
  -22.1860   -9.1400   20.3850 C   0  0  0  0  0  3  0  0  0  0  0  0
  -22.9100  -10.3280   20.1930 C   0  0  0  0  0  3  0  0  0  0  0  0
  -21.8580   -7.0410   21.4260 O   0  0  0  0  0  0  0  0  0  0  0  0
  -21.7840   -6.3260   22.5950 C   0  0  0  0  0  0  0  0  0  0  0  0
  -21.3260   -6.9100   23.7970 C   0  0  0  0  0  3  0  0  0  0  0  0
  -21.2010   -6.1220   24.9590 C   0  0  0  0  0  3  0  0  0  0  0  0
  -21.5230   -4.7510   24.9190 C   0  0  0  0  0  0  0  0  0  0  0  0
  -21.9730   -4.1680   23.7210 C   0  0  0  0  0  3  0  0  0  0  0  0
  -22.1000   -4.9530   22.5620 C   0  0  0  0  0  0  0  0  0  0  0  0
  -22.5140   -4.3810   21.4060 F   0  0  0  0  0  0  0  0  0  0  0  0
  -21.3940   -3.9920   26.0320 F   0  0  0  0  0  0  0  0  0  0  0  0
  -22.9610  -13.6830   21.1520 C   0  0  0  0  0  0  0  0  0  0  0  0
  -22.2710  -12.9800   22.0420 N   0  0  0  0  0  0  0  0  0  0  0  0
  -22.5050  -14.7160   20.6640 O   0  0  0  0  0  0  0  0  0  0  0  0
  -22.6540  -12.1460   22.4570 H   0  0  0  0  0  0  0  0  0  0  0  0
  -21.3460  -13.2840   22.3160 H   0  0  0  0  0  0  0  0  0  0  0  0
  -25.5620  -15.3490   20.2450 N   0  0  0  0  0  0  0  0  0  0  0  0
  -24.8020  -16.0040   20.3980 H   0  0  0  0  0  0  0  0  0  0  0  0
  -26.4010  -15.7870   19.8900 H   0  0  0  0  0  0  0  0  0  0  0  0
  -29.1870  -22.7900   19.4190 C   0  0  0  0  0  2  0  0  0  0  0  0
  -28.4560  -23.9490   20.2190 C   0  0  0  0  0  2  0  0  0  0  0  0
  -28.5110  -25.3430   19.4570 C   0  0  0  0  0  2  0  0  0  0  0  0
  -28.3500  -26.6000   20.1910 O   0  0  0  0  0  0  0  0  0  0  0  0
  -24.5380  -31.8650   23.2150 C   0  0  0  0  0  0  0  0  0  0  0  0
  -27.1850  -27.3670   20.1360 C   0  0  0  0  0  0  0  0  0  0  0  0
  -23.3450  -30.4710   21.5600 C   0  0  0  0  0  3  0  0  0  0  0  0
  -24.8040  -28.9360   20.1330 C   0  0  0  0  0  0  0  0  0  0  0  0
  -25.8780  -30.8120   21.3810 C   0  0  0  0  0  2  0  0  0  0  0  0
  -25.9650  -29.4400   20.7320 C   0  0  0  0  0  0  0  0  0  0  0  0
  -27.1530  -28.6630   20.7290 C   0  0  0  0  0  3  0  0  0  0  0  0
  -25.9960  -26.8930   19.5370 C   0  0  0  0  0  3  0  0  0  0  0  0
  -24.8190  -27.6670   19.5340 C   0  0  0  0  0  3  0  0  0  0  0  0
  -23.5640  -29.8040   20.1770 C   0  0  0  0  0  2  0  0  0  0  0  0
  -24.6050  -31.0670   22.1090 N   0  0  0  0  0  0  0  0  0  0  0  0
  -23.4520  -32.1320   23.7490 O   0  0  0  0  0  0  0  0  0  0  0  0
  -22.6860  -29.4450   22.5110 C   0  0  0  0  0  0  0  0  0  0  0  0
  -21.3610  -29.2690   22.3830 N   0  0  0  0  0  0  0  0  0  0  0  0
  -23.3680  -28.8080   23.3190 O   0  0  0  0  0  0  0  0  0  0  0  0
  -20.8710  -29.8350   21.7050 H   0  0  0  0  0  0  0  0  0  0  0  0
  -17.9800  -28.0830   22.8790 C   0  0  0  0  0  0  0  0  0  0  0  0
  -20.5410  -28.3250   23.1460 C   0  0  0  0  0  3  0  0  0  0  0  0
  -20.6340  -26.8990   22.5530 C   0  0  0  0  0  2  0  0  0  0  0  0
  -19.5270  -26.5960   21.5380 C   0  0  0  0  0  2  0  0  0  0  0  0
  -18.1470  -26.7420   22.1850 C   0  0  0  0  0  2  0  0  0  0  0  0
  -19.1050  -28.8340   23.3150 C   0  0  0  0  0  0  0  0  0  0  0  0
  -18.8950  -30.0920   23.9200 C   0  0  0  0  0  3  0  0  0  0  0  0
  -17.5930  -30.5970   24.0970 C   0  0  0  0  0  3  0  0  0  0  0  0
  -16.4820  -29.8430   23.6790 C   0  0  0  0  0  3  0  0  0  0  0  0
  -16.6780  -28.5890   23.0730 C   0  0  0  0  0  3  0  0  0  0  0  0
  -25.8160  -32.4970   23.8470 C   0  0  0  0  0  3  0  0  0  0  0  0
  -26.3310  -31.7220   25.1210 C   0  0  1  0  0  0  0  0  0  0  0  0
  -25.2360  -31.4740   26.1850 C   0  0  0  0  0  1  0  0  0  0  0  0
  -26.9230  -30.3510   24.7220 C   0  0  0  0  0  1  0  0  0  0  0  0
  -27.4750  -32.5180   25.7920 C   0  0  0  0  0  1  0  0  0  0  0  0
  -25.5010  -33.8920   24.1850 N   0  0  0  0  0  0  0  0  0  0  0  0
  -25.8360  -34.9520   23.4370 C   0  0  0  0  0  0  0  0  0  0  0  0
  -26.5150  -34.8590   22.4110 O   0  0  0  0  0  0  0  0  0  0  0  0
  -24.9050  -34.0400   24.9870 H   0  0  0  0  0  0  0  0  0  0  0  0
  -24.1110  -36.7470   23.0750 C   0  0  0  0  0  1  0  0  0  0  0  0
  -25.3410  -36.3360   23.9010 C   0  0  0  0  0  3  0  0  0  0  0  0
  -27.4610  -37.2130   24.7730 C   0  0  0  0  0  1  0  0  0  0  0  0
  -26.3740  -37.3900   23.8140 N   0  0  0  0  0  0  0  0  0  0  0  0
  -25.9660  -38.3090   23.9640 H   0  0  0  0  0  0  0  0  0  0  0  0
  1  6  1  0
  1  2  2  0
  2  3  1  0
  3  7  2  0
  3  5  1  0
  4  7  1  0
  6  4  2  0
 10  9  1  6
 10  8  1  0
 10  4  1  0
 10 20  1  0
 11 20  1  0
 12 17  1  0
 13 14  1  0
 13 12  1  0
 15 14  1  0
 15 24  1  0
 15 16  1  0
 17 11  1  0
 17 16  1  0
 18 11  2  0
 20 19  1  0
 21 22  2  0
 22 41  1  0
 23 22  1  0
 23 26  1  0
 24 25  1  0
 24 21  1  0
 25 23  2  0
 26 27  1  0
 27 28  2  0
 29 32  1  0
 29 28  1  0
 30 29  2  0
 31 30  1  0
 31 26  2  0
 32 33  1  0
 33 34  1  0
 34 35  2  0
 36 35  1  0
 36 40  1  0
 37 36  2  0
 38 33  2  0
 38 37  1  0
 39 38  1  0
 41 42  1  0
 42 45  1  0
 42 44  1  0
 43 41  2  0
 46 47  1  0
 46 21  1  0
 48 46  1  0
 49  2  1  0
 49 50  1  0
 51 52  1  0
 51 50  1  0
 53 64  2  0
 54 52  1  0
 54 59  1  0
 55 63  1  0
 55 65  1  0
 56 62  1  0
 56 58  1  0
 57 63  1  0
 58 57  1  0
 59 58  2  0
 60 54  2  0
 61 60  1  0
 61 56  2  0
 62 55  1  0
 63 53  1  0
 65 67  2  0
 66 65  1  0
 68 66  1  0
 69 78  2  0
 69 74  1  0
 70 66  1  0
 70 74  1  0
 71 70  1  0
 72 73  1  0
 72 71  1  0
 73 69  1  0
 74 75  2  0
 75 76  1  0
 77 76  2  0
 78 77  1  0
 79 53  1  0
 79 84  1  0
 79 80  1  0
 80 83  1  1
 80 81  1  0
 82 80  1  0
 84 87  1  0
 85 89  1  0
 85 84  1  0
 86 85  2  0
 89 88  1  0
 91 89  1  0
 91 92  1  0
 91 90  1  0
M  ISO  4  11 100  20 100  51 101  52 101
M  END
>  <TORSDO>  (69) 
F 20

>  <SCORE>  (69) 
-13.496

>  <name>  (69) 
71

>  <ligand_id>  (69) 
71

>  <original_smiles>  (69) 
[H]c1nc(C(N(C(=O)N2C([H])([H])C([H])([H])C([H])([H])C([H])(n3nc(-c4c([H])c([H])c(Oc5c([H])c([H])c(F)c([H])c5F)c([H])c4[H])c(C(=O)N([H])[H])c3N([H])[H])C2([H])[H])C([H])([H])[H])(C([H])([H])[H])C([H])([H])[H])nc(C([H])([H])[H])c1C([H])([H])C([H])([H])C([H])([H])Oc1c([H])c([H])c2c(c1[H])C([H])([H])N(C(=O)C([H])(N([H])C(=O)C([H])(N([H])C([H])([H])[H])C([H])([H])[H])C(C([H])([H])[H])(C([H])([H])[H])C([H])([H])[H])C([H])(C(=O)N([H])C1([H])c3c([H])c([H])c([H])c([H])c3C([H])([H])C([H])([H])C1([H])[H])C2([H])[H]

>  <smiles>  (69) 
[H]c1nc(C(N(C(=O)N2C([H])([H])C([H])([H])C([H])([H])C([H])(n3nc(-c4c([H])c([H])c(Oc5c([H])c([H])c(F)c([H])c5F)c([H])c4[H])c(C(=O)N([H])[H])c3N([H])[H])C2([H])[H])C([H])([H])[H])(C([H])([H])[H])C([H])([H])[H])nc(C([H])([H])[H])c1C([H])([H])C([H])([H])C([H])([H])Oc1c([H])c([H])c2c(c1[H])C([H])([H])N(C(=O)C([H])(N([H])C(=O)C([H])(N([H])C([H])([H])[H])C([H])([H])[H])C(C([H])([H])[H])(C([H])([H])[H])C([H])([H])[H])C([H])(C(=O)N([H])C1([H])c3c([H])c([H])c([H])c([H])c3C([H])([H])C([H])([H])C1([H])[H])C2([H])[H]

$$$$
72:0:0
     RDKit          3D

 94102  0  0  1  0  0  0  0  0999 V2000
  -29.6130  -20.7200   17.3730 C   0  0  0  0  0  1  0  0  0  0  0  0
  -27.5430  -19.9280   18.4370 C   0  0  0  0  0  1  0  0  0  0  0  0
  -29.0390  -20.2010   18.7220 C   0  0  1  0  0  0  0  0  0  0  0  0
  -30.8150  -14.3870   19.9190 C   0  0  0  0  0  0  0  0  0  0  0  0
  -30.3300  -12.2750   18.7280 C   0  0  0  0  0  2  0  0  0  0  0  0
  -29.2940  -12.5280   17.6130 C   0  0  0  0  0  2  0  0  0  0  0  0
  -27.8610  -12.4040   18.1660 C   0  0  0  0  0  2  0  0  0  0  0  0
  -27.6550  -13.2080   19.4780 C   0  0  0  0  0  3  0  0  0  0  0  0
  -28.7980  -12.9430   20.4800 C   0  0  0  0  0  2  0  0  0  0  0  0
  -30.0670  -13.2480   19.8050 N   0  0  0  0  0  0  0  0  0  0  0  0
  -31.9060  -14.4970   19.3520 O   0  0  0  0  0  0  0  0  0  0  0  0
  -30.8200  -18.3180   18.3070 C   0  0  0  0  0  3  0  0  0  0  0  0
  -29.7660  -18.8570   19.0170 C   0  0  0  0  0  0  0  0  0  0  0  0
  -30.2440  -16.7780   19.7870 C   0  0  0  0  0  3  0  0  0  0  0  0
  -28.4960  -17.9860   21.0780 C   0  0  0  0  0  1  0  0  0  0  0  0
  -30.2000  -15.5040   21.9550 C   0  0  0  0  0  1  0  0  0  0  0  0
  -29.4810  -17.8900   19.9940 N   0  0  0  0  0  0  0  0  0  0  0  0
  -31.0680  -17.0640   18.7810 N   0  0  0  0  0  0  0  0  0  0  0  0
  -30.2440  -15.4930   20.4860 N   0  0  0  0  0  0  0  0  0  0  0  0
  -31.7830  -16.4330   18.4330 H   0  0  0  0  0  0  0  0  0  0  0  0
  -25.3500  -13.8410   20.4170 C   0  0  0  0  0  0  0  0  0  0  0  0
  -24.3010  -13.0810   20.8600 C   0  0  0  0  0  0  0  0  0  0  0  0
  -24.7240  -11.7210   20.7520 C   0  0  0  0  0  0  0  0  0  0  0  0
  -26.3470  -12.9450   20.0690 N   0  0  0  0  0  0  0  0  0  0  0  0
  -25.9820  -11.6630   20.3300 N   0  0  0  0  0  0  0  0  0  0  0  0
  -23.9870  -10.4700   20.9710 C   0  0  0  0  0  0  0  0  0  0  0  0
  -24.4570   -9.4830   21.8660 C   0  0  0  0  0  3  0  0  0  0  0  0
  -23.7210   -8.2960   22.0730 C   0  0  0  0  0  3  0  0  0  0  0  0
  -22.5020   -8.0880   21.3870 C   0  0  0  0  0  0  0  0  0  0  0  0
  -22.0510   -9.0630   20.4800 C   0  0  0  0  0  3  0  0  0  0  0  0
  -22.7870  -10.2420   20.2700 C   0  0  0  0  0  3  0  0  0  0  0  0
  -21.7330   -6.9560   21.5060 O   0  0  0  0  0  0  0  0  0  0  0  0
  -21.7050   -6.2250   22.6660 C   0  0  0  0  0  0  0  0  0  0  0  0
  -21.3240   -6.7970   23.8990 C   0  0  0  0  0  3  0  0  0  0  0  0
  -21.2420   -5.9920   25.0540 C   0  0  0  0  0  3  0  0  0  0  0  0
  -21.5300   -4.6160   24.9760 C   0  0  0  0  0  0  0  0  0  0  0  0
  -21.9040   -4.0440   23.7480 C   0  0  0  0  0  3  0  0  0  0  0  0
  -21.9890   -4.8460   22.5950 C   0  0  0  0  0  0  0  0  0  0  0  0
  -22.3290   -4.2840   21.4100 F   0  0  0  0  0  0  0  0  0  0  0  0
  -21.4440   -3.8420   26.0820 F   0  0  0  0  0  0  0  0  0  0  0  0
  -22.9440  -13.5800   21.2650 C   0  0  0  0  0  0  0  0  0  0  0  0
  -22.2830  -12.8810   22.1780 N   0  0  0  0  0  0  0  0  0  0  0  0
  -22.4850  -14.6260   20.8060 O   0  0  0  0  0  0  0  0  0  0  0  0
  -22.6710  -12.0330   22.5680 H   0  0  0  0  0  0  0  0  0  0  0  0
  -21.3760  -13.1940   22.4950 H   0  0  0  0  0  0  0  0  0  0  0  0
  -25.5310  -15.2110   20.2590 N   0  0  0  0  0  0  0  0  0  0  0  0
  -24.7820  -15.8730   20.4320 H   0  0  0  0  0  0  0  0  0  0  0  0
  -26.3360  -15.6280   19.8140 H   0  0  0  0  0  0  0  0  0  0  0  0
  -30.5320  -21.2450   20.5840 C   0  0  0  0  0  1  0  0  0  0  0  0
  -29.1970  -21.3490   19.8200 C   0  0  0  0  0  3  0  0  0  0  0  0
  -29.0000  -22.8170   19.2620 C   0  0  0  0  0  2  0  0  0  0  0  0
  -28.7490  -24.0110   20.2400 C   0  0  0  0  0  2  0  0  0  0  0  0
  -28.8320  -25.4010   19.5260 C   0  0  0  0  0  2  0  0  0  0  0  0
  -28.5800  -26.5620   20.3530 O   0  0  0  0  0  0  0  0  0  0  0  0
  -24.5620  -31.7130   23.2440 C   0  0  0  0  0  0  0  0  0  0  0  0
  -27.3820  -27.2610   20.2850 C   0  0  0  0  0  0  0  0  0  0  0  0
  -23.4400  -30.2850   21.5670 C   0  0  0  0  0  3  0  0  0  0  0  0
  -24.9660  -28.7570   20.2080 C   0  0  0  0  0  0  0  0  0  0  0  0
  -25.9700  -30.6690   21.4640 C   0  0  0  0  0  2  0  0  0  0  0  0
  -26.0960  -29.2930   20.8350 C   0  0  0  0  0  0  0  0  0  0  0  0
  -27.3030  -28.5520   20.8700 C   0  0  0  0  0  3  0  0  0  0  0  0
  -26.2200  -26.7390   19.6690 C   0  0  0  0  0  3  0  0  0  0  0  0
  -25.0240  -27.4790   19.6260 C   0  0  0  0  0  3  0  0  0  0  0  0
  -23.7120  -29.6020   20.2010 C   0  0  0  0  0  2  0  0  0  0  0  0
  -24.6740  -30.9060   22.1500 N   0  0  0  0  0  0  0  0  0  0  0  0
  -23.4570  -31.9730   23.7390 O   0  0  0  0  0  0  0  0  0  0  0  0
  -22.7660  -29.2600   22.5090 C   0  0  0  0  0  0  0  0  0  0  0  0
  -21.4480  -29.0640   22.3370 N   0  0  0  0  0  0  0  0  0  0  0  0
  -23.4280  -28.6450   23.3490 O   0  0  0  0  0  0  0  0  0  0  0  0
  -20.9750  -29.6130   21.6330 H   0  0  0  0  0  0  0  0  0  0  0  0
  -18.0730  -27.8300   22.7200 C   0  0  0  0  0  0  0  0  0  0  0  0
  -20.6170  -28.1190   23.0820 C   0  0  0  0  0  3  0  0  0  0  0  0
  -20.7560  -26.6880   22.5160 C   0  0  0  0  0  2  0  0  0  0  0  0
  -19.6960  -26.3480   21.4640 C   0  0  0  0  0  2  0  0  0  0  0  0
  -18.2900  -26.4800   22.0570 C   0  0  0  0  0  2  0  0  0  0  0  0
  -19.1670  -28.6060   23.1870 C   0  0  0  0  0  0  0  0  0  0  0  0
  -18.9130  -29.8700   23.7640 C   0  0  0  0  0  3  0  0  0  0  0  0
  -17.5970  -30.3570   23.8810 C   0  0  0  0  0  3  0  0  0  0  0  0
  -16.5170  -29.5780   23.4310 C   0  0  0  0  0  3  0  0  0  0  0  0
  -16.7560  -28.3170   22.8570 C   0  0  0  0  0  3  0  0  0  0  0  0
  -25.8130  -32.3670   23.9090 C   0  0  0  0  0  3  0  0  0  0  0  0
  -26.2910  -31.6150   25.2110 C   0  0  1  0  0  0  0  0  0  0  0  0
  -25.1600  -31.3710   26.2380 C   0  0  0  0  0  1  0  0  0  0  0  0
  -26.9080  -30.2420   24.8540 C   0  0  0  0  0  1  0  0  0  0  0  0
  -27.4040  -32.4310   25.9100 C   0  0  0  0  0  1  0  0  0  0  0  0
  -25.4750  -33.7650   24.2100 N   0  0  0  0  0  0  0  0  0  0  0  0
  -25.8110  -34.8120   23.4470 C   0  0  0  0  0  0  0  0  0  0  0  0
  -26.5110  -34.7050   22.4350 O   0  0  0  0  0  0  0  0  0  0  0  0
  -24.8560  -33.9200   24.9930 H   0  0  0  0  0  0  0  0  0  0  0  0
  -24.0570  -36.5650   23.0300 C   0  0  0  0  0  1  0  0  0  0  0  0
  -25.2900  -36.1980   23.8710 C   0  0  0  0  0  3  0  0  0  0  0  0
  -27.3910  -37.1360   24.7280 C   0  0  0  0  0  1  0  0  0  0  0  0
  -26.3040  -37.2680   23.7610 N   0  0  0  0  0  0  0  0  0  0  0  0
  -25.8790  -38.1830   23.8850 H   0  0  0  0  0  0  0  0  0  0  0  0
  3  1  1  6
  2  3  1  0
  3 13  1  0
  3 50  1  0
  4 19  1  0
  5 10  1  0
  6  7  1  0
  6  5  1  0
  8  7  1  0
  8 24  1  0
  8  9  1  0
 10  4  1  0
 10  9  1  0
 11  4  2  0
 12 18  1  0
 12 13  2  0
 13 17  1  0
 14 17  1  0
 14 19  1  0
 17 15  1  0
 18 14  1  0
 19 16  1  0
 20 18  1  0
 21 22  2  0
 22 41  1  0
 23 22  1  0
 23 26  1  0
 24 25  1  0
 24 21  1  0
 25 23  2  0
 26 27  1  0
 27 28  2  0
 29 32  1  0
 29 28  1  0
 30 29  2  0
 31 30  1  0
 31 26  2  0
 32 33  1  0
 33 34  1  0
 34 35  2  0
 36 35  1  0
 36 40  1  0
 37 36  2  0
 38 33  2  0
 38 37  1  0
 39 38  1  0
 41 42  1  0
 42 45  1  0
 42 44  1  0
 43 41  2  0
 46 21  1  0
 46 47  1  0
 48 46  1  0
 50 49  1  0
 51 50  1  0
 51 52  1  0
 53 52  1  0
 53 54  1  0
 55 66  2  0
 56 54  1  0
 56 61  1  0
 57 65  1  0
 57 67  1  0
 58 60  1  0
 59 65  1  0
 60 61  2  0
 60 59  1  0
 62 56  2  0
 63 62  1  0
 63 58  2  0
 64 58  1  0
 64 57  1  0
 65 55  1  0
 67 69  2  0
 68 67  1  0
 70 68  1  0
 71 80  2  0
 71 76  1  0
 72 68  1  0
 72 76  1  0
 73 72  1  0
 74 75  1  0
 74 73  1  0
 75 71  1  0
 76 77  2  0
 77 78  1  0
 79 78  2  0
 80 79  1  0
 81 55  1  0
 81 86  1  0
 81 82  1  0
 82 85  1  1
 82 83  1  0
 84 82  1  0
 86 89  1  0
 87 91  1  0
 87 86  1  0
 88 87  2  0
 91 90  1  0
 93 91  1  0
 93 94  1  0
 93 92  1  0
M  ISO  4   4 100  19 100  53 101  54 101
M  END
>  <TORSDO>  (70) 
F 20

>  <SCORE>  (70) 
-12.837

>  <name>  (70) 
72

>  <ligand_id>  (70) 
72

>  <original_smiles>  (70) 
[H]c1c([H])c([H])c2c(c1[H])C([H])([H])C([H])([H])C([H])([H])C2([H])N([H])C(=O)C1([H])N(C(=O)C([H])(N([H])C(=O)C([H])(N([H])C([H])([H])[H])C([H])([H])[H])C(C([H])([H])[H])(C([H])([H])[H])C([H])([H])[H])C([H])([H])c2c([H])c(OC([H])([H])C([H])([H])C([H])([H])C([H])(C([H])([H])[H])C(c3c([H])[n+]([H])c(N(C(=O)N4C([H])([H])C([H])([H])C([H])([H])C([H])(n5nc(-c6c([H])c([H])c(Oc7c([H])c([H])c(F)c([H])c7F)c([H])c6[H])c(C(=O)N([H])[H])c5N([H])[H])C4([H])[H])C([H])([H])[H])n3C([H])([H])[H])(C([H])([H])[H])C([H])([H])[H])c([H])c([H])c2C1([H])[H]

>  <smiles>  (70) 
[H]c1c([H])c([H])c2c(c1[H])C([H])([H])C([H])([H])C([H])([H])C2([H])N([H])C(=O)C1([H])N(C(=O)C([H])(N([H])C(=O)C([H])(N([H])C([H])([H])[H])C([H])([H])[H])C(C([H])([H])[H])(C([H])([H])[H])C([H])([H])[H])C([H])([H])c2c([H])c(OC([H])([H])C([H])([H])C([H])([H])C([H])(C([H])([H])[H])C(c3c([H])[n+]([H])c(N(C(=O)N4C([H])([H])C([H])([H])C([H])([H])C([H])(n5nc(-c6c([H])c([H])c(Oc7c([H])c([H])c(F)c([H])c7F)c([H])c6[H])c(C(=O)N([H])[H])c5N([H])[H])C4([H])[H])C([H])([H])[H])n3C([H])([H])[H])(C([H])([H])[H])C([H])([H])[H])c([H])c([H])c2C1([H])[H]

$$$$
73:0:0
     RDKit          3D

 92100  0  0  1  0  0  0  0  0999 V2000
  -28.7980  -21.9790   20.2990 C   0  0  0  0  0  3  0  0  0  0  0  0
  -27.8880  -21.7070   21.2370 F   0  0  0  0  0  0  0  0  0  0  0  0
  -30.8790  -21.2170   21.5930 C   0  0  0  0  0  1  0  0  0  0  0  0
  -30.8760  -20.9570   19.1460 C   0  0  0  0  0  1  0  0  0  0  0  0
  -29.9810  -20.8110   20.3990 C   0  0  2  0  0  0  0  0  0  0  0  0
  -29.4380  -17.0840   19.3910 C   0  0  0  0  0  3  0  0  0  0  0  0
  -30.2000  -18.3760   21.5970 C   0  0  0  0  0  3  0  0  0  0  0  0
  -30.0310  -16.2910   20.4330 C   0  0  0  0  0  0  0  0  0  0  0  0
  -29.7050  -19.1910   20.5170 C   0  0  0  0  0  0  0  0  0  0  0  0
  -30.3740  -17.0020   21.5560 N   0  0  0  0  0  0  0  0  0  0  0  0
  -29.2730  -18.4680   19.4290 N   0  0  0  0  0  0  0  0  0  0  0  0
  -30.6460  -14.8530   20.1710 C   0  0  0  0  0  0  0  0  0  0  0  0
  -30.3500  -12.5800   19.1540 C   0  0  0  0  0  2  0  0  0  0  0  0
  -29.3810  -12.6580   17.9550 C   0  0  0  0  0  2  0  0  0  0  0  0
  -27.9290  -12.4750   18.4320 C   0  0  0  0  0  2  0  0  0  0  0  0
  -27.5920  -13.3540   19.6660 C   0  0  0  0  0  3  0  0  0  0  0  0
  -28.6890  -13.3030   20.7500 C   0  0  0  0  0  2  0  0  0  0  0  0
  -29.9630  -13.6500   20.1130 N   0  0  0  0  0  0  0  0  0  0  0  0
  -31.8310  -14.8480   19.8210 O   0  0  0  0  0  0  0  0  0  0  0  0
  -25.2450  -13.9180   20.5150 C   0  0  0  0  0  0  0  0  0  0  0  0
  -24.1940  -13.1340   20.9060 C   0  0  0  0  0  0  0  0  0  0  0  0
  -24.6540  -11.7840   20.8250 C   0  0  0  0  0  0  0  0  0  0  0  0
  -26.2750  -13.0450   20.2110 N   0  0  0  0  0  0  0  0  0  0  0  0
  -25.9320  -11.7550   20.4640 N   0  0  0  0  0  0  0  0  0  0  0  0
  -23.9310  -10.5180   21.0110 C   0  0  0  0  0  0  0  0  0  0  0  0
  -24.3700   -9.5450   21.9350 C   0  0  0  0  0  3  0  0  0  0  0  0
  -23.6460   -8.3460   22.1110 C   0  0  0  0  0  3  0  0  0  0  0  0
  -22.4690   -8.1110   21.3610 C   0  0  0  0  0  0  0  0  0  0  0  0
  -22.0490   -9.0730   20.4250 C   0  0  0  0  0  3  0  0  0  0  0  0
  -22.7740  -10.2630   20.2480 C   0  0  0  0  0  3  0  0  0  0  0  0
  -21.7170   -6.9640   21.4450 O   0  0  0  0  0  0  0  0  0  0  0  0
  -21.6390   -6.2380   22.6060 C   0  0  0  0  0  0  0  0  0  0  0  0
  -21.1430   -6.7980   23.8040 C   0  0  0  0  0  3  0  0  0  0  0  0
  -21.0140   -5.9960   24.9560 C   0  0  0  0  0  3  0  0  0  0  0  0
  -21.3720   -4.6360   24.9120 C   0  0  0  0  0  0  0  0  0  0  0  0
  -21.8610   -4.0750   23.7190 C   0  0  0  0  0  3  0  0  0  0  0  0
  -21.9910   -4.8730   22.5680 C   0  0  0  0  0  0  0  0  0  0  0  0
  -22.4430   -4.3230   21.4160 F   0  0  0  0  0  0  0  0  0  0  0  0
  -21.2420   -3.8640   26.0150 F   0  0  0  0  0  0  0  0  0  0  0  0
  -22.8090  -13.6070   21.2390 C   0  0  0  0  0  0  0  0  0  0  0  0
  -22.1110  -12.8930   22.1150 N   0  0  0  0  0  0  0  0  0  0  0  0
  -22.3560  -14.6460   20.7590 O   0  0  0  0  0  0  0  0  0  0  0  0
  -22.4910  -12.0530   22.5260 H   0  0  0  0  0  0  0  0  0  0  0  0
  -21.1840  -13.1920   22.3820 H   0  0  0  0  0  0  0  0  0  0  0  0
  -25.4050  -15.2920   20.3690 N   0  0  0  0  0  0  0  0  0  0  0  0
  -24.6430  -15.9410   20.5350 H   0  0  0  0  0  0  0  0  0  0  0  0
  -26.2450  -15.7450   20.0350 H   0  0  0  0  0  0  0  0  0  0  0  0
  -29.1120  -23.6230   20.3970 C   0  0  1  0  0  0  0  0  0  0  0  0
  -29.5670  -23.8760   21.6230 F   0  0  0  0  0  0  0  0  0  0  0  0
  -30.0910  -23.8910   19.5350 F   0  0  0  0  0  0  0  0  0  0  0  0
  -28.0090  -24.8090   20.1130 C   0  0  0  0  0  2  0  0  0  0  0  0
  -28.2820  -26.3070   20.2820 O   0  0  0  0  0  0  0  0  0  0  0  0
  -24.6340  -31.8710   23.3020 C   0  0  0  0  0  0  0  0  0  0  0  0
  -27.2070  -27.2430   20.2240 C   0  0  0  0  0  0  0  0  0  0  0  0
  -23.4270  -30.4890   21.6550 C   0  0  0  0  0  3  0  0  0  0  0  0
  -24.8700  -28.9380   20.2140 C   0  0  0  0  0  0  0  0  0  0  0  0
  -25.9760  -30.7760   21.4790 C   0  0  0  0  0  2  0  0  0  0  0  0
  -26.0480  -29.3950   20.8180 C   0  0  0  0  0  0  0  0  0  0  0  0
  -27.2200  -28.5620   20.8070 C   0  0  0  0  0  3  0  0  0  0  0  0
  -26.0030  -26.8680   19.5860 C   0  0  0  0  0  3  0  0  0  0  0  0
  -24.8570  -27.6850   19.5850 C   0  0  0  0  0  3  0  0  0  0  0  0
  -23.6420  -29.8250   20.2690 C   0  0  0  0  0  2  0  0  0  0  0  0
  -24.6990  -31.0650   22.2010 N   0  0  0  0  0  0  0  0  0  0  0  0
  -23.5500  -32.1510   23.8370 O   0  0  0  0  0  0  0  0  0  0  0  0
  -22.7570  -29.4710   22.6090 C   0  0  0  0  0  0  0  0  0  0  0  0
  -21.4310  -29.2910   22.4740 N   0  0  0  0  0  0  0  0  0  0  0  0
  -23.4300  -28.8460   23.4330 O   0  0  0  0  0  0  0  0  0  0  0  0
  -20.9460  -29.8470   21.7840 H   0  0  0  0  0  0  0  0  0  0  0  0
  -18.0520  -28.0860   22.9620 C   0  0  0  0  0  0  0  0  0  0  0  0
  -20.6100  -28.3500   23.2380 C   0  0  0  0  0  3  0  0  0  0  0  0
  -20.7150  -26.9200   22.6570 C   0  0  0  0  0  2  0  0  0  0  0  0
  -19.6160  -26.6000   21.6390 C   0  0  0  0  0  2  0  0  0  0  0  0
  -18.2320  -26.7400   22.2800 C   0  0  0  0  0  2  0  0  0  0  0  0
  -19.1680  -28.8470   23.3980 C   0  0  0  0  0  0  0  0  0  0  0  0
  -18.9450  -30.1060   23.9980 C   0  0  0  0  0  3  0  0  0  0  0  0
  -17.6380  -30.6040   24.1640 C   0  0  0  0  0  3  0  0  0  0  0  0
  -16.5370  -29.8380   23.7430 C   0  0  0  0  0  3  0  0  0  0  0  0
  -16.7440  -28.5810   23.1480 C   0  0  0  0  0  3  0  0  0  0  0  0
  -25.9160  -32.4990   23.9300 C   0  0  0  0  0  3  0  0  0  0  0  0
  -26.4200  -31.7270   25.2120 C   0  0  1  0  0  0  0  0  0  0  0  0
  -25.3180  -31.4960   26.2720 C   0  0  0  0  0  1  0  0  0  0  0  0
  -27.0010  -30.3470   24.8290 C   0  0  0  0  0  1  0  0  0  0  0  0
  -27.5690  -32.5190   25.8800 C   0  0  0  0  0  1  0  0  0  0  0  0
  -25.6100  -33.8990   24.2600 N   0  0  0  0  0  0  0  0  0  0  0  0
  -25.9190  -34.9500   23.4880 C   0  0  0  0  0  0  0  0  0  0  0  0
  -26.5570  -34.8420   22.4370 O   0  0  0  0  0  0  0  0  0  0  0  0
  -25.0380  -34.0560   25.0760 H   0  0  0  0  0  0  0  0  0  0  0  0
  -24.1710  -36.7350   23.1870 C   0  0  0  0  0  1  0  0  0  0  0  0
  -25.4440  -36.3400   23.9530 C   0  0  0  0  0  3  0  0  0  0  0  0
  -27.6000  -37.2460   24.7030 C   0  0  0  0  0  1  0  0  0  0  0  0
  -26.4680  -37.3960   23.7940 N   0  0  0  0  0  0  0  0  0  0  0  0
  -26.0620  -38.3170   23.9400 H   0  0  0  0  0  0  0  0  0  0  0  0
  1 48  1  0
  1  5  1  0
  1  2  1  0
  5  4  1  6
  5  9  1  0
  5  3  1  0
  6 11  2  0
  6  8  1  0
  8 10  2  0
  9  7  2  0
 10  7  1  0
 11  9  1  0
 12  8  1  0
 13 18  1  0
 14 15  1  0
 14 13  1  0
 16 15  1  0
 16 23  1  0
 16 17  1  0
 18 12  1  0
 18 17  1  0
 19 12  2  0
 20 21  2  0
 21 40  1  0
 22 21  1  0
 22 25  1  0
 23 24  1  0
 23 20  1  0
 24 22  2  0
 25 26  1  0
 26 27  2  0
 28 31  1  0
 28 27  1  0
 29 28  2  0
 30 29  1  0
 30 25  2  0
 31 32  1  0
 32 33  1  0
 33 34  2  0
 35 34  1  0
 35 39  1  0
 36 35  2  0
 37 32  2  0
 37 36  1  0
 38 37  1  0
 40 41  1  0
 41 44  1  0
 41 43  1  0
 42 40  2  0
 45 20  1  0
 45 46  1  0
 47 45  1  0
 48 49  1  1
 50 48  1  0
 51 52  1  0
 51 48  1  0
 53 64  2  0
 54 52  1  0
 54 59  1  0
 55 63  1  0
 55 65  1  0
 56 62  1  0
 56 58  1  0
 57 63  1  0
 58 57  1  0
 59 58  2  0
 60 54  2  0
 61 60  1  0
 61 56  2  0
 62 55  1  0
 63 53  1  0
 65 67  2  0
 66 65  1  0
 68 66  1  0
 69 78  2  0
 69 74  1  0
 70 66  1  0
 70 74  1  0
 71 70  1  0
 72 73  1  0
 72 71  1  0
 73 69  1  0
 74 75  2  0
 75 76  1  0
 77 76  2  0
 78 77  1  0
 79 53  1  0
 79 84  1  0
 79 80  1  0
 80 83  1  1
 80 81  1  0
 82 80  1  0
 84 87  1  0
 85 89  1  0
 85 84  1  0
 86 85  2  0
 89 88  1  0
 91 92  1  0
 91 89  1  0
 91 90  1  0
M  ISO  4   8 100  12 100  51 101  52 101
M  END
>  <TORSDO>  (71) 
F 20

>  <SCORE>  (71) 
-14.032

>  <name>  (71) 
73

>  <ligand_id>  (71) 
73

>  <original_smiles>  (71) 
[H]c1nc(C(C([H])([H])[H])(C([H])([H])[H])C([H])(F)C(F)(F)C([H])([H])Oc2c([H])c([H])c3c(c2[H])C([H])([H])N(C(=O)C([H])(N([H])C(=O)C([H])(N([H])C([H])([H])[H])C([H])([H])[H])C(C([H])([H])[H])(C([H])([H])[H])C([H])([H])[H])C([H])(C(=O)N([H])C2([H])c4c([H])c([H])c([H])c([H])c4C([H])([H])C([H])([H])C2([H])[H])C3([H])[H])c([H])nc1C(=O)N1C([H])([H])C([H])([H])C([H])([H])C([H])(n2nc(-c3c([H])c([H])c(Oc4c([H])c([H])c(F)c([H])c4F)c([H])c3[H])c(C(=O)N([H])[H])c2N([H])[H])C1([H])[H]

>  <smiles>  (71) 
[H]c1nc(C(C([H])([H])[H])(C([H])([H])[H])C([H])(F)C(F)(F)C([H])([H])Oc2c([H])c([H])c3c(c2[H])C([H])([H])N(C(=O)C([H])(N([H])C(=O)C([H])(N([H])C([H])([H])[H])C([H])([H])[H])C(C([H])([H])[H])(C([H])([H])[H])C([H])([H])[H])C([H])(C(=O)N([H])C2([H])c4c([H])c([H])c([H])c([H])c4C([H])([H])C([H])([H])C2([H])[H])C3([H])[H])c([H])nc1C(=O)N1C([H])([H])C([H])([H])C([H])([H])C([H])(n2nc(-c3c([H])c([H])c(Oc4c([H])c([H])c(F)c([H])c4F)c([H])c3[H])c(C(=O)N([H])[H])c2N([H])[H])C1([H])[H]

$$$$
74:0:0
     RDKit          3D

 95104  0  0  1  0  0  0  0  0999 V2000
  -26.8510  -25.4650   22.5000 C   0  0  0  0  0  3  0  0  0  0  0  0
  -27.6370  -24.8040   21.5420 C   0  0  0  0  0  3  0  0  0  0  0  0
  -28.8520  -26.0900   23.6620 C   0  0  0  0  0  3  0  0  0  0  0  0
  -27.4410  -26.1680   23.5840 C   0  0  0  0  0  0  0  0  0  0  0  0
  -29.0300  -24.8490   21.6500 C   0  0  0  0  0  0  0  0  0  0  0  0
  -29.6200  -25.4580   22.7200 N   0  0  0  0  0  0  0  0  0  0  0  0
  -25.0890  -26.9940   23.8240 C   0  0  0  0  0  1  0  0  0  0  0  0
  -26.4980  -27.0470   24.4760 C   0  0  1  0  0  0  0  0  0  0  0  0
  -26.0430  -27.6220   26.9590 C   0  0  0  0  0  3  0  0  0  0  0  0
  -26.1850  -26.6950   25.9560 C   0  0  0  0  0  0  0  0  0  0  0  0
  -25.7710  -25.4730   26.5050 N   0  0  0  0  0  0  0  0  0  0  0  0
  -25.4130  -25.6390   27.7640 N   0  0  0  0  0  0  0  0  0  0  0  0
  -25.5110  -26.9640   28.0590 N   0  0  0  0  0  0  0  0  0  0  0  0
  -25.9560  -28.9350   29.5350 C   0  0  0  0  0  1  0  0  0  0  0  0
  -25.2330  -27.5810   29.3930 C   0  0  0  0  0  3  0  0  0  0  0  0
  -25.4450  -26.7440   30.7160 C   0  0  0  0  0  0  0  0  0  0  0  0
  -25.6850  -26.6540   33.2120 C   0  0  0  0  0  2  0  0  0  0  0  0
  -24.3160  -26.5890   33.9240 C   0  0  0  0  0  2  0  0  0  0  0  0
  -23.7160  -27.9990   34.1030 C   0  0  0  0  0  2  0  0  0  0  0  0
  -23.7520  -28.8120   32.7810 C   0  0  0  0  0  3  0  0  0  0  0  0
  -25.1850  -28.7790   32.2140 C   0  0  0  0  0  2  0  0  0  0  0  0
  -25.5140  -27.3740   31.9310 N   0  0  0  0  0  0  0  0  0  0  0  0
  -25.6320  -25.5220   30.6320 O   0  0  0  0  0  0  0  0  0  0  0  0
  -22.3820  -30.9140   32.2210 C   0  0  0  0  0  0  0  0  0  0  0  0
  -22.2530  -32.1160   32.8670 C   0  0  0  0  0  0  0  0  0  0  0  0
  -23.1070  -32.0440   34.0090 C   0  0  0  0  0  0  0  0  0  0  0  0
  -23.2860  -30.1810   32.9720 N   0  0  0  0  0  0  0  0  0  0  0  0
  -23.7640  -30.8920   34.0240 N   0  0  0  0  0  0  0  0  0  0  0  0
  -23.2960  -32.9800   35.1250 C   0  0  0  0  0  0  0  0  0  0  0  0
  -24.5610  -33.1760   35.7180 C   0  0  0  0  0  3  0  0  0  0  0  0
  -24.7190  -34.0890   36.7820 C   0  0  0  0  0  3  0  0  0  0  0  0
  -23.6060  -34.8200   37.2610 C   0  0  0  0  0  0  0  0  0  0  0  0
  -22.3430  -34.6050   36.6820 C   0  0  0  0  0  3  0  0  0  0  0  0
  -22.1860  -33.6900   35.6290 C   0  0  0  0  0  3  0  0  0  0  0  0
  -23.6590  -35.7090   38.3070 O   0  0  0  0  0  0  0  0  0  0  0  0
  -24.8530  -36.1360   38.8280 C   0  0  0  0  0  0  0  0  0  0  0  0
  -25.8400  -36.7460   38.0220 C   0  0  0  0  0  3  0  0  0  0  0  0
  -27.0260  -37.2310   38.6090 C   0  0  0  0  0  3  0  0  0  0  0  0
  -27.2220  -37.1180   39.9990 C   0  0  0  0  0  0  0  0  0  0  0  0
  -26.2410  -36.5110   40.8020 C   0  0  0  0  0  3  0  0  0  0  0  0
  -25.0590  -36.0240   40.2180 C   0  0  0  0  0  0  0  0  0  0  0  0
  -24.1060  -35.4610   40.9970 F   0  0  0  0  0  0  0  0  0  0  0  0
  -28.3590  -37.5880   40.5650 F   0  0  0  0  0  0  0  0  0  0  0  0
  -21.3190  -33.2330   32.5040 C   0  0  0  0  0  0  0  0  0  0  0  0
  -21.7430  -34.4790   32.7040 N   0  0  0  0  0  0  0  0  0  0  0  0
  -20.2230  -33.0090   31.9950 O   0  0  0  0  0  0  0  0  0  0  0  0
  -22.6480  -34.6610   33.1100 H   0  0  0  0  0  0  0  0  0  0  0  0
  -21.1560  -35.2590   32.4480 H   0  0  0  0  0  0  0  0  0  0  0  0
  -21.7970  -30.3820   31.0780 N   0  0  0  0  0  0  0  0  0  0  0  0
  -21.0890  -30.8760   30.5500 H   0  0  0  0  0  0  0  0  0  0  0  0
  -21.9300  -29.4280   30.7600 H   0  0  0  0  0  0  0  0  0  0  0  0
  -26.3870  -29.5800   23.6770 C   0  0  0  0  0  1  0  0  0  0  0  0
  -27.1410  -28.4830   24.4450 C   0  0  0  0  0  2  0  0  0  0  0  0
  -29.9080  -24.3550   20.4710 C   0  0  0  0  0  2  0  0  0  0  0  0
  -29.2510  -23.5840   19.4430 O   0  0  0  0  0  0  0  0  0  0  0  0
  -33.1560  -22.6920   13.4430 C   0  0  0  0  0  0  0  0  0  0  0  0
  -29.5100  -23.8650   18.1120 C   0  0  0  0  0  0  0  0  0  0  0  0
  -31.3850  -24.4180   13.3680 C   0  0  0  0  0  3  0  0  0  0  0  0
  -29.7630  -24.4250   15.3420 C   0  0  0  0  0  0  0  0  0  0  0  0
  -31.1780  -22.4080   14.9390 C   0  0  0  0  0  2  0  0  0  0  0  0
  -30.3860  -23.2930   15.8850 C   0  0  0  0  0  0  0  0  0  0  0  0
  -30.2560  -23.0030   17.2690 C   0  0  0  0  0  3  0  0  0  0  0  0
  -28.8960  -25.0000   17.5450 C   0  0  0  0  0  3  0  0  0  0  0  0
  -29.0190  -25.2860   16.1710 C   0  0  0  0  0  3  0  0  0  0  0  0
  -29.9300  -24.6560   13.8540 C   0  0  0  0  0  2  0  0  0  0  0  0
  -31.9650  -23.1530   13.9250 N   0  0  0  0  0  0  0  0  0  0  0  0
  -33.7460  -23.2810   12.5270 O   0  0  0  0  0  0  0  0  0  0  0  0
  -32.2340  -25.6710   13.6890 C   0  0  0  0  0  0  0  0  0  0  0  0
  -32.2330  -26.6480   12.7670 N   0  0  0  0  0  0  0  0  0  0  0  0
  -32.8500  -25.7600   14.7560 O   0  0  0  0  0  0  0  0  0  0  0  0
  -31.7070  -26.4970   11.9170 H   0  0  0  0  0  0  0  0  0  0  0  0
  -32.8400  -29.7880   11.0830 C   0  0  0  0  0  0  0  0  0  0  0  0
  -32.9270  -27.9320   12.8780 C   0  0  0  0  0  3  0  0  0  0  0  0
  -32.1460  -28.9100   13.7830 C   0  0  0  0  0  2  0  0  0  0  0  0
  -31.1910  -29.8210   13.0040 C   0  0  0  0  0  2  0  0  0  0  0  0
  -31.9630  -30.6520   11.9760 C   0  0  0  0  0  2  0  0  0  0  0  0
  -33.2800  -28.5050   11.5010 C   0  0  0  0  0  0  0  0  0  0  0  0
  -34.0640  -27.7290   10.6200 C   0  0  0  0  0  3  0  0  0  0  0  0
  -34.4100  -28.2140    9.3450 C   0  0  0  0  0  3  0  0  0  0  0  0
  -33.9840  -29.4910    8.9410 C   0  0  0  0  0  3  0  0  0  0  0  0
  -33.2050  -30.2770    9.8100 C   0  0  0  0  0  3  0  0  0  0  0  0
  -33.8150  -21.3910   14.0000 C   0  0  0  0  0  3  0  0  0  0  0  0
  -34.4410  -20.6920   12.8690 N   0  0  0  0  0  0  0  0  0  0  0  0
  -33.9010  -19.6460   12.2300 C   0  0  0  0  0  0  0  0  0  0  0  0
  -32.8440  -19.1170   12.5850 O   0  0  0  0  0  0  0  0  0  0  0  0
  -35.2830  -21.1020   12.4950 H   0  0  0  0  0  0  0  0  0  0  0  0
  -33.8820  -19.4540    9.7230 C   0  0  0  0  0  1  0  0  0  0  0  0
  -34.6540  -19.0980   11.0030 C   0  0  0  0  0  3  0  0  0  0  0  0
  -35.8320  -17.2350   12.0890 C   0  0  0  0  0  1  0  0  0  0  0  0
  -34.8780  -17.6360   11.0570 N   0  0  0  0  0  0  0  0  0  0  0  0
  -35.2160  -17.2900   10.1630 H   0  0  0  0  0  0  0  0  0  0  0  0
  -34.8730  -21.6710   15.1370 C   0  0  1  0  0  0  0  0  0  0  0  0
  -35.9490  -22.7090   14.7450 C   0  0  0  0  0  1  0  0  0  0  0  0
  -34.1750  -22.1740   16.4230 C   0  0  0  0  0  1  0  0  0  0  0  0
  -35.6010  -20.3590   15.5130 C   0  0  0  0  0  1  0  0  0  0  0  0
  1  4  1  0
  2  5  1  0
  2  1  2  0
  4  3  2  0
  4  8  1  0
  5  6  2  0
  6  3  1  0
  8  7  1  6
  8 10  1  0
  9 13  1  0
 10 11  1  0
 10  9  2  0
 11 12  2  0
 12 13  1  0
 13 15  1  0
 15 14  1  0
 15 16  1  0
 16 22  1  0
 17 18  1  0
 18 19  1  0
 20 21  1  0
 20 27  1  0
 20 19  1  0
 22 21  1  0
 22 17  1  0
 23 16  2  0
 24 25  2  0
 24 27  1  0
 25 26  1  0
 26 28  2  0
 26 29  1  0
 27 28  1  0
 29 34  2  0
 29 30  1  0
 30 31  2  0
 31 32  1  0
 32 35  1  0
 33 32  2  0
 34 33  1  0
 35 36  1  0
 36 41  1  0
 37 38  1  0
 37 36  2  0
 38 39  2  0
 39 43  1  0
 39 40  1  0
 41 40  2  0
 41 42  1  0
 44 45  1  0
 44 25  1  0
 45 47  1  0
 46 44  2  0
 48 45  1  0
 49 24  1  0
 50 49  1  0
 51 49  1  0
 52 53  1  0
 53  8  1  0
 54  5  1  0
 55 54  1  0
 56 66  1  0
 57 55  1  0
 58 68  1  0
 58 65  1  0
 58 66  1  0
 59 61  2  0
 59 64  1  0
 60 61  1  0
 61 62  1  0
 62 57  2  0
 63 57  1  0
 64 63  2  0
 65 59  1  0
 66 60  1  0
 67 56  2  0
 68 70  2  0
 69 68  1  0
 71 69  1  0
 72 77  1  0
 72 76  1  0
 73 69  1  0
 73 74  1  0
 75 74  1  0
 76 75  1  0
 77 73  1  0
 78 77  2  0
 79 78  1  0
 80 79  2  0
 80 81  1  0
 81 72  2  0
 82 56  1  0
 82 92  1  0
 83 82  1  0
 84 85  2  0
 84 83  1  0
 86 83  1  0
 88 87  1  0
 88 90  1  0
 88 84  1  0
 90 89  1  0
 91 90  1  0
 92 95  1  1
 92 94  1  0
 93 92  1  0
M  ISO  4  15 100  16 100  54 101  55 101
M  END
>  <TORSDO>  (72) 
F 21

>  <SCORE>  (72) 
-3.803

>  <name>  (72) 
74

>  <ligand_id>  (72) 
74

>  <original_smiles>  (72) 
[H]c1nc(C([H])([H])Oc2c([H])c([H])c3c(c2[H])C([H])([H])N(C(=O)C([H])(N([H])C(=O)C([H])(N([H])C([H])([H])[H])C([H])([H])[H])C(C([H])([H])[H])(C([H])([H])[H])C([H])([H])[H])C([H])(C(=O)N([H])C2([H])c4c([H])c([H])c([H])c([H])c4C([H])([H])C([H])([H])C2([H])[H])C3([H])[H])c([H])c([H])c1C(c1nnn(C([H])(C(=O)N2C([H])([H])C([H])([H])C([H])([H])C([H])(n3nc(-c4c([H])c([H])c(Oc5c([H])c([H])c(F)c([H])c5F)c([H])c4[H])c(C(=O)N([H])[H])c3N([H])[H])C2([H])[H])C([H])([H])[H])c1[H])(C([H])([H])[H])C([H])([H])C([H])([H])[H]

>  <smiles>  (72) 
[H]c1nc(C([H])([H])Oc2c([H])c([H])c3c(c2[H])C([H])([H])N(C(=O)C([H])(N([H])C(=O)C([H])(N([H])C([H])([H])[H])C([H])([H])[H])C(C([H])([H])[H])(C([H])([H])[H])C([H])([H])[H])C([H])(C(=O)N([H])C2([H])c4c([H])c([H])c([H])c([H])c4C([H])([H])C([H])([H])C2([H])[H])C3([H])[H])c([H])c([H])c1C(c1nnn(C([H])(C(=O)N2C([H])([H])C([H])([H])C([H])([H])C([H])(n3nc(-c4c([H])c([H])c(Oc5c([H])c([H])c(F)c([H])c5F)c([H])c4[H])c(C(=O)N([H])[H])c3N([H])[H])C2([H])[H])C([H])([H])[H])c1[H])(C([H])([H])[H])C([H])([H])C([H])([H])[H]

$$$$
75:0:0
     RDKit          3D

103111  0  0  1  0  0  0  0  0999 V2000
  -29.8250  -21.5610   18.6760 C   0  0  0  0  0  3  0  0  0  0  0  0
  -28.6910  -22.3900   18.5610 C   0  0  0  0  0  0  0  0  0  0  0  0
  -27.5340  -21.9350   19.2410 C   0  0  0  0  0  0  0  0  0  0  0  0
  -28.6910  -20.1100   20.0230 C   0  0  0  0  0  0  0  0  0  0  0  0
  -29.8200  -20.4240   19.3980 N   0  0  0  0  0  0  0  0  0  0  0  0
  -27.5580  -20.7870   19.9620 N   0  0  0  0  0  0  0  0  0  0  0  0
  -26.1820  -22.6630   19.1870 C   0  0  1  0  0  0  0  0  0  0  0  0
  -26.2710  -23.9170   18.7420 F   0  0  0  0  0  0  0  0  0  0  0  0
  -25.3520  -21.9910   18.3870 F   0  0  0  0  0  0  0  0  0  0  0  0
  -25.6370  -22.7100   20.4060 F   0  0  0  0  0  0  0  0  0  0  0  0
  -28.7000  -18.8060   20.8040 C   0  0  0  0  0  2  0  0  0  0  0  0
  -28.7770  -16.9240   19.2540 C   0  0  0  0  0  1  0  0  0  0  0  0
  -29.5910  -17.8540   20.0850 N   0  0  2  0  0  4  0  0  0  0  0  0
  -29.9800  -18.5210   19.4200 H   0  0  0  0  0  0  0  0  0  0  0  0
  -30.2690  -16.4530   22.0610 C   0  0  0  0  0  1  0  0  0  0  0  0
  -31.6820  -18.3800   21.4120 C   0  0  0  0  0  1  0  0  0  0  0  0
  -30.7720  -17.2530   20.8270 C   0  0  2  0  0  0  0  0  0  0  0  0
  -31.6810  -16.9660   18.4340 C   0  0  0  0  0  1  0  0  0  0  0  0
  -33.1040  -16.1540   20.3220 C   0  0  0  0  0  1  0  0  0  0  0  0
  -31.6360  -16.3230   19.8500 C   0  0  1  0  0  0  0  0  0  0  0  0
  -31.5230  -13.8180   19.2330 C   0  0  0  0  0  0  0  0  0  0  0  0
  -31.1590  -11.3880   18.9670 C   0  0  0  0  0  2  0  0  0  0  0  0
  -30.1230  -11.0840   17.8680 C   0  0  0  0  0  2  0  0  0  0  0  0
  -28.6940  -11.1180   18.4410 C   0  0  0  0  0  2  0  0  0  0  0  0
  -28.4200  -12.3970   19.2740 C   0  0  0  0  0  3  0  0  0  0  0  0
  -29.5550  -12.6400   20.2940 C   0  0  0  0  0  2  0  0  0  0  0  0
  -30.8350  -12.6930   19.5630 N   0  0  0  0  0  0  0  0  0  0  0  0
  -32.4900  -13.8000   18.4680 O   0  0  0  0  0  0  0  0  0  0  0  0
  -31.0810  -14.9470   19.8260 N   0  0  0  0  0  0  0  0  0  0  0  0
  -30.3090  -14.7860   20.4550 H   0  0  0  0  0  0  0  0  0  0  0  0
  -26.2910  -13.3690   20.3530 C   0  0  0  0  0  0  0  0  0  0  0  0
  -25.1610  -12.7750   20.8450 C   0  0  0  0  0  0  0  0  0  0  0  0
  -25.3460  -11.3710   20.6650 C   0  0  0  0  0  0  0  0  0  0  0  0
  -27.1120  -12.3370   19.9240 N   0  0  0  0  0  0  0  0  0  0  0  0
  -26.5500  -11.1240   20.1650 N   0  0  0  0  0  0  0  0  0  0  0  0
  -24.4230  -10.2500   20.8850 C   0  0  0  0  0  0  0  0  0  0  0  0
  -24.7280   -9.2100   21.7900 C   0  0  0  0  0  3  0  0  0  0  0  0
  -23.8160   -8.1530   21.9980 C   0  0  0  0  0  3  0  0  0  0  0  0
  -22.5840   -8.1300   21.3020 C   0  0  0  0  0  0  0  0  0  0  0  0
  -22.2960   -9.1560   20.3850 C   0  0  0  0  0  3  0  0  0  0  0  0
  -23.2060  -10.2050   20.1750 C   0  0  0  0  0  3  0  0  0  0  0  0
  -21.6500   -7.1300   21.4220 O   0  0  0  0  0  0  0  0  0  0  0  0
  -21.4870   -6.4350   22.5920 C   0  0  0  0  0  0  0  0  0  0  0  0
  -21.1220   -7.0760   23.7960 C   0  0  0  0  0  3  0  0  0  0  0  0
  -20.8970   -6.3150   24.9600 C   0  0  0  0  0  3  0  0  0  0  0  0
  -21.0260   -4.9140   24.9210 C   0  0  0  0  0  0  0  0  0  0  0  0
  -21.3840   -4.2720   23.7230 C   0  0  0  0  0  3  0  0  0  0  0  0
  -21.6100   -5.0310   22.5600 C   0  0  0  0  0  0  0  0  0  0  0  0
  -21.9340   -4.4060   21.4030 F   0  0  0  0  0  0  0  0  0  0  0  0
  -20.8020   -4.1810   26.0370 F   0  0  0  0  0  0  0  0  0  0  0  0
  -23.9310  -13.4750   21.3470 C   0  0  0  0  0  0  0  0  0  0  0  0
  -23.2210  -12.8660   22.2910 N   0  0  0  0  0  0  0  0  0  0  0  0
  -23.6210  -14.5930   20.9370 O   0  0  0  0  0  0  0  0  0  0  0  0
  -23.4880  -11.9590   22.6420 H   0  0  0  0  0  0  0  0  0  0  0  0
  -22.4000  -13.3170   22.6680 H   0  0  0  0  0  0  0  0  0  0  0  0
  -26.6740  -14.6980   20.2050 N   0  0  0  0  0  0  0  0  0  0  0  0
  -25.9540  -15.4010   20.3370 H   0  0  0  0  0  0  0  0  0  0  0  0
  -27.3020  -14.9350   19.4500 H   0  0  0  0  0  0  0  0  0  0  0  0
  -28.6600  -23.5350   17.7910 O   0  0  0  0  0  0  0  0  0  0  0  0
  -29.8720  -24.2640   17.5860 C   0  0  0  0  0  2  0  0  0  0  0  0
  -29.6420  -25.7210   18.0070 C   0  0  0  0  0  2  0  0  0  0  0  0
  -29.3850  -25.8590   19.5160 C   0  0  0  0  0  2  0  0  0  0  0  0
  -29.1460  -27.2120   19.8810 O   0  0  0  0  0  0  0  0  0  0  0  0
  -24.6560  -31.5700   23.1890 C   0  0  0  0  0  0  0  0  0  0  0  0
  -27.8600  -27.7050   19.8930 C   0  0  0  0  0  0  0  0  0  0  0  0
  -23.6390  -30.1240   21.4560 C   0  0  0  0  0  3  0  0  0  0  0  0
  -25.2810  -28.8620   19.9670 C   0  0  0  0  0  0  0  0  0  0  0  0
  -26.0950  -30.8150   21.3030 C   0  0  0  0  0  2  0  0  0  0  0  0
  -26.3560  -29.5040   20.5930 C   0  0  0  0  0  0  0  0  0  0  0  0
  -27.6440  -28.9320   20.5530 C   0  0  0  0  0  3  0  0  0  0  0  0
  -26.7640  -27.0620   19.2700 C   0  0  0  0  0  3  0  0  0  0  0  0
  -25.4790  -27.6380   19.3060 C   0  0  0  0  0  3  0  0  0  0  0  0
  -23.9370  -29.5500   20.0440 C   0  0  0  0  0  2  0  0  0  0  0  0
  -24.8120  -30.8490   22.0420 N   0  0  0  0  0  0  0  0  0  0  0  0
  -23.5480  -31.6730   23.7350 O   0  0  0  0  0  0  0  0  0  0  0  0
  -23.1190  -28.9770   22.3520 C   0  0  0  0  0  0  0  0  0  0  0  0
  -21.8810  -28.5300   22.0890 N   0  0  0  0  0  0  0  0  0  0  0  0
  -23.8310  -28.4930   23.2360 O   0  0  0  0  0  0  0  0  0  0  0  0
  -21.3580  -28.9890   21.3570 H   0  0  0  0  0  0  0  0  0  0  0  0
  -18.8450  -26.5720   22.1400 C   0  0  0  0  0  0  0  0  0  0  0  0
  -21.1970  -27.4330   22.7740 C   0  0  0  0  0  3  0  0  0  0  0  0
  -21.7190  -26.0610   22.2880 C   0  0  0  0  0  2  0  0  0  0  0  0
  -20.8940  -25.4750   21.1380 C   0  0  0  0  0  2  0  0  0  0  0  0
  -19.4330  -25.2950   21.5640 C   0  0  0  0  0  2  0  0  0  0  0  0
  -19.6750  -27.5830   22.6940 C   0  0  0  0  0  0  0  0  0  0  0  0
  -19.0810  -28.7670   23.1840 C   0  0  0  0  0  3  0  0  0  0  0  0
  -17.6860  -28.9480   23.1270 C   0  0  0  0  0  3  0  0  0  0  0  0
  -16.8680  -27.9370   22.5940 C   0  0  0  0  0  3  0  0  0  0  0  0
  -17.4460  -26.7510   22.1070 C   0  0  0  0  0  3  0  0  0  0  0  0
  -25.8520  -32.3200   23.8560 C   0  0  0  0  0  3  0  0  0  0  0  0
  -26.3950  -31.5980   25.1510 C   0  0  1  0  0  0  0  0  0  0  0  0
  -25.2880  -31.2100   26.1580 C   0  0  0  0  0  1  0  0  0  0  0  0
  -27.1600  -30.3090   24.7730 C   0  0  0  0  0  1  0  0  0  0  0  0
  -27.4050  -32.5150   25.8790 C   0  0  0  0  0  1  0  0  0  0  0  0
  -25.4010  -33.6820   24.1690 N   0  0  0  0  0  0  0  0  0  0  0  0
  -25.6650  -34.7610   23.4200 C   0  0  0  0  0  0  0  0  0  0  0  0
  -26.3850  -34.7230   22.4190 O   0  0  0  0  0  0  0  0  0  0  0  0
  -24.7620  -33.7800   24.9450 H   0  0  0  0  0  0  0  0  0  0  0  0
  -23.7890  -36.3810   22.9900 C   0  0  0  0  0  1  0  0  0  0  0  0
  -25.0290  -36.0970   23.8520 C   0  0  0  0  0  3  0  0  0  0  0  0
  -27.0400  -37.1760   24.7590 C   0  0  0  0  0  1  0  0  0  0  0  0
  -25.9590  -37.2440   23.7780 N   0  0  0  0  0  0  0  0  0  0  0  0
  -25.4620  -38.1190   23.9180 H   0  0  0  0  0  0  0  0  0  0  0  0
  1  5  1  0
  2  1  2  0
  2  3  1  0
  3  6  2  0
  4 11  1  0
  5  4  2  0
  6  4  1  0
  7  3  1  0
  7 10  1  1
  8  7  1  0
  9  7  1  0
 12 13  1  0
 13 11  1  0
 13 17  1  0
 13 14  1  6
 17 16  1  1
 17 15  1  0
 20 18  1  6
 20 19  1  0
 20 17  1  0
 21 27  1  0
 21 29  1  0
 22 27  1  0
 23 24  1  0
 23 22  1  0
 25 24  1  0
 25 34  1  0
 25 26  1  0
 27 26  1  0
 28 21  2  0
 29 20  1  0
 29 30  1  0
 31 32  2  0
 32 51  1  0
 33 32  1  0
 33 36  1  0
 34 35  1  0
 34 31  1  0
 35 33  2  0
 36 37  1  0
 37 38  2  0
 39 42  1  0
 39 38  1  0
 40 39  2  0
 41 40  1  0
 41 36  2  0
 42 43  1  0
 43 44  1  0
 44 45  2  0
 46 45  1  0
 46 50  1  0
 47 46  2  0
 48 43  2  0
 48 47  1  0
 49 48  1  0
 51 52  1  0
 52 54  1  0
 52 55  1  0
 53 51  2  0
 56 57  1  0
 56 31  1  0
 58 56  1  0
 59  2  1  0
 60 59  1  0
 60 61  1  0
 61 62  1  0
 62 63  1  0
 63 65  1  0
 64 75  2  0
 65 70  1  0
 66 74  1  0
 66 76  1  0
 67 73  1  0
 67 69  1  0
 68 74  1  0
 69 68  1  0
 70 69  2  0
 71 72  1  0
 71 65  2  0
 72 67  2  0
 73 66  1  0
 74 64  1  0
 76 78  2  0
 77 76  1  0
 79 77  1  0
 80 85  1  0
 81 77  1  0
 82 81  1  0
 83 84  1  0
 83 82  1  0
 84 80  1  0
 85 81  1  0
 85 86  2  0
 87 86  1  0
 88 87  2  0
 89 80  2  0
 89 88  1  0
 90 64  1  0
 90 95  1  0
 90 91  1  0
 91 94  1  1
 91 92  1  0
 93 91  1  0
 95 98  1  0
 96100  1  0
 96 95  1  0
 97 96  2  0
100 99  1  0
102100  1  0
102103  1  0
102101  1  0
M  ISO  4  21 100  29 100  62 101  63 101
M  END
>  <TORSDO>  (73) 
F 25

>  <SCORE>  (73) 
-9.758

>  <name>  (73) 
75

>  <ligand_id>  (73) 
75

>  <original_smiles>  (73) 
[H]c1nc(C([H])([H])[N+]([H])(C([H])([H])[H])C(C([H])([H])[H])(C([H])([H])[H])C(N([H])C(=O)N2C([H])([H])C([H])([H])C([H])([H])C([H])(n3nc(-c4c([H])c([H])c(Oc5c([H])c([H])c(F)c([H])c5F)c([H])c4[H])c(C(=O)N([H])[H])c3N([H])[H])C2([H])[H])(C([H])([H])[H])C([H])([H])[H])nc(C(F)(F)F)c1OC([H])([H])C([H])([H])C([H])([H])Oc1c([H])c([H])c2c(c1[H])C([H])([H])N(C(=O)C([H])(N([H])C(=O)C([H])(N([H])C([H])([H])[H])C([H])([H])[H])C(C([H])([H])[H])(C([H])([H])[H])C([H])([H])[H])C([H])(C(=O)N([H])C1([H])c3c([H])c([H])c([H])c([H])c3C([H])([H])C([H])([H])C1([H])[H])C2([H])[H]

>  <smiles>  (73) 
[H]c1nc(C([H])([H])[N+]([H])(C([H])([H])[H])C(C([H])([H])[H])(C([H])([H])[H])C(N([H])C(=O)N2C([H])([H])C([H])([H])C([H])([H])C([H])(n3nc(-c4c([H])c([H])c(Oc5c([H])c([H])c(F)c([H])c5F)c([H])c4[H])c(C(=O)N([H])[H])c3N([H])[H])C2([H])[H])(C([H])([H])[H])C([H])([H])[H])nc(C(F)(F)F)c1OC([H])([H])C([H])([H])C([H])([H])Oc1c([H])c([H])c2c(c1[H])C([H])([H])N(C(=O)C([H])(N([H])C(=O)C([H])(N([H])C([H])([H])[H])C([H])([H])[H])C(C([H])([H])[H])(C([H])([H])[H])C([H])([H])[H])C([H])(C(=O)N([H])C1([H])c3c([H])c([H])c([H])c([H])c3C([H])([H])C([H])([H])C1([H])[H])C2([H])[H]

$$$$
76:0:0
     RDKit          3D

 91 99  0  0  1  0  0  0  0  0999 V2000
  -29.5980  -23.0610   18.8370 C   0  0  0  0  0  3  0  0  0  0  0  0
  -28.8540  -23.1810   19.9740 C   0  0  0  0  0  0  0  0  0  0  0  0
  -29.6020  -20.8590   19.6180 C   0  0  0  0  0  3  0  0  0  0  0  0
  -30.6280  -21.4170   17.3330 C   0  0  0  0  0  1  0  0  0  0  0  0
  -29.9710  -21.7370   18.6180 N   0  0  0  0  0  0  0  0  0  0  0  0
  -28.9030  -21.7850   20.4300 N   0  0  0  0  0  0  0  0  0  0  0  0
  -28.4220  -21.4890   21.2700 H   0  0  0  0  0  0  0  0  0  0  0  0
  -29.4750  -18.6180   18.2210 C   0  0  0  0  0  1  0  0  0  0  0  0
  -31.5290  -19.0520   19.6430 C   0  0  0  0  0  1  0  0  0  0  0  0
  -29.9830  -19.1650   19.5770 C   0  0  1  0  0  0  0  0  0  0  0  0
  -29.6610  -17.8560   20.6340 C   0  0  0  0  0  2  0  0  0  0  0  0
  -30.5020  -15.0800   20.2800 C   0  0  0  0  0  0  0  0  0  0  0  0
  -30.4280  -12.6980   19.3480 C   0  0  0  0  0  2  0  0  0  0  0  0
  -29.4900  -12.5960   18.1210 C   0  0  0  0  0  2  0  0  0  0  0  0
  -28.0310  -12.3680   18.5630 C   0  0  0  0  0  2  0  0  0  0  0  0
  -27.6140  -13.3010   19.7300 C   0  0  0  0  0  3  0  0  0  0  0  0
  -28.6760  -13.3530   20.8470 C   0  0  0  0  0  2  0  0  0  0  0  0
  -29.9260  -13.8030   20.2140 N   0  0  0  0  0  0  0  0  0  0  0  0
  -31.7240  -15.1390   20.1110 O   0  0  0  0  0  0  0  0  0  0  0  0
  -29.6690  -16.2570   20.3240 N   0  0  0  0  0  0  0  0  0  0  0  0
  -28.7130  -15.9440   20.2440 H   0  0  0  0  0  0  0  0  0  0  0  0
  -25.2350  -13.8670   20.4760 C   0  0  0  0  0  0  0  0  0  0  0  0
  -24.1740  -13.0900   20.8480 C   0  0  0  0  0  0  0  0  0  0  0  0
  -24.6450  -11.7410   20.8230 C   0  0  0  0  0  0  0  0  0  0  0  0
  -26.2820  -12.9940   20.2370 N   0  0  0  0  0  0  0  0  0  0  0  0
  -25.9370  -11.7090   20.5140 N   0  0  0  0  0  0  0  0  0  0  0  0
  -23.9200  -10.4780   21.0160 C   0  0  0  0  0  0  0  0  0  0  0  0
  -24.3480   -9.5180   21.9580 C   0  0  0  0  0  3  0  0  0  0  0  0
  -23.6240   -8.3200   22.1410 C   0  0  0  0  0  3  0  0  0  0  0  0
  -22.4570   -8.0730   21.3800 C   0  0  0  0  0  0  0  0  0  0  0  0
  -22.0470   -9.0230   20.4260 C   0  0  0  0  0  3  0  0  0  0  0  0
  -22.7720  -10.2120   20.2440 C   0  0  0  0  0  3  0  0  0  0  0  0
  -21.7050   -6.9270   21.4710 O   0  0  0  0  0  0  0  0  0  0  0  0
  -21.6490   -6.1930   22.6290 C   0  0  0  0  0  0  0  0  0  0  0  0
  -21.2090   -6.7550   23.8470 C   0  0  0  0  0  3  0  0  0  0  0  0
  -21.1030   -5.9460   24.9970 C   0  0  0  0  0  3  0  0  0  0  0  0
  -21.4220   -4.5770   24.9280 C   0  0  0  0  0  0  0  0  0  0  0  0
  -21.8540   -4.0150   23.7140 C   0  0  0  0  0  3  0  0  0  0  0  0
  -21.9630   -4.8210   22.5680 C   0  0  0  0  0  0  0  0  0  0  0  0
  -22.3600   -4.2690   21.3960 F   0  0  0  0  0  0  0  0  0  0  0  0
  -21.3110   -3.8000   26.0310 F   0  0  0  0  0  0  0  0  0  0  0  0
  -22.7750  -13.5630   21.1110 C   0  0  0  0  0  0  0  0  0  0  0  0
  -22.0450  -12.8690   21.9760 N   0  0  0  0  0  0  0  0  0  0  0  0
  -22.3380  -14.5880   20.5860 O   0  0  0  0  0  0  0  0  0  0  0  0
  -22.4150  -12.0430   22.4250 H   0  0  0  0  0  0  0  0  0  0  0  0
  -21.1050  -13.1660   22.1950 H   0  0  0  0  0  0  0  0  0  0  0  0
  -25.3900  -15.2390   20.2900 N   0  0  0  0  0  0  0  0  0  0  0  0
  -24.6090  -15.8770   20.3870 H   0  0  0  0  0  0  0  0  0  0  0  0
  -26.2150  -15.6800   19.9110 H   0  0  0  0  0  0  0  0  0  0  0  0
  -28.0210  -24.5310   20.5070 C   0  0  0  0  0  2  0  0  0  0  0  0
  -28.2840  -26.0730   20.2090 O   0  0  0  0  0  0  0  0  0  0  0  0
  -24.6460  -31.8570   23.2170 C   0  0  0  0  0  0  0  0  0  0  0  0
  -27.2290  -27.0830   20.2080 C   0  0  0  0  0  0  0  0  0  0  0  0
  -23.4470  -30.4510   21.5880 C   0  0  0  0  0  3  0  0  0  0  0  0
  -24.8970  -28.8600   20.1720 C   0  0  0  0  0  0  0  0  0  0  0  0
  -26.0050  -30.7040   21.4230 C   0  0  0  0  0  2  0  0  0  0  0  0
  -26.0820  -29.3020   20.7770 C   0  0  0  0  0  0  0  0  0  0  0  0
  -27.2470  -28.4340   20.7700 C   0  0  0  0  0  3  0  0  0  0  0  0
  -26.0130  -26.7600   19.5650 C   0  0  0  0  0  3  0  0  0  0  0  0
  -24.8790  -27.6040   19.5480 C   0  0  0  0  0  3  0  0  0  0  0  0
  -23.6700  -29.7640   20.2140 C   0  0  0  0  0  2  0  0  0  0  0  0
  -24.7200  -31.0270   22.1310 N   0  0  0  0  0  0  0  0  0  0  0  0
  -23.5600  -32.1430   23.7450 O   0  0  0  0  0  0  0  0  0  0  0  0
  -22.7670  -29.4520   22.5590 C   0  0  0  0  0  0  0  0  0  0  0  0
  -21.4370  -29.2810   22.4380 N   0  0  0  0  0  0  0  0  0  0  0  0
  -23.4390  -28.8300   23.3850 O   0  0  0  0  0  0  0  0  0  0  0  0
  -20.9500  -29.8340   21.7460 H   0  0  0  0  0  0  0  0  0  0  0  0
  -18.0580  -28.0810   22.9620 C   0  0  0  0  0  0  0  0  0  0  0  0
  -20.6170  -28.3480   23.2170 C   0  0  0  0  0  3  0  0  0  0  0  0
  -20.7180  -26.9120   22.6490 C   0  0  0  0  0  2  0  0  0  0  0  0
  -19.6130  -26.5840   21.6410 C   0  0  0  0  0  2  0  0  0  0  0  0
  -18.2330  -26.7300   22.2890 C   0  0  0  0  0  2  0  0  0  0  0  0
  -19.1770  -28.8470   23.3830 C   0  0  0  0  0  0  0  0  0  0  0  0
  -18.9570  -30.1100   23.9730 C   0  0  0  0  0  3  0  0  0  0  0  0
  -17.6500  -30.6070   24.1470 C   0  0  0  0  0  3  0  0  0  0  0  0
  -16.5470  -29.8380   23.7390 C   0  0  0  0  0  3  0  0  0  0  0  0
  -16.7510  -28.5770   23.1530 C   0  0  0  0  0  3  0  0  0  0  0  0
  -25.9230  -32.5000   23.8400 C   0  0  0  0  0  3  0  0  0  0  0  0
  -26.4340  -31.7390   25.1240 C   0  0  1  0  0  0  0  0  0  0  0  0
  -25.3390  -31.5150   26.1940 C   0  0  0  0  0  1  0  0  0  0  0  0
  -27.0190  -30.3570   24.7550 C   0  0  0  0  0  1  0  0  0  0  0  0
  -27.5840  -32.5390   25.7820 C   0  0  0  0  0  1  0  0  0  0  0  0
  -25.6080  -33.9000   24.1680 N   0  0  0  0  0  0  0  0  0  0  0  0
  -25.9380  -34.9560   23.4130 C   0  0  0  0  0  0  0  0  0  0  0  0
  -26.6050  -34.8550   22.3800 O   0  0  0  0  0  0  0  0  0  0  0  0
  -25.0150  -34.0520   24.9710 H   0  0  0  0  0  0  0  0  0  0  0  0
  -24.2120  -36.7570   23.0660 C   0  0  0  0  0  1  0  0  0  0  0  0
  -25.4530  -36.3450   23.8750 C   0  0  0  0  0  3  0  0  0  0  0  0
  -27.5870  -37.2290   24.7100 C   0  0  0  0  0  1  0  0  0  0  0  0
  -26.4870  -37.3980   23.7640 N   0  0  0  0  0  0  0  0  0  0  0  0
  -26.0820  -38.3180   23.9090 H   0  0  0  0  0  0  0  0  0  0  0  0
  1  2  2  0
  2  6  1  0
  2 50  1  0
  3 10  1  0
  3  6  1  0
  4  5  1  0
  5  1  1  0
  5  3  1  0
  6  7  1  0
 10  8  1  6
 10  9  1  0
 10 11  1  0
 12 20  1  0
 13 18  1  0
 14 15  1  0
 14 13  1  0
 16 15  1  0
 16 25  1  0
 16 17  1  0
 18 12  1  0
 18 17  1  0
 19 12  2  0
 20 11  1  0
 21 20  1  0
 22 23  2  0
 23 42  1  0
 24 23  1  0
 24 27  1  0
 25 22  1  0
 25 26  1  0
 26 24  2  0
 27 28  1  0
 28 29  2  0
 30 33  1  0
 30 29  1  0
 31 30  2  0
 32 31  1  0
 32 27  2  0
 33 34  1  0
 34 35  1  0
 35 36  2  0
 37 36  1  0
 37 41  1  0
 38 37  2  0
 39 34  2  0
 39 38  1  0
 40 39  1  0
 42 43  1  0
 43 46  1  0
 43 45  1  0
 44 42  2  0
 47 48  1  0
 47 22  1  0
 49 47  1  0
 51 50  1  0
 52 63  2  0
 53 51  1  0
 53 58  1  0
 54 62  1  0
 54 64  1  0
 55 61  1  0
 55 57  1  0
 56 62  1  0
 57 56  1  0
 58 57  2  0
 59 53  2  0
 60 59  1  0
 60 55  2  0
 61 54  1  0
 62 52  1  0
 64 66  2  0
 65 64  1  0
 67 65  1  0
 68 77  2  0
 68 73  1  0
 69 65  1  0
 69 73  1  0
 70 69  1  0
 71 72  1  0
 71 70  1  0
 72 68  1  0
 73 74  2  0
 74 75  1  0
 76 75  2  0
 77 76  1  0
 78 52  1  0
 78 83  1  0
 78 79  1  0
 79 82  1  1
 79 80  1  0
 81 79  1  0
 83 86  1  0
 84 88  1  0
 84 83  1  0
 85 84  2  0
 88 87  1  0
 90 88  1  0
 90 91  1  0
 90 89  1  0
M  ISO  4  12 100  20 100  50 101  51 101
M  END
>  <TORSDO>  (74) 
F 19

>  <SCORE>  (74) 
-15.170

>  <name>  (74) 
76

>  <ligand_id>  (74) 
76

>  <original_smiles>  (74) 
[H]c1c([H])c([H])c2c(c1[H])C([H])([H])C([H])([H])C([H])([H])C2([H])N([H])C(=O)C1([H])N(C(=O)C([H])(N([H])C(=O)C([H])(N([H])C([H])([H])[H])C([H])([H])[H])C(C([H])([H])[H])(C([H])([H])[H])C([H])([H])[H])C([H])([H])c2c([H])c(OC([H])([H])c3c([H])n(C([H])([H])[H])c(C(C([H])([H])[H])(C([H])([H])[H])C([H])([H])N([H])C(=O)N4C([H])([H])C([H])([H])C([H])([H])C([H])(n5nc(-c6c([H])c([H])c(Oc7c([H])c([H])c(F)c([H])c7F)c([H])c6[H])c(C(=O)N([H])[H])c5N([H])[H])C4([H])[H])[n+]3[H])c([H])c([H])c2C1([H])[H]

>  <smiles>  (74) 
[H]c1c([H])c([H])c2c(c1[H])C([H])([H])C([H])([H])C([H])([H])C2([H])N([H])C(=O)C1([H])N(C(=O)C([H])(N([H])C(=O)C([H])(N([H])C([H])([H])[H])C([H])([H])[H])C(C([H])([H])[H])(C([H])([H])[H])C([H])([H])[H])C([H])([H])c2c([H])c(OC([H])([H])c3c([H])n(C([H])([H])[H])c(C(C([H])([H])[H])(C([H])([H])[H])C([H])([H])N([H])C(=O)N4C([H])([H])C([H])([H])C([H])([H])C([H])(n5nc(-c6c([H])c([H])c(Oc7c([H])c([H])c(F)c([H])c7F)c([H])c6[H])c(C(=O)N([H])[H])c5N([H])[H])C4([H])[H])[n+]3[H])c([H])c([H])c2C1([H])[H]

$$$$
77:0:0
     RDKit          3D

 96105  0  0  1  0  0  0  0  0999 V2000
  -30.8900  -21.8370   20.4770 C   0  0  0  0  0  2  0  0  0  0  0  0
  -30.8560  -21.1200   19.1090 C   0  0  0  0  0  2  0  0  0  0  0  0
  -28.6610  -22.2090   18.7610 C   0  0  0  0  0  1  0  0  0  0  0  0
  -29.9200  -21.7390   18.1180 N   0  0  2  0  0  4  0  0  0  0  0  0
  -30.3840  -22.5770   17.7910 H   0  0  0  0  0  0  0  0  0  0  0  0
  -30.3980  -19.5950   16.7520 C   0  0  0  0  0  1  0  0  0  0  0  0
  -29.6250  -20.9300   16.8810 C   0  0  0  0  0  3  0  0  0  0  0  0
  -29.8680  -21.7760   15.6030 C   0  0  0  0  0  2  0  0  0  0  0  0
  -31.2500  -21.8370   15.2500 O   0  0  0  0  0  0  0  0  0  0  0  0
  -31.7430  -27.7110   19.2000 C   0  0  0  0  0  0  0  0  0  0  0  0
  -31.9440  -23.0100   15.4600 C   0  0  0  0  0  0  0  0  0  0  0  0
  -33.2260  -27.6330   17.2210 C   0  0  0  0  0  3  0  0  0  0  0  0
  -33.3720  -25.3820   16.0410 C   0  0  0  0  0  0  0  0  0  0  0  0
  -32.4610  -25.4800   18.3650 C   0  0  0  0  0  2  0  0  0  0  0  0
  -32.5500  -24.8040   17.0140 C   0  0  0  0  0  0  0  0  0  0  0  0
  -31.8300  -23.6250   16.7260 C   0  0  0  0  0  3  0  0  0  0  0  0
  -32.7640  -23.6210   14.4810 C   0  0  0  0  0  3  0  0  0  0  0  0
  -33.4790  -24.7980   14.7690 C   0  0  0  0  0  3  0  0  0  0  0  0
  -34.1150  -26.6390   16.4290 C   0  0  0  0  0  2  0  0  0  0  0  0
  -32.4230  -26.9590   18.2910 N   0  0  0  0  0  0  0  0  0  0  0  0
  -31.8090  -28.9490   19.1800 O   0  0  0  0  0  0  0  0  0  0  0  0
  -32.3590  -28.4250   16.2150 C   0  0  0  0  0  0  0  0  0  0  0  0
  -32.4700  -28.0720   14.9240 N   0  0  0  0  0  0  0  0  0  0  0  0
  -31.5900  -29.3090   16.6010 O   0  0  0  0  0  0  0  0  0  0  0  0
  -33.1320  -27.3460   14.6910 H   0  0  0  0  0  0  0  0  0  0  0  0
  -30.6680  -27.2700   11.8960 C   0  0  0  0  0  0  0  0  0  0  0  0
  -31.7290  -28.6530   13.8050 C   0  0  0  0  0  3  0  0  0  0  0  0
  -30.2800  -29.0040   14.2170 C   0  0  0  0  0  2  0  0  0  0  0  0
  -29.2790  -27.8840   13.9230 C   0  0  0  0  0  2  0  0  0  0  0  0
  -29.2710  -27.5500   12.4270 C   0  0  0  0  0  2  0  0  0  0  0  0
  -31.8220  -27.7740   12.5520 C   0  0  0  0  0  0  0  0  0  0  0  0
  -33.0970  -27.4530   12.0370 C   0  0  0  0  0  3  0  0  0  0  0  0
  -33.2290  -26.6480   10.8900 C   0  0  0  0  0  3  0  0  0  0  0  0
  -32.0820  -26.1650   10.2370 C   0  0  0  0  0  3  0  0  0  0  0  0
  -30.8060  -26.4770   10.7370 C   0  0  0  0  0  3  0  0  0  0  0  0
  -30.8700  -27.0590   20.3170 C   0  0  0  0  0  3  0  0  0  0  0  0
  -30.2560  -28.1450   21.0890 N   0  0  0  0  0  0  0  0  0  0  0  0
  -30.3670  -28.2880   22.4160 C   0  0  0  0  0  0  0  0  0  0  0  0
  -30.9450  -27.4660   23.1330 O   0  0  0  0  0  0  0  0  0  0  0  0
  -29.8070  -28.8800   20.5630 H   0  0  0  0  0  0  0  0  0  0  0  0
  -30.8020  -30.6490   23.1650 C   0  0  0  0  0  1  0  0  0  0  0  0
  -29.7400  -29.5450   23.0460 C   0  0  0  0  0  3  0  0  0  0  0  0
  -27.9180  -28.4830   24.3040 C   0  0  0  0  0  1  0  0  0  0  0  0
  -29.1290  -29.2960   24.3720 N   0  0  0  0  0  0  0  0  0  0  0  0
  -28.8990  -30.1720   24.8330 H   0  0  0  0  0  0  0  0  0  0  0  0
  -29.7650  -26.0830   19.7540 C   0  0  1  0  0  0  0  0  0  0  0  0
  -28.9110  -26.6990   18.6200 C   0  0  0  0  0  1  0  0  0  0  0  0
  -30.4110  -24.7870   19.2060 C   0  0  0  0  0  1  0  0  0  0  0  0
  -28.8110  -25.6540   20.8930 C   0  0  0  0  0  1  0  0  0  0  0  0
  -31.3960  -20.9080   21.5960 C   0  0  0  0  0  2  0  0  0  0  0  0
  -32.7870  -20.6240   21.4220 O   0  0  0  0  0  0  0  0  0  0  0  0
  -34.6060  -18.9730   19.0420 C   0  0  0  0  0  2  0  0  0  0  0  0
  -32.8180  -17.7170   19.4990 C   0  0  0  0  0  3  0  0  0  0  0  0
  -33.1470  -19.6700   20.5290 C   0  0  0  0  0  0  0  0  0  0  0  0
  -33.9490  -17.8460   18.8020 N   0  0  0  0  0  0  0  0  0  0  0  0
  -34.2720  -19.9330   19.8930 N   0  0  0  0  0  0  0  0  0  0  0  0
  -32.3810  -18.5980   20.3990 N   0  0  0  0  0  0  0  0  0  0  0  0
  -30.4880  -16.6770   19.3960 C   0  0  0  0  0  1  0  0  0  0  0  0
  -32.4060  -15.5570   20.6200 C   0  0  0  0  0  1  0  0  0  0  0  0
  -32.0200  -16.3800   19.3570 C   0  0  2  0  0  0  0  0  0  0  0  0
  -32.3860  -15.6630   17.9970 C   0  0  0  0  0  0  0  0  0  0  0  0
  -33.8680  -15.2280   16.0470 C   0  0  0  0  0  2  0  0  0  0  0  0
  -34.8370  -14.0500   16.2750 C   0  0  0  0  0  2  0  0  0  0  0  0
  -36.1200  -14.5180   16.9890 C   0  0  0  0  0  2  0  0  0  0  0  0
  -35.8040  -15.3720   18.2390 C   0  0  0  0  0  3  0  0  0  0  0  0
  -34.7990  -16.4870   17.8800 C   0  0  0  0  0  3  0  0  0  0  0  0
  -33.5740  -15.8690   17.3460 N   0  0  0  0  0  0  0  0  0  0  0  0
  -31.5600  -14.8850   17.5030 O   0  0  0  0  0  0  0  0  0  0  0  0
  -38.3430  -15.7460   18.4810 C   0  0  0  0  0  0  0  0  0  0  0  0
  -39.0710  -16.5380   19.3310 C   0  0  0  0  0  0  0  0  0  0  0  0
  -38.1200  -17.1790   20.1830 C   0  0  0  0  0  0  0  0  0  0  0  0
  -37.0150  -15.9250   18.8400 N   0  0  0  0  0  0  0  0  0  0  0  0
  -36.8940  -16.7540   19.9080 N   0  0  0  0  0  0  0  0  0  0  0  0
  -38.2980  -18.2170   21.2050 C   0  0  0  0  0  0  0  0  0  0  0  0
  -39.0200  -17.9680   22.3930 C   0  0  0  0  0  3  0  0  0  0  0  0
  -39.1930  -18.9880   23.3510 C   0  0  0  0  0  3  0  0  0  0  0  0
  -38.6440  -20.2740   23.1270 C   0  0  0  0  0  0  0  0  0  0  0  0
  -37.9070  -20.5090   21.9520 C   0  0  0  0  0  3  0  0  0  0  0  0
  -37.7310  -19.4900   21.0010 C   0  0  0  0  0  3  0  0  0  0  0  0
  -38.7380  -21.3190   24.0140 O   0  0  0  0  0  0  0  0  0  0  0  0
  -39.7270  -22.2640   23.9130 C   0  0  0  0  0  0  0  0  0  0  0  0
  -39.9710  -22.9600   22.7090 C   0  0  0  0  0  3  0  0  0  0  0  0
  -40.9500  -23.9740   22.6680 C   0  0  0  0  0  3  0  0  0  0  0  0
  -41.6780  -24.2970   23.8280 C   0  0  0  0  0  0  0  0  0  0  0  0
  -41.4330  -23.6080   25.0290 C   0  0  0  0  0  3  0  0  0  0  0  0
  -40.4570  -22.5970   25.0710 C   0  0  0  0  0  0  0  0  0  0  0  0
  -40.2100  -21.9520   26.2360 F   0  0  0  0  0  0  0  0  0  0  0  0
  -42.6140  -25.2750   23.7910 F   0  0  0  0  0  0  0  0  0  0  0  0
  -40.5550  -16.7640   19.2930 C   0  0  0  0  0  0  0  0  0  0  0  0
  -41.1880  -16.8820   20.4550 N   0  0  0  0  0  0  0  0  0  0  0  0
  -41.1710  -16.7910   18.2290 O   0  0  0  0  0  0  0  0  0  0  0  0
  -40.6860  -16.8400   21.3290 H   0  0  0  0  0  0  0  0  0  0  0  0
  -42.1900  -17.0150   20.4670 H   0  0  0  0  0  0  0  0  0  0  0  0
  -38.7010  -14.9050   17.4310 N   0  0  0  0  0  0  0  0  0  0  0  0
  -39.6630  -14.8060   17.1280 H   0  0  0  0  0  0  0  0  0  0  0  0
  -38.0480  -14.3970   16.8480 H   0  0  0  0  0  0  0  0  0  0  0  0
  1 50  1  0
  2  1  1  0
  4  3  1  0
  4  2  1  0
  4  5  1  6
  7  6  1  0
  7  4  1  0
  8  7  1  0
  9 11  1  0
  9  8  1  0
 11 16  1  0
 12 22  1  0
 12 20  1  0
 13 19  1  0
 13 15  1  0
 15 14  1  0
 16 15  2  0
 17 18  1  0
 17 11  2  0
 18 13  2  0
 19 12  1  0
 20 14  1  0
 20 10  1  0
 21 10  2  0
 22 24  2  0
 23 22  1  0
 25 23  1  0
 26 30  1  0
 26 31  1  0
 27 28  1  0
 27 23  1  0
 29 28  1  0
 30 29  1  0
 31 27  1  0
 32 31  2  0
 33 32  1  0
 34 35  1  0
 34 33  2  0
 35 26  2  0
 36 10  1  0
 36 37  1  0
 37 38  1  0
 38 42  1  0
 38 39  2  0
 40 37  1  0
 42 41  1  0
 42 44  1  0
 43 44  1  0
 44 45  1  0
 46 36  1  0
 46 49  1  1
 47 46  1  0
 48 46  1  0
 51 50  1  0
 52 56  1  0
 53 57  1  0
 54 51  1  0
 55 52  1  0
 55 53  1  0
 56 54  2  0
 57 54  2  0
 60 58  1  6
 60 53  1  0
 60 59  1  0
 61 60  1  0
 62 63  1  0
 62 67  1  0
 63 64  1  0
 65 64  1  0
 65 72  1  0
 66 67  1  0
 66 65  1  0
 66 55  1  0
 67 61  1  0
 68 61  2  0
 69 72  1  0
 69 70  2  0
 70 71  1  0
 71 74  1  0
 72 73  1  0
 73 71  2  0
 74 75  1  0
 75 76  2  0
 77 76  1  0
 77 80  1  0
 78 77  2  0
 79 74  2  0
 79 78  1  0
 81 80  1  0
 81 86  1  0
 82 81  2  0
 83 82  1  0
 83 84  2  0
 84 85  1  0
 85 86  2  0
 86 87  1  0
 88 84  1  0
 89 70  1  0
 89 90  1  0
 90 93  1  0
 90 92  1  0
 91 89  2  0
 94 69  1  0
 95 94  1  0
 96 94  1  0
M  ISO  4   8 101   9 101  60 100  61 100
M  END
>  <TORSDO>  (75) 
F 24

>  <SCORE>  (75) 
-2.977

>  <name>  (75) 
77

>  <ligand_id>  (75) 
77

>  <original_smiles>  (75) 
[H]c1nc(OC([H])([H])C([H])([H])C([H])([H])[N+]([H])(C([H])([H])[H])C([H])(C([H])([H])[H])C([H])([H])Oc2c([H])c([H])c3c(c2[H])C([H])([H])N(C(=O)C([H])(N([H])C(=O)C([H])(N([H])C([H])([H])[H])C([H])([H])[H])C(C([H])([H])[H])(C([H])([H])[H])C([H])([H])[H])C([H])(C(=O)N([H])C2([H])c4c([H])c([H])c([H])c([H])c4C([H])([H])C([H])([H])C2([H])[H])C3([H])[H])nc(C(C(=O)N2C([H])([H])C([H])([H])C([H])([H])C([H])(n3nc(-c4c([H])c([H])c(Oc5c([H])c([H])c(F)c([H])c5F)c([H])c4[H])c(C(=O)N([H])[H])c3N([H])[H])C2([H])[H])(C([H])([H])[H])C([H])([H])[H])n1

>  <smiles>  (75) 
[H]c1nc(OC([H])([H])C([H])([H])C([H])([H])[N+]([H])(C([H])([H])[H])C([H])(C([H])([H])[H])C([H])([H])Oc2c([H])c([H])c3c(c2[H])C([H])([H])N(C(=O)C([H])(N([H])C(=O)C([H])(N([H])C([H])([H])[H])C([H])([H])[H])C(C([H])([H])[H])(C([H])([H])[H])C([H])([H])[H])C([H])(C(=O)N([H])C2([H])c4c([H])c([H])c([H])c([H])c4C([H])([H])C([H])([H])C2([H])[H])C3([H])[H])nc(C(C(=O)N2C([H])([H])C([H])([H])C([H])([H])C([H])(n3nc(-c4c([H])c([H])c(Oc5c([H])c([H])c(F)c([H])c5F)c([H])c4[H])c(C(=O)N([H])[H])c3N([H])[H])C2([H])[H])(C([H])([H])[H])C([H])([H])[H])n1

$$$$
78:0:0
     RDKit          3D

 89 97  0  0  1  0  0  0  0  0999 V2000
  -30.1220  -23.1510   18.8350 C   0  0  0  0  0  1  0  0  0  0  0  0
  -30.1560  -23.2000   21.3150 C   0  0  0  0  0  1  0  0  0  0  0  0
  -29.2830  -22.8670   20.0940 C   0  0  2  0  0  0  0  0  0  0  0  0
  -28.6250  -20.2140   21.1760 C   0  0  0  0  0  3  0  0  0  0  0  0
  -29.8000  -19.9500   19.4810 C   0  0  0  0  0  3  0  0  0  0  0  0
  -29.1990  -21.0870   20.1740 C   0  0  0  0  0  0  0  0  0  0  0  0
  -28.8630  -18.8570   21.0880 N   0  0  0  0  0  0  0  0  0  0  0  0
  -29.6710  -18.5500   20.0190 N   0  0  0  0  0  0  0  0  0  0  0  0
  -30.6500  -17.2640   18.0940 C   0  0  0  0  0  1  0  0  0  0  0  0
  -28.4270  -16.6770   18.9350 C   0  0  0  0  0  1  0  0  0  0  0  0
  -29.8510  -16.9840   19.3910 C   0  0  2  0  0  0  0  0  0  0  0  0
  -30.5790  -15.4060   19.8620 C   0  0  0  0  0  0  0  0  0  0  0  0
  -30.5240  -12.9230   19.0720 C   0  0  0  0  0  2  0  0  0  0  0  0
  -29.5530  -12.6570   17.8940 C   0  0  0  0  0  2  0  0  0  0  0  0
  -28.1320  -12.3560   18.4060 C   0  0  0  0  0  2  0  0  0  0  0  0
  -27.7080  -13.3400   19.5180 C   0  0  0  0  0  3  0  0  0  0  0  0
  -28.8060  -13.5840   20.5760 C   0  0  0  0  0  2  0  0  0  0  0  0
  -30.0040  -14.0910   19.8770 N   0  0  0  0  0  0  0  0  0  0  0  0
  -31.8150  -15.3220   19.7910 O   0  0  0  0  0  0  0  0  0  0  0  0
  -25.3950  -13.9340   20.4120 C   0  0  0  0  0  0  0  0  0  0  0  0
  -24.3400  -13.1690   20.8160 C   0  0  0  0  0  0  0  0  0  0  0  0
  -24.7820  -11.8140   20.7310 C   0  0  0  0  0  0  0  0  0  0  0  0
  -26.4090  -13.0440   20.0990 N   0  0  0  0  0  0  0  0  0  0  0  0
  -26.0560  -11.7620   20.3580 N   0  0  0  0  0  0  0  0  0  0  0  0
  -24.0430  -10.5630   20.9220 C   0  0  0  0  0  0  0  0  0  0  0  0
  -24.4920   -9.5760   21.8260 C   0  0  0  0  0  3  0  0  0  0  0  0
  -23.7530   -8.3880   22.0080 C   0  0  0  0  0  3  0  0  0  0  0  0
  -22.5550   -8.1800   21.2860 C   0  0  0  0  0  0  0  0  0  0  0  0
  -22.1260   -9.1570   20.3690 C   0  0  0  0  0  3  0  0  0  0  0  0
  -22.8640  -10.3370   20.1850 C   0  0  0  0  0  3  0  0  0  0  0  0
  -21.7860   -7.0460   21.3790 O   0  0  0  0  0  0  0  0  0  0  0  0
  -21.7510   -6.2940   22.5260 C   0  0  0  0  0  0  0  0  0  0  0  0
  -21.3480   -6.8400   23.7640 C   0  0  0  0  0  3  0  0  0  0  0  0
  -21.2630   -6.0140   24.9030 C   0  0  0  0  0  3  0  0  0  0  0  0
  -21.5700   -4.6430   24.8040 C   0  0  0  0  0  0  0  0  0  0  0  0
  -21.9660   -4.0980   23.5720 C   0  0  0  0  0  3  0  0  0  0  0  0
  -22.0550   -4.9200   22.4350 C   0  0  0  0  0  0  0  0  0  0  0  0
  -22.4190   -4.3860   21.2450 F   0  0  0  0  0  0  0  0  0  0  0  0
  -21.4790   -3.8490   25.8950 F   0  0  0  0  0  0  0  0  0  0  0  0
  -22.9670  -13.6660   21.1560 C   0  0  0  0  0  0  0  0  0  0  0  0
  -22.2690  -12.9710   22.0460 N   0  0  0  0  0  0  0  0  0  0  0  0
  -22.5230  -14.7060   20.6710 O   0  0  0  0  0  0  0  0  0  0  0  0
  -22.6460  -12.1300   22.4590 H   0  0  0  0  0  0  0  0  0  0  0  0
  -21.3480  -13.2830   22.3160 H   0  0  0  0  0  0  0  0  0  0  0  0
  -25.5590  -15.3040   20.2530 N   0  0  0  0  0  0  0  0  0  0  0  0
  -24.8010  -15.9610   20.3990 H   0  0  0  0  0  0  0  0  0  0  0  0
  -26.3890  -15.7350   19.8660 H   0  0  0  0  0  0  0  0  0  0  0  0
  -28.0980  -24.2340   20.1180 C   0  0  0  0  0  2  0  0  0  0  0  0
  -28.2800  -25.8810   20.1710 O   0  0  0  0  0  0  0  0  0  0  0  0
  -24.6010  -31.8250   23.0730 C   0  0  0  0  0  0  0  0  0  0  0  0
  -27.2420  -26.9540   20.1100 C   0  0  0  0  0  0  0  0  0  0  0  0
  -23.4440  -30.4180   21.4180 C   0  0  0  0  0  3  0  0  0  0  0  0
  -24.9230  -28.8150   20.0260 C   0  0  0  0  0  0  0  0  0  0  0  0
  -26.0080  -30.6450   21.3120 C   0  0  0  0  0  2  0  0  0  0  0  0
  -26.1000  -29.2340   20.6600 C   0  0  0  0  0  0  0  0  0  0  0  0
  -27.2530  -28.3250   20.6730 C   0  0  0  0  0  3  0  0  0  0  0  0
  -26.0310  -26.6850   19.4330 C   0  0  0  0  0  3  0  0  0  0  0  0
  -24.9120  -27.5610   19.3940 C   0  0  0  0  0  3  0  0  0  0  0  0
  -23.7000  -29.7320   20.0480 C   0  0  0  0  0  2  0  0  0  0  0  0
  -24.7040  -30.9910   21.9880 N   0  0  0  0  0  0  0  0  0  0  0  0
  -23.5020  -32.1110   23.5750 O   0  0  0  0  0  0  0  0  0  0  0  0
  -22.7350  -29.4230   22.3750 C   0  0  0  0  0  0  0  0  0  0  0  0
  -21.4020  -29.2790   22.2500 N   0  0  0  0  0  0  0  0  0  0  0  0
  -23.3920  -28.7820   23.1990 O   0  0  0  0  0  0  0  0  0  0  0  0
  -20.9250  -29.8480   21.5630 H   0  0  0  0  0  0  0  0  0  0  0  0
  -18.0010  -28.1250   22.7660 C   0  0  0  0  0  0  0  0  0  0  0  0
  -20.5680  -28.3450   23.0110 C   0  0  0  0  0  3  0  0  0  0  0  0
  -20.6400  -26.9200   22.4120 C   0  0  0  0  0  2  0  0  0  0  0  0
  -19.5240  -26.6340   21.4020 C   0  0  0  0  0  2  0  0  0  0  0  0
  -18.1510  -26.7880   22.0610 C   0  0  0  0  0  2  0  0  0  0  0  0
  -19.1360  -28.8630   23.1970 C   0  0  0  0  0  0  0  0  0  0  0  0
  -18.9400  -30.1140   23.8200 C   0  0  0  0  0  3  0  0  0  0  0  0
  -17.6450  -30.6280   24.0140 C   0  0  0  0  0  3  0  0  0  0  0  0
  -16.5240  -29.8890   23.5950 C   0  0  0  0  0  3  0  0  0  0  0  0
  -16.7040  -28.6380   22.9780 C   0  0  0  0  0  3  0  0  0  0  0  0
  -25.8600  -32.4730   23.7280 C   0  0  0  0  0  3  0  0  0  0  0  0
  -26.3640  -31.6940   25.0050 C   0  0  1  0  0  0  0  0  0  0  0  0
  -25.2570  -31.4340   26.0540 C   0  0  0  0  0  1  0  0  0  0  0  0
  -26.9690  -30.3260   24.6170 C   0  0  0  0  0  1  0  0  0  0  0  0
  -27.4970  -32.4920   25.6920 C   0  0  0  0  0  1  0  0  0  0  0  0
  -25.5210  -33.8620   24.0840 N   0  0  0  0  0  0  0  0  0  0  0  0
  -25.8480  -34.9430   23.3600 C   0  0  0  0  0  0  0  0  0  0  0  0
  -26.5270  -34.8740   22.3330 O   0  0  0  0  0  0  0  0  0  0  0  0
  -24.9150  -33.9890   24.8810 H   0  0  0  0  0  0  0  0  0  0  0  0
  -24.1060  -36.7330   23.0420 C   0  0  0  0  0  1  0  0  0  0  0  0
  -25.3440  -36.3160   23.8520 C   0  0  0  0  0  3  0  0  0  0  0  0
  -27.4580  -37.2050   24.7310 C   0  0  0  0  0  1  0  0  0  0  0  0
  -26.3670  -37.3820   23.7770 N   0  0  0  0  0  0  0  0  0  0  0  0
  -25.9510  -38.2950   23.9380 H   0  0  0  0  0  0  0  0  0  0  0  0
  3  1  1  6
  3 48  1  0
  3  6  1  0
  3  2  1  0
  5  8  1  0
  5  6  2  0
  6  4  1  0
  7  4  2  0
  8  7  1  0
 11  9  1  6
 10 11  1  0
 11 12  1  0
 11  8  1  0
 12 18  1  0
 13 18  1  0
 14 15  1  0
 14 13  1  0
 16 15  1  0
 16 23  1  0
 16 17  1  0
 18 17  1  0
 19 12  2  0
 20 21  2  0
 21 40  1  0
 22 21  1  0
 22 25  1  0
 23 24  1  0
 23 20  1  0
 24 22  2  0
 25 26  1  0
 26 27  2  0
 28 31  1  0
 28 27  1  0
 29 28  2  0
 30 29  1  0
 30 25  2  0
 31 32  1  0
 32 33  1  0
 33 34  2  0
 35 34  1  0
 35 39  1  0
 36 35  2  0
 37 32  2  0
 37 36  1  0
 38 37  1  0
 40 41  1  0
 41 44  1  0
 41 43  1  0
 42 40  2  0
 45 46  1  0
 45 20  1  0
 47 45  1  0
 48 49  1  0
 50 61  2  0
 51 49  1  0
 51 56  1  0
 52 60  1  0
 52 62  1  0
 53 59  1  0
 53 55  1  0
 54 60  1  0
 55 56  2  0
 55 54  1  0
 57 51  2  0
 58 57  1  0
 58 53  2  0
 59 52  1  0
 60 50  1  0
 62 64  2  0
 63 62  1  0
 65 63  1  0
 66 75  2  0
 66 71  1  0
 67 63  1  0
 67 71  1  0
 68 67  1  0
 69 70  1  0
 69 68  1  0
 70 66  1  0
 71 72  2  0
 72 73  1  0
 74 73  2  0
 75 74  1  0
 76 50  1  0
 76 81  1  0
 76 77  1  0
 77 80  1  1
 77 78  1  0
 79 77  1  0
 81 84  1  0
 82 86  1  0
 82 81  1  0
 83 82  2  0
 86 85  1  0
 88 86  1  0
 88 89  1  0
 88 87  1  0
M  ISO  4  11 100  12 100  48 101  49 101
M  END
>  <TORSDO>  (76) 
F 19

>  <SCORE>  (76) 
-16.003

>  <name>  (76) 
78

>  <ligand_id>  (76) 
78

>  <original_smiles>  (76) 
[H]c1nn(C(C(=O)N2C([H])([H])C([H])([H])C([H])([H])C([H])(n3nc(-c4c([H])c([H])c(Oc5c([H])c([H])c(F)c([H])c5F)c([H])c4[H])c(C(=O)N([H])[H])c3N([H])[H])C2([H])[H])(C([H])([H])[H])C([H])([H])[H])c([H])c1C(C([H])([H])[H])(C([H])([H])[H])C([H])([H])Oc1c([H])c([H])c2c(c1[H])C([H])([H])N(C(=O)C([H])(N([H])C(=O)C([H])(N([H])C([H])([H])[H])C([H])([H])[H])C(C([H])([H])[H])(C([H])([H])[H])C([H])([H])[H])C([H])(C(=O)N([H])C1([H])c3c([H])c([H])c([H])c([H])c3C([H])([H])C([H])([H])C1([H])[H])C2([H])[H]

>  <smiles>  (76) 
[H]c1nn(C(C(=O)N2C([H])([H])C([H])([H])C([H])([H])C([H])(n3nc(-c4c([H])c([H])c(Oc5c([H])c([H])c(F)c([H])c5F)c([H])c4[H])c(C(=O)N([H])[H])c3N([H])[H])C2([H])[H])(C([H])([H])[H])C([H])([H])[H])c([H])c1C(C([H])([H])[H])(C([H])([H])[H])C([H])([H])Oc1c([H])c([H])c2c(c1[H])C([H])([H])N(C(=O)C([H])(N([H])C(=O)C([H])(N([H])C([H])([H])[H])C([H])([H])[H])C(C([H])([H])[H])(C([H])([H])[H])C([H])([H])[H])C([H])(C(=O)N([H])C1([H])c3c([H])c([H])c([H])c([H])c3C([H])([H])C([H])([H])C1([H])[H])C2([H])[H]

$$$$
79:0:0
     RDKit          3D

 92100  0  0  1  0  0  0  0  0999 V2000
  -30.1440  -20.8550   22.5960 C   0  0  0  0  0  0  0  0  0  0  0  0
  -29.7300  -21.5400   20.6530 C   0  0  0  0  0  3  0  0  0  0  0  0
  -30.4220  -20.8580   24.0580 C   0  0  0  0  0  1  0  0  0  0  0  0
  -29.6830  -21.9390   21.9280 N   0  0  0  0  0  0  0  0  0  0  0  0
  -30.3840  -19.7840   21.8580 N   0  0  0  0  0  2  0  0  0  0  0  0
  -30.1340  -20.1840   20.5800 N   0  0  0  0  0  0  0  0  0  0  0  0
  -30.2930  -19.7280   18.1580 C   0  0  0  0  0  1  0  0  0  0  0  0
  -32.0470  -18.8510   19.7000 C   0  0  0  0  0  1  0  0  0  0  0  0
  -30.5360  -19.1200   19.5540 C   0  0  1  0  0  0  0  0  0  0  0  0
  -29.7650  -17.6730   19.5940 C   0  0  0  0  0  2  0  0  0  0  0  0
  -30.9240  -15.3490   20.1460 C   0  0  0  0  0  0  0  0  0  0  0  0
  -30.8530  -12.9790   19.3500 C   0  0  0  0  0  2  0  0  0  0  0  0
  -29.9170  -12.9170   18.1200 C   0  0  0  0  0  2  0  0  0  0  0  0
  -28.4520  -12.7160   18.5550 C   0  0  0  0  0  2  0  0  0  0  0  0
  -28.0400  -13.6700   19.7050 C   0  0  0  0  0  3  0  0  0  0  0  0
  -29.0950  -13.7090   20.8330 C   0  0  0  0  0  2  0  0  0  0  0  0
  -30.3850  -14.0780   20.2310 N   0  0  0  0  0  0  0  0  0  0  0  0
  -32.0450  -15.5070   19.6600 O   0  0  0  0  0  0  0  0  0  0  0  0
  -30.1110  -16.4330   20.4390 N   0  0  0  0  0  0  0  0  0  0  0  0
  -29.3480  -16.1660   21.0430 H   0  0  0  0  0  0  0  0  0  0  0  0
  -25.6690  -14.2300   20.5060 C   0  0  0  0  0  0  0  0  0  0  0  0
  -24.6140  -13.4430   20.8760 C   0  0  0  0  0  0  0  0  0  0  0  0
  -25.0730  -12.0940   20.7780 C   0  0  0  0  0  0  0  0  0  0  0  0
  -26.7060  -13.3600   20.2120 N   0  0  0  0  0  0  0  0  0  0  0  0
  -26.3540  -12.0680   20.4330 N   0  0  0  0  0  0  0  0  0  0  0  0
  -24.3490  -10.8260   20.9390 C   0  0  0  0  0  0  0  0  0  0  0  0
  -24.6960   -9.9050   21.9520 C   0  0  0  0  0  3  0  0  0  0  0  0
  -23.9770   -8.6990   22.1020 C   0  0  0  0  0  3  0  0  0  0  0  0
  -22.8930   -8.4090   21.2370 C   0  0  0  0  0  0  0  0  0  0  0  0
  -22.5680   -9.3180   20.2140 C   0  0  0  0  0  3  0  0  0  0  0  0
  -23.2880  -10.5160   20.0640 C   0  0  0  0  0  3  0  0  0  0  0  0
  -22.1530   -7.2530   21.2920 O   0  0  0  0  0  0  0  0  0  0  0  0
  -21.8530   -6.6430   22.4840 C   0  0  0  0  0  0  0  0  0  0  0  0
  -21.0930   -7.2900   23.4830 C   0  0  0  0  0  3  0  0  0  0  0  0
  -20.7520   -6.6030   24.6660 C   0  0  0  0  0  3  0  0  0  0  0  0
  -21.1600   -5.2670   24.8450 C   0  0  0  0  0  0  0  0  0  0  0  0
  -21.9090   -4.6170   23.8490 C   0  0  0  0  0  3  0  0  0  0  0  0
  -22.2540   -5.3040   22.6710 C   0  0  0  0  0  0  0  0  0  0  0  0
  -22.9580   -4.6670   21.7050 F   0  0  0  0  0  0  0  0  0  0  0  0
  -20.8260   -4.6030   25.9750 F   0  0  0  0  0  0  0  0  0  0  0  0
  -23.2250  -13.9080   21.2080 C   0  0  0  0  0  0  0  0  0  0  0  0
  -22.5240  -13.1760   22.0690 N   0  0  0  0  0  0  0  0  0  0  0  0
  -22.7730  -14.9510   20.7410 O   0  0  0  0  0  0  0  0  0  0  0  0
  -22.9050  -12.3310   22.4700 H   0  0  0  0  0  0  0  0  0  0  0  0
  -21.5900  -13.4610   22.3260 H   0  0  0  0  0  0  0  0  0  0  0  0
  -25.8330  -15.6080   20.3730 N   0  0  0  0  0  0  0  0  0  0  0  0
  -25.0750  -16.2640   20.5300 H   0  0  0  0  0  0  0  0  0  0  0  0
  -26.6810  -16.0510   20.0430 H   0  0  0  0  0  0  0  0  0  0  0  0
  -29.2310  -22.6110   19.6050 C   0  0  0  0  0  2  0  0  0  0  0  0
  -29.3680  -24.2130   19.9350 C   0  0  0  0  0  3  0  0  0  0  0  0
  -28.3530  -25.3100   19.3070 C   0  0  0  0  0  3  0  0  0  0  0  0
  -28.4640  -26.7930   19.5850 O   0  0  0  0  0  0  0  0  0  0  0  0
  -24.6800  -31.7800   23.2580 C   0  0  0  0  0  0  0  0  0  0  0  0
  -27.3170  -27.6280   19.6380 C   0  0  0  0  0  0  0  0  0  0  0  0
  -23.4530  -30.4810   21.5530 C   0  0  0  0  0  3  0  0  0  0  0  0
  -24.8920  -29.1520   19.9060 C   0  0  0  0  0  0  0  0  0  0  0  0
  -25.9660  -30.9340   21.2750 C   0  0  0  0  0  2  0  0  0  0  0  0
  -26.0700  -29.6260   20.4900 C   0  0  0  0  0  0  0  0  0  0  0  0
  -27.2830  -28.8770   20.3500 C   0  0  0  0  0  3  0  0  0  0  0  0
  -26.1100  -27.2380   19.0090 C   0  0  0  0  0  3  0  0  0  0  0  0
  -24.9170  -27.9680   19.1550 C   0  0  0  0  0  3  0  0  0  0  0  0
  -23.6220  -29.9550   20.1040 C   0  0  0  0  0  2  0  0  0  0  0  0
  -24.7200  -31.0830   22.0840 N   0  0  0  0  0  0  0  0  0  0  0  0
  -23.6170  -31.9460   23.8750 O   0  0  0  0  0  0  0  0  0  0  0  0
  -22.8930  -29.3470   22.4470 C   0  0  0  0  0  0  0  0  0  0  0  0
  -21.5990  -29.0250   22.2800 N   0  0  0  0  0  0  0  0  0  0  0  0
  -23.6240  -28.7610   23.2490 O   0  0  0  0  0  0  0  0  0  0  0  0
  -21.0630  -29.5590   21.6100 H   0  0  0  0  0  0  0  0  0  0  0  0
  -18.4020  -27.3450   22.5560 C   0  0  0  0  0  0  0  0  0  0  0  0
  -20.8780  -27.9590   22.9800 C   0  0  0  0  0  3  0  0  0  0  0  0
  -21.2170  -26.5740   22.3840 C   0  0  0  0  0  2  0  0  0  0  0  0
  -20.2310  -26.1260   21.2990 C   0  0  0  0  0  2  0  0  0  0  0  0
  -18.8090  -26.0550   21.8640 C   0  0  0  0  0  2  0  0  0  0  0  0
  -19.3760  -28.2460   23.0660 C   0  0  0  0  0  0  0  0  0  0  0  0
  -18.9450  -29.4470   23.6720 C   0  0  0  0  0  3  0  0  0  0  0  0
  -17.5740  -29.7510   23.7740 C   0  0  0  0  0  3  0  0  0  0  0  0
  -16.6160  -28.8500   23.2820 C   0  0  0  0  0  3  0  0  0  0  0  0
  -17.0290  -27.6480   22.6790 C   0  0  0  0  0  3  0  0  0  0  0  0
  -25.9620  -32.4180   23.8730 C   0  0  0  0  0  3  0  0  0  0  0  0
  -25.6440  -33.8110   24.2230 N   0  0  0  0  0  0  0  0  0  0  0  0
  -25.9650  -34.8780   23.4790 C   0  0  0  0  0  0  0  0  0  0  0  0
  -26.6310  -34.7940   22.4430 O   0  0  0  0  0  0  0  0  0  0  0  0
  -25.0550  -33.9500   25.0320 H   0  0  0  0  0  0  0  0  0  0  0  0
  -24.2220  -36.6650   23.1620 C   0  0  0  0  0  1  0  0  0  0  0  0
  -25.4700  -36.2560   23.9600 C   0  0  0  0  0  3  0  0  0  0  0  0
  -27.5960  -37.1560   24.8010 C   0  0  0  0  0  1  0  0  0  0  0  0
  -26.4930  -37.3190   23.8570 N   0  0  0  0  0  0  0  0  0  0  0  0
  -26.0790  -38.2340   24.0080 H   0  0  0  0  0  0  0  0  0  0  0  0
  -26.5030  -31.6400   25.1360 C   0  0  1  0  0  0  0  0  0  0  0  0
  -25.4230  -31.3570   26.2050 C   0  0  0  0  0  1  0  0  0  0  0  0
  -27.1170  -30.2810   24.7250 C   0  0  0  0  0  1  0  0  0  0  0  0
  -27.6370  -32.4520   25.8050 C   0  0  0  0  0  1  0  0  0  0  0  0
  1  3  1  0
  2 49  1  0
  2  4  1  0
  4  1  2  0
  5  1  1  0
  6  2  1  0
  6  5  1  0
  9  7  1  6
  9 10  1  0
  9  8  1  0
  9  6  1  0
 10 19  1  0
 11 17  1  0
 11 19  1  0
 12 17  1  0
 13 14  1  0
 13 12  1  0
 15 14  1  0
 15 24  1  0
 15 16  1  0
 17 16  1  0
 18 11  2  0
 19 20  1  0
 21 22  2  0
 22 41  1  0
 23 22  1  0
 23 26  1  0
 24 25  1  0
 24 21  1  0
 25 23  2  0
 26 27  1  0
 27 28  2  0
 29 32  1  0
 29 28  1  0
 30 29  2  0
 31 30  1  0
 31 26  2  0
 32 33  1  0
 33 38  2  0
 33 34  1  0
 34 35  2  0
 35 36  1  0
 36 40  1  0
 37 36  2  0
 38 37  1  0
 39 38  1  0
 41 42  1  0
 42 45  1  0
 42 44  1  0
 43 41  2  0
 46 21  1  0
 46 47  1  0
 48 46  1  0
 49 50  1  0
 51 52  1  0
 51 50  2  0
 52 54  1  0
 53 64  2  0
 54 59  1  0
 55 63  1  0
 55 65  1  0
 56 62  1  0
 56 58  1  0
 57 63  1  0
 58 57  1  0
 59 58  2  0
 60 61  1  0
 60 54  2  0
 61 56  2  0
 62 55  1  0
 63 53  1  0
 65 67  2  0
 66 65  1  0
 68 66  1  0
 69 78  2  0
 69 74  1  0
 70 66  1  0
 70 74  1  0
 71 70  1  0
 72 73  1  0
 72 71  1  0
 73 69  1  0
 74 75  2  0
 75 76  1  0
 77 76  2  0
 78 77  1  0
 79 53  1  0
 79 80  1  0
 79 89  1  0
 80 83  1  0
 81 85  1  0
 81 80  1  0
 82 81  2  0
 85 84  1  0
 87 85  1  0
 87 88  1  0
 87 86  1  0
 89 92  1  1
 89 90  1  0
 91 89  1  0
M  ISO  4  11 100  19 100  51 101  52 101
M  END
>  <TORSDO>  (77) 
F 21

>  <SCORE>  (77) 
-12.248

>  <name>  (77) 
79

>  <ligand_id>  (77) 
79

>  <original_smiles>  (77) 
[H]c1c([H])c([H])c2c(c1[H])C([H])([H])C([H])([H])C([H])([H])C2([H])N([H])C(=O)C1([H])N(C(=O)C([H])(N([H])C(=O)C([H])(N([H])C([H])([H])[H])C([H])([H])[H])C(C([H])([H])[H])(C([H])([H])[H])C([H])([H])[H])C([H])([H])c2c([H])c(OC([H])([H])C([H])([H])C([H])([H])c3nc(C([H])([H])[H])nn3C(C([H])([H])[H])(C([H])([H])[H])C([H])([H])N([H])C(=O)N3C([H])([H])C([H])([H])C([H])([H])C([H])(n4nc(-c5c([H])c([H])c(Oc6c([H])c([H])c(F)c([H])c6F)c([H])c5[H])c(C(=O)N([H])[H])c4N([H])[H])C3([H])[H])c([H])c([H])c2C1([H])[H]

>  <smiles>  (77) 
[H]c1c([H])c([H])c2c(c1[H])C([H])([H])C([H])([H])C([H])([H])C2([H])N([H])C(=O)C1([H])N(C(=O)C([H])(N([H])C(=O)C([H])(N([H])C([H])([H])[H])C([H])([H])[H])C(C([H])([H])[H])(C([H])([H])[H])C([H])([H])[H])C([H])([H])c2c([H])c(OC([H])([H])C([H])([H])C([H])([H])c3nc(C([H])([H])[H])nn3C(C([H])([H])[H])(C([H])([H])[H])C([H])([H])N([H])C(=O)N3C([H])([H])C([H])([H])C([H])([H])C([H])(n4nc(-c5c([H])c([H])c(Oc6c([H])c([H])c(F)c([H])c6F)c([H])c5[H])c(C(=O)N([H])[H])c4N([H])[H])C3([H])[H])c([H])c([H])c2C1([H])[H]

$$$$
80:0:0
     RDKit          3D

100108  0  0  1  0  0  0  0  0999 V2000
  -27.0650  -21.6450   19.7640 C   0  0  0  0  0  2  0  0  0  0  0  0
  -27.6720  -19.2450   19.0870 C   0  0  0  0  0  3  0  0  0  0  0  0
  -28.0100  -20.4320   19.7720 C   0  0  0  0  0  0  0  0  0  0  0  0
  -29.5910  -18.1960   19.8730 C   0  0  0  0  0  0  0  0  0  0  0  0
  -29.9220  -19.3820   20.6080 C   0  0  0  0  0  0  0  0  0  0  0  0
  -28.4560  -18.1360   19.1310 N   0  0  0  0  0  0  0  0  0  0  0  0
  -29.1160  -20.4850   20.5510 N   0  0  0  0  0  0  0  0  0  0  0  0
  -31.1890  -19.5780   21.4640 C   0  0  1  0  0  0  0  0  0  0  0  0
  -31.8260  -18.4520   21.7740 F   0  0  0  0  0  0  0  0  0  0  0  0
  -32.0400  -20.3720   20.8110 F   0  0  0  0  0  0  0  0  0  0  0  0
  -30.8710  -20.1790   22.6120 F   0  0  0  0  0  0  0  0  0  0  0  0
  -30.4980  -16.9630   19.6900 C   0  0  0  0  0  2  0  0  0  0  0  0
  -30.8080  -14.5580   19.9950 C   0  0  0  0  0  0  0  0  0  0  0  0
  -30.4590  -12.3650   18.9100 C   0  0  0  0  0  2  0  0  0  0  0  0
  -29.4500  -12.5420   17.7560 C   0  0  0  0  0  2  0  0  0  0  0  0
  -27.9980  -12.4010   18.2640 C   0  0  0  0  0  2  0  0  0  0  0  0
  -27.7320  -13.2330   19.5490 C   0  0  0  0  0  3  0  0  0  0  0  0
  -28.8560  -13.0090   20.5810 C   0  0  0  0  0  2  0  0  0  0  0  0
  -30.1280  -13.3740   19.9380 N   0  0  0  0  0  0  0  0  0  0  0  0
  -31.9020  -14.6800   19.4310 O   0  0  0  0  0  0  0  0  0  0  0  0
  -29.5630  -15.8430   21.7120 C   0  0  0  0  0  1  0  0  0  0  0  0
  -30.1300  -15.6850   20.3670 N   0  0  0  0  0  0  0  0  0  0  0  0
  -25.3950  -13.8360   20.4390 C   0  0  0  0  0  0  0  0  0  0  0  0
  -24.3500  -13.0560   20.8590 C   0  0  0  0  0  0  0  0  0  0  0  0
  -24.8000  -11.7030   20.7590 C   0  0  0  0  0  0  0  0  0  0  0  0
  -26.4150  -12.9540   20.1130 N   0  0  0  0  0  0  0  0  0  0  0  0
  -26.0650  -11.6660   20.3630 N   0  0  0  0  0  0  0  0  0  0  0  0
  -24.0790  -10.4400   20.9640 C   0  0  0  0  0  0  0  0  0  0  0  0
  -24.5160   -9.4920   21.9150 C   0  0  0  0  0  3  0  0  0  0  0  0
  -23.8000   -8.2900   22.1040 C   0  0  0  0  0  3  0  0  0  0  0  0
  -22.6310   -8.0310   21.3490 C   0  0  0  0  0  0  0  0  0  0  0  0
  -22.2160   -8.9690   20.3870 C   0  0  0  0  0  3  0  0  0  0  0  0
  -22.9320  -10.1620   20.1940 C   0  0  0  0  0  3  0  0  0  0  0  0
  -21.8820   -6.8840   21.4520 O   0  0  0  0  0  0  0  0  0  0  0  0
  -21.7750   -6.1980   22.6350 C   0  0  0  0  0  0  0  0  0  0  0  0
  -21.2520   -6.7990   23.8010 C   0  0  0  0  0  3  0  0  0  0  0  0
  -21.0960   -6.0360   24.9770 C   0  0  0  0  0  3  0  0  0  0  0  0
  -21.4500   -4.6740   24.9850 C   0  0  0  0  0  0  0  0  0  0  0  0
  -21.9630   -4.0720   23.8220 C   0  0  0  0  0  3  0  0  0  0  0  0
  -22.1230   -4.8310   22.6500 C   0  0  0  0  0  0  0  0  0  0  0  0
  -22.5980   -4.2410   21.5270 F   0  0  0  0  0  0  0  0  0  0  0  0
  -21.2920   -3.9400   26.1110 F   0  0  0  0  0  0  0  0  0  0  0  0
  -22.9740  -13.5240   21.2390 C   0  0  0  0  0  0  0  0  0  0  0  0
  -22.3180  -12.8250   22.1600 N   0  0  0  0  0  0  0  0  0  0  0  0
  -22.4920  -14.5460   20.7540 O   0  0  0  0  0  0  0  0  0  0  0  0
  -22.7210  -11.9980   22.5790 H   0  0  0  0  0  0  0  0  0  0  0  0
  -21.3980  -13.1180   22.4550 H   0  0  0  0  0  0  0  0  0  0  0  0
  -25.5610  -15.2110   20.2870 N   0  0  0  0  0  0  0  0  0  0  0  0
  -24.8140  -15.8730   20.4590 H   0  0  0  0  0  0  0  0  0  0  0  0
  -26.4050  -15.6450   19.9250 H   0  0  0  0  0  0  0  0  0  0  0  0
  -27.6780  -23.0870   19.7500 C   0  0  0  0  0  2  0  0  0  0  0  0
  -29.2220  -22.6490   17.7750 C   0  0  0  0  0  1  0  0  0  0  0  0
  -28.3180  -23.7200   18.4590 C   0  0  1  0  0  0  0  0  0  0  0  0
  -26.1800  -23.2000   16.9540 C   0  0  0  0  0  1  0  0  0  0  0  0
  -27.8620  -24.8560   16.1320 C   0  0  0  0  0  1  0  0  0  0  0  0
  -27.2460  -24.2230   17.3990 C   0  0  2  0  0  0  0  0  0  0  0  0
  -26.4860  -25.1680   17.9430 F   0  0  0  0  0  0  0  0  0  0  0  0
  -29.3090  -24.8710   18.9370 C   0  0  0  0  0  2  0  0  0  0  0  0
  -28.8890  -26.3750   19.0520 C   0  0  0  0  0  2  0  0  0  0  0  0
  -28.5840  -26.8720   20.3810 O   0  0  0  0  0  0  0  0  0  0  0  0
  -24.7440  -32.0780   23.5650 C   0  0  0  0  0  0  0  0  0  0  0  0
  -27.4200  -27.6070   20.4890 C   0  0  0  0  0  0  0  0  0  0  0  0
  -23.5860  -30.6600   21.9360 C   0  0  0  0  0  3  0  0  0  0  0  0
  -25.0320  -29.1200   20.5310 C   0  0  0  0  0  0  0  0  0  0  0  0
  -26.1100  -31.0110   21.7590 C   0  0  0  0  0  2  0  0  0  0  0  0
  -26.1940  -29.6390   21.1200 C   0  0  0  0  0  0  0  0  0  0  0  0
  -27.3910  -28.8830   21.1090 C   0  0  0  0  0  3  0  0  0  0  0  0
  -26.2160  -27.0840   19.9740 C   0  0  0  0  0  3  0  0  0  0  0  0
  -25.0350  -27.8360   19.9670 C   0  0  0  0  0  3  0  0  0  0  0  0
  -23.7910  -29.9790   20.5590 C   0  0  0  0  0  2  0  0  0  0  0  0
  -24.8350  -31.2630   22.4780 N   0  0  0  0  0  0  0  0  0  0  0  0
  -23.6480  -32.3510   24.0790 O   0  0  0  0  0  0  0  0  0  0  0  0
  -22.9330  -29.6450   22.8970 C   0  0  0  0  0  0  0  0  0  0  0  0
  -21.6360  -29.4800   22.6650 N   0  0  0  0  0  0  0  0  0  0  0  0
  -23.5690  -29.0330   23.7560 O   0  0  0  0  0  0  0  0  0  0  0  0
  -21.2650  -30.1070   21.9650 H   0  0  0  0  0  0  0  0  0  0  0  0
  -18.2620  -27.8900   22.8870 C   0  0  0  0  0  0  0  0  0  0  0  0
  -20.7060  -28.4480   23.0460 C   0  0  0  0  0  3  0  0  0  0  0  0
  -21.0610  -26.9580   22.9740 C   0  0  0  0  0  2  0  0  0  0  0  0
  -20.0890  -26.2770   21.9870 C   0  0  0  0  0  2  0  0  0  0  0  0
  -18.6140  -26.4880   22.3910 C   0  0  0  0  0  2  0  0  0  0  0  0
  -19.2600  -28.8030   23.3080 C   0  0  0  0  0  0  0  0  0  0  0  0
  -18.9030  -30.0810   23.7780 C   0  0  0  0  0  3  0  0  0  0  0  0
  -17.5490  -30.4710   23.7880 C   0  0  0  0  0  3  0  0  0  0  0  0
  -16.5570  -29.5820   23.3380 C   0  0  0  0  0  3  0  0  0  0  0  0
  -16.9130  -28.2930   22.9000 C   0  0  0  0  0  3  0  0  0  0  0  0
  -26.0120  -32.7200   24.1990 C   0  0  0  0  0  3  0  0  0  0  0  0
  -26.4810  -31.9830   25.5110 C   0  0  1  0  0  0  0  0  0  0  0  0
  -25.3490  -31.7720   26.5450 C   0  0  0  0  0  1  0  0  0  0  0  0
  -27.0810  -30.5990   25.1760 C   0  0  0  0  0  1  0  0  0  0  0  0
  -27.6040  -32.8010   26.1880 C   0  0  0  0  0  1  0  0  0  0  0  0
  -25.6980  -34.1300   24.4690 N   0  0  0  0  0  0  0  0  0  0  0  0
  -26.0360  -35.1500   23.6710 C   0  0  0  0  0  0  0  0  0  0  0  0
  -26.7170  -35.0050   22.6540 O   0  0  0  0  0  0  0  0  0  0  0  0
  -25.0910  -34.3150   25.2550 H   0  0  0  0  0  0  0  0  0  0  0  0
  -24.3050  -36.9220   23.2390 C   0  0  0  0  0  1  0  0  0  0  0  0
  -25.5430  -36.5540   24.0700 C   0  0  0  0  0  3  0  0  0  0  0  0
  -27.6720  -37.4770   24.8770 C   0  0  0  0  0  1  0  0  0  0  0  0
  -26.5770  -37.6010   23.9200 N   0  0  0  0  0  0  0  0  0  0  0  0
  -26.1680  -38.5260   24.0230 H   0  0  0  0  0  0  0  0  0  0  0  0
  1  3  1  0
  2  6  2  0
  2  3  1  0
  3  7  2  0
  4  5  2  0
  5  8  1  0
  6  4  1  0
  7  5  1  0
  8  9  1  1
  8 11  1  0
 10  8  1  0
 12  4  1  0
 12 22  1  0
 13 22  1  0
 14 19  1  0
 15 16  1  0
 15 14  1  0
 17 16  1  0
 17 26  1  0
 17 18  1  0
 19 13  1  0
 19 18  1  0
 20 13  2  0
 22 21  1  0
 23 24  2  0
 24 43  1  0
 25 24  1  0
 25 28  1  0
 26 27  1  0
 26 23  1  0
 27 25  2  0
 28 29  1  0
 29 30  2  0
 31 34  1  0
 31 30  1  0
 32 31  2  0
 33 32  1  0
 33 28  2  0
 34 35  1  0
 35 40  2  0
 35 36  1  0
 36 37  2  0
 37 38  1  0
 38 42  1  0
 39 38  2  0
 40 39  1  0
 41 40  1  0
 43 44  1  0
 44 47  1  0
 44 46  1  0
 45 43  2  0
 48 23  1  0
 48 49  1  0
 50 48  1  0
 51  1  1  0
 53 52  1  6
 53 58  1  0
 53 51  1  0
 56 54  1  6
 55 56  1  0
 56 57  1  0
 56 53  1  0
 58 59  1  0
 59 60  1  0
 60 62  1  0
 61 72  2  0
 62 67  1  0
 63 71  1  0
 63 73  1  0
 64 70  1  0
 64 66  1  0
 65 71  1  0
 66 65  1  0
 67 66  2  0
 68 62  2  0
 69 68  1  0
 69 64  2  0
 70 63  1  0
 71 61  1  0
 73 75  2  0
 74 73  1  0
 76 74  1  0
 77 86  2  0
 77 82  1  0
 78 74  1  0
 78 82  1  0
 79 78  1  0
 80 81  1  0
 80 79  1  0
 81 77  1  0
 82 83  2  0
 83 84  1  0
 85 84  2  0
 86 85  1  0
 87 61  1  0
 87 92  1  0
 87 88  1  0
 88 91  1  1
 88 89  1  0
 90 88  1  0
 92 95  1  0
 93 97  1  0
 93 92  1  0
 94 93  2  0
 97 96  1  0
 99100  1  0
 99 97  1  0
 99 98  1  0
M  ISO  4  13 100  22 100  59 101  60 101
M  END
>  <TORSDO>  (78) 
F 24

>  <SCORE>  (78) 
-11.549

>  <name>  (78) 
80

>  <ligand_id>  (78) 
80

>  <original_smiles>  (78) 
[H]c1nc(C([H])([H])N(C(=O)N2C([H])([H])C([H])([H])C([H])([H])C([H])(n3nc(-c4c([H])c([H])c(Oc5c([H])c([H])c(F)c([H])c5F)c([H])c4[H])c(C(=O)N([H])[H])c3N([H])[H])C2([H])[H])C([H])([H])[H])c(C(F)(F)F)nc1C([H])([H])C([H])([H])C(C([H])([H])[H])(C([H])([H])C([H])([H])Oc1c([H])c([H])c2c(c1[H])C([H])([H])N(C(=O)C([H])(N([H])C(=O)C([H])(N([H])C([H])([H])[H])C([H])([H])[H])C(C([H])([H])[H])(C([H])([H])[H])C([H])([H])[H])C([H])(C(=O)N([H])C1([H])c3c([H])c([H])c([H])c([H])c3C([H])([H])C([H])([H])C1([H])[H])C2([H])[H])C(F)(C([H])([H])[H])C([H])([H])[H]

>  <smiles>  (78) 
[H]c1nc(C([H])([H])N(C(=O)N2C([H])([H])C([H])([H])C([H])([H])C([H])(n3nc(-c4c([H])c([H])c(Oc5c([H])c([H])c(F)c([H])c5F)c([H])c4[H])c(C(=O)N([H])[H])c3N([H])[H])C2([H])[H])C([H])([H])[H])c(C(F)(F)F)nc1C([H])([H])C([H])([H])C(C([H])([H])[H])(C([H])([H])C([H])([H])Oc1c([H])c([H])c2c(c1[H])C([H])([H])N(C(=O)C([H])(N([H])C(=O)C([H])(N([H])C([H])([H])[H])C([H])([H])[H])C(C([H])([H])[H])(C([H])([H])[H])C([H])([H])[H])C([H])(C(=O)N([H])C1([H])c3c([H])c([H])c([H])c([H])c3C([H])([H])C([H])([H])C1([H])[H])C2([H])[H])C(F)(C([H])([H])[H])C([H])([H])[H]

$$$$
81:0:0
     RDKit          3D

 92100  0  0  1  0  0  0  0  0999 V2000
  -28.3860  -20.8660   20.0430 C   0  0  0  0  0  2  0  0  0  0  0  0
  -29.2580  -19.5620   19.9020 C   0  0  0  0  0  0  0  0  0  0  0  0
  -30.3060  -17.9840   18.9360 C   0  0  0  0  0  3  0  0  0  0  0  0
  -31.0890  -17.2520   17.8970 C   0  0  0  0  0  1  0  0  0  0  0  0
  -29.9340  -19.2660   18.7520 N   0  0  0  0  0  0  0  0  0  0  0  0
  -29.2500  -18.5130   20.7600 N   0  0  0  0  0  2  0  0  0  0  0  0
  -29.9080  -17.4490   20.1140 N   0  0  0  0  0  0  0  0  0  0  0  0
  -29.0830  -15.8810   21.8840 C   0  0  0  0  0  1  0  0  0  0  0  0
  -31.4570  -16.4600   21.7290 C   0  0  0  0  0  1  0  0  0  0  0  0
  -30.2160  -16.1220   20.8610 C   0  0  2  0  0  0  0  0  0  0  0  0
  -30.6520  -14.7560   20.0520 C   0  0  0  0  0  0  0  0  0  0  0  0
  -30.3310  -12.5520   18.8770 C   0  0  0  0  0  2  0  0  0  0  0  0
  -29.3050  -12.6830   17.7260 C   0  0  0  0  0  2  0  0  0  0  0  0
  -27.8630  -12.5030   18.2390 C   0  0  0  0  0  2  0  0  0  0  0  0
  -27.5950  -13.3170   19.5320 C   0  0  0  0  0  3  0  0  0  0  0  0
  -28.7240  -13.0810   20.5520 C   0  0  0  0  0  2  0  0  0  0  0  0
  -29.9790  -13.5440   19.9340 N   0  0  0  0  0  0  0  0  0  0  0  0
  -31.7470  -14.8160   19.4810 O   0  0  0  0  0  0  0  0  0  0  0  0
  -25.2600  -13.9100   20.4150 C   0  0  0  0  0  0  0  0  0  0  0  0
  -24.2170  -13.1350   20.8410 C   0  0  0  0  0  0  0  0  0  0  0  0
  -24.6690  -11.7820   20.7580 C   0  0  0  0  0  0  0  0  0  0  0  0
  -26.2820  -13.0300   20.0980 N   0  0  0  0  0  0  0  0  0  0  0  0
  -25.9350  -11.7440   20.3630 N   0  0  0  0  0  0  0  0  0  0  0  0
  -23.9500  -10.5210   20.9740 C   0  0  0  0  0  0  0  0  0  0  0  0
  -24.4200   -9.5480   21.8840 C   0  0  0  0  0  3  0  0  0  0  0  0
  -23.6990   -8.3520   22.0890 C   0  0  0  0  0  3  0  0  0  0  0  0
  -22.4950   -8.1190   21.3820 C   0  0  0  0  0  0  0  0  0  0  0  0
  -22.0440   -9.0800   20.4610 C   0  0  0  0  0  3  0  0  0  0  0  0
  -22.7650  -10.2680   20.2540 C   0  0  0  0  0  3  0  0  0  0  0  0
  -21.7430   -6.9750   21.4960 O   0  0  0  0  0  0  0  0  0  0  0  0
  -21.7150   -6.2460   22.6580 C   0  0  0  0  0  0  0  0  0  0  0  0
  -21.3290   -6.8190   23.8890 C   0  0  0  0  0  3  0  0  0  0  0  0
  -21.2470   -6.0160   25.0450 C   0  0  0  0  0  3  0  0  0  0  0  0
  -21.5410   -4.6410   24.9710 C   0  0  0  0  0  0  0  0  0  0  0  0
  -21.9200   -4.0680   23.7440 C   0  0  0  0  0  3  0  0  0  0  0  0
  -22.0040   -4.8670   22.5900 C   0  0  0  0  0  0  0  0  0  0  0  0
  -22.3500   -4.3050   21.4070 F   0  0  0  0  0  0  0  0  0  0  0  0
  -21.4550   -3.8680   26.0780 F   0  0  0  0  0  0  0  0  0  0  0  0
  -22.8420  -13.6140   21.2120 C   0  0  0  0  0  0  0  0  0  0  0  0
  -22.1710  -12.9100   22.1160 N   0  0  0  0  0  0  0  0  0  0  0  0
  -22.3750  -14.6470   20.7340 O   0  0  0  0  0  0  0  0  0  0  0  0
  -22.5640  -12.0750   22.5250 H   0  0  0  0  0  0  0  0  0  0  0  0
  -21.2520  -13.2130   22.4070 H   0  0  0  0  0  0  0  0  0  0  0  0
  -25.4180  -15.2830   20.2500 N   0  0  0  0  0  0  0  0  0  0  0  0
  -24.6650  -15.9370   20.4330 H   0  0  0  0  0  0  0  0  0  0  0  0
  -26.2470  -15.7290   19.8820 H   0  0  0  0  0  0  0  0  0  0  0  0
  -28.9480  -22.3480   20.3890 C   0  0  0  0  0  2  0  0  0  0  0  0
  -26.5980  -23.3430   20.2890 C   0  0  0  0  0  1  0  0  0  0  0  0
  -28.2560  -23.8910   18.4680 C   0  0  0  0  0  1  0  0  0  0  0  0
  -28.0750  -23.6720   19.9820 C   0  0  2  0  0  0  0  0  0  0  0  0
  -28.4190  -25.0780   20.7290 C   0  0  0  0  0  2  0  0  0  0  0  0
  -28.3720  -26.4480   20.1150 O   0  0  0  0  0  0  0  0  0  0  0  0
  -24.6470  -31.8870   23.2080 C   0  0  0  0  0  0  0  0  0  0  0  0
  -27.2400  -27.2810   20.1770 C   0  0  0  0  0  0  0  0  0  0  0  0
  -23.4380  -30.4790   21.5810 C   0  0  0  0  0  3  0  0  0  0  0  0
  -24.8810  -28.9120   20.1640 C   0  0  0  0  0  0  0  0  0  0  0  0
  -25.9790  -30.7870   21.3880 C   0  0  0  0  0  2  0  0  0  0  0  0
  -26.0530  -29.3980   20.7570 C   0  0  0  0  0  0  0  0  0  0  0  0
  -27.2370  -28.5950   20.7520 C   0  0  0  0  0  3  0  0  0  0  0  0
  -26.0540  -26.8630   19.5450 C   0  0  0  0  0  3  0  0  0  0  0  0
  -24.8850  -27.6490   19.5500 C   0  0  0  0  0  3  0  0  0  0  0  0
  -23.6490  -29.7930   20.2060 C   0  0  0  0  0  2  0  0  0  0  0  0
  -24.7070  -31.0710   22.1150 N   0  0  0  0  0  0  0  0  0  0  0  0
  -23.5650  -32.1690   23.7440 O   0  0  0  0  0  0  0  0  0  0  0  0
  -22.7780  -29.4700   22.5500 C   0  0  0  0  0  0  0  0  0  0  0  0
  -21.4510  -29.2910   22.4290 N   0  0  0  0  0  0  0  0  0  0  0  0
  -23.4590  -28.8490   23.3700 O   0  0  0  0  0  0  0  0  0  0  0  0
  -20.9610  -29.8430   21.7390 H   0  0  0  0  0  0  0  0  0  0  0  0
  -18.0770  -28.0930   22.9450 C   0  0  0  0  0  0  0  0  0  0  0  0
  -20.6350  -28.3590   23.2080 C   0  0  0  0  0  3  0  0  0  0  0  0
  -20.7390  -26.9230   22.6420 C   0  0  0  0  0  2  0  0  0  0  0  0
  -19.6350  -26.5920   21.6320 C   0  0  0  0  0  2  0  0  0  0  0  0
  -18.2540  -26.7400   22.2770 C   0  0  0  0  0  2  0  0  0  0  0  0
  -19.1950  -28.8600   23.3670 C   0  0  0  0  0  0  0  0  0  0  0  0
  -18.9740  -30.1260   23.9510 C   0  0  0  0  0  3  0  0  0  0  0  0
  -17.6690  -30.6260   24.1150 C   0  0  0  0  0  3  0  0  0  0  0  0
  -16.5650  -29.8560   23.7090 C   0  0  0  0  0  3  0  0  0  0  0  0
  -16.7700  -28.5920   23.1290 C   0  0  0  0  0  3  0  0  0  0  0  0
  -25.9320  -32.5250   23.8220 C   0  0  0  0  0  3  0  0  0  0  0  0
  -25.6160  -33.9200   24.1620 N   0  0  0  0  0  0  0  0  0  0  0  0
  -25.9350  -34.9790   23.4070 C   0  0  0  0  0  0  0  0  0  0  0  0
  -26.5940  -34.8860   22.3690 O   0  0  0  0  0  0  0  0  0  0  0  0
  -25.0250  -34.0650   24.9670 H   0  0  0  0  0  0  0  0  0  0  0  0
  -24.1920  -36.7660   23.0850 C   0  0  0  0  0  1  0  0  0  0  0  0
  -25.4450  -36.3620   23.8780 C   0  0  0  0  0  3  0  0  0  0  0  0
  -27.5870  -37.2540   24.6850 C   0  0  0  0  0  1  0  0  0  0  0  0
  -26.4700  -37.4210   23.7570 N   0  0  0  0  0  0  0  0  0  0  0  0
  -26.0620  -38.3390   23.9150 H   0  0  0  0  0  0  0  0  0  0  0  0
  -26.4610  -31.7510   25.0910 C   0  0  1  0  0  0  0  0  0  0  0  0
  -25.3780  -31.5040   26.1670 C   0  0  0  0  0  1  0  0  0  0  0  0
  -27.0480  -30.3770   24.6910 C   0  0  0  0  0  1  0  0  0  0  0  0
  -27.6150  -32.5480   25.7450 C   0  0  0  0  0  1  0  0  0  0  0  0
  1 47  1  0
  2  1  1  0
  2  6  1  0
  3  4  1  0
  3  7  1  0
  5  3  1  0
  5  2  2  0
  7  6  1  0
  7 10  1  0
 10  9  1  1
 10  8  1  0
 11 10  1  0
 12 17  1  0
 13 14  1  0
 13 12  1  0
 15 14  1  0
 15 22  1  0
 15 16  1  0
 17 11  1  0
 17 16  1  0
 18 11  2  0
 19 20  2  0
 20 39  1  0
 21 20  1  0
 21 24  1  0
 22 23  1  0
 22 19  1  0
 23 21  2  0
 24 25  1  0
 25 26  2  0
 27 30  1  0
 27 26  1  0
 28 27  2  0
 29 28  1  0
 29 24  2  0
 30 31  1  0
 31 32  1  0
 32 33  2  0
 34 33  1  0
 34 38  1  0
 35 34  2  0
 36 31  2  0
 36 35  1  0
 37 36  1  0
 39 40  1  0
 40 43  1  0
 40 42  1  0
 41 39  2  0
 44 19  1  0
 44 45  1  0
 46 44  1  0
 50 49  1  6
 50 48  1  0
 50 47  1  0
 50 51  1  0
 52 54  1  0
 52 51  1  0
 53 64  2  0
 54 59  1  0
 55 63  1  0
 55 65  1  0
 56 62  1  0
 56 58  1  0
 57 63  1  0
 58 57  1  0
 59 58  2  0
 60 61  1  0
 60 54  2  0
 61 56  2  0
 62 55  1  0
 63 53  1  0
 65 67  2  0
 66 65  1  0
 68 66  1  0
 69 78  2  0
 69 74  1  0
 70 66  1  0
 70 74  1  0
 71 70  1  0
 72 73  1  0
 72 71  1  0
 73 69  1  0
 74 75  2  0
 75 76  1  0
 77 76  2  0
 78 77  1  0
 79 53  1  0
 79 80  1  0
 79 89  1  0
 80 83  1  0
 81 85  1  0
 81 80  1  0
 82 81  2  0
 85 84  1  0
 87 85  1  0
 87 88  1  0
 87 86  1  0
 89 92  1  1
 89 90  1  0
 91 89  1  0
M  ISO  4  10 100  11 100  51 101  52 101
M  END
>  <TORSDO>  (79) 
F 21

>  <SCORE>  (79) 
-12.437

>  <name>  (79) 
81

>  <ligand_id>  (79) 
81

>  <original_smiles>  (79) 
[H]c1c([H])c([H])c2c(c1[H])C([H])([H])C([H])([H])C([H])([H])C2([H])N([H])C(=O)C1([H])N(C(=O)C([H])(N([H])C(=O)C([H])(N([H])C([H])([H])[H])C([H])([H])[H])C(C([H])([H])[H])(C([H])([H])[H])C([H])([H])[H])C([H])([H])c2c([H])c(OC([H])([H])C(C([H])([H])[H])(C([H])([H])[H])C([H])([H])C([H])([H])c3nc(C([H])([H])[H])n(C(C(=O)N4C([H])([H])C([H])([H])C([H])([H])C([H])(n5nc(-c6c([H])c([H])c(Oc7c([H])c([H])c(F)c([H])c7F)c([H])c6[H])c(C(=O)N([H])[H])c5N([H])[H])C4([H])[H])(C([H])([H])[H])C([H])([H])[H])n3)c([H])c([H])c2C1([H])[H]

>  <smiles>  (79) 
[H]c1c([H])c([H])c2c(c1[H])C([H])([H])C([H])([H])C([H])([H])C2([H])N([H])C(=O)C1([H])N(C(=O)C([H])(N([H])C(=O)C([H])(N([H])C([H])([H])[H])C([H])([H])[H])C(C([H])([H])[H])(C([H])([H])[H])C([H])([H])[H])C([H])([H])c2c([H])c(OC([H])([H])C(C([H])([H])[H])(C([H])([H])[H])C([H])([H])C([H])([H])c3nc(C([H])([H])[H])n(C(C(=O)N4C([H])([H])C([H])([H])C([H])([H])C([H])(n5nc(-c6c([H])c([H])c(Oc7c([H])c([H])c(F)c([H])c7F)c([H])c6[H])c(C(=O)N([H])[H])c5N([H])[H])C4([H])[H])(C([H])([H])[H])C([H])([H])[H])n3)c([H])c([H])c2C1([H])[H]

$$$$
83:0:0
     RDKit          3D

 96104  0  0  1  0  0  0  0  0999 V2000
  -29.4080  -21.6070   20.2280 C   0  0  0  0  0  2  0  0  0  0  0  0
  -28.3450  -19.3260   20.6900 C   0  0  0  0  0  2  0  0  0  0  0  0
  -30.0590  -18.2170   21.0510 C   0  0  0  0  0  0  0  0  0  0  0  0
  -28.7050  -18.0680   20.9430 N   0  0  0  0  0  0  0  0  0  0  0  0
  -30.4910  -19.4860   20.9640 N   0  0  0  0  0  2  0  0  0  0  0  0
  -29.3540  -20.2030   20.6960 N   0  0  0  0  0  0  0  0  0  0  0  0
  -30.9250  -16.4630   22.6160 C   0  0  0  0  0  1  0  0  0  0  0  0
  -31.0260  -17.0350   21.1840 C   0  0  0  0  0  3  0  0  0  0  0  0
  -31.7300  -14.8360   20.2710 C   0  0  0  0  0  0  0  0  0  0  0  0
  -31.4480  -12.5260   19.4440 C   0  0  0  0  0  2  0  0  0  0  0  0
  -30.5200  -12.5020   18.2100 C   0  0  0  0  0  2  0  0  0  0  0  0
  -29.0390  -12.4760   18.6250 C   0  0  0  0  0  2  0  0  0  0  0  0
  -28.6910  -13.4970   19.7420 C   0  0  0  0  0  3  0  0  0  0  0  0
  -29.7140  -13.4360   20.8890 C   0  0  0  0  0  2  0  0  0  0  0  0
  -31.0340  -13.6610   20.2910 N   0  0  0  0  0  0  0  0  0  0  0  0
  -32.9520  -14.8430   20.0950 O   0  0  0  0  0  0  0  0  0  0  0  0
  -30.9960  -15.9910   20.0870 N   0  0  0  0  0  0  0  0  0  0  0  0
  -26.3550  -14.3330   20.3920 C   0  0  0  0  0  0  0  0  0  0  0  0
  -25.2060  -13.6600   20.7110 C   0  0  0  0  0  0  0  0  0  0  0  0
  -25.5410  -12.2740   20.6790 C   0  0  0  0  0  0  0  0  0  0  0  0
  -27.3170  -13.3540   20.1890 N   0  0  0  0  0  0  0  0  0  0  0  0
  -26.8300  -12.1120   20.4170 N   0  0  0  0  0  0  0  0  0  0  0  0
  -24.7000  -11.0830   20.8280 C   0  0  0  0  0  0  0  0  0  0  0  0
  -25.0090  -10.0770   21.7700 C   0  0  0  0  0  3  0  0  0  0  0  0
  -24.1720   -8.9500   21.9080 C   0  0  0  0  0  3  0  0  0  0  0  0
  -23.0170   -8.8230   21.1010 C   0  0  0  0  0  0  0  0  0  0  0  0
  -22.7280   -9.8150   20.1470 C   0  0  0  0  0  3  0  0  0  0  0  0
  -23.5650  -10.9350   20.0060 C   0  0  0  0  0  3  0  0  0  0  0  0
  -22.1610   -7.7490   21.1490 O   0  0  0  0  0  0  0  0  0  0  0  0
  -21.9650   -7.0370   22.3050 C   0  0  0  0  0  0  0  0  0  0  0  0
  -21.5010   -7.6530   23.4880 C   0  0  0  0  0  3  0  0  0  0  0  0
  -21.2470   -6.8740   24.6350 C   0  0  0  0  0  3  0  0  0  0  0  0
  -21.4450   -5.4810   24.5960 C   0  0  0  0  0  0  0  0  0  0  0  0
  -21.9000   -4.8640   23.4180 C   0  0  0  0  0  3  0  0  0  0  0  0
  -22.1560   -5.6410   22.2730 C   0  0  0  0  0  0  0  0  0  0  0  0
  -22.5770   -5.0420   21.1340 F   0  0  0  0  0  0  0  0  0  0  0  0
  -21.1920   -4.7290   25.6930 F   0  0  0  0  0  0  0  0  0  0  0  0
  -23.8530  -14.2670   20.9470 C   0  0  0  0  0  0  0  0  0  0  0  0
  -23.0460  -13.6380   21.7970 N   0  0  0  0  0  0  0  0  0  0  0  0
  -23.5240  -15.3290   20.4240 O   0  0  0  0  0  0  0  0  0  0  0  0
  -23.3260  -12.7740   22.2360 H   0  0  0  0  0  0  0  0  0  0  0  0
  -22.1390  -14.0270   22.0080 H   0  0  0  0  0  0  0  0  0  0  0  0
  -26.6480  -15.6820   20.2410 N   0  0  0  0  0  0  0  0  0  0  0  0
  -25.9480  -16.4020   20.3720 H   0  0  0  0  0  0  0  0  0  0  0  0
  -27.5690  -16.0610   20.0450 H   0  0  0  0  0  0  0  0  0  0  0  0
  -31.9050  -16.1280   17.6160 C   0  0  0  0  0  1  0  0  0  0  0  0
  -29.5150  -16.6280   18.0880 C   0  0  0  0  0  1  0  0  0  0  0  0
  -30.9290  -16.6170   18.7060 C   0  0  0  0  0  3  0  0  0  0  0  0
  -27.1370  -22.3330   21.2350 C   0  0  0  0  0  1  0  0  0  0  0  0
  -29.2820  -22.8510   22.3810 C   0  0  0  0  0  1  0  0  0  0  0  0
  -28.6080  -22.7520   20.9860 C   0  0  1  0  0  0  0  0  0  0  0  0
  -30.1000  -24.4640   19.7390 C   0  0  0  0  0  1  0  0  0  0  0  0
  -27.8040  -24.0470   18.8740 C   0  0  0  0  0  1  0  0  0  0  0  0
  -28.6500  -24.1510   20.1710 C   0  0  1  0  0  0  0  0  0  0  0  0
  -28.1230  -25.4270   20.9440 C   0  0  0  0  0  2  0  0  0  0  0  0
  -28.3390  -26.7010   20.2600 O   0  0  0  0  0  0  0  0  0  0  0  0
  -24.6590  -31.9910   23.2730 C   0  0  0  0  0  0  0  0  0  0  0  0
  -27.2300  -27.5190   20.1900 C   0  0  0  0  0  0  0  0  0  0  0  0
  -23.4300  -30.6020   21.6370 C   0  0  0  0  0  3  0  0  0  0  0  0
  -24.8660  -29.0760   20.1810 C   0  0  0  0  0  0  0  0  0  0  0  0
  -25.9580  -30.9500   21.4180 C   0  0  0  0  0  2  0  0  0  0  0  0
  -26.0340  -29.5820   20.7660 C   0  0  0  0  0  0  0  0  0  0  0  0
  -27.2250  -28.8160   20.7600 C   0  0  0  0  0  3  0  0  0  0  0  0
  -26.0530  -27.0490   19.5690 C   0  0  0  0  0  3  0  0  0  0  0  0
  -24.8730  -27.8120   19.5690 C   0  0  0  0  0  3  0  0  0  0  0  0
  -23.6250  -29.9370   20.2480 C   0  0  0  0  0  2  0  0  0  0  0  0
  -24.7010  -31.1940   22.1670 N   0  0  0  0  0  0  0  0  0  0  0  0
  -23.5840  -32.2640   23.8260 O   0  0  0  0  0  0  0  0  0  0  0  0
  -22.7870  -29.5740   22.5970 C   0  0  0  0  0  0  0  0  0  0  0  0
  -21.4640  -29.3880   22.4710 N   0  0  0  0  0  0  0  0  0  0  0  0
  -23.4730  -28.9510   23.4100 O   0  0  0  0  0  0  0  0  0  0  0  0
  -20.9760  -29.9420   21.7820 H   0  0  0  0  0  0  0  0  0  0  0  0
  -18.0920  -28.1790   22.9620 C   0  0  0  0  0  0  0  0  0  0  0  0
  -20.6480  -28.4500   23.2400 C   0  0  0  0  0  3  0  0  0  0  0  0
  -20.7600  -27.0180   22.6680 C   0  0  0  0  0  2  0  0  0  0  0  0
  -19.6630  -26.6860   21.6510 C   0  0  0  0  0  2  0  0  0  0  0  0
  -18.2770  -26.8270   22.2890 C   0  0  0  0  0  2  0  0  0  0  0  0
  -19.2070  -28.9460   23.3910 C   0  0  0  0  0  0  0  0  0  0  0  0
  -18.9830  -30.2090   23.9820 C   0  0  0  0  0  3  0  0  0  0  0  0
  -17.6770  -30.7070   24.1440 C   0  0  0  0  0  3  0  0  0  0  0  0
  -16.5760  -29.9370   23.7300 C   0  0  0  0  0  3  0  0  0  0  0  0
  -16.7840  -28.6740   23.1480 C   0  0  0  0  0  3  0  0  0  0  0  0
  -25.9530  -32.6150   23.8830 C   0  0  0  0  0  3  0  0  0  0  0  0
  -25.6570  -34.0140   24.2130 N   0  0  0  0  0  0  0  0  0  0  0  0
  -25.9880  -35.0600   23.4460 C   0  0  0  0  0  0  0  0  0  0  0  0
  -26.6440  -34.9490   22.4060 O   0  0  0  0  0  0  0  0  0  0  0  0
  -25.0750  -34.1770   25.0220 H   0  0  0  0  0  0  0  0  0  0  0  0
  -24.2570  -36.8520   23.1060 C   0  0  0  0  0  1  0  0  0  0  0  0
  -25.5110  -36.4510   23.9020 C   0  0  0  0  0  3  0  0  0  0  0  0
  -27.6610  -37.3260   24.6980 C   0  0  0  0  0  1  0  0  0  0  0  0
  -26.5460  -37.5000   23.7700 N   0  0  0  0  0  0  0  0  0  0  0  0
  -26.1470  -38.4220   23.9260 H   0  0  0  0  0  0  0  0  0  0  0  0
  -26.4770  -31.8400   25.1520 C   0  0  1  0  0  0  0  0  0  0  0  0
  -25.3840  -31.5900   26.2190 C   0  0  0  0  0  1  0  0  0  0  0  0
  -27.0660  -30.4660   24.7530 C   0  0  0  0  0  1  0  0  0  0  0  0
  -27.6270  -32.6350   25.8150 C   0  0  0  0  0  1  0  0  0  0  0  0
  1  6  1  0
  1 51  1  0
  2  6  1  0
  2  4  1  0
  3  8  1  0
  4  3  2  0
  5  3  1  0
  6  5  1  0
  8  7  1  0
  9 15  1  0
 10 15  1  0
 11 12  1  0
 11 10  1  0
 13 12  1  0
 13 21  1  0
 13 14  1  0
 15 14  1  0
 16  9  2  0
 17  9  1  0
 17  8  1  0
 18 19  2  0
 19 38  1  0
 20 19  1  0
 20 23  1  0
 21 18  1  0
 21 22  1  0
 22 20  2  0
 23 24  1  0
 24 25  2  0
 26 29  1  0
 26 25  1  0
 27 26  2  0
 28 27  1  0
 28 23  2  0
 29 30  1  0
 30 31  1  0
 31 32  2  0
 33 32  1  0
 33 37  1  0
 34 33  2  0
 35 30  2  0
 35 34  1  0
 36 35  1  0
 38 39  1  0
 39 42  1  0
 39 41  1  0
 40 38  2  0
 43 44  1  0
 43 18  1  0
 45 43  1  0
 46 48  1  0
 47 48  1  0
 48 17  1  0
 51 49  1  1
 51 50  1  0
 54 52  1  6
 53 54  1  0
 54 55  1  0
 54 51  1  0
 56 55  1  0
 57 68  2  0
 58 56  1  0
 58 63  1  0
 59 67  1  0
 59 69  1  0
 60 66  1  0
 60 62  1  0
 61 67  1  0
 62 61  1  0
 63 62  2  0
 64 65  1  0
 64 58  2  0
 65 60  2  0
 66 59  1  0
 67 57  1  0
 69 71  2  0
 70 69  1  0
 72 70  1  0
 73 82  2  0
 73 78  1  0
 74 70  1  0
 74 78  1  0
 75 74  1  0
 76 77  1  0
 76 75  1  0
 77 73  1  0
 78 79  2  0
 79 80  1  0
 81 80  2  0
 82 81  1  0
 83 57  1  0
 83 84  1  0
 83 93  1  0
 84 87  1  0
 85 89  1  0
 85 84  1  0
 86 85  2  0
 89 88  1  0
 91 89  1  0
 91 92  1  0
 91 90  1  0
 93 96  1  1
 93 94  1  0
 95 93  1  0
M  ISO  4   9 100  17 100  55 101  56 101
M  END
>  <TORSDO>  (80) 
F 22

>  <SCORE>  (80) 
-11.301

>  <name>  (80) 
83

>  <ligand_id>  (80) 
83

>  <original_smiles>  (80) 
[H]c1c([H])c([H])c2c(c1[H])C([H])([H])C([H])([H])C([H])([H])C2([H])N([H])C(=O)C1([H])N(C(=O)C([H])(N([H])C(=O)C([H])(N([H])C([H])([H])[H])C([H])([H])[H])C(C([H])([H])[H])(C([H])([H])[H])C([H])([H])[H])C([H])([H])c2c([H])c(OC([H])([H])C(C([H])([H])[H])(C([H])([H])[H])C(C([H])([H])[H])(C([H])([H])[H])C([H])([H])n3nc(C([H])(N(C(=O)N4C([H])([H])C([H])([H])C([H])([H])C([H])(n5nc(-c6c([H])c([H])c(Oc7c([H])c([H])c(F)c([H])c7F)c([H])c6[H])c(C(=O)N([H])[H])c5N([H])[H])C4([H])[H])C([H])(C([H])([H])[H])C([H])([H])[H])C([H])([H])[H])nc3[H])c([H])c([H])c2C1([H])[H]

>  <smiles>  (80) 
[H]c1c([H])c([H])c2c(c1[H])C([H])([H])C([H])([H])C([H])([H])C2([H])N([H])C(=O)C1([H])N(C(=O)C([H])(N([H])C(=O)C([H])(N([H])C([H])([H])[H])C([H])([H])[H])C(C([H])([H])[H])(C([H])([H])[H])C([H])([H])[H])C([H])([H])c2c([H])c(OC([H])([H])C(C([H])([H])[H])(C([H])([H])[H])C(C([H])([H])[H])(C([H])([H])[H])C([H])([H])n3nc(C([H])(N(C(=O)N4C([H])([H])C([H])([H])C([H])([H])C([H])(n5nc(-c6c([H])c([H])c(Oc7c([H])c([H])c(F)c([H])c7F)c([H])c6[H])c(C(=O)N([H])[H])c5N([H])[H])C4([H])[H])C([H])(C([H])([H])[H])C([H])([H])[H])C([H])([H])[H])nc3[H])c([H])c([H])c2C1([H])[H]

$$$$
84:0:0
     RDKit          3D

 97105  0  0  1  0  0  0  0  0999 V2000
  -30.9330  -19.8960   20.3450 C   0  0  0  0  0  3  0  0  0  0  0  0
  -29.4150  -19.0580   18.9750 C   0  0  0  0  0  3  0  0  0  0  0  0
  -30.4420  -18.6700   19.7900 C   0  0  0  0  0  0  0  0  0  0  0  0
  -30.3040  -20.9840   19.7780 C   0  0  0  0  0  0  0  0  0  0  0  0
  -28.4240  -21.1410   18.0380 C   0  0  0  0  0  1  0  0  0  0  0  0
  -29.3410  -20.4440   18.9210 N   0  0  0  0  0  0  0  0  0  0  0  0
  -31.3010  -22.7810   21.2630 C   0  0  0  0  0  1  0  0  0  0  0  0
  -31.9250  -22.5940   18.8710 C   0  0  0  0  0  1  0  0  0  0  0  0
  -30.7440  -22.4570   19.8580 C   0  0  1  0  0  0  0  0  0  0  0  0
  -29.7170  -23.5960   19.5040 C   0  0  0  0  0  2  0  0  0  0  0  0
  -28.5900  -23.9430   20.5150 C   0  0  0  0  0  2  0  0  0  0  0  0
  -28.5490  -25.4260   20.9810 C   0  0  0  0  0  2  0  0  0  0  0  0
  -28.3610  -26.3840   19.9270 O   0  0  0  0  0  0  0  0  0  0  0  0
  -24.5370  -31.6020   22.9980 C   0  0  0  0  0  0  0  0  0  0  0  0
  -27.1940  -27.1160   19.9800 C   0  0  0  0  0  0  0  0  0  0  0  0
  -23.3340  -30.1710   21.3790 C   0  0  0  0  0  3  0  0  0  0  0  0
  -24.7920  -28.6110   19.9800 C   0  0  0  0  0  0  0  0  0  0  0  0
  -25.8580  -30.5320   21.1740 C   0  0  0  0  0  2  0  0  0  0  0  0
  -25.9500  -29.1490   20.5570 C   0  0  0  0  0  0  0  0  0  0  0  0
  -27.1550  -28.4100   20.5510 C   0  0  0  0  0  3  0  0  0  0  0  0
  -26.0220  -26.5900   19.4010 C   0  0  0  0  0  3  0  0  0  0  0  0
  -24.8220  -27.3290   19.4020 C   0  0  0  0  0  3  0  0  0  0  0  0
  -23.5470  -29.4680   20.0110 C   0  0  0  0  0  2  0  0  0  0  0  0
  -24.5950  -30.7840   21.9090 N   0  0  0  0  0  0  0  0  0  0  0  0
  -23.4560  -31.8790   23.5340 O   0  0  0  0  0  0  0  0  0  0  0  0
  -22.6850  -29.1630   22.3540 C   0  0  0  0  0  0  0  0  0  0  0  0
  -21.3610  -28.9780   22.2310 N   0  0  0  0  0  0  0  0  0  0  0  0
  -23.3720  -28.5500   23.1760 O   0  0  0  0  0  0  0  0  0  0  0  0
  -20.8690  -29.5270   21.5400 H   0  0  0  0  0  0  0  0  0  0  0  0
  -17.9810  -27.8280   22.7820 C   0  0  0  0  0  0  0  0  0  0  0  0
  -20.5460  -28.0500   23.0150 C   0  0  0  0  0  3  0  0  0  0  0  0
  -20.6200  -26.6180   22.4360 C   0  0  0  0  0  2  0  0  0  0  0  0
  -19.4980  -26.3120   21.4380 C   0  0  0  0  0  2  0  0  0  0  0  0
  -18.1290  -26.4760   22.1030 C   0  0  0  0  0  2  0  0  0  0  0  0
  -19.1170  -28.5740   23.1940 C   0  0  0  0  0  0  0  0  0  0  0  0
  -18.9240  -29.8400   23.7890 C   0  0  0  0  0  3  0  0  0  0  0  0
  -17.6290  -30.3610   23.9730 C   0  0  0  0  0  3  0  0  0  0  0  0
  -16.5080  -29.6120   23.5760 C   0  0  0  0  0  3  0  0  0  0  0  0
  -16.6840  -28.3460   22.9870 C   0  0  0  0  0  3  0  0  0  0  0  0
  -25.8210  -32.2460   23.6080 C   0  0  0  0  0  3  0  0  0  0  0  0
  -25.4800  -33.6170   24.0110 N   0  0  0  0  0  0  0  0  0  0  0  0
  -25.7750  -34.7130   23.2990 C   0  0  0  0  0  0  0  0  0  0  0  0
  -26.4320  -34.6770   22.2560 O   0  0  0  0  0  0  0  0  0  0  0  0
  -24.8970  -33.7170   24.8280 H   0  0  0  0  0  0  0  0  0  0  0  0
  -24.0050  -36.4800   23.0440 C   0  0  0  0  0  1  0  0  0  0  0  0
  -25.2580  -36.0640   23.8290 C   0  0  0  0  0  3  0  0  0  0  0  0
  -27.3730  -36.9570   24.7030 C   0  0  0  0  0  1  0  0  0  0  0  0
  -26.2660  -37.1440   23.7680 N   0  0  0  0  0  0  0  0  0  0  0  0
  -25.8410  -38.0460   23.9630 H   0  0  0  0  0  0  0  0  0  0  0  0
  -26.4060  -31.4330   24.8280 C   0  0  1  0  0  0  0  0  0  0  0  0
  -25.3430  -31.0410   25.8810 C   0  0  0  0  0  1  0  0  0  0  0  0
  -27.0890  -30.1340   24.3410 C   0  0  0  0  0  1  0  0  0  0  0  0
  -27.4990  -32.2670   25.5370 C   0  0  0  0  0  1  0  0  0  0  0  0
  -32.5050  -17.3260   20.3710 C   0  0  0  0  0  1  0  0  0  0  0  0
  -31.0210  -17.2470   19.9590 C   0  0  0  0  0  3  0  0  0  0  0  0
  -28.6920  -16.2910   20.4760 C   0  0  0  0  0  1  0  0  0  0  0  0
  -30.2770  -16.6820   22.3120 C   0  0  0  0  0  1  0  0  0  0  0  0
  -30.1930  -16.2160   20.8320 C   0  0  2  0  0  0  0  0  0  0  0  0
  -30.6930  -14.1260   19.4380 C   0  0  0  0  0  0  0  0  0  0  0  0
  -29.9530  -12.2180   18.0270 C   0  0  0  0  0  2  0  0  0  0  0  0
  -28.7880  -12.6050   17.0990 C   0  0  0  0  0  2  0  0  0  0  0  0
  -27.4380  -12.4220   17.8120 C   0  0  0  0  0  2  0  0  0  0  0  0
  -27.4200  -13.0980   19.2040 C   0  0  0  0  0  3  0  0  0  0  0  0
  -28.6690  -12.7130   20.0280 C   0  0  0  0  0  2  0  0  0  0  0  0
  -29.8770  -13.0420   19.2480 N   0  0  0  0  0  0  0  0  0  0  0  0
  -31.5050  -14.4750   18.5740 O   0  0  0  0  0  0  0  0  0  0  0  0
  -30.6170  -14.7680   20.6440 N   0  0  0  0  0  0  0  0  0  0  0  0
  -25.2180  -13.6670   20.4110 C   0  0  0  0  0  0  0  0  0  0  0  0
  -24.2330  -12.8750   20.9380 C   0  0  0  0  0  0  0  0  0  0  0  0
  -24.6580  -11.5270   20.7270 C   0  0  0  0  0  0  0  0  0  0  0  0
  -26.1840  -12.7990   19.9240 N   0  0  0  0  0  0  0  0  0  0  0  0
  -25.8590  -11.5030   20.1660 N   0  0  0  0  0  0  0  0  0  0  0  0
  -23.9610  -10.2580   20.9760 C   0  0  0  0  0  0  0  0  0  0  0  0
  -24.4550   -9.3120   21.9020 C   0  0  0  0  0  3  0  0  0  0  0  0
  -23.7510   -8.1100   22.1380 C   0  0  0  0  0  3  0  0  0  0  0  0
  -22.5470   -7.8440   21.4470 C   0  0  0  0  0  0  0  0  0  0  0  0
  -22.0730   -8.7800   20.5070 C   0  0  0  0  0  3  0  0  0  0  0  0
  -22.7760   -9.9720   20.2700 C   0  0  0  0  0  3  0  0  0  0  0  0
  -21.8150   -6.6900   21.5920 O   0  0  0  0  0  0  0  0  0  0  0  0
  -21.7490   -6.0280   22.7920 C   0  0  0  0  0  0  0  0  0  0  0  0
  -21.2870   -6.6600   23.9670 C   0  0  0  0  0  3  0  0  0  0  0  0
  -21.1620   -5.9240   25.1610 C   0  0  0  0  0  3  0  0  0  0  0  0
  -21.4930   -4.5550   25.1820 C   0  0  0  0  0  0  0  0  0  0  0  0
  -21.9490   -3.9210   24.0130 C   0  0  0  0  0  3  0  0  0  0  0  0
  -22.0730   -4.6550   22.8200 C   0  0  0  0  0  0  0  0  0  0  0  0
  -22.4900   -4.0340   21.6890 F   0  0  0  0  0  0  0  0  0  0  0  0
  -21.3700   -3.8450   26.3270 F   0  0  0  0  0  0  0  0  0  0  0  0
  -22.9260  -13.3370   21.5180 C   0  0  0  0  0  0  0  0  0  0  0  0
  -22.3910  -12.5980   22.4830 N   0  0  0  0  0  0  0  0  0  0  0  0
  -22.3950  -14.3850   21.1500 O   0  0  0  0  0  0  0  0  0  0  0  0
  -22.8340  -11.7450   22.7930 H   0  0  0  0  0  0  0  0  0  0  0  0
  -21.5270  -12.8820   22.9210 H   0  0  0  0  0  0  0  0  0  0  0  0
  -25.3620  -15.0460   20.2880 N   0  0  0  0  0  0  0  0  0  0  0  0
  -24.6500  -15.6990   20.6010 H   0  0  0  0  0  0  0  0  0  0  0  0
  -26.1570  -15.4980   19.8560 H   0  0  0  0  0  0  0  0  0  0  0  0
  -32.6840  -13.7450   21.6880 C   0  0  0  0  0  1  0  0  0  0  0  0
  -31.1700  -14.0080   21.7930 C   0  0  0  0  0  2  0  0  0  0  0  0
  2  3  2  0
  3 55  1  0
  3  1  1  0
  4  9  1  0
  4  1  2  0
  5  6  1  0
  6  2  1  0
  6  4  1  0
  9  8  1  6
  9  7  1  0
 10  9  1  0
 10 11  1  0
 11 12  1  0
 13 15  1  0
 13 12  1  0
 14 25  2  0
 15 20  1  0
 16 24  1  0
 16 26  1  0
 17 23  1  0
 17 19  1  0
 18 24  1  0
 19 18  1  0
 20 19  2  0
 21 22  1  0
 21 15  2  0
 22 17  2  0
 23 16  1  0
 24 14  1  0
 26 28  2  0
 27 26  1  0
 29 27  1  0
 30 39  2  0
 30 35  1  0
 31 27  1  0
 31 35  1  0
 32 31  1  0
 33 34  1  0
 33 32  1  0
 34 30  1  0
 35 36  2  0
 36 37  1  0
 38 37  2  0
 39 38  1  0
 40 14  1  0
 40 41  1  0
 40 50  1  0
 41 44  1  0
 42 46  1  0
 42 41  1  0
 43 42  2  0
 46 45  1  0
 48 46  1  0
 48 49  1  0
 48 47  1  0
 50 53  1  1
 50 51  1  0
 52 50  1  0
 55 54  1  0
 55 58  1  0
 58 56  1  6
 58 57  1  0
 59 67  1  0
 60 65  1  0
 61 62  1  0
 61 60  1  0
 63 62  1  0
 63 71  1  0
 63 64  1  0
 65 59  1  0
 65 64  1  0
 66 59  2  0
 67 58  1  0
 67 97  1  0
 68 69  2  0
 69 88  1  0
 70 69  1  0
 70 73  1  0
 71 72  1  0
 71 68  1  0
 72 70  2  0
 73 74  1  0
 74 75  2  0
 76 79  1  0
 76 75  1  0
 77 76  2  0
 78 77  1  0
 78 73  2  0
 79 80  1  0
 80 85  2  0
 80 81  1  0
 81 82  2  0
 82 83  1  0
 83 87  1  0
 84 83  2  0
 85 84  1  0
 86 85  1  0
 88 89  1  0
 89 91  1  0
 89 92  1  0
 90 88  2  0
 93 68  1  0
 93 94  1  0
 95 93  1  0
 96 97  1  0
M  ISO  4  12 101  13 101  59 100  67 100
M  END
>  <TORSDO>  (81) 
F 23

>  <SCORE>  (81) 
-10.365

>  <name>  (81) 
84

>  <ligand_id>  (81) 
84

>  <original_smiles>  (81) 
[H]c1c([H])c([H])c2c(c1[H])C([H])([H])C([H])([H])C([H])([H])C2([H])N([H])C(=O)C1([H])N(C(=O)C([H])(N([H])C(=O)C([H])(N([H])C([H])([H])[H])C([H])([H])[H])C(C([H])([H])[H])(C([H])([H])[H])C([H])([H])[H])C([H])([H])c2c([H])c(OC([H])([H])C([H])([H])C([H])([H])C(c3c([H])c(C([H])(C([H])([H])[H])C(N(C(=O)N4C([H])([H])C([H])([H])C([H])([H])C([H])(n5nc(-c6c([H])c([H])c(Oc7c([H])c([H])c(F)c([H])c7F)c([H])c6[H])c(C(=O)N([H])[H])c5N([H])[H])C4([H])[H])C([H])([H])C([H])([H])[H])(C([H])([H])[H])C([H])([H])[H])c([H])n3C([H])([H])[H])(C([H])([H])[H])C([H])([H])[H])c([H])c([H])c2C1([H])[H]

>  <smiles>  (81) 
[H]c1c([H])c([H])c2c(c1[H])C([H])([H])C([H])([H])C([H])([H])C2([H])N([H])C(=O)C1([H])N(C(=O)C([H])(N([H])C(=O)C([H])(N([H])C([H])([H])[H])C([H])([H])[H])C(C([H])([H])[H])(C([H])([H])[H])C([H])([H])[H])C([H])([H])c2c([H])c(OC([H])([H])C([H])([H])C([H])([H])C(c3c([H])c(C([H])(C([H])([H])[H])C(N(C(=O)N4C([H])([H])C([H])([H])C([H])([H])C([H])(n5nc(-c6c([H])c([H])c(Oc7c([H])c([H])c(F)c([H])c7F)c([H])c6[H])c(C(=O)N([H])[H])c5N([H])[H])C4([H])[H])C([H])([H])C([H])([H])[H])(C([H])([H])[H])C([H])([H])[H])c([H])n3C([H])([H])[H])(C([H])([H])[H])C([H])([H])[H])c([H])c([H])c2C1([H])[H]

$$$$
85:0:0
     RDKit          3D

 92100  0  0  1  0  0  0  0  0999 V2000
  -28.3540  -23.8510   19.1870 C   0  0  0  0  0  2  0  0  0  0  0  0
  -28.3920  -24.8970   20.1840 C   0  0  0  0  0  0  0  0  0  0  0  0
  -28.7920  -24.2640   21.4160 C   0  0  0  0  0  0  0  0  0  0  0  0
  -29.0370  -22.0230   20.5610 C   0  0  0  0  0  0  0  0  0  0  0  0
  -28.6560  -22.4880   19.3560 N   0  0  0  0  0  0  0  0  0  0  0  0
  -29.1070  -22.9120   21.5620 N   0  0  0  0  0  0  0  0  0  0  0  0
  -28.9650  -25.0700   22.7070 C   0  0  1  0  0  0  0  0  0  0  0  0
  -28.7620  -26.3800   22.5610 F   0  0  0  0  0  0  0  0  0  0  0  0
  -28.1020  -24.6270   23.6250 F   0  0  0  0  0  0  0  0  0  0  0  0
  -30.2020  -24.8970   23.1790 F   0  0  0  0  0  0  0  0  0  0  0  0
  -28.3380  -26.3600   19.9470 O   0  0  0  0  0  0  0  0  0  0  0  0
  -24.6950  -31.9460   23.1560 C   0  0  0  0  0  0  0  0  0  0  0  0
  -27.2290  -27.2820   20.0030 C   0  0  0  0  0  0  0  0  0  0  0  0
  -23.4620  -30.5610   21.5310 C   0  0  0  0  0  3  0  0  0  0  0  0
  -24.8830  -29.0030   20.0540 C   0  0  0  0  0  0  0  0  0  0  0  0
  -26.0070  -30.8460   21.3020 C   0  0  0  0  0  2  0  0  0  0  0  0
  -26.0730  -29.4580   20.6370 C   0  0  0  0  0  0  0  0  0  0  0  0
  -27.2430  -28.6100   20.5960 C   0  0  0  0  0  3  0  0  0  0  0  0
  -26.0120  -26.9220   19.3900 C   0  0  0  0  0  3  0  0  0  0  0  0
  -24.8650  -27.7500   19.4170 C   0  0  0  0  0  3  0  0  0  0  0  0
  -23.6530  -29.8970   20.1400 C   0  0  0  0  0  2  0  0  0  0  0  0
  -24.7430  -31.1400   22.0510 N   0  0  0  0  0  0  0  0  0  0  0  0
  -23.6220  -32.2160   23.7160 O   0  0  0  0  0  0  0  0  0  0  0  0
  -22.8160  -29.5390   22.5010 C   0  0  0  0  0  0  0  0  0  0  0  0
  -21.4920  -29.3400   22.3880 N   0  0  0  0  0  0  0  0  0  0  0  0
  -23.5110  -28.9280   23.3160 O   0  0  0  0  0  0  0  0  0  0  0  0
  -20.9850  -29.8860   21.7050 H   0  0  0  0  0  0  0  0  0  0  0  0
  -18.1470  -28.0510   22.9150 C   0  0  0  0  0  0  0  0  0  0  0  0
  -20.7000  -28.3830   23.1660 C   0  0  0  0  0  3  0  0  0  0  0  0
  -20.8370  -26.9530   22.5950 C   0  0  0  0  0  2  0  0  0  0  0  0
  -19.7370  -26.5980   21.5870 C   0  0  0  0  0  2  0  0  0  0  0  0
  -18.3560  -26.7060   22.2390 C   0  0  0  0  0  2  0  0  0  0  0  0
  -19.2470  -28.8450   23.3370 C   0  0  0  0  0  0  0  0  0  0  0  0
  -18.9970  -30.1010   23.9320 C   0  0  0  0  0  3  0  0  0  0  0  0
  -17.6800  -30.5640   24.1070 C   0  0  0  0  0  3  0  0  0  0  0  0
  -16.5950  -29.7680   23.7010 C   0  0  0  0  0  3  0  0  0  0  0  0
  -16.8290  -28.5130   23.1110 C   0  0  0  0  0  3  0  0  0  0  0  0
  -25.9850  -32.5850   23.7560 C   0  0  0  0  0  3  0  0  0  0  0  0
  -26.5500  -31.7890   24.9980 C   0  0  1  0  0  0  0  0  0  0  0  0
  -25.4940  -31.5130   26.0940 C   0  0  0  0  0  1  0  0  0  0  0  0
  -27.1380  -30.4290   24.5590 C   0  0  0  0  0  1  0  0  0  0  0  0
  -27.7100  -32.5830   25.6440 C   0  0  0  0  0  1  0  0  0  0  0  0
  -25.6640  -33.9690   24.1390 N   0  0  0  0  0  0  0  0  0  0  0  0
  -25.9510  -35.0520   23.4040 C   0  0  0  0  0  0  0  0  0  0  0  0
  -26.5800  -34.9920   22.3450 O   0  0  0  0  0  0  0  0  0  0  0  0
  -25.1000  -34.0880   24.9670 H   0  0  0  0  0  0  0  0  0  0  0  0
  -24.1900  -36.8360   23.1780 C   0  0  0  0  0  1  0  0  0  0  0  0
  -25.4640  -36.4190   23.9270 C   0  0  0  0  0  3  0  0  0  0  0  0
  -27.6140  -37.3110   24.7150 C   0  0  0  0  0  1  0  0  0  0  0  0
  -26.4790  -37.4900   23.8120 N   0  0  0  0  0  0  0  0  0  0  0  0
  -26.0660  -38.4000   23.9970 H   0  0  0  0  0  0  0  0  0  0  0  0
  -29.6450  -20.7400   20.8160 O   0  0  0  0  0  0  0  0  0  0  0  0
  -29.3350  -19.3070   20.3120 C   0  0  0  0  0  3  0  0  0  0  0  0
  -30.2880  -17.9580   20.7530 C   0  0  0  0  0  3  0  0  0  0  0  0
  -30.7290  -15.2180   20.6340 C   0  0  0  0  0  0  0  0  0  0  0  0
  -30.7060  -12.8290   19.7680 C   0  0  0  0  0  2  0  0  0  0  0  0
  -29.8450  -12.7110   18.4890 C   0  0  0  0  0  2  0  0  0  0  0  0
  -28.3650  -12.4850   18.8500 C   0  0  0  0  0  2  0  0  0  0  0  0
  -27.8750  -13.4430   19.9670 C   0  0  0  0  0  3  0  0  0  0  0  0
  -28.8660  -13.5260   21.1470 C   0  0  0  0  0  2  0  0  0  0  0  0
  -30.1530  -13.9470   20.5850 N   0  0  0  0  0  0  0  0  0  0  0  0
  -31.9490  -15.2860   20.4530 O   0  0  0  0  0  0  0  0  0  0  0  0
  -29.9330  -16.4040   20.6830 N   0  0  0  0  0  0  0  0  0  0  0  0
  -28.9450  -16.2090   20.7530 H   0  0  0  0  0  0  0  0  0  0  0  0
  -25.4570  -14.0020   20.5830 C   0  0  0  0  0  0  0  0  0  0  0  0
  -24.3840  -13.2190   20.9090 C   0  0  0  0  0  0  0  0  0  0  0  0
  -24.8640  -11.8740   20.9190 C   0  0  0  0  0  0  0  0  0  0  0  0
  -26.5180  -13.1330   20.4040 N   0  0  0  0  0  0  0  0  0  0  0  0
  -26.1690  -11.8490   20.6730 N   0  0  0  0  0  0  0  0  0  0  0  0
  -24.1410  -10.6060   21.0850 C   0  0  0  0  0  0  0  0  0  0  0  0
  -24.5310   -9.6550   22.0520 C   0  0  0  0  0  3  0  0  0  0  0  0
  -23.8070   -8.4530   22.2060 C   0  0  0  0  0  3  0  0  0  0  0  0
  -22.6790   -8.1940   21.3910 C   0  0  0  0  0  0  0  0  0  0  0  0
  -22.3080   -9.1340   20.4140 C   0  0  0  0  0  3  0  0  0  0  0  0
  -23.0330  -10.3280   20.2590 C   0  0  0  0  0  3  0  0  0  0  0  0
  -21.9300   -7.0450   21.4560 O   0  0  0  0  0  0  0  0  0  0  0  0
  -21.8190   -6.3210   22.6160 C   0  0  0  0  0  0  0  0  0  0  0  0
  -21.2840   -6.8810   23.7960 C   0  0  0  0  0  3  0  0  0  0  0  0
  -21.1230   -6.0810   24.9450 C   0  0  0  0  0  3  0  0  0  0  0  0
  -21.4870   -4.7220   24.9140 C   0  0  0  0  0  0  0  0  0  0  0  0
  -22.0150   -4.1600   23.7380 C   0  0  0  0  0  3  0  0  0  0  0  0
  -22.1780   -4.9570   22.5920 C   0  0  0  0  0  0  0  0  0  0  0  0
  -22.6670   -4.4070   21.4540 F   0  0  0  0  0  0  0  0  0  0  0  0
  -21.3270   -3.9500   26.0140 F   0  0  0  0  0  0  0  0  0  0  0  0
  -22.9710  -13.6850   21.1010 C   0  0  0  0  0  0  0  0  0  0  0  0
  -22.2080  -12.9980   21.9430 N   0  0  0  0  0  0  0  0  0  0  0  0
  -22.5490  -14.6950   20.5380 O   0  0  0  0  0  0  0  0  0  0  0  0
  -22.5600  -12.1830   22.4240 H   0  0  0  0  0  0  0  0  0  0  0  0
  -21.2560  -13.2930   22.1140 H   0  0  0  0  0  0  0  0  0  0  0  0
  -25.6120  -15.3720   20.3960 N   0  0  0  0  0  0  0  0  0  0  0  0
  -24.8270  -16.0120   20.4570 H   0  0  0  0  0  0  0  0  0  0  0  0
  -26.4570  -15.8180   20.0650 H   0  0  0  0  0  0  0  0  0  0  0  0
  1  5  1  0
  1  2  1  0
  2  3  2  0
  3  6  1  0
  3  7  1  0
  4 52  1  0
  4  6  2  0
  5  4  2  0
  7 10  1  1
  7  9  1  0
  8  7  1  0
 11 13  1  0
 11  2  1  0
 12 23  2  0
 13 18  1  0
 14 22  1  0
 14 24  1  0
 15 21  1  0
 15 17  1  0
 16 22  1  0
 17 16  1  0
 18 17  2  0
 19 20  1  0
 19 13  2  0
 20 15  2  0
 21 14  1  0
 22 12  1  0
 24 26  2  0
 25 24  1  0
 27 25  1  0
 28 37  2  0
 28 33  1  0
 29 25  1  0
 29 33  1  0
 30 29  1  0
 31 32  1  0
 31 30  1  0
 32 28  1  0
 33 34  2  0
 34 35  1  0
 36 35  2  0
 37 36  1  0
 38 12  1  0
 38 43  1  0
 38 39  1  0
 39 42  1  1
 39 40  1  0
 41 39  1  0
 43 46  1  0
 44 48  1  0
 44 43  1  0
 45 44  2  0
 48 47  1  0
 50 48  1  0
 50 51  1  0
 50 49  1  0
 53 54  2  0
 53 52  1  0
 55 63  1  0
 56 61  1  0
 57 58  1  0
 57 56  1  0
 59 58  1  0
 59 68  1  0
 59 60  1  0
 61 55  1  0
 61 60  1  0
 62 55  2  0
 63 54  1  0
 63 64  1  0
 65 66  2  0
 66 67  1  0
 66 85  1  0
 67 70  1  0
 68 65  1  0
 68 69  1  0
 69 67  2  0
 70 71  1  0
 71 72  2  0
 73 76  1  0
 73 72  1  0
 74 73  2  0
 75 74  1  0
 75 70  2  0
 76 77  1  0
 77 78  1  0
 78 79  2  0
 80 79  1  0
 80 84  1  0
 81 80  2  0
 82 77  2  0
 82 81  1  0
 83 82  1  0
 85 86  1  0
 86 89  1  0
 86 88  1  0
 87 85  2  0
 90 91  1  0
 90 65  1  0
 92 90  1  0
M  ISO  4   2 101  11 101  55 100  63 100
M  END
>  <TORSDO>  (82) 
F 20

>  <SCORE>  (82) 
-14.035

>  <name>  (82) 
85

>  <ligand_id>  (82) 
85

>  <original_smiles>  (82) 
[H]c1nc(OC([H])([H])C([H])([H])N([H])C(=O)N2C([H])([H])C([H])([H])C([H])([H])C([H])(n3nc(-c4c([H])c([H])c(Oc5c([H])c([H])c(F)c([H])c5F)c([H])c4[H])c(C(=O)N([H])[H])c3N([H])[H])C2([H])[H])nc(C(F)(F)F)c1Oc1c([H])c([H])c2c(c1[H])C([H])([H])N(C(=O)C([H])(N([H])C(=O)C([H])(N([H])C([H])([H])[H])C([H])([H])[H])C(C([H])([H])[H])(C([H])([H])[H])C([H])([H])[H])C([H])(C(=O)N([H])C1([H])c3c([H])c([H])c([H])c([H])c3C([H])([H])C([H])([H])C1([H])[H])C2([H])[H]

>  <smiles>  (82) 
[H]c1nc(OC([H])([H])C([H])([H])N([H])C(=O)N2C([H])([H])C([H])([H])C([H])([H])C([H])(n3nc(-c4c([H])c([H])c(Oc5c([H])c([H])c(F)c([H])c5F)c([H])c4[H])c(C(=O)N([H])[H])c3N([H])[H])C2([H])[H])nc(C(F)(F)F)c1Oc1c([H])c([H])c2c(c1[H])C([H])([H])N(C(=O)C([H])(N([H])C(=O)C([H])(N([H])C([H])([H])[H])C([H])([H])[H])C(C([H])([H])[H])(C([H])([H])[H])C([H])([H])[H])C([H])(C(=O)N([H])C1([H])c3c([H])c([H])c([H])c([H])c3C([H])([H])C([H])([H])C1([H])[H])C2([H])[H]

$$$$
86:0:0
     RDKit          3D

 94102  0  0  1  0  0  0  0  0999 V2000
  -29.8340  -22.9790   20.4910 C   0  0  0  0  0  3  0  0  0  0  0  0
  -30.3270  -23.9340   18.2210 C   0  0  0  0  0  1  0  0  0  0  0  0
  -30.8730  -25.3050   20.2080 C   0  0  0  0  0  1  0  0  0  0  0  0
  -29.8010  -24.3500   19.6390 C   0  0  2  0  0  0  0  0  0  0  0  0
  -28.0610  -25.5160   18.0840 C   0  0  0  0  0  1  0  0  0  0  0  0
  -27.2800  -24.1470   20.1400 C   0  0  0  0  0  1  0  0  0  0  0  0
  -28.3440  -25.1440   19.5700 C   0  0  1  0  0  0  0  0  0  0  0  0
  -28.2770  -26.4830   20.2460 O   0  0  0  0  0  0  0  0  0  0  0  0
  -24.6470  -31.9520   23.3350 C   0  0  0  0  0  0  0  0  0  0  0  0
  -27.1520  -27.3510   20.2070 C   0  0  0  0  0  0  0  0  0  0  0  0
  -23.4010  -30.5880   21.7020 C   0  0  0  0  0  3  0  0  0  0  0  0
  -24.8110  -29.0240   20.2750 C   0  0  0  0  0  0  0  0  0  0  0  0
  -25.9540  -30.8390   21.5180 C   0  0  0  0  0  2  0  0  0  0  0  0
  -25.9940  -29.4620   20.8760 C   0  0  0  0  0  0  0  0  0  0  0  0
  -27.1590  -28.6290   20.8560 C   0  0  0  0  0  3  0  0  0  0  0  0
  -25.9400  -27.0240   19.5430 C   0  0  0  0  0  3  0  0  0  0  0  0
  -24.7820  -27.8020   19.6120 C   0  0  0  0  0  3  0  0  0  0  0  0
  -23.6000  -29.9230   20.3210 C   0  0  0  0  0  2  0  0  0  0  0  0
  -24.6860  -31.1430   22.2400 N   0  0  0  0  0  0  0  0  0  0  0  0
  -23.5750  -32.2530   23.8770 O   0  0  0  0  0  0  0  0  0  0  0  0
  -22.7290  -29.5740   22.6590 C   0  0  0  0  0  0  0  0  0  0  0  0
  -21.4020  -29.3950   22.5170 N   0  0  0  0  0  0  0  0  0  0  0  0
  -23.3960  -28.9540   23.4910 O   0  0  0  0  0  0  0  0  0  0  0  0
  -20.9220  -29.9460   21.8190 H   0  0  0  0  0  0  0  0  0  0  0  0
  -18.0280  -28.1810   22.9600 C   0  0  0  0  0  0  0  0  0  0  0  0
  -20.5740  -28.4720   23.2920 C   0  0  0  0  0  3  0  0  0  0  0  0
  -20.7060  -27.0240   22.7640 C   0  0  0  0  0  2  0  0  0  0  0  0
  -19.6380  -26.6610   21.7300 C   0  0  0  0  0  2  0  0  0  0  0  0
  -18.2360  -26.8130   22.3300 C   0  0  0  0  0  2  0  0  0  0  0  0
  -19.1260  -28.9640   23.3990 C   0  0  0  0  0  0  0  0  0  0  0  0
  -18.8800  -30.2420   23.9500 C   0  0  0  0  0  3  0  0  0  0  0  0
  -17.5680  -30.7340   24.0680 C   0  0  0  0  0  3  0  0  0  0  0  0
  -16.4830  -29.9490   23.6450 C   0  0  0  0  0  3  0  0  0  0  0  0
  -16.7110  -28.6760   23.0940 C   0  0  0  0  0  3  0  0  0  0  0  0
  -25.9510  -32.5530   23.9390 C   0  0  0  0  0  3  0  0  0  0  0  0
  -25.6750  -33.9570   24.2700 N   0  0  0  0  0  0  0  0  0  0  0  0
  -26.0320  -35.0030   23.5140 C   0  0  0  0  0  0  0  0  0  0  0  0
  -26.7050  -34.8870   22.4870 O   0  0  0  0  0  0  0  0  0  0  0  0
  -25.0850  -34.1210   25.0720 H   0  0  0  0  0  0  0  0  0  0  0  0
  -24.3640  -36.8520   23.1380 C   0  0  0  0  0  1  0  0  0  0  0  0
  -25.5720  -36.3990   23.9720 C   0  0  0  0  0  3  0  0  0  0  0  0
  -27.7100  -37.2210   24.8620 C   0  0  0  0  0  1  0  0  0  0  0  0
  -26.6340  -37.4240   23.8960 N   0  0  0  0  0  0  0  0  0  0  0  0
  -26.2470  -38.3500   24.0500 H   0  0  0  0  0  0  0  0  0  0  0  0
  -26.4650  -31.7720   25.2110 C   0  0  1  0  0  0  0  0  0  0  0  0
  -25.3780  -31.5590   26.2880 C   0  0  0  0  0  1  0  0  0  0  0  0
  -27.0210  -30.3810   24.8210 C   0  0  0  0  0  1  0  0  0  0  0  0
  -27.6300  -32.5480   25.8690 C   0  0  0  0  0  1  0  0  0  0  0  0
  -31.0750  -21.9980   20.4130 C   0  0  0  0  0  3  0  0  0  0  0  0
  -31.2000  -19.4800   23.0360 C   0  0  0  0  0  2  0  0  0  0  0  0
  -30.9730  -20.6360   21.1570 C   0  0  0  0  0  0  0  0  0  0  0  0
  -30.8710  -18.3580   21.1340 C   0  0  0  0  0  0  0  0  0  0  0  0
  -31.1730  -20.6790   22.4650 N   0  0  0  0  0  0  0  0  0  0  0  0
  -31.0720  -18.2960   22.4440 N   0  0  0  0  0  0  0  0  0  0  0  0
  -30.7950  -19.5090   20.4400 N   0  0  0  0  0  2  0  0  0  0  0  0
  -30.7430  -17.0310   20.3090 C   0  0  0  0  0  2  0  0  0  0  0  0
  -31.1890  -14.5940   20.1480 C   0  0  0  0  0  0  0  0  0  0  0  0
  -30.7080  -12.4800   18.9310 C   0  0  0  0  0  2  0  0  0  0  0  0
  -29.7310  -12.7050   17.7570 C   0  0  0  0  0  2  0  0  0  0  0  0
  -28.2650  -12.6240   18.2230 C   0  0  0  0  0  2  0  0  0  0  0  0
  -28.0040  -13.4460   19.5100 C   0  0  0  0  0  3  0  0  0  0  0  0
  -29.0860  -13.1880   20.5790 C   0  0  0  0  0  2  0  0  0  0  0  0
  -30.4110  -13.4700   19.9890 N   0  0  0  0  0  0  0  0  0  0  0  0
  -32.2360  -14.7430   19.5110 O   0  0  0  0  0  0  0  0  0  0  0  0
  -30.6220  -15.4160   22.3370 C   0  0  0  0  0  1  0  0  0  0  0  0
  -30.6960  -15.6300   20.8870 N   0  0  0  0  0  0  0  0  0  0  0  0
  -25.6460  -14.1150   20.2850 C   0  0  0  0  0  0  0  0  0  0  0  0
  -24.5680  -13.3730   20.6870 C   0  0  0  0  0  0  0  0  0  0  0  0
  -24.9900  -12.0100   20.6410 C   0  0  0  0  0  0  0  0  0  0  0  0
  -26.6580  -13.2040   20.0250 N   0  0  0  0  0  0  0  0  0  0  0  0
  -26.2670  -11.9330   20.2990 N   0  0  0  0  0  0  0  0  0  0  0  0
  -24.2370  -10.7690   20.8510 C   0  0  0  0  0  0  0  0  0  0  0  0
  -24.6430   -9.8130   21.8090 C   0  0  0  0  0  3  0  0  0  0  0  0
  -23.8890   -8.6370   22.0110 C   0  0  0  0  0  3  0  0  0  0  0  0
  -22.7170   -8.4070   21.2520 C   0  0  0  0  0  0  0  0  0  0  0  0
  -22.3310   -9.3500   20.2840 C   0  0  0  0  0  3  0  0  0  0  0  0
  -23.0850  -10.5190   20.0800 C   0  0  0  0  0  3  0  0  0  0  0  0
  -21.9340   -7.2820   21.3640 O   0  0  0  0  0  0  0  0  0  0  0  0
  -21.8240   -6.5920   22.5420 C   0  0  0  0  0  0  0  0  0  0  0  0
  -21.3730   -7.2090   23.7310 C   0  0  0  0  0  3  0  0  0  0  0  0
  -21.2060   -6.4450   24.9030 C   0  0  0  0  0  3  0  0  0  0  0  0
  -21.4840   -5.0640   24.8890 C   0  0  0  0  0  0  0  0  0  0  0  0
  -21.9310   -4.4480   23.7070 C   0  0  0  0  0  3  0  0  0  0  0  0
  -22.0990   -5.2090   22.5390 C   0  0  0  0  0  0  0  0  0  0  0  0
  -22.5080   -4.6030   21.3970 F   0  0  0  0  0  0  0  0  0  0  0  0
  -21.3180   -4.3290   26.0130 F   0  0  0  0  0  0  0  0  0  0  0  0
  -23.1960  -13.8940   21.0010 C   0  0  0  0  0  0  0  0  0  0  0  0
  -22.4850  -13.2280   21.9070 N   0  0  0  0  0  0  0  0  0  0  0  0
  -22.7640  -14.9200   20.4820 O   0  0  0  0  0  0  0  0  0  0  0  0
  -22.8580  -12.4070   22.3550 H   0  0  0  0  0  0  0  0  0  0  0  0
  -21.5640  -13.5580   22.1630 H   0  0  0  0  0  0  0  0  0  0  0  0
  -25.8370  -15.4790   20.1080 N   0  0  0  0  0  0  0  0  0  0  0  0
  -25.0850  -16.1480   20.2480 H   0  0  0  0  0  0  0  0  0  0  0  0
  -26.6850  -15.8980   19.7410 H   0  0  0  0  0  0  0  0  0  0  0  0
  4  2  1  6
  4  3  1  0
  4  1  1  0
  7  5  1  6
  7  4  1  0
  7  6  1  0
  7  8  1  0
  9 20  2  0
 10  8  1  0
 10 15  1  0
 11 19  1  0
 11 21  1  0
 12 18  1  0
 12 14  1  0
 13 19  1  0
 14 13  1  0
 15 14  2  0
 16 17  1  0
 16 10  2  0
 17 12  2  0
 18 11  1  0
 19  9  1  0
 21 23  2  0
 22 21  1  0
 24 22  1  0
 25 34  2  0
 25 30  1  0
 26 22  1  0
 26 30  1  0
 27 26  1  0
 28 29  1  0
 28 27  1  0
 29 25  1  0
 30 31  2  0
 31 32  1  0
 33 32  2  0
 34 33  1  0
 35  9  1  0
 35 36  1  0
 35 45  1  0
 36 39  1  0
 37 41  1  0
 37 36  1  0
 38 37  2  0
 41 40  1  0
 43 41  1  0
 43 44  1  0
 43 42  1  0
 45 48  1  1
 45 46  1  0
 47 45  1  0
 49  1  2  0
 49 51  1  0
 51 53  2  0
 52 54  2  0
 53 50  1  0
 54 50  1  0
 55 52  1  0
 55 51  1  0
 56 66  1  0
 56 52  1  0
 57 66  1  0
 58 63  1  0
 59 60  1  0
 59 58  1  0
 61 60  1  0
 61 70  1  0
 61 62  1  0
 63 57  1  0
 63 62  1  0
 64 57  2  0
 66 65  1  0
 67 68  2  0
 68 87  1  0
 69 68  1  0
 69 72  1  0
 70 67  1  0
 70 71  1  0
 71 69  2  0
 72 73  1  0
 73 74  2  0
 75 78  1  0
 75 74  1  0
 76 75  2  0
 77 76  1  0
 77 72  2  0
 78 79  1  0
 79 80  1  0
 80 81  2  0
 82 81  1  0
 82 86  1  0
 83 82  2  0
 84 79  2  0
 84 83  1  0
 85 84  1  0
 87 88  1  0
 88 91  1  0
 88 90  1  0
 89 87  2  0
 92 93  1  0
 92 67  1  0
 94 92  1  0
M  ISO  4   7 101   8 101  57 100  66 100
M  END
>  <TORSDO>  (83) 
F 21

>  <SCORE>  (83) 
-12.611

>  <name>  (83) 
86

>  <ligand_id>  (83) 
86

>  <original_smiles>  (83) 
[H]c1nc(C([H])([H])N(C(=O)N2C([H])([H])C([H])([H])C([H])([H])C([H])(n3nc(-c4c([H])c([H])c(Oc5c([H])c([H])c(F)c([H])c5F)c([H])c4[H])c(C(=O)N([H])[H])c3N([H])[H])C2([H])[H])C([H])([H])[H])nc(C([H])([H])C([H])([H])C(C([H])([H])[H])(C([H])([H])[H])C(Oc2c([H])c([H])c3c(c2[H])C([H])([H])N(C(=O)C([H])(N([H])C(=O)C([H])(N([H])C([H])([H])[H])C([H])([H])[H])C(C([H])([H])[H])(C([H])([H])[H])C([H])([H])[H])C([H])(C(=O)N([H])C2([H])c4c([H])c([H])c([H])c([H])c4C([H])([H])C([H])([H])C2([H])[H])C3([H])[H])(C([H])([H])[H])C([H])([H])[H])n1

>  <smiles>  (83) 
[H]c1nc(C([H])([H])N(C(=O)N2C([H])([H])C([H])([H])C([H])([H])C([H])(n3nc(-c4c([H])c([H])c(Oc5c([H])c([H])c(F)c([H])c5F)c([H])c4[H])c(C(=O)N([H])[H])c3N([H])[H])C2([H])[H])C([H])([H])[H])nc(C([H])([H])C([H])([H])C(C([H])([H])[H])(C([H])([H])[H])C(Oc2c([H])c([H])c3c(c2[H])C([H])([H])N(C(=O)C([H])(N([H])C(=O)C([H])(N([H])C([H])([H])[H])C([H])([H])[H])C(C([H])([H])[H])(C([H])([H])[H])C([H])([H])[H])C([H])(C(=O)N([H])C2([H])c4c([H])c([H])c([H])c([H])c4C([H])([H])C([H])([H])C2([H])[H])C3([H])[H])(C([H])([H])[H])C([H])([H])[H])n1

$$$$
87:0:0
     RDKit          3D

 90 98  0  0  1  0  0  0  0  0999 V2000
  -28.1550  -23.0530   20.4710 C   0  0  0  0  0  2  0  0  0  0  0  0
  -30.1160  -21.3300   21.1030 C   0  0  0  0  0  2  0  0  0  0  0  0
  -29.5500  -19.3760   20.3620 C   0  0  0  0  0  0  0  0  0  0  0  0
  -30.5130  -20.0290   21.0990 N   0  0  0  0  0  0  0  0  0  0  0  0
  -28.5910  -20.3280   19.9780 N   0  0  0  0  0  2  0  0  0  0  0  0
  -28.9870  -21.6480   20.4450 N   0  0  0  0  0  0  0  0  0  0  0  0
  -29.2420  -17.7330   18.3700 C   0  0  0  0  0  1  0  0  0  0  0  0
  -29.8290  -17.8120   19.7890 C   0  0  0  0  0  0  0  0  0  0  0  0
  -30.4550  -15.1150   20.2560 C   0  0  0  0  0  0  0  0  0  0  0  0
  -30.3570  -12.7260   19.3530 C   0  0  0  0  0  2  0  0  0  0  0  0
  -29.4260  -12.6460   18.1190 C   0  0  0  0  0  2  0  0  0  0  0  0
  -27.9670  -12.4200   18.5540 C   0  0  0  0  0  2  0  0  0  0  0  0
  -27.5560  -13.3460   19.7270 C   0  0  0  0  0  3  0  0  0  0  0  0
  -28.6130  -13.3930   20.8530 C   0  0  0  0  0  2  0  0  0  0  0  0
  -29.8720  -13.8360   20.2400 N   0  0  0  0  0  0  0  0  0  0  0  0
  -31.6450  -15.1520   19.9190 O   0  0  0  0  0  0  0  0  0  0  0  0
  -29.6970  -16.3350   20.4270 N   0  0  0  0  0  4  0  0  0  0  0  0
  -28.7810  -16.1730   20.8160 H   0  0  0  0  0  0  0  0  0  0  0  0
  -25.1820  -13.9150   20.4780 C   0  0  0  0  0  0  0  0  0  0  0  0
  -24.1210  -13.1390   20.8540 C   0  0  0  0  0  0  0  0  0  0  0  0
  -24.5870  -11.7880   20.8240 C   0  0  0  0  0  0  0  0  0  0  0  0
  -26.2240  -13.0390   20.2340 N   0  0  0  0  0  0  0  0  0  0  0  0
  -25.8780  -11.7540   20.5080 N   0  0  0  0  0  0  0  0  0  0  0  0
  -23.8620  -10.5270   21.0180 C   0  0  0  0  0  0  0  0  0  0  0  0
  -24.2950   -9.5600   21.9530 C   0  0  0  0  0  3  0  0  0  0  0  0
  -23.5670   -8.3650   22.1360 C   0  0  0  0  0  3  0  0  0  0  0  0
  -22.3910   -8.1260   21.3840 C   0  0  0  0  0  0  0  0  0  0  0  0
  -21.9780   -9.0810   20.4390 C   0  0  0  0  0  3  0  0  0  0  0  0
  -22.7060  -10.2670   20.2530 C   0  0  0  0  0  3  0  0  0  0  0  0
  -21.6360   -6.9830   21.4770 O   0  0  0  0  0  0  0  0  0  0  0  0
  -21.5880   -6.2430   22.6310 C   0  0  0  0  0  0  0  0  0  0  0  0
  -21.1650   -6.8000   23.8570 C   0  0  0  0  0  3  0  0  0  0  0  0
  -21.0640   -5.9860   25.0020 C   0  0  0  0  0  3  0  0  0  0  0  0
  -21.3770   -4.6160   24.9230 C   0  0  0  0  0  0  0  0  0  0  0  0
  -21.7930   -4.0580   23.7020 C   0  0  0  0  0  3  0  0  0  0  0  0
  -21.8950   -4.8680   22.5580 C   0  0  0  0  0  0  0  0  0  0  0  0
  -22.2760   -4.3210   21.3790 F   0  0  0  0  0  0  0  0  0  0  0  0
  -21.2730   -3.8320   26.0220 F   0  0  0  0  0  0  0  0  0  0  0  0
  -22.7250  -13.6160   21.1260 C   0  0  0  0  0  0  0  0  0  0  0  0
  -21.9980  -12.9210   21.9940 N   0  0  0  0  0  0  0  0  0  0  0  0
  -22.2870  -14.6410   20.6040 O   0  0  0  0  0  0  0  0  0  0  0  0
  -22.3660  -12.0930   22.4380 H   0  0  0  0  0  0  0  0  0  0  0  0
  -21.0610  -13.2220   22.2180 H   0  0  0  0  0  0  0  0  0  0  0  0
  -25.3410  -15.2860   20.2960 N   0  0  0  0  0  0  0  0  0  0  0  0
  -24.5700  -15.9350   20.3990 H   0  0  0  0  0  0  0  0  0  0  0  0
  -26.1740  -15.7210   19.9220 H   0  0  0  0  0  0  0  0  0  0  0  0
  -28.2950  -24.6040   18.3430 C   0  0  0  0  0  1  0  0  0  0  0  0
  -30.1010  -24.6830   20.0200 C   0  0  0  0  0  1  0  0  0  0  0  0
  -28.5720  -24.6230   19.8570 C   0  0  2  0  0  0  0  0  0  0  0  0
  -28.2780  -26.1210   20.3560 O   0  0  0  0  0  0  0  0  0  0  0  0
  -24.6200  -31.8960   23.2000 C   0  0  0  0  0  0  0  0  0  0  0  0
  -27.1970  -27.0940   20.2120 C   0  0  0  0  0  0  0  0  0  0  0  0
  -23.4230  -30.4860   21.5700 C   0  0  0  0  0  3  0  0  0  0  0  0
  -24.8720  -28.8850   20.1560 C   0  0  0  0  0  0  0  0  0  0  0  0
  -25.9800  -30.7310   21.4120 C   0  0  0  0  0  2  0  0  0  0  0  0
  -26.0510  -29.3260   20.7680 C   0  0  0  0  0  0  0  0  0  0  0  0
  -27.2050  -28.4470   20.7760 C   0  0  0  0  0  3  0  0  0  0  0  0
  -25.9860  -26.7650   19.5670 C   0  0  0  0  0  3  0  0  0  0  0  0
  -24.8570  -27.6230   19.5400 C   0  0  0  0  0  3  0  0  0  0  0  0
  -23.6470  -29.7920   20.1980 C   0  0  0  0  0  2  0  0  0  0  0  0
  -24.6950  -31.0630   22.1150 N   0  0  0  0  0  0  0  0  0  0  0  0
  -23.5320  -32.1870   23.7230 O   0  0  0  0  0  0  0  0  0  0  0  0
  -22.7380  -29.4930   22.5440 C   0  0  0  0  0  0  0  0  0  0  0  0
  -21.4070  -29.3330   22.4240 N   0  0  0  0  0  0  0  0  0  0  0  0
  -23.4070  -28.8680   23.3700 O   0  0  0  0  0  0  0  0  0  0  0  0
  -20.9230  -29.8880   21.7320 H   0  0  0  0  0  0  0  0  0  0  0  0
  -18.0220  -28.1500   22.9470 C   0  0  0  0  0  0  0  0  0  0  0  0
  -20.5830  -28.4050   23.2030 C   0  0  0  0  0  3  0  0  0  0  0  0
  -20.6770  -26.9690   22.6370 C   0  0  0  0  0  2  0  0  0  0  0  0
  -19.5700  -26.6450   21.6280 C   0  0  0  0  0  2  0  0  0  0  0  0
  -18.1920  -26.7980   22.2760 C   0  0  0  0  0  2  0  0  0  0  0  0
  -19.1450  -28.9120   23.3680 C   0  0  0  0  0  0  0  0  0  0  0  0
  -18.9300  -30.1760   23.9590 C   0  0  0  0  0  3  0  0  0  0  0  0
  -17.6270  -30.6800   24.1300 C   0  0  0  0  0  3  0  0  0  0  0  0
  -16.5190  -29.9160   23.7230 C   0  0  0  0  0  3  0  0  0  0  0  0
  -16.7170  -28.6530   23.1370 C   0  0  0  0  0  3  0  0  0  0  0  0
  -25.8950  -32.5390   23.8270 C   0  0  0  0  0  3  0  0  0  0  0  0
  -26.4080  -31.7760   25.1100 C   0  0  1  0  0  0  0  0  0  0  0  0
  -25.3130  -31.5430   26.1780 C   0  0  0  0  0  1  0  0  0  0  0  0
  -26.9920  -30.3950   24.7310 C   0  0  0  0  0  1  0  0  0  0  0  0
  -27.5580  -32.5730   25.7710 C   0  0  0  0  0  1  0  0  0  0  0  0
  -25.5760  -33.9380   24.1610 N   0  0  0  0  0  0  0  0  0  0  0  0
  -25.9070  -34.9990   23.4130 C   0  0  0  0  0  0  0  0  0  0  0  0
  -26.5760  -34.9040   22.3810 O   0  0  0  0  0  0  0  0  0  0  0  0
  -24.9800  -34.0850   24.9620 H   0  0  0  0  0  0  0  0  0  0  0  0
  -24.1780  -36.7980   23.0760 C   0  0  0  0  0  1  0  0  0  0  0  0
  -25.4200  -36.3850   23.8830 C   0  0  0  0  0  3  0  0  0  0  0  0
  -27.5530  -37.2670   24.7200 C   0  0  0  0  0  1  0  0  0  0  0  0
  -26.4510  -37.4400   23.7780 N   0  0  0  0  0  0  0  0  0  0  0  0
  -26.0450  -38.3590   23.9310 H   0  0  0  0  0  0  0  0  0  0  0  0
  3  4  2  0
  4  2  1  0
  5  3  1  0
  5  6  1  0
  6  1  1  0
  6  2  1  0
  7  8  1  0
  8  3  1  0
  8 17  2  3
  9 17  1  0
 10 15  1  0
 11 12  1  0
 11 10  1  0
 13 12  1  0
 13 22  1  0
 13 14  1  0
 15  9  1  0
 15 14  1  0
 16  9  2  0
 17 18  1  0
 19 20  2  0
 20 39  1  0
 21 20  1  0
 21 24  1  0
 22 19  1  0
 22 23  1  0
 23 21  2  0
 24 25  1  0
 25 26  2  0
 27 30  1  0
 27 26  1  0
 28 27  2  0
 29 28  1  0
 29 24  2  0
 30 31  1  0
 31 32  1  0
 32 33  2  0
 34 33  1  0
 34 38  1  0
 35 34  2  0
 36 31  2  0
 36 35  1  0
 37 36  1  0
 39 40  1  0
 40 43  1  0
 40 42  1  0
 41 39  2  0
 44 45  1  0
 44 19  1  0
 46 44  1  0
 49 47  1  6
 49 48  1  0
 49 50  1  0
 49  1  1  0
 51 62  2  0
 52 50  1  0
 52 57  1  0
 53 61  1  0
 53 63  1  0
 54 60  1  0
 54 56  1  0
 55 61  1  0
 56 57  2  0
 56 55  1  0
 58 52  2  0
 59 58  1  0
 59 54  2  0
 60 53  1  0
 61 51  1  0
 63 65  2  0
 64 63  1  0
 66 64  1  0
 67 76  2  0
 67 72  1  0
 68 64  1  0
 68 72  1  0
 69 68  1  0
 70 71  1  0
 70 69  1  0
 71 67  1  0
 72 73  2  0
 73 74  1  0
 75 74  2  0
 76 75  1  0
 77 51  1  0
 77 82  1  0
 77 78  1  0
 78 81  1  1
 78 79  1  0
 80 78  1  0
 82 85  1  0
 83 87  1  0
 83 82  1  0
 84 83  2  0
 87 86  1  0
 89 87  1  0
 89 90  1  0
 89 88  1  0
M  ISO  4   9 100  17 100  49 101  50 101
M  END
>  <TORSDO>  (84) 
F 19

>  <SCORE>  (84) 
-14.893

>  <name>  (84) 
87

>  <ligand_id>  (84) 
87

>  <original_smiles>  (84) 
[H]c1c([H])c([H])c2c(c1[H])C([H])([H])C([H])([H])C([H])([H])C2([H])N([H])C(=O)C1([H])N(C(=O)C([H])(N([H])C(=O)C([H])(N([H])C([H])([H])[H])C([H])([H])[H])C(C([H])([H])[H])(C([H])([H])[H])C([H])([H])[H])C([H])([H])c2c([H])c(OC(C([H])([H])[H])(C([H])([H])[H])C([H])([H])n3nc(C([H])(N([H])C(=O)N4C([H])([H])C([H])([H])C([H])([H])C([H])(n5nc(-c6c([H])c([H])c(Oc7c([H])c([H])c(F)c([H])c7F)c([H])c6[H])c(C(=O)N([H])[H])c5N([H])[H])C4([H])[H])C([H])([H])[H])nc3[H])c([H])c([H])c2C1([H])[H]

>  <smiles>  (84) 
[H]c1c([H])c([H])c2c(c1[H])C([H])([H])C([H])([H])C([H])([H])C2([H])N([H])C(=O)C1([H])N(C(=O)C([H])(N([H])C(=O)C([H])(N([H])C([H])([H])[H])C([H])([H])[H])C(C([H])([H])[H])(C([H])([H])[H])C([H])([H])[H])C([H])([H])c2c([H])c(OC(C([H])([H])[H])(C([H])([H])[H])C([H])([H])n3nc(C([H])(N([H])C(=O)N4C([H])([H])C([H])([H])C([H])([H])C([H])(n5nc(-c6c([H])c([H])c(Oc7c([H])c([H])c(F)c([H])c7F)c([H])c6[H])c(C(=O)N([H])[H])c5N([H])[H])C4([H])[H])C([H])([H])[H])nc3[H])c([H])c([H])c2C1([H])[H]

$$$$
88:0:0
     RDKit          3D

 95103  0  0  1  0  0  0  0  0999 V2000
  -32.5630  -17.4870   20.3670 C   0  0  0  0  0  3  0  0  0  0  0  0
  -32.4480  -19.4070   19.5100 C   0  0  0  0  0  3  0  0  0  0  0  0
  -31.2180  -17.6330   20.0400 C   0  0  0  0  0  0  0  0  0  0  0  0
  -33.3330  -18.5760   20.0130 N   0  0  0  0  0  0  0  0  0  0  0  0
  -31.1590  -19.0100   19.5030 N   0  0  0  0  0  0  0  0  0  0  0  0
  -29.0540  -19.6010   18.0280 C   0  0  0  0  0  1  0  0  0  0  0  0
  -30.2200  -20.0670   18.9190 C   0  0  0  0  0  3  0  0  0  0  0  0
  -29.8690  -21.3470   19.8370 C   0  0  0  0  0  3  0  0  0  0  0  0
  -29.4170  -22.7050   19.1070 C   0  0  0  0  0  3  0  0  0  0  0  0
  -29.1770  -24.0550   19.9400 C   0  0  0  0  0  3  0  0  0  0  0  0
  -28.8180  -25.3920   19.1340 C   0  0  0  0  0  3  0  0  0  0  0  0
  -28.6520  -26.6900   19.8520 O   0  0  0  0  0  0  0  0  0  0  0  0
  -24.5730  -31.6980   23.1150 C   0  0  0  0  0  0  0  0  0  0  0  0
  -27.4690  -27.4600   19.8200 C   0  0  0  0  0  0  0  0  0  0  0  0
  -23.4770  -30.3530   21.3630 C   0  0  0  0  0  3  0  0  0  0  0  0
  -25.0270  -28.9750   19.8720 C   0  0  0  0  0  0  0  0  0  0  0  0
  -26.0030  -30.7980   21.2560 C   0  0  0  0  0  2  0  0  0  0  0  0
  -26.1630  -29.4690   20.5240 C   0  0  0  0  0  0  0  0  0  0  0  0
  -27.3820  -28.7230   20.4880 C   0  0  0  0  0  3  0  0  0  0  0  0
  -26.2940  -27.0150   19.1650 C   0  0  0  0  0  3  0  0  0  0  0  0
  -25.0950  -27.7530   19.1900 C   0  0  0  0  0  3  0  0  0  0  0  0
  -23.7550  -29.7970   19.9440 C   0  0  0  0  0  2  0  0  0  0  0  0
  -24.7020  -30.9630   21.9700 N   0  0  0  0  0  0  0  0  0  0  0  0
  -23.4650  -31.8880   23.6370 O   0  0  0  0  0  0  0  0  0  0  0  0
  -22.8480  -29.2380   22.2330 C   0  0  0  0  0  0  0  0  0  0  0  0
  -21.5200  -29.0570   22.1170 N   0  0  0  0  0  0  0  0  0  0  0  0
  -23.5530  -28.5470   22.9740 O   0  0  0  0  0  0  0  0  0  0  0  0
  -21.0100  -29.6770   21.5080 H   0  0  0  0  0  0  0  0  0  0  0  0
  -18.1640  -27.8050   22.6250 C   0  0  0  0  0  0  0  0  0  0  0  0
  -20.7300  -28.0400   22.8160 C   0  0  0  0  0  3  0  0  0  0  0  0
  -20.8090  -26.6760   22.0860 C   0  0  0  0  0  2  0  0  0  0  0  0
  -19.6650  -26.4640   21.0930 C   0  0  0  0  0  2  0  0  0  0  0  0
  -18.3170  -26.5260   21.8180 C   0  0  0  0  0  2  0  0  0  0  0  0
  -19.2990  -28.5220   23.0860 C   0  0  0  0  0  0  0  0  0  0  0  0
  -19.1090  -29.7130   23.8210 C   0  0  0  0  0  3  0  0  0  0  0  0
  -17.8140  -30.1910   24.0930 C   0  0  0  0  0  3  0  0  0  0  0  0
  -16.6910  -29.4720   23.6440 C   0  0  0  0  0  3  0  0  0  0  0  0
  -16.8680  -28.2800   22.9150 C   0  0  0  0  0  3  0  0  0  0  0  0
  -25.8060  -32.3550   23.8080 C   0  0  0  0  0  3  0  0  0  0  0  0
  -26.2790  -31.5780   25.0960 C   0  0  1  0  0  0  0  0  0  0  0  0
  -25.1470  -31.3010   26.1150 C   0  0  0  0  0  1  0  0  0  0  0  0
  -26.9090  -30.2200   24.7110 C   0  0  0  0  0  1  0  0  0  0  0  0
  -27.3830  -32.3860   25.8220 C   0  0  0  0  0  1  0  0  0  0  0  0
  -25.4480  -33.7410   24.1410 N   0  0  0  0  0  0  0  0  0  0  0  0
  -25.7780  -34.8120   23.4040 C   0  0  0  0  0  0  0  0  0  0  0  0
  -26.4910  -34.7360   22.3990 O   0  0  0  0  0  0  0  0  0  0  0  0
  -24.8340  -33.8730   24.9310 H   0  0  0  0  0  0  0  0  0  0  0  0
  -24.0120  -36.5560   23.0010 C   0  0  0  0  0  1  0  0  0  0  0  0
  -25.2350  -36.1820   23.8550 C   0  0  0  0  0  3  0  0  0  0  0  0
  -27.3090  -37.1240   24.7720 C   0  0  0  0  0  1  0  0  0  0  0  0
  -26.2410  -37.2660   23.7860 N   0  0  0  0  0  0  0  0  0  0  0  0
  -25.8030  -38.1730   23.9260 H   0  0  0  0  0  0  0  0  0  0  0  0
  -30.3510  -16.1560   21.9040 C   0  0  0  0  0  1  0  0  0  0  0  0
  -30.2140  -16.4250   20.3710 C   0  0  2  0  0  0  0  0  0  0  0  0
  -30.6930  -14.9730   19.7640 C   0  0  0  0  0  0  0  0  0  0  0  0
  -30.4990  -12.6160   18.9250 C   0  0  0  0  0  2  0  0  0  0  0  0
  -29.4810  -12.5440   17.7660 C   0  0  0  0  0  2  0  0  0  0  0  0
  -28.0550  -12.3280   18.3030 C   0  0  0  0  0  2  0  0  0  0  0  0
  -27.7170  -13.3050   19.4590 C   0  0  0  0  0  3  0  0  0  0  0  0
  -28.8510  -13.2950   20.5130 C   0  0  0  0  0  2  0  0  0  0  0  0
  -30.0810  -13.7260   19.8300 N   0  0  0  0  0  0  0  0  0  0  0  0
  -31.7730  -14.9940   19.1660 O   0  0  0  0  0  0  0  0  0  0  0  0
  -25.4020  -13.9100   20.3880 C   0  0  0  0  0  0  0  0  0  0  0  0
  -24.3520  -13.1420   20.8150 C   0  0  0  0  0  0  0  0  0  0  0  0
  -24.7770  -11.7840   20.6820 C   0  0  0  0  0  0  0  0  0  0  0  0
  -26.4030  -13.0220   20.0340 N   0  0  0  0  0  0  0  0  0  0  0  0
  -26.0370  -11.7350   20.2640 N   0  0  0  0  0  0  0  0  0  0  0  0
  -24.0420  -10.5280   20.8740 C   0  0  0  0  0  0  0  0  0  0  0  0
  -24.4580   -9.5660   21.8190 C   0  0  0  0  0  3  0  0  0  0  0  0
  -23.7210   -8.3730   21.9980 C   0  0  0  0  0  3  0  0  0  0  0  0
  -22.5570   -8.1360   21.2320 C   0  0  0  0  0  0  0  0  0  0  0  0
  -22.1610   -9.0870   20.2760 C   0  0  0  0  0  3  0  0  0  0  0  0
  -22.8950  -10.2700   20.0960 C   0  0  0  0  0  3  0  0  0  0  0  0
  -21.7930   -6.9970   21.3250 O   0  0  0  0  0  0  0  0  0  0  0  0
  -21.6340   -6.3320   22.5130 C   0  0  0  0  0  0  0  0  0  0  0  0
  -21.0630   -6.9560   23.6450 C   0  0  0  0  0  3  0  0  0  0  0  0
  -20.8560   -6.2170   24.8260 C   0  0  0  0  0  3  0  0  0  0  0  0
  -21.2070   -4.8550   24.8770 C   0  0  0  0  0  0  0  0  0  0  0  0
  -21.7650   -4.2280   23.7490 C   0  0  0  0  0  3  0  0  0  0  0  0
  -21.9780   -4.9640   22.5720 C   0  0  0  0  0  0  0  0  0  0  0  0
  -22.5000   -4.3520   21.4820 F   0  0  0  0  0  0  0  0  0  0  0  0
  -20.9990   -4.1430   26.0100 F   0  0  0  0  0  0  0  0  0  0  0  0
  -22.9950  -13.6330   21.2180 C   0  0  0  0  0  0  0  0  0  0  0  0
  -22.3380  -12.9270   22.1330 N   0  0  0  0  0  0  0  0  0  0  0  0
  -22.5300  -14.6740   20.7600 O   0  0  0  0  0  0  0  0  0  0  0  0
  -22.7280  -12.0800   22.5200 H   0  0  0  0  0  0  0  0  0  0  0  0
  -21.4370  -13.2480   22.4500 H   0  0  0  0  0  0  0  0  0  0  0  0
  -25.5910  -15.2810   20.2450 N   0  0  0  0  0  0  0  0  0  0  0  0
  -24.8230  -15.9230   20.3970 H   0  0  0  0  0  0  0  0  0  0  0  0
  -26.2660  -15.6280   19.5790 H   0  0  0  0  0  0  0  0  0  0  0  0
  -28.7340  -16.8290   20.1270 C   0  0  0  0  0  2  0  0  0  0  0  0
  -28.4040  -18.1260   20.7700 N   0  0  0  0  0  4  0  0  0  0  0  0
  -28.6400  -18.0950   21.7460 H   0  0  0  0  0  0  0  0  0  0  0  0
  -27.4220  -18.3240   20.7030 H   0  0  0  0  0  0  0  0  0  0  0  0
  -28.9280  -18.8780   20.3490 H   0  0  0  0  0  0  0  0  0  0  0  0
  2  4  2  0
  3  1  2  0
  3 54  1  0
  4  1  1  0
  5  2  1  0
  5  3  1  0
  7  6  1  0
  7  5  1  0
  7  8  1  0
  9  8  2  0
  9 10  1  0
 11 12  1  0
 11 10  2  0
 13 24  2  0
 14 12  1  0
 14 19  1  0
 15 23  1  0
 15 25  1  0
 16 22  1  0
 16 18  1  0
 17 23  1  0
 18 17  1  0
 19 18  2  0
 20 21  1  0
 20 14  2  0
 21 16  2  0
 22 15  1  0
 23 13  1  0
 25 27  2  0
 26 25  1  0
 28 26  1  0
 29 38  2  0
 29 34  1  0
 30 26  1  0
 30 34  1  0
 31 30  1  0
 32 33  1  0
 32 31  1  0
 33 29  1  0
 34 35  2  0
 35 36  1  0
 37 36  2  0
 38 37  1  0
 39 13  1  0
 39 44  1  0
 39 40  1  0
 40 43  1  1
 40 41  1  0
 42 40  1  0
 44 47  1  0
 45 49  1  0
 45 44  1  0
 46 45  2  0
 49 48  1  0
 51 49  1  0
 51 52  1  0
 51 50  1  0
 54 53  1  1
 55 61  1  0
 55 54  1  0
 56 61  1  0
 57 58  1  0
 57 56  1  0
 59 58  1  0
 59 66  1  0
 59 60  1  0
 61 60  1  0
 62 55  2  0
 63 64  2  0
 64 83  1  0
 65 64  1  0
 65 68  1  0
 66 67  1  0
 66 63  1  0
 67 65  2  0
 68 69  1  0
 69 70  2  0
 71 74  1  0
 71 70  1  0
 72 71  2  0
 73 72  1  0
 73 68  2  0
 74 75  1  0
 75 80  2  0
 75 76  1  0
 76 77  2  0
 77 78  1  0
 78 82  1  0
 79 78  2  0
 80 79  1  0
 81 80  1  0
 83 84  1  0
 84 87  1  0
 84 86  1  0
 85 83  2  0
 88 63  1  0
 88 89  1  0
 90 88  1  0
 91 54  1  0
 91 92  1  0
 92 93  1  0
 94 92  1  0
 95 92  1  0
M  ISO  4  11 101  12 101  54 100  55 100
M  END
>  <TORSDO>  (85) 
F 24

>  <SCORE>  (85) 
-12.294

>  <name>  (85) 
88

>  <ligand_id>  (85) 
88

>  <original_smiles>  (85) 
[H]c1nc([H])n(C([H])(C([H])([H])[H])C([H])([H])C([H])([H])C([H])([H])C([H])([H])Oc2c([H])c([H])c3c(c2[H])C([H])([H])N(C(=O)C([H])(N([H])C(=O)C([H])(N([H])C([H])([H])[H])C([H])([H])[H])C(C([H])([H])[H])(C([H])([H])[H])C([H])([H])[H])C([H])(C(=O)N([H])C2([H])c4c([H])c([H])c([H])c([H])c4C([H])([H])C([H])([H])C2([H])[H])C3([H])[H])c1C(C(=O)N1C([H])([H])C([H])([H])C([H])([H])C([H])(n2nc(-c3c([H])c([H])c(Oc4c([H])c([H])c(F)c([H])c4F)c([H])c3[H])c(C(=O)N([H])[H])c2N([H])[H])C1([H])[H])(C([H])([H])[H])C([H])([H])[N+]([H])([H])[H]

>  <smiles>  (85) 
[H]c1nc([H])n(C([H])(C([H])([H])[H])C([H])([H])C([H])([H])C([H])([H])C([H])([H])Oc2c([H])c([H])c3c(c2[H])C([H])([H])N(C(=O)C([H])(N([H])C(=O)C([H])(N([H])C([H])([H])[H])C([H])([H])[H])C(C([H])([H])[H])(C([H])([H])[H])C([H])([H])[H])C([H])(C(=O)N([H])C2([H])c4c([H])c([H])c([H])c([H])c4C([H])([H])C([H])([H])C2([H])[H])C3([H])[H])c1C(C(=O)N1C([H])([H])C([H])([H])C([H])([H])C([H])(n2nc(-c3c([H])c([H])c(Oc4c([H])c([H])c(F)c([H])c4F)c([H])c3[H])c(C(=O)N([H])[H])c2N([H])[H])C1([H])[H])(C([H])([H])[H])C([H])([H])[N+]([H])([H])[H]

$$$$
89:0:0
     RDKit          3D

 96104  0  0  1  0  0  0  0  0999 V2000
  -29.2150  -17.2570   19.1340 C   0  0  0  0  0  3  0  0  0  0  0  0
  -29.0370  -18.6010   18.9000 C   0  0  0  0  0  0  0  0  0  0  0  0
  -29.7770  -19.2320   19.9620 C   0  0  0  0  0  0  0  0  0  0  0  0
  -30.2830  -18.3030   20.7890 N   0  0  0  0  0  0  0  0  0  0  0  0
  -29.9630  -17.0700   20.2750 N   0  0  0  0  0  0  0  0  0  0  0  0
  -29.1690  -19.7160   16.6460 C   0  0  0  0  0  1  0  0  0  0  0  0
  -27.3430  -20.3550   18.2510 C   0  0  0  0  0  1  0  0  0  0  0  0
  -27.2950  -18.1320   17.1220 C   0  0  0  0  0  1  0  0  0  0  0  0
  -28.2250  -19.2010   17.7490 C   0  0  2  0  0  0  0  0  0  0  0  0
  -31.3410  -15.9520   22.0400 C   0  0  0  0  0  1  0  0  0  0  0  0
  -28.9110  -15.6160   21.8820 C   0  0  0  0  0  1  0  0  0  0  0  0
  -30.1810  -15.7910   21.0270 C   0  0  1  0  0  0  0  0  0  0  0  0
  -30.6110  -14.5770   20.0770 C   0  0  0  0  0  0  0  0  0  0  0  0
  -30.2320  -12.5270   18.7200 C   0  0  0  0  0  2  0  0  0  0  0  0
  -29.1710  -12.8070   17.6330 C   0  0  0  0  0  2  0  0  0  0  0  0
  -27.7370  -12.6230   18.1720 C   0  0  0  0  0  2  0  0  0  0  0  0
  -27.5330  -13.2970   19.5540 C   0  0  0  0  0  3  0  0  0  0  0  0
  -28.6870  -12.9130   20.5000 C   0  0  0  0  0  2  0  0  0  0  0  0
  -29.9360  -13.3920   19.8870 N   0  0  0  0  0  0  0  0  0  0  0  0
  -31.6470  -14.7680   19.4250 O   0  0  0  0  0  0  0  0  0  0  0  0
  -25.1950  -13.8470   20.4650 C   0  0  0  0  0  0  0  0  0  0  0  0
  -24.1690  -13.0500   20.8840 C   0  0  0  0  0  0  0  0  0  0  0  0
  -24.6410  -11.7050   20.7640 C   0  0  0  0  0  0  0  0  0  0  0  0
  -26.2280  -12.9890   20.1210 N   0  0  0  0  0  0  0  0  0  0  0  0
  -25.9020  -11.6930   20.3520 N   0  0  0  0  0  0  0  0  0  0  0  0
  -23.9480  -10.4280   20.9600 C   0  0  0  0  0  0  0  0  0  0  0  0
  -24.4070   -9.4730   21.8950 C   0  0  0  0  0  3  0  0  0  0  0  0
  -23.7120   -8.2590   22.0780 C   0  0  0  0  0  3  0  0  0  0  0  0
  -22.5430   -7.9920   21.3260 C   0  0  0  0  0  0  0  0  0  0  0  0
  -22.1070   -8.9320   20.3770 C   0  0  0  0  0  3  0  0  0  0  0  0
  -22.8040  -10.1380   20.1920 C   0  0  0  0  0  3  0  0  0  0  0  0
  -21.8180   -6.8290   21.4160 O   0  0  0  0  0  0  0  0  0  0  0  0
  -21.7080   -6.1420   22.5950 C   0  0  0  0  0  0  0  0  0  0  0  0
  -21.1510   -6.7300   23.7530 C   0  0  0  0  0  3  0  0  0  0  0  0
  -20.9930   -5.9640   24.9250 C   0  0  0  0  0  3  0  0  0  0  0  0
  -21.3830   -4.6110   24.9410 C   0  0  0  0  0  0  0  0  0  0  0  0
  -21.9330   -4.0240   23.7890 C   0  0  0  0  0  3  0  0  0  0  0  0
  -22.0930   -4.7860   22.6190 C   0  0  0  0  0  0  0  0  0  0  0  0
  -22.6050   -4.2090   21.5060 F   0  0  0  0  0  0  0  0  0  0  0  0
  -21.2230   -3.8730   26.0640 F   0  0  0  0  0  0  0  0  0  0  0  0
  -22.7950  -13.5000   21.2880 C   0  0  0  0  0  0  0  0  0  0  0  0
  -22.1500  -12.7660   22.1840 N   0  0  0  0  0  0  0  0  0  0  0  0
  -22.3060  -14.5380   20.8440 O   0  0  0  0  0  0  0  0  0  0  0  0
  -22.5690  -11.9340   22.5720 H   0  0  0  0  0  0  0  0  0  0  0  0
  -21.2270  -13.0450   22.4900 H   0  0  0  0  0  0  0  0  0  0  0  0
  -25.3320  -15.2280   20.3380 N   0  0  0  0  0  0  0  0  0  0  0  0
  -24.5860  -15.8690   20.5830 H   0  0  0  0  0  0  0  0  0  0  0  0
  -26.1770  -15.6990   20.0460 H   0  0  0  0  0  0  0  0  0  0  0  0
  -30.1010  -20.7250   20.2110 C   0  0  0  0  0  3  0  0  0  0  0  0
  -29.1000  -21.5550   21.0950 C   0  0  0  0  0  3  0  0  0  0  0  0
  -28.7680  -23.2300   22.9470 C   0  0  0  0  0  1  0  0  0  0  0  0
  -30.9860  -23.1150   21.8320 C   0  0  0  0  0  1  0  0  0  0  0  0
  -29.4670  -23.0310   21.5780 C   0  0  1  0  0  0  0  0  0  0  0  0
  -29.0160  -24.2110   20.6160 C   0  0  0  0  0  3  0  0  0  0  0  0
  -28.9810  -25.6560   21.2550 C   0  0  0  0  0  3  0  0  0  0  0  0
  -28.9520  -26.8150   20.3870 O   0  0  0  0  0  0  0  0  0  0  0  0
  -24.7370  -31.8440   23.3010 C   0  0  0  0  0  0  0  0  0  0  0  0
  -27.7700  -27.5340   20.3670 C   0  0  0  0  0  0  0  0  0  0  0  0
  -23.7050  -30.4000   21.5780 C   0  0  0  0  0  3  0  0  0  0  0  0
  -25.3170  -28.9460   20.2360 C   0  0  0  0  0  0  0  0  0  0  0  0
  -26.2200  -30.8790   21.5390 C   0  0  0  0  0  2  0  0  0  0  0  0
  -26.4140  -29.5160   20.8980 C   0  0  0  0  0  0  0  0  0  0  0  0
  -27.6490  -28.8190   20.9550 C   0  0  0  0  0  3  0  0  0  0  0  0
  -26.6560  -26.9830   19.7050 C   0  0  0  0  0  3  0  0  0  0  0  0
  -25.4340  -27.6800   19.6360 C   0  0  0  0  0  3  0  0  0  0  0  0
  -24.0340  -29.7500   20.2090 C   0  0  0  0  0  2  0  0  0  0  0  0
  -24.9020  -31.0560   22.1990 N   0  0  0  0  0  0  0  0  0  0  0  0
  -23.6110  -32.0570   23.7740 O   0  0  0  0  0  0  0  0  0  0  0  0
  -23.0460  -29.3380   22.4890 C   0  0  0  0  0  0  0  0  0  0  0  0
  -21.7340  -29.1210   22.3060 N   0  0  0  0  0  0  0  0  0  0  0  0
  -23.7130  -28.7160   23.3190 O   0  0  0  0  0  0  0  0  0  0  0  0
  -21.2530  -29.6810   21.6150 H   0  0  0  0  0  0  0  0  0  0  0  0
  -18.3760  -27.8260   22.6480 C   0  0  0  0  0  0  0  0  0  0  0  0
  -20.9150  -28.1410   23.0190 C   0  0  0  0  0  3  0  0  0  0  0  0
  -21.0760  -26.7290   22.4100 C   0  0  0  0  0  2  0  0  0  0  0  0
  -20.0190  -26.4080   21.3490 C   0  0  0  0  0  2  0  0  0  0  0  0
  -18.6110  -26.5000   21.9460 C   0  0  0  0  0  2  0  0  0  0  0  0
  -19.4580  -28.6030   23.1390 C   0  0  0  0  0  0  0  0  0  0  0  0
  -19.1850  -29.8450   23.7540 C   0  0  0  0  0  3  0  0  0  0  0  0
  -17.8630  -30.3080   23.8870 C   0  0  0  0  0  3  0  0  0  0  0  0
  -16.7940  -29.5260   23.4150 C   0  0  0  0  0  3  0  0  0  0  0  0
  -17.0520  -28.2880   22.7990 C   0  0  0  0  0  3  0  0  0  0  0  0
  -25.9460  -32.5330   24.0030 C   0  0  0  0  0  3  0  0  0  0  0  0
  -25.5710  -33.9300   24.2600 N   0  0  0  0  0  0  0  0  0  0  0  0
  -25.9390  -34.9700   23.4980 C   0  0  0  0  0  0  0  0  0  0  0  0
  -26.7000  -34.8560   22.5340 O   0  0  0  0  0  0  0  0  0  0  0  0
  -24.9070  -34.0890   25.0020 H   0  0  0  0  0  0  0  0  0  0  0  0
  -24.1940  -36.6950   22.9450 C   0  0  0  0  0  1  0  0  0  0  0  0
  -25.3760  -36.3550   23.8670 C   0  0  0  0  0  3  0  0  0  0  0  0
  -27.4030  -37.3370   24.8440 C   0  0  0  0  0  1  0  0  0  0  0  0
  -26.3820  -37.4370   23.8060 N   0  0  0  0  0  0  0  0  0  0  0  0
  -25.9370  -38.3470   23.8860 H   0  0  0  0  0  0  0  0  0  0  0  0
  -26.3800  -31.8150   25.3400 C   0  0  1  0  0  0  0  0  0  0  0  0
  -25.2150  -31.5820   26.3300 C   0  0  0  0  0  1  0  0  0  0  0  0
  -27.0230  -30.4420   25.0370 C   0  0  0  0  0  1  0  0  0  0  0  0
  -27.4540  -32.6610   26.0640 C   0  0  0  0  0  1  0  0  0  0  0  0
  1  5  1  0
  2  1  2  0
  2  3  1  0
  3 49  1  0
  3  4  2  0
  5  4  1  0
  5 12  1  0
  9  6  1  6
  8  9  1  0
  9  7  1  0
  9  2  1  0
 12 11  1  1
 12 10  1  0
 13 12  1  0
 14 19  1  0
 15 16  1  0
 15 14  1  0
 17 16  1  0
 17 24  1  0
 17 18  1  0
 19 13  1  0
 19 18  1  0
 20 13  2  0
 21 22  2  0
 22 41  1  0
 23 22  1  0
 23 26  1  0
 24 25  1  0
 24 21  1  0
 25 23  2  0
 26 27  1  0
 27 28  2  0
 29 32  1  0
 29 28  1  0
 30 29  2  0
 31 30  1  0
 31 26  2  0
 32 33  1  0
 33 38  2  0
 33 34  1  0
 34 35  2  0
 35 36  1  0
 36 40  1  0
 37 36  2  0
 38 37  1  0
 39 38  1  0
 41 42  1  0
 42 45  1  0
 42 44  1  0
 43 41  2  0
 46 21  1  0
 46 47  1  0
 48 46  1  0
 49 50  2  0
 50 53  1  0
 53 52  1  1
 53 51  1  0
 54 55  2  0
 54 53  1  0
 56 55  1  0
 57 68  2  0
 58 56  1  0
 58 63  1  0
 59 67  1  0
 59 69  1  0
 60 62  1  0
 61 67  1  0
 62 63  2  0
 62 61  1  0
 64 58  2  0
 65 64  1  0
 65 60  2  0
 66 60  1  0
 66 59  1  0
 67 57  1  0
 69 71  2  0
 70 69  1  0
 72 70  1  0
 73 82  2  0
 73 78  1  0
 74 70  1  0
 74 78  1  0
 75 74  1  0
 76 77  1  0
 76 75  1  0
 77 73  1  0
 78 79  2  0
 79 80  1  0
 81 80  2  0
 82 81  1  0
 83 57  1  0
 83 84  1  0
 83 93  1  0
 84 87  1  0
 85 89  1  0
 85 84  1  0
 86 85  2  0
 89 88  1  0
 91 89  1  0
 91 92  1  0
 91 90  1  0
 93 96  1  1
 93 94  1  0
 95 93  1  0
M  ISO  4  12 100  13 100  55 101  56 101
M  END
>  <TORSDO>  (86) 
F 23

>  <SCORE>  (86) 
-10.421

>  <name>  (86) 
89

>  <ligand_id>  (86) 
89

>  <original_smiles>  (86) 
[H]c1c([H])c([H])c2c(c1[H])C([H])([H])C([H])([H])C([H])([H])C2([H])N([H])C(=O)C1([H])N(C(=O)C([H])(N([H])C(=O)C([H])(N([H])C([H])([H])[H])C([H])([H])[H])C(C([H])([H])[H])(C([H])([H])[H])C([H])([H])[H])C([H])([H])c2c([H])c(OC([H])([H])C([H])([H])C(C([H])([H])[H])(C([H])([H])[H])C([H])([H])C([H])([H])c3nn(C(C(=O)N4C([H])([H])C([H])([H])C([H])([H])C([H])(n5nc(-c6c([H])c([H])c(Oc7c([H])c([H])c(F)c([H])c7F)c([H])c6[H])c(C(=O)N([H])[H])c5N([H])[H])C4([H])[H])(C([H])([H])[H])C([H])([H])[H])c([H])c3C(C([H])([H])[H])(C([H])([H])[H])C([H])([H])[H])c([H])c([H])c2C1([H])[H]

>  <smiles>  (86) 
[H]c1c([H])c([H])c2c(c1[H])C([H])([H])C([H])([H])C([H])([H])C2([H])N([H])C(=O)C1([H])N(C(=O)C([H])(N([H])C(=O)C([H])(N([H])C([H])([H])[H])C([H])([H])[H])C(C([H])([H])[H])(C([H])([H])[H])C([H])([H])[H])C([H])([H])c2c([H])c(OC([H])([H])C([H])([H])C(C([H])([H])[H])(C([H])([H])[H])C([H])([H])C([H])([H])c3nn(C(C(=O)N4C([H])([H])C([H])([H])C([H])([H])C([H])(n5nc(-c6c([H])c([H])c(Oc7c([H])c([H])c(F)c([H])c7F)c([H])c6[H])c(C(=O)N([H])[H])c5N([H])[H])C4([H])[H])(C([H])([H])[H])C([H])([H])[H])c([H])c3C(C([H])([H])[H])(C([H])([H])[H])C([H])([H])[H])c([H])c([H])c2C1([H])[H]

$$$$
90:0:0
     RDKit          3D

 98106  0  0  1  0  0  0  0  0999 V2000
  -27.7940  -19.4270   19.5090 C   0  0  0  0  0  3  0  0  0  0  0  0
  -28.5490  -20.3890   20.2130 C   0  0  0  0  0  0  0  0  0  0  0  0
  -29.5850  -17.9540   19.5900 C   0  0  0  0  0  0  0  0  0  0  0  0
  -30.3480  -18.9250   20.3140 C   0  0  0  0  0  0  0  0  0  0  0  0
  -28.3080  -18.2110   19.1990 N   0  0  0  0  0  0  0  0  0  0  0  0
  -29.8100  -20.1330   20.6280 N   0  0  0  0  0  0  0  0  0  0  0  0
  -31.7900  -18.7420   20.8120 C   0  0  1  0  0  0  0  0  0  0  0  0
  -32.3250  -17.5550   20.5510 F   0  0  0  0  0  0  0  0  0  0  0  0
  -32.5710  -19.6710   20.2660 F   0  0  0  0  0  0  0  0  0  0  0  0
  -31.8070  -18.9070   22.1380 F   0  0  0  0  0  0  0  0  0  0  0  0
  -27.9850  -21.7480   20.5870 C   0  0  0  0  0  2  0  0  0  0  0  0
  -28.5210  -22.8990   19.7130 C   0  0  0  0  0  2  0  0  0  0  0  0
  -28.4060  -24.2660   20.4130 C   0  0  0  0  0  2  0  0  0  0  0  0
  -28.2590  -25.4610   19.4470 C   0  0  0  0  0  2  0  0  0  0  0  0
  -28.4960  -26.7200   20.0880 O   0  0  0  0  0  0  0  0  0  0  0  0
  -27.5080  -31.7660   24.9880 C   0  0  0  0  0  0  0  0  0  0  0  0
  -27.7120  -27.1330   21.1450 C   0  0  0  0  0  0  0  0  0  0  0  0
  -26.1190  -29.7370   25.2550 C   0  0  0  0  0  3  0  0  0  0  0  0
  -26.1300  -28.1180   23.2820 C   0  0  0  0  0  0  0  0  0  0  0  0
  -26.9530  -30.4540   22.9430 C   0  0  0  0  0  2  0  0  0  0  0  0
  -26.9490  -28.9910   22.5580 C   0  0  0  0  0  0  0  0  0  0  0  0
  -27.7400  -28.5040   21.4930 C   0  0  0  0  0  3  0  0  0  0  0  0
  -26.8740  -26.2660   21.8850 C   0  0  0  0  0  3  0  0  0  0  0  0
  -26.0890  -26.7530   22.9480 C   0  0  0  0  0  3  0  0  0  0  0  0
  -25.3160  -28.7110   24.4120 C   0  0  0  0  0  2  0  0  0  0  0  0
  -26.9080  -30.6890   24.4060 N   0  0  0  0  0  0  0  0  0  0  0  0
  -27.3750  -31.9950   26.1980 O   0  0  0  0  0  0  0  0  0  0  0  0
  -26.9830  -28.9620   26.2750 C   0  0  0  0  0  0  0  0  0  0  0  0
  -26.4380  -28.7530   27.4840 N   0  0  0  0  0  0  0  0  0  0  0  0
  -28.1020  -28.5420   25.9660 O   0  0  0  0  0  0  0  0  0  0  0  0
  -25.5180  -29.1320   27.6590 H   0  0  0  0  0  0  0  0  0  0  0  0
  -26.0890  -27.9350   30.9810 C   0  0  0  0  0  0  0  0  0  0  0  0
  -27.0520  -28.0140   28.5850 C   0  0  0  0  0  3  0  0  0  0  0  0
  -26.7080  -26.5090   28.5060 C   0  0  0  0  0  2  0  0  0  0  0  0
  -25.4660  -26.1310   29.3210 C   0  0  0  0  0  2  0  0  0  0  0  0
  -25.6650  -26.4870   30.7970 C   0  0  0  0  0  2  0  0  0  0  0  0
  -26.7280  -28.6560   29.9390 C   0  0  0  0  0  0  0  0  0  0  0  0
  -27.0690  -30.0100   30.1510 C   0  0  0  0  0  3  0  0  0  0  0  0
  -26.7840  -30.6400   31.3760 C   0  0  0  0  0  3  0  0  0  0  0  0
  -26.1720  -29.9160   32.4140 C   0  0  0  0  0  3  0  0  0  0  0  0
  -25.8280  -28.5670   32.2150 C   0  0  0  0  0  3  0  0  0  0  0  0
  -28.3640  -32.7740   24.1610 C   0  0  0  0  0  3  0  0  0  0  0  0
  -29.9170  -32.5380   24.3040 C   0  0  1  0  0  0  0  0  0  0  0  0
  -30.3900  -32.3770   25.7680 C   0  0  0  0  0  1  0  0  0  0  0  0
  -30.3460  -31.2710   23.5280 C   0  0  0  0  0  1  0  0  0  0  0  0
  -30.6880  -33.7240   23.6800 C   0  0  0  0  0  1  0  0  0  0  0  0
  -28.0040  -34.1280   24.6040 N   0  0  0  0  0  0  0  0  0  0  0  0
  -27.2270  -34.9730   23.9140 C   0  0  0  0  0  0  0  0  0  0  0  0
  -26.7910  -34.7150   22.7880 O   0  0  0  0  0  0  0  0  0  0  0  0
  -28.2800  -34.3880   25.5400 H   0  0  0  0  0  0  0  0  0  0  0  0
  -25.4220  -36.2820   25.0770 C   0  0  0  0  0  1  0  0  0  0  0  0
  -26.8760  -36.3200   24.5760 C   0  0  0  0  0  3  0  0  0  0  0  0
  -28.4700  -37.7590   23.3890 C   0  0  0  0  0  1  0  0  0  0  0  0
  -27.0650  -37.4830   23.6830 N   0  0  0  0  0  0  0  0  0  0  0  0
  -26.6520  -38.3190   24.0860 H   0  0  0  0  0  0  0  0  0  0  0  0
  -30.1480  -16.6280   19.0630 C   0  0  0  0  0  2  0  0  0  0  0  0
  -30.5540  -14.2820   19.2990 C   0  0  0  0  0  0  0  0  0  0  0  0
  -29.8690  -12.2660   18.0590 C   0  0  0  0  0  2  0  0  0  0  0  0
  -28.7230  -12.6050   17.0870 C   0  0  0  0  0  2  0  0  0  0  0  0
  -27.3620  -12.4700   17.7940 C   0  0  0  0  0  2  0  0  0  0  0  0
  -27.3200  -13.2050   19.1580 C   0  0  0  0  0  3  0  0  0  0  0  0
  -28.5610  -12.8600   20.0050 C   0  0  0  0  0  2  0  0  0  0  0  0
  -29.7570  -13.1770   19.2100 N   0  0  0  0  0  0  0  0  0  0  0  0
  -31.5520  -14.4020   18.5820 O   0  0  0  0  0  0  0  0  0  0  0  0
  -30.0340  -15.3900   19.8860 N   0  0  0  0  0  0  0  0  0  0  0  0
  -25.1270  -13.8000   20.3560 C   0  0  0  0  0  0  0  0  0  0  0  0
  -24.1360  -13.0190   20.8860 C   0  0  0  0  0  0  0  0  0  0  0  0
  -24.5500  -11.6650   20.6960 C   0  0  0  0  0  0  0  0  0  0  0  0
  -26.0820  -12.9200   19.8770 N   0  0  0  0  0  0  0  0  0  0  0  0
  -25.7530  -11.6290   20.1370 N   0  0  0  0  0  0  0  0  0  0  0  0
  -23.8500  -10.4010   20.9580 C   0  0  0  0  0  0  0  0  0  0  0  0
  -24.3800   -9.4290   21.8360 C   0  0  0  0  0  3  0  0  0  0  0  0
  -23.6790   -8.2300   22.0840 C   0  0  0  0  0  3  0  0  0  0  0  0
  -22.4320   -7.9920   21.4560 C   0  0  0  0  0  0  0  0  0  0  0  0
  -21.9210   -8.9540   20.5660 C   0  0  0  0  0  3  0  0  0  0  0  0
  -22.6230  -10.1460   20.3170 C   0  0  0  0  0  3  0  0  0  0  0  0
  -21.6930   -6.8470   21.6180 O   0  0  0  0  0  0  0  0  0  0  0  0
  -21.7160   -6.1350   22.7900 C   0  0  0  0  0  0  0  0  0  0  0  0
  -21.3750   -6.7220   24.0280 C   0  0  0  0  0  3  0  0  0  0  0  0
  -21.3450   -5.9350   25.1960 C   0  0  0  0  0  3  0  0  0  0  0  0
  -21.6460   -4.5610   25.1270 C   0  0  0  0  0  0  0  0  0  0  0  0
  -21.9830   -3.9740   23.8940 C   0  0  0  0  0  3  0  0  0  0  0  0
  -22.0150   -4.7590   22.7280 C   0  0  0  0  0  0  0  0  0  0  0  0
  -22.3190   -4.1830   21.5390 F   0  0  0  0  0  0  0  0  0  0  0  0
  -21.6070   -3.8030   26.2460 F   0  0  0  0  0  0  0  0  0  0  0  0
  -22.8300  -13.4950   21.4540 C   0  0  0  0  0  0  0  0  0  0  0  0
  -22.2960  -12.7840   22.4400 N   0  0  0  0  0  0  0  0  0  0  0  0
  -22.3000  -14.5320   21.0590 O   0  0  0  0  0  0  0  0  0  0  0  0
  -22.7380  -11.9360   22.7690 H   0  0  0  0  0  0  0  0  0  0  0  0
  -21.4340  -13.0870   22.8730 H   0  0  0  0  0  0  0  0  0  0  0  0
  -25.2960  -15.1750   20.2260 N   0  0  0  0  0  0  0  0  0  0  0  0
  -24.5890  -15.8430   20.5120 H   0  0  0  0  0  0  0  0  0  0  0  0
  -26.0860  -15.6050   19.7620 H   0  0  0  0  0  0  0  0  0  0  0  0
  -29.9360  -15.5330   21.3570 C   0  0  0  0  0  2  0  0  0  0  0  0
  -31.1570  -15.3730   23.6080 C   0  0  0  0  0  1  0  0  0  0  0  0
  -31.0450  -14.8230   22.1780 C   0  0  1  0  0  0  0  0  0  0  0  0
  -30.8200  -13.5140   22.2730 F   0  0  0  0  0  0  0  0  0  0  0  0
  -32.2280  -15.0060   21.5900 F   0  0  0  0  0  0  0  0  0  0  0  0
  1  2  1  0
  2 11  1  0
  2  6  2  0
  3  4  2  0
  4  6  1  0
  4  7  1  0
  5  1  2  0
  5  3  1  0
  7 10  1  1
  8  7  1  0
  9  7  1  0
 12 13  1  0
 12 11  1  0
 14 15  1  0
 14 13  1  0
 15 17  1  0
 16 27  2  0
 17 22  2  0
 17 23  1  0
 18 28  1  0
 19 25  1  0
 20 26  1  0
 21 20  1  0
 21 19  2  0
 22 21  1  0
 23 24  2  0
 24 19  1  0
 25 18  1  0
 26 16  1  0
 26 18  1  0
 28 29  1  0
 29 31  1  0
 30 28  2  0
 32 41  1  0
 33 29  1  0
 33 37  1  0
 34 33  1  0
 34 35  1  0
 35 36  1  0
 36 32  1  0
 37 38  1  0
 37 32  2  0
 38 39  2  0
 39 40  1  0
 41 40  2  0
 42 43  1  0
 42 47  1  0
 42 16  1  0
 43 44  1  1
 45 43  1  0
 46 43  1  0
 47 50  1  0
 48 52  1  0
 48 47  1  0
 49 48  2  0
 52 51  1  0
 53 54  1  0
 54 55  1  0
 54 52  1  0
 56  3  1  0
 56 65  1  0
 57 65  1  0
 58 63  1  0
 59 60  1  0
 59 58  1  0
 61 60  1  0
 61 69  1  0
 61 62  1  0
 63 57  1  0
 63 62  1  0
 64 57  2  0
 65 94  1  0
 66 67  2  0
 67 86  1  0
 68 67  1  0
 68 71  1  0
 69 70  1  0
 69 66  1  0
 70 68  2  0
 71 72  1  0
 72 73  2  0
 74 77  1  0
 74 73  1  0
 75 74  2  0
 76 75  1  0
 76 71  2  0
 77 78  1  0
 78 79  1  0
 79 80  2  0
 81 80  1  0
 81 85  1  0
 82 81  2  0
 83 78  2  0
 83 82  1  0
 84 83  1  0
 86 87  1  0
 87 89  1  0
 87 90  1  0
 88 86  2  0
 91 66  1  0
 91 92  1  0
 93 91  1  0
 94 96  1  0
 96 97  1  0
 96 95  1  1
 98 96  1  0
M  ISO  4  14 101  15 101  57 100  65 100
M  END
>  <TORSDO>  (87) 
F 24

>  <SCORE>  (87) 
-5.124

>  <name>  (87) 
90

>  <ligand_id>  (87) 
90

>  <original_smiles>  (87) 
[H]c1nc(C([H])([H])N(C(=O)N2C([H])([H])C([H])([H])C([H])([H])C([H])(n3nc(-c4c([H])c([H])c(Oc5c([H])c([H])c(F)c([H])c5F)c([H])c4[H])c(C(=O)N([H])[H])c3N([H])[H])C2([H])[H])C([H])([H])C(F)(F)C([H])([H])[H])c(C(F)(F)F)nc1C([H])([H])C([H])([H])C([H])([H])C([H])([H])Oc1c([H])c([H])c2c(c1[H])C([H])([H])N(C(=O)C([H])(N([H])C(=O)C([H])(N([H])C([H])([H])[H])C([H])([H])[H])C(C([H])([H])[H])(C([H])([H])[H])C([H])([H])[H])C([H])(C(=O)N([H])C1([H])c3c([H])c([H])c([H])c([H])c3C([H])([H])C([H])([H])C1([H])[H])C2([H])[H]

>  <smiles>  (87) 
[H]c1nc(C([H])([H])N(C(=O)N2C([H])([H])C([H])([H])C([H])([H])C([H])(n3nc(-c4c([H])c([H])c(Oc5c([H])c([H])c(F)c([H])c5F)c([H])c4[H])c(C(=O)N([H])[H])c3N([H])[H])C2([H])[H])C([H])([H])C(F)(F)C([H])([H])[H])c(C(F)(F)F)nc1C([H])([H])C([H])([H])C([H])([H])C([H])([H])Oc1c([H])c([H])c2c(c1[H])C([H])([H])N(C(=O)C([H])(N([H])C(=O)C([H])(N([H])C([H])([H])[H])C([H])([H])[H])C(C([H])([H])[H])(C([H])([H])[H])C([H])([H])[H])C([H])(C(=O)N([H])C1([H])c3c([H])c([H])c([H])c([H])c3C([H])([H])C([H])([H])C1([H])[H])C2([H])[H]

$$$$
93:0:0
     RDKit          3D

 89 97  0  0  1  0  0  0  0  0999 V2000
  -28.1830  -21.7600   19.9750 C   0  0  0  0  0  3  0  0  0  0  0  0
  -28.6560  -23.1030   19.9830 C   0  0  0  0  0  0  0  0  0  0  0  0
  -30.0410  -22.8530   20.1350 N   0  0  0  0  0  0  0  0  0  0  0  0
  -30.3410  -21.5430   20.2300 N   0  0  0  0  0  0  0  0  0  0  0  0
  -29.2210  -20.7500   20.1110 N   0  0  0  0  0  0  0  0  0  0  0  0
  -29.3420  -19.0440   21.9490 C   0  0  0  0  0  1  0  0  0  0  0  0
  -27.7410  -18.6740   20.0930 C   0  0  0  0  0  1  0  0  0  0  0  0
  -29.1700  -19.1530   20.4230 C   0  0  1  0  0  0  0  0  0  0  0  0
  -30.1780  -17.9130   19.8080 C   0  0  0  0  0  2  0  0  0  0  0  0
  -30.7010  -15.1420   19.8380 C   0  0  0  0  0  0  0  0  0  0  0  0
  -30.5710  -12.7610   18.9410 C   0  0  0  0  0  2  0  0  0  0  0  0
  -29.5690  -12.6450   17.7680 C   0  0  0  0  0  2  0  0  0  0  0  0
  -28.1390  -12.4140   18.2880 C   0  0  0  0  0  2  0  0  0  0  0  0
  -27.7780  -13.3610   19.4620 C   0  0  0  0  0  3  0  0  0  0  0  0
  -28.8970  -13.4300   20.5250 C   0  0  0  0  0  2  0  0  0  0  0  0
  -30.1180  -13.8680   19.8360 N   0  0  0  0  0  0  0  0  0  0  0  0
  -31.8820  -15.2040   19.4770 O   0  0  0  0  0  0  0  0  0  0  0  0
  -29.9330  -16.3380   20.0440 N   0  0  0  0  0  0  0  0  0  0  0  0
  -28.9930  -16.1310   20.3430 H   0  0  0  0  0  0  0  0  0  0  0  0
  -25.4590  -13.9150   20.3900 C   0  0  0  0  0  0  0  0  0  0  0  0
  -24.4190  -13.1300   20.8060 C   0  0  0  0  0  0  0  0  0  0  0  0
  -24.8710  -11.7800   20.6900 C   0  0  0  0  0  0  0  0  0  0  0  0
  -26.4780  -13.0440   20.0420 N   0  0  0  0  0  0  0  0  0  0  0  0
  -26.1390  -11.7510   20.2900 N   0  0  0  0  0  0  0  0  0  0  0  0
  -24.1510  -10.5150   20.8790 C   0  0  0  0  0  0  0  0  0  0  0  0
  -24.5500   -9.5760   21.8560 C   0  0  0  0  0  3  0  0  0  0  0  0
  -23.8280   -8.3760   22.0320 C   0  0  0  0  0  3  0  0  0  0  0  0
  -22.6910   -8.1060   21.2340 C   0  0  0  0  0  0  0  0  0  0  0  0
  -22.3110   -9.0320   20.2470 C   0  0  0  0  0  3  0  0  0  0  0  0
  -23.0340  -10.2250   20.0690 C   0  0  0  0  0  3  0  0  0  0  0  0
  -21.9430   -6.9560   21.3180 O   0  0  0  0  0  0  0  0  0  0  0  0
  -21.7320   -6.3220   22.5170 C   0  0  0  0  0  0  0  0  0  0  0  0
  -21.1050   -6.9700   23.6030 C   0  0  0  0  0  3  0  0  0  0  0  0
  -20.8450   -6.2590   24.7930 C   0  0  0  0  0  3  0  0  0  0  0  0
  -21.2020   -4.9000   24.8940 C   0  0  0  0  0  0  0  0  0  0  0  0
  -21.8200   -4.2520   23.8110 C   0  0  0  0  0  3  0  0  0  0  0  0
  -22.0810   -4.9600   22.6240 C   0  0  0  0  0  0  0  0  0  0  0  0
  -22.6590   -4.3250   21.5760 F   0  0  0  0  0  0  0  0  0  0  0  0
  -20.9460   -4.2150   26.0330 F   0  0  0  0  0  0  0  0  0  0  0  0
  -23.0460  -13.6030   21.1860 C   0  0  0  0  0  0  0  0  0  0  0  0
  -22.3770  -12.8850   22.0810 N   0  0  0  0  0  0  0  0  0  0  0  0
  -22.5760  -14.6420   20.7230 O   0  0  0  0  0  0  0  0  0  0  0  0
  -22.7700  -12.0440   22.4770 H   0  0  0  0  0  0  0  0  0  0  0  0
  -21.4560  -13.1760   22.3730 H   0  0  0  0  0  0  0  0  0  0  0  0
  -25.6180  -15.2900   20.2490 N   0  0  0  0  0  0  0  0  0  0  0  0
  -24.8610  -15.9390   20.4320 H   0  0  0  0  0  0  0  0  0  0  0  0
  -26.4130  -15.7260   19.8010 H   0  0  0  0  0  0  0  0  0  0  0  0
  -27.8160  -24.5580   19.8370 C   0  0  0  0  0  2  0  0  0  0  0  0
  -28.2050  -26.0880   20.0070 O   0  0  0  0  0  0  0  0  0  0  0  0
  -24.5320  -31.7810   23.0740 C   0  0  0  0  0  0  0  0  0  0  0  0
  -27.1720  -27.1240   19.9440 C   0  0  0  0  0  0  0  0  0  0  0  0
  -23.3510  -30.3960   21.4180 C   0  0  0  0  0  3  0  0  0  0  0  0
  -24.8210  -28.8770   19.9510 C   0  0  0  0  0  0  0  0  0  0  0  0
  -25.9050  -30.6940   21.2490 C   0  0  0  0  0  2  0  0  0  0  0  0
  -26.0010  -29.3140   20.5660 C   0  0  0  0  0  0  0  0  0  0  0  0
  -27.1750  -28.4560   20.5450 C   0  0  0  0  0  3  0  0  0  0  0  0
  -25.9610  -26.8180   19.2770 C   0  0  0  0  0  3  0  0  0  0  0  0
  -24.8170  -27.6460   19.2860 C   0  0  0  0  0  3  0  0  0  0  0  0
  -23.5800  -29.7600   20.0230 C   0  0  0  0  0  2  0  0  0  0  0  0
  -24.6150  -30.9800   21.9680 N   0  0  0  0  0  0  0  0  0  0  0  0
  -23.4430  -32.0320   23.6140 O   0  0  0  0  0  0  0  0  0  0  0  0
  -22.7000  -29.3520   22.3640 C   0  0  0  0  0  0  0  0  0  0  0  0
  -21.3720  -29.1620   22.2540 N   0  0  0  0  0  0  0  0  0  0  0  0
  -23.3910  -28.7180   23.1620 O   0  0  0  0  0  0  0  0  0  0  0  0
  -20.8650  -29.7290   21.5910 H   0  0  0  0  0  0  0  0  0  0  0  0
  -18.0130  -27.9140   22.8050 C   0  0  0  0  0  0  0  0  0  0  0  0
  -20.5770  -28.1950   23.0170 C   0  0  0  0  0  3  0  0  0  0  0  0
  -20.6760  -26.7810   22.3990 C   0  0  0  0  0  2  0  0  0  0  0  0
  -19.5530  -26.4770   21.4020 C   0  0  0  0  0  2  0  0  0  0  0  0
  -18.1850  -26.5890   22.0830 C   0  0  0  0  0  2  0  0  0  0  0  0
  -19.1350  -28.6770   23.2270 C   0  0  0  0  0  0  0  0  0  0  0  0
  -18.9150  -29.9200   23.8630 C   0  0  0  0  0  3  0  0  0  0  0  0
  -17.6090  -30.3970   24.0800 C   0  0  0  0  0  3  0  0  0  0  0  0
  -16.5030  -29.6340   23.6650 C   0  0  0  0  0  3  0  0  0  0  0  0
  -16.7070  -28.3940   23.0330 C   0  0  0  0  0  3  0  0  0  0  0  0
  -25.7990  -32.4350   23.7040 C   0  0  0  0  0  3  0  0  0  0  0  0
  -26.3400  -31.6480   24.9620 C   0  0  1  0  0  0  0  0  0  0  0  0
  -25.2590  -31.3580   26.0300 C   0  0  0  0  0  1  0  0  0  0  0  0
  -26.9550  -30.2950   24.5450 C   0  0  0  0  0  1  0  0  0  0  0  0
  -27.4770  -32.4570   25.6330 C   0  0  0  0  0  1  0  0  0  0  0  0
  -25.4530  -33.8170   24.0730 N   0  0  0  0  0  0  0  0  0  0  0  0
  -25.7350  -34.9000   23.3340 C   0  0  0  0  0  0  0  0  0  0  0  0
  -26.3790  -34.8420   22.2840 O   0  0  0  0  0  0  0  0  0  0  0  0
  -24.8850  -33.9360   24.8980 H   0  0  0  0  0  0  0  0  0  0  0  0
  -23.9430  -36.6480   23.0830 C   0  0  0  0  0  1  0  0  0  0  0  0
  -25.2230  -36.2610   23.8430 C   0  0  0  0  0  3  0  0  0  0  0  0
  -27.3510  -37.2000   24.6300 C   0  0  0  0  0  1  0  0  0  0  0  0
  -26.2170  -37.3510   23.7210 N   0  0  0  0  0  0  0  0  0  0  0  0
  -25.7840  -38.2530   23.9000 H   0  0  0  0  0  0  0  0  0  0  0  0
  1  2  2  0
  1  5  1  0
  2  3  1  0
  3  4  2  0
  5  4  1  0
  5  8  1  0
  8  7  1  1
  8  6  1  0
  9 18  1  0
  9  8  1  0
 10 18  1  0
 11 16  1  0
 12 13  1  0
 12 11  1  0
 14 13  1  0
 14 23  1  0
 14 15  1  0
 16 10  1  0
 16 15  1  0
 17 10  2  0
 18 19  1  0
 20 21  2  0
 21 40  1  0
 22 21  1  0
 22 25  1  0
 23 24  1  0
 23 20  1  0
 24 22  2  0
 25 26  1  0
 26 27  2  0
 28 31  1  0
 28 27  1  0
 29 28  2  0
 30 29  1  0
 30 25  2  0
 31 32  1  0
 32 37  2  0
 32 33  1  0
 33 34  2  0
 34 35  1  0
 35 39  1  0
 36 35  2  0
 37 36  1  0
 38 37  1  0
 40 41  1  0
 41 44  1  0
 41 43  1  0
 42 40  2  0
 45 20  1  0
 45 46  1  0
 47 45  1  0
 48  2  1  0
 48 49  1  0
 50 61  2  0
 51 49  1  0
 51 56  1  0
 52 60  1  0
 52 62  1  0
 53 59  1  0
 53 55  1  0
 54 60  1  0
 55 54  1  0
 56 55  2  0
 57 58  1  0
 57 51  2  0
 58 53  2  0
 59 52  1  0
 60 50  1  0
 62 64  2  0
 63 62  1  0
 65 63  1  0
 66 75  2  0
 66 71  1  0
 67 63  1  0
 67 71  1  0
 68 67  1  0
 69 70  1  0
 69 68  1  0
 70 66  1  0
 71 72  2  0
 72 73  1  0
 74 73  2  0
 75 74  1  0
 76 50  1  0
 76 81  1  0
 76 77  1  0
 77 80  1  1
 77 78  1  0
 79 77  1  0
 81 84  1  0
 82 86  1  0
 82 81  1  0
 83 82  2  0
 86 85  1  0
 88 86  1  0
 88 89  1  0
 88 87  1  0
M  ISO  4  10 100  18 100  48 101  49 101
M  END
>  <TORSDO>  (88) 
F 19

>  <SCORE>  (88) 
-13.169

>  <name>  (88) 
93

>  <ligand_id>  (88) 
93

>  <original_smiles>  (88) 
[H]c1c([H])c([H])c2c(c1[H])C([H])([H])C([H])([H])C([H])([H])C2([H])N([H])C(=O)C1([H])N(C(=O)C([H])(N([H])C(=O)C([H])(N([H])C([H])([H])[H])C([H])([H])[H])C(C([H])([H])[H])(C([H])([H])[H])C([H])([H])[H])C([H])([H])c2c([H])c(OC([H])([H])c3nnn(C(C([H])([H])[H])(C([H])([H])[H])C([H])([H])N([H])C(=O)N4C([H])([H])C([H])([H])C([H])([H])C([H])(n5nc(-c6c([H])c([H])c(Oc7c([H])c([H])c(F)c([H])c7F)c([H])c6[H])c(C(=O)N([H])[H])c5N([H])[H])C4([H])[H])c3[H])c([H])c([H])c2C1([H])[H]

>  <smiles>  (88) 
[H]c1c([H])c([H])c2c(c1[H])C([H])([H])C([H])([H])C([H])([H])C2([H])N([H])C(=O)C1([H])N(C(=O)C([H])(N([H])C(=O)C([H])(N([H])C([H])([H])[H])C([H])([H])[H])C(C([H])([H])[H])(C([H])([H])[H])C([H])([H])[H])C([H])([H])c2c([H])c(OC([H])([H])c3nnn(C(C([H])([H])[H])(C([H])([H])[H])C([H])([H])N([H])C(=O)N4C([H])([H])C([H])([H])C([H])([H])C([H])(n5nc(-c6c([H])c([H])c(Oc7c([H])c([H])c(F)c([H])c7F)c([H])c6[H])c(C(=O)N([H])[H])c5N([H])[H])C4([H])[H])c3[H])c([H])c([H])c2C1([H])[H]

$$$$
