0:0:0
     RDKit          3D

 98106  0  0  1  0  0  0  0  0999 V2000
  -29.0500  -19.6970   19.7060 C   0  0  0  0  0  0  0  0  0  0  0  0
  -29.7980  -20.4580   20.6100 C   0  0  0  0  0  0  0  0  0  0  0  0
  -30.4430  -18.1410   20.5570 C   0  0  0  0  0  0  0  0  0  0  0  0
  -29.4930  -18.3510   19.6450 N   0  0  0  0  0  0  0  0  0  0  0  0
  -30.6450  -19.4100   21.2080 N   0  0  0  0  0  0  0  0  0  0  0  0
  -30.8140  -16.1380   22.2490 C   0  0  0  0  0  1  0  0  0  0  0  0
  -32.6440  -16.9790   20.7670 C   0  0  0  0  0  1  0  0  0  0  0  0
  -31.1160  -16.6450   20.8250 C   0  0  2  0  0  0  0  0  0  0  0  0
  -31.0500  -15.2820   19.8040 C   0  0  0  0  0  0  0  0  0  0  0  0
  -30.5310  -13.0320   18.7170 C   0  0  0  0  0  2  0  0  0  0  0  0
  -29.5090  -13.2180   17.5740 C   0  0  0  0  0  2  0  0  0  0  0  0
  -28.1050  -13.0000   18.1390 C   0  0  0  0  0  2  0  0  0  0  0  0
  -27.8860  -13.7680   19.4660 C   0  0  0  0  0  3  0  0  0  0  0  0
  -29.0720  -13.6760   20.4680 C   0  0  0  0  0  2  0  0  0  0  0  0
  -30.3020  -14.0850   19.7690 N   0  0  0  0  0  0  0  0  0  0  0  0
  -31.9540  -15.2660   18.9620 O   0  0  0  0  0  0  0  0  0  0  0  0
  -25.6070  -14.2380   20.5090 C   0  0  0  0  0  0  0  0  0  0  0  0
  -24.5910  -13.4160   20.9240 C   0  0  0  0  0  0  0  0  0  0  0  0
  -25.0420  -12.0800   20.7110 C   0  0  0  0  0  0  0  0  0  0  0  0
  -26.6110  -13.3950   20.0710 N   0  0  0  0  0  0  0  0  0  0  0  0
  -26.2900  -12.0830   20.2530 N   0  0  0  0  0  0  0  0  0  0  0  0
  -24.3300  -10.8000   20.8670 C   0  0  0  0  0  0  0  0  0  0  0  0
  -24.7880   -9.8100   21.7650 C   0  0  0  0  0  3  0  0  0  0  0  0
  -24.0830   -8.5960   21.9090 C   0  0  0  0  0  3  0  0  0  0  0  0
  -22.9030   -8.3650   21.1630 C   0  0  0  0  0  0  0  0  0  0  0  0
  -22.4650   -9.3420   20.2560 C   0  0  0  0  0  3  0  0  0  0  0  0
  -23.1680  -10.5500   20.1080 C   0  0  0  0  0  3  0  0  0  0  0  0
  -22.1700   -7.2030   21.2210 O   0  0  0  0  0  0  0  0  0  0  0  0
  -22.0380   -6.4910   22.3870 C   0  0  0  0  0  0  0  0  0  0  0  0
  -21.5030   -7.0700   23.5570 C   0  0  0  0  0  3  0  0  0  0  0  0
  -21.3200   -6.2840   24.7150 C   0  0  0  0  0  3  0  0  0  0  0  0
  -21.6670   -4.9190   24.7000 C   0  0  0  0  0  0  0  0  0  0  0  0
  -22.2000   -4.3390   23.5350 C   0  0  0  0  0  3  0  0  0  0  0  0
  -22.3830   -5.1230   22.3830 C   0  0  0  0  0  0  0  0  0  0  0  0
  -22.8770   -4.5550   21.2550 F   0  0  0  0  0  0  0  0  0  0  0  0
  -21.4860   -4.1630   25.8080 F   0  0  0  0  0  0  0  0  0  0  0  0
  -23.2390  -13.8570   21.3980 C   0  0  0  0  0  0  0  0  0  0  0  0
  -22.6280  -13.0880   22.2990 N   0  0  0  0  0  0  0  0  0  0  0  0
  -22.7360  -14.9070   21.0130 O   0  0  0  0  0  0  0  0  0  0  0  0
  -23.0480  -12.2330   22.6250 H   0  0  0  0  0  0  0  0  0  0  0  0
  -21.7280  -13.3570   22.6660 H   0  0  0  0  0  0  0  0  0  0  0  0
  -25.7590  -15.6170   20.4510 N   0  0  0  0  0  0  0  0  0  0  0  0
  -25.0270  -16.2640   20.7180 H   0  0  0  0  0  0  0  0  0  0  0  0
  -26.5860  -16.0790   20.0870 H   0  0  0  0  0  0  0  0  0  0  0  0
  -32.9010  -19.6610   22.7100 C   0  0  0  0  0  1  0  0  0  0  0  0
  -30.5820  -19.3090   23.7170 C   0  0  0  0  0  1  0  0  0  0  0  0
  -31.3670  -19.7710   22.4830 C   0  0  0  0  0  3  0  0  0  0  0  0
  -27.7130  -20.0650   19.0710 C   0  0  0  0  0  2  0  0  0  0  0  0
  -29.0140  -21.0950   17.0450 C   0  0  0  0  0  1  0  0  0  0  0  0
  -27.2200  -22.3600   18.1690 C   0  0  0  0  0  1  0  0  0  0  0  0
  -27.6490  -20.9310   17.7590 C   0  0  2  0  0  0  0  0  0  0  0  0
  -26.6460  -18.8440   16.4970 C   0  0  0  0  0  1  0  0  0  0  0  0
  -25.1340  -20.7580   16.9900 C   0  0  0  0  0  1  0  0  0  0  0  0
  -26.6030  -20.3710   16.7170 C   0  0  0  0  0  3  0  0  0  0  0  0
  -29.4600  -21.9980   21.1670 C   0  0  0  0  0  2  0  0  0  0  0  0
  -29.7270  -23.5590   20.5480 C   0  0  0  0  0  3  0  0  0  0  0  0
  -28.7330  -24.9090   20.8940 C   0  0  0  0  0  3  0  0  0  0  0  0
  -28.9730  -26.4590   20.7480 O   0  0  0  0  0  0  0  0  0  0  0  0
  -24.9050  -32.0690   23.4210 C   0  0  0  0  0  0  0  0  0  0  0  0
  -27.8860  -27.4160   20.6310 C   0  0  0  0  0  0  0  0  0  0  0  0
  -23.8890  -30.6050   21.7200 C   0  0  0  0  0  3  0  0  0  0  0  0
  -25.5040  -29.0950   20.4040 C   0  0  0  0  0  0  0  0  0  0  0  0
  -26.4350  -30.9750   21.7420 C   0  0  0  0  0  2  0  0  0  0  0  0
  -26.6160  -29.5800   21.1070 C   0  0  0  0  0  0  0  0  0  0  0  0
  -27.8060  -28.7550   21.2070 C   0  0  0  0  0  3  0  0  0  0  0  0
  -26.7450  -27.0500   19.8790 C   0  0  0  0  0  3  0  0  0  0  0  0
  -25.5880  -27.8480   19.7670 C   0  0  0  0  0  3  0  0  0  0  0  0
  -24.2380  -29.9400   20.3620 C   0  0  0  0  0  2  0  0  0  0  0  0
  -25.0910  -31.2400   22.3500 N   0  0  0  0  0  0  0  0  0  0  0  0
  -23.7730  -32.3120   23.8680 O   0  0  0  0  0  0  0  0  0  0  0  0
  -23.1920  -29.5710   22.6410 C   0  0  0  0  0  0  0  0  0  0  0  0
  -21.8700  -29.3890   22.4650 N   0  0  0  0  0  0  0  0  0  0  0  0
  -23.8420  -28.9430   23.4790 O   0  0  0  0  0  0  0  0  0  0  0  0
  -21.4110  -29.9320   21.7500 H   0  0  0  0  0  0  0  0  0  0  0  0
  -18.4720  -28.2000   22.8980 C   0  0  0  0  0  0  0  0  0  0  0  0
  -21.0330  -28.4360   23.1950 C   0  0  0  0  0  3  0  0  0  0  0  0
  -21.1330  -27.0280   22.5710 C   0  0  0  0  0  2  0  0  0  0  0  0
  -20.0360  -26.7490   21.5390 C   0  0  0  0  0  2  0  0  0  0  0  0
  -18.6470  -26.8760   22.1740 C   0  0  0  0  0  2  0  0  0  0  0  0
  -19.5920  -28.9400   23.3600 C   0  0  0  0  0  0  0  0  0  0  0  0
  -19.3760  -30.1780   24.0040 C   0  0  0  0  0  3  0  0  0  0  0  0
  -18.0740  -30.6790   24.1890 C   0  0  0  0  0  3  0  0  0  0  0  0
  -16.9680  -29.9370   23.7420 C   0  0  0  0  0  3  0  0  0  0  0  0
  -17.1670  -28.7000   23.1000 C   0  0  0  0  0  3  0  0  0  0  0  0
  -26.1050  -32.7700   24.1240 C   0  0  0  0  0  3  0  0  0  0  0  0
  -25.6970  -34.1470   24.4460 N   0  0  0  0  0  0  0  0  0  0  0  0
  -26.0030  -35.2300   23.7140 C   0  0  0  0  0  0  0  0  0  0  0  0
  -26.7370  -35.1770   22.7230 O   0  0  0  0  0  0  0  0  0  0  0  0
  -25.0470  -34.2540   25.2110 H   0  0  0  0  0  0  0  0  0  0  0  0
  -24.2070  -36.9310   23.2700 C   0  0  0  0  0  1  0  0  0  0  0  0
  -25.4170  -36.5860   24.1530 C   0  0  0  0  0  3  0  0  0  0  0  0
  -27.4550  -37.5710   25.1080 C   0  0  0  0  0  1  0  0  0  0  0  0
  -26.3970  -37.6980   24.1080 N   0  0  0  0  0  0  0  0  0  0  0  0
  -25.9350  -38.5930   24.2490 H   0  0  0  0  0  0  0  0  0  0  0  0
  -26.5760  -32.0210   25.4320 C   0  0  1  0  0  0  0  0  0  0  0  0
  -25.4240  -31.6780   26.4090 C   0  0  0  0  0  1  0  0  0  0  0  0
  -27.2940  -30.6980   25.0830 C   0  0  0  0  0  1  0  0  0  0  0  0
  -27.6190  -32.8880   26.1810 C   0  0  0  0  0  1  0  0  0  0  0  0
  1  2  2  0
  2 55  1  0
  2  5  1  0
  3  8  1  0
  3  5  1  0
  4  1  1  0
  4  3  2  0
  5 47  1  0
  8  7  1  1
  8  6  1  0
  9  8  1  0
 10 15  1  0
 11 12  1  0
 11 10  1  0
 13 12  1  0
 13 20  1  0
 13 14  1  0
 15  9  1  0
 15 14  1  0
 16  9  2  0
 17 18  2  0
 18 37  1  0
 19 22  1  0
 19 18  1  0
 20 21  1  0
 20 17  1  0
 21 19  2  0
 22 23  1  0
 23 24  2  0
 25 28  1  0
 25 24  1  0
 26 25  2  0
 27 26  1  0
 27 22  2  0
 28 29  1  0
 29 30  1  0
 30 31  2  0
 32 31  1  0
 32 36  1  0
 33 32  2  0
 34 29  2  0
 34 33  1  0
 35 34  1  0
 37 38  1  0
 38 40  1  0
 38 41  1  0
 39 37  2  0
 42 17  1  0
 42 43  1  0
 44 42  1  0
 47 45  1  0
 47 46  1  0
 48  1  1  0
 51 49  1  6
 51 50  1  0
 51 48  1  0
 52 54  1  0
 54 53  1  0
 54 51  1  0
 56 57  2  0
 56 55  1  0
 58 57  1  0
 59 70  2  0
 60 58  1  0
 60 65  1  0
 61 69  1  0
 61 71  1  0
 62 64  1  0
 63 69  1  0
 64 65  2  0
 64 63  1  0
 66 60  2  0
 67 66  1  0
 67 62  2  0
 68 62  1  0
 68 61  1  0
 69 59  1  0
 71 73  2  0
 72 71  1  0
 74 72  1  0
 75 84  2  0
 75 80  1  0
 76 72  1  0
 76 80  1  0
 77 76  1  0
 78 79  1  0
 78 77  1  0
 79 75  1  0
 80 81  2  0
 81 82  1  0
 83 82  2  0
 84 83  1  0
 85 59  1  0
 85 86  1  0
 85 95  1  0
 86 89  1  0
 87 91  1  0
 87 86  1  0
 88 87  2  0
 91 90  1  0
 93 91  1  0
 93 94  1  0
 93 92  1  0
 95 98  1  1
 95 96  1  0
 97 95  1  0
M  ISO  4   8 100   9 100  57 101  58 101
M  END
>  <TORSDO>  (1) 
F 24

>  <SCORE>  (1) 
-10.518

>  <name>  (1) 
0

>  <ligand_id>  (1) 
0

>  <original_smiles>  (1) 
[H]c1c([H])c([H])c2c(c1[H])C([H])([H])C([H])([H])C([H])([H])C2([H])N([H])C(=O)C1([H])N(C(=O)C([H])(N([H])C(=O)C([H])(N([H])C([H])([H])[H])C([H])([H])[H])C(C([H])([H])[H])(C([H])([H])[H])C([H])([H])[H])C([H])([H])c2c([H])c(OC([H])([H])C([H])([H])C([H])([H])c3c(C([H])([H])C(C([H])([H])[H])(C([H])([H])[H])C([H])(C([H])([H])[H])C([H])([H])[H])nc(C(C(=O)N4C([H])([H])C([H])([H])C([H])([H])C([H])(n5nc(-c6c([H])c([H])c(Oc7c([H])c([H])c(F)c([H])c7F)c([H])c6[H])c(C(=O)N([H])[H])c5N([H])[H])C4([H])[H])(C([H])([H])[H])C([H])([H])[H])n3C([H])(C([H])([H])[H])C([H])([H])[H])c([H])c([H])c2C1([H])[H]

>  <smiles>  (1) 
[H]c1c([H])c([H])c2c(c1[H])C([H])([H])C([H])([H])C([H])([H])C2([H])N([H])C(=O)C1([H])N(C(=O)C([H])(N([H])C(=O)C([H])(N([H])C([H])([H])[H])C([H])([H])[H])C(C([H])([H])[H])(C([H])([H])[H])C([H])([H])[H])C([H])([H])c2c([H])c(OC([H])([H])C([H])([H])C([H])([H])c3c(C([H])([H])C(C([H])([H])[H])(C([H])([H])[H])C([H])(C([H])([H])[H])C([H])([H])[H])nc(C(C(=O)N4C([H])([H])C([H])([H])C([H])([H])C([H])(n5nc(-c6c([H])c([H])c(Oc7c([H])c([H])c(F)c([H])c7F)c([H])c6[H])c(C(=O)N([H])[H])c5N([H])[H])C4([H])[H])(C([H])([H])[H])C([H])([H])[H])n3C([H])(C([H])([H])[H])C([H])([H])[H])c([H])c([H])c2C1([H])[H]

$$$$
1:0:0
     RDKit          3D

 98106  0  0  1  0  0  0  0  0999 V2000
  -31.4020  -21.7090   19.9930 C   0  0  0  0  0  1  0  0  0  0  0  0
  -30.1580  -22.1710   20.7740 C   0  0  0  0  0  3  0  0  0  0  0  0
  -28.0870  -20.7130   20.1710 C   0  0  0  0  0  1  0  0  0  0  0  0
  -29.2370  -20.9510   21.1840 C   0  0  2  0  0  0  0  0  0  0  0  0
  -28.5880  -21.3350   22.2840 F   0  0  0  0  0  0  0  0  0  0  0  0
  -31.0100  -17.1120   21.9990 C   0  0  0  0  0  3  0  0  0  0  0  0
  -30.3340  -17.3720   20.7830 C   0  0  0  0  0  0  0  0  0  0  0  0
  -30.6760  -19.3130   22.6750 C   0  0  0  0  0  0  0  0  0  0  0  0
  -29.9510  -19.5940   21.4790 C   0  0  0  0  0  0  0  0  0  0  0  0
  -30.9580  -20.3590   23.7400 C   0  0  0  0  0  1  0  0  0  0  0  0
  -31.1910  -18.0810   22.9310 N   0  0  0  0  0  0  0  0  0  0  0  0
  -29.8520  -18.6240   20.5290 N   0  0  0  0  0  0  0  0  0  0  0  0
  -31.0070  -16.9290   18.4300 C   0  0  0  0  0  1  0  0  0  0  0  0
  -28.7330  -16.3620   19.1300 C   0  0  0  0  0  1  0  0  0  0  0  0
  -30.1860  -16.3520   19.6240 C   0  0  2  0  0  0  0  0  0  0  0  0
  -30.7640  -14.8950   19.9210 C   0  0  0  0  0  0  0  0  0  0  0  0
  -30.4230  -12.6000   19.1180 C   0  0  0  0  0  2  0  0  0  0  0  0
  -29.4510  -12.6050   17.9200 C   0  0  0  0  0  2  0  0  0  0  0  0
  -28.0130  -12.3800   18.4200 C   0  0  0  0  0  2  0  0  0  0  0  0
  -27.6320  -13.3470   19.5660 C   0  0  0  0  0  3  0  0  0  0  0  0
  -28.7460  -13.4840   20.6390 C   0  0  0  0  0  2  0  0  0  0  0  0
  -30.0400  -13.7300   19.9830 N   0  0  0  0  0  0  0  0  0  0  0  0
  -31.9820  -14.8210   19.7770 O   0  0  0  0  0  0  0  0  0  0  0  0
  -25.3010  -13.9510   20.4440 C   0  0  0  0  0  0  0  0  0  0  0  0
  -24.2560  -13.1730   20.8510 C   0  0  0  0  0  0  0  0  0  0  0  0
  -24.7220  -11.8230   20.7830 C   0  0  0  0  0  0  0  0  0  0  0  0
  -26.3320  -13.0690   20.1460 N   0  0  0  0  0  0  0  0  0  0  0  0
  -25.9950  -11.7880   20.4150 N   0  0  0  0  0  0  0  0  0  0  0  0
  -24.0170  -10.5580   20.9830 C   0  0  0  0  0  0  0  0  0  0  0  0
  -24.4430   -9.6220   21.9510 C   0  0  0  0  0  3  0  0  0  0  0  0
  -23.7340   -8.4170   22.1360 C   0  0  0  0  0  3  0  0  0  0  0  0
  -22.5890   -8.1400   21.3520 C   0  0  0  0  0  0  0  0  0  0  0  0
  -22.1860   -9.0630   20.3720 C   0  0  0  0  0  3  0  0  0  0  0  0
  -22.8940  -10.2600   20.1860 C   0  0  0  0  0  3  0  0  0  0  0  0
  -21.8530   -6.9830   21.4510 O   0  0  0  0  0  0  0  0  0  0  0  0
  -21.7300   -6.3090   22.6390 C   0  0  0  0  0  0  0  0  0  0  0  0
  -21.1630   -6.9130   23.7820 C   0  0  0  0  0  3  0  0  0  0  0  0
  -20.9870   -6.1630   24.9610 C   0  0  0  0  0  3  0  0  0  0  0  0
  -21.3690   -4.8090   24.9970 C   0  0  0  0  0  0  0  0  0  0  0  0
  -21.9290   -4.2020   23.8570 C   0  0  0  0  0  3  0  0  0  0  0  0
  -22.1050   -4.9510   22.6800 C   0  0  0  0  0  0  0  0  0  0  0  0
  -22.6260   -4.3570   21.5790 F   0  0  0  0  0  0  0  0  0  0  0  0
  -21.1940   -4.0850   26.1270 F   0  0  0  0  0  0  0  0  0  0  0  0
  -22.8690  -13.6400   21.1880 C   0  0  0  0  0  0  0  0  0  0  0  0
  -22.1810  -12.9230   22.0690 N   0  0  0  0  0  0  0  0  0  0  0  0
  -22.4080  -14.6760   20.7080 O   0  0  0  0  0  0  0  0  0  0  0  0
  -22.5630  -12.0790   22.4700 H   0  0  0  0  0  0  0  0  0  0  0  0
  -21.2550  -13.2200   22.3460 H   0  0  0  0  0  0  0  0  0  0  0  0
  -25.4480  -15.3240   20.2710 N   0  0  0  0  0  0  0  0  0  0  0  0
  -24.6840  -15.9740   20.4180 H   0  0  0  0  0  0  0  0  0  0  0  0
  -26.2800  -15.7740   19.9110 H   0  0  0  0  0  0  0  0  0  0  0  0
  -29.3530  -23.3080   20.0390 C   0  0  0  0  0  2  0  0  0  0  0  0
  -30.1540  -25.2920   21.4470 C   0  0  0  0  0  1  0  0  0  0  0  0
  -29.7540  -24.8320   20.0280 C   0  0  1  0  0  0  0  0  0  0  0  0
  -30.7940  -24.6730   17.6220 C   0  0  0  0  0  1  0  0  0  0  0  0
  -30.9210  -25.1860   19.0650 C   0  0  0  0  0  2  0  0  0  0  0  0
  -28.4610  -25.6030   19.5900 C   0  0  0  0  0  2  0  0  0  0  0  0
  -28.5440  -27.0380   19.5960 O   0  0  0  0  0  0  0  0  0  0  0  0
  -24.6880  -31.8600   23.1110 C   0  0  0  0  0  0  0  0  0  0  0  0
  -27.3430  -27.7240   19.6440 C   0  0  0  0  0  0  0  0  0  0  0  0
  -23.4550  -30.5360   21.4230 C   0  0  0  0  0  3  0  0  0  0  0  0
  -24.8980  -29.1500   19.8370 C   0  0  0  0  0  0  0  0  0  0  0  0
  -25.9560  -30.9960   21.1450 C   0  0  0  0  0  2  0  0  0  0  0  0
  -26.0600  -29.6740   20.4120 C   0  0  0  0  0  0  0  0  0  0  0  0
  -27.2850  -28.9730   20.3080 C   0  0  0  0  0  3  0  0  0  0  0  0
  -26.1570  -27.2180   19.0580 C   0  0  0  0  0  3  0  0  0  0  0  0
  -24.9430  -27.9250   19.1510 C   0  0  0  0  0  3  0  0  0  0  0  0
  -23.6270  -29.9580   19.9920 C   0  0  0  0  0  2  0  0  0  0  0  0
  -24.7200  -31.1410   21.9530 N   0  0  0  0  0  0  0  0  0  0  0  0
  -23.6220  -32.0620   23.7100 O   0  0  0  0  0  0  0  0  0  0  0  0
  -22.8720  -29.4330   22.3350 C   0  0  0  0  0  0  0  0  0  0  0  0
  -21.5490  -29.2190   22.2460 N   0  0  0  0  0  0  0  0  0  0  0  0
  -23.6030  -28.7780   23.0810 O   0  0  0  0  0  0  0  0  0  0  0  0
  -21.0180  -29.8040   21.6160 H   0  0  0  0  0  0  0  0  0  0  0  0
  -18.2300  -27.8970   22.7890 C   0  0  0  0  0  0  0  0  0  0  0  0
  -20.7890  -28.2030   22.9760 C   0  0  0  0  0  3  0  0  0  0  0  0
  -20.9050  -26.8230   22.2890 C   0  0  0  0  0  2  0  0  0  0  0  0
  -19.7690  -26.5450   21.3010 C   0  0  0  0  0  2  0  0  0  0  0  0
  -18.4110  -26.6040   22.0080 C   0  0  0  0  0  2  0  0  0  0  0  0
  -19.3470  -28.6550   23.2280 C   0  0  0  0  0  0  0  0  0  0  0  0
  -19.1230  -29.8660   23.9190 C   0  0  0  0  0  3  0  0  0  0  0  0
  -17.8160  -30.3190   24.1750 C   0  0  0  0  0  3  0  0  0  0  0  0
  -16.7130  -29.5570   23.7500 C   0  0  0  0  0  3  0  0  0  0  0  0
  -16.9210  -28.3480   23.0640 C   0  0  0  0  0  3  0  0  0  0  0  0
  -25.9790  -32.4860   23.7230 C   0  0  0  0  0  3  0  0  0  0  0  0
  -25.6650  -33.8700   24.1040 N   0  0  0  0  0  0  0  0  0  0  0  0
  -25.9630  -34.9470   23.3650 C   0  0  0  0  0  0  0  0  0  0  0  0
  -26.6030  -34.8820   22.3110 O   0  0  0  0  0  0  0  0  0  0  0  0
  -25.0980  -33.9970   24.9290 H   0  0  0  0  0  0  0  0  0  0  0  0
  -24.1940  -36.7160   23.1260 C   0  0  0  0  0  1  0  0  0  0  0  0
  -25.4730  -36.3150   23.8780 C   0  0  0  0  0  3  0  0  0  0  0  0
  -27.6210  -37.2180   24.6520 C   0  0  0  0  0  1  0  0  0  0  0  0
  -26.4830  -37.3880   23.7510 N   0  0  0  0  0  0  0  0  0  0  0  0
  -26.0680  -38.2970   23.9340 H   0  0  0  0  0  0  0  0  0  0  0  0
  -26.5350  -31.6770   24.9590 C   0  0  1  0  0  0  0  0  0  0  0  0
  -25.4700  -31.3880   26.0440 C   0  0  0  0  0  1  0  0  0  0  0  0
  -27.1240  -30.3220   24.5000 C   0  0  0  0  0  1  0  0  0  0  0  0
  -27.6900  -32.4640   25.6230 C   0  0  0  0  0  1  0  0  0  0  0  0
  2  1  1  0
  2  4  1  0
  4  3  1  6
  4  9  1  0
  4  5  1  0
  6 11  1  0
  7  6  2  0
  8 11  2  0
  8 10  1  0
  9  8  1  0
 12  7  1  0
 12  9  2  0
 15 13  1  6
 14 15  1  0
 15 16  1  0
 15  7  1  0
 16 22  1  0
 17 22  1  0
 18 19  1  0
 18 17  1  0
 20 19  1  0
 20 27  1  0
 20 21  1  0
 22 21  1  0
 23 16  2  0
 24 25  2  0
 25 44  1  0
 26 25  1  0
 26 29  1  0
 27 28  1  0
 27 24  1  0
 28 26  2  0
 29 30  1  0
 30 31  2  0
 32 35  1  0
 32 31  1  0
 33 32  2  0
 34 33  1  0
 34 29  2  0
 35 36  1  0
 36 41  2  0
 36 37  1  0
 37 38  2  0
 38 39  1  0
 39 43  1  0
 40 39  2  0
 41 40  1  0
 42 41  1  0
 44 45  1  0
 45 48  1  0
 45 47  1  0
 46 44  2  0
 49 50  1  0
 49 24  1  0
 51 49  1  0
 52  2  1  0
 54 52  1  0
 54 53  1  1
 55 56  1  0
 56 54  1  0
 57 58  1  0
 57 54  1  0
 58 60  1  0
 59 70  2  0
 60 65  1  0
 61 69  1  0
 61 71  1  0
 62 68  1  0
 62 64  1  0
 63 69  1  0
 64 63  1  0
 65 64  2  0
 66 67  1  0
 66 60  2  0
 67 62  2  0
 68 61  1  0
 69 59  1  0
 71 73  2  0
 72 71  1  0
 74 72  1  0
 75 84  2  0
 75 80  1  0
 76 72  1  0
 76 80  1  0
 77 76  1  0
 78 79  1  0
 78 77  1  0
 79 75  1  0
 80 81  2  0
 81 82  1  0
 83 82  2  0
 84 83  1  0
 85 59  1  0
 85 86  1  0
 85 95  1  0
 86 89  1  0
 87 91  1  0
 87 86  1  0
 88 87  2  0
 91 90  1  0
 93 91  1  0
 93 94  1  0
 93 92  1  0
 95 98  1  1
 95 96  1  0
 97 95  1  0
M  ISO  4  15 100  16 100  57 101  58 101
M  END
>  <TORSDO>  (2) 
F 23

>  <SCORE>  (2) 
-12.177

>  <name>  (2) 
1

>  <ligand_id>  (2) 
1

>  <original_smiles>  (2) 
[H]c1nc(C([H])([H])[H])c(C(F)(C([H])([H])[H])C([H])(C([H])([H])[H])C([H])([H])C(C([H])([H])[H])(C([H])([H])Oc2c([H])c([H])c3c(c2[H])C([H])([H])N(C(=O)C([H])(N([H])C(=O)C([H])(N([H])C([H])([H])[H])C([H])([H])[H])C(C([H])([H])[H])(C([H])([H])[H])C([H])([H])[H])C([H])(C(=O)N([H])C2([H])c4c([H])c([H])c([H])c([H])c4C([H])([H])C([H])([H])C2([H])[H])C3([H])[H])C([H])([H])C([H])([H])[H])nc1C(C(=O)N1C([H])([H])C([H])([H])C([H])([H])C([H])(n2nc(-c3c([H])c([H])c(Oc4c([H])c([H])c(F)c([H])c4F)c([H])c3[H])c(C(=O)N([H])[H])c2N([H])[H])C1([H])[H])(C([H])([H])[H])C([H])([H])[H]

>  <smiles>  (2) 
[H]c1nc(C([H])([H])[H])c(C(F)(C([H])([H])[H])C([H])(C([H])([H])[H])C([H])([H])C(C([H])([H])[H])(C([H])([H])Oc2c([H])c([H])c3c(c2[H])C([H])([H])N(C(=O)C([H])(N([H])C(=O)C([H])(N([H])C([H])([H])[H])C([H])([H])[H])C(C([H])([H])[H])(C([H])([H])[H])C([H])([H])[H])C([H])(C(=O)N([H])C2([H])c4c([H])c([H])c([H])c([H])c4C([H])([H])C([H])([H])C2([H])[H])C3([H])[H])C([H])([H])C([H])([H])[H])nc1C(C(=O)N1C([H])([H])C([H])([H])C([H])([H])C([H])(n2nc(-c3c([H])c([H])c(Oc4c([H])c([H])c(F)c([H])c4F)c([H])c3[H])c(C(=O)N([H])[H])c2N([H])[H])C1([H])[H])(C([H])([H])[H])C([H])([H])[H]

$$$$
2:0:0
     RDKit          3D

 97105  0  0  1  0  0  0  0  0999 V2000
  -27.1010  -21.2160   18.5700 C   0  0  0  0  0  1  0  0  0  0  0  0
  -28.6020  -21.5440   18.3770 C   0  0  1  0  0  0  0  0  0  0  0  0
  -29.8480  -20.7320   20.6500 C   0  0  0  0  0  3  0  0  0  0  0  0
  -29.9040  -19.3600   18.9700 C   0  0  0  0  0  3  0  0  0  0  0  0
  -29.4130  -20.6040   19.2980 C   0  0  0  0  0  0  0  0  0  0  0  0
  -30.6130  -19.7130   21.0540 N   0  0  0  0  0  0  0  0  0  0  0  0
  -30.7060  -18.8790   19.9840 N   0  0  0  0  0  0  0  0  0  0  0  0
  -31.8310  -17.2670   18.4530 C   0  0  0  0  0  1  0  0  0  0  0  0
  -33.0850  -18.5780   20.1260 C   0  0  0  0  0  1  0  0  0  0  0  0
  -31.7510  -17.8190   19.8970 C   0  0  1  0  0  0  0  0  0  0  0  0
  -31.6940  -16.7100   21.0400 C   0  0  0  0  0  2  0  0  0  0  0  0
  -31.1600  -14.4130   20.1470 C   0  0  0  0  0  0  0  0  0  0  0  0
  -30.6000  -12.3090   18.9550 C   0  0  0  0  0  2  0  0  0  0  0  0
  -29.6500  -12.5350   17.7640 C   0  0  0  0  0  2  0  0  0  0  0  0
  -28.1890  -12.4060   18.2260 C   0  0  0  0  0  2  0  0  0  0  0  0
  -27.8980  -13.2890   19.4630 C   0  0  0  0  0  3  0  0  0  0  0  0
  -28.9690  -13.1030   20.5530 C   0  0  0  0  0  2  0  0  0  0  0  0
  -30.3100  -13.3440   19.9790 N   0  0  0  0  0  0  0  0  0  0  0  0
  -32.1970  -14.4710   19.4850 O   0  0  0  0  0  0  0  0  0  0  0  0
  -30.5110  -15.0960   22.3960 C   0  0  0  0  0  1  0  0  0  0  0  0
  -30.8690  -15.4440   21.0040 N   0  0  0  0  0  0  0  0  0  0  0  0
  -25.5420  -13.9710   20.2490 C   0  0  0  0  0  0  0  0  0  0  0  0
  -24.4620  -13.2320   20.6580 C   0  0  0  0  0  0  0  0  0  0  0  0
  -24.8830  -11.8680   20.6270 C   0  0  0  0  0  0  0  0  0  0  0  0
  -26.5510  -13.0550   19.9920 N   0  0  0  0  0  0  0  0  0  0  0  0
  -26.1620  -11.7860   20.2800 N   0  0  0  0  0  0  0  0  0  0  0  0
  -24.1250  -10.6280   20.8490 C   0  0  0  0  0  0  0  0  0  0  0  0
  -24.5310   -9.6730   21.8080 C   0  0  0  0  0  3  0  0  0  0  0  0
  -23.7750   -8.4990   22.0140 C   0  0  0  0  0  3  0  0  0  0  0  0
  -22.5960   -8.2730   21.2660 C   0  0  0  0  0  0  0  0  0  0  0  0
  -22.2080   -9.2160   20.2970 C   0  0  0  0  0  3  0  0  0  0  0  0
  -22.9640  -10.3830   20.0880 C   0  0  0  0  0  3  0  0  0  0  0  0
  -21.8130   -7.1500   21.3820 O   0  0  0  0  0  0  0  0  0  0  0  0
  -21.7140   -6.4620   22.5640 C   0  0  0  0  0  0  0  0  0  0  0  0
  -21.2790   -7.0850   23.7540 C   0  0  0  0  0  3  0  0  0  0  0  0
  -21.1250   -6.3250   24.9310 C   0  0  0  0  0  3  0  0  0  0  0  0
  -21.3910   -4.9420   24.9160 C   0  0  0  0  0  0  0  0  0  0  0  0
  -21.8200   -4.3210   23.7280 C   0  0  0  0  0  3  0  0  0  0  0  0
  -21.9760   -5.0780   22.5560 C   0  0  0  0  0  0  0  0  0  0  0  0
  -22.3670   -4.4690   21.4120 F   0  0  0  0  0  0  0  0  0  0  0  0
  -21.2340   -4.2090   26.0440 F   0  0  0  0  0  0  0  0  0  0  0  0
  -23.0880  -13.7550   20.9640 C   0  0  0  0  0  0  0  0  0  0  0  0
  -22.3720  -13.0960   21.8700 N   0  0  0  0  0  0  0  0  0  0  0  0
  -22.6610  -14.7800   20.4390 O   0  0  0  0  0  0  0  0  0  0  0  0
  -22.7340  -12.2650   22.3160 H   0  0  0  0  0  0  0  0  0  0  0  0
  -21.4580  -13.4340   22.1290 H   0  0  0  0  0  0  0  0  0  0  0  0
  -25.7490  -15.3310   20.0520 N   0  0  0  0  0  0  0  0  0  0  0  0
  -25.0060  -16.0190   20.1210 H   0  0  0  0  0  0  0  0  0  0  0  0
  -26.6190  -15.7290   19.7150 H   0  0  0  0  0  0  0  0  0  0  0  0
  -28.2890  -20.0770   16.1490 C   0  0  0  0  0  1  0  0  0  0  0  0
  -29.1090  -22.4000   15.8640 C   0  0  0  0  0  1  0  0  0  0  0  0
  -29.0460  -21.2230   16.8700 C   0  0  0  0  0  3  0  0  0  0  0  0
  -28.8450  -23.0970   18.6100 C   0  0  0  0  0  2  0  0  0  0  0  0
  -27.1470  -23.7310   20.5330 C   0  0  0  0  0  1  0  0  0  0  0  0
  -28.4960  -24.0100   19.8440 C   0  0  0  0  0  3  0  0  0  0  0  0
  -28.6120  -25.4980   19.3350 C   0  0  0  0  0  2  0  0  0  0  0  0
  -28.4030  -26.5950   20.2540 O   0  0  0  0  0  0  0  0  0  0  0  0
  -24.6750  -31.8890   23.2550 C   0  0  0  0  0  0  0  0  0  0  0  0
  -27.2480  -27.3580   20.1910 C   0  0  0  0  0  0  0  0  0  0  0  0
  -23.4570  -30.5010   21.6100 C   0  0  0  0  0  3  0  0  0  0  0  0
  -24.8910  -28.9410   20.1870 C   0  0  0  0  0  0  0  0  0  0  0  0
  -25.9940  -30.8010   21.4390 C   0  0  0  0  0  2  0  0  0  0  0  0
  -26.0550  -29.4300   20.7890 C   0  0  0  0  0  0  0  0  0  0  0  0
  -27.2320  -28.6430   20.7940 C   0  0  0  0  0  3  0  0  0  0  0  0
  -26.0580  -26.8930   19.5840 C   0  0  0  0  0  3  0  0  0  0  0  0
  -24.8870  -27.6710   19.5880 C   0  0  0  0  0  3  0  0  0  0  0  0
  -23.6610  -29.8210   20.2310 C   0  0  0  0  0  2  0  0  0  0  0  0
  -24.7270  -31.0800   22.1580 N   0  0  0  0  0  0  0  0  0  0  0  0
  -23.5970  -32.1850   23.7850 O   0  0  0  0  0  0  0  0  0  0  0  0
  -22.7820  -29.4940   22.5690 C   0  0  0  0  0  0  0  0  0  0  0  0
  -21.4550  -29.3350   22.4400 N   0  0  0  0  0  0  0  0  0  0  0  0
  -23.4500  -28.8540   23.3840 O   0  0  0  0  0  0  0  0  0  0  0  0
  -20.9730  -29.8890   21.7460 H   0  0  0  0  0  0  0  0  0  0  0  0
  -18.0610  -28.2150   22.9520 C   0  0  0  0  0  0  0  0  0  0  0  0
  -20.6240  -28.4130   23.2140 C   0  0  0  0  0  3  0  0  0  0  0  0
  -20.6920  -26.9830   22.6320 C   0  0  0  0  0  2  0  0  0  0  0  0
  -19.5840  -26.6890   21.6180 C   0  0  0  0  0  2  0  0  0  0  0  0
  -18.2050  -26.8660   22.2640 C   0  0  0  0  0  2  0  0  0  0  0  0
  -19.1980  -28.9480   23.3830 C   0  0  0  0  0  0  0  0  0  0  0  0
  -19.0120  -30.2120   23.9850 C   0  0  0  0  0  3  0  0  0  0  0  0
  -17.7210  -30.7430   24.1560 C   0  0  0  0  0  3  0  0  0  0  0  0
  -16.5970  -30.0060   23.7460 C   0  0  0  0  0  3  0  0  0  0  0  0
  -16.7670  -28.7430   23.1500 C   0  0  0  0  0  3  0  0  0  0  0  0
  -25.9710  -32.4980   23.8810 C   0  0  0  0  0  3  0  0  0  0  0  0
  -25.6860  -33.9020   24.1990 N   0  0  0  0  0  0  0  0  0  0  0  0
  -26.0300  -34.9420   23.4270 C   0  0  0  0  0  0  0  0  0  0  0  0
  -26.6920  -34.8180   22.3920 O   0  0  0  0  0  0  0  0  0  0  0  0
  -25.1000  -34.0770   25.0030 H   0  0  0  0  0  0  0  0  0  0  0  0
  -24.3230  -36.7490   23.0650 C   0  0  0  0  0  1  0  0  0  0  0  0
  -25.5640  -36.3400   23.8730 C   0  0  0  0  0  3  0  0  0  0  0  0
  -27.7160  -37.2060   24.6770 C   0  0  0  0  0  1  0  0  0  0  0  0
  -26.6100  -37.3780   23.7400 N   0  0  0  0  0  0  0  0  0  0  0  0
  -26.2190  -38.3040   23.8780 H   0  0  0  0  0  0  0  0  0  0  0  0
  -26.4690  -31.7280   25.1640 C   0  0  1  0  0  0  0  0  0  0  0  0
  -25.3640  -31.5180   26.2260 C   0  0  0  0  0  1  0  0  0  0  0  0
  -27.0330  -30.3400   24.7900 C   0  0  0  0  0  1  0  0  0  0  0  0
  -27.6330  -32.5050   25.8230 C   0  0  0  0  0  1  0  0  0  0  0  0
  2  1  1  6
  2 53  1  0
  2  5  1  0
  3  6  2  0
  4  5  2  0
  4  7  1  0
  5  3  1  0
  7  6  1  0
 10  8  1  6
 10  7  1  0
 10  9  1  0
 10 11  1  0
 12 21  1  0
 13 18  1  0
 14 15  1  0
 14 13  1  0
 16 15  1  0
 16 25  1  0
 16 17  1  0
 18 12  1  0
 18 17  1  0
 19 12  2  0
 21 11  1  0
 21 20  1  0
 22 23  2  0
 23 42  1  0
 24 23  1  0
 24 27  1  0
 25 22  1  0
 25 26  1  0
 26 24  2  0
 27 28  1  0
 28 29  2  0
 30 33  1  0
 30 29  1  0
 31 30  2  0
 32 31  1  0
 32 27  2  0
 33 34  1  0
 34 35  1  0
 35 36  2  0
 37 36  1  0
 37 41  1  0
 38 37  2  0
 39 34  2  0
 39 38  1  0
 40 39  1  0
 42 43  1  0
 43 46  1  0
 43 45  1  0
 44 42  2  0
 47 48  1  0
 47 22  1  0
 49 47  1  0
 50 52  1  0
 51 52  1  0
 52  2  1  0
 53 55  1  0
 55 54  1  0
 56 55  1  0
 56 57  1  0
 58 69  2  0
 59 57  1  0
 59 64  1  0
 60 68  1  0
 60 70  1  0
 61 67  1  0
 61 63  1  0
 62 68  1  0
 63 64  2  0
 63 62  1  0
 65 66  1  0
 65 59  2  0
 66 61  2  0
 67 60  1  0
 68 58  1  0
 70 72  2  0
 71 70  1  0
 73 71  1  0
 74 83  2  0
 74 79  1  0
 75 71  1  0
 75 79  1  0
 76 75  1  0
 77 78  1  0
 77 76  1  0
 78 74  1  0
 79 80  2  0
 80 81  1  0
 82 81  2  0
 83 82  1  0
 84 58  1  0
 84 85  1  0
 84 94  1  0
 85 88  1  0
 86 90  1  0
 86 85  1  0
 87 86  2  0
 90 89  1  0
 92 90  1  0
 92 93  1  0
 92 91  1  0
 94 97  1  1
 94 95  1  0
 96 94  1  0
M  ISO  4  12 100  21 100  56 101  57 101
M  END
>  <TORSDO>  (3) 
F 23

>  <SCORE>  (3) 
-11.363

>  <name>  (3) 
2

>  <ligand_id>  (3) 
2

>  <original_smiles>  (3) 
[H]c1nn(C(C([H])([H])[H])(C([H])([H])[H])C([H])([H])N(C(=O)N2C([H])([H])C([H])([H])C([H])([H])C([H])(n3nc(-c4c([H])c([H])c(Oc5c([H])c([H])c(F)c([H])c5F)c([H])c4[H])c(C(=O)N([H])[H])c3N([H])[H])C2([H])[H])C([H])([H])[H])c([H])c1C(C([H])([H])[H])(C([H])([H])C([H])(C([H])([H])[H])C([H])([H])Oc1c([H])c([H])c2c(c1[H])C([H])([H])N(C(=O)C([H])(N([H])C(=O)C([H])(N([H])C([H])([H])[H])C([H])([H])[H])C(C([H])([H])[H])(C([H])([H])[H])C([H])([H])[H])C([H])(C(=O)N([H])C1([H])c3c([H])c([H])c([H])c([H])c3C([H])([H])C([H])([H])C1([H])[H])C2([H])[H])C([H])(C([H])([H])[H])C([H])([H])[H]

>  <smiles>  (3) 
[H]c1nn(C(C([H])([H])[H])(C([H])([H])[H])C([H])([H])N(C(=O)N2C([H])([H])C([H])([H])C([H])([H])C([H])(n3nc(-c4c([H])c([H])c(Oc5c([H])c([H])c(F)c([H])c5F)c([H])c4[H])c(C(=O)N([H])[H])c3N([H])[H])C2([H])[H])C([H])([H])[H])c([H])c1C(C([H])([H])[H])(C([H])([H])C([H])(C([H])([H])[H])C([H])([H])Oc1c([H])c([H])c2c(c1[H])C([H])([H])N(C(=O)C([H])(N([H])C(=O)C([H])(N([H])C([H])([H])[H])C([H])([H])[H])C(C([H])([H])[H])(C([H])([H])[H])C([H])([H])[H])C([H])(C(=O)N([H])C1([H])c3c([H])c([H])c([H])c([H])c3C([H])([H])C([H])([H])C1([H])[H])C2([H])[H])C([H])(C([H])([H])[H])C([H])([H])[H]

$$$$
3:0:0
     RDKit          3D

 98106  0  0  1  0  0  0  0  0999 V2000
  -28.6620  -18.6610   19.9060 C   0  0  0  0  0  3  0  0  0  0  0  0
  -29.8850  -17.8970   19.9320 C   0  0  0  0  0  0  0  0  0  0  0  0
  -28.8330  -19.9380   19.9060 N   0  0  0  0  0  0  0  0  0  0  0  0
  -30.8500  -18.8330   20.0410 N   0  0  0  0  0  0  0  0  0  0  0  0
  -30.1530  -20.0740   20.0520 N   0  0  0  0  0  0  0  0  0  0  0  0
  -30.6550  -21.4970   20.1300 C   0  0  0  0  0  2  0  0  0  0  0  0
  -29.0870  -22.4700   21.9450 C   0  0  0  0  0  1  0  0  0  0  0  0
  -29.5380  -22.6380   20.4710 C   0  0  0  0  0  3  0  0  0  0  0  0
  -30.7530  -24.8280   21.1070 C   0  0  0  0  0  1  0  0  0  0  0  0
  -30.3860  -24.2820   18.6950 C   0  0  0  0  0  1  0  0  0  0  0  0
  -29.7690  -24.1980   20.1050 C   0  0  1  0  0  0  0  0  0  0  0  0
  -28.4280  -25.0930   20.0740 C   0  0  0  0  0  2  0  0  0  0  0  0
  -28.5180  -26.5610   19.9230 O   0  0  0  0  0  0  0  0  0  0  0  0
  -24.5670  -31.6940   23.0790 C   0  0  0  0  0  0  0  0  0  0  0  0
  -27.3320  -27.3170   19.9120 C   0  0  0  0  0  0  0  0  0  0  0  0
  -23.3950  -30.2950   21.4130 C   0  0  0  0  0  3  0  0  0  0  0  0
  -24.8900  -28.8190   19.9500 C   0  0  0  0  0  0  0  0  0  0  0  0
  -25.9170  -30.7090   21.2160 C   0  0  0  0  0  2  0  0  0  0  0  0
  -26.0420  -29.3470   20.5440 C   0  0  0  0  0  0  0  0  0  0  0  0
  -27.2620  -28.6110   20.5090 C   0  0  0  0  0  3  0  0  0  0  0  0
  -26.1490  -26.8290   19.3050 C   0  0  0  0  0  3  0  0  0  0  0  0
  -24.9440  -27.5650   19.3210 C   0  0  0  0  0  3  0  0  0  0  0  0
  -23.6220  -29.6480   20.0190 C   0  0  0  0  0  2  0  0  0  0  0  0
  -24.6440  -30.9160   21.9610 N   0  0  0  0  0  0  0  0  0  0  0  0
  -23.4790  -31.9250   23.6290 O   0  0  0  0  0  0  0  0  0  0  0  0
  -22.7690  -29.2410   22.3560 C   0  0  0  0  0  0  0  0  0  0  0  0
  -21.4470  -29.0300   22.2340 N   0  0  0  0  0  0  0  0  0  0  0  0
  -23.4700  -28.6170   23.1560 O   0  0  0  0  0  0  0  0  0  0  0  0
  -20.9380  -29.5880   21.5630 H   0  0  0  0  0  0  0  0  0  0  0  0
  -18.1100  -27.7320   22.7360 C   0  0  0  0  0  0  0  0  0  0  0  0
  -20.6630  -28.0510   22.9870 C   0  0  0  0  0  3  0  0  0  0  0  0
  -20.7950  -26.6380   22.3720 C   0  0  0  0  0  2  0  0  0  0  0  0
  -19.6910  -26.3130   21.3620 C   0  0  0  0  0  2  0  0  0  0  0  0
  -18.3130  -26.4060   22.0240 C   0  0  0  0  0  2  0  0  0  0  0  0
  -19.2140  -28.5110   23.1750 C   0  0  0  0  0  0  0  0  0  0  0  0
  -18.9700  -29.7510   23.8020 C   0  0  0  0  0  3  0  0  0  0  0  0
  -17.6560  -30.2150   23.9950 C   0  0  0  0  0  3  0  0  0  0  0  0
  -16.5670  -29.4340   23.5730 C   0  0  0  0  0  3  0  0  0  0  0  0
  -16.7950  -28.1940   22.9480 C   0  0  0  0  0  3  0  0  0  0  0  0
  -25.8350  -32.3490   23.7090 C   0  0  0  0  0  3  0  0  0  0  0  0
  -26.3960  -31.5520   24.9490 C   0  0  1  0  0  0  0  0  0  0  0  0
  -25.3270  -31.2380   26.0220 C   0  0  0  0  0  1  0  0  0  0  0  0
  -27.0220  -30.2100   24.4990 C   0  0  0  0  0  1  0  0  0  0  0  0
  -27.5260  -32.3630   25.6260 C   0  0  0  0  0  1  0  0  0  0  0  0
  -25.4810  -33.7230   24.0940 N   0  0  0  0  0  0  0  0  0  0  0  0
  -25.7470  -34.8120   23.3600 C   0  0  0  0  0  0  0  0  0  0  0  0
  -26.3860  -34.7690   22.3050 O   0  0  0  0  0  0  0  0  0  0  0  0
  -24.9070  -33.8290   24.9160 H   0  0  0  0  0  0  0  0  0  0  0  0
  -23.9310  -36.5380   23.1300 C   0  0  0  0  0  1  0  0  0  0  0  0
  -25.2220  -36.1650   23.8770 C   0  0  0  0  0  3  0  0  0  0  0  0
  -27.3490  -37.1220   24.6450 C   0  0  0  0  0  1  0  0  0  0  0  0
  -26.2030  -37.2650   23.7520 N   0  0  0  0  0  0  0  0  0  0  0  0
  -25.7640  -38.1620   23.9400 H   0  0  0  0  0  0  0  0  0  0  0  0
  -29.6770  -16.2820   19.9410 C   0  0  1  0  0  0  0  0  0  0  0  0
  -30.6700  -14.9480   19.7620 C   0  0  0  0  0  0  0  0  0  0  0  0
  -30.5480  -12.6220   18.7480 C   0  0  0  0  0  2  0  0  0  0  0  0
  -29.4560  -12.5000   17.6440 C   0  0  0  0  0  2  0  0  0  0  0  0
  -28.0030  -12.4100   18.1960 C   0  0  0  0  0  2  0  0  0  0  0  0
  -27.7470  -13.2280   19.4910 C   0  0  0  0  0  3  0  0  0  0  0  0
  -28.9560  -13.0860   20.4440 C   0  0  0  0  0  2  0  0  0  0  0  0
  -30.1520  -13.6390   19.7600 N   0  0  0  0  0  0  0  0  0  0  0  0
  -31.8470  -15.0830   19.3980 O   0  0  0  0  0  0  0  0  0  0  0  0
  -25.4190  -13.8480   20.4210 C   0  0  0  0  0  0  0  0  0  0  0  0
  -24.4030  -13.0750   20.8940 C   0  0  0  0  0  0  0  0  0  0  0  0
  -24.8540  -11.7280   20.7730 C   0  0  0  0  0  0  0  0  0  0  0  0
  -26.4520  -12.9670   20.0970 N   0  0  0  0  0  0  0  0  0  0  0  0
  -26.1110  -11.6870   20.3540 N   0  0  0  0  0  0  0  0  0  0  0  0
  -24.1410  -10.4700   20.9680 C   0  0  0  0  0  0  0  0  0  0  0  0
  -24.5970   -9.5090   21.8950 C   0  0  0  0  0  3  0  0  0  0  0  0
  -23.8830   -8.3070   22.0810 C   0  0  0  0  0  3  0  0  0  0  0  0
  -22.7040   -8.0630   21.3380 C   0  0  0  0  0  0  0  0  0  0  0  0
  -22.2710   -9.0140   20.3960 C   0  0  0  0  0  3  0  0  0  0  0  0
  -22.9860  -10.2070   20.2070 C   0  0  0  0  0  3  0  0  0  0  0  0
  -21.9590   -6.9140   21.4370 O   0  0  0  0  0  0  0  0  0  0  0  0
  -21.8360   -6.2400   22.6250 C   0  0  0  0  0  0  0  0  0  0  0  0
  -21.3140   -6.8580   23.7820 C   0  0  0  0  0  3  0  0  0  0  0  0
  -21.1420   -6.1090   24.9630 C   0  0  0  0  0  3  0  0  0  0  0  0
  -21.4830   -4.7440   24.9850 C   0  0  0  0  0  0  0  0  0  0  0  0
  -22.0000   -4.1260   23.8330 C   0  0  0  0  0  3  0  0  0  0  0  0
  -22.1730   -4.8740   22.6550 C   0  0  0  0  0  0  0  0  0  0  0  0
  -22.6510   -4.2700   21.5390 F   0  0  0  0  0  0  0  0  0  0  0  0
  -21.3090   -4.0200   26.1150 F   0  0  0  0  0  0  0  0  0  0  0  0
  -23.0440  -13.5530   21.3210 C   0  0  0  0  0  0  0  0  0  0  0  0
  -22.4120  -12.8440   22.2470 N   0  0  0  0  0  0  0  0  0  0  0  0
  -22.5590  -14.5930   20.8740 O   0  0  0  0  0  0  0  0  0  0  0  0
  -22.8230  -12.0080   22.6360 H   0  0  0  0  0  0  0  0  0  0  0  0
  -21.5060  -13.1450   22.5760 H   0  0  0  0  0  0  0  0  0  0  0  0
  -25.4940  -15.2200   20.2090 N   0  0  0  0  0  0  0  0  0  0  0  0
  -24.6970  -15.8160   20.3970 H   0  0  0  0  0  0  0  0  0  0  0  0
  -26.2280  -15.6910   19.6980 H   0  0  0  0  0  0  0  0  0  0  0  0
  -29.0460  -16.1330   21.4040 C   0  0  1  0  0  0  0  0  0  0  0  0
  -28.8120  -17.2580   22.0910 F   0  0  0  0  0  0  0  0  0  0  0  0
  -27.8840  -15.5250   21.4090 F   0  0  0  0  0  0  0  0  0  0  0  0
  -29.8660  -15.4600   22.2180 F   0  0  0  0  0  0  0  0  0  0  0  0
  -28.7940  -16.2360   18.5850 C   0  0  1  0  0  0  0  0  0  0  0  0
  -28.9410  -15.1790   17.8110 F   0  0  0  0  0  0  0  0  0  0  0  0
  -27.4810  -16.3560   18.7880 F   0  0  0  0  0  0  0  0  0  0  0  0
  -29.1500  -17.1720   17.6920 F   0  0  0  0  0  0  0  0  0  0  0  0
  1  2  1  0
  2 54  1  0
  2  4  2  0
  3  1  2  0
  3  5  1  0
  4  5  1  0
  5  6  1  0
  6  8  1  0
  8  7  1  0
 11 10  1  6
 11  8  1  0
 11  9  1  0
 12 11  1  0
 13 12  1  0
 14 25  2  0
 15 13  1  0
 15 20  1  0
 16 24  1  0
 16 26  1  0
 17 23  1  0
 17 19  1  0
 18 24  1  0
 19 18  1  0
 20 19  2  0
 21 22  1  0
 21 15  2  0
 22 17  2  0
 23 16  1  0
 24 14  1  0
 26 28  2  0
 27 26  1  0
 29 27  1  0
 30 39  2  0
 30 35  1  0
 31 27  1  0
 31 35  1  0
 32 31  1  0
 33 34  1  0
 33 32  1  0
 34 30  1  0
 35 36  2  0
 36 37  1  0
 38 37  2  0
 39 38  1  0
 40 14  1  0
 40 45  1  0
 40 41  1  0
 41 44  1  1
 41 42  1  0
 43 41  1  0
 45 48  1  0
 46 50  1  0
 46 45  1  0
 47 46  2  0
 50 49  1  0
 52 50  1  0
 52 53  1  0
 52 51  1  0
 54 91  1  0
 54 55  1  6
 56 61  1  0
 57 58  1  0
 57 56  1  0
 59 58  1  0
 59 66  1  0
 59 60  1  0
 61 55  1  0
 61 60  1  0
 62 55  2  0
 63 64  2  0
 64 83  1  0
 65 64  1  0
 65 68  1  0
 66 67  1  0
 66 63  1  0
 67 65  2  0
 68 69  1  0
 69 70  2  0
 71 74  1  0
 71 70  1  0
 72 71  2  0
 73 72  1  0
 73 68  2  0
 74 75  1  0
 75 80  2  0
 75 76  1  0
 76 77  2  0
 77 78  1  0
 78 82  1  0
 79 78  2  0
 80 79  1  0
 81 80  1  0
 83 84  1  0
 84 87  1  0
 84 86  1  0
 85 83  2  0
 88 89  1  0
 88 63  1  0
 90 88  1  0
 91 93  1  6
 91 92  1  0
 91 94  1  0
 95 97  1  1
 95 54  1  0
 96 95  1  0
 98 95  1  0
M  ISO  4  12 101  13 101  54 100  55 100
M  END
>  <TORSDO>  (4) 
F 23

>  <SCORE>  (4) 
-10.095

>  <name>  (4) 
3

>  <ligand_id>  (4) 
3

>  <original_smiles>  (4) 
[H]c1nn(C([H])([H])C([H])(C([H])([H])[H])C(C([H])([H])[H])(C([H])([H])[H])C([H])([H])Oc2c([H])c([H])c3c(c2[H])C([H])([H])N(C(=O)C([H])(N([H])C(=O)C([H])(N([H])C([H])([H])[H])C([H])([H])[H])C(C([H])([H])[H])(C([H])([H])[H])C([H])([H])[H])C([H])(C(=O)N([H])C2([H])c4c([H])c([H])c([H])c([H])c4C([H])([H])C([H])([H])C2([H])[H])C3([H])[H])nc1C(C(=O)N1C([H])([H])C([H])([H])C([H])([H])C([H])(n2nc(-c3c([H])c([H])c(Oc4c([H])c([H])c(F)c([H])c4F)c([H])c3[H])c(C(=O)N([H])[H])c2N([H])[H])C1([H])[H])(C(F)(F)F)C(F)(F)F

>  <smiles>  (4) 
[H]c1nn(C([H])([H])C([H])(C([H])([H])[H])C(C([H])([H])[H])(C([H])([H])[H])C([H])([H])Oc2c([H])c([H])c3c(c2[H])C([H])([H])N(C(=O)C([H])(N([H])C(=O)C([H])(N([H])C([H])([H])[H])C([H])([H])[H])C(C([H])([H])[H])(C([H])([H])[H])C([H])([H])[H])C([H])(C(=O)N([H])C2([H])c4c([H])c([H])c([H])c([H])c4C([H])([H])C([H])([H])C2([H])[H])C3([H])[H])nc1C(C(=O)N1C([H])([H])C([H])([H])C([H])([H])C([H])(n2nc(-c3c([H])c([H])c(Oc4c([H])c([H])c(F)c([H])c4F)c([H])c3[H])c(C(=O)N([H])[H])c2N([H])[H])C1([H])[H])(C(F)(F)F)C(F)(F)F

$$$$
4:0:0
     RDKit          3D

 89 97  0  0  1  0  0  0  0  0999 V2000
  -28.2870  -24.2700   19.7540 C   0  0  0  0  0  3  0  0  0  0  0  0
  -27.9870  -22.8940   17.5350 C   0  0  0  0  0  1  0  0  0  0  0  0
  -27.4330  -23.9770   18.4820 C   0  0  2  0  0  0  0  0  0  0  0  0
  -27.3810  -25.0530   17.6960 F   0  0  0  0  0  0  0  0  0  0  0  0
  -26.2050  -23.5940   18.8360 F   0  0  0  0  0  0  0  0  0  0  0  0
  -28.2210  -25.8710   20.2520 O   0  0  0  0  0  0  0  0  0  0  0  0
  -24.5760  -31.8660   23.1480 C   0  0  0  0  0  0  0  0  0  0  0  0
  -27.1850  -26.9600   20.1750 C   0  0  0  0  0  0  0  0  0  0  0  0
  -23.4060  -30.4510   21.5140 C   0  0  0  0  0  3  0  0  0  0  0  0
  -24.8750  -28.8530   20.1180 C   0  0  0  0  0  0  0  0  0  0  0  0
  -25.9780  -30.6730   21.3870 C   0  0  0  0  0  2  0  0  0  0  0  0
  -26.0620  -29.2610   20.7370 C   0  0  0  0  0  0  0  0  0  0  0  0
  -27.2100  -28.3390   20.7370 C   0  0  0  0  0  3  0  0  0  0  0  0
  -25.9370  -26.7060   19.5610 C   0  0  0  0  0  3  0  0  0  0  0  0
  -24.8370  -27.5920   19.5160 C   0  0  0  0  0  3  0  0  0  0  0  0
  -23.6530  -29.7670   20.1440 C   0  0  0  0  0  2  0  0  0  0  0  0
  -24.6750  -31.0230   22.0700 N   0  0  0  0  0  0  0  0  0  0  0  0
  -23.4790  -32.1530   23.6550 O   0  0  0  0  0  0  0  0  0  0  0  0
  -22.7120  -29.4530   22.4790 C   0  0  0  0  0  0  0  0  0  0  0  0
  -21.3820  -29.2880   22.3530 N   0  0  0  0  0  0  0  0  0  0  0  0
  -23.3770  -28.8310   23.3100 O   0  0  0  0  0  0  0  0  0  0  0  0
  -20.8970  -29.8440   21.6630 H   0  0  0  0  0  0  0  0  0  0  0  0
  -17.9980  -28.0910   22.8760 C   0  0  0  0  0  0  0  0  0  0  0  0
  -20.5590  -28.3510   23.1270 C   0  0  0  0  0  3  0  0  0  0  0  0
  -20.6540  -26.9200   22.5500 C   0  0  0  0  0  2  0  0  0  0  0  0
  -19.5460  -26.6010   21.5410 C   0  0  0  0  0  2  0  0  0  0  0  0
  -18.1680  -26.7440   22.1930 C   0  0  0  0  0  2  0  0  0  0  0  0
  -19.1190  -28.8530   23.3010 C   0  0  0  0  0  0  0  0  0  0  0  0
  -18.9020  -30.1110   23.9030 C   0  0  0  0  0  3  0  0  0  0  0  0
  -17.5970  -30.6090   24.0830 C   0  0  0  0  0  3  0  0  0  0  0  0
  -16.4910  -29.8450   23.6720 C   0  0  0  0  0  3  0  0  0  0  0  0
  -16.6910  -28.5880   23.0750 C   0  0  0  0  0  3  0  0  0  0  0  0
  -25.8350  -32.5250   23.7870 C   0  0  0  0  0  3  0  0  0  0  0  0
  -26.3440  -31.7660   25.0750 C   0  0  1  0  0  0  0  0  0  0  0  0
  -25.2390  -31.5180   26.1310 C   0  0  0  0  0  1  0  0  0  0  0  0
  -26.9510  -30.3940   24.7040 C   0  0  0  0  0  1  0  0  0  0  0  0
  -27.4720  -32.5800   25.7500 C   0  0  0  0  0  1  0  0  0  0  0  0
  -25.4960  -33.9190   24.1240 N   0  0  0  0  0  0  0  0  0  0  0  0
  -25.8250  -34.9890   23.3880 C   0  0  0  0  0  0  0  0  0  0  0  0
  -26.5090  -34.9070   22.3640 O   0  0  0  0  0  0  0  0  0  0  0  0
  -24.8890  -34.0550   24.9190 H   0  0  0  0  0  0  0  0  0  0  0  0
  -24.0950  -36.7840   23.0280 C   0  0  0  0  0  1  0  0  0  0  0  0
  -25.3190  -36.3670   23.8590 C   0  0  0  0  0  3  0  0  0  0  0  0
  -27.4240  -37.2570   24.7610 C   0  0  0  0  0  1  0  0  0  0  0  0
  -26.3460  -37.4290   23.7900 N   0  0  0  0  0  0  0  0  0  0  0  0
  -25.9290  -38.3440   23.9400 H   0  0  0  0  0  0  0  0  0  0  0  0
  -29.0630  -22.7010   20.2780 C   0  0  0  0  0  2  0  0  0  0  0  0
  -28.5560  -20.9900   20.5260 C   0  0  0  0  0  2  0  0  0  0  0  0
  -29.8150  -18.2470   20.7780 C   0  0  0  0  0  3  0  0  0  0  0  0
  -28.6920  -18.7140   19.0700 C   0  0  0  0  0  3  0  0  0  0  0  0
  -29.7340  -16.9320   20.0990 C   0  0  0  0  0  0  0  0  0  0  0  0
  -28.9930  -17.3830   18.9810 N   0  0  0  0  0  0  0  0  0  0  0  0
  -29.1010  -19.4300   20.1480 N   0  0  0  0  0  0  0  0  0  0  0  0
  -30.4810  -15.3570   20.1660 C   0  0  0  0  0  0  0  0  0  0  0  0
  -30.4320  -12.9060   19.3070 C   0  0  0  0  0  2  0  0  0  0  0  0
  -29.4930  -12.6960   18.0930 C   0  0  0  0  0  2  0  0  0  0  0  0
  -28.0540  -12.4170   18.5580 C   0  0  0  0  0  2  0  0  0  0  0  0
  -27.6160  -13.3750   19.6930 C   0  0  0  0  0  3  0  0  0  0  0  0
  -28.6830  -13.5510   20.7890 C   0  0  0  0  0  2  0  0  0  0  0  0
  -29.9010  -14.0530   20.1350 N   0  0  0  0  0  0  0  0  0  0  0  0
  -31.7100  -15.2950   20.0010 O   0  0  0  0  0  0  0  0  0  0  0  0
  -25.2710  -13.9010   20.5330 C   0  0  0  0  0  0  0  0  0  0  0  0
  -24.2240  -13.1100   20.9170 C   0  0  0  0  0  0  0  0  0  0  0  0
  -24.6980  -11.7630   20.8480 C   0  0  0  0  0  0  0  0  0  0  0  0
  -26.3090  -13.0370   20.2400 N   0  0  0  0  0  0  0  0  0  0  0  0
  -25.9810  -11.7430   20.4990 N   0  0  0  0  0  0  0  0  0  0  0  0
  -23.9820  -10.4920   21.0320 C   0  0  0  0  0  0  0  0  0  0  0  0
  -24.4210   -9.5240   21.9620 C   0  0  0  0  0  3  0  0  0  0  0  0
  -23.7010   -8.3220   22.1360 C   0  0  0  0  0  3  0  0  0  0  0  0
  -22.5290   -8.0790   21.3790 C   0  0  0  0  0  0  0  0  0  0  0  0
  -22.1100   -9.0350   20.4380 C   0  0  0  0  0  3  0  0  0  0  0  0
  -22.8310  -10.2290   20.2620 C   0  0  0  0  0  3  0  0  0  0  0  0
  -21.7810   -6.9290   21.4640 O   0  0  0  0  0  0  0  0  0  0  0  0
  -21.7120   -6.1970   22.6230 C   0  0  0  0  0  0  0  0  0  0  0  0
  -21.2290   -6.7530   23.8280 C   0  0  0  0  0  3  0  0  0  0  0  0
  -21.1100   -5.9460   24.9770 C   0  0  0  0  0  3  0  0  0  0  0  0
  -21.4650   -4.5860   24.9230 C   0  0  0  0  0  0  0  0  0  0  0  0
  -21.9400   -4.0290   23.7220 C   0  0  0  0  0  3  0  0  0  0  0  0
  -22.0620   -4.8330   22.5750 C   0  0  0  0  0  0  0  0  0  0  0  0
  -22.5000   -4.2870   21.4150 F   0  0  0  0  0  0  0  0  0  0  0  0
  -21.3430   -3.8080   26.0240 F   0  0  0  0  0  0  0  0  0  0  0  0
  -22.8320  -13.5730   21.2270 C   0  0  0  0  0  0  0  0  0  0  0  0
  -22.1260  -12.8540   22.0930 N   0  0  0  0  0  0  0  0  0  0  0  0
  -22.3800  -14.6070   20.7370 O   0  0  0  0  0  0  0  0  0  0  0  0
  -22.5050  -12.0180   22.5110 H   0  0  0  0  0  0  0  0  0  0  0  0
  -21.1910  -13.1450   22.3430 H   0  0  0  0  0  0  0  0  0  0  0  0
  -25.4230  -15.2750   20.3790 N   0  0  0  0  0  0  0  0  0  0  0  0
  -24.6610  -15.9280   20.5330 H   0  0  0  0  0  0  0  0  0  0  0  0
  -26.2660  -15.7230   20.0400 H   0  0  0  0  0  0  0  0  0  0  0  0
  1  6  1  0
  1 47  1  0
  3  2  1  6
  3  5  1  0
  3  1  1  0
  4  3  1  0
  7 18  2  0
  8  6  1  0
  8 13  1  0
  9 17  1  0
  9 19  1  0
 10 16  1  0
 10 12  1  0
 11 17  1  0
 12 13  2  0
 12 11  1  0
 14  8  2  0
 15 14  1  0
 15 10  2  0
 16  9  1  0
 17  7  1  0
 19 21  2  0
 20 19  1  0
 22 20  1  0
 23 32  2  0
 23 28  1  0
 24 20  1  0
 24 28  1  0
 25 24  1  0
 26 27  1  0
 26 25  1  0
 27 23  1  0
 28 29  2  0
 29 30  1  0
 31 30  2  0
 32 31  1  0
 33  7  1  0
 33 38  1  0
 33 34  1  0
 34 37  1  1
 34 35  1  0
 36 34  1  0
 38 41  1  0
 39 43  1  0
 39 38  1  0
 40 39  2  0
 43 42  1  0
 45 43  1  0
 45 46  1  0
 45 44  1  0
 47 48  1  0
 50 53  1  0
 51 54  1  0
 51 49  2  0
 52 50  2  0
 52 51  1  0
 53 48  1  0
 53 49  1  0
 55 60  1  0
 56 57  1  0
 56 55  1  0
 58 57  1  0
 58 65  1  0
 58 59  1  0
 60 54  1  0
 60 59  1  0
 61 54  2  0
 62 63  2  0
 63 82  1  0
 64 63  1  0
 64 67  1  0
 65 66  1  0
 65 62  1  0
 66 64  2  0
 67 68  1  0
 68 69  2  0
 70 73  1  0
 70 69  1  0
 71 70  2  0
 72 71  1  0
 72 67  2  0
 73 74  1  0
 74 75  1  0
 75 76  2  0
 77 76  1  0
 77 81  1  0
 78 77  2  0
 79 74  2  0
 79 78  1  0
 80 79  1  0
 82 83  1  0
 83 86  1  0
 83 85  1  0
 84 82  2  0
 87 62  1  0
 87 88  1  0
 89 87  1  0
M  ISO  4   1 101   6 101  51 100  54 100
M  END
>  <TORSDO>  (5) 
F 20

>  <SCORE>  (5) 
-16.497

>  <name>  (5) 
4

>  <ligand_id>  (5) 
4

>  <original_smiles>  (5) 
[H]c1c([H])c([H])c2c(c1[H])C([H])([H])C([H])([H])C([H])([H])C2([H])N([H])C(=O)C1([H])N(C(=O)C([H])(N([H])C(=O)C([H])(N([H])C([H])([H])[H])C([H])([H])[H])C(C([H])([H])[H])(C([H])([H])[H])C([H])([H])[H])C([H])([H])c2c([H])c(OC([H])(C([H])([H])C([H])([H])n3c([H])nc(C(=O)N4C([H])([H])C([H])([H])C([H])([H])C([H])(n5nc(-c6c([H])c([H])c(Oc7c([H])c([H])c(F)c([H])c7F)c([H])c6[H])c(C(=O)N([H])[H])c5N([H])[H])C4([H])[H])c3[H])C(F)(F)C([H])([H])[H])c([H])c([H])c2C1([H])[H]

>  <smiles>  (5) 
[H]c1c([H])c([H])c2c(c1[H])C([H])([H])C([H])([H])C([H])([H])C2([H])N([H])C(=O)C1([H])N(C(=O)C([H])(N([H])C(=O)C([H])(N([H])C([H])([H])[H])C([H])([H])[H])C(C([H])([H])[H])(C([H])([H])[H])C([H])([H])[H])C([H])([H])c2c([H])c(OC([H])(C([H])([H])C([H])([H])n3c([H])nc(C(=O)N4C([H])([H])C([H])([H])C([H])([H])C([H])(n5nc(-c6c([H])c([H])c(Oc7c([H])c([H])c(F)c([H])c7F)c([H])c6[H])c(C(=O)N([H])[H])c5N([H])[H])C4([H])[H])c3[H])C(F)(F)C([H])([H])[H])c([H])c([H])c2C1([H])[H]

$$$$
5:0:0
     RDKit          3D

 94102  0  0  1  0  0  0  0  0999 V2000
  -27.9580  -22.1110   22.2750 C   0  0  0  0  0  1  0  0  0  0  0  0
  -29.0170  -22.5210   21.2340 C   0  0  0  0  0  3  0  0  0  0  0  0
  -29.1400  -19.8950   20.7160 C   0  0  0  0  0  3  0  0  0  0  0  0
  -29.8930  -19.1190   19.8530 C   0  0  0  0  0  0  0  0  0  0  0  0
  -30.6940  -20.0620   19.1720 N   0  0  0  0  0  0  0  0  0  0  0  0
  -30.4440  -21.2910   19.5640 N   0  0  0  0  0  0  0  0  0  0  0  0
  -29.4540  -21.2600   20.4920 N   0  0  0  0  0  0  0  0  0  0  0  0
  -30.5180  -17.4470   18.0730 C   0  0  0  0  0  1  0  0  0  0  0  0
  -28.2700  -17.4780   19.0300 C   0  0  0  0  0  1  0  0  0  0  0  0
  -29.7620  -17.5890   19.4240 C   0  0  2  0  0  0  0  0  0  0  0  0
  -29.2090  -16.2850   21.6570 C   0  0  0  0  0  1  0  0  0  0  0  0
  -31.5100  -16.9290   21.1820 C   0  0  0  0  0  1  0  0  0  0  0  0
  -30.2280  -16.3840   20.4840 C   0  0  2  0  0  0  0  0  0  0  0  0
  -30.6800  -14.8970   19.9350 C   0  0  0  0  0  0  0  0  0  0  0  0
  -30.3400  -12.6250   18.9270 C   0  0  0  0  0  2  0  0  0  0  0  0
  -29.3400  -12.7460   17.7550 C   0  0  0  0  0  2  0  0  0  0  0  0
  -27.8890  -12.6030   18.2490 C   0  0  0  0  0  2  0  0  0  0  0  0
  -27.6150  -13.4540   19.5150 C   0  0  0  0  0  3  0  0  0  0  0  0
  -28.7350  -13.2820   20.5570 C   0  0  0  0  0  2  0  0  0  0  0  0
  -29.9960  -13.6850   19.9150 N   0  0  0  0  0  0  0  0  0  0  0  0
  -31.8100  -14.8730   19.4350 O   0  0  0  0  0  0  0  0  0  0  0  0
  -25.2860  -14.0720   20.3670 C   0  0  0  0  0  0  0  0  0  0  0  0
  -24.2200  -13.3100   20.7700 C   0  0  0  0  0  0  0  0  0  0  0  0
  -24.6530  -11.9530   20.6820 C   0  0  0  0  0  0  0  0  0  0  0  0
  -26.2960  -13.1770   20.0680 N   0  0  0  0  0  0  0  0  0  0  0  0
  -25.9290  -11.8940   20.3180 N   0  0  0  0  0  0  0  0  0  0  0  0
  -23.9060  -10.7000   20.8680 C   0  0  0  0  0  0  0  0  0  0  0  0
  -24.3590   -9.6990   21.7520 C   0  0  0  0  0  3  0  0  0  0  0  0
  -23.6140   -8.5130   21.9370 C   0  0  0  0  0  3  0  0  0  0  0  0
  -22.4010   -8.3220   21.2350 C   0  0  0  0  0  0  0  0  0  0  0  0
  -21.9640   -9.3130   20.3380 C   0  0  0  0  0  3  0  0  0  0  0  0
  -22.7080  -10.4890   20.1550 C   0  0  0  0  0  3  0  0  0  0  0  0
  -21.6240   -7.1920   21.3270 O   0  0  0  0  0  0  0  0  0  0  0  0
  -21.5960   -6.4310   22.4670 C   0  0  0  0  0  0  0  0  0  0  0  0
  -21.2460   -6.9760   23.7210 C   0  0  0  0  0  3  0  0  0  0  0  0
  -21.1600   -6.1390   24.8520 C   0  0  0  0  0  3  0  0  0  0  0  0
  -21.4200   -4.7620   24.7310 C   0  0  0  0  0  0  0  0  0  0  0  0
  -21.7610   -4.2150   23.4800 C   0  0  0  0  0  3  0  0  0  0  0  0
  -21.8460   -5.0470   22.3510 C   0  0  0  0  0  0  0  0  0  0  0  0
  -22.1540   -4.5150   21.1430 F   0  0  0  0  0  0  0  0  0  0  0  0
  -21.3300   -3.9560   25.8140 F   0  0  0  0  0  0  0  0  0  0  0  0
  -22.8520  -13.8160   21.1220 C   0  0  0  0  0  0  0  0  0  0  0  0
  -22.1530  -13.1160   22.0100 N   0  0  0  0  0  0  0  0  0  0  0  0
  -22.4130  -14.8620   20.6480 O   0  0  0  0  0  0  0  0  0  0  0  0
  -22.5320  -12.2840   22.4370 H   0  0  0  0  0  0  0  0  0  0  0  0
  -21.2410  -13.4390   22.2960 H   0  0  0  0  0  0  0  0  0  0  0  0
  -25.4790  -15.4360   20.2070 N   0  0  0  0  0  0  0  0  0  0  0  0
  -24.7640  -16.1340   20.3840 H   0  0  0  0  0  0  0  0  0  0  0  0
  -26.3440  -15.8300   19.8590 H   0  0  0  0  0  0  0  0  0  0  0  0
  -28.5810  -23.8680   20.4150 C   0  0  0  0  0  2  0  0  0  0  0  0
  -29.4200  -25.5770   22.1650 C   0  0  0  0  0  1  0  0  0  0  0  0
  -26.9620  -25.2900   21.9560 C   0  0  0  0  0  1  0  0  0  0  0  0
  -28.2960  -25.3030   21.1500 C   0  0  2  0  0  0  0  0  0  0  0  0
  -28.3420  -26.5270   20.2690 O   0  0  0  0  0  0  0  0  0  0  0  0
  -24.6140  -31.9380   23.2270 C   0  0  0  0  0  0  0  0  0  0  0  0
  -27.2530  -27.4130   20.1850 C   0  0  0  0  0  0  0  0  0  0  0  0
  -23.4140  -30.5360   21.5810 C   0  0  0  0  0  3  0  0  0  0  0  0
  -24.8800  -29.0060   20.1340 C   0  0  0  0  0  0  0  0  0  0  0  0
  -25.9430  -30.8850   21.3820 C   0  0  0  0  0  2  0  0  0  0  0  0
  -26.0380  -29.5050   20.7460 C   0  0  0  0  0  0  0  0  0  0  0  0
  -27.2290  -28.7170   20.7680 C   0  0  0  0  0  3  0  0  0  0  0  0
  -26.0920  -26.9830   19.5120 C   0  0  0  0  0  3  0  0  0  0  0  0
  -24.9110  -27.7540   19.4970 C   0  0  0  0  0  3  0  0  0  0  0  0
  -23.6290  -29.8630   20.1960 C   0  0  0  0  0  2  0  0  0  0  0  0
  -24.6750  -31.1390   22.1210 N   0  0  0  0  0  0  0  0  0  0  0  0
  -23.5340  -32.2000   23.7760 O   0  0  0  0  0  0  0  0  0  0  0  0
  -22.7630  -29.5130   22.5430 C   0  0  0  0  0  0  0  0  0  0  0  0
  -21.4380  -29.3240   22.4210 N   0  0  0  0  0  0  0  0  0  0  0  0
  -23.4480  -28.8960   23.3610 O   0  0  0  0  0  0  0  0  0  0  0  0
  -20.9390  -29.8780   21.7390 H   0  0  0  0  0  0  0  0  0  0  0  0
  -18.0820  -28.0580   22.8990 C   0  0  0  0  0  0  0  0  0  0  0  0
  -20.6310  -28.3750   23.1920 C   0  0  0  0  0  3  0  0  0  0  0  0
  -20.7670  -26.9410   22.6310 C   0  0  0  0  0  2  0  0  0  0  0  0
  -19.6830  -26.5850   21.6090 C   0  0  0  0  0  2  0  0  0  0  0  0
  -18.2920  -26.7080   22.2370 C   0  0  0  0  0  2  0  0  0  0  0  0
  -19.1800  -28.8480   23.3320 C   0  0  0  0  0  0  0  0  0  0  0  0
  -18.9300  -30.1090   23.9130 C   0  0  0  0  0  3  0  0  0  0  0  0
  -17.6140  -30.5850   24.0650 C   0  0  0  0  0  3  0  0  0  0  0  0
  -16.5290  -29.7950   23.6480 C   0  0  0  0  0  3  0  0  0  0  0  0
  -16.7630  -28.5330   23.0720 C   0  0  0  0  0  3  0  0  0  0  0  0
  -25.8980  -32.5780   23.8420 C   0  0  0  0  0  3  0  0  0  0  0  0
  -25.5850  -33.9750   24.1710 N   0  0  0  0  0  0  0  0  0  0  0  0
  -25.9110  -35.0290   23.4090 C   0  0  0  0  0  0  0  0  0  0  0  0
  -26.5770  -34.9270   22.3750 O   0  0  0  0  0  0  0  0  0  0  0  0
  -25.0090  -34.1300   24.9850 H   0  0  0  0  0  0  0  0  0  0  0  0
  -24.1760  -36.8190   23.0580 C   0  0  0  0  0  1  0  0  0  0  0  0
  -25.4210  -36.4160   23.8650 C   0  0  0  0  0  3  0  0  0  0  0  0
  -27.5570  -37.3090   24.6840 C   0  0  0  0  0  1  0  0  0  0  0  0
  -26.4500  -37.4740   23.7480 N   0  0  0  0  0  0  0  0  0  0  0  0
  -26.0380  -38.3910   23.8980 H   0  0  0  0  0  0  0  0  0  0  0  0
  -26.4240  -31.8130   25.1190 C   0  0  1  0  0  0  0  0  0  0  0  0
  -25.3360  -31.5730   26.1930 C   0  0  0  0  0  1  0  0  0  0  0  0
  -27.0110  -30.4350   24.7260 C   0  0  0  0  0  1  0  0  0  0  0  0
  -27.5690  -32.6140   25.7800 C   0  0  0  0  0  1  0  0  0  0  0  0
  2  1  1  0
  4  3  2  0
  5  6  2  0
  5  4  1  0
  6  7  1  0
  7  3  1  0
  7  2  1  0
 10  8  1  6
  9 10  1  0
 10  4  1  0
 10 13  1  0
 13 12  1  1
 13 11  1  0
 14 13  1  0
 15 20  1  0
 16 17  1  0
 16 15  1  0
 18 17  1  0
 18 25  1  0
 18 19  1  0
 20 14  1  0
 20 19  1  0
 21 14  2  0
 22 23  2  0
 23 42  1  0
 24 23  1  0
 24 27  1  0
 25 26  1  0
 25 22  1  0
 26 24  2  0
 27 28  1  0
 28 29  2  0
 30 33  1  0
 30 29  1  0
 31 30  2  0
 32 31  1  0
 32 27  2  0
 33 34  1  0
 34 35  1  0
 35 36  2  0
 37 36  1  0
 37 41  1  0
 38 37  2  0
 39 34  2  0
 39 38  1  0
 40 39  1  0
 42 43  1  0
 43 46  1  0
 43 45  1  0
 44 42  2  0
 47 22  1  0
 47 48  1  0
 49 47  1  0
 50 53  1  0
 50  2  1  0
 53 52  1  1
 53 51  1  0
 54 53  1  0
 55 66  2  0
 56 54  1  0
 56 61  1  0
 57 65  1  0
 57 67  1  0
 58 64  1  0
 58 60  1  0
 59 65  1  0
 60 61  2  0
 60 59  1  0
 62 56  2  0
 63 62  1  0
 63 58  2  0
 64 57  1  0
 65 55  1  0
 67 69  2  0
 68 67  1  0
 70 68  1  0
 71 80  2  0
 71 76  1  0
 72 68  1  0
 72 76  1  0
 73 72  1  0
 74 75  1  0
 74 73  1  0
 75 71  1  0
 76 77  2  0
 77 78  1  0
 79 78  2  0
 80 79  1  0
 81 55  1  0
 81 82  1  0
 81 91  1  0
 82 85  1  0
 83 87  1  0
 83 82  1  0
 84 83  2  0
 87 86  1  0
 89 87  1  0
 89 90  1  0
 89 88  1  0
 91 94  1  1
 91 92  1  0
 93 91  1  0
M  ISO  4  13 100  14 100  53 101  54 101
M  END
>  <TORSDO>  (6) 
F 21

>  <SCORE>  (6) 
-12.919

>  <name>  (6) 
5

>  <ligand_id>  (6) 
5

>  <original_smiles>  (6) 
[H]c1c([H])c([H])c2c(c1[H])C([H])([H])C([H])([H])C([H])([H])C2([H])N([H])C(=O)C1([H])N(C(=O)C([H])(N([H])C(=O)C([H])(N([H])C([H])([H])[H])C([H])([H])[H])C(C([H])([H])[H])(C([H])([H])[H])C([H])([H])[H])C([H])([H])c2c([H])c(OC(C([H])([H])[H])(C([H])([H])[H])C([H])([H])C([H])(n3nnc(C(C([H])([H])[H])(C([H])([H])[H])C(C(=O)N4C([H])([H])C([H])([H])C([H])([H])C([H])(n5nc(-c6c([H])c([H])c(Oc7c([H])c([H])c(F)c([H])c7F)c([H])c6[H])c(C(=O)N([H])[H])c5N([H])[H])C4([H])[H])(C([H])([H])[H])C([H])([H])[H])c3[H])C([H])([H])[H])c([H])c([H])c2C1([H])[H]

>  <smiles>  (6) 
[H]c1c([H])c([H])c2c(c1[H])C([H])([H])C([H])([H])C([H])([H])C2([H])N([H])C(=O)C1([H])N(C(=O)C([H])(N([H])C(=O)C([H])(N([H])C([H])([H])[H])C([H])([H])[H])C(C([H])([H])[H])(C([H])([H])[H])C([H])([H])[H])C([H])([H])c2c([H])c(OC(C([H])([H])[H])(C([H])([H])[H])C([H])([H])C([H])(n3nnc(C(C([H])([H])[H])(C([H])([H])[H])C(C(=O)N4C([H])([H])C([H])([H])C([H])([H])C([H])(n5nc(-c6c([H])c([H])c(Oc7c([H])c([H])c(F)c([H])c7F)c([H])c6[H])c(C(=O)N([H])[H])c5N([H])[H])C4([H])[H])(C([H])([H])[H])C([H])([H])[H])c3[H])C([H])([H])[H])c([H])c([H])c2C1([H])[H]

$$$$
6:0:0
     RDKit          3D

102111  0  0  1  0  0  0  0  0999 V2000
  -28.9900  -20.5580   21.1010 C   0  0  0  0  0  3  0  0  0  0  0  0
  -29.8030  -21.1980   20.1990 C   0  0  0  0  0  0  0  0  0  0  0  0
  -29.9590  -18.9600   19.8780 C   0  0  0  0  0  3  0  0  0  0  0  0
  -29.1100  -19.2060   20.8990 N   0  0  0  0  0  0  0  0  0  0  0  0
  -30.3970  -20.1730   19.4920 N   0  0  0  0  0  0  0  0  0  0  0  0
  -31.0470  -20.3130   18.7280 H   0  0  0  0  0  0  0  0  0  0  0  0
  -30.9270  -17.9060   17.8350 C   0  0  0  0  0  1  0  0  0  0  0  0
  -29.1800  -16.6870   19.0140 C   0  0  0  0  0  1  0  0  0  0  0  0
  -30.3840  -17.6180   19.2540 C   0  0  2  0  0  0  0  0  0  0  0  0
  -31.5270  -16.9080   20.0790 C   0  0  0  0  0  2  0  0  0  0  0  0
  -31.8410  -14.4380   20.1730 C   0  0  0  0  0  0  0  0  0  0  0  0
  -31.6930  -12.1080   19.3620 C   0  0  0  0  0  2  0  0  0  0  0  0
  -31.0380  -12.0410   17.9670 C   0  0  0  0  0  2  0  0  0  0  0  0
  -29.5140  -11.8940   18.1050 C   0  0  0  0  0  2  0  0  0  0  0  0
  -28.8980  -12.9220   19.0850 C   0  0  0  0  0  3  0  0  0  0  0  0
  -29.7070  -13.0490   20.4040 C   0  0  0  0  0  2  0  0  0  0  0  0
  -31.1280  -13.2710   20.0800 N   0  0  0  0  0  0  0  0  0  0  0  0
  -32.9980  -14.5120   19.7570 O   0  0  0  0  0  0  0  0  0  0  0  0
  -31.3750  -15.6390   22.1420 C   0  0  0  0  0  1  0  0  0  0  0  0
  -31.2510  -15.5560   20.6830 N   0  0  0  0  0  0  0  0  0  0  0  0
  -26.3670  -13.3690   18.9040 C   0  0  0  0  0  0  0  0  0  0  0  0
  -25.2790  -12.6530   19.3320 C   0  0  0  0  0  0  0  0  0  0  0  0
  -25.7990  -11.5150   20.0180 C   0  0  0  0  0  0  0  0  0  0  0  0
  -27.4800  -12.6600   19.3300 N   0  0  0  0  0  0  0  0  0  0  0  0
  -27.1250  -11.5640   20.0520 N   0  0  0  0  0  0  0  0  0  0  0  0
  -25.1060  -10.3510   20.5800 C   0  0  0  0  0  0  0  0  0  0  0  0
  -25.1700  -10.0500   21.9590 C   0  0  0  0  0  3  0  0  0  0  0  0
  -24.4810   -8.9330   22.4800 C   0  0  0  0  0  3  0  0  0  0  0  0
  -23.7110   -8.1150   21.6210 C   0  0  0  0  0  0  0  0  0  0  0  0
  -23.6680   -8.4080   20.2490 C   0  0  0  0  0  3  0  0  0  0  0  0
  -24.3630   -9.5110   19.7300 C   0  0  0  0  0  3  0  0  0  0  0  0
  -23.0210   -7.0000   22.0330 O   0  0  0  0  0  0  0  0  0  0  0  0
  -22.3120   -6.9870   23.2070 C   0  0  0  0  0  0  0  0  0  0  0  0
  -21.3170   -7.9530   23.4890 C   0  0  0  0  0  3  0  0  0  0  0  0
  -20.5730   -7.8640   24.6810 C   0  0  0  0  0  3  0  0  0  0  0  0
  -20.8060   -6.8050   25.5790 C   0  0  0  0  0  0  0  0  0  0  0  0
  -21.7880   -5.8410   25.2950 C   0  0  0  0  0  3  0  0  0  0  0  0
  -22.5350   -5.9280   24.1100 C   0  0  0  0  0  0  0  0  0  0  0  0
  -23.4680   -4.9840   23.8300 F   0  0  0  0  0  0  0  0  0  0  0  0
  -20.0830   -6.7150   26.7220 F   0  0  0  0  0  0  0  0  0  0  0  0
  -23.8410  -12.9650   19.0440 C   0  0  0  0  0  0  0  0  0  0  0  0
  -22.9440  -12.6040   19.9560 N   0  0  0  0  0  0  0  0  0  0  0  0
  -23.5130  -13.5750   18.0300 O   0  0  0  0  0  0  0  0  0  0  0  0
  -21.9660  -12.8210   19.8210 H   0  0  0  0  0  0  0  0  0  0  0  0
  -23.2220  -12.1130   20.7920 H   0  0  0  0  0  0  0  0  0  0  0  0
  -26.5000  -14.5440   18.1740 N   0  0  0  0  0  4  0  0  0  0  0  0
  -27.3950  -14.9300   17.9040 H   0  0  0  0  0  0  0  0  0  0  0  0
  -25.7120  -15.0970   17.8600 H   0  0  0  0  0  0  0  0  0  0  0  0
  -29.1400  -23.5080   20.9030 C   0  0  0  0  0  1  0  0  0  0  0  0
  -31.5450  -22.9260   20.4710 C   0  0  0  0  0  1  0  0  0  0  0  0
  -30.0950  -22.6760   20.0120 C   0  0  1  0  0  0  0  0  0  0  0  0
  -29.9060  -23.0830   18.5160 C   0  0  0  0  0  2  0  0  0  0  0  0
  -29.2370  -24.4660   18.2730 C   0  0  0  0  0  2  0  0  0  0  0  0
  -29.2420  -24.9140   16.7960 C   0  0  0  0  0  2  0  0  0  0  0  0
  -28.9460  -26.3180   16.6680 O   0  0  0  0  0  0  0  0  0  0  0  0
  -25.8960  -28.8610   22.5830 C   0  0  0  0  0  0  0  0  0  0  0  0
  -27.8020  -26.8330   17.2450 C   0  0  0  0  0  0  0  0  0  0  0  0
  -24.3700  -28.4180   20.6900 C   0  0  0  0  0  3  0  0  0  0  0  0
  -25.4960  -27.9440   18.4580 C   0  0  0  0  0  0  0  0  0  0  0  0
  -26.8310  -29.0100   20.2780 C   0  0  0  0  0  2  0  0  0  0  0  0
  -26.7570  -28.1730   19.0190 C   0  0  0  0  0  0  0  0  0  0  0  0
  -27.9120  -27.6220   18.4140 C   0  0  0  0  0  3  0  0  0  0  0  0
  -26.5150  -26.6270   16.6970 C   0  0  0  0  0  3  0  0  0  0  0  0
  -25.3680  -27.1710   17.2940 C   0  0  0  0  0  3  0  0  0  0  0  0
  -24.3080  -28.5670   19.1460 C   0  0  0  0  0  2  0  0  0  0  0  0
  -25.7300  -28.7480   21.2360 N   0  0  0  0  0  0  0  0  0  0  0  0
  -24.9420  -28.7380   23.3640 O   0  0  0  0  0  0  0  0  0  0  0  0
  -23.8810  -27.0030   21.0760 C   0  0  0  0  0  0  0  0  0  0  0  0
  -22.5620  -26.7680   20.9740 N   0  0  0  0  0  0  0  0  0  0  0  0
  -24.6810  -26.1360   21.4360 O   0  0  0  0  0  0  0  0  0  0  0  0
  -21.9630  -27.5300   20.6890 H   0  0  0  0  0  0  0  0  0  0  0  0
  -19.3490  -25.1180   20.9550 C   0  0  0  0  0  0  0  0  0  0  0  0
  -21.8900  -25.4980   21.2490 C   0  0  0  0  0  3  0  0  0  0  0  0
  -22.0710  -24.5050   20.0790 C   0  0  0  0  0  2  0  0  0  0  0  0
  -20.9300  -24.5630   19.0590 C   0  0  0  0  0  2  0  0  0  0  0  0
  -19.5910  -24.2480   19.7330 C   0  0  0  0  0  2  0  0  0  0  0  0
  -20.4280  -25.7150   21.6580 C   0  0  0  0  0  0  0  0  0  0  0  0
  -20.1460  -26.5400   22.7700 C   0  0  0  0  0  3  0  0  0  0  0  0
  -18.8190  -26.7710   23.1780 C   0  0  0  0  0  3  0  0  0  0  0  0
  -17.7550  -26.1650   22.4870 C   0  0  0  0  0  3  0  0  0  0  0  0
  -18.0210  -25.3360   21.3810 C   0  0  0  0  0  3  0  0  0  0  0  0
  -27.2920  -29.1770   23.2070 C   0  0  0  0  0  3  0  0  0  0  0  0
  -28.0510  -27.8940   23.7240 C   0  0  1  0  0  0  0  0  0  0  0  0
  -27.2010  -27.0040   24.6560 C   0  0  0  0  0  1  0  0  0  0  0  0
  -28.5260  -27.0150   22.5410 C   0  0  0  0  0  1  0  0  0  0  0  0
  -29.3250  -28.3140   24.4910 C   0  0  0  0  0  1  0  0  0  0  0  0
  -27.0830  -30.1410   24.2950 N   0  0  0  0  0  0  0  0  0  0  0  0
  -27.4430  -31.4310   24.2480 C   0  0  0  0  0  0  0  0  0  0  0  0
  -28.0570  -31.9210   23.2970 O   0  0  0  0  0  0  0  0  0  0  0  0
  -26.5260  -29.8250   25.0750 H   0  0  0  0  0  0  0  0  0  0  0  0
  -25.8740  -33.2170   25.0670 C   0  0  0  0  0  1  0  0  0  0  0  0
  -27.0580  -32.3160   25.4470 C   0  0  0  0  0  3  0  0  0  0  0  0
  -29.2290  -32.3800   26.5930 C   0  0  0  0  0  1  0  0  0  0  0  0
  -28.1720  -33.1490   25.9430 N   0  0  0  0  0  0  0  0  0  0  0  0
  -27.8340  -33.8450   26.6020 H   0  0  0  0  0  0  0  0  0  0  0  0
  -28.3830  -18.1870   21.6590 C   0  0  0  0  0  2  0  0  0  0  0  0
  -26.8700  -18.3080   21.5100 C   0  0  0  0  0  2  0  0  0  0  0  0
  -26.2330  -16.9110   21.4730 C   0  0  0  0  0  2  0  0  0  0  0  0
  -24.3010  -15.5830   20.7370 C   0  0  0  0  0  1  0  0  0  0  0  0
  -26.1900  -15.9850   19.1390 C   0  0  0  0  0  2  0  0  0  0  0  0
  -24.6250  -17.8670   19.7130 C   0  0  0  0  0  1  0  0  0  0  0  0
  -25.3380  -16.6080   20.2560 C   0  0  2  0  0  0  0  0  0  0  0  0
  2  1  2  0
  3  9  1  0
  3  4  1  0
  4  1  1  0
  4 96  1  0
  5  3  1  0
  5  2  1  0
  6  5  1  0
  9  7  1  6
  8  9  1  0
  9 10  1  0
 10 20  1  0
 11 20  1  0
 12 17  1  0
 13 14  1  0
 13 12  1  0
 15 14  1  0
 15 24  1  0
 15 16  1  0
 17 11  1  0
 17 16  1  0
 18 11  2  0
 20 19  1  0
 21 24  1  0
 21 22  2  0
 22 23  1  0
 23 25  2  0
 23 26  1  0
 24 25  1  0
 26 27  1  0
 27 28  2  0
 29 32  1  0
 29 28  1  0
 30 29  2  0
 31 30  1  0
 31 26  2  0
 32 33  1  0
 33 34  2  0
 33 38  1  0
 34 35  1  0
 35 36  2  0
 36 40  1  0
 37 36  1  0
 38 37  2  0
 39 38  1  0
 41 22  1  0
 41 42  1  0
 42 45  1  0
 43 41  2  0
 44 42  1  0
 46 21  1  0
 46100  1  0
 47 46  1  0
 48 46  1  0
 51  2  1  0
 51 50  1  1
 51 49  1  0
 52 51  1  0
 53 52  1  0
 54 53  1  0
 55 54  1  0
 55 57  1  0
 56 67  2  0
 57 62  1  0
 58 68  1  0
 58 66  1  0
 59 61  1  0
 59 65  1  0
 60 66  1  0
 61 60  1  0
 62 61  2  0
 63 57  2  0
 63 64  1  0
 64 59  2  0
 65 58  1  0
 66 56  1  0
 68 70  2  0
 69 68  1  0
 71 69  1  0
 72 81  2  0
 72 77  1  0
 73 69  1  0
 73 77  1  0
 74 73  1  0
 75 76  1  0
 75 74  1  0
 76 72  1  0
 77 78  2  0
 78 79  1  0
 80 79  2  0
 81 80  1  0
 82 56  1  0
 82 83  1  0
 82 87  1  0
 83 86  1  1
 83 84  1  0
 85 83  1  0
 87 90  1  0
 88 87  1  0
 88 92  1  0
 89 88  2  0
 92 91  1  0
 92 94  1  0
 94 93  1  0
 94 95  1  0
 97 96  1  0
 98 97  1  0
100102  1  0
102101  1  6
102 99  1  0
102 98  1  0
M  ISO  4  11 100  20 100  54 101  55 101
M  END
>  <TORSDO>  (7) 
F 26

>  <SCORE>  (7) 
7.473

>  <name>  (7) 
6

>  <ligand_id>  (7) 
6

>  <original_smiles>  (7) 
[H]c1c([H])c([H])c2c(c1[H])C([H])([H])C([H])([H])C([H])([H])C2([H])N([H])C(=O)C1([H])N(C(=O)C([H])(N([H])C(=O)C([H])(N([H])C([H])([H])[H])C([H])([H])[H])C(C([H])([H])[H])(C([H])([H])[H])C([H])([H])[H])C([H])([H])c2c([H])c(OC([H])([H])C([H])([H])C([H])([H])C(c3c([H])n(C([H])([H])C([H])([H])C([H])([H])C(C([H])([H])[H])(C([H])([H])[H])C([H])([H])[H])c(C(C([H])([H])[H])(C([H])([H])[H])C([H])([H])N(C(=O)N4C([H])([H])C([H])([H])C([H])([H])C([H])(n5nc(-c6c([H])c([H])c(Oc7c([H])c([H])c(F)c([H])c7F)c([H])c6[H])c(C(=O)N([H])[H])c5N([H])[H])C4([H])[H])C([H])([H])[H])[n+]3[H])(C([H])([H])[H])C([H])([H])[H])c([H])c([H])c2C1([H])[H]

>  <smiles>  (7) 
[H]c1c([H])c([H])c2c(c1[H])C([H])([H])C([H])([H])C([H])([H])C2([H])N([H])C(=O)C1([H])N(C(=O)C([H])(N([H])C(=O)C([H])(N([H])C([H])([H])[H])C([H])([H])[H])C(C([H])([H])[H])(C([H])([H])[H])C([H])([H])[H])C([H])([H])c2c([H])c(OC([H])([H])C([H])([H])C([H])([H])C(c3c([H])n(C([H])([H])C([H])([H])C([H])([H])C(C([H])([H])[H])(C([H])([H])[H])C([H])([H])[H])c(C(C([H])([H])[H])(C([H])([H])[H])C([H])([H])N(C(=O)N4C([H])([H])C([H])([H])C([H])([H])C([H])(n5nc(-c6c([H])c([H])c(Oc7c([H])c([H])c(F)c([H])c7F)c([H])c6[H])c(C(=O)N([H])[H])c5N([H])[H])C4([H])[H])C([H])([H])[H])[n+]3[H])(C([H])([H])[H])C([H])([H])[H])c([H])c([H])c2C1([H])[H]

$$$$
7:0:0
     RDKit          3D

104112  0  0  1  0  0  0  0  0999 V2000
  -28.3400  -23.5290   20.0510 C   0  0  1  0  0  0  0  0  0  0  0  0
  -28.3810  -24.3110   18.9680 F   0  0  0  0  0  0  0  0  0  0  0  0
  -29.7410  -22.8600   20.2440 C   0  0  1  0  0  0  0  0  0  0  0  0
  -30.1600  -22.2390   19.1490 F   0  0  0  0  0  0  0  0  0  0  0  0
  -30.7010  -23.7190   20.5550 F   0  0  0  0  0  0  0  0  0  0  0  0
  -29.6840  -21.9420   21.2090 F   0  0  0  0  0  0  0  0  0  0  0  0
  -27.9520  -24.4470   21.2780 C   0  0  1  0  0  0  0  0  0  0  0  0
  -26.6330  -24.6540   21.3050 F   0  0  0  0  0  0  0  0  0  0  0  0
  -28.2340  -23.7850   22.4020 F   0  0  0  0  0  0  0  0  0  0  0  0
  -28.5920  -25.8710   21.3920 C   0  0  2  0  0  0  0  0  0  0  0  0
  -29.9360  -25.8010   21.5090 F   0  0  0  0  0  0  0  0  0  0  0  0
  -28.1900  -26.4320   22.5620 F   0  0  0  0  0  0  0  0  0  0  0  0
  -28.3100  -26.7090   20.3480 O   0  0  0  0  0  0  0  0  0  0  0  0
  -24.5710  -31.9440   23.3980 C   0  0  0  0  0  0  0  0  0  0  0  0
  -27.1510  -27.4450   20.3780 C   0  0  0  0  0  0  0  0  0  0  0  0
  -23.3500  -30.5690   21.7400 C   0  0  0  0  0  3  0  0  0  0  0  0
  -24.7860  -28.9880   20.3440 C   0  0  0  0  0  0  0  0  0  0  0  0
  -25.8830  -30.8680   21.5770 C   0  0  0  0  0  2  0  0  0  0  0  0
  -25.9420  -29.4920   20.9520 C   0  0  0  0  0  0  0  0  0  0  0  0
  -27.1260  -28.7270   20.9710 C   0  0  0  0  0  3  0  0  0  0  0  0
  -25.9860  -26.9520   19.7520 C   0  0  0  0  0  3  0  0  0  0  0  0
  -24.7990  -27.7120   19.7490 C   0  0  0  0  0  3  0  0  0  0  0  0
  -23.5610  -29.8740   20.3680 C   0  0  0  0  0  2  0  0  0  0  0  0
  -24.6190  -31.1420   22.2990 N   0  0  0  0  0  0  0  0  0  0  0  0
  -23.4900  -32.2480   23.9230 O   0  0  0  0  0  0  0  0  0  0  0  0
  -22.6600  -29.5690   22.6950 C   0  0  0  0  0  0  0  0  0  0  0  0
  -21.3360  -29.4080   22.5360 N   0  0  0  0  0  0  0  0  0  0  0  0
  -23.3130  -28.9410   23.5320 O   0  0  0  0  0  0  0  0  0  0  0  0
  -20.8700  -29.9660   21.8340 H   0  0  0  0  0  0  0  0  0  0  0  0
  -17.9310  -28.2780   22.9470 C   0  0  0  0  0  0  0  0  0  0  0  0
  -20.4840  -28.4930   23.2940 C   0  0  0  0  0  3  0  0  0  0  0  0
  -20.5790  -27.0540   22.7370 C   0  0  0  0  0  2  0  0  0  0  0  0
  -19.5010  -26.7380   21.6940 C   0  0  0  0  0  2  0  0  0  0  0  0
  -18.1030  -26.9160   22.2940 C   0  0  0  0  0  2  0  0  0  0  0  0
  -19.0500  -29.0240   23.4020 C   0  0  0  0  0  0  0  0  0  0  0  0
  -18.8380  -30.2990   23.9690 C   0  0  0  0  0  3  0  0  0  0  0  0
  -17.5390  -30.8280   24.0880 C   0  0  0  0  0  3  0  0  0  0  0  0
  -16.4330  -30.0780   23.6520 C   0  0  0  0  0  3  0  0  0  0  0  0
  -16.6300  -28.8060   23.0870 C   0  0  0  0  0  3  0  0  0  0  0  0
  -25.8660  -32.5400   24.0330 C   0  0  0  0  0  3  0  0  0  0  0  0
  -26.3480  -31.7580   25.3170 C   0  0  1  0  0  0  0  0  0  0  0  0
  -25.2300  -31.5370   26.3610 C   0  0  0  0  0  1  0  0  0  0  0  0
  -26.9170  -30.3730   24.9280 C   0  0  0  0  0  1  0  0  0  0  0  0
  -27.4970  -32.5340   26.0040 C   0  0  0  0  0  1  0  0  0  0  0  0
  -25.5960  -33.9480   24.3530 N   0  0  0  0  0  0  0  0  0  0  0  0
  -25.9740  -34.9860   23.5960 C   0  0  0  0  0  0  0  0  0  0  0  0
  -26.6600  -34.8580   22.5780 O   0  0  0  0  0  0  0  0  0  0  0  0
  -24.9920  -34.1250   25.1420 H   0  0  0  0  0  0  0  0  0  0  0  0
  -24.3100  -36.8270   23.1930 C   0  0  0  0  0  1  0  0  0  0  0  0
  -25.5180  -36.3900   24.0360 C   0  0  0  0  0  3  0  0  0  0  0  0
  -27.6590  -37.2120   24.9130 C   0  0  0  0  0  1  0  0  0  0  0  0
  -26.5840  -37.4120   23.9450 N   0  0  0  0  0  0  0  0  0  0  0  0
  -26.2020  -38.3440   24.0810 H   0  0  0  0  0  0  0  0  0  0  0  0
  -27.2000  -22.4750   19.8170 C   0  0  0  0  0  2  0  0  0  0  0  0
  -27.8730  -21.9780   17.3230 C   0  0  0  0  0  1  0  0  0  0  0  0
  -27.1470  -21.4730   18.6010 C   0  0  1  0  0  0  0  0  0  0  0  0
  -28.8530  -19.5070   18.7360 C   0  0  0  0  0  3  0  0  0  0  0  0
  -27.0020  -19.2800   19.8360 C   0  0  0  0  0  3  0  0  0  0  0  0
  -28.8660  -18.3050   19.4160 C   0  0  0  0  0  0  0  0  0  0  0  0
  -27.6540  -18.1520   20.0820 N   0  0  0  0  0  0  0  0  0  0  0  0
  -27.6380  -20.1410   19.0220 N   0  0  0  0  0  0  0  0  0  0  0  0
  -29.8880  -17.1940   19.4190 C   0  0  0  0  0  2  0  0  0  0  0  0
  -31.6900  -17.4460   21.2890 C   0  0  0  0  0  1  0  0  0  0  0  0
  -30.3790  -16.7790   20.8410 C   0  0  0  0  0  3  0  0  0  0  0  0
  -31.0730  -14.3890   20.3080 C   0  0  0  0  0  0  0  0  0  0  0  0
  -30.7380  -12.2230   19.1870 C   0  0  0  0  0  2  0  0  0  0  0  0
  -29.7790  -12.4490   17.9990 C   0  0  0  0  0  2  0  0  0  0  0  0
  -28.3060  -12.3610   18.4470 C   0  0  0  0  0  2  0  0  0  0  0  0
  -28.0140  -13.2210   19.7050 C   0  0  0  0  0  3  0  0  0  0  0  0
  -29.0710  -12.9430   20.7980 C   0  0  0  0  0  2  0  0  0  0  0  0
  -30.4060  -13.2080   20.2230 N   0  0  0  0  0  0  0  0  0  0  0  0
  -32.1280  -14.6250   19.7130 O   0  0  0  0  0  0  0  0  0  0  0  0
  -30.3970  -15.3210   20.9950 N   0  0  0  0  0  0  0  0  0  0  0  0
  -29.6020  -14.9450   21.4910 H   0  0  0  0  0  0  0  0  0  0  0  0
  -25.6630  -13.9360   20.4760 C   0  0  0  0  0  0  0  0  0  0  0  0
  -24.5620  -13.2100   20.8450 C   0  0  0  0  0  0  0  0  0  0  0  0
  -24.9530  -11.8380   20.7690 C   0  0  0  0  0  0  0  0  0  0  0  0
  -26.6560  -13.0080   20.1990 N   0  0  0  0  0  0  0  0  0  0  0  0
  -26.2320  -11.7400   20.4260 N   0  0  0  0  0  0  0  0  0  0  0  0
  -24.1700  -10.6090   20.9450 C   0  0  0  0  0  0  0  0  0  0  0  0
  -24.5610   -9.6120   21.8650 C   0  0  0  0  0  3  0  0  0  0  0  0
  -23.7840   -8.4450   22.0290 C   0  0  0  0  0  3  0  0  0  0  0  0
  -22.6010   -8.2700   21.2730 C   0  0  0  0  0  0  0  0  0  0  0  0
  -22.2270   -9.2560   20.3410 C   0  0  0  0  0  3  0  0  0  0  0  0
  -23.0060  -10.4130   20.1750 C   0  0  0  0  0  3  0  0  0  0  0  0
  -21.7960   -7.1600   21.3460 O   0  0  0  0  0  0  0  0  0  0  0  0
  -21.6910   -6.4220   22.4980 C   0  0  0  0  0  0  0  0  0  0  0  0
  -21.2750   -6.9990   23.7180 C   0  0  0  0  0  3  0  0  0  0  0  0
  -21.1150   -6.1890   24.8610 C   0  0  0  0  0  3  0  0  0  0  0  0
  -21.3610   -4.8060   24.7850 C   0  0  0  0  0  0  0  0  0  0  0  0
  -21.7680   -4.2290   23.5690 C   0  0  0  0  0  3  0  0  0  0  0  0
  -21.9310   -5.0340   22.4300 C   0  0  0  0  0  0  0  0  0  0  0  0
  -22.3050   -4.4690   21.2560 F   0  0  0  0  0  0  0  0  0  0  0  0
  -21.1980   -4.0270   25.8800 F   0  0  0  0  0  0  0  0  0  0  0  0
  -23.1980  -13.7480   21.1670 C   0  0  0  0  0  0  0  0  0  0  0  0
  -22.4660  -13.0690   22.0430 N   0  0  0  0  0  0  0  0  0  0  0  0
  -22.7950  -14.8050   20.6820 O   0  0  0  0  0  0  0  0  0  0  0  0
  -22.8080  -12.2130   22.4540 H   0  0  0  0  0  0  0  0  0  0  0  0
  -21.5510  -13.4070   22.3060 H   0  0  0  0  0  0  0  0  0  0  0  0
  -25.8950  -15.3020   20.3460 N   0  0  0  0  0  0  0  0  0  0  0  0
  -25.1810  -15.9900   20.5540 H   0  0  0  0  0  0  0  0  0  0  0  0
  -26.7890  -15.7260   20.1280 H   0  0  0  0  0  0  0  0  0  0  0  0
  -25.2830  -20.4270   17.0360 C   0  0  0  0  0  1  0  0  0  0  0  0
  -25.6370  -21.3620   18.2080 C   0  0  0  0  0  2  0  0  0  0  0  0
  1  2  1  6
  1  3  1  0
  1  7  1  0
  3  5  1  1
  3  6  1  0
  4  3  1  0
  7  8  1  1
  7 10  1  0
  7  9  1  0
 10 11  1  1
 10 12  1  0
 13 15  1  0
 13 10  1  0
 14 25  2  0
 15 20  1  0
 16 24  1  0
 16 26  1  0
 17 23  1  0
 17 19  1  0
 18 24  1  0
 19 20  2  0
 19 18  1  0
 21 15  2  0
 22 21  1  0
 22 17  2  0
 23 16  1  0
 24 14  1  0
 26 28  2  0
 27 26  1  0
 29 27  1  0
 30 39  2  0
 30 35  1  0
 31 27  1  0
 31 35  1  0
 32 31  1  0
 33 34  1  0
 33 32  1  0
 34 30  1  0
 35 36  2  0
 36 37  1  0
 38 37  2  0
 39 38  1  0
 40 14  1  0
 40 45  1  0
 40 41  1  0
 41 44  1  1
 41 42  1  0
 43 41  1  0
 45 48  1  0
 46 50  1  0
 46 45  1  0
 47 46  2  0
 50 49  1  0
 52 50  1  0
 52 53  1  0
 52 51  1  0
 54  1  1  0
 56 55  1  6
 56 61  1  0
 56 54  1  0
 57 61  1  0
 57 59  2  0
 58 60  2  0
 59 62  1  0
 59 60  1  0
 61 58  1  0
 62 64  1  0
 64 73  1  0
 64 63  1  0
 65 73  1  0
 66 71  1  0
 67 68  1  0
 67 66  1  0
 69 68  1  0
 69 78  1  0
 69 70  1  0
 71 65  1  0
 71 70  1  0
 72 65  2  0
 73 74  1  0
 75 76  2  0
 76 95  1  0
 77 76  1  0
 77 80  1  0
 78 79  1  0
 78 75  1  0
 79 77  2  0
 80 81  1  0
 81 82  2  0
 83 86  1  0
 83 82  1  0
 84 83  2  0
 85 84  1  0
 85 80  2  0
 86 87  1  0
 87 88  1  0
 88 89  2  0
 90 89  1  0
 90 94  1  0
 91 90  2  0
 92 87  2  0
 92 91  1  0
 93 92  1  0
 95 96  1  0
 96 99  1  0
 96 98  1  0
 97 95  2  0
100 75  1  0
100101  1  0
102100  1  0
103104  1  0
104 56  1  0
M  ISO  4  10 101  13 101  65 100  73 100
M  END
>  <TORSDO>  (8) 
F 25

>  <SCORE>  (8) 
-12.143

>  <name>  (8) 
7

>  <ligand_id>  (8) 
7

>  <original_smiles>  (8) 
[H]c1c([H])c([H])c2c(c1[H])C([H])([H])C([H])([H])C([H])([H])C2([H])N([H])C(=O)C1([H])N(C(=O)C([H])(N([H])C(=O)C([H])(N([H])C([H])([H])[H])C([H])([H])[H])C(C([H])([H])[H])(C([H])([H])[H])C([H])([H])[H])C([H])([H])c2c([H])c(OC(F)(F)C(F)(F)C(F)(C(F)(F)F)C([H])([H])C(n3c([H])nc(C([H])([H])C([H])(N([H])C(=O)N4C([H])([H])C([H])([H])C([H])([H])C([H])(n5nc(-c6c([H])c([H])c(Oc7c([H])c([H])c(F)c([H])c7F)c([H])c6[H])c(C(=O)N([H])[H])c5N([H])[H])C4([H])[H])C([H])([H])[H])c3[H])(C([H])([H])[H])C([H])([H])C([H])([H])[H])c([H])c([H])c2C1([H])[H]

>  <smiles>  (8) 
[H]c1c([H])c([H])c2c(c1[H])C([H])([H])C([H])([H])C([H])([H])C2([H])N([H])C(=O)C1([H])N(C(=O)C([H])(N([H])C(=O)C([H])(N([H])C([H])([H])[H])C([H])([H])[H])C(C([H])([H])[H])(C([H])([H])[H])C([H])([H])[H])C([H])([H])c2c([H])c(OC(F)(F)C(F)(F)C(F)(C(F)(F)F)C([H])([H])C(n3c([H])nc(C([H])([H])C([H])(N([H])C(=O)N4C([H])([H])C([H])([H])C([H])([H])C([H])(n5nc(-c6c([H])c([H])c(Oc7c([H])c([H])c(F)c([H])c7F)c([H])c6[H])c(C(=O)N([H])[H])c5N([H])[H])C4([H])[H])C([H])([H])[H])c3[H])(C([H])([H])[H])C([H])([H])C([H])([H])[H])c([H])c([H])c2C1([H])[H]

$$$$
8:0:0
     RDKit          3D

 97105  0  0  1  0  0  0  0  0999 V2000
  -28.9290  -21.0330   21.5030 C   0  0  0  0  0  3  0  0  0  0  0  0
  -28.9620  -19.7360   20.9650 C   0  0  0  0  0  3  0  0  0  0  0  0
  -30.9480  -21.5060   20.2850 C   0  0  0  0  0  3  0  0  0  0  0  0
  -29.8900  -21.9800   21.0820 C   0  0  0  0  0  0  0  0  0  0  0  0
  -29.9150  -19.4260   19.9710 C   0  0  0  0  0  0  0  0  0  0  0  0
  -30.9730  -20.2600   19.7700 N   0  0  0  0  0  0  0  0  0  0  0  0
  -30.3860  -18.8190   17.5930 C   0  0  0  0  0  1  0  0  0  0  0  0
  -29.6760  -18.3110   18.8980 C   0  0  2  0  0  0  0  0  0  0  0  0
  -28.1590  -18.3010   18.4720 C   0  0  2  0  0  0  0  0  0  0  0  0
  -27.3590  -17.9070   19.4650 F   0  0  0  0  0  0  0  0  0  0  0  0
  -27.9470  -17.4540   17.4600 F   0  0  0  0  0  0  0  0  0  0  0  0
  -27.7400  -19.5000   18.0580 F   0  0  0  0  0  0  0  0  0  0  0  0
  -30.6220  -16.0650   18.0060 C   0  0  0  0  0  1  0  0  0  0  0  0
  -30.0760  -16.7860   19.2550 C   0  0  0  0  0  3  0  0  0  0  0  0
  -31.8680  -17.1720   21.1110 C   0  0  0  0  0  1  0  0  0  0  0  0
  -29.6590  -16.3160   21.7840 C   0  0  0  0  0  1  0  0  0  0  0  0
  -30.7100  -16.2470   20.6460 C   0  0  1  0  0  0  0  0  0  0  0  0
  -31.3580  -14.7750   20.5620 C   0  0  0  0  0  0  0  0  0  0  0  0
  -31.1240  -12.4550   19.7090 C   0  0  0  0  0  2  0  0  0  0  0  0
  -30.2690  -12.3420   18.4250 C   0  0  0  0  0  2  0  0  0  0  0  0
  -28.7510  -12.4040   18.7290 C   0  0  0  0  0  2  0  0  0  0  0  0
  -28.3420  -13.4050   19.8470 C   0  0  0  0  0  3  0  0  0  0  0  0
  -29.3090  -13.3200   21.0410 C   0  0  0  0  0  2  0  0  0  0  0  0
  -30.6620  -13.5930   20.5450 N   0  0  0  0  0  0  0  0  0  0  0  0
  -32.5650  -14.7440   20.3100 O   0  0  0  0  0  0  0  0  0  0  0  0
  -25.9590  -14.1530   20.4480 C   0  0  0  0  0  0  0  0  0  0  0  0
  -24.8300  -13.4330   20.7420 C   0  0  0  0  0  0  0  0  0  0  0  0
  -25.2330  -12.0640   20.7450 C   0  0  0  0  0  0  0  0  0  0  0  0
  -26.9610  -13.2130   20.2660 N   0  0  0  0  0  0  0  0  0  0  0  0
  -26.5280  -11.9560   20.5140 N   0  0  0  0  0  0  0  0  0  0  0  0
  -24.4500  -10.8370   20.8950 C   0  0  0  0  0  0  0  0  0  0  0  0
  -24.7940   -9.8540   21.8480 C   0  0  0  0  0  3  0  0  0  0  0  0
  -24.0090   -8.6910   21.9840 C   0  0  0  0  0  3  0  0  0  0  0  0
  -22.8730   -8.5060   21.1600 C   0  0  0  0  0  0  0  0  0  0  0  0
  -22.5500   -9.4800   20.2000 C   0  0  0  0  0  3  0  0  0  0  0  0
  -23.3340  -10.6340   20.0650 C   0  0  0  0  0  3  0  0  0  0  0  0
  -22.0700   -7.3950   21.2010 O   0  0  0  0  0  0  0  0  0  0  0  0
  -21.8770   -6.6920   22.3640 C   0  0  0  0  0  0  0  0  0  0  0  0
  -21.3480   -7.2940   23.5250 C   0  0  0  0  0  3  0  0  0  0  0  0
  -21.0970   -6.5140   24.6730 C   0  0  0  0  0  3  0  0  0  0  0  0
  -21.3790   -5.1330   24.6570 C   0  0  0  0  0  0  0  0  0  0  0  0
  -21.9060   -4.5320   23.5010 C   0  0  0  0  0  3  0  0  0  0  0  0
  -22.1510   -5.3110   22.3560 C   0  0  0  0  0  0  0  0  0  0  0  0
  -22.6370   -4.7250   21.2370 F   0  0  0  0  0  0  0  0  0  0  0  0
  -21.1350   -4.3800   25.7530 F   0  0  0  0  0  0  0  0  0  0  0  0
  -23.4450  -13.9830   20.9130 C   0  0  0  0  0  0  0  0  0  0  0  0
  -22.6360  -13.3400   21.7520 N   0  0  0  0  0  0  0  0  0  0  0  0
  -23.0870  -15.0150   20.3490 O   0  0  0  0  0  0  0  0  0  0  0  0
  -22.9450  -12.5140   22.2380 H   0  0  0  0  0  0  0  0  0  0  0  0
  -21.7090  -13.6950   21.9380 H   0  0  0  0  0  0  0  0  0  0  0  0
  -26.2050  -15.5080   20.2970 N   0  0  0  0  0  0  0  0  0  0  0  0
  -25.4790  -16.2030   20.4250 H   0  0  0  0  0  0  0  0  0  0  0  0
  -27.0960  -15.9130   20.0520 H   0  0  0  0  0  0  0  0  0  0  0  0
  -29.7760  -23.4540   21.5070 C   0  0  0  0  0  2  0  0  0  0  0  0
  -29.0700  -24.3950   20.4840 C   0  0  0  0  0  2  0  0  0  0  0  0
  -28.7610  -25.7980   21.0820 C   0  0  0  0  0  2  0  0  0  0  0  0
  -28.5580  -26.8180   20.0960 O   0  0  0  0  0  0  0  0  0  0  0  0
  -24.6160  -31.9280   23.2080 C   0  0  0  0  0  0  0  0  0  0  0  0
  -27.3750  -27.5210   20.1680 C   0  0  0  0  0  0  0  0  0  0  0  0
  -23.4580  -30.5020   21.5480 C   0  0  0  0  0  3  0  0  0  0  0  0
  -24.9560  -28.9800   20.1630 C   0  0  0  0  0  0  0  0  0  0  0  0
  -25.9800  -30.9050   21.3860 C   0  0  0  0  0  2  0  0  0  0  0  0
  -26.0990  -29.5290   20.7630 C   0  0  0  0  0  0  0  0  0  0  0  0
  -27.3140  -28.8010   20.7670 C   0  0  0  0  0  3  0  0  0  0  0  0
  -26.2160  -26.9870   19.5630 C   0  0  0  0  0  3  0  0  0  0  0  0
  -25.0050  -27.7070   19.5720 C   0  0  0  0  0  3  0  0  0  0  0  0
  -23.7020  -29.8200   20.1760 C   0  0  0  0  0  2  0  0  0  0  0  0
  -24.7040  -31.1250   22.1080 N   0  0  0  0  0  0  0  0  0  0  0  0
  -23.5250  -32.1850   23.7310 O   0  0  0  0  0  0  0  0  0  0  0  0
  -22.8020  -29.4800   22.5020 C   0  0  0  0  0  0  0  0  0  0  0  0
  -21.4850  -29.2670   22.3390 N   0  0  0  0  0  0  0  0  0  0  0  0
  -23.4740  -28.8830   23.3450 O   0  0  0  0  0  0  0  0  0  0  0  0
  -21.0130  -29.7740   21.6050 H   0  0  0  0  0  0  0  0  0  0  0  0
  -18.1160  -28.0450   22.8150 C   0  0  0  0  0  0  0  0  0  0  0  0
  -20.6690  -28.3290   23.1090 C   0  0  0  0  0  3  0  0  0  0  0  0
  -20.7900  -26.8970   22.5400 C   0  0  0  0  0  2  0  0  0  0  0  0
  -19.7010  -26.5700   21.5120 C   0  0  0  0  0  2  0  0  0  0  0  0
  -18.3110  -26.6990   22.1440 C   0  0  0  0  0  2  0  0  0  0  0  0
  -19.2250  -28.8190   23.2550 C   0  0  0  0  0  0  0  0  0  0  0  0
  -18.9850  -30.0790   23.8450 C   0  0  0  0  0  3  0  0  0  0  0  0
  -17.6750  -30.5640   24.0040 C   0  0  0  0  0  3  0  0  0  0  0  0
  -16.5840  -29.7890   23.5820 C   0  0  0  0  0  3  0  0  0  0  0  0
  -16.8040  -28.5340   22.9890 C   0  0  0  0  0  3  0  0  0  0  0  0
  -25.8830  -32.5800   23.8480 C   0  0  0  0  0  3  0  0  0  0  0  0
  -26.3940  -31.8180   25.1310 C   0  0  1  0  0  0  0  0  0  0  0  0
  -25.2940  -31.5460   26.1820 C   0  0  0  0  0  1  0  0  0  0  0  0
  -27.0080  -30.4530   24.7390 C   0  0  0  0  0  1  0  0  0  0  0  0
  -27.5170  -32.6340   25.8140 C   0  0  0  0  0  1  0  0  0  0  0  0
  -25.5520  -33.9770   24.1670 N   0  0  0  0  0  0  0  0  0  0  0  0
  -25.9100  -35.0300   23.4230 C   0  0  0  0  0  0  0  0  0  0  0  0
  -26.6180  -34.9290   22.4190 O   0  0  0  0  0  0  0  0  0  0  0  0
  -24.9240  -34.1350   24.9450 H   0  0  0  0  0  0  0  0  0  0  0  0
  -24.2020  -36.8180   22.9830 C   0  0  0  0  0  1  0  0  0  0  0  0
  -25.3980  -36.4170   23.8600 C   0  0  0  0  0  3  0  0  0  0  0  0
  -27.4810  -37.3000   24.8080 C   0  0  0  0  0  1  0  0  0  0  0  0
  -26.4330  -37.4700   23.8050 N   0  0  0  0  0  0  0  0  0  0  0  0
  -26.0210  -38.3910   23.9360 H   0  0  0  0  0  0  0  0  0  0  0  0
  2  1  2  0
  3  4  2  0
  4  1  1  0
  4 54  1  0
  5  2  1  0
  6  5  2  0
  6  3  1  0
  8  7  1  6
  8 14  1  0
  8  5  1  0
  9  8  1  0
  9 10  1  1
 11  9  1  0
 12  9  1  0
 14 13  1  0
 14 17  1  0
 17 15  1  1
 17 16  1  0
 18 17  1  0
 19 24  1  0
 20 21  1  0
 20 19  1  0
 22 21  1  0
 22 29  1  0
 22 23  1  0
 24 18  1  0
 24 23  1  0
 25 18  2  0
 26 27  2  0
 27 28  1  0
 27 46  1  0
 28 31  1  0
 29 26  1  0
 29 30  1  0
 30 28  2  0
 31 32  1  0
 32 33  2  0
 34 37  1  0
 34 33  1  0
 35 34  2  0
 36 35  1  0
 36 31  2  0
 37 38  1  0
 38 39  1  0
 39 40  2  0
 41 40  1  0
 41 45  1  0
 42 41  2  0
 43 38  2  0
 43 42  1  0
 44 43  1  0
 46 47  1  0
 47 50  1  0
 47 49  1  0
 48 46  2  0
 51 52  1  0
 51 26  1  0
 53 51  1  0
 55 56  1  0
 55 54  1  0
 57 59  1  0
 57 56  1  0
 58 69  2  0
 59 64  1  0
 60 68  1  0
 60 70  1  0
 61 67  1  0
 61 63  1  0
 62 68  1  0
 63 64  2  0
 63 62  1  0
 65 66  1  0
 65 59  2  0
 66 61  2  0
 67 60  1  0
 68 58  1  0
 70 72  2  0
 71 70  1  0
 73 71  1  0
 74 83  2  0
 74 79  1  0
 75 71  1  0
 75 79  1  0
 76 75  1  0
 77 78  1  0
 77 76  1  0
 78 74  1  0
 79 80  2  0
 80 81  1  0
 82 81  2  0
 83 82  1  0
 84 58  1  0
 84 89  1  0
 84 85  1  0
 85 88  1  1
 85 86  1  0
 87 85  1  0
 89 92  1  0
 90 94  1  0
 90 89  1  0
 91 90  2  0
 94 93  1  0
 96 94  1  0
 96 97  1  0
 96 95  1  0
M  ISO  4  17 100  18 100  56 101  57 101
M  END
>  <TORSDO>  (9) 
F 23

>  <SCORE>  (9) 
-11.975

>  <name>  (9) 
8

>  <ligand_id>  (9) 
8

>  <original_smiles>  (9) 
[H]c1nc(C(C([H])([H])[H])(C(F)(F)F)C([H])(C([H])([H])[H])C(C(=O)N2C([H])([H])C([H])([H])C([H])([H])C([H])(n3nc(-c4c([H])c([H])c(Oc5c([H])c([H])c(F)c([H])c5F)c([H])c4[H])c(C(=O)N([H])[H])c3N([H])[H])C2([H])[H])(C([H])([H])[H])C([H])([H])[H])c([H])c([H])c1C([H])([H])C([H])([H])C([H])([H])Oc1c([H])c([H])c2c(c1[H])C([H])([H])N(C(=O)C([H])(N([H])C(=O)C([H])(N([H])C([H])([H])[H])C([H])([H])[H])C(C([H])([H])[H])(C([H])([H])[H])C([H])([H])[H])C([H])(C(=O)N([H])C1([H])c3c([H])c([H])c([H])c([H])c3C([H])([H])C([H])([H])C1([H])[H])C2([H])[H]

>  <smiles>  (9) 
[H]c1nc(C(C([H])([H])[H])(C(F)(F)F)C([H])(C([H])([H])[H])C(C(=O)N2C([H])([H])C([H])([H])C([H])([H])C([H])(n3nc(-c4c([H])c([H])c(Oc5c([H])c([H])c(F)c([H])c5F)c([H])c4[H])c(C(=O)N([H])[H])c3N([H])[H])C2([H])[H])(C([H])([H])[H])C([H])([H])[H])c([H])c([H])c1C([H])([H])C([H])([H])C([H])([H])Oc1c([H])c([H])c2c(c1[H])C([H])([H])N(C(=O)C([H])(N([H])C(=O)C([H])(N([H])C([H])([H])[H])C([H])([H])[H])C(C([H])([H])[H])(C([H])([H])[H])C([H])([H])[H])C([H])(C(=O)N([H])C1([H])c3c([H])c([H])c([H])c([H])c3C([H])([H])C([H])([H])C1([H])[H])C2([H])[H]

$$$$
10:0:0
     RDKit          3D

107115  0  0  1  0  0  0  0  0999 V2000
  -31.1410  -23.5560   19.1050 C   0  0  2  0  0  0  0  0  0  0  0  0
  -32.2030  -24.0630   19.7070 F   0  0  0  0  0  0  0  0  0  0  0  0
  -32.7370  -19.3920   17.6450 C   0  0  0  0  0  3  0  0  0  0  0  0
  -33.8180  -20.2760   17.8260 C   0  0  0  0  0  0  0  0  0  0  0  0
  -31.0120  -20.9330   18.2150 C   0  0  0  0  0  0  0  0  0  0  0  0
  -31.8860  -22.0590   18.4350 C   0  0  0  0  0  0  0  0  0  0  0  0
  -31.4320  -19.6990   17.8220 N   0  0  0  0  0  0  0  0  0  0  0  0
  -33.3090  -21.6370   18.1870 N   0  0  0  0  0  0  0  0  0  0  0  0
  -35.3070  -19.5900   17.3670 C   0  0  0  0  0  0  0  0  0  0  0  0
  -36.9380  -19.4400   15.3480 C   0  0  0  0  0  2  0  0  0  0  0  0
  -36.5660  -20.3920   14.1830 C   0  0  0  0  0  2  0  0  0  0  0  0
  -35.5420  -19.7300   13.2450 C   0  0  0  0  0  2  0  0  0  0  0  0
  -34.4000  -19.0470   14.0330 C   0  0  0  0  0  3  0  0  0  0  0  0
  -34.9150  -18.1830   15.1990 C   0  0  0  0  0  2  0  0  0  0  0  0
  -35.6780  -19.0710   16.0910 N   0  0  0  0  0  0  0  0  0  0  0  0
  -36.3050  -19.7850   18.0830 O   0  0  0  0  0  0  0  0  0  0  0  0
  -32.2230  -18.7690   12.7440 C   0  0  0  0  0  0  0  0  0  0  0  0
  -31.7740  -17.8050   11.8830 C   0  0  0  0  0  0  0  0  0  0  0  0
  -32.7910  -16.8030   11.8490 C   0  0  0  0  0  0  0  0  0  0  0  0
  -33.4610  -18.3360   13.1800 N   0  0  0  0  0  0  0  0  0  0  0  0
  -33.7720  -17.1090   12.6900 N   0  0  0  0  0  0  0  0  0  0  0  0
  -32.9110  -15.5990   11.0150 C   0  0  0  0  0  0  0  0  0  0  0  0
  -32.6710  -14.3110   11.5400 C   0  0  0  0  0  3  0  0  0  0  0  0
  -32.7710  -13.1710   10.7140 C   0  0  0  0  0  3  0  0  0  0  0  0
  -33.1090  -13.3130    9.3480 C   0  0  0  0  0  0  0  0  0  0  0  0
  -33.3710  -14.5960    8.8350 C   0  0  0  0  0  3  0  0  0  0  0  0
  -33.2760  -15.7290    9.6600 C   0  0  0  0  0  3  0  0  0  0  0  0
  -33.2560  -12.2600    8.4770 O   0  0  0  0  0  0  0  0  0  0  0  0
  -32.2020  -11.4470    8.1450 C   0  0  0  0  0  0  0  0  0  0  0  0
  -31.1810  -11.8710    7.2660 C   0  0  0  0  0  3  0  0  0  0  0  0
  -30.1520  -10.9780    6.9010 C   0  0  0  0  0  3  0  0  0  0  0  0
  -30.1480   -9.6640    7.4040 C   0  0  0  0  0  0  0  0  0  0  0  0
  -31.1670   -9.2390    8.2750 C   0  0  0  0  0  3  0  0  0  0  0  0
  -32.1910  -10.1290    8.6420 C   0  0  0  0  0  0  0  0  0  0  0  0
  -33.1830   -9.7090    9.4650 F   0  0  0  0  0  0  0  0  0  0  0  0
  -29.1670   -8.8040    7.0470 F   0  0  0  0  0  0  0  0  0  0  0  0
  -30.5210  -17.8680   11.0610 C   0  0  0  0  0  0  0  0  0  0  0  0
  -29.8020  -16.7550   10.9570 N   0  0  0  0  0  0  0  0  0  0  0  0
  -30.1450  -18.9200   10.5460 O   0  0  0  0  0  0  0  0  0  0  0  0
  -30.1020  -15.8960   11.3940 H   0  0  0  0  0  0  0  0  0  0  0  0
  -28.9400  -16.7610   10.4320 H   0  0  0  0  0  0  0  0  0  0  0  0
  -31.7000  -19.9860   13.1670 N   0  0  0  0  0  0  0  0  0  0  0  0
  -30.8270  -20.3470   12.7980 H   0  0  0  0  0  0  0  0  0  0  0  0
  -32.1740  -20.6470   13.7720 H   0  0  0  0  0  0  0  0  0  0  0  0
  -29.4980  -20.9050   18.4530 C   0  0  0  0  0  2  0  0  0  0  0  0
  -27.5090  -19.3440   18.8420 C   0  0  0  0  0  1  0  0  0  0  0  0
  -29.0070  -19.5850   19.0820 C   0  0  0  0  0  2  0  0  0  0  0  0
  -30.8810  -24.1840   16.5090 C   0  0  0  0  0  1  0  0  0  0  0  0
  -32.1490  -25.5560   17.9460 C   0  0  0  0  0  1  0  0  0  0  0  0
  -30.8490  -24.6920   17.9830 C   0  0  2  0  0  0  0  0  0  0  0  0
  -29.4620  -25.5300   18.2280 C   0  0  0  0  0  3  0  0  0  0  0  0
  -29.6320  -27.0740   18.0110 C   0  0  2  0  0  0  0  0  0  0  0  0
  -30.5800  -27.5660   18.8080 F   0  0  0  0  0  0  0  0  0  0  0  0
  -28.5560  -27.7820   18.3390 F   0  0  0  0  0  0  0  0  0  0  0  0
  -29.9390  -27.3570   16.7440 F   0  0  0  0  0  0  0  0  0  0  0  0
  -27.8300  -23.4490   17.5590 C   0  0  0  0  0  1  0  0  0  0  0  0
  -26.9400  -25.3240   18.8350 C   0  0  0  0  0  1  0  0  0  0  0  0
  -27.9940  -24.9920   17.7300 C   0  0  1  0  0  0  0  0  0  0  0  0
  -27.4460  -25.5930   16.3780 C   0  0  1  0  0  0  0  0  0  0  0  0
  -26.3590  -24.9160   15.9880 F   0  0  0  0  0  0  0  0  0  0  0  0
  -27.0670  -26.8640   16.4530 F   0  0  0  0  0  0  0  0  0  0  0  0
  -28.3200  -25.4860   15.3830 F   0  0  0  0  0  0  0  0  0  0  0  0
  -30.0670  -23.8570   20.5370 C   0  0  1  0  0  0  0  0  0  0  0  0
  -28.9190  -23.2300   20.2910 F   0  0  0  0  0  0  0  0  0  0  0  0
  -30.6070  -23.1460   21.5260 F   0  0  0  0  0  0  0  0  0  0  0  0
  -29.5560  -25.3750   21.3730 C   0  0  0  0  0  2  0  0  0  0  0  0
  -29.0290  -26.8800   20.9570 O   0  0  0  0  0  0  0  0  0  0  0  0
  -27.1000  -32.4620   25.6890 C   0  0  0  0  0  0  0  0  0  0  0  0
  -28.0430  -27.7140   21.6980 C   0  0  0  0  0  0  0  0  0  0  0  0
  -25.5700  -30.5560   25.4110 C   0  0  0  0  0  3  0  0  0  0  0  0
  -25.9820  -29.0360   23.3660 C   0  0  0  0  0  0  0  0  0  0  0  0
  -27.0960  -31.2550   23.4510 C   0  0  0  0  0  2  0  0  0  0  0  0
  -27.0830  -29.7880   22.9350 C   0  0  0  0  0  0  0  0  0  0  0  0
  -28.0880  -29.1400   22.0880 C   0  0  0  0  0  3  0  0  0  0  0  0
  -26.8540  -27.0890   22.1330 C   0  0  0  0  0  3  0  0  0  0  0  0
  -25.8660  -27.7090   22.9370 C   0  0  0  0  0  3  0  0  0  0  0  0
  -24.9530  -29.6760   24.2930 C   0  0  0  0  0  2  0  0  0  0  0  0
  -26.6350  -31.4620   24.8720 N   0  0  0  0  0  0  0  0  0  0  0  0
  -26.6560  -32.6240   26.8380 O   0  0  0  0  0  0  0  0  0  0  0  0
  -26.0680  -29.6490   26.5660 C   0  0  0  0  0  0  0  0  0  0  0  0
  -25.3720  -29.6700   27.7180 N   0  0  0  0  0  0  0  0  0  0  0  0
  -27.0520  -28.9240   26.4060 O   0  0  0  0  0  0  0  0  0  0  0  0
  -24.5760  -30.2870   27.7820 H   0  0  0  0  0  0  0  0  0  0  0  0
  -25.9320  -29.7860   31.2960 C   0  0  0  0  0  0  0  0  0  0  0  0
  -25.6500  -28.8490   28.9010 C   0  0  0  0  0  3  0  0  0  0  0  0
  -24.3570  -28.1860   29.4320 C   0  0  0  0  0  2  0  0  0  0  0  0
  -23.6540  -29.0160   30.5120 C   0  0  0  0  0  2  0  0  0  0  0  0
  -24.5840  -29.2220   31.7110 C   0  0  0  0  0  2  0  0  0  0  0  0
  -26.4250  -29.6280   29.9740 C   0  0  0  0  0  0  0  0  0  0  0  0
  -27.6680  -30.2040   29.6330 C   0  0  0  0  0  3  0  0  0  0  0  0
  -28.4120  -30.9280   30.5850 C   0  0  0  0  0  3  0  0  0  0  0  0
  -27.9280  -31.0680   31.8970 C   0  0  0  0  0  3  0  0  0  0  0  0
  -26.6950  -30.4930   32.2500 C   0  0  0  0  0  3  0  0  0  0  0  0
  -28.2000  -33.4600   25.2160 C   0  0  0  0  0  3  0  0  0  0  0  0
  -29.5120  -33.3910   26.0890 C   0  0  1  0  0  0  0  0  0  0  0  0
  -29.4390  -34.2100   27.4000 C   0  0  0  0  0  1  0  0  0  0  0  0
  -29.8350  -31.9330   26.4820 C   0  0  0  0  0  1  0  0  0  0  0  0
  -30.7240  -33.9000   25.2720 C   0  0  0  0  0  1  0  0  0  0  0  0
  -27.6340  -34.8220   25.2540 N   0  0  0  0  0  0  0  0  0  0  0  0
  -27.0330  -35.4300   24.2220 C   0  0  0  0  0  0  0  0  0  0  0  0
  -26.9540  -34.9230   23.1000 O   0  0  0  0  0  0  0  0  0  0  0  0
  -27.6200  -35.2790   26.1540 H   0  0  0  0  0  0  0  0  0  0  0  0
  -24.9450  -36.8230   24.0390 C   0  0  0  0  0  1  0  0  0  0  0  0
  -26.4220  -36.8250   24.4680 C   0  0  0  0  0  3  0  0  0  0  0  0
  -28.5560  -37.9910   24.1310 C   0  0  0  0  0  1  0  0  0  0  0  0
  -27.1410  -37.9140   23.7730 N   0  0  0  0  0  0  0  0  0  0  0  0
  -26.7160  -38.8150   23.9750 H   0  0  0  0  0  0  0  0  0  0  0  0
  1  2  1  1
  1 63  1  0
  3  7  2  0
  3  4  1  0
  4  8  2  0
  5  6  2  0
  5 45  1  0
  6  1  1  0
  7  5  1  0
  8  6  1  0
  9  4  1  0
  9 16  2  0
 10 15  1  0
 11 10  1  0
 12 13  1  0
 12 11  1  0
 13 20  1  0
 13 14  1  0
 14 15  1  0
 15  9  1  0
 17 42  1  0
 17 20  1  0
 18 17  2  0
 19 18  1  0
 19 21  2  0
 21 20  1  0
 22 23  1  0
 22 19  1  0
 24 23  2  0
 25 24  1  0
 26 25  2  0
 26 27  1  0
 27 22  2  0
 28 25  1  0
 29 28  1  0
 29 34  1  0
 30 29  2  0
 31 30  1  0
 31 32  2  0
 32 33  1  0
 33 34  2  0
 34 35  1  0
 36 32  1  0
 37 18  1  0
 38 37  1  0
 38 40  1  0
 39 37  2  0
 41 38  1  0
 42 44  1  0
 43 42  1  0
 45 47  1  0
 46 47  1  0
 50 48  1  6
 49 50  1  0
 50 51  1  0
 50  1  1  0
 51 58  1  0
 52 51  1  0
 52 54  1  1
 52 53  1  0
 55 52  1  0
 58 56  1  6
 58 57  1  0
 59 61  1  1
 59 58  1  0
 60 59  1  0
 62 59  1  0
 63 66  1  0
 63 65  1  1
 64 63  1  0
 67 66  1  0
 67 69  1  0
 68 79  2  0
 69 74  2  0
 69 75  1  0
 70 80  1  0
 71 77  1  0
 72 78  1  0
 73 71  2  0
 73 72  1  0
 74 73  1  0
 75 76  2  0
 76 71  1  0
 77 70  1  0
 78 70  1  0
 78 68  1  0
 80 81  1  0
 81 83  1  0
 82 80  2  0
 84 88  1  0
 84 93  1  0
 85 81  1  0
 85 86  1  0
 85 89  1  0
 86 87  1  0
 87 88  1  0
 89 84  2  0
 90 89  1  0
 90 91  2  0
 91 92  1  0
 92 93  2  0
 94 99  1  0
 94 68  1  0
 94 95  1  0
 95 97  1  1
 95 96  1  0
 98 95  1  0
 99102  1  0
100104  1  0
100 99  1  0
101100  2  0
104103  1  0
106107  1  0
106105  1  0
106104  1  0
M  ISO  4   4 100   9 100  66 101  67 101
M  END
>  <TORSDO>  (10) 
F 26

>  <SCORE>  (10) 
-6.552

>  <name>  (10) 
10

>  <ligand_id>  (10) 
10

>  <original_smiles>  (10) 
[H]c1nc(C([H])([H])C([H])([H])C([H])([H])[H])c(C(F)(C(F)(F)C([H])([H])Oc2c([H])c([H])c3c(c2[H])C([H])([H])N(C(=O)C([H])(N([H])C(=O)C([H])(N([H])C([H])([H])[H])C([H])([H])[H])C(C([H])([H])[H])(C([H])([H])[H])C([H])([H])[H])C([H])(C(=O)N([H])C2([H])c4c([H])c([H])c([H])c([H])c4C([H])([H])C([H])([H])C2([H])[H])C3([H])[H])C(C([H])([H])[H])(C([H])([H])[H])C([H])(C(F)(F)F)C(C([H])([H])[H])(C([H])([H])[H])C(F)(F)F)nc1C(=O)N1C([H])([H])C([H])([H])C([H])([H])C([H])(n2nc(-c3c([H])c([H])c(Oc4c([H])c([H])c(F)c([H])c4F)c([H])c3[H])c(C(=O)N([H])[H])c2N([H])[H])C1([H])[H]

>  <smiles>  (10) 
[H]c1nc(C([H])([H])C([H])([H])C([H])([H])[H])c(C(F)(C(F)(F)C([H])([H])Oc2c([H])c([H])c3c(c2[H])C([H])([H])N(C(=O)C([H])(N([H])C(=O)C([H])(N([H])C([H])([H])[H])C([H])([H])[H])C(C([H])([H])[H])(C([H])([H])[H])C([H])([H])[H])C([H])(C(=O)N([H])C2([H])c4c([H])c([H])c([H])c([H])c4C([H])([H])C([H])([H])C2([H])[H])C3([H])[H])C(C([H])([H])[H])(C([H])([H])[H])C([H])(C(F)(F)F)C(C([H])([H])[H])(C([H])([H])[H])C(F)(F)F)nc1C(=O)N1C([H])([H])C([H])([H])C([H])([H])C([H])(n2nc(-c3c([H])c([H])c(Oc4c([H])c([H])c(F)c([H])c4F)c([H])c3[H])c(C(=O)N([H])[H])c2N([H])[H])C1([H])[H]

$$$$
11:0:0
     RDKit          3D

 99107  0  0  1  0  0  0  0  0999 V2000
  -30.9940  -21.6300   21.4390 C   0  0  0  0  0  3  0  0  0  0  0  0
  -30.7120  -18.1950   20.7270 C   0  0  0  0  0  0  0  0  0  0  0  0
  -32.0530  -18.2980   20.9810 N   0  0  0  0  0  0  0  0  0  0  0  0
  -30.0860  -19.3750   20.7920 N   0  0  0  0  0  2  0  0  0  0  0  0
  -32.2860  -19.5460   21.2410 N   0  0  0  0  0  2  0  0  0  0  0  0
  -31.1080  -20.2000   21.1150 N   0  0  0  0  0  0  0  0  0  0  0  0
  -28.5170  -17.0060   20.6160 C   0  0  0  0  0  1  0  0  0  0  0  0
  -30.0140  -16.9240   20.2270 C   0  0  2  0  0  0  0  0  0  0  0  0
  -31.0170  -14.5930   20.1440 C   0  0  0  0  0  0  0  0  0  0  0  0
  -30.6100  -12.4190   19.0140 C   0  0  0  0  0  2  0  0  0  0  0  0
  -29.6420  -12.5870   17.8270 C   0  0  0  0  0  2  0  0  0  0  0  0
  -28.1790  -12.4720   18.2950 C   0  0  0  0  0  2  0  0  0  0  0  0
  -27.8740  -13.3300   19.5520 C   0  0  0  0  0  3  0  0  0  0  0  0
  -28.9670  -13.1620   20.6360 C   0  0  0  0  0  2  0  0  0  0  0  0
  -30.2810  -13.4430   20.0250 N   0  0  0  0  0  0  0  0  0  0  0  0
  -32.1030  -14.7300   19.5810 O   0  0  0  0  0  0  0  0  0  0  0  0
  -30.8970  -15.6850   22.2550 C   0  0  0  0  0  1  0  0  0  0  0  0
  -30.4770  -15.6220   20.8460 N   0  0  0  0  0  0  0  0  0  0  0  0
  -25.5000  -13.9610   20.3100 C   0  0  0  0  0  0  0  0  0  0  0  0
  -24.4370  -13.2030   20.7130 C   0  0  0  0  0  0  0  0  0  0  0  0
  -24.8820  -11.8480   20.6710 C   0  0  0  0  0  0  0  0  0  0  0  0
  -26.5330  -13.0700   20.0660 N   0  0  0  0  0  0  0  0  0  0  0  0
  -26.1650  -11.7920   20.3360 N   0  0  0  0  0  0  0  0  0  0  0  0
  -24.1430  -10.5970   20.8700 C   0  0  0  0  0  0  0  0  0  0  0  0
  -24.5420   -9.6530   21.8400 C   0  0  0  0  0  3  0  0  0  0  0  0
  -23.8030   -8.4660   22.0310 C   0  0  0  0  0  3  0  0  0  0  0  0
  -22.6510   -8.2160   21.2490 C   0  0  0  0  0  0  0  0  0  0  0  0
  -22.2710   -9.1480   20.2670 C   0  0  0  0  0  3  0  0  0  0  0  0
  -23.0120  -10.3260   20.0750 C   0  0  0  0  0  3  0  0  0  0  0  0
  -21.8850   -7.0780   21.3470 O   0  0  0  0  0  0  0  0  0  0  0  0
  -21.7370   -6.4110   22.5350 C   0  0  0  0  0  0  0  0  0  0  0  0
  -21.2050   -7.0390   23.6820 C   0  0  0  0  0  3  0  0  0  0  0  0
  -21.0050   -6.2980   24.8630 C   0  0  0  0  0  3  0  0  0  0  0  0
  -21.3290   -4.9280   24.8990 C   0  0  0  0  0  0  0  0  0  0  0  0
  -21.8550   -4.2990   23.7570 C   0  0  0  0  0  3  0  0  0  0  0  0
  -22.0560   -5.0390   22.5780 C   0  0  0  0  0  0  0  0  0  0  0  0
  -22.5450   -4.4240   21.4740 F   0  0  0  0  0  0  0  0  0  0  0  0
  -21.1310   -4.2120   26.0300 F   0  0  0  0  0  0  0  0  0  0  0  0
  -23.0550  -13.7010   21.0190 C   0  0  0  0  0  0  0  0  0  0  0  0
  -22.3460  -13.0210   21.9140 N   0  0  0  0  0  0  0  0  0  0  0  0
  -22.6160  -14.7280   20.5040 O   0  0  0  0  0  0  0  0  0  0  0  0
  -22.7160  -12.1850   22.3430 H   0  0  0  0  0  0  0  0  0  0  0  0
  -21.4200  -13.3370   22.1650 H   0  0  0  0  0  0  0  0  0  0  0  0
  -25.6490  -15.3280   20.1080 N   0  0  0  0  0  0  0  0  0  0  0  0
  -24.8600  -15.9590   20.2030 H   0  0  0  0  0  0  0  0  0  0  0  0
  -26.4470  -15.7530   19.6580 H   0  0  0  0  0  0  0  0  0  0  0  0
  -30.1260  -16.9390   18.6620 C   0  0  2  0  0  0  0  0  0  0  0  0
  -31.3890  -16.9750   18.2380 F   0  0  0  0  0  0  0  0  0  0  0  0
  -29.5290  -18.0210   18.1590 F   0  0  0  0  0  0  0  0  0  0  0  0
  -29.5290  -15.8940   18.1010 F   0  0  0  0  0  0  0  0  0  0  0  0
  -29.6260  -22.3430   21.1730 C   0  0  0  0  0  3  0  0  0  0  0  0
  -29.3020  -23.4010   23.4230 C   0  0  0  0  0  1  0  0  0  0  0  0
  -30.6550  -24.6270   21.7530 C   0  0  0  0  0  1  0  0  0  0  0  0
  -29.4010  -23.7240   21.9030 C   0  0  1  0  0  0  0  0  0  0  0  0
  -26.9010  -23.5120   21.2640 C   0  0  0  0  0  1  0  0  0  0  0  0
  -27.6370  -25.5540   22.4430 C   0  0  0  0  0  1  0  0  0  0  0  0
  -28.0870  -24.5010   21.3920 C   0  0  1  0  0  0  0  0  0  0  0  0
  -28.2340  -25.1900   19.9690 C   0  0  0  0  0  2  0  0  0  0  0  0
  -28.2180  -26.6360   19.9170 O   0  0  0  0  0  0  0  0  0  0  0  0
  -24.5260  -31.7780   23.1130 C   0  0  0  0  0  0  0  0  0  0  0  0
  -27.0290  -27.3490   19.8930 C   0  0  0  0  0  0  0  0  0  0  0  0
  -23.2500  -30.4140   21.4900 C   0  0  0  0  0  3  0  0  0  0  0  0
  -24.6390  -28.8840   19.9910 C   0  0  0  0  0  0  0  0  0  0  0  0
  -25.7690  -30.7520   21.2090 C   0  0  0  0  0  2  0  0  0  0  0  0
  -25.8210  -29.3920   20.5420 C   0  0  0  0  0  0  0  0  0  0  0  0
  -27.0140  -28.6350   20.4830 C   0  0  0  0  0  3  0  0  0  0  0  0
  -25.8240  -26.8550   19.3340 C   0  0  0  0  0  3  0  0  0  0  0  0
  -24.6380  -27.6130   19.3850 C   0  0  0  0  0  3  0  0  0  0  0  0
  -23.4040  -29.7500   20.0930 C   0  0  0  0  0  2  0  0  0  0  0  0
  -24.5360  -30.9940   21.9960 N   0  0  0  0  0  0  0  0  0  0  0  0
  -23.4680  -32.0530   23.6950 O   0  0  0  0  0  0  0  0  0  0  0  0
  -22.6190  -29.3870   22.4580 C   0  0  0  0  0  0  0  0  0  0  0  0
  -21.2890  -29.2200   22.3700 N   0  0  0  0  0  0  0  0  0  0  0  0
  -23.3210  -28.7450   23.2420 O   0  0  0  0  0  0  0  0  0  0  0  0
  -20.7830  -29.7840   21.7020 H   0  0  0  0  0  0  0  0  0  0  0  0
  -17.9240  -28.0330   22.9400 C   0  0  0  0  0  0  0  0  0  0  0  0
  -20.4890  -28.2790   23.1530 C   0  0  0  0  0  3  0  0  0  0  0  0
  -20.5740  -26.8530   22.5600 C   0  0  0  0  0  2  0  0  0  0  0  0
  -19.4470  -26.5450   21.5700 C   0  0  0  0  0  2  0  0  0  0  0  0
  -18.0810  -26.6890   22.2480 C   0  0  0  0  0  2  0  0  0  0  0  0
  -19.0560  -28.7860   23.3500 C   0  0  0  0  0  0  0  0  0  0  0  0
  -18.8600  -30.0450   23.9580 C   0  0  0  0  0  3  0  0  0  0  0  0
  -17.5620  -30.5520   24.1600 C   0  0  0  0  0  3  0  0  0  0  0  0
  -16.4440  -29.7970   23.7650 C   0  0  0  0  0  3  0  0  0  0  0  0
  -16.6260  -28.5390   23.1610 C   0  0  0  0  0  3  0  0  0  0  0  0
  -25.8390  -32.3840   23.6960 C   0  0  0  0  0  3  0  0  0  0  0  0
  -26.4100  -31.5670   24.9180 C   0  0  1  0  0  0  0  0  0  0  0  0
  -25.3660  -31.2890   26.0240 C   0  0  0  0  0  1  0  0  0  0  0  0
  -26.9700  -30.2050   24.4460 C   0  0  0  0  0  1  0  0  0  0  0  0
  -27.5930  -32.3340   25.5530 C   0  0  0  0  0  1  0  0  0  0  0  0
  -25.5500  -33.7710   24.0860 N   0  0  0  0  0  0  0  0  0  0  0  0
  -25.8830  -34.8490   23.3630 C   0  0  0  0  0  0  0  0  0  0  0  0
  -26.5370  -34.7790   22.3180 O   0  0  0  0  0  0  0  0  0  0  0  0
  -24.9610  -33.8990   24.8970 H   0  0  0  0  0  0  0  0  0  0  0  0
  -24.1810  -36.6790   23.0950 C   0  0  0  0  0  1  0  0  0  0  0  0
  -25.4200  -36.2240   23.8820 C   0  0  0  0  0  3  0  0  0  0  0  0
  -27.5700  -37.0390   24.7430 C   0  0  0  0  0  1  0  0  0  0  0  0
  -26.4690  -37.2640   23.8070 N   0  0  0  0  0  0  0  0  0  0  0  0
  -26.0800  -38.1850   23.9910 H   0  0  0  0  0  0  0  0  0  0  0  0
  2  4  1  0
  2  3  2  0
  3  5  1  0
  4  6  1  0
  6  5  1  0
  6  1  1  0
  8  7  1  6
  8  2  1  0
  8 18  1  0
  9 18  1  0
 10 15  1  0
 11 12  1  0
 11 10  1  0
 13 12  1  0
 13 22  1  0
 13 14  1  0
 15  9  1  0
 15 14  1  0
 16  9  2  0
 18 17  1  0
 19 20  2  0
 20 39  1  0
 21 20  1  0
 21 24  1  0
 22 19  1  0
 22 23  1  0
 23 21  2  0
 24 25  1  0
 25 26  2  0
 27 30  1  0
 27 26  1  0
 28 27  2  0
 29 28  1  0
 29 24  2  0
 30 31  1  0
 31 36  2  0
 31 32  1  0
 32 33  2  0
 33 34  1  0
 34 38  1  0
 35 34  2  0
 36 35  1  0
 37 36  1  0
 39 40  1  0
 40 43  1  0
 40 42  1  0
 41 39  2  0
 44 45  1  0
 44 19  1  0
 46 44  1  0
 47  8  1  0
 47 48  1  1
 49 47  1  0
 50 47  1  0
 51  1  2  0
 51 54  1  0
 54 53  1  1
 54 52  1  0
 57 55  1  6
 57 54  1  0
 57 56  1  0
 58 57  1  0
 59 58  1  0
 60 71  2  0
 61 59  1  0
 61 66  1  0
 62 70  1  0
 62 72  1  0
 63 69  1  0
 63 65  1  0
 64 70  1  0
 65 64  1  0
 66 65  2  0
 67 68  1  0
 67 61  2  0
 68 63  2  0
 69 62  1  0
 70 60  1  0
 72 74  2  0
 73 72  1  0
 75 73  1  0
 76 85  2  0
 76 81  1  0
 77 73  1  0
 77 81  1  0
 78 77  1  0
 79 80  1  0
 79 78  1  0
 80 76  1  0
 81 82  2  0
 82 83  1  0
 84 83  2  0
 85 84  1  0
 86 60  1  0
 86 91  1  0
 86 87  1  0
 87 90  1  1
 87 88  1  0
 89 87  1  0
 91 94  1  0
 92 96  1  0
 92 91  1  0
 93 92  2  0
 96 95  1  0
 98 96  1  0
 98 99  1  0
 98 97  1  0
M  ISO  4   9 100  18 100  58 101  59 101
M  END
>  <TORSDO>  (11) 
F 23

>  <SCORE>  (11) 
-12.145

>  <name>  (11) 
11

>  <ligand_id>  (11) 
11

>  <original_smiles>  (11) 
[H]c1c([H])c([H])c2c(c1[H])C([H])([H])C([H])([H])C([H])([H])C2([H])N([H])C(=O)C1([H])N(C(=O)C([H])(N([H])C(=O)C([H])(N([H])C([H])([H])[H])C([H])([H])[H])C(C([H])([H])[H])(C([H])([H])[H])C([H])([H])[H])C([H])([H])c2c([H])c(OC([H])([H])C(C([H])([H])[H])(C([H])([H])[H])C(C([H])([H])[H])(C([H])([H])[H])C([H])([H])C([H])([H])n3nnc(C(N(C(=O)N4C([H])([H])C([H])([H])C([H])([H])C([H])(n5nc(-c6c([H])c([H])c(Oc7c([H])c([H])c(F)c([H])c7F)c([H])c6[H])c(C(=O)N([H])[H])c5N([H])[H])C4([H])[H])C([H])([H])[H])(C([H])([H])[H])C(F)(F)F)n3)c([H])c([H])c2C1([H])[H]

>  <smiles>  (11) 
[H]c1c([H])c([H])c2c(c1[H])C([H])([H])C([H])([H])C([H])([H])C2([H])N([H])C(=O)C1([H])N(C(=O)C([H])(N([H])C(=O)C([H])(N([H])C([H])([H])[H])C([H])([H])[H])C(C([H])([H])[H])(C([H])([H])[H])C([H])([H])[H])C([H])([H])c2c([H])c(OC([H])([H])C(C([H])([H])[H])(C([H])([H])[H])C(C([H])([H])[H])(C([H])([H])[H])C([H])([H])C([H])([H])n3nnc(C(N(C(=O)N4C([H])([H])C([H])([H])C([H])([H])C([H])(n5nc(-c6c([H])c([H])c(Oc7c([H])c([H])c(F)c([H])c7F)c([H])c6[H])c(C(=O)N([H])[H])c5N([H])[H])C4([H])[H])C([H])([H])[H])(C([H])([H])[H])C(F)(F)F)n3)c([H])c([H])c2C1([H])[H]

$$$$
12:0:0
     RDKit          3D

 95103  0  0  1  0  0  0  0  0999 V2000
  -29.1750  -20.9050   20.5620 C   0  0  0  0  0  3  0  0  0  0  0  0
  -30.6030  -20.1330   19.1730 C   0  0  0  0  0  3  0  0  0  0  0  0
  -29.5360  -21.9910   19.7420 C   0  0  0  0  0  0  0  0  0  0  0  0
  -30.5290  -21.4520   18.9060 N   0  0  0  0  0  0  0  0  0  0  0  0
  -29.7770  -19.6710   20.1280 N   0  0  0  0  0  0  0  0  0  0  0  0
  -28.5190  -23.3840   17.9650 C   0  0  0  0  0  1  0  0  0  0  0  0
  -27.5020  -23.4220   20.2200 C   0  0  0  0  0  1  0  0  0  0  0  0
  -28.8490  -23.4310   19.4730 C   0  0  1  0  0  0  0  0  0  0  0  0
  -31.0690  -24.7790   19.6580 C   0  0  0  0  0  1  0  0  0  0  0  0
  -29.5530  -24.8720   19.8960 C   0  0  0  0  0  3  0  0  0  0  0  0
  -29.2200  -26.2930   19.4480 O   0  0  0  0  0  0  0  0  0  0  0  0
  -25.1900  -31.2300   23.1260 C   0  0  0  0  0  0  0  0  0  0  0  0
  -28.0420  -27.0570   19.6590 C   0  0  0  0  0  0  0  0  0  0  0  0
  -24.1130  -30.0000   21.3020 C   0  0  0  0  0  3  0  0  0  0  0  0
  -25.6360  -28.6460   19.7650 C   0  0  0  0  0  0  0  0  0  0  0  0
  -26.6420  -30.3770   21.2490 C   0  0  0  0  0  2  0  0  0  0  0  0
  -26.7750  -29.0750   20.4580 C   0  0  0  0  0  0  0  0  0  0  0  0
  -27.9810  -28.2960   20.3880 C   0  0  0  0  0  3  0  0  0  0  0  0
  -26.8840  -26.7250   18.9300 C   0  0  0  0  0  3  0  0  0  0  0  0
  -25.6930  -27.4780   18.9940 C   0  0  0  0  0  3  0  0  0  0  0  0
  -24.3840  -29.4910   19.8610 C   0  0  0  0  0  2  0  0  0  0  0  0
  -25.3350  -30.5490   21.9520 N   0  0  0  0  0  0  0  0  0  0  0  0
  -24.0750  -31.4110   23.6370 O   0  0  0  0  0  0  0  0  0  0  0  0
  -23.4420  -28.8720   22.1150 C   0  0  0  0  0  0  0  0  0  0  0  0
  -22.1330  -28.7740   21.9000 N   0  0  0  0  0  0  0  0  0  0  0  0
  -24.0770  -28.1190   22.8550 O   0  0  0  0  0  0  0  0  0  0  0  0
  -21.7500  -29.5170   21.3300 H   0  0  0  0  0  0  0  0  0  0  0  0
  -18.7320  -27.2260   22.1150 C   0  0  0  0  0  0  0  0  0  0  0  0
  -21.1980  -27.7000   22.1310 C   0  0  0  0  0  3  0  0  0  0  0  0
  -21.4940  -26.2570   21.7020 C   0  0  0  0  0  2  0  0  0  0  0  0
  -20.4030  -25.8150   20.7040 C   0  0  0  0  0  2  0  0  0  0  0  0
  -18.9810  -25.9610   21.2880 C   0  0  0  0  0  2  0  0  0  0  0  0
  -19.8020  -28.0030   22.6200 C   0  0  0  0  0  0  0  0  0  0  0  0
  -19.5420  -29.1530   23.3950 C   0  0  0  0  0  3  0  0  0  0  0  0
  -18.2130  -29.5570   23.6260 C   0  0  0  0  0  3  0  0  0  0  0  0
  -17.1470  -28.8060   23.0980 C   0  0  0  0  0  3  0  0  0  0  0  0
  -17.4080  -27.6350   22.3610 C   0  0  0  0  0  3  0  0  0  0  0  0
  -26.4200  -31.8210   23.8710 C   0  0  0  0  0  3  0  0  0  0  0  0
  -26.0420  -33.1550   24.3560 N   0  0  0  0  0  0  0  0  0  0  0  0
  -26.3450  -34.3050   23.7410 C   0  0  0  0  0  0  0  0  0  0  0  0
  -27.0360  -34.3540   22.7190 O   0  0  0  0  0  0  0  0  0  0  0  0
  -25.4340  -33.1850   25.1620 H   0  0  0  0  0  0  0  0  0  0  0  0
  -24.5410  -36.0510   23.5770 C   0  0  0  0  0  1  0  0  0  0  0  0
  -25.7930  -35.6090   24.3500 C   0  0  0  0  0  3  0  0  0  0  0  0
  -27.8790  -36.4780   25.3110 C   0  0  0  0  0  1  0  0  0  0  0  0
  -26.7820  -36.7100   24.3760 N   0  0  0  0  0  0  0  0  0  0  0  0
  -26.3360  -37.5920   24.6240 H   0  0  0  0  0  0  0  0  0  0  0  0
  -26.9140  -30.9110   25.0610 C   0  0  1  0  0  0  0  0  0  0  0  0
  -25.7850  -30.4860   26.0310 C   0  0  0  0  0  1  0  0  0  0  0  0
  -27.5830  -29.6230   24.5280 C   0  0  0  0  0  1  0  0  0  0  0  0
  -27.9930  -31.6640   25.8730 C   0  0  0  0  0  1  0  0  0  0  0  0
  -29.8310  -18.3220   22.1680 C   0  0  0  0  0  1  0  0  0  0  0  0
  -29.6190  -18.2140   20.6410 C   0  0  1  0  0  0  0  0  0  0  0  0
  -27.6150  -16.5590   21.2840 C   0  0  0  0  0  1  0  0  0  0  0  0
  -27.0100  -18.5820   19.9610 C   0  0  0  0  0  1  0  0  0  0  0  0
  -28.1760  -17.6170   20.2890 C   0  0  0  0  0  3  0  0  0  0  0  0
  -30.7530  -17.1460   20.1390 C   0  0  0  0  0  2  0  0  0  0  0  0
  -31.3260  -14.5620   19.9050 C   0  0  0  0  0  0  0  0  0  0  0  0
  -30.9610  -12.4010   18.6960 C   0  0  0  0  0  2  0  0  0  0  0  0
  -29.9250  -12.6320   17.5710 C   0  0  0  0  0  2  0  0  0  0  0  0
  -28.4810  -12.5010   18.1030 C   0  0  0  0  0  2  0  0  0  0  0  0
  -28.2640  -13.2720   19.4370 C   0  0  0  0  0  3  0  0  0  0  0  0
  -29.4070  -12.9910   20.4400 C   0  0  0  0  0  2  0  0  0  0  0  0
  -30.6690  -13.3600   19.7870 N   0  0  0  0  0  0  0  0  0  0  0  0
  -32.4520  -14.7100   19.4170 O   0  0  0  0  0  0  0  0  0  0  0  0
  -30.5960  -15.6380   20.3750 N   0  0  0  0  0  0  0  0  0  0  0  0
  -29.6960  -15.3710   20.7410 H   0  0  0  0  0  0  0  0  0  0  0  0
  -25.9650  -13.8930   20.3950 C   0  0  0  0  0  0  0  0  0  0  0  0
  -24.9090  -13.1380   20.8160 C   0  0  0  0  0  0  0  0  0  0  0  0
  -25.3170  -11.7750   20.6780 C   0  0  0  0  0  0  0  0  0  0  0  0
  -26.9540  -12.9990   20.0190 N   0  0  0  0  0  0  0  0  0  0  0  0
  -26.5740  -11.7150   20.2500 N   0  0  0  0  0  0  0  0  0  0  0  0
  -24.5630  -10.5300   20.8710 C   0  0  0  0  0  0  0  0  0  0  0  0
  -24.9580   -9.5730   21.8310 C   0  0  0  0  0  3  0  0  0  0  0  0
  -24.2120   -8.3890   22.0160 C   0  0  0  0  0  3  0  0  0  0  0  0
  -23.0550   -8.1540   21.2350 C   0  0  0  0  0  0  0  0  0  0  0  0
  -22.6770   -9.0970   20.2640 C   0  0  0  0  0  3  0  0  0  0  0  0
  -23.4240  -10.2740   20.0800 C   0  0  0  0  0  3  0  0  0  0  0  0
  -22.2820   -7.0210   21.3200 O   0  0  0  0  0  0  0  0  0  0  0  0
  -22.0570   -6.3930   22.5180 C   0  0  0  0  0  0  0  0  0  0  0  0
  -21.5330   -7.0800   23.6340 C   0  0  0  0  0  3  0  0  0  0  0  0
  -21.2550   -6.3800   24.8250 C   0  0  0  0  0  3  0  0  0  0  0  0
  -21.4910   -4.9930   24.8990 C   0  0  0  0  0  0  0  0  0  0  0  0
  -22.0100   -4.3060   23.7870 C   0  0  0  0  0  3  0  0  0  0  0  0
  -22.2910   -5.0060   22.5990 C   0  0  0  0  0  0  0  0  0  0  0  0
  -22.7700   -4.3350   21.5240 F   0  0  0  0  0  0  0  0  0  0  0  0
  -21.2150   -4.3190   26.0390 F   0  0  0  0  0  0  0  0  0  0  0  0
  -23.5550  -13.6420   21.2260 C   0  0  0  0  0  0  0  0  0  0  0  0
  -22.9030  -12.9620   22.1600 N   0  0  0  0  0  0  0  0  0  0  0  0
  -23.0910  -14.6770   20.7470 O   0  0  0  0  0  0  0  0  0  0  0  0
  -23.2910  -12.1260   22.5700 H   0  0  0  0  0  0  0  0  0  0  0  0
  -21.9980  -13.2880   22.4730 H   0  0  0  0  0  0  0  0  0  0  0  0
  -26.1580  -15.2670   20.2820 N   0  0  0  0  0  0  0  0  0  0  0  0
  -25.4140  -15.9270   20.4850 H   0  0  0  0  0  0  0  0  0  0  0  0
  -26.9690  -15.7030   19.8670 H   0  0  0  0  0  0  0  0  0  0  0  0
  2  5  1  0
  3  1  2  0
  4  2  2  0
  4  3  1  0
  5  1  1  0
  5 53  1  0
  8  6  1  6
  8  3  1  0
  8 10  1  0
  8  7  1  0
 10  9  1  0
 11 13  1  0
 11 10  1  0
 12 23  2  0
 13 18  1  0
 14 22  1  0
 14 24  1  0
 15 21  1  0
 15 17  1  0
 16 22  1  0
 17 16  1  0
 18 17  2  0
 19 20  1  0
 19 13  2  0
 20 15  2  0
 21 14  1  0
 22 12  1  0
 24 26  2  0
 25 24  1  0
 27 25  1  0
 28 37  2  0
 28 33  1  0
 29 25  1  0
 29 33  1  0
 30 29  1  0
 31 32  1  0
 31 30  1  0
 32 28  1  0
 33 34  2  0
 34 35  1  0
 36 35  2  0
 37 36  1  0
 38 12  1  0
 38 39  1  0
 38 48  1  0
 39 42  1  0
 40 44  1  0
 40 39  1  0
 41 40  2  0
 44 43  1  0
 44 46  1  0
 46 47  1  0
 46 45  1  0
 48 51  1  1
 48 49  1  0
 50 48  1  0
 53 52  1  1
 55 56  1  0
 56 53  1  0
 56 54  1  0
 57 66  1  0
 57 53  1  0
 58 66  1  0
 59 64  1  0
 60 61  1  0
 60 59  1  0
 62 61  1  0
 62 71  1  0
 62 63  1  0
 64 58  1  0
 64 63  1  0
 65 58  2  0
 66 67  1  0
 68 69  2  0
 69 88  1  0
 70 69  1  0
 70 73  1  0
 71 72  1  0
 71 68  1  0
 72 70  2  0
 73 74  1  0
 74 75  2  0
 76 79  1  0
 76 75  1  0
 77 76  2  0
 78 77  1  0
 78 73  2  0
 79 80  1  0
 80 85  2  0
 80 81  1  0
 81 82  2  0
 82 83  1  0
 83 87  1  0
 84 83  2  0
 85 84  1  0
 86 85  1  0
 88 89  1  0
 89 92  1  0
 89 91  1  0
 90 88  2  0
 93 68  1  0
 93 94  1  0
 95 93  1  0
M  ISO  4  10 101  11 101  58 100  66 100
M  END
>  <TORSDO>  (12) 
F 21

>  <SCORE>  (12) 
-9.028

>  <name>  (12) 
12

>  <ligand_id>  (12) 
12

>  <original_smiles>  (12) 
[H]c1c([H])c([H])c2c(c1[H])C([H])([H])C([H])([H])C([H])([H])C2([H])N([H])C(=O)C1([H])N(C(=O)C([H])(N([H])C(=O)C([H])(N([H])C([H])([H])[H])C([H])([H])[H])C(C([H])([H])[H])(C([H])([H])[H])C([H])([H])[H])C([H])([H])c2c([H])c(OC([H])(C([H])([H])[H])C(c3nc([H])n(C(C([H])([H])[H])(C([H])([H])N([H])C(=O)N4C([H])([H])C([H])([H])C([H])([H])C([H])(n5nc(-c6c([H])c([H])c(Oc7c([H])c([H])c(F)c([H])c7F)c([H])c6[H])c(C(=O)N([H])[H])c5N([H])[H])C4([H])[H])C([H])(C([H])([H])[H])C([H])([H])[H])c3[H])(C([H])([H])[H])C([H])([H])[H])c([H])c([H])c2C1([H])[H]

>  <smiles>  (12) 
[H]c1c([H])c([H])c2c(c1[H])C([H])([H])C([H])([H])C([H])([H])C2([H])N([H])C(=O)C1([H])N(C(=O)C([H])(N([H])C(=O)C([H])(N([H])C([H])([H])[H])C([H])([H])[H])C(C([H])([H])[H])(C([H])([H])[H])C([H])([H])[H])C([H])([H])c2c([H])c(OC([H])(C([H])([H])[H])C(c3nc([H])n(C(C([H])([H])[H])(C([H])([H])N([H])C(=O)N4C([H])([H])C([H])([H])C([H])([H])C([H])(n5nc(-c6c([H])c([H])c(Oc7c([H])c([H])c(F)c([H])c7F)c([H])c6[H])c(C(=O)N([H])[H])c5N([H])[H])C4([H])[H])C([H])(C([H])([H])[H])C([H])([H])[H])c3[H])(C([H])([H])[H])C([H])([H])[H])c([H])c([H])c2C1([H])[H]

$$$$
13:0:0
     RDKit          3D

 91 99  0  0  1  0  0  0  0  0999 V2000
  -29.4250  -22.4640   21.1190 C   0  0  0  0  0  3  0  0  0  0  0  0
  -28.8660  -22.4470   19.8220 C   0  0  0  0  0  0  0  0  0  0  0  0
  -29.7100  -19.8780   19.8050 C   0  0  0  0  0  0  0  0  0  0  0  0
  -30.1340  -20.1560   21.1380 C   0  0  0  0  0  0  0  0  0  0  0  0
  -30.0060  -21.3900   21.7320 N   0  0  0  0  0  0  0  0  0  0  0  0
  -29.0500  -21.0890   19.2020 N   0  0  0  0  0  0  0  0  0  0  0  0
  -30.7720  -19.0630   22.0090 C   0  0  1  0  0  0  0  0  0  0  0  0
  -31.2230  -19.5600   23.1650 F   0  0  0  0  0  0  0  0  0  0  0  0
  -29.8720  -18.1220   22.2990 F   0  0  0  0  0  0  0  0  0  0  0  0
  -31.8030  -18.5010   21.3790 F   0  0  0  0  0  0  0  0  0  0  0  0
  -30.1030  -18.2820   19.1010 C   0  0  0  0  0  2  0  0  0  0  0  0
  -30.7250  -15.3370   19.3440 C   0  0  0  0  0  0  0  0  0  0  0  0
  -30.6360  -12.8320   18.5800 C   0  0  0  0  0  2  0  0  0  0  0  0
  -29.6090  -12.5590   17.4510 C   0  0  0  0  0  2  0  0  0  0  0  0
  -28.2100  -12.3040   18.0370 C   0  0  0  0  0  2  0  0  0  0  0  0
  -27.8670  -13.3200   19.1530 C   0  0  0  0  0  3  0  0  0  0  0  0
  -29.0110  -13.5170   20.1710 C   0  0  0  0  0  2  0  0  0  0  0  0
  -30.1710  -14.0140   19.4100 N   0  0  0  0  0  0  0  0  0  0  0  0
  -31.9010  -15.3090   18.9450 O   0  0  0  0  0  0  0  0  0  0  0  0
  -29.9840  -16.6320   19.5250 N   0  0  0  0  0  0  0  0  0  0  0  0
  -29.0730  -16.4400   19.9160 H   0  0  0  0  0  0  0  0  0  0  0  0
  -25.6170  -13.9410   20.1680 C   0  0  0  0  0  0  0  0  0  0  0  0
  -24.5720  -13.1980   20.6350 C   0  0  0  0  0  0  0  0  0  0  0  0
  -24.9840  -11.8330   20.5330 C   0  0  0  0  0  0  0  0  0  0  0  0
  -26.5920  -13.0370   19.7950 N   0  0  0  0  0  0  0  0  0  0  0  0
  -26.2320  -11.7590   20.0840 N   0  0  0  0  0  0  0  0  0  0  0  0
  -24.2370  -10.5930   20.7850 C   0  0  0  0  0  0  0  0  0  0  0  0
  -24.5820   -9.7190   21.8410 C   0  0  0  0  0  3  0  0  0  0  0  0
  -23.8310   -8.5460   22.0740 C   0  0  0  0  0  3  0  0  0  0  0  0
  -22.7220   -8.2360   21.2520 C   0  0  0  0  0  0  0  0  0  0  0  0
  -22.3970   -9.0970   20.1890 C   0  0  0  0  0  3  0  0  0  0  0  0
  -23.1460  -10.2620   19.9550 C   0  0  0  0  0  3  0  0  0  0  0  0
  -21.9510   -7.1060   21.3880 O   0  0  0  0  0  0  0  0  0  0  0  0
  -21.5910   -6.6270   22.6230 C   0  0  0  0  0  0  0  0  0  0  0  0
  -20.9050   -7.4270   23.5620 C   0  0  0  0  0  3  0  0  0  0  0  0
  -20.4920   -6.8720   24.7900 C   0  0  0  0  0  3  0  0  0  0  0  0
  -20.7560   -5.5180   25.0770 C   0  0  0  0  0  0  0  0  0  0  0  0
  -21.4320   -4.7200   24.1380 C   0  0  0  0  0  3  0  0  0  0  0  0
  -21.8470   -5.2710   22.9130 C   0  0  0  0  0  0  0  0  0  0  0  0
  -22.4810   -4.4930   22.0040 F   0  0  0  0  0  0  0  0  0  0  0  0
  -20.3510   -4.9820   26.2510 F   0  0  0  0  0  0  0  0  0  0  0  0
  -23.2300  -13.7190   21.0570 C   0  0  0  0  0  0  0  0  0  0  0  0
  -22.6110  -13.0830   22.0440 N   0  0  0  0  0  0  0  0  0  0  0  0
  -22.7440  -14.7270   20.5420 O   0  0  0  0  0  0  0  0  0  0  0  0
  -23.0180  -12.2670   22.4760 H   0  0  0  0  0  0  0  0  0  0  0  0
  -21.7140  -13.4150   22.3700 H   0  0  0  0  0  0  0  0  0  0  0  0
  -25.8170  -15.3090   20.0040 N   0  0  0  0  0  0  0  0  0  0  0  0
  -25.1100  -15.9890   20.2510 H   0  0  0  0  0  0  0  0  0  0  0  0
  -26.6570  -15.7270   19.6300 H   0  0  0  0  0  0  0  0  0  0  0  0
  -27.8750  -23.8680   19.3810 C   0  0  0  0  0  2  0  0  0  0  0  0
  -28.0320  -25.5470   19.4540 O   0  0  0  0  0  0  0  0  0  0  0  0
  -24.5420  -31.4120   22.7770 C   0  0  0  0  0  0  0  0  0  0  0  0
  -26.9990  -26.6530   19.4330 C   0  0  0  0  0  0  0  0  0  0  0  0
  -23.2620  -29.9900   21.2280 C   0  0  0  0  0  3  0  0  0  0  0  0
  -24.6350  -28.4750   19.6300 C   0  0  0  0  0  0  0  0  0  0  0  0
  -25.7960  -30.3030   20.8520 C   0  0  0  0  0  2  0  0  0  0  0  0
  -25.8590  -28.9040   20.1590 C   0  0  0  0  0  0  0  0  0  0  0  0
  -27.0250  -28.0120   20.0400 C   0  0  0  0  0  3  0  0  0  0  0  0
  -25.7410  -26.4020   18.8410 C   0  0  0  0  0  3  0  0  0  0  0  0
  -24.6010  -27.2500   18.9420 C   0  0  0  0  0  3  0  0  0  0  0  0
  -23.3890  -29.3440   19.8200 C   0  0  0  0  0  2  0  0  0  0  0  0
  -24.5600  -30.5990   21.6710 N   0  0  0  0  0  0  0  0  0  0  0  0
  -23.4930  -31.6420   23.4040 O   0  0  0  0  0  0  0  0  0  0  0  0
  -22.7080  -28.9480   22.2370 C   0  0  0  0  0  0  0  0  0  0  0  0
  -21.4180  -28.5840   22.1130 N   0  0  0  0  0  0  0  0  0  0  0  0
  -23.4480  -28.4670   23.0990 O   0  0  0  0  0  0  0  0  0  0  0  0
  -20.8650  -29.0280   21.3940 H   0  0  0  0  0  0  0  0  0  0  0  0
  -18.3150  -26.7460   22.5220 C   0  0  0  0  0  0  0  0  0  0  0  0
  -20.7340  -27.5670   22.9220 C   0  0  0  0  0  3  0  0  0  0  0  0
  -21.1720  -26.1440   22.5130 C   0  0  0  0  0  2  0  0  0  0  0  0
  -20.2520  -25.5080   21.4680 C   0  0  0  0  0  2  0  0  0  0  0  0
  -18.8200  -25.4120   22.0000 C   0  0  0  0  0  2  0  0  0  0  0  0
  -19.2120  -27.7650   22.9390 C   0  0  0  0  0  0  0  0  0  0  0  0
  -18.6880  -28.9950   23.3900 C   0  0  0  0  0  3  0  0  0  0  0  0
  -17.2980  -29.2160   23.4270 C   0  0  0  0  0  3  0  0  0  0  0  0
  -16.4140  -28.2000   23.0220 C   0  0  0  0  0  3  0  0  0  0  0  0
  -16.9230  -26.9680   22.5770 C   0  0  0  0  0  3  0  0  0  0  0  0
  -25.8350  -32.1060   23.3020 C   0  0  0  0  0  3  0  0  0  0  0  0
  -26.5550  -31.2880   24.4450 C   0  0  1  0  0  0  0  0  0  0  0  0
  -25.6130  -30.8600   25.5960 C   0  0  0  0  0  1  0  0  0  0  0  0
  -27.2130  -30.0100   23.8820 C   0  0  0  0  0  1  0  0  0  0  0  0
  -27.6990  -32.1360   25.0510 C   0  0  0  0  0  1  0  0  0  0  0  0
  -25.4640  -33.4420   23.7990 N   0  0  0  0  0  0  0  0  0  0  0  0
  -25.7250  -34.5980   23.1710 C   0  0  0  0  0  0  0  0  0  0  0  0
  -26.3630  -34.6510   22.1170 O   0  0  0  0  0  0  0  0  0  0  0  0
  -24.8860  -33.4700   24.6260 H   0  0  0  0  0  0  0  0  0  0  0  0
  -23.9200  -36.3550   23.0860 C   0  0  0  0  0  1  0  0  0  0  0  0
  -25.1980  -35.9010   23.8100 C   0  0  0  0  0  3  0  0  0  0  0  0
  -27.3110  -36.7740   24.7090 C   0  0  0  0  0  1  0  0  0  0  0  0
  -26.1880  -37.0020   23.8050 N   0  0  0  0  0  0  0  0  0  0  0  0
  -25.7480  -37.8830   24.0570 H   0  0  0  0  0  0  0  0  0  0  0  0
  1  5  1  0
  2  1  2  0
  3  4  1  0
  4  5  2  0
  4  7  1  0
  6  3  2  0
  6  2  1  0
  7  9  1  1
  7  8  1  0
 10  7  1  0
 11 20  1  0
 11  3  1  0
 12 18  1  0
 12 20  1  0
 13 18  1  0
 14 15  1  0
 14 13  1  0
 16 15  1  0
 16 25  1  0
 16 17  1  0
 18 17  1  0
 19 12  2  0
 20 21  1  0
 22 23  2  0
 23 42  1  0
 24 23  1  0
 24 27  1  0
 25 26  1  0
 25 22  1  0
 26 24  2  0
 27 28  1  0
 28 29  2  0
 30 33  1  0
 30 29  1  0
 31 30  2  0
 32 31  1  0
 32 27  2  0
 33 34  1  0
 34 39  2  0
 34 35  1  0
 35 36  2  0
 36 37  1  0
 37 41  1  0
 38 37  2  0
 39 38  1  0
 40 39  1  0
 42 43  1  0
 43 46  1  0
 43 45  1  0
 44 42  2  0
 47 22  1  0
 47 48  1  0
 49 47  1  0
 50 51  1  0
 50  2  1  0
 52 63  2  0
 53 51  1  0
 53 58  1  0
 54 62  1  0
 54 64  1  0
 55 61  1  0
 55 57  1  0
 56 62  1  0
 57 56  1  0
 58 57  2  0
 59 60  1  0
 59 53  2  0
 60 55  2  0
 61 54  1  0
 62 52  1  0
 64 66  2  0
 65 64  1  0
 67 65  1  0
 68 77  2  0
 68 73  1  0
 69 65  1  0
 69 73  1  0
 70 69  1  0
 71 72  1  0
 71 70  1  0
 72 68  1  0
 73 74  2  0
 74 75  1  0
 76 75  2  0
 77 76  1  0
 78 52  1  0
 78 83  1  0
 78 79  1  0
 79 82  1  1
 79 80  1  0
 81 79  1  0
 83 86  1  0
 84 83  1  0
 84 88  1  0
 85 84  2  0
 88 87  1  0
 90 88  1  0
 90 91  1  0
 90 89  1  0
M  ISO  4  12 100  20 100  50 101  51 101
M  END
>  <TORSDO>  (13) 
F 19

>  <SCORE>  (13) 
-12.990

>  <name>  (13) 
13

>  <ligand_id>  (13) 
13

>  <original_smiles>  (13) 
[H]c1nc(C(F)(F)F)c(C([H])([H])N([H])C(=O)N2C([H])([H])C([H])([H])C([H])([H])C([H])(n3nc(-c4c([H])c([H])c(Oc5c([H])c([H])c(F)c([H])c5F)c([H])c4[H])c(C(=O)N([H])[H])c3N([H])[H])C2([H])[H])nc1C([H])([H])Oc1c([H])c([H])c2c(c1[H])C([H])([H])N(C(=O)C([H])(N([H])C(=O)C([H])(N([H])C([H])([H])[H])C([H])([H])[H])C(C([H])([H])[H])(C([H])([H])[H])C([H])([H])[H])C([H])(C(=O)N([H])C1([H])c3c([H])c([H])c([H])c([H])c3C([H])([H])C([H])([H])C1([H])[H])C2([H])[H]

>  <smiles>  (13) 
[H]c1nc(C(F)(F)F)c(C([H])([H])N([H])C(=O)N2C([H])([H])C([H])([H])C([H])([H])C([H])(n3nc(-c4c([H])c([H])c(Oc5c([H])c([H])c(F)c([H])c5F)c([H])c4[H])c(C(=O)N([H])[H])c3N([H])[H])C2([H])[H])nc1C([H])([H])Oc1c([H])c([H])c2c(c1[H])C([H])([H])N(C(=O)C([H])(N([H])C(=O)C([H])(N([H])C([H])([H])[H])C([H])([H])[H])C(C([H])([H])[H])(C([H])([H])[H])C([H])([H])[H])C([H])(C(=O)N([H])C1([H])c3c([H])c([H])c([H])c([H])c3C([H])([H])C([H])([H])C1([H])[H])C2([H])[H]

$$$$
14:0:0
     RDKit          3D

 99107  0  0  1  0  0  0  0  0999 V2000
  -30.4910  -20.3590   18.9860 C   0  0  0  0  0  3  0  0  0  0  0  0
  -29.4800  -20.1650   19.9350 C   0  0  0  0  0  0  0  0  0  0  0  0
  -31.2060  -19.2310   18.5430 C   0  0  0  0  0  0  0  0  0  0  0  0
  -29.9690  -17.8850   19.9330 C   0  0  0  0  0  0  0  0  0  0  0  0
  -29.2250  -18.9090   20.3940 N   0  0  0  0  0  0  0  0  0  0  0  0
  -30.9550  -18.0150   19.0620 N   0  0  0  0  0  0  0  0  0  0  0  0
  -32.9590  -20.6840   17.3830 C   0  0  0  0  0  1  0  0  0  0  0  0
  -33.3930  -18.2870   17.7370 C   0  0  0  0  0  1  0  0  0  0  0  0
  -32.2650  -19.2960   17.4200 C   0  0  1  0  0  0  0  0  0  0  0  0
  -31.3190  -17.6030   15.6230 C   0  0  0  0  0  1  0  0  0  0  0  0
  -31.6290  -19.0750   15.9920 C   0  0  0  0  0  3  0  0  0  0  0  0
  -29.0300  -19.4640   15.8050 C   0  0  0  0  0  1  0  0  0  0  0  0
  -30.6080  -20.6560   14.2460 C   0  0  0  0  0  1  0  0  0  0  0  0
  -30.4500  -20.0510   15.6480 C   0  0  0  0  0  3  0  0  0  0  0  0
  -28.3640  -16.2970   21.2160 C   0  0  0  0  0  1  0  0  0  0  0  0
  -29.5560  -16.4150   20.2360 C   0  0  0  0  0  3  0  0  0  0  0  0
  -31.0370  -14.4290   19.8240 C   0  0  0  0  0  0  0  0  0  0  0  0
  -30.6140  -12.1510   18.9250 C   0  0  0  0  0  2  0  0  0  0  0  0
  -29.6070  -12.1900   17.7580 C   0  0  0  0  0  2  0  0  0  0  0  0
  -28.1650  -12.0950   18.2900 C   0  0  0  0  0  2  0  0  0  0  0  0
  -27.8980  -13.0930   19.4450 C   0  0  0  0  0  3  0  0  0  0  0  0
  -29.0180  -13.0350   20.5110 C   0  0  0  0  0  2  0  0  0  0  0  0
  -30.3050  -13.2700   19.8410 N   0  0  0  0  0  0  0  0  0  0  0  0
  -32.1100  -14.4770   19.2120 O   0  0  0  0  0  0  0  0  0  0  0  0
  -31.7270  -16.1350   21.3710 C   0  0  0  0  0  1  0  0  0  0  0  0
  -30.6520  -15.4740   20.6160 N   0  0  0  0  0  0  0  0  0  0  0  0
  -25.6290  -13.8450   20.3840 C   0  0  0  0  0  0  0  0  0  0  0  0
  -24.5390  -13.1400   20.8150 C   0  0  0  0  0  0  0  0  0  0  0  0
  -24.8870  -11.7600   20.6950 C   0  0  0  0  0  0  0  0  0  0  0  0
  -26.5770  -12.8970   20.0320 N   0  0  0  0  0  0  0  0  0  0  0  0
  -26.1400  -11.6360   20.2790 N   0  0  0  0  0  0  0  0  0  0  0  0
  -24.0800  -10.5500   20.8930 C   0  0  0  0  0  0  0  0  0  0  0  0
  -24.4900   -9.5270   21.7770 C   0  0  0  0  0  3  0  0  0  0  0  0
  -23.6900   -8.3800   21.9660 C   0  0  0  0  0  3  0  0  0  0  0  0
  -22.4630   -8.2500   21.2710 C   0  0  0  0  0  0  0  0  0  0  0  0
  -22.0710   -9.2600   20.3740 C   0  0  0  0  0  3  0  0  0  0  0  0
  -22.8720  -10.3990   20.1840 C   0  0  0  0  0  3  0  0  0  0  0  0
  -21.6320   -7.1620   21.3720 O   0  0  0  0  0  0  0  0  0  0  0  0
  -21.5760   -6.4040   22.5130 C   0  0  0  0  0  0  0  0  0  0  0  0
  -21.2310   -6.9620   23.7640 C   0  0  0  0  0  3  0  0  0  0  0  0
  -21.1200   -6.1310   24.8980 C   0  0  0  0  0  3  0  0  0  0  0  0
  -21.3410   -4.7470   24.7820 C   0  0  0  0  0  0  0  0  0  0  0  0
  -21.6790   -4.1890   23.5370 C   0  0  0  0  0  3  0  0  0  0  0  0
  -21.7930   -5.0150   22.4050 C   0  0  0  0  0  0  0  0  0  0  0  0
  -22.0980   -4.4690   21.2030 F   0  0  0  0  0  0  0  0  0  0  0  0
  -21.2250   -3.9490   25.8700 F   0  0  0  0  0  0  0  0  0  0  0  0
  -23.2110  -13.7100   21.2210 C   0  0  0  0  0  0  0  0  0  0  0  0
  -22.5110  -13.0440   22.1330 N   0  0  0  0  0  0  0  0  0  0  0  0
  -22.8090  -14.7820   20.7700 O   0  0  0  0  0  0  0  0  0  0  0  0
  -22.8520  -12.1780   22.5250 H   0  0  0  0  0  0  0  0  0  0  0  0
  -21.6220  -13.4090   22.4440 H   0  0  0  0  0  0  0  0  0  0  0  0
  -25.8850  -15.2040   20.2360 N   0  0  0  0  0  0  0  0  0  0  0  0
  -25.1710  -15.9040   20.4060 H   0  0  0  0  0  0  0  0  0  0  0  0
  -26.7050  -15.5830   19.7820 H   0  0  0  0  0  0  0  0  0  0  0  0
  -28.6000  -21.3430   20.4350 C   0  0  0  0  0  3  0  0  0  0  0  0
  -28.8780  -22.7640   19.8130 C   0  0  0  0  0  3  0  0  0  0  0  0
  -28.0980  -23.9920   20.4070 C   0  0  0  0  0  2  0  0  0  0  0  0
  -28.3580  -25.3510   19.6680 C   0  0  0  0  0  2  0  0  0  0  0  0
  -28.1700  -26.5650   20.4450 O   0  0  0  0  0  0  0  0  0  0  0  0
  -24.5080  -31.9800   23.3320 C   0  0  0  0  0  0  0  0  0  0  0  0
  -27.0070  -27.3240   20.3890 C   0  0  0  0  0  0  0  0  0  0  0  0
  -23.2600  -30.5700   21.7320 C   0  0  0  0  0  3  0  0  0  0  0  0
  -24.6650  -28.9380   20.3550 C   0  0  0  0  0  0  0  0  0  0  0  0
  -25.8000  -30.8280   21.5320 C   0  0  0  0  0  2  0  0  0  0  0  0
  -25.8400  -29.4330   20.9300 C   0  0  0  0  0  0  0  0  0  0  0  0
  -27.0110  -28.6330   20.9430 C   0  0  0  0  0  3  0  0  0  0  0  0
  -25.8050  -26.8490   19.8180 C   0  0  0  0  0  3  0  0  0  0  0  0
  -24.6430  -27.6460   19.8030 C   0  0  0  0  0  3  0  0  0  0  0  0
  -23.4520  -29.8450   20.3710 C   0  0  0  0  0  2  0  0  0  0  0  0
  -24.5420  -31.1440   22.2560 N   0  0  0  0  0  0  0  0  0  0  0  0
  -23.4350  -32.3020   23.8640 O   0  0  0  0  0  0  0  0  0  0  0  0
  -22.5760  -29.5980   22.7200 C   0  0  0  0  0  0  0  0  0  0  0  0
  -21.2580  -29.3990   22.5530 N   0  0  0  0  0  0  0  0  0  0  0  0
  -23.2300  -29.0230   23.5940 O   0  0  0  0  0  0  0  0  0  0  0  0
  -20.7910  -29.9130   21.8200 H   0  0  0  0  0  0  0  0  0  0  0  0
  -17.8870  -28.1570   22.9490 C   0  0  0  0  0  0  0  0  0  0  0  0
  -20.4190  -28.4970   23.3430 C   0  0  0  0  0  3  0  0  0  0  0  0
  -20.5840  -27.0320   22.8770 C   0  0  0  0  0  2  0  0  0  0  0  0
  -19.5490  -26.6110   21.8270 C   0  0  0  0  0  2  0  0  0  0  0  0
  -18.1300  -26.7680   22.3800 C   0  0  0  0  0  2  0  0  0  0  0  0
  -18.9630  -28.9740   23.3850 C   0  0  0  0  0  0  0  0  0  0  0  0
  -18.6870  -30.2710   23.8720 C   0  0  0  0  0  3  0  0  0  0  0  0
  -17.3650  -30.7510   23.9270 C   0  0  0  0  0  3  0  0  0  0  0  0
  -16.3020  -29.9330   23.5090 C   0  0  0  0  0  3  0  0  0  0  0  0
  -16.5620  -28.6380   23.0250 C   0  0  0  0  0  3  0  0  0  0  0  0
  -25.8120  -32.5910   23.9340 C   0  0  0  0  0  3  0  0  0  0  0  0
  -25.5410  -34.0020   24.2410 N   0  0  0  0  0  0  0  0  0  0  0  0
  -25.8850  -35.0310   23.4560 C   0  0  0  0  0  0  0  0  0  0  0  0
  -26.5340  -34.8910   22.4160 O   0  0  0  0  0  0  0  0  0  0  0  0
  -24.9690  -34.1880   25.0520 H   0  0  0  0  0  0  0  0  0  0  0  0
  -24.1900  -36.8530   23.0920 C   0  0  0  0  0  1  0  0  0  0  0  0
  -25.4360  -36.4390   23.8920 C   0  0  0  0  0  3  0  0  0  0  0  0
  -27.6010  -37.2910   24.6720 C   0  0  0  0  0  1  0  0  0  0  0  0
  -26.4880  -37.4660   23.7440 N   0  0  0  0  0  0  0  0  0  0  0  0
  -26.1030  -38.3970   23.8820 H   0  0  0  0  0  0  0  0  0  0  0  0
  -26.3200  -31.8330   25.2220 C   0  0  1  0  0  0  0  0  0  0  0  0
  -25.2190  -31.6040   26.2850 C   0  0  0  0  0  1  0  0  0  0  0  0
  -26.9080  -30.4530   24.8470 C   0  0  0  0  0  1  0  0  0  0  0  0
  -27.4630  -32.6360   25.8860 C   0  0  0  0  0  1  0  0  0  0  0  0
  1  2  2  0
  2  5  1  0
  2 55  1  0
  3  1  1  0
  3  6  2  0
  4 16  1  0
  4  5  2  0
  6  4  1  0
  9  7  1  6
  9  8  1  0
  9  3  1  0
 11 10  1  0
 11  9  1  0
 13 14  1  0
 14 12  1  0
 14 11  1  0
 16 26  1  0
 16 15  1  0
 17 23  1  0
 17 26  1  0
 18 23  1  0
 19 20  1  0
 19 18  1  0
 21 20  1  0
 21 30  1  0
 21 22  1  0
 23 22  1  0
 24 17  2  0
 26 25  1  0
 27 28  2  0
 28 47  1  0
 29 28  1  0
 29 32  1  0
 30 31  1  0
 30 27  1  0
 31 29  2  0
 32 33  1  0
 33 34  2  0
 35 38  1  0
 35 34  1  0
 36 35  2  0
 37 36  1  0
 37 32  2  0
 38 39  1  0
 39 40  1  0
 40 41  2  0
 42 41  1  0
 42 46  1  0
 43 42  2  0
 44 39  2  0
 44 43  1  0
 45 44  1  0
 47 48  1  0
 48 51  1  0
 48 50  1  0
 49 47  2  0
 52 27  1  0
 52 53  1  0
 54 52  1  0
 56 57  1  0
 56 55  2  0
 58 57  1  0
 58 59  1  0
 60 71  2  0
 61 59  1  0
 61 66  1  0
 62 70  1  0
 62 72  1  0
 63 69  1  0
 63 65  1  0
 64 70  1  0
 65 66  2  0
 65 64  1  0
 67 61  2  0
 68 67  1  0
 68 63  2  0
 69 62  1  0
 70 60  1  0
 72 74  2  0
 73 72  1  0
 75 73  1  0
 76 85  2  0
 76 81  1  0
 77 73  1  0
 77 81  1  0
 78 77  1  0
 79 80  1  0
 79 78  1  0
 80 76  1  0
 81 82  2  0
 82 83  1  0
 84 83  2  0
 85 84  1  0
 86 60  1  0
 86 87  1  0
 86 96  1  0
 87 90  1  0
 88 92  1  0
 88 87  1  0
 89 88  2  0
 92 91  1  0
 94 95  1  0
 94 92  1  0
 94 93  1  0
 96 99  1  1
 96 97  1  0
 98 96  1  0
M  ISO  4  17 100  26 100  58 101  59 101
M  END
>  <TORSDO>  (14) 
F 24

>  <SCORE>  (14) 
-11.869

>  <name>  (14) 
14

>  <ligand_id>  (14) 
14

>  <original_smiles>  (14) 
[H]c1c(C([H])([H])C([H])([H])C([H])([H])C([H])([H])Oc2c([H])c([H])c3c(c2[H])C([H])([H])N(C(=O)C([H])(N([H])C(=O)C([H])(N([H])C([H])([H])[H])C([H])([H])[H])C(C([H])([H])[H])(C([H])([H])[H])C([H])([H])[H])C([H])(C(=O)N([H])C2([H])c4c([H])c([H])c([H])c([H])c4C([H])([H])C([H])([H])C2([H])[H])C3([H])[H])nc(C([H])(N(C(=O)N2C([H])([H])C([H])([H])C([H])([H])C([H])(n3nc(-c4c([H])c([H])c(Oc5c([H])c([H])c(F)c([H])c5F)c([H])c4[H])c(C(=O)N([H])[H])c3N([H])[H])C2([H])[H])C([H])([H])[H])C([H])([H])[H])nc1C(C([H])([H])[H])(C([H])([H])[H])C([H])(C([H])([H])[H])C([H])(C([H])([H])[H])C([H])([H])[H]

>  <smiles>  (14) 
[H]c1c(C([H])([H])C([H])([H])C([H])([H])C([H])([H])Oc2c([H])c([H])c3c(c2[H])C([H])([H])N(C(=O)C([H])(N([H])C(=O)C([H])(N([H])C([H])([H])[H])C([H])([H])[H])C(C([H])([H])[H])(C([H])([H])[H])C([H])([H])[H])C([H])(C(=O)N([H])C2([H])c4c([H])c([H])c([H])c([H])c4C([H])([H])C([H])([H])C2([H])[H])C3([H])[H])nc(C([H])(N(C(=O)N2C([H])([H])C([H])([H])C([H])([H])C([H])(n3nc(-c4c([H])c([H])c(Oc5c([H])c([H])c(F)c([H])c5F)c([H])c4[H])c(C(=O)N([H])[H])c3N([H])[H])C2([H])[H])C([H])([H])[H])C([H])([H])[H])nc1C(C([H])([H])[H])(C([H])([H])[H])C([H])(C([H])([H])[H])C([H])(C([H])([H])[H])C([H])([H])[H]

$$$$
15:0:0
     RDKit          3D

100108  0  0  1  0  0  0  0  0999 V2000
  -31.0870  -22.5240   19.1180 C   0  0  0  0  0  1  0  0  0  0  0  0
  -31.3010  -23.3010   21.4490 C   0  0  0  0  0  1  0  0  0  0  0  0
  -30.3020  -23.2170   20.2820 C   0  0  1  0  0  0  0  0  0  0  0  0
  -30.8700  -25.4510   19.0840 C   0  0  0  0  0  1  0  0  0  0  0  0
  -28.6560  -24.4280   18.7310 C   0  0  0  0  0  1  0  0  0  0  0  0
  -29.7300  -24.6840   19.8170 C   0  0  1  0  0  0  0  0  0  0  0  0
  -30.0990  -26.2760   21.9370 C   0  0  0  0  0  1  0  0  0  0  0  0
  -27.9120  -25.1150   21.6480 C   0  0  0  0  0  1  0  0  0  0  0  0
  -29.0990  -25.7390   20.8840 C   0  0  2  0  0  0  0  0  0  0  0  0
  -28.7760  -27.0120   20.2040 O   0  0  0  0  0  0  0  0  0  0  0  0
  -24.7320  -32.0640   23.4060 C   0  0  0  0  0  0  0  0  0  0  0  0
  -27.5680  -27.6980   20.3190 C   0  0  0  0  0  0  0  0  0  0  0  0
  -23.6000  -30.6420   21.7320 C   0  0  0  0  0  3  0  0  0  0  0  0
  -25.1260  -29.1650   20.3130 C   0  0  0  0  0  0  0  0  0  0  0  0
  -26.1190  -31.0750   21.5760 C   0  0  0  0  0  2  0  0  0  0  0  0
  -26.2600  -29.7050   20.9300 C   0  0  0  0  0  0  0  0  0  0  0  0
  -27.4830  -28.9800   20.9290 C   0  0  0  0  0  3  0  0  0  0  0  0
  -26.4160  -27.2010   19.6730 C   0  0  0  0  0  3  0  0  0  0  0  0
  -25.2020  -27.9140   19.6800 C   0  0  0  0  0  3  0  0  0  0  0  0
  -23.8510  -29.9840   20.3490 C   0  0  0  0  0  2  0  0  0  0  0  0
  -24.8340  -31.2790   22.2960 N   0  0  0  0  0  0  0  0  0  0  0  0
  -23.6340  -32.2890   23.9350 O   0  0  0  0  0  0  0  0  0  0  0  0
  -22.9710  -29.5890   22.6720 C   0  0  0  0  0  0  0  0  0  0  0  0
  -21.6600  -29.3480   22.5110 N   0  0  0  0  0  0  0  0  0  0  0  0
  -23.6610  -28.9880   23.4990 O   0  0  0  0  0  0  0  0  0  0  0  0
  -21.1630  -29.8830   21.8130 H   0  0  0  0  0  0  0  0  0  0  0  0
  -18.3360  -27.9810   22.9090 C   0  0  0  0  0  0  0  0  0  0  0  0
  -20.8690  -28.3670   23.2560 C   0  0  0  0  0  3  0  0  0  0  0  0
  -21.0610  -26.9450   22.6800 C   0  0  0  0  0  2  0  0  0  0  0  0
  -20.0060  -26.5710   21.6330 C   0  0  0  0  0  2  0  0  0  0  0  0
  -18.6010  -26.6450   22.2350 C   0  0  0  0  0  2  0  0  0  0  0  0
  -19.4020  -28.7960   23.3740 C   0  0  0  0  0  0  0  0  0  0  0  0
  -19.1020  -30.0450   23.9610 C   0  0  0  0  0  3  0  0  0  0  0  0
  -17.7690  -30.4770   24.0900 C   0  0  0  0  0  3  0  0  0  0  0  0
  -16.7170  -29.6590   23.6410 C   0  0  0  0  0  3  0  0  0  0  0  0
  -17.0020  -28.4130   23.0560 C   0  0  0  0  0  3  0  0  0  0  0  0
  -25.9840  -32.7360   24.0540 C   0  0  0  0  0  3  0  0  0  0  0  0
  -25.6260  -34.1230   24.3780 N   0  0  0  0  0  0  0  0  0  0  0  0
  -25.9400  -35.1850   23.6250 C   0  0  0  0  0  0  0  0  0  0  0  0
  -26.6310  -35.1030   22.6060 O   0  0  0  0  0  0  0  0  0  0  0  0
  -25.0120  -34.2600   25.1670 H   0  0  0  0  0  0  0  0  0  0  0  0
  -24.1660  -36.9280   23.2380 C   0  0  0  0  0  1  0  0  0  0  0  0
  -25.4020  -36.5580   24.0730 C   0  0  0  0  0  3  0  0  0  0  0  0
  -27.4950  -37.5050   24.9450 C   0  0  0  0  0  1  0  0  0  0  0  0
  -26.4040  -37.6410   23.9820 N   0  0  0  0  0  0  0  0  0  0  0  0
  -25.9680  -38.5480   24.1240 H   0  0  0  0  0  0  0  0  0  0  0  0
  -26.5020  -31.9780   25.3370 C   0  0  1  0  0  0  0  0  0  0  0  0
  -25.3960  -31.6990   26.3830 C   0  0  0  0  0  1  0  0  0  0  0  0
  -27.1380  -30.6210   24.9540 C   0  0  0  0  0  1  0  0  0  0  0  0
  -27.6120  -32.8070   26.0240 C   0  0  0  0  0  1  0  0  0  0  0  0
  -29.2840  -22.3020   20.8100 O   0  0  0  0  0  0  0  0  0  0  0  0
  -28.0650  -20.8470   19.3000 C   0  0  0  0  0  3  0  0  0  0  0  0
  -29.5620  -18.7080   20.1460 C   0  0  0  0  0  0  0  0  0  0  0  0
  -28.5770  -18.5840   19.1170 C   0  0  0  0  0  0  0  0  0  0  0  0
  -29.0710  -21.0250   20.2700 C   0  0  0  0  0  0  0  0  0  0  0  0
  -27.8130  -19.6450   18.7380 N   0  0  0  0  0  0  0  0  0  0  0  0
  -29.8040  -19.9470   20.7170 N   0  0  0  0  0  0  0  0  0  0  0  0
  -28.2860  -17.2860   18.3510 C   0  0  1  0  0  0  0  0  0  0  0  0
  -27.3970  -16.5690   19.0340 F   0  0  0  0  0  0  0  0  0  0  0  0
  -27.7650  -17.5590   17.1500 F   0  0  0  0  0  0  0  0  0  0  0  0
  -29.3720  -16.5420   18.1430 F   0  0  0  0  0  0  0  0  0  0  0  0
  -30.5050  -17.5280   20.5630 C   0  0  0  0  0  2  0  0  0  0  0  0
  -30.6760  -14.9960   20.5840 C   0  0  0  0  0  0  0  0  0  0  0  0
  -30.4510  -12.8590   19.3320 C   0  0  0  0  0  2  0  0  0  0  0  0
  -29.4860  -13.0450   18.1410 C   0  0  0  0  0  2  0  0  0  0  0  0
  -28.0200  -12.8250   18.5690 C   0  0  0  0  0  2  0  0  0  0  0  0
  -27.6660  -13.5620   19.8880 C   0  0  0  0  0  3  0  0  0  0  0  0
  -28.7470  -13.3190   20.9600 C   0  0  0  0  0  2  0  0  0  0  0  0
  -30.0210  -13.7950   20.3950 N   0  0  0  0  0  0  0  0  0  0  0  0
  -31.8440  -15.1080   20.2040 O   0  0  0  0  0  0  0  0  0  0  0  0
  -28.9950  -16.2190   21.9720 C   0  0  0  0  0  1  0  0  0  0  0  0
  -29.9550  -16.1510   20.8660 N   0  0  0  0  0  0  0  0  0  0  0  0
  -25.2590  -14.0740   20.6180 C   0  0  0  0  0  0  0  0  0  0  0  0
  -24.2140  -13.2610   20.9590 C   0  0  0  0  0  0  0  0  0  0  0  0
  -24.7130  -11.9250   20.8770 C   0  0  0  0  0  0  0  0  0  0  0  0
  -26.3280  -13.2300   20.3590 N   0  0  0  0  0  0  0  0  0  0  0  0
  -26.0050  -11.9300   20.5710 N   0  0  0  0  0  0  0  0  0  0  0  0
  -24.0210  -10.6380   21.0130 C   0  0  0  0  0  0  0  0  0  0  0  0
  -24.4660   -9.6550   21.9230 C   0  0  0  0  0  3  0  0  0  0  0  0
  -23.7730   -8.4320   22.0490 C   0  0  0  0  0  3  0  0  0  0  0  0
  -22.6220   -8.1840   21.2640 C   0  0  0  0  0  0  0  0  0  0  0  0
  -22.1970   -9.1570   20.3420 C   0  0  0  0  0  3  0  0  0  0  0  0
  -22.8900  -10.3720   20.2130 C   0  0  0  0  0  3  0  0  0  0  0  0
  -21.9010   -7.0160   21.3040 O   0  0  0  0  0  0  0  0  0  0  0  0
  -21.8250   -6.2530   22.4410 C   0  0  0  0  0  0  0  0  0  0  0  0
  -21.3220   -6.7710   23.6550 C   0  0  0  0  0  3  0  0  0  0  0  0
  -21.1960   -5.9350   24.7810 C   0  0  0  0  0  3  0  0  0  0  0  0
  -21.5620   -4.5770   24.6950 C   0  0  0  0  0  0  0  0  0  0  0  0
  -22.0570   -4.0580   23.4850 C   0  0  0  0  0  3  0  0  0  0  0  0
  -22.1850   -4.8920   22.3630 C   0  0  0  0  0  0  0  0  0  0  0  0
  -22.6420   -4.3800   21.1940 F   0  0  0  0  0  0  0  0  0  0  0  0
  -21.4350   -3.7710   25.7740 F   0  0  0  0  0  0  0  0  0  0  0  0
  -22.8030  -13.6880   21.2450 C   0  0  0  0  0  0  0  0  0  0  0  0
  -22.0940  -12.9480   22.0870 N   0  0  0  0  0  0  0  0  0  0  0  0
  -22.3370  -14.7170   20.7560 O   0  0  0  0  0  0  0  0  0  0  0  0
  -22.4820  -12.1170   22.5080 H   0  0  0  0  0  0  0  0  0  0  0  0
  -21.1450  -13.2140   22.3120 H   0  0  0  0  0  0  0  0  0  0  0  0
  -25.3770  -15.4560   20.4840 N   0  0  0  0  0  0  0  0  0  0  0  0
  -24.5750  -16.0670   20.5930 H   0  0  0  0  0  0  0  0  0  0  0  0
  -26.1960  -15.9340   20.1350 H   0  0  0  0  0  0  0  0  0  0  0  0
  3  1  1  6
  3 51  1  0
  3  2  1  0
  6  4  1  6
  5  6  1  0
  6  3  1  0
  6  9  1  0
  9  8  1  1
  9  7  1  0
 10 12  1  0
 10  9  1  0
 11 22  2  0
 12 17  1  0
 13 21  1  0
 13 23  1  0
 14 20  1  0
 14 16  1  0
 15 21  1  0
 16 15  1  0
 17 16  2  0
 18 19  1  0
 18 12  2  0
 19 14  2  0
 20 13  1  0
 21 11  1  0
 23 25  2  0
 24 23  1  0
 26 24  1  0
 27 36  2  0
 27 32  1  0
 28 24  1  0
 28 32  1  0
 29 28  1  0
 30 31  1  0
 30 29  1  0
 31 27  1  0
 32 33  2  0
 33 34  1  0
 35 34  2  0
 36 35  1  0
 37 11  1  0
 37 38  1  0
 37 47  1  0
 38 41  1  0
 39 43  1  0
 39 38  1  0
 40 39  2  0
 43 42  1  0
 45 43  1  0
 45 46  1  0
 45 44  1  0
 47 50  1  1
 47 48  1  0
 49 47  1  0
 52 55  1  0
 53 62  1  0
 53 57  1  0
 54 53  2  0
 55 57  2  0
 55 51  1  0
 56 54  1  0
 56 52  2  0
 58 59  1  1
 58 54  1  0
 60 58  1  0
 61 58  1  0
 62 72  1  0
 63 72  1  0
 64 69  1  0
 65 66  1  0
 65 64  1  0
 67 66  1  0
 67 76  1  0
 67 68  1  0
 69 63  1  0
 69 68  1  0
 70 63  2  0
 72 71  1  0
 73 74  2  0
 74 93  1  0
 75 74  1  0
 75 78  1  0
 76 77  1  0
 76 73  1  0
 77 75  2  0
 78 79  1  0
 79 80  2  0
 81 84  1  0
 81 80  1  0
 82 81  2  0
 83 82  1  0
 83 78  2  0
 84 85  1  0
 85 86  1  0
 86 87  2  0
 88 87  1  0
 88 92  1  0
 89 88  2  0
 90 85  2  0
 90 89  1  0
 91 90  1  0
 93 94  1  0
 94 97  1  0
 94 96  1  0
 95 93  2  0
 98 99  1  0
 98 73  1  0
100 98  1  0
M  ISO  4   9 101  10 101  63 100  72 100
M  END
>  <TORSDO>  (15) 
F 22

>  <SCORE>  (15) 
-11.798

>  <name>  (15) 
15

>  <ligand_id>  (15) 
15

>  <original_smiles>  (15) 
[H]c1nc(C(F)(F)F)c(C([H])([H])N(C(=O)N2C([H])([H])C([H])([H])C([H])([H])C([H])(n3nc(-c4c([H])c([H])c(Oc5c([H])c([H])c(F)c([H])c5F)c([H])c4[H])c(C(=O)N([H])[H])c3N([H])[H])C2([H])[H])C([H])([H])[H])nc1OC(C([H])([H])[H])(C([H])([H])[H])C(C([H])([H])[H])(C([H])([H])[H])C(Oc1c([H])c([H])c2c(c1[H])C([H])([H])N(C(=O)C([H])(N([H])C(=O)C([H])(N([H])C([H])([H])[H])C([H])([H])[H])C(C([H])([H])[H])(C([H])([H])[H])C([H])([H])[H])C([H])(C(=O)N([H])C1([H])c3c([H])c([H])c([H])c([H])c3C([H])([H])C([H])([H])C1([H])[H])C2([H])[H])(C([H])([H])[H])C([H])([H])[H]

>  <smiles>  (15) 
[H]c1nc(C(F)(F)F)c(C([H])([H])N(C(=O)N2C([H])([H])C([H])([H])C([H])([H])C([H])(n3nc(-c4c([H])c([H])c(Oc5c([H])c([H])c(F)c([H])c5F)c([H])c4[H])c(C(=O)N([H])[H])c3N([H])[H])C2([H])[H])C([H])([H])[H])nc1OC(C([H])([H])[H])(C([H])([H])[H])C(C([H])([H])[H])(C([H])([H])[H])C(Oc1c([H])c([H])c2c(c1[H])C([H])([H])N(C(=O)C([H])(N([H])C(=O)C([H])(N([H])C([H])([H])[H])C([H])([H])[H])C(C([H])([H])[H])(C([H])([H])[H])C([H])([H])[H])C([H])(C(=O)N([H])C1([H])c3c([H])c([H])c([H])c([H])c3C([H])([H])C([H])([H])C1([H])[H])C2([H])[H])(C([H])([H])[H])C([H])([H])[H]

$$$$
16:0:0
     RDKit          3D

 98106  0  0  1  0  0  0  0  0999 V2000
  -29.4440  -19.0250   20.8620 C   0  0  0  0  0  3  0  0  0  0  0  0
  -29.9680  -17.0510   20.2310 C   0  0  0  0  0  3  0  0  0  0  0  0
  -29.3130  -18.2440   21.9420 N   0  0  0  0  0  2  0  0  0  0  0  0
  -29.6700  -16.9630   21.5360 N   0  0  0  0  0  2  0  0  0  0  0  0
  -29.6840  -18.2990   19.7460 N   0  0  0  0  0  0  0  0  0  0  0  0
  -30.4190  -15.7690   18.0310 C   0  0  0  0  0  1  0  0  0  0  0  0
  -32.2090  -16.9420   19.2590 C   0  0  0  0  0  1  0  0  0  0  0  0
  -30.8980  -16.1030   19.4560 C   0  0  1  0  0  0  0  0  0  0  0  0
  -31.3160  -14.7270   20.1430 C   0  0  0  0  0  0  0  0  0  0  0  0
  -30.9310  -12.4020   19.4600 C   0  0  0  0  0  2  0  0  0  0  0  0
  -30.0280  -12.3140   18.2170 C   0  0  0  0  0  2  0  0  0  0  0  0
  -28.5500  -12.2690   18.6360 C   0  0  0  0  0  2  0  0  0  0  0  0
  -28.1670  -13.3310   19.7040 C   0  0  0  0  0  3  0  0  0  0  0  0
  -29.2160  -13.4410   20.8290 C   0  0  0  0  0  2  0  0  0  0  0  0
  -30.5350  -13.6070   20.2110 N   0  0  0  0  0  0  0  0  0  0  0  0
  -32.5330  -14.5680   20.1820 O   0  0  0  0  0  0  0  0  0  0  0  0
  -25.8570  -14.0310   20.5610 C   0  0  0  0  0  0  0  0  0  0  0  0
  -24.7400  -13.3080   20.8850 C   0  0  0  0  0  0  0  0  0  0  0  0
  -25.1000  -11.9350   20.7350 C   0  0  0  0  0  0  0  0  0  0  0  0
  -26.8240  -13.1000   20.2250 N   0  0  0  0  0  0  0  0  0  0  0  0
  -26.3800  -11.8290   20.3970 N   0  0  0  0  0  0  0  0  0  0  0  0
  -24.2850  -10.7160   20.8340 C   0  0  0  0  0  0  0  0  0  0  0  0
  -24.6940   -9.6130   21.6160 C   0  0  0  0  0  3  0  0  0  0  0  0
  -23.8830   -8.4620   21.7120 C   0  0  0  0  0  3  0  0  0  0  0  0
  -22.6490   -8.4060   21.0220 C   0  0  0  0  0  0  0  0  0  0  0  0
  -22.2570   -9.4960   20.2250 C   0  0  0  0  0  3  0  0  0  0  0  0
  -23.0680  -10.6390   20.1270 C   0  0  0  0  0  3  0  0  0  0  0  0
  -21.8080   -7.3200   21.0350 O   0  0  0  0  0  0  0  0  0  0  0  0
  -21.8290   -6.4080   22.0600 C   0  0  0  0  0  0  0  0  0  0  0  0
  -21.6090   -6.7880   23.4010 C   0  0  0  0  0  3  0  0  0  0  0  0
  -21.5680   -5.8080   24.4130 C   0  0  0  0  0  3  0  0  0  0  0  0
  -21.7390   -4.4490   24.0860 C   0  0  0  0  0  0  0  0  0  0  0  0
  -21.9550   -4.0690   22.7490 C   0  0  0  0  0  3  0  0  0  0  0  0
  -21.9950   -5.0460   21.7390 C   0  0  0  0  0  0  0  0  0  0  0  0
  -22.1810   -4.6720   20.4510 F   0  0  0  0  0  0  0  0  0  0  0  0
  -21.6920   -3.5070   25.0550 F   0  0  0  0  0  0  0  0  0  0  0  0
  -23.3880  -13.8650   21.2240 C   0  0  0  0  0  0  0  0  0  0  0  0
  -22.6300  -13.1660   22.0610 N   0  0  0  0  0  0  0  0  0  0  0  0
  -23.0160  -14.9520   20.7860 O   0  0  0  0  0  0  0  0  0  0  0  0
  -22.9430  -12.2820   22.4340 H   0  0  0  0  0  0  0  0  0  0  0  0
  -21.7250  -13.5210   22.3360 H   0  0  0  0  0  0  0  0  0  0  0  0
  -26.1250  -15.3930   20.4960 N   0  0  0  0  0  0  0  0  0  0  0  0
  -25.4220  -16.0950   20.6970 H   0  0  0  0  0  0  0  0  0  0  0  0
  -27.0230  -15.7870   20.2570 H   0  0  0  0  0  0  0  0  0  0  0  0
  -29.5710  -20.5430   20.9110 C   0  0  0  0  0  3  0  0  0  0  0  0
  -28.2710  -21.3940   20.8180 C   0  0  0  0  0  3  0  0  0  0  0  0
  -29.0710  -22.9780   22.6330 C   0  0  0  0  0  1  0  0  0  0  0  0
  -26.8980  -23.3810   21.5350 C   0  0  0  0  0  1  0  0  0  0  0  0
  -28.3390  -22.8940   21.2730 C   0  0  2  0  0  0  0  0  0  0  0  0
  -29.0790  -23.8730   20.2940 C   0  0  0  0  0  2  0  0  0  0  0  0
  -28.2810  -24.7130   19.2500 C   0  0  0  0  0  2  0  0  0  0  0  0
  -28.8980  -26.1330   19.0760 C   0  0  0  0  0  2  0  0  0  0  0  0
  -28.2980  -26.9630   18.0700 O   0  0  0  0  0  0  0  0  0  0  0  0
  -24.5320  -30.9640   22.6430 C   0  0  0  0  0  0  0  0  0  0  0  0
  -27.1040  -27.5550   18.4100 C   0  0  0  0  0  0  0  0  0  0  0  0
  -23.2420  -29.8070   20.8780 C   0  0  0  0  0  3  0  0  0  0  0  0
  -24.6210  -28.7600   19.0040 C   0  0  0  0  0  0  0  0  0  0  0  0
  -25.6810  -30.4720   20.4850 C   0  0  0  0  0  2  0  0  0  0  0  0
  -25.7980  -29.2750   19.5640 C   0  0  0  0  0  0  0  0  0  0  0  0
  -27.0460  -28.6780   19.2680 C   0  0  0  0  0  3  0  0  0  0  0  0
  -25.9160  -27.0570   17.8420 C   0  0  0  0  0  3  0  0  0  0  0  0
  -24.6750  -27.6510   18.1400 C   0  0  0  0  0  3  0  0  0  0  0  0
  -23.3270  -29.4500   19.3690 C   0  0  0  0  0  2  0  0  0  0  0  0
  -24.5100  -30.4190   21.3930 N   0  0  0  0  0  0  0  0  0  0  0  0
  -23.5130  -30.9980   23.3460 O   0  0  0  0  0  0  0  0  0  0  0  0
  -22.8100  -28.5460   21.6590 C   0  0  0  0  0  0  0  0  0  0  0  0
  -21.5130  -28.2080   21.5800 N   0  0  0  0  0  0  0  0  0  0  0  0
  -23.6340  -27.8820   22.2920 O   0  0  0  0  0  0  0  0  0  0  0  0
  -20.8990  -28.8080   21.0470 H   0  0  0  0  0  0  0  0  0  0  0  0
  -18.4090  -26.3860   21.8960 C   0  0  0  0  0  0  0  0  0  0  0  0
  -20.8930  -27.0360   22.1970 C   0  0  0  0  0  3  0  0  0  0  0  0
  -21.2200  -25.7500   21.4030 C   0  0  0  0  0  2  0  0  0  0  0  0
  -20.1580  -25.3980   20.3570 C   0  0  0  0  0  2  0  0  0  0  0  0
  -18.7920  -25.2040   21.0220 C   0  0  0  0  0  2  0  0  0  0  0  0
  -19.3940  -27.2550   22.4350 C   0  0  0  0  0  0  0  0  0  0  0  0
  -18.9810  -28.3580   23.2140 C   0  0  0  0  0  3  0  0  0  0  0  0
  -17.6160  -28.5960   23.4580 C   0  0  0  0  0  3  0  0  0  0  0  0
  -16.6460  -27.7260   22.9330 C   0  0  0  0  0  3  0  0  0  0  0  0
  -17.0430  -26.6220   22.1570 C   0  0  0  0  0  3  0  0  0  0  0  0
  -25.8320  -31.5910   23.2400 C   0  0  0  0  0  3  0  0  0  0  0  0
  -26.5630  -30.6440   24.2690 C   0  0  1  0  0  0  0  0  0  0  0  0
  -25.6390  -30.1000   25.3820 C   0  0  0  0  0  1  0  0  0  0  0  0
  -27.1910  -29.4300   23.5440 C   0  0  0  0  0  1  0  0  0  0  0  0
  -27.7290  -31.4050   24.9450 C   0  0  0  0  0  1  0  0  0  0  0  0
  -25.4600  -32.8620   23.8760 N   0  0  0  0  0  0  0  0  0  0  0  0
  -25.6830  -34.0710   23.3440 C   0  0  0  0  0  0  0  0  0  0  0  0
  -26.2960  -34.2350   22.2860 O   0  0  0  0  0  0  0  0  0  0  0  0
  -24.9050  -32.8020   24.7170 H   0  0  0  0  0  0  0  0  0  0  0  0
  -23.8490  -35.7900   23.4360 C   0  0  0  0  0  1  0  0  0  0  0  0
  -25.1390  -35.2950   24.1080 C   0  0  0  0  0  3  0  0  0  0  0  0
  -27.2540  -36.1010   25.0590 C   0  0  0  0  0  1  0  0  0  0  0  0
  -26.1090  -36.4070   24.2050 N   0  0  0  0  0  0  0  0  0  0  0  0
  -25.6630  -37.2460   24.5630 H   0  0  0  0  0  0  0  0  0  0  0  0
  -29.8730  -18.7900   18.4590 O   0  0  0  0  0  0  0  0  0  0  0  0
  -28.9250  -20.7060   17.4650 C   0  0  0  0  0  1  0  0  0  0  0  0
  -28.6490  -18.4810   16.3950 C   0  0  0  0  0  1  0  0  0  0  0  0
  -27.3320  -18.9820   18.4520 C   0  0  0  0  0  1  0  0  0  0  0  0
  -28.6900  -19.2130   17.7470 C   0  0  1  0  0  0  0  0  0  0  0  0
  1 45  1  0
  1  3  1  0
  2  8  1  0
  2  4  1  0
  4  3  1  0
  5  2  1  0
  5  1  1  0
  8  6  1  6
  7  8  1  0
  8  9  1  0
  9 16  2  0
  9 15  1  0
 10 15  1  0
 11 12  1  0
 11 10  1  0
 13 12  1  0
 13 20  1  0
 13 14  1  0
 15 14  1  0
 17 18  2  0
 18 37  1  0
 19 22  1  0
 19 18  1  0
 20 21  1  0
 20 17  1  0
 21 19  2  0
 22 23  1  0
 23 24  2  0
 25 28  1  0
 25 24  1  0
 26 25  2  0
 27 26  1  0
 27 22  2  0
 28 29  1  0
 29 30  1  0
 30 31  2  0
 32 31  1  0
 32 36  1  0
 33 32  2  0
 34 29  2  0
 34 33  1  0
 35 34  1  0
 37 38  1  0
 38 41  1  0
 38 40  1  0
 39 37  2  0
 42 17  1  0
 42 43  1  0
 44 42  1  0
 46 45  2  0
 46 49  1  0
 49 48  1  1
 49 47  1  0
 50 49  1  0
 51 50  1  0
 52 51  1  0
 53 55  1  0
 53 52  1  0
 54 65  2  0
 55 60  1  0
 56 64  1  0
 56 66  1  0
 57 63  1  0
 57 59  1  0
 58 64  1  0
 59 58  1  0
 60 59  2  0
 61 62  1  0
 61 55  2  0
 62 57  2  0
 63 56  1  0
 64 54  1  0
 66 68  2  0
 67 66  1  0
 69 67  1  0
 70 79  2  0
 70 75  1  0
 71 67  1  0
 71 75  1  0
 72 71  1  0
 73 74  1  0
 73 72  1  0
 74 70  1  0
 75 76  2  0
 76 77  1  0
 78 77  2  0
 79 78  1  0
 80 54  1  0
 80 85  1  0
 80 81  1  0
 81 84  1  1
 81 82  1  0
 83 81  1  0
 85 88  1  0
 86 85  1  0
 86 90  1  0
 87 86  2  0
 90 89  1  0
 90 92  1  0
 92 93  1  0
 92 91  1  0
 94  5  1  0
 98 95  1  6
 96 98  1  0
 98 97  1  0
 98 94  1  0
M  ISO  4   8 100   9 100  52 101  53 101
M  END
>  <TORSDO>  (16) 
F 25

>  <SCORE>  (16) 
-8.257

>  <name>  (16) 
16

>  <ligand_id>  (16) 
16

>  <original_smiles>  (16) 
[H]c1c([H])c([H])c2c(c1[H])C([H])([H])C([H])([H])C([H])([H])C2([H])N([H])C(=O)C1([H])N(C(=O)C([H])(N([H])C(=O)C([H])(N([H])C([H])([H])[H])C([H])([H])[H])C(C([H])([H])[H])(C([H])([H])[H])C([H])([H])[H])C([H])([H])c2c([H])c(OC([H])([H])C([H])([H])C([H])([H])C(C([H])([H])[H])(C([H])([H])[H])C([H])([H])C([H])([H])c3nnc(C(C(=O)N4C([H])([H])C([H])([H])C([H])([H])C([H])(n5nc(-c6c([H])c([H])c(Oc7c([H])c([H])c(F)c([H])c7F)c([H])c6[H])c(C(=O)N([H])[H])c5N([H])[H])C4([H])[H])(C([H])([H])[H])C([H])([H])[H])n3OC(C([H])([H])[H])(C([H])([H])[H])C([H])([H])[H])c([H])c([H])c2C1([H])[H]

>  <smiles>  (16) 
[H]c1c([H])c([H])c2c(c1[H])C([H])([H])C([H])([H])C([H])([H])C2([H])N([H])C(=O)C1([H])N(C(=O)C([H])(N([H])C(=O)C([H])(N([H])C([H])([H])[H])C([H])([H])[H])C(C([H])([H])[H])(C([H])([H])[H])C([H])([H])[H])C([H])([H])c2c([H])c(OC([H])([H])C([H])([H])C([H])([H])C(C([H])([H])[H])(C([H])([H])[H])C([H])([H])C([H])([H])c3nnc(C(C(=O)N4C([H])([H])C([H])([H])C([H])([H])C([H])(n5nc(-c6c([H])c([H])c(Oc7c([H])c([H])c(F)c([H])c7F)c([H])c6[H])c(C(=O)N([H])[H])c5N([H])[H])C4([H])[H])(C([H])([H])[H])C([H])([H])[H])n3OC(C([H])([H])[H])(C([H])([H])[H])C([H])([H])[H])c([H])c([H])c2C1([H])[H]

$$$$
17:0:0
     RDKit          3D

 98106  0  0  1  0  0  0  0  0999 V2000
  -31.3940  -18.7660   22.4840 C   0  0  0  0  0  3  0  0  0  0  0  0
  -30.3350  -19.5920   22.2120 C   0  0  0  0  0  0  0  0  0  0  0  0
  -30.0250  -17.6290   21.1250 C   0  0  0  0  0  3  0  0  0  0  0  0
  -31.2080  -17.5920   21.7870 N   0  0  0  0  0  0  0  0  0  0  0  0
  -29.5240  -18.8480   21.4060 N   0  0  0  0  0  0  0  0  0  0  0  0
  -28.6420  -19.1850   21.0310 H   0  0  0  0  0  0  0  0  0  0  0  0
  -33.2830  -16.7450   20.6930 C   0  0  0  0  0  1  0  0  0  0  0  0
  -32.2090  -16.5110   21.7670 C   0  0  0  0  0  2  0  0  0  0  0  0
  -30.5210  -21.2010   24.0790 C   0  0  0  0  0  1  0  0  0  0  0  0
  -29.9690  -20.9870   22.6600 C   0  0  0  0  0  3  0  0  0  0  0  0
  -30.4360  -22.1040   21.6820 C   0  0  0  0  0  2  0  0  0  0  0  0
  -29.3590  -22.6580   20.7090 C   0  0  0  0  0  2  0  0  0  0  0  0
  -29.6110  -24.1380   20.3090 C   0  0  0  0  0  2  0  0  0  0  0  0
  -28.5450  -24.7740   19.3760 C   0  0  0  0  0  2  0  0  0  0  0  0
  -28.6160  -26.3240   19.3260 C   0  0  0  0  0  2  0  0  0  0  0  0
  -27.9060  -26.8960   18.2150 O   0  0  0  0  0  0  0  0  0  0  0  0
  -24.5070  -31.1230   22.8370 C   0  0  0  0  0  0  0  0  0  0  0  0
  -26.7460  -27.5490   18.5560 C   0  0  0  0  0  0  0  0  0  0  0  0
  -23.0890  -29.9610   21.1750 C   0  0  0  0  0  3  0  0  0  0  0  0
  -24.3290  -28.8390   19.2480 C   0  0  0  0  0  0  0  0  0  0  0  0
  -25.5170  -30.5530   20.6290 C   0  0  0  0  0  2  0  0  0  0  0  0
  -25.5480  -29.3340   19.7300 C   0  0  0  0  0  0  0  0  0  0  0  0
  -26.7610  -28.6960   19.3830 C   0  0  0  0  0  3  0  0  0  0  0  0
  -25.5140  -27.0680   18.0690 C   0  0  0  0  0  3  0  0  0  0  0  0
  -24.3070  -27.7070   18.4130 C   0  0  0  0  0  3  0  0  0  0  0  0
  -23.0750  -29.5710   19.6710 C   0  0  0  0  0  2  0  0  0  0  0  0
  -24.4000  -30.5520   21.6030 N   0  0  0  0  0  0  0  0  0  0  0  0
  -23.5300  -31.1990   23.5940 O   0  0  0  0  0  0  0  0  0  0  0  0
  -22.6700  -28.7300   22.0100 C   0  0  0  0  0  0  0  0  0  0  0  0
  -21.3870  -28.3440   21.9080 N   0  0  0  0  0  0  0  0  0  0  0  0
  -23.4940  -28.1290   22.7050 O   0  0  0  0  0  0  0  0  0  0  0  0
  -20.7730  -28.8940   21.3230 H   0  0  0  0  0  0  0  0  0  0  0  0
  -18.3630  -26.3820   22.1460 C   0  0  0  0  0  0  0  0  0  0  0  0
  -20.7810  -27.1920   22.5730 C   0  0  0  0  0  3  0  0  0  0  0  0
  -21.2340  -25.8700   21.9120 C   0  0  0  0  0  2  0  0  0  0  0  0
  -20.2750  -25.3820   20.8220 C   0  0  0  0  0  2  0  0  0  0  0  0
  -18.8720  -25.1620   21.3960 C   0  0  0  0  0  2  0  0  0  0  0  0
  -19.2590  -27.3420   22.6850 C   0  0  0  0  0  0  0  0  0  0  0  0
  -18.7330  -28.4770   23.3410 C   0  0  0  0  0  3  0  0  0  0  0  0
  -17.3430  -28.6560   23.4680 C   0  0  0  0  0  3  0  0  0  0  0  0
  -16.4610  -27.6920   22.9490 C   0  0  0  0  0  3  0  0  0  0  0  0
  -16.9710  -26.5580   22.2930 C   0  0  0  0  0  3  0  0  0  0  0  0
  -25.8530  -31.7290   23.3440 C   0  0  0  0  0  3  0  0  0  0  0  0
  -26.5760  -30.8290   24.4200 C   0  0  1  0  0  0  0  0  0  0  0  0
  -25.6660  -30.4190   25.6010 C   0  0  0  0  0  1  0  0  0  0  0  0
  -27.1190  -29.5350   23.7710 C   0  0  0  0  0  1  0  0  0  0  0  0
  -27.7980  -31.5800   25.0000 C   0  0  0  0  0  1  0  0  0  0  0  0
  -25.5640  -33.0610   23.8910 N   0  0  0  0  0  0  0  0  0  0  0  0
  -25.8310  -34.2150   23.2640 C   0  0  0  0  0  0  0  0  0  0  0  0
  -26.4200  -34.2690   22.1810 O   0  0  0  0  0  0  0  0  0  0  0  0
  -25.0420  -33.0940   24.7540 H   0  0  0  0  0  0  0  0  0  0  0  0
  -24.0740  -36.0140   23.2880 C   0  0  0  0  0  1  0  0  0  0  0  0
  -25.3700  -35.5160   23.9480 C   0  0  0  0  0  3  0  0  0  0  0  0
  -27.5530  -36.3020   24.7540 C   0  0  0  0  0  1  0  0  0  0  0  0
  -26.3890  -36.5890   23.9180 N   0  0  0  0  0  0  0  0  0  0  0  0
  -25.9910  -37.4730   24.2250 H   0  0  0  0  0  0  0  0  0  0  0  0
  -29.6560  -17.4010   18.6850 C   0  0  0  0  0  1  0  0  0  0  0  0
  -29.3920  -16.7070   20.0640 C   0  0  1  0  0  0  0  0  0  0  0  0
  -29.9690  -15.2160   19.9560 C   0  0  0  0  0  0  0  0  0  0  0  0
  -29.6070  -13.0810   18.7780 C   0  0  0  0  0  2  0  0  0  0  0  0
  -28.5290  -13.1890   17.6840 C   0  0  0  0  0  2  0  0  0  0  0  0
  -27.1560  -12.8310   18.2770 C   0  0  0  0  0  2  0  0  0  0  0  0
  -26.8500  -13.6030   19.5800 C   0  0  0  0  0  3  0  0  0  0  0  0
  -28.0500  -13.6160   20.5650 C   0  0  0  0  0  2  0  0  0  0  0  0
  -29.2620  -14.0430   19.8500 N   0  0  0  0  0  0  0  0  0  0  0  0
  -31.1590  -15.1770   19.6450 O   0  0  0  0  0  0  0  0  0  0  0  0
  -24.5280  -13.9310   20.6340 C   0  0  0  0  0  0  0  0  0  0  0  0
  -23.5900  -13.0320   21.0560 C   0  0  0  0  0  0  0  0  0  0  0  0
  -24.1760  -11.7440   20.8830 C   0  0  0  0  0  0  0  0  0  0  0  0
  -25.6150  -13.1740   20.2200 N   0  0  0  0  0  0  0  0  0  0  0  0
  -25.4210  -11.8530   20.4400 N   0  0  0  0  0  0  0  0  0  0  0  0
  -23.6070  -10.4050   21.0490 C   0  0  0  0  0  0  0  0  0  0  0  0
  -24.0940   -9.5150   22.0310 C   0  0  0  0  0  3  0  0  0  0  0  0
  -23.5180   -8.2360   22.1800 C   0  0  0  0  0  3  0  0  0  0  0  0
  -22.4450   -7.8390   21.3480 C   0  0  0  0  0  0  0  0  0  0  0  0
  -21.9810   -8.7210   20.3570 C   0  0  0  0  0  3  0  0  0  0  0  0
  -22.5590   -9.9910   20.2040 C   0  0  0  0  0  3  0  0  0  0  0  0
  -21.8400   -6.6080   21.4070 O   0  0  0  0  0  0  0  0  0  0  0  0
  -21.6260   -5.9690   22.6010 C   0  0  0  0  0  0  0  0  0  0  0  0
  -20.8630   -6.5570   23.6340 C   0  0  0  0  0  3  0  0  0  0  0  0
  -20.6130   -5.8390   24.8210 C   0  0  0  0  0  3  0  0  0  0  0  0
  -21.1140   -4.5310   24.9720 C   0  0  0  0  0  0  0  0  0  0  0  0
  -21.8660   -3.9420   23.9420 C   0  0  0  0  0  3  0  0  0  0  0  0
  -22.1210   -4.6590   22.7590 C   0  0  0  0  0  0  0  0  0  0  0  0
  -22.8330   -4.0810   21.7600 F   0  0  0  0  0  0  0  0  0  0  0  0
  -20.8650   -3.8360   26.1050 F   0  0  0  0  0  0  0  0  0  0  0  0
  -22.1910  -13.3450   21.5030 C   0  0  0  0  0  0  0  0  0  0  0  0
  -21.6540  -12.5540   22.4250 N   0  0  0  0  0  0  0  0  0  0  0  0
  -21.5830  -14.3230   21.0690 O   0  0  0  0  0  0  0  0  0  0  0  0
  -22.1570  -11.7580   22.7870 H   0  0  0  0  0  0  0  0  0  0  0  0
  -20.7250  -12.7470   22.7700 H   0  0  0  0  0  0  0  0  0  0  0  0
  -24.5250  -15.3160   20.5410 N   0  0  0  0  0  0  0  0  0  0  0  0
  -23.7150  -15.8740   20.7870 H   0  0  0  0  0  0  0  0  0  0  0  0
  -25.2940  -15.8650   20.1750 H   0  0  0  0  0  0  0  0  0  0  0  0
  -27.8390  -16.7680   20.2100 C   0  0  1  0  0  0  0  0  0  0  0  0
  -27.3540  -17.9780   19.9140 F   0  0  0  0  0  0  0  0  0  0  0  0
  -27.2150  -15.9000   19.4170 F   0  0  0  0  0  0  0  0  0  0  0  0
  -27.4880  -16.5600   21.4730 F   0  0  0  0  0  0  0  0  0  0  0  0
  2  1  2  0
  2 10  1  0
  3 58  1  0
  3  5  1  0
  3  4  1  0
  4  1  1  0
  5  2  1  0
  6  5  1  0
  7  8  1  0
  8  4  1  0
 10  9  1  0
 11 10  1  0
 12 11  1  0
 13 12  1  0
 14 13  1  0
 15 14  1  0
 16 18  1  0
 16 15  1  0
 17 28  2  0
 18 23  1  0
 19 27  1  0
 19 29  1  0
 20 26  1  0
 20 22  1  0
 21 27  1  0
 22 21  1  0
 23 22  2  0
 24 25  1  0
 24 18  2  0
 25 20  2  0
 26 19  1  0
 27 17  1  0
 29 31  2  0
 30 29  1  0
 32 30  1  0
 33 42  2  0
 33 38  1  0
 34 30  1  0
 34 38  1  0
 35 34  1  0
 36 37  1  0
 36 35  1  0
 37 33  1  0
 38 39  2  0
 39 40  1  0
 41 40  2  0
 42 41  1  0
 43 17  1  0
 43 48  1  0
 43 44  1  0
 44 47  1  1
 44 45  1  0
 46 44  1  0
 48 51  1  0
 49 48  1  0
 49 53  1  0
 50 49  2  0
 53 52  1  0
 55 53  1  0
 55 56  1  0
 55 54  1  0
 58 57  1  6
 58 95  1  0
 59 58  1  0
 60 65  1  0
 61 62  1  0
 61 60  1  0
 63 62  1  0
 63 70  1  0
 63 64  1  0
 65 59  1  0
 65 64  1  0
 66 59  2  0
 67 68  2  0
 68 87  1  0
 69 72  1  0
 69 68  1  0
 70 71  1  0
 70 67  1  0
 71 69  2  0
 72 73  1  0
 73 74  2  0
 75 78  1  0
 75 74  1  0
 76 75  2  0
 77 76  1  0
 77 72  2  0
 78 79  1  0
 79 84  2  0
 79 80  1  0
 80 81  2  0
 81 82  1  0
 82 86  1  0
 83 82  2  0
 84 83  1  0
 85 84  1  0
 87 88  1  0
 88 91  1  0
 88 90  1  0
 89 87  2  0
 92 67  1  0
 92 93  1  0
 94 92  1  0
 95 98  1  1
 96 95  1  0
 97 95  1  0
M  ISO  4  15 101  16 101  58 100  59 100
M  END
>  <TORSDO>  (17) 
F 25

>  <SCORE>  (17) 
-6.548

>  <name>  (17) 
17

>  <ligand_id>  (17) 
17

>  <original_smiles>  (17) 
[H]c1c([H])c([H])c2c(c1[H])C([H])([H])C([H])([H])C([H])([H])C2([H])N([H])C(=O)C1([H])N(C(=O)C([H])(N([H])C(=O)C([H])(N([H])C([H])([H])[H])C([H])([H])[H])C(C([H])([H])[H])(C([H])([H])[H])C([H])([H])[H])C([H])([H])c2c([H])c(OC([H])([H])C([H])([H])C([H])([H])C([H])([H])C([H])([H])C([H])(c3c([H])n(C([H])([H])C([H])([H])[H])c(C(C(=O)N4C([H])([H])C([H])([H])C([H])([H])C([H])(n5nc(-c6c([H])c([H])c(Oc7c([H])c([H])c(F)c([H])c7F)c([H])c6[H])c(C(=O)N([H])[H])c5N([H])[H])C4([H])[H])(C([H])([H])[H])C(F)(F)F)[n+]3[H])C([H])([H])[H])c([H])c([H])c2C1([H])[H]

>  <smiles>  (17) 
[H]c1c([H])c([H])c2c(c1[H])C([H])([H])C([H])([H])C([H])([H])C2([H])N([H])C(=O)C1([H])N(C(=O)C([H])(N([H])C(=O)C([H])(N([H])C([H])([H])[H])C([H])([H])[H])C(C([H])([H])[H])(C([H])([H])[H])C([H])([H])[H])C([H])([H])c2c([H])c(OC([H])([H])C([H])([H])C([H])([H])C([H])([H])C([H])([H])C([H])(c3c([H])n(C([H])([H])C([H])([H])[H])c(C(C(=O)N4C([H])([H])C([H])([H])C([H])([H])C([H])(n5nc(-c6c([H])c([H])c(Oc7c([H])c([H])c(F)c([H])c7F)c([H])c6[H])c(C(=O)N([H])[H])c5N([H])[H])C4([H])[H])(C([H])([H])[H])C(F)(F)F)[n+]3[H])C([H])([H])[H])c([H])c([H])c2C1([H])[H]

$$$$
18:0:0
     RDKit          3D

101109  0  0  1  0  0  0  0  0999 V2000
  -30.4130  -17.2680   19.5090 C   0  0  0  0  0  3  0  0  0  0  0  0
  -30.5790  -16.7910   20.8720 C   0  0  0  0  0  3  0  0  0  0  0  0
  -30.5800  -18.6310   19.5710 C   0  0  0  0  0  3  0  0  0  0  0  0
  -30.5340  -17.8620   21.6880 N   0  0  0  0  0  2  0  0  0  0  0  0
  -30.4840  -18.9910   20.9050 N   0  0  0  0  0  0  0  0  0  0  0  0
  -31.1160  -15.3770   21.2540 C   0  0  0  0  0  0  0  0  0  0  0  0
  -30.9530  -12.9270   20.8680 C   0  0  0  0  0  2  0  0  0  0  0  0
  -30.3670  -12.5960   19.4830 C   0  0  0  0  0  2  0  0  0  0  0  0
  -28.8190  -12.6600   19.4500 C   0  0  0  0  0  2  0  0  0  0  0  0
  -28.2190  -13.2000   20.7710 C   0  0  0  0  0  3  0  0  0  0  0  0
  -28.9530  -14.2130   21.6400 C   0  0  0  0  0  2  0  0  0  0  0  0
  -30.3780  -14.2270   21.3210 N   0  0  0  0  0  0  0  0  0  0  0  0
  -32.3390  -15.3190   21.3220 O   0  0  0  0  0  0  0  0  0  0  0  0
  -25.7210  -14.0950   20.7580 C   0  0  0  0  0  0  0  0  0  0  0  0
  -24.5840  -13.3570   20.9520 C   0  0  0  0  0  0  0  0  0  0  0  0
  -25.0180  -12.0080   21.1270 C   0  0  0  0  0  0  0  0  0  0  0  0
  -26.7710  -13.1770   20.8610 N   0  0  0  0  0  0  0  0  0  0  0  0
  -26.3180  -11.9360   21.0800 N   0  0  0  0  0  0  0  0  0  0  0  0
  -24.3110  -10.7520   21.2680 C   0  0  0  0  0  0  0  0  0  0  0  0
  -24.6350   -9.8430   22.3010 C   0  0  0  0  0  3  0  0  0  0  0  0
  -23.9430   -8.6220   22.4120 C   0  0  0  0  0  3  0  0  0  0  0  0
  -22.9280   -8.3040   21.4790 C   0  0  0  0  0  0  0  0  0  0  0  0
  -22.6430   -9.1960   20.4290 C   0  0  0  0  0  3  0  0  0  0  0  0
  -23.3260  -10.4140   20.3270 C   0  0  0  0  0  3  0  0  0  0  0  0
  -22.2190   -7.1300   21.4960 O   0  0  0  0  0  0  0  0  0  0  0  0
  -22.0200   -6.4320   22.6580 C   0  0  0  0  0  0  0  0  0  0  0  0
  -21.4020   -7.0190   23.7820 C   0  0  0  0  0  3  0  0  0  0  0  0
  -21.1430   -6.2370   24.9270 C   0  0  0  0  0  3  0  0  0  0  0  0
  -21.5000   -4.8760   24.9460 C   0  0  0  0  0  0  0  0  0  0  0  0
  -22.1240   -4.2920   23.8270 C   0  0  0  0  0  3  0  0  0  0  0  0
  -22.3770   -5.0660   22.6820 C   0  0  0  0  0  0  0  0  0  0  0  0
  -22.9480   -4.4950   21.5940 F   0  0  0  0  0  0  0  0  0  0  0  0
  -21.2420   -4.1220   26.0380 F   0  0  0  0  0  0  0  0  0  0  0  0
  -23.1540  -13.8180   20.9160 C   0  0  0  0  0  0  0  0  0  0  0  0
  -22.2790  -13.1550   21.6620 N   0  0  0  0  0  0  0  0  0  0  0  0
  -22.8090  -14.7910   20.2460 O   0  0  0  0  0  0  0  0  0  0  0  0
  -22.5500  -12.3470   22.2020 H   0  0  0  0  0  0  0  0  0  0  0  0
  -21.3100  -13.4390   21.6560 H   0  0  0  0  0  0  0  0  0  0  0  0
  -25.9340  -15.4500   20.4980 N   0  0  0  0  0  0  0  0  0  0  0  0
  -25.1850  -16.1180   20.3580 H   0  0  0  0  0  0  0  0  0  0  0  0
  -26.8490  -15.8570   20.3810 H   0  0  0  0  0  0  0  0  0  0  0  0
  -30.7540  -19.5880   18.4190 C   0  0  1  0  0  0  0  0  0  0  0  0
  -29.5930  -19.8460   17.8240 F   0  0  0  0  0  0  0  0  0  0  0  0
  -31.3540  -20.7230   18.7700 F   0  0  0  0  0  0  0  0  0  0  0  0
  -31.5460  -19.0770   17.4810 F   0  0  0  0  0  0  0  0  0  0  0  0
  -30.1230  -16.5430   18.2140 C   0  0  1  0  0  0  0  0  0  0  0  0
  -29.4440  -15.4880   18.6020 F   0  0  0  0  0  0  0  0  0  0  0  0
  -29.2690  -17.2390   17.4550 F   0  0  0  0  0  0  0  0  0  0  0  0
  -31.3380  -16.1490   17.3390 C   0  0  1  0  0  0  0  0  0  0  0  0
  -32.4940  -16.4780   17.9190 F   0  0  0  0  0  0  0  0  0  0  0  0
  -31.2840  -14.8420   17.1460 F   0  0  0  0  0  0  0  0  0  0  0  0
  -31.2860  -16.6830   16.1160 F   0  0  0  0  0  0  0  0  0  0  0  0
  -30.4530  -20.3490   21.5240 C   0  0  0  0  0  2  0  0  0  0  0  0
  -27.9960  -20.3060   21.0620 C   0  0  0  0  0  1  0  0  0  0  0  0
  -28.8130  -22.0410   22.6050 C   0  0  0  0  0  1  0  0  0  0  0  0
  -29.1680  -21.2710   21.3110 C   0  0  1  0  0  0  0  0  0  0  0  0
  -29.2030  -22.3240   20.1300 C   0  0  0  0  0  2  0  0  0  0  0  0
  -29.6780  -23.8190   20.3120 C   0  0  0  0  0  2  0  0  0  0  0  0
  -28.5610  -24.9110   20.2140 C   0  0  0  0  0  2  0  0  0  0  0  0
  -28.8960  -26.1200   19.2790 C   0  0  0  0  0  2  0  0  0  0  0  0
  -28.7120  -27.4220   19.8740 O   0  0  0  0  0  0  0  0  0  0  0  0
  -24.6720  -32.0930   23.3920 C   0  0  0  0  0  0  0  0  0  0  0  0
  -27.4930  -28.0720   19.8960 C   0  0  0  0  0  0  0  0  0  0  0  0
  -23.5270  -30.8190   21.6020 C   0  0  0  0  0  3  0  0  0  0  0  0
  -25.0450  -29.5030   20.0320 C   0  0  0  0  0  0  0  0  0  0  0  0
  -26.0360  -31.3010   21.4600 C   0  0  0  0  0  2  0  0  0  0  0  0
  -26.1800  -30.0050   20.6790 C   0  0  0  0  0  0  0  0  0  0  0  0
  -27.4010  -29.2940   20.6060 C   0  0  0  0  0  3  0  0  0  0  0  0
  -26.3320  -27.5850   19.2510 C   0  0  0  0  0  3  0  0  0  0  0  0
  -25.1190  -28.2970   19.3160 C   0  0  0  0  0  3  0  0  0  0  0  0
  -23.7660  -30.2990   20.1590 C   0  0  0  0  0  2  0  0  0  0  0  0
  -24.7600  -31.4140   22.2110 N   0  0  0  0  0  0  0  0  0  0  0  0
  -23.5800  -32.2640   23.9490 O   0  0  0  0  0  0  0  0  0  0  0  0
  -22.9220  -29.6770   22.4500 C   0  0  0  0  0  0  0  0  0  0  0  0
  -21.6050  -29.4600   22.3040 N   0  0  0  0  0  0  0  0  0  0  0  0
  -23.6330  -28.9960   23.1920 O   0  0  0  0  0  0  0  0  0  0  0  0
  -21.0930  -30.0660   21.6790 H   0  0  0  0  0  0  0  0  0  0  0  0
  -18.2750  -28.1170   22.6810 C   0  0  0  0  0  0  0  0  0  0  0  0
  -20.8250  -28.4190   22.9690 C   0  0  0  0  0  3  0  0  0  0  0  0
  -20.9640  -27.0660   22.2320 C   0  0  0  0  0  2  0  0  0  0  0  0
  -19.8630  -26.8270   21.1950 C   0  0  0  0  0  2  0  0  0  0  0  0
  -18.4830  -26.8600   21.8580 C   0  0  0  0  0  2  0  0  0  0  0  0
  -19.3720  -28.8610   23.1880 C   0  0  0  0  0  0  0  0  0  0  0  0
  -19.1150  -30.0460   23.9140 C   0  0  0  0  0  3  0  0  0  0  0  0
  -17.7940  -30.4790   24.1400 C   0  0  0  0  0  3  0  0  0  0  0  0
  -16.7140  -29.7300   23.6440 C   0  0  0  0  0  3  0  0  0  0  0  0
  -16.9550  -28.5520   22.9190 C   0  0  0  0  0  3  0  0  0  0  0  0
  -25.9360  -32.7020   24.0800 C   0  0  0  0  0  3  0  0  0  0  0  0
  -26.4280  -31.8760   25.3300 C   0  0  1  0  0  0  0  0  0  0  0  0
  -25.3080  -31.5730   26.3540 C   0  0  0  0  0  1  0  0  0  0  0  0
  -27.0360  -30.5240   24.8850 C   0  0  0  0  0  1  0  0  0  0  0  0
  -27.5480  -32.6480   26.0660 C   0  0  0  0  0  1  0  0  0  0  0  0
  -25.6060  -34.0780   24.4680 N   0  0  0  0  0  0  0  0  0  0  0  0
  -25.9640  -35.1680   23.7760 C   0  0  0  0  0  0  0  0  0  0  0  0
  -26.6750  -35.1180   22.7670 O   0  0  0  0  0  0  0  0  0  0  0  0
  -24.9770  -34.1920   25.2510 H   0  0  0  0  0  0  0  0  0  0  0  0
  -24.2350  -36.9610   23.4400 C   0  0  0  0  0  1  0  0  0  0  0  0
  -25.4480  -36.5270   24.2800 C   0  0  0  0  0  3  0  0  0  0  0  0
  -27.5440  -37.3820   25.2350 C   0  0  0  0  0  1  0  0  0  0  0  0
  -26.4760  -37.5910   24.2610 N   0  0  0  0  0  0  0  0  0  0  0  0
  -26.0550  -38.4990   24.4430 H   0  0  0  0  0  0  0  0  0  0  0  0
  1 46  1  0
  1  3  1  0
  1  2  1  0
  2  6  1  0
  2  4  1  0
  3 42  1  0
  3  5  1  0
  5 53  1  0
  5  4  1  0
  6 12  1  0
  6 13  2  0
  7 12  1  0
  8  7  1  0
  9  8  1  0
 10  9  1  0
 10 17  1  0
 10 11  1  0
 12 11  1  0
 14 17  1  0
 14 15  2  0
 15 16  1  0
 16 19  1  0
 17 18  1  0
 18 16  2  0
 19 20  1  0
 20 21  2  0
 22 25  1  0
 22 21  1  0
 23 22  2  0
 24 23  1  0
 24 19  2  0
 25 26  1  0
 26 31  2  0
 26 27  1  0
 27 28  2  0
 28 29  1  0
 29 33  1  0
 30 29  2  0
 31 30  1  0
 32 31  1  0
 34 15  1  0
 34 35  1  0
 35 37  1  0
 36 34  2  0
 38 35  1  0
 39 14  1  0
 40 39  1  0
 41 39  1  0
 42 44  1  1
 43 42  1  0
 45 42  1  0
 46 47  1  1
 48 46  1  0
 49 50  1  1
 49 46  1  0
 51 49  1  0
 52 49  1  0
 56 54  1  6
 56 53  1  0
 56 55  1  0
 57 58  1  0
 57 56  1  0
 59 58  1  0
 60 61  1  0
 60 59  1  0
 61 63  1  0
 62 73  2  0
 63 68  1  0
 64 72  1  0
 64 74  1  0
 65 71  1  0
 65 67  1  0
 66 72  1  0
 67 66  1  0
 68 67  2  0
 69 70  1  0
 69 63  2  0
 70 65  2  0
 71 64  1  0
 72 62  1  0
 74 76  2  0
 75 74  1  0
 77 75  1  0
 78 87  2  0
 78 83  1  0
 79 75  1  0
 79 83  1  0
 80 79  1  0
 81 82  1  0
 81 80  1  0
 82 78  1  0
 83 84  2  0
 84 85  1  0
 86 85  2  0
 87 86  1  0
 88 62  1  0
 88 93  1  0
 88 89  1  0
 89 92  1  1
 89 90  1  0
 91 89  1  0
 93 96  1  0
 94 98  1  0
 94 93  1  0
 95 94  2  0
 98 97  1  0
100 98  1  0
100101  1  0
100 99  1  0
M  ISO  4   2 100   6 100  60 101  61 101
M  END
>  <TORSDO>  (18) 
F 25

>  <SCORE>  (18) 
-8.873

>  <name>  (18) 
18

>  <ligand_id>  (18) 
18

>  <original_smiles>  (18) 
[H]c1c([H])c([H])c2c(c1[H])C([H])([H])C([H])([H])C([H])([H])C2([H])N([H])C(=O)C1([H])N(C(=O)C([H])(N([H])C(=O)C([H])(N([H])C([H])([H])[H])C([H])([H])[H])C(C([H])([H])[H])(C([H])([H])[H])C([H])([H])[H])C([H])([H])c2c([H])c(OC([H])([H])C([H])([H])C([H])([H])C([H])([H])C(C([H])([H])[H])(C([H])([H])[H])C([H])([H])n3nc(C(=O)N4C([H])([H])C([H])([H])C([H])([H])C([H])(n5nc(-c6c([H])c([H])c(Oc7c([H])c([H])c(F)c([H])c7F)c([H])c6[H])c(C(=O)N([H])[H])c5N([H])[H])C4([H])[H])c(C(F)(F)C(F)(F)F)c3C(F)(F)F)c([H])c([H])c2C1([H])[H]

>  <smiles>  (18) 
[H]c1c([H])c([H])c2c(c1[H])C([H])([H])C([H])([H])C([H])([H])C2([H])N([H])C(=O)C1([H])N(C(=O)C([H])(N([H])C(=O)C([H])(N([H])C([H])([H])[H])C([H])([H])[H])C(C([H])([H])[H])(C([H])([H])[H])C([H])([H])[H])C([H])([H])c2c([H])c(OC([H])([H])C([H])([H])C([H])([H])C([H])([H])C(C([H])([H])[H])(C([H])([H])[H])C([H])([H])n3nc(C(=O)N4C([H])([H])C([H])([H])C([H])([H])C([H])(n5nc(-c6c([H])c([H])c(Oc7c([H])c([H])c(F)c([H])c7F)c([H])c6[H])c(C(=O)N([H])[H])c5N([H])[H])C4([H])[H])c(C(F)(F)C(F)(F)F)c3C(F)(F)F)c([H])c([H])c2C1([H])[H]

$$$$
19:0:0
     RDKit          3D

 96104  0  0  1  0  0  0  0  0999 V2000
  -27.9560  -19.5430   19.7870 C   0  0  0  0  0  3  0  0  0  0  0  0
  -29.7550  -20.2200   21.1930 C   0  0  0  0  0  3  0  0  0  0  0  0
  -28.8060  -20.5650   20.2210 C   0  0  0  0  0  0  0  0  0  0  0  0
  -29.1470  -18.0250   21.0110 C   0  0  0  0  0  0  0  0  0  0  0  0
  -28.1380  -18.2750   20.1830 N   0  0  0  0  0  0  0  0  0  0  0  0
  -29.9140  -18.9440   21.5930 N   0  0  0  0  0  0  0  0  0  0  0  0
  -29.5770  -16.5590   21.1040 C   0  0  2  0  0  0  0  0  0  0  0  0
  -28.4480  -15.8680   21.2210 F   0  0  0  0  0  0  0  0  0  0  0  0
  -30.2650  -16.3600   22.2320 F   0  0  0  0  0  0  0  0  0  0  0  0
  -29.6550  -16.1910   18.5190 C   0  0  0  0  0  1  0  0  0  0  0  0
  -30.4260  -16.0740   19.8700 C   0  0  2  0  0  0  0  0  0  0  0  0
  -30.9630  -14.5930   20.0090 C   0  0  0  0  0  0  0  0  0  0  0  0
  -30.5230  -12.4280   18.9520 C   0  0  0  0  0  2  0  0  0  0  0  0
  -29.5280  -12.6030   17.7870 C   0  0  0  0  0  2  0  0  0  0  0  0
  -28.0750  -12.4850   18.2860 C   0  0  0  0  0  2  0  0  0  0  0  0
  -27.7940  -13.3150   19.5680 C   0  0  0  0  0  3  0  0  0  0  0  0
  -28.9220  -13.1390   20.6090 C   0  0  0  0  0  2  0  0  0  0  0  0
  -30.2000  -13.4570   19.9570 N   0  0  0  0  0  0  0  0  0  0  0  0
  -32.1710  -14.4690   19.8300 O   0  0  0  0  0  0  0  0  0  0  0  0
  -25.4370  -13.9260   20.3820 C   0  0  0  0  0  0  0  0  0  0  0  0
  -24.3840  -13.1510   20.7820 C   0  0  0  0  0  0  0  0  0  0  0  0
  -24.8440  -11.8010   20.7250 C   0  0  0  0  0  0  0  0  0  0  0  0
  -26.4720  -13.0440   20.1140 N   0  0  0  0  0  0  0  0  0  0  0  0
  -26.1230  -11.7620   20.3780 N   0  0  0  0  0  0  0  0  0  0  0  0
  -24.1270  -10.5380   20.9250 C   0  0  0  0  0  0  0  0  0  0  0  0
  -24.5640   -9.5850   21.8700 C   0  0  0  0  0  3  0  0  0  0  0  0
  -23.8470   -8.3840   22.0580 C   0  0  0  0  0  3  0  0  0  0  0  0
  -22.6790   -8.1300   21.3010 C   0  0  0  0  0  0  0  0  0  0  0  0
  -22.2630   -9.0720   20.3430 C   0  0  0  0  0  3  0  0  0  0  0  0
  -22.9810  -10.2630   20.1540 C   0  0  0  0  0  3  0  0  0  0  0  0
  -21.9330   -6.9810   21.3970 O   0  0  0  0  0  0  0  0  0  0  0  0
  -21.8350   -6.2860   22.5760 C   0  0  0  0  0  0  0  0  0  0  0  0
  -21.3540   -6.8890   23.7580 C   0  0  0  0  0  3  0  0  0  0  0  0
  -21.2040   -6.1200   24.9300 C   0  0  0  0  0  3  0  0  0  0  0  0
  -21.5240   -4.7490   24.9190 C   0  0  0  0  0  0  0  0  0  0  0  0
  -21.9980   -4.1460   23.7400 C   0  0  0  0  0  3  0  0  0  0  0  0
  -22.1500   -4.9120   22.5720 C   0  0  0  0  0  0  0  0  0  0  0  0
  -22.5890   -4.3220   21.4330 F   0  0  0  0  0  0  0  0  0  0  0  0
  -21.3720   -4.0080   26.0410 F   0  0  0  0  0  0  0  0  0  0  0  0
  -22.9970  -13.6280   21.1060 C   0  0  0  0  0  0  0  0  0  0  0  0
  -22.3040  -12.9280   21.9970 N   0  0  0  0  0  0  0  0  0  0  0  0
  -22.5390  -14.6550   20.6070 O   0  0  0  0  0  0  0  0  0  0  0  0
  -22.6880  -12.0970   22.4230 H   0  0  0  0  0  0  0  0  0  0  0  0
  -21.3760  -13.2290   22.2600 H   0  0  0  0  0  0  0  0  0  0  0  0
  -25.5850  -15.2980   20.2040 N   0  0  0  0  0  0  0  0  0  0  0  0
  -24.8180  -15.9430   20.3630 H   0  0  0  0  0  0  0  0  0  0  0  0
  -26.4430  -15.7650   19.9430 H   0  0  0  0  0  0  0  0  0  0  0  0
  -31.6570  -17.0570   19.6640 C   0  0  1  0  0  0  0  0  0  0  0  0
  -32.4570  -16.6750   18.6610 F   0  0  0  0  0  0  0  0  0  0  0  0
  -31.3200  -18.2980   19.3100 F   0  0  0  0  0  0  0  0  0  0  0  0
  -32.4060  -17.1390   20.7670 F   0  0  0  0  0  0  0  0  0  0  0  0
  -28.7600  -21.9320   19.5650 C   0  0  0  0  0  2  0  0  0  0  0  0
  -28.5730  -23.1070   20.5280 C   0  0  0  0  0  2  0  0  0  0  0  0
  -28.5380  -24.4270   19.7480 C   0  0  0  0  0  2  0  0  0  0  0  0
  -28.3900  -25.6500   20.6500 C   0  0  0  0  0  2  0  0  0  0  0  0
  -28.3840  -26.8230   19.8460 O   0  0  0  0  0  0  0  0  0  0  0  0
  -24.6240  -31.8640   23.0940 C   0  0  0  0  0  0  0  0  0  0  0  0
  -27.2060  -27.5200   19.8790 C   0  0  0  0  0  0  0  0  0  0  0  0
  -23.3770  -30.4870   21.4580 C   0  0  0  0  0  3  0  0  0  0  0  0
  -24.7990  -28.9780   19.9740 C   0  0  0  0  0  0  0  0  0  0  0  0
  -25.8900  -30.8700   21.1960 C   0  0  0  0  0  2  0  0  0  0  0  0
  -25.9660  -29.5120   20.5360 C   0  0  0  0  0  0  0  0  0  0  0  0
  -27.1750  -28.7910   20.4820 C   0  0  0  0  0  3  0  0  0  0  0  0
  -26.0280  -26.9840   19.3170 C   0  0  0  0  0  3  0  0  0  0  0  0
  -24.8230  -27.7110   19.3630 C   0  0  0  0  0  3  0  0  0  0  0  0
  -23.5520  -29.8260   20.0640 C   0  0  0  0  0  2  0  0  0  0  0  0
  -24.6500  -31.0860   21.9760 N   0  0  0  0  0  0  0  0  0  0  0  0
  -23.5580  -32.1240   23.6680 O   0  0  0  0  0  0  0  0  0  0  0  0
  -22.7550  -29.4480   22.4180 C   0  0  0  0  0  0  0  0  0  0  0  0
  -21.4260  -29.2750   22.3290 N   0  0  0  0  0  0  0  0  0  0  0  0
  -23.4620  -28.8020   23.1960 O   0  0  0  0  0  0  0  0  0  0  0  0
  -20.9180  -29.8490   21.6710 H   0  0  0  0  0  0  0  0  0  0  0  0
  -18.0630  -28.0900   22.9000 C   0  0  0  0  0  0  0  0  0  0  0  0
  -20.6290  -28.3260   23.1040 C   0  0  0  0  0  3  0  0  0  0  0  0
  -20.7070  -26.9070   22.4960 C   0  0  0  0  0  2  0  0  0  0  0  0
  -19.5730  -26.6130   21.5070 C   0  0  0  0  0  2  0  0  0  0  0  0
  -18.2110  -26.7530   22.1940 C   0  0  0  0  0  2  0  0  0  0  0  0
  -19.1990  -28.8360   23.3130 C   0  0  0  0  0  0  0  0  0  0  0  0
  -19.0070  -30.0900   23.9340 C   0  0  0  0  0  3  0  0  0  0  0  0
  -17.7120  -30.5960   24.1470 C   0  0  0  0  0  3  0  0  0  0  0  0
  -16.5910  -29.8470   23.7500 C   0  0  0  0  0  3  0  0  0  0  0  0
  -16.7680  -28.5950   23.1330 C   0  0  0  0  0  3  0  0  0  0  0  0
  -25.9270  -32.4840   23.6920 C   0  0  0  0  0  3  0  0  0  0  0  0
  -26.5020  -31.6680   24.9130 C   0  0  1  0  0  0  0  0  0  0  0  0
  -25.4540  -31.3770   26.0130 C   0  0  0  0  0  1  0  0  0  0  0  0
  -27.0800  -30.3140   24.4400 C   0  0  0  0  0  1  0  0  0  0  0  0
  -27.6710  -32.4470   25.5620 C   0  0  0  0  0  1  0  0  0  0  0  0
  -25.6180  -33.8650   24.0850 N   0  0  0  0  0  0  0  0  0  0  0  0
  -25.9210  -34.9480   23.3570 C   0  0  0  0  0  0  0  0  0  0  0  0
  -26.5610  -34.8900   22.3040 O   0  0  0  0  0  0  0  0  0  0  0  0
  -25.0460  -33.9840   24.9080 H   0  0  0  0  0  0  0  0  0  0  0  0
  -24.1700  -36.7380   23.1150 C   0  0  0  0  0  1  0  0  0  0  0  0
  -25.4330  -36.3120   23.8800 C   0  0  0  0  0  3  0  0  0  0  0  0
  -27.5820  -37.1790   24.6950 C   0  0  0  0  0  1  0  0  0  0  0  0
  -26.4550  -37.3780   23.7870 N   0  0  0  0  0  0  0  0  0  0  0  0
  -26.0470  -38.2870   23.9830 H   0  0  0  0  0  0  0  0  0  0  0  0
  1  5  1  0
  1  3  2  0
  2  6  2  0
  3  2  1  0
  4  7  1  0
  4  6  1  0
  5  4  2  0
  7  8  1  1
  7  9  1  0
 11 10  1  6
 11 12  1  0
 11  7  1  0
 13 18  1  0
 14 15  1  0
 14 13  1  0
 16 15  1  0
 16 23  1  0
 16 17  1  0
 18 12  1  0
 18 17  1  0
 19 12  2  0
 20 21  2  0
 21 40  1  0
 22 21  1  0
 22 25  1  0
 23 24  1  0
 23 20  1  0
 24 22  2  0
 25 26  1  0
 26 27  2  0
 28 31  1  0
 28 27  1  0
 29 28  2  0
 30 29  1  0
 30 25  2  0
 31 32  1  0
 32 33  1  0
 33 34  2  0
 35 34  1  0
 35 39  1  0
 36 35  2  0
 37 32  2  0
 37 36  1  0
 38 37  1  0
 40 41  1  0
 41 44  1  0
 41 43  1  0
 42 40  2  0
 45 46  1  0
 45 20  1  0
 47 45  1  0
 48 11  1  0
 48 51  1  1
 49 48  1  0
 50 48  1  0
 52  3  1  0
 52 53  1  0
 54 53  1  0
 54 55  1  0
 56 58  1  0
 56 55  1  0
 57 68  2  0
 58 63  1  0
 59 67  1  0
 59 69  1  0
 60 66  1  0
 60 62  1  0
 61 67  1  0
 62 61  1  0
 63 62  2  0
 64 65  1  0
 64 58  2  0
 65 60  2  0
 66 59  1  0
 67 57  1  0
 69 71  2  0
 70 69  1  0
 72 70  1  0
 73 82  2  0
 73 78  1  0
 74 70  1  0
 74 78  1  0
 75 74  1  0
 76 77  1  0
 76 75  1  0
 77 73  1  0
 78 79  2  0
 79 80  1  0
 81 80  2  0
 82 81  1  0
 83 57  1  0
 83 88  1  0
 83 84  1  0
 84 87  1  1
 84 85  1  0
 86 84  1  0
 88 91  1  0
 89 93  1  0
 89 88  1  0
 90 89  2  0
 93 92  1  0
 95 93  1  0
 95 96  1  0
 95 94  1  0
M  ISO  4  11 100  12 100  55 101  56 101
M  END
>  <TORSDO>  (19) 
F 23

>  <SCORE>  (19) 
-12.423

>  <name>  (19) 
19

>  <ligand_id>  (19) 
19

>  <original_smiles>  (19) 
[H]c1nc(C(F)(F)C(C(=O)N2C([H])([H])C([H])([H])C([H])([H])C([H])(n3nc(-c4c([H])c([H])c(Oc5c([H])c([H])c(F)c([H])c5F)c([H])c4[H])c(C(=O)N([H])[H])c3N([H])[H])C2([H])[H])(C([H])([H])[H])C(F)(F)F)nc([H])c1C([H])([H])C([H])([H])C([H])([H])C([H])([H])Oc1c([H])c([H])c2c(c1[H])C([H])([H])N(C(=O)C([H])(N([H])C(=O)C([H])(N([H])C([H])([H])[H])C([H])([H])[H])C(C([H])([H])[H])(C([H])([H])[H])C([H])([H])[H])C([H])(C(=O)N([H])C1([H])c3c([H])c([H])c([H])c([H])c3C([H])([H])C([H])([H])C1([H])[H])C2([H])[H]

>  <smiles>  (19) 
[H]c1nc(C(F)(F)C(C(=O)N2C([H])([H])C([H])([H])C([H])([H])C([H])(n3nc(-c4c([H])c([H])c(Oc5c([H])c([H])c(F)c([H])c5F)c([H])c4[H])c(C(=O)N([H])[H])c3N([H])[H])C2([H])[H])(C([H])([H])[H])C(F)(F)F)nc([H])c1C([H])([H])C([H])([H])C([H])([H])C([H])([H])Oc1c([H])c([H])c2c(c1[H])C([H])([H])N(C(=O)C([H])(N([H])C(=O)C([H])(N([H])C([H])([H])[H])C([H])([H])[H])C(C([H])([H])[H])(C([H])([H])[H])C([H])([H])[H])C([H])(C(=O)N([H])C1([H])c3c([H])c([H])c([H])c([H])c3C([H])([H])C([H])([H])C1([H])[H])C2([H])[H]

$$$$
20:0:0
     RDKit          3D

 94102  0  0  1  0  0  0  0  0999 V2000
  -28.5290  -20.1690   20.9650 C   0  0  0  0  0  3  0  0  0  0  0  0
  -29.5390  -19.3930   20.3280 C   0  0  0  0  0  0  0  0  0  0  0  0
  -29.6430  -22.1420   20.4860 C   0  0  0  0  0  0  0  0  0  0  0  0
  -30.6860  -21.3740   19.8900 C   0  0  0  0  0  0  0  0  0  0  0  0
  -28.5810  -21.5200   21.0520 N   0  0  0  0  0  0  0  0  0  0  0  0
  -30.6360  -20.0150   19.8210 N   0  0  0  0  0  0  0  0  0  0  0  0
  -29.7220  -17.5110   18.6460 C   0  0  0  0  0  1  0  0  0  0  0  0
  -27.9600  -17.4040   20.3730 C   0  0  0  0  0  1  0  0  0  0  0  0
  -29.4140  -17.8530   20.1230 C   0  0  2  0  0  0  0  0  0  0  0  0
  -30.3600  -17.0170   21.0520 C   0  0  0  0  0  2  0  0  0  0  0  0
  -30.7590  -14.5610   20.4890 C   0  0  0  0  0  0  0  0  0  0  0  0
  -30.4590  -12.4120   19.3120 C   0  0  0  0  0  2  0  0  0  0  0  0
  -29.5260  -12.6370   18.1050 C   0  0  0  0  0  2  0  0  0  0  0  0
  -28.0500  -12.4810   18.5240 C   0  0  0  0  0  2  0  0  0  0  0  0
  -27.6990  -13.3010   19.7940 C   0  0  0  0  0  3  0  0  0  0  0  0
  -28.7530  -13.0780   20.9060 C   0  0  0  0  0  2  0  0  0  0  0  0
  -30.0840  -13.3850   20.3500 N   0  0  0  0  0  0  0  0  0  0  0  0
  -31.8770  -14.7560   20.0100 O   0  0  0  0  0  0  0  0  0  0  0  0
  -30.0570  -15.5620   21.0500 N   0  0  0  0  0  0  0  0  0  0  0  0
  -29.1470  -15.3020   21.3950 H   0  0  0  0  0  0  0  0  0  0  0  0
  -25.2860  -13.8940   20.4810 C   0  0  0  0  0  0  0  0  0  0  0  0
  -24.2230  -13.1190   20.8520 C   0  0  0  0  0  0  0  0  0  0  0  0
  -24.6950  -11.7720   20.8310 C   0  0  0  0  0  0  0  0  0  0  0  0
  -26.3430  -13.0220   20.2640 N   0  0  0  0  0  0  0  0  0  0  0  0
  -25.9890  -11.7390   20.5320 N   0  0  0  0  0  0  0  0  0  0  0  0
  -23.9750  -10.5080   21.0200 C   0  0  0  0  0  0  0  0  0  0  0  0
  -24.4060   -9.5480   21.9620 C   0  0  0  0  0  3  0  0  0  0  0  0
  -23.6850   -8.3470   22.1380 C   0  0  0  0  0  3  0  0  0  0  0  0
  -22.5200   -8.1000   21.3740 C   0  0  0  0  0  0  0  0  0  0  0  0
  -22.1090   -9.0500   20.4220 C   0  0  0  0  0  3  0  0  0  0  0  0
  -22.8300  -10.2420   20.2430 C   0  0  0  0  0  3  0  0  0  0  0  0
  -21.7720   -6.9500   21.4590 O   0  0  0  0  0  0  0  0  0  0  0  0
  -21.7170   -6.2120   22.6140 C   0  0  0  0  0  0  0  0  0  0  0  0
  -21.2640   -6.7650   23.8320 C   0  0  0  0  0  3  0  0  0  0  0  0
  -21.1570   -5.9510   24.9770 C   0  0  0  0  0  3  0  0  0  0  0  0
  -21.4930   -4.5860   24.9050 C   0  0  0  0  0  0  0  0  0  0  0  0
  -21.9400   -4.0320   23.6920 C   0  0  0  0  0  3  0  0  0  0  0  0
  -22.0480   -4.8430   22.5490 C   0  0  0  0  0  0  0  0  0  0  0  0
  -22.4580   -4.3010   21.3770 F   0  0  0  0  0  0  0  0  0  0  0  0
  -21.3840   -3.8030   26.0030 F   0  0  0  0  0  0  0  0  0  0  0  0
  -22.8230  -13.5930   21.1120 C   0  0  0  0  0  0  0  0  0  0  0  0
  -22.0880  -12.8970   21.9720 N   0  0  0  0  0  0  0  0  0  0  0  0
  -22.3870  -14.6180   20.5880 O   0  0  0  0  0  0  0  0  0  0  0  0
  -22.4510  -12.0700   22.4210 H   0  0  0  0  0  0  0  0  0  0  0  0
  -21.1480  -13.2010   22.1840 H   0  0  0  0  0  0  0  0  0  0  0  0
  -25.4220  -15.2630   20.2880 N   0  0  0  0  0  0  0  0  0  0  0  0
  -24.6360  -15.8970   20.3780 H   0  0  0  0  0  0  0  0  0  0  0  0
  -26.2550  -15.7130   19.9320 H   0  0  0  0  0  0  0  0  0  0  0  0
  -31.7810  -22.1870   17.7470 C   0  0  0  0  0  1  0  0  0  0  0  0
  -31.9170  -22.0150   19.2660 C   0  0  0  0  0  2  0  0  0  0  0  0
  -29.6940  -23.6800   20.5810 C   0  0  0  0  0  2  0  0  0  0  0  0
  -28.3900  -24.3910   21.0380 C   0  0  0  0  0  2  0  0  0  0  0  0
  -28.5470  -25.9040   21.3320 C   0  0  0  0  0  2  0  0  0  0  0  0
  -28.3830  -26.7340   20.1750 O   0  0  0  0  0  0  0  0  0  0  0  0
  -24.5570  -31.9200   23.2310 C   0  0  0  0  0  0  0  0  0  0  0  0
  -27.2250  -27.4770   20.1850 C   0  0  0  0  0  0  0  0  0  0  0  0
  -23.3540  -30.4920   21.6070 C   0  0  0  0  0  3  0  0  0  0  0  0
  -24.8150  -28.9470   20.1950 C   0  0  0  0  0  0  0  0  0  0  0  0
  -25.8750  -30.8700   21.3940 C   0  0  0  0  0  2  0  0  0  0  0  0
  -25.9690  -29.4920   20.7720 C   0  0  0  0  0  0  0  0  0  0  0  0
  -27.1790  -28.7640   20.7670 C   0  0  0  0  0  3  0  0  0  0  0  0
  -26.0590  -26.9410   19.6040 C   0  0  0  0  0  3  0  0  0  0  0  0
  -24.8520  -27.6690   19.6090 C   0  0  0  0  0  3  0  0  0  0  0  0
  -23.5640  -29.7960   20.2340 C   0  0  0  0  0  2  0  0  0  0  0  0
  -24.6130  -31.1110   22.1350 N   0  0  0  0  0  0  0  0  0  0  0  0
  -23.4760  -32.1900   23.7710 O   0  0  0  0  0  0  0  0  0  0  0  0
  -22.7150  -29.4780   22.5810 C   0  0  0  0  0  0  0  0  0  0  0  0
  -21.3920  -29.2830   22.4590 N   0  0  0  0  0  0  0  0  0  0  0  0
  -23.4050  -28.8680   23.4010 O   0  0  0  0  0  0  0  0  0  0  0  0
  -20.8950  -29.8310   21.7690 H   0  0  0  0  0  0  0  0  0  0  0  0
  -18.0260  -28.0820   22.9890 C   0  0  0  0  0  0  0  0  0  0  0  0
  -20.5840  -28.3480   23.2400 C   0  0  0  0  0  3  0  0  0  0  0  0
  -20.6860  -26.9130   22.6730 C   0  0  0  0  0  2  0  0  0  0  0  0
  -19.5780  -26.5810   21.6690 C   0  0  0  0  0  2  0  0  0  0  0  0
  -18.2000  -26.7280   22.3210 C   0  0  0  0  0  2  0  0  0  0  0  0
  -19.1450  -28.8480   23.4060 C   0  0  0  0  0  0  0  0  0  0  0  0
  -18.9280  -30.1160   23.9900 C   0  0  0  0  0  3  0  0  0  0  0  0
  -17.6240  -30.6150   24.1620 C   0  0  0  0  0  3  0  0  0  0  0  0
  -16.5180  -29.8450   23.7600 C   0  0  0  0  0  3  0  0  0  0  0  0
  -16.7200  -28.5810   23.1790 C   0  0  0  0  0  3  0  0  0  0  0  0
  -25.8420  -32.5660   23.8370 C   0  0  0  0  0  3  0  0  0  0  0  0
  -25.5230  -33.9630   24.1630 N   0  0  0  0  0  0  0  0  0  0  0  0
  -25.8580  -35.0140   23.4050 C   0  0  0  0  0  0  0  0  0  0  0  0
  -26.5380  -34.9120   22.3790 O   0  0  0  0  0  0  0  0  0  0  0  0
  -24.9210  -34.1160   24.9580 H   0  0  0  0  0  0  0  0  0  0  0  0
  -24.1400  -36.8080   23.0110 C   0  0  0  0  0  1  0  0  0  0  0  0
  -25.3590  -36.4000   23.8540 C   0  0  0  0  0  3  0  0  0  0  0  0
  -27.4700  -37.2830   24.7440 C   0  0  0  0  0  1  0  0  0  0  0  0
  -26.3950  -37.4530   23.7710 N   0  0  0  0  0  0  0  0  0  0  0  0
  -25.9830  -38.3730   23.9100 H   0  0  0  0  0  0  0  0  0  0  0  0
  -26.3800  -31.8040   25.1110 C   0  0  1  0  0  0  0  0  0  0  0  0
  -25.3000  -31.5540   26.1890 C   0  0  0  0  0  1  0  0  0  0  0  0
  -26.9770  -30.4330   24.7130 C   0  0  0  0  0  1  0  0  0  0  0  0
  -27.5240  -32.6150   25.7630 C   0  0  0  0  0  1  0  0  0  0  0  0
  1  5  1  0
  2  1  2  0
  3 51  1  0
  3  5  2  0
  4  3  1  0
  6  4  2  0
  6  2  1  0
  9  7  1  6
  9  2  1  0
  9  8  1  0
  9 10  1  0
 11 19  1  0
 12 17  1  0
 13 14  1  0
 13 12  1  0
 15 14  1  0
 15 24  1  0
 15 16  1  0
 17 11  1  0
 17 16  1  0
 18 11  2  0
 19 10  1  0
 19 20  1  0
 21 22  2  0
 22 41  1  0
 23 22  1  0
 23 26  1  0
 24 21  1  0
 24 25  1  0
 25 23  2  0
 26 27  1  0
 27 28  2  0
 29 32  1  0
 29 28  1  0
 30 29  2  0
 31 30  1  0
 31 26  2  0
 32 33  1  0
 33 34  1  0
 34 35  2  0
 36 35  1  0
 36 40  1  0
 37 36  2  0
 38 33  2  0
 38 37  1  0
 39 38  1  0
 41 42  1  0
 42 45  1  0
 42 44  1  0
 43 41  2  0
 46 47  1  0
 46 21  1  0
 48 46  1  0
 49 50  1  0
 50  4  1  0
 51 52  1  0
 52 53  1  0
 54 56  1  0
 54 53  1  0
 55 66  2  0
 56 61  1  0
 57 65  1  0
 57 67  1  0
 58 64  1  0
 58 60  1  0
 59 65  1  0
 60 59  1  0
 61 60  2  0
 62 63  1  0
 62 56  2  0
 63 58  2  0
 64 57  1  0
 65 55  1  0
 67 69  2  0
 68 67  1  0
 70 68  1  0
 71 80  2  0
 71 76  1  0
 72 68  1  0
 72 76  1  0
 73 72  1  0
 74 75  1  0
 74 73  1  0
 75 71  1  0
 76 77  2  0
 77 78  1  0
 79 78  2  0
 80 79  1  0
 81 55  1  0
 81 82  1  0
 81 91  1  0
 82 85  1  0
 83 87  1  0
 83 82  1  0
 84 83  2  0
 87 86  1  0
 89 87  1  0
 89 90  1  0
 89 88  1  0
 91 94  1  1
 91 92  1  0
 93 91  1  0
M  ISO  4  11 100  19 100  53 101  54 101
M  END
>  <TORSDO>  (20) 
F 22

>  <SCORE>  (20) 
-13.340

>  <name>  (20) 
20

>  <ligand_id>  (20) 
20

>  <original_smiles>  (20) 
[H]c1nc(C([H])([H])C([H])([H])C([H])([H])Oc2c([H])c([H])c3c(c2[H])C([H])([H])N(C(=O)C([H])(N([H])C(=O)C([H])(N([H])C([H])([H])[H])C([H])([H])[H])C(C([H])([H])[H])(C([H])([H])[H])C([H])([H])[H])C([H])(C(=O)N([H])C2([H])c4c([H])c([H])c([H])c([H])c4C([H])([H])C([H])([H])C2([H])[H])C3([H])[H])c(C([H])([H])C([H])([H])[H])nc1C(C([H])([H])[H])(C([H])([H])[H])C([H])([H])N([H])C(=O)N1C([H])([H])C([H])([H])C([H])([H])C([H])(n2nc(-c3c([H])c([H])c(Oc4c([H])c([H])c(F)c([H])c4F)c([H])c3[H])c(C(=O)N([H])[H])c2N([H])[H])C1([H])[H]

>  <smiles>  (20) 
[H]c1nc(C([H])([H])C([H])([H])C([H])([H])Oc2c([H])c([H])c3c(c2[H])C([H])([H])N(C(=O)C([H])(N([H])C(=O)C([H])(N([H])C([H])([H])[H])C([H])([H])[H])C(C([H])([H])[H])(C([H])([H])[H])C([H])([H])[H])C([H])(C(=O)N([H])C2([H])c4c([H])c([H])c([H])c([H])c4C([H])([H])C([H])([H])C2([H])[H])C3([H])[H])c(C([H])([H])C([H])([H])[H])nc1C(C([H])([H])[H])(C([H])([H])[H])C([H])([H])N([H])C(=O)N1C([H])([H])C([H])([H])C([H])([H])C([H])(n2nc(-c3c([H])c([H])c(Oc4c([H])c([H])c(F)c([H])c4F)c([H])c3[H])c(C(=O)N([H])[H])c2N([H])[H])C1([H])[H]

$$$$
21:0:0
     RDKit          3D

 97104  0  0  1  0  0  0  0  0999 V2000
  -23.8780  -24.5910   18.4200 C   0  0  0  0  0  1  0  0  0  0  0  0
  -23.2100  -22.7910   19.9280 C   0  0  0  0  0  1  0  0  0  0  0  0
  -24.1490  -24.0130   19.8240 C   0  0  2  0  0  0  0  0  0  0  0  0
  -24.0860  -24.5030   22.2410 C   0  0  0  0  0  1  0  0  0  0  0  0
  -23.5230  -25.2890   21.0010 C   0  0  0  0  0  3  0  0  0  0  0  0
  -25.1450  -26.1170   21.1930 O   0  0  0  0  0  0  0  0  0  0  0  0
  -24.3240  -31.3350   23.1700 C   0  0  0  0  0  0  0  0  0  0  0  0
  -26.3510  -26.6060   20.5560 C   0  0  0  0  0  3  0  0  0  0  0  0
  -23.4870  -30.0670   21.2840 C   0  0  0  0  0  3  0  0  0  0  0  0
  -25.0290  -28.7040   19.8380 C   0  0  0  0  0  0  0  0  0  0  0  0
  -25.9700  -30.2630   21.5780 C   0  0  0  0  0  2  0  0  0  0  0  0
  -26.0100  -28.9440   20.8130 C   0  0  0  0  0  3  0  0  0  0  0  0
  -26.8350  -27.8380   21.1180 C   0  0  0  0  0  2  0  0  0  0  0  0
  -26.1310  -26.6490   19.2090 C   0  0  0  0  0  2  0  0  0  0  0  0
  -25.1370  -27.5980   18.9620 C   0  0  0  0  0  3  0  0  0  0  0  0
  -23.8320  -29.5950   19.8460 C   0  0  0  0  0  2  0  0  0  0  0  0
  -24.6120  -30.6340   22.0340 N   0  0  0  0  0  0  0  0  0  0  0  0
  -23.1520  -31.5810   23.5030 O   0  0  0  0  0  0  0  0  0  0  0  0
  -22.9500  -28.9300   22.1430 C   0  0  0  0  0  0  0  0  0  0  0  0
  -21.8460  -28.5020   21.7180 N   0  0  0  0  0  4  0  0  0  0  0  0
  -23.4030  -28.5340   23.2020 O   0  0  0  0  0  0  0  0  0  0  0  0
  -21.4950  -28.8980   20.8540 H   0  0  0  0  0  0  0  0  0  0  0  0
  -19.5890  -26.7870   19.5100 C   0  0  0  0  0  3  0  0  0  0  0  0
  -20.9790  -27.5460   22.2750 C   0  0  0  0  0  2  0  0  0  0  0  0
  -21.0170  -25.5910   22.5960 C   0  0  0  0  0  2  0  0  0  0  0  0
  -20.5160  -24.4750   21.1320 C   0  0  0  0  0  3  0  0  0  0  0  0
  -19.9350  -25.1580   19.6070 C   0  0  0  0  0  2  0  0  0  0  0  0
  -20.2220  -28.0500   20.8200 C   0  0  2  0  0  0  0  0  0  0  0  0
  -19.0490  -28.8000   21.7570 C   0  0  0  0  0  2  0  0  0  0  0  0
  -17.4990  -28.4430   21.6400 C   0  0  0  0  0  3  0  0  0  0  0  0
  -16.9350  -27.3760   20.6150 C   0  0  0  0  0  3  0  0  0  0  0  0
  -17.8680  -26.5760   19.5490 C   0  0  0  0  0  2  0  0  0  0  0  0
  -25.4520  -31.8680   24.0770 C   0  0  0  0  0  3  0  0  0  0  0  0
  -25.1980  -33.3030   24.2510 N   0  0  0  0  0  0  0  0  0  0  0  0
  -25.7510  -34.2590   23.4970 C   0  0  0  0  0  0  0  0  0  0  0  0
  -26.6060  -34.0220   22.6410 O   0  0  0  0  0  0  0  0  0  0  0  0
  -24.4670  -33.5580   24.8990 H   0  0  0  0  0  0  0  0  0  0  0  0
  -24.2870  -36.1250   22.6610 C   0  0  0  0  0  1  0  0  0  0  0  0
  -25.2930  -35.7070   23.7460 C   0  0  0  0  0  3  0  0  0  0  0  0
  -27.2780  -36.4960   24.9530 C   0  0  0  0  0  1  0  0  0  0  0  0
  -26.4100  -36.6730   23.7900 N   0  0  0  0  0  0  0  0  0  0  0  0
  -26.0620  -37.6290   23.7980 H   0  0  0  0  0  0  0  0  0  0  0  0
  -25.5270  -31.1420   25.4740 C   0  0  1  0  0  0  0  0  0  0  0  0
  -24.1720  -31.0520   26.2130 C   0  0  0  0  0  1  0  0  0  0  0  0
  -26.0800  -29.7080   25.3210 C   0  0  0  0  0  1  0  0  0  0  0  0
  -26.5230  -31.8990   26.3820 C   0  0  0  0  0  1  0  0  0  0  0  0
  -21.2620  -25.7270   21.2580 C   0  0  0  0  0  2  0  0  0  0  0  0
  -18.4000  -22.6790   22.3910 C   0  0  0  0  0  1  0  0  0  0  0  0
  -17.4400  -23.7810   20.7400 C   0  0  0  0  0  1  0  0  0  0  0  0
  -17.7720  -26.6290   24.0290 C   0  0  0  0  0 15  0  0  0  0  0  0
  -18.5420  -24.3130   21.9110 C   0  0  0  0  0  2  0  0  0  0  0  0
  -25.7870  -23.2210   19.6330 C   0  0  0  0  0  2  0  0  0  0  0  0
  -26.3240  -21.6680   18.8680 C   0  0  0  0  0  2  0  0  0  0  0  0
  -31.1880  -15.3890   19.3330 C   0  0  0  0  0  0  0  0  0  0  0  0
  -31.2420  -12.8300   18.8710 C   0  0  0  0  0  2  0  0  0  0  0  0
  -30.3050  -12.4000   17.7190 C   0  0  0  0  0  2  0  0  0  0  0  0
  -28.8800  -12.2120   18.2590 C   0  0  0  0  0  2  0  0  0  0  0  0
  -28.4690  -13.3670   19.2060 C   0  0  0  0  0  3  0  0  0  0  0  0
  -29.5150  -13.6850   20.2760 C   0  0  0  0  0  2  0  0  0  0  0  0
  -30.6850  -14.0840   19.5230 N   0  0  0  0  0  0  0  0  0  0  0  0
  -32.3690  -15.2940   18.9140 O   0  0  0  0  0  0  0  0  0  0  0  0
  -28.0100  -19.4770   18.0140 C   0  0  0  0  0  3  0  0  0  0  0  0
  -28.8240  -18.6840   20.3820 C   0  0  0  0  0  3  0  0  0  0  0  0
  -27.5430  -20.4010   19.0570 C   0  0  0  0  0  0  0  0  0  0  0  0
  -29.3240  -17.7710   19.3350 C   0  0  0  0  0  0  0  0  0  0  0  0
  -31.7130  -17.6930   19.7560 C   0  0  0  0  0  1  0  0  0  0  0  0
  -28.0030  -19.8590   20.2680 N   0  0  0  0  0  0  0  0  0  0  0  0
  -28.8260  -18.3020   18.1350 N   0  0  0  0  0  0  0  0  0  0  0  0
  -30.5720  -16.7560   19.5780 N   0  0  0  0  0  0  0  0  0  0  0  0
  -26.2890  -14.1300   20.2390 C   0  0  0  0  0  0  0  0  0  0  0  0
  -25.1970  -13.4460   20.6840 C   0  0  0  0  0  0  0  0  0  0  0  0
  -25.5080  -12.0580   20.5310 C   0  0  0  0  0  0  0  0  0  0  0  0
  -27.1810  -13.1650   19.8210 N   0  0  0  0  0  0  0  0  0  0  0  0
  -26.7410  -11.9080   20.0710 N   0  0  0  0  0  0  0  0  0  0  0  0
  -24.6780  -10.8670   20.7310 C   0  0  0  0  0  0  0  0  0  0  0  0
  -25.0140   -9.8820   21.6860 C   0  0  0  0  0  3  0  0  0  0  0  0
  -24.1840   -8.7560   21.8710 C   0  0  0  0  0  3  0  0  0  0  0  0
  -23.0050   -8.6110   21.1000 C   0  0  0  0  0  0  0  0  0  0  0  0
  -22.6920   -9.5810   20.1330 C   0  0  0  0  0  3  0  0  0  0  0  0
  -23.5210  -10.6990   19.9470 C   0  0  0  0  0  3  0  0  0  0  0  0
  -22.1490   -7.5410   21.1950 O   0  0  0  0  0  0  0  0  0  0  0  0
  -21.8150   -6.9940   22.4090 C   0  0  0  0  0  0  0  0  0  0  0  0
  -21.2580   -7.7700   23.4490 C   0  0  0  0  0  3  0  0  0  0  0  0
  -20.8640   -7.1520   24.6520 C   0  0  0  0  0  3  0  0  0  0  0  0
  -21.0170   -5.7620   24.8140 C   0  0  0  0  0  0  0  0  0  0  0  0
  -21.5670   -4.9880   23.7770 C   0  0  0  0  0  3  0  0  0  0  0  0
  -21.9620   -5.6030   22.5760 C   0  0  0  0  0  0  0  0  0  0  0  0
  -22.4730   -4.8490   21.5720 F   0  0  0  0  0  0  0  0  0  0  0  0
  -20.6310   -5.1670   25.9670 F   0  0  0  0  0  0  0  0  0  0  0  0
  -23.8970  -14.0490   21.1200 C   0  0  0  0  0  0  0  0  0  0  0  0
  -23.2080  -13.4060   22.0530 N   0  0  0  0  0  0  0  0  0  0  0  0
  -23.5130  -15.1270   20.6670 O   0  0  0  0  0  0  0  0  0  0  0  0
  -23.5390  -12.5340   22.4390 H   0  0  0  0  0  0  0  0  0  0  0  0
  -22.3360  -13.7900   22.3880 H   0  0  0  0  0  0  0  0  0  0  0  0
  -26.5920  -15.4850   20.1260 N   0  0  0  0  0  0  0  0  0  0  0  0
  -25.9080  -16.1980   20.3520 H   0  0  0  0  0  0  0  0  0  0  0  0
  -27.4150  -15.8550   19.6720 H   0  0  0  0  0  0  0  0  0  0  0  0
  3  1  1  6
  3  2  1  0
  3  5  1  0
  5  6  1  0
  5  4  1  0
  7 18  2  0
  8 13  1  0
  8  6  1  0
  9 17  1  0
  9 19  1  0
 10 16  1  0
 10 12  1  0
 11 17  1  0
 12 13  1  0
 12 11  1  0
 14  8  1  0
 15 14  1  0
 15 10  2  0
 16  9  1  0
 17  7  1  0
 19 21  2  0
 20 19  1  0
 20 24  1  0
 22 20  1  0
 23 32  1  0
 23 27  1  0
 23 28  1  0
 26 47  1  0
 26 25  1  0
 27 26  1  0
 28 20  1  0
 28 29  1  6
 28 24  1  0
 30 29  1  0
 31 30  2  0
 32 31  1  0
 33  7  1  0
 33 34  1  0
 33 43  1  0
 34 37  1  0
 35 39  1  0
 35 34  1  0
 36 35  2  0
 39 38  1  0
 39 41  1  0
 41 42  1  0
 41 40  1  0
 43 44  1  1
 43 46  1  0
 45 43  1  0
 47 25  1  0
 49 51  1  0
 51 48  1  0
 52  3  1  0
 53 64  1  0
 53 52  1  0
 54 60  1  0
 54 69  1  0
 55 60  1  0
 56 57  1  0
 56 55  1  0
 58 57  1  0
 58 73  1  0
 58 59  1  0
 60 59  1  0
 61 54  2  0
 62 68  2  0
 62 64  1  0
 64 67  2  0
 65 69  1  0
 65 63  2  0
 67 63  1  0
 68 65  1  0
 69 66  1  0
 70 71  2  0
 71 90  1  0
 72 71  1  0
 72 75  1  0
 73 74  1  0
 73 70  1  0
 74 72  2  0
 75 76  1  0
 76 77  2  0
 78 81  1  0
 78 77  1  0
 79 78  2  0
 80 79  1  0
 80 75  2  0
 81 82  1  0
 82 87  2  0
 82 83  1  0
 83 84  2  0
 84 85  1  0
 85 89  1  0
 86 85  2  0
 87 86  1  0
 88 87  1  0
 90 91  1  0
 91 94  1  0
 91 93  1  0
 92 90  2  0
 95 70  1  0
 95 96  1  0
 97 95  1  0
M  ISO  4   5 101   6 101  54 100  69 100
M  END
>  <TORSDO>  (21) 
F 21

>  <SCORE>  (21) 
-11.427

>  <name>  (21) 
21

>  <ligand_id>  (21) 
21

>  <original_smiles>  (21) 
[H]c1nc(C([H])([H])C([H])([H])C(C([H])([H])[H])(C([H])([H])[H])C(Oc2c([H])c([H])c3c(c2[H])C([H])([H])N(C(=O)C([H])(N([H])C(=O)C([H])(N([H])C([H])([H])[H])C([H])([H])[H])C(C([H])([H])[H])(C([H])([H])[H])C([H])([H])[H])C([H])(C(=O)N([H])C2([H])c4c([H])c([H])c([H])c([H])c4C([H])([H])C([H])([H])C2([H])[H])C3([H])[H])(C([H])([H])[H])C([H])([H])C(C([H])([H])[H])(C([H])([H])[H])C([H])([H])[H])c([H])nc1N(C(=O)N1C([H])([H])C([H])([H])C([H])([H])C([H])(n2nc(-c3c([H])c([H])c(Oc4c([H])c([H])c(F)c([H])c4F)c([H])c3[H])c(C(=O)N([H])[H])c2N([H])[H])C1([H])[H])C([H])([H])[H]

>  <smiles>  (21) 
[H]c1nc(C([H])([H])C([H])([H])C(C([H])([H])[H])(C([H])([H])[H])C(Oc2c([H])c([H])c3c(c2[H])C([H])([H])N(C(=O)C([H])(N([H])C(=O)C([H])(N([H])C([H])([H])[H])C([H])([H])[H])C(C([H])([H])[H])(C([H])([H])[H])C([H])([H])[H])C([H])(C(=O)N([H])C2([H])c4c([H])c([H])c([H])c([H])c4C([H])([H])C([H])([H])C2([H])[H])C3([H])[H])(C([H])([H])[H])C([H])([H])C(C([H])([H])[H])(C([H])([H])[H])C([H])([H])[H])c([H])nc1N(C(=O)N1C([H])([H])C([H])([H])C([H])([H])C([H])(n2nc(-c3c([H])c([H])c(Oc4c([H])c([H])c(F)c([H])c4F)c([H])c3[H])c(C(=O)N([H])[H])c2N([H])[H])C1([H])[H])C([H])([H])[H]

$$$$
22:0:0
     RDKit          3D

 93101  0  0  1  0  0  0  0  0999 V2000
  -29.9230  -21.9470   21.7760 C   0  0  0  0  0  3  0  0  0  0  0  0
  -29.9050  -20.6580   20.0090 C   0  0  0  0  0  3  0  0  0  0  0  0
  -29.7040  -21.9700   20.3710 C   0  0  0  0  0  0  0  0  0  0  0  0
  -30.1820  -20.7340   22.2360 N   0  0  0  0  0  0  0  0  0  0  0  0
  -30.1970  -19.9210   21.1500 N   0  0  0  0  0  0  0  0  0  0  0  0
  -29.6270  -18.0600   22.6210 C   0  0  0  0  0  1  0  0  0  0  0  0
  -30.3470  -18.4560   21.3120 C   0  0  0  0  0  3  0  0  0  0  0  0
  -32.8850  -18.9720   21.0280 C   0  0  0  0  0  1  0  0  0  0  0  0
  -32.2450  -17.0470   22.4280 C   0  0  0  0  0  1  0  0  0  0  0  0
  -31.8210  -17.8610   21.1740 C   0  0  1  0  0  0  0  0  0  0  0  0
  -31.9420  -16.9460   19.9050 C   0  0  0  0  0  2  0  0  0  0  0  0
  -31.9260  -14.4560   19.6070 C   0  0  0  0  0  0  0  0  0  0  0  0
  -31.4440  -12.1280   18.9460 C   0  0  0  0  0  2  0  0  0  0  0  0
  -30.4650  -12.1280   17.7540 C   0  0  0  0  0  2  0  0  0  0  0  0
  -29.0040  -12.1940   18.2450 C   0  0  0  0  0  2  0  0  0  0  0  0
  -28.7760  -13.3050   19.3040 C   0  0  0  0  0  3  0  0  0  0  0  0
  -29.8580  -13.2480   20.4050 C   0  0  0  0  0  2  0  0  0  0  0  0
  -31.1740  -13.3310   19.7490 N   0  0  0  0  0  0  0  0  0  0  0  0
  -33.0120  -14.4640   19.0210 O   0  0  0  0  0  0  0  0  0  0  0  0
  -31.3630  -15.5970   20.0470 N   0  0  0  0  0  0  0  0  0  0  0  0
  -30.4690  -15.5200   20.5090 H   0  0  0  0  0  0  0  0  0  0  0  0
  -26.5530  -14.2650   20.1790 C   0  0  0  0  0  0  0  0  0  0  0  0
  -25.4020  -13.6610   20.6100 C   0  0  0  0  0  0  0  0  0  0  0  0
  -25.6410  -12.2540   20.5300 C   0  0  0  0  0  0  0  0  0  0  0  0
  -27.4280  -13.2360   19.8680 N   0  0  0  0  0  0  0  0  0  0  0  0
  -26.8860  -12.0200   20.1360 N   0  0  0  0  0  0  0  0  0  0  0  0
  -24.7400  -11.1160   20.7530 C   0  0  0  0  0  0  0  0  0  0  0  0
  -25.0490  -10.1000   21.6840 C   0  0  0  0  0  3  0  0  0  0  0  0
  -24.1570   -9.0270   21.8940 C   0  0  0  0  0  3  0  0  0  0  0  0
  -22.9420   -8.9620   21.1730 C   0  0  0  0  0  0  0  0  0  0  0  0
  -22.6500   -9.9640   20.2300 C   0  0  0  0  0  3  0  0  0  0  0  0
  -23.5400  -11.0290   20.0190 C   0  0  0  0  0  3  0  0  0  0  0  0
  -22.0280   -7.9430   21.2920 O   0  0  0  0  0  0  0  0  0  0  0  0
  -21.8420   -7.2780   22.4770 C   0  0  0  0  0  0  0  0  0  0  0  0
  -21.4820   -7.9540   23.6630 C   0  0  0  0  0  3  0  0  0  0  0  0
  -21.2320   -7.2250   24.8420 C   0  0  0  0  0  3  0  0  0  0  0  0
  -21.3330   -5.8200   24.8360 C   0  0  0  0  0  0  0  0  0  0  0  0
  -21.6860   -5.1440   23.6550 C   0  0  0  0  0  3  0  0  0  0  0  0
  -21.9370   -5.8720   22.4790 C   0  0  0  0  0  0  0  0  0  0  0  0
  -22.2560   -5.2140   21.3380 F   0  0  0  0  0  0  0  0  0  0  0  0
  -21.0860   -5.1170   25.9670 F   0  0  0  0  0  0  0  0  0  0  0  0
  -24.1170  -14.3430   20.9830 C   0  0  0  0  0  0  0  0  0  0  0  0
  -23.3610  -13.7650   21.9090 N   0  0  0  0  0  0  0  0  0  0  0  0
  -23.8000  -15.4240   20.4870 O   0  0  0  0  0  0  0  0  0  0  0  0
  -23.6290  -12.8870   22.3310 H   0  0  0  0  0  0  0  0  0  0  0  0
  -22.5000  -14.2050   22.2000 H   0  0  0  0  0  0  0  0  0  0  0  0
  -26.9210  -15.5960   20.0070 N   0  0  0  0  0  0  0  0  0  0  0  0
  -26.2790  -16.3620   20.1770 H   0  0  0  0  0  0  0  0  0  0  0  0
  -27.8050  -15.9000   19.6170 H   0  0  0  0  0  0  0  0  0  0  0  0
  -29.3620  -23.1750   19.5040 C   0  0  0  0  0  2  0  0  0  0  0  0
  -28.7000  -24.3580   20.2680 C   0  0  0  0  0  2  0  0  0  0  0  0
  -28.7670  -25.7030   19.5030 C   0  0  0  0  0  2  0  0  0  0  0  0
  -28.5220  -26.8380   20.3500 O   0  0  0  0  0  0  0  0  0  0  0  0
  -24.6150  -31.8730   23.5080 C   0  0  0  0  0  0  0  0  0  0  0  0
  -27.3150  -27.5130   20.3380 C   0  0  0  0  0  0  0  0  0  0  0  0
  -23.4390  -30.5300   21.7930 C   0  0  0  0  0  3  0  0  0  0  0  0
  -24.9170  -29.0280   20.3540 C   0  0  0  0  0  0  0  0  0  0  0  0
  -25.9700  -30.8780   21.6680 C   0  0  0  0  0  2  0  0  0  0  0  0
  -26.0620  -29.5290   20.9830 C   0  0  0  0  0  0  0  0  0  0  0  0
  -27.2590  -28.7770   20.9720 C   0  0  0  0  0  3  0  0  0  0  0  0
  -26.1410  -27.0160   19.7260 C   0  0  0  0  0  3  0  0  0  0  0  0
  -24.9520  -27.7700   19.7290 C   0  0  0  0  0  3  0  0  0  0  0  0
  -23.6750  -29.8900   20.3990 C   0  0  0  0  0  2  0  0  0  0  0  0
  -24.6920  -31.1070   22.3820 N   0  0  0  0  0  0  0  0  0  0  0  0
  -23.5220  -32.1350   24.0300 O   0  0  0  0  0  0  0  0  0  0  0  0
  -22.7640  -29.4820   22.7070 C   0  0  0  0  0  0  0  0  0  0  0  0
  -21.4520  -29.2710   22.5080 N   0  0  0  0  0  0  0  0  0  0  0  0
  -23.4190  -28.8620   23.5500 O   0  0  0  0  0  0  0  0  0  0  0  0
  -20.9860  -29.8250   21.8030 H   0  0  0  0  0  0  0  0  0  0  0  0
  -18.1010  -27.9490   22.7600 C   0  0  0  0  0  0  0  0  0  0  0  0
  -20.6190  -28.3060   23.2220 C   0  0  0  0  0  3  0  0  0  0  0  0
  -20.8180  -26.8770   22.6630 C   0  0  0  0  0  2  0  0  0  0  0  0
  -19.8080  -26.5090   21.5710 C   0  0  0  0  0  2  0  0  0  0  0  0
  -18.3780  -26.6040   22.1100 C   0  0  0  0  0  2  0  0  0  0  0  0
  -19.1540  -28.7540   23.2680 C   0  0  0  0  0  0  0  0  0  0  0  0
  -18.8440  -30.0110   23.8320 C   0  0  0  0  0  3  0  0  0  0  0  0
  -17.5140  -30.4630   23.8960 C   0  0  0  0  0  3  0  0  0  0  0  0
  -16.4720  -29.6540   23.4080 C   0  0  0  0  0  3  0  0  0  0  0  0
  -16.7670  -28.4000   22.8450 C   0  0  0  0  0  3  0  0  0  0  0  0
  -25.8900  -32.4770   24.1740 C   0  0  0  0  0  3  0  0  0  0  0  0
  -25.5850  -33.8690   24.5330 N   0  0  0  0  0  0  0  0  0  0  0  0
  -25.9420  -34.9360   23.8070 C   0  0  0  0  0  0  0  0  0  0  0  0
  -26.6340  -34.8530   22.7880 O   0  0  0  0  0  0  0  0  0  0  0  0
  -24.9760  -34.0110   25.3260 H   0  0  0  0  0  0  0  0  0  0  0  0
  -24.2270  -36.7410   23.4660 C   0  0  0  0  0  1  0  0  0  0  0  0
  -25.4540  -36.3150   24.2870 C   0  0  0  0  0  3  0  0  0  0  0  0
  -27.5790  -37.1690   25.1700 C   0  0  0  0  0  1  0  0  0  0  0  0
  -26.4920  -37.3660   24.2150 N   0  0  0  0  0  0  0  0  0  0  0  0
  -26.0880  -38.2840   24.3810 H   0  0  0  0  0  0  0  0  0  0  0  0
  -26.3720  -31.6700   25.4420 C   0  0  1  0  0  0  0  0  0  0  0  0
  -25.2460  -31.3830   26.4620 C   0  0  0  0  0  1  0  0  0  0  0  0
  -26.9860  -30.3140   25.0230 C   0  0  0  0  0  1  0  0  0  0  0  0
  -27.4890  -32.4530   26.1710 C   0  0  0  0  0  1  0  0  0  0  0  0
  1  4  2  0
  2  3  2  0
  2  5  1  0
  3  1  1  0
  5  7  1  0
  5  4  1  0
  7  6  1  0
 10  8  1  6
 10  7  1  0
 10  9  1  0
 11 20  1  0
 11 10  1  0
 12 18  1  0
 12 20  1  0
 13 18  1  0
 14 15  1  0
 14 13  1  0
 16 15  1  0
 16 25  1  0
 16 17  1  0
 18 17  1  0
 19 12  2  0
 20 21  1  0
 22 23  2  0
 23 42  1  0
 24 23  1  0
 24 27  1  0
 25 26  1  0
 25 22  1  0
 26 24  2  0
 27 28  1  0
 28 29  2  0
 30 33  1  0
 30 29  1  0
 31 30  2  0
 32 31  1  0
 32 27  2  0
 33 34  1  0
 34 39  2  0
 34 35  1  0
 35 36  2  0
 37 36  1  0
 37 41  1  0
 38 37  2  0
 39 38  1  0
 40 39  1  0
 42 43  1  0
 43 46  1  0
 43 45  1  0
 44 42  2  0
 47 48  1  0
 47 22  1  0
 49 47  1  0
 50 51  1  0
 50  3  1  0
 52 51  1  0
 52 53  1  0
 54 65  2  0
 55 53  1  0
 55 60  1  0
 56 64  1  0
 56 66  1  0
 57 63  1  0
 57 59  1  0
 58 64  1  0
 59 58  1  0
 60 59  2  0
 61 62  1  0
 61 55  2  0
 62 57  2  0
 63 56  1  0
 64 54  1  0
 66 68  2  0
 67 66  1  0
 69 67  1  0
 70 79  2  0
 70 75  1  0
 71 67  1  0
 71 75  1  0
 72 71  1  0
 73 74  1  0
 73 72  1  0
 74 70  1  0
 75 76  2  0
 76 77  1  0
 78 77  2  0
 79 78  1  0
 80 54  1  0
 80 81  1  0
 80 90  1  0
 81 84  1  0
 82 86  1  0
 82 81  1  0
 83 82  2  0
 86 85  1  0
 88 86  1  0
 88 89  1  0
 88 87  1  0
 90 93  1  1
 90 91  1  0
 92 90  1  0
M  ISO  4  12 100  20 100  52 101  53 101
M  END
>  <TORSDO>  (22) 
F 22

>  <SCORE>  (22) 
-8.348

>  <name>  (22) 
22

>  <ligand_id>  (22) 
22

>  <original_smiles>  (22) 
[H]c1nn(C([H])(C([H])([H])[H])C(C([H])([H])[H])(C([H])([H])[H])C([H])([H])N([H])C(=O)N2C([H])([H])C([H])([H])C([H])([H])C([H])(n3nc(-c4c([H])c([H])c(Oc5c([H])c([H])c(F)c([H])c5F)c([H])c4[H])c(C(=O)N([H])[H])c3N([H])[H])C2([H])[H])c([H])c1C([H])([H])C([H])([H])C([H])([H])Oc1c([H])c([H])c2c(c1[H])C([H])([H])N(C(=O)C([H])(N([H])C(=O)C([H])(N([H])C([H])([H])[H])C([H])([H])[H])C(C([H])([H])[H])(C([H])([H])[H])C([H])([H])[H])C([H])(C(=O)N([H])C1([H])c3c([H])c([H])c([H])c([H])c3C([H])([H])C([H])([H])C1([H])[H])C2([H])[H]

>  <smiles>  (22) 
[H]c1nn(C([H])(C([H])([H])[H])C(C([H])([H])[H])(C([H])([H])[H])C([H])([H])N([H])C(=O)N2C([H])([H])C([H])([H])C([H])([H])C([H])(n3nc(-c4c([H])c([H])c(Oc5c([H])c([H])c(F)c([H])c5F)c([H])c4[H])c(C(=O)N([H])[H])c3N([H])[H])C2([H])[H])c([H])c1C([H])([H])C([H])([H])C([H])([H])Oc1c([H])c([H])c2c(c1[H])C([H])([H])N(C(=O)C([H])(N([H])C(=O)C([H])(N([H])C([H])([H])[H])C([H])([H])[H])C(C([H])([H])[H])(C([H])([H])[H])C([H])([H])[H])C([H])(C(=O)N([H])C1([H])c3c([H])c([H])c([H])c([H])c3C([H])([H])C([H])([H])C1([H])[H])C2([H])[H]

$$$$
23:0:0
     RDKit          3D

106114  0  0  1  0  0  0  0  0999 V2000
  -30.8740  -17.4050   19.1710 C   0  0  0  0  0  3  0  0  0  0  0  0
  -30.4090  -18.4520   18.4120 C   0  0  0  0  0  0  0  0  0  0  0  0
  -29.2660  -18.8940   19.1730 C   0  0  0  0  0  0  0  0  0  0  0  0
  -29.0460  -18.1130   20.2300 N   0  0  0  0  0  0  0  0  0  0  0  0
  -30.0130  -17.1660   20.2210 N   0  0  0  0  0  0  0  0  0  0  0  0
  -30.7170  -16.8170   22.5580 C   0  0  0  0  0  1  0  0  0  0  0  0
  -30.0890  -16.1710   21.3120 C   0  0  0  0  0  3  0  0  0  0  0  0
  -30.8670  -14.8690   20.9370 C   0  0  0  0  0  0  0  0  0  0  0  0
  -30.7860  -12.5430   20.1120 C   0  0  0  0  0  2  0  0  0  0  0  0
  -29.9990  -12.5110   18.7860 C   0  0  0  0  0  2  0  0  0  0  0  0
  -28.4820  -12.3910   19.0460 C   0  0  0  0  0  2  0  0  0  0  0  0
  -27.9710  -13.3980   20.1120 C   0  0  0  0  0  3  0  0  0  0  0  0
  -28.8810  -13.3660   21.3580 C   0  0  0  0  0  2  0  0  0  0  0  0
  -30.2510  -13.6550   20.9150 N   0  0  0  0  0  0  0  0  0  0  0  0
  -32.0470  -14.9840   20.5900 O   0  0  0  0  0  0  0  0  0  0  0  0
  -25.5160  -14.0470   20.5240 C   0  0  0  0  0  0  0  0  0  0  0  0
  -24.4070  -13.2960   20.8090 C   0  0  0  0  0  0  0  0  0  0  0  0
  -24.8580  -11.9430   20.8910 C   0  0  0  0  0  0  0  0  0  0  0  0
  -26.5730  -13.1520   20.4530 N   0  0  0  0  0  0  0  0  0  0  0  0
  -26.1740  -11.8840   20.7280 N   0  0  0  0  0  0  0  0  0  0  0  0
  -24.1050  -10.6940   21.0600 C   0  0  0  0  0  0  0  0  0  0  0  0
  -24.4630   -9.7430   22.0410 C   0  0  0  0  0  3  0  0  0  0  0  0
  -23.7120   -8.5580   22.1960 C   0  0  0  0  0  3  0  0  0  0  0  0
  -22.5890   -8.3160   21.3690 C   0  0  0  0  0  0  0  0  0  0  0  0
  -22.2520   -9.2530   20.3770 C   0  0  0  0  0  3  0  0  0  0  0  0
  -23.0040  -10.4310   20.2210 C   0  0  0  0  0  3  0  0  0  0  0  0
  -21.8170   -7.1810   21.4320 O   0  0  0  0  0  0  0  0  0  0  0  0
  -21.7010   -6.4520   22.5880 C   0  0  0  0  0  0  0  0  0  0  0  0
  -21.2260   -7.0250   23.7880 C   0  0  0  0  0  3  0  0  0  0  0  0
  -21.0560   -6.2240   24.9330 C   0  0  0  0  0  3  0  0  0  0  0  0
  -21.3530   -4.8480   24.8800 C   0  0  0  0  0  0  0  0  0  0  0  0
  -21.8210   -4.2730   23.6850 C   0  0  0  0  0  3  0  0  0  0  0  0
  -21.9910   -5.0720   22.5420 C   0  0  0  0  0  0  0  0  0  0  0  0
  -22.4220   -4.5100   21.3870 F   0  0  0  0  0  0  0  0  0  0  0  0
  -21.1820   -4.0740   25.9780 F   0  0  0  0  0  0  0  0  0  0  0  0
  -22.9930  -13.7880   20.9050 C   0  0  0  0  0  0  0  0  0  0  0  0
  -22.1840  -13.1590   21.7520 N   0  0  0  0  0  0  0  0  0  0  0  0
  -22.6100  -14.7670   20.2660 O   0  0  0  0  0  0  0  0  0  0  0  0
  -22.5080  -12.3720   22.2930 H   0  0  0  0  0  0  0  0  0  0  0  0
  -21.2280  -13.4680   21.8580 H   0  0  0  0  0  0  0  0  0  0  0  0
  -25.7150  -15.4070   20.3050 N   0  0  0  0  0  0  0  0  0  0  0  0
  -24.9560  -16.0790   20.3100 H   0  0  0  0  0  0  0  0  0  0  0  0
  -26.6120  -15.8280   20.0940 H   0  0  0  0  0  0  0  0  0  0  0  0
  -31.0290  -18.9830   17.0980 C   0  0  2  0  0  0  0  0  0  0  0  0
  -30.3250  -19.5590   14.6120 C   0  0  0  0  0  1  0  0  0  0  0  0
  -29.8940  -19.1360   16.0330 C   0  0  0  0  0  2  0  0  0  0  0  0
  -31.5040  -16.6000   15.9860 C   0  0  0  0  0  1  0  0  0  0  0  0
  -32.0580  -17.9330   16.5420 C   0  0  0  0  0  2  0  0  0  0  0  0
  -31.0480  -21.6170   17.5150 C   0  0  0  0  0  1  0  0  0  0  0  0
  -31.8610  -20.3110   17.3470 C   0  0  0  0  0  3  0  0  0  0  0  0
  -32.9010  -20.1810   18.5000 C   0  0  0  0  0  2  0  0  0  0  0  0
  -33.9410  -21.3250   18.5800 C   0  0  0  0  0  2  0  0  0  0  0  0
  -34.3170  -21.3150   21.0390 C   0  0  0  0  0  1  0  0  0  0  0  0
  -34.9280  -21.1750   19.6890 N   0  0  2  0  0  4  0  0  0  0  0  0
  -35.2690  -20.2240   19.6500 H   0  0  0  0  0  0  0  0  0  0  0  0
  -35.8340  -23.5120   19.2620 C   0  0  0  0  0  1  0  0  0  0  0  0
  -37.1310  -21.4520   18.5060 C   0  0  0  0  0  1  0  0  0  0  0  0
  -36.1500  -22.0270   19.5420 C   0  0  0  0  0  3  0  0  0  0  0  0
  -28.3000  -20.0470   18.9460 C   0  0  0  0  0  2  0  0  0  0  0  0
  -28.2880  -21.1000   20.0890 C   0  0  0  0  0  2  0  0  0  0  0  0
  -25.9990  -21.8990   19.2550 C   0  0  0  0  0  1  0  0  0  0  0  0
  -27.3270  -22.3130   19.9060 C   0  0  0  0  0  3  0  0  0  0  0  0
  -27.9380  -23.5580   19.2000 C   0  0  0  0  0  2  0  0  0  0  0  0
  -28.4480  -24.6470   20.1740 C   0  0  0  0  0  2  0  0  0  0  0  0
  -29.0640  -25.8890   19.4840 C   0  0  0  0  0  2  0  0  0  0  0  0
  -28.8640  -27.0980   20.2320 O   0  0  0  0  0  0  0  0  0  0  0  0
  -24.5730  -31.8550   23.3430 C   0  0  0  0  0  0  0  0  0  0  0  0
  -27.6330  -27.7270   20.1960 C   0  0  0  0  0  0  0  0  0  0  0  0
  -23.5450  -30.4860   21.5610 C   0  0  0  0  0  3  0  0  0  0  0  0
  -25.1590  -29.1070   20.1540 C   0  0  0  0  0  0  0  0  0  0  0  0
  -26.0540  -30.9850   21.5370 C   0  0  0  0  0  2  0  0  0  0  0  0
  -26.2520  -29.6560   20.8350 C   0  0  0  0  0  0  0  0  0  0  0  0
  -27.4900  -28.9730   20.8550 C   0  0  0  0  0  3  0  0  0  0  0  0
  -26.5100  -27.1860   19.5260 C   0  0  0  0  0  3  0  0  0  0  0  0
  -25.2810  -27.8700   19.5010 C   0  0  0  0  0  3  0  0  0  0  0  0
  -23.8720  -29.9000   20.1640 C   0  0  0  0  0  2  0  0  0  0  0  0
  -24.7380  -31.1220   22.2060 N   0  0  0  0  0  0  0  0  0  0  0  0
  -23.4470  -32.0420   23.8280 O   0  0  0  0  0  0  0  0  0  0  0  0
  -22.8990  -29.3800   22.4270 C   0  0  0  0  0  0  0  0  0  0  0  0
  -21.5780  -29.1920   22.2690 N   0  0  0  0  0  0  0  0  0  0  0  0
  -23.5810  -28.6980   23.1950 O   0  0  0  0  0  0  0  0  0  0  0  0
  -21.0890  -29.7980   21.6260 H   0  0  0  0  0  0  0  0  0  0  0  0
  -18.2070  -27.9520   22.6640 C   0  0  0  0  0  0  0  0  0  0  0  0
  -20.7650  -28.1840   22.9490 C   0  0  0  0  0  3  0  0  0  0  0  0
  -20.8660  -26.8140   22.2390 C   0  0  0  0  0  2  0  0  0  0  0  0
  -19.7600  -26.5900   21.2030 C   0  0  0  0  0  2  0  0  0  0  0  0
  -18.3810  -26.6720   21.8630 C   0  0  0  0  0  2  0  0  0  0  0  0
  -19.3270  -28.6690   23.1610 C   0  0  0  0  0  0  0  0  0  0  0  0
  -19.1130  -29.8700   23.8720 C   0  0  0  0  0  3  0  0  0  0  0  0
  -17.8100  -30.3550   24.0890 C   0  0  0  0  0  3  0  0  0  0  0  0
  -16.7040  -29.6350   23.6080 C   0  0  0  0  0  3  0  0  0  0  0  0
  -16.9020  -28.4350   22.9020 C   0  0  0  0  0  3  0  0  0  0  0  0
  -25.7830  -32.5190   24.0700 C   0  0  0  0  0  3  0  0  0  0  0  0
  -25.4430  -33.9290   24.2940 N   0  0  0  0  0  0  0  0  0  0  0  0
  -25.8680  -34.9450   23.5280 C   0  0  0  0  0  0  0  0  0  0  0  0
  -26.6540  -34.7910   22.5890 O   0  0  0  0  0  0  0  0  0  0  0  0
  -24.7520  -34.1210   25.0040 H   0  0  0  0  0  0  0  0  0  0  0  0
  -24.1940  -36.7110   22.8910 C   0  0  0  0  0  1  0  0  0  0  0  0
  -25.3350  -36.3520   23.8560 C   0  0  0  0  0  3  0  0  0  0  0  0
  -27.3680  -37.2810   24.8730 C   0  0  0  0  0  1  0  0  0  0  0  0
  -26.3770  -37.4010   23.8070 N   0  0  0  0  0  0  0  0  0  0  0  0
  -25.9610  -38.3260   23.8650 H   0  0  0  0  0  0  0  0  0  0  0  0
  -26.1550  -31.8090   25.4310 C   0  0  1  0  0  0  0  0  0  0  0  0
  -24.9510  -31.6280   26.3850 C   0  0  0  0  0  1  0  0  0  0  0  0
  -26.7650  -30.4110   25.1710 C   0  0  0  0  0  1  0  0  0  0  0  0
  -27.2360  -32.6310   26.1690 C   0  0  0  0  0  1  0  0  0  0  0  0
  1  5  1  0
  2  1  2  0
  2  3  1  0
  3  4  2  0
  5  4  1  0
  5  7  1  0
  7  6  1  0
  8  7  1  0
  9 14  1  0
 10 11  1  0
 10  9  1  0
 12 11  1  0
 12 19  1  0
 12 13  1  0
 14  8  1  0
 14 13  1  0
 15  8  2  0
 16 17  2  0
 17 18  1  0
 17 36  1  0
 18 21  1  0
 19 16  1  0
 19 20  1  0
 20 18  2  0
 21 22  1  0
 22 23  2  0
 24 27  1  0
 24 23  1  0
 25 24  2  0
 26 25  1  0
 26 21  2  0
 27 28  1  0
 28 29  1  0
 29 30  2  0
 31 30  1  0
 31 35  1  0
 32 31  2  0
 33 28  2  0
 33 32  1  0
 34 33  1  0
 36 37  1  0
 37 40  1  0
 37 39  1  0
 38 36  2  0
 41 42  1  0
 41 16  1  0
 43 41  1  0
 44 50  1  0
 44  2  1  0
 45 46  1  0
 44 46  1  6
 47 48  1  0
 48 44  1  0
 50 49  1  0
 50 51  1  0
 51 52  1  0
 52 54  1  0
 54 53  1  0
 54 55  1  1
 56 58  1  0
 57 58  1  0
 58 54  1  0
 59  3  1  0
 59 60  1  0
 62 61  1  0
 62 60  1  0
 63 62  1  0
 63 64  1  0
 65 64  1  0
 65 66  1  0
 67 78  2  0
 68 66  1  0
 68 73  1  0
 69 77  1  0
 69 79  1  0
 70 76  1  0
 70 72  1  0
 71 77  1  0
 72 73  2  0
 72 71  1  0
 74 68  2  0
 75 74  1  0
 75 70  2  0
 76 69  1  0
 77 67  1  0
 79 81  2  0
 80 79  1  0
 82 80  1  0
 83 92  2  0
 83 88  1  0
 84 80  1  0
 84 88  1  0
 85 84  1  0
 86 87  1  0
 86 85  1  0
 87 83  1  0
 88 89  2  0
 89 90  1  0
 91 90  2  0
 92 91  1  0
 93 67  1  0
 93 94  1  0
 93103  1  0
 94 97  1  0
 95 99  1  0
 95 94  1  0
 96 95  2  0
 99 98  1  0
101 99  1  0
101102  1  0
101100  1  0
103106  1  1
103104  1  0
105103  1  0
M  ISO  4   7 100   8 100  65 101  66 101
M  END
>  <TORSDO>  (23) 
F 31

>  <SCORE>  (23) 
-10.249

>  <name>  (23) 
23

>  <ligand_id>  (23) 
23

>  <original_smiles>  (23) 
[H]c1c([H])c([H])c2c(c1[H])C([H])([H])C([H])([H])C([H])([H])C2([H])N([H])C(=O)C1([H])N(C(=O)C([H])(N([H])C(=O)C([H])(N([H])C([H])([H])[H])C([H])([H])[H])C(C([H])([H])[H])(C([H])([H])[H])C([H])([H])[H])C([H])([H])c2c([H])c(OC([H])([H])C([H])([H])C([H])([H])C([H])(C([H])([H])[H])C([H])([H])C([H])([H])c3nn(C([H])(C(=O)N4C([H])([H])C([H])([H])C([H])([H])C([H])(n5nc(-c6c([H])c([H])c(Oc7c([H])c([H])c(F)c([H])c7F)c([H])c6[H])c(C(=O)N([H])[H])c5N([H])[H])C4([H])[H])C([H])([H])[H])c([H])c3C(C([H])([H])C([H])([H])[H])(C([H])([H])C([H])([H])[H])C([H])(C([H])([H])[H])C([H])([H])C([H])([H])[N+]([H])(C([H])([H])[H])C([H])(C([H])([H])[H])C([H])([H])[H])c([H])c([H])c2C1([H])[H]

>  <smiles>  (23) 
[H]c1c([H])c([H])c2c(c1[H])C([H])([H])C([H])([H])C([H])([H])C2([H])N([H])C(=O)C1([H])N(C(=O)C([H])(N([H])C(=O)C([H])(N([H])C([H])([H])[H])C([H])([H])[H])C(C([H])([H])[H])(C([H])([H])[H])C([H])([H])[H])C([H])([H])c2c([H])c(OC([H])([H])C([H])([H])C([H])([H])C([H])(C([H])([H])[H])C([H])([H])C([H])([H])c3nn(C([H])(C(=O)N4C([H])([H])C([H])([H])C([H])([H])C([H])(n5nc(-c6c([H])c([H])c(Oc7c([H])c([H])c(F)c([H])c7F)c([H])c6[H])c(C(=O)N([H])[H])c5N([H])[H])C4([H])[H])C([H])([H])[H])c([H])c3C(C([H])([H])C([H])([H])[H])(C([H])([H])C([H])([H])[H])C([H])(C([H])([H])[H])C([H])([H])C([H])([H])[N+]([H])(C([H])([H])[H])C([H])(C([H])([H])[H])C([H])([H])[H])c([H])c([H])c2C1([H])[H]

$$$$
24:0:0
     RDKit          3D

108116  0  0  1  0  0  0  0  0999 V2000
  -28.4040  -16.5720   20.2720 C   0  0  0  0  0  3  0  0  0  0  0  0
  -29.7110  -16.3370   20.6970 C   0  0  0  0  0  0  0  0  0  0  0  0
  -28.8760  -18.8050   19.7940 C   0  0  0  0  0  0  0  0  0  0  0  0
  -30.1680  -18.6800   20.4450 C   0  0  0  0  0  0  0  0  0  0  0  0
  -27.9900  -17.7750   19.8460 N   0  0  0  0  0  0  0  0  0  0  0  0
  -30.5310  -17.4160   20.8690 N   0  0  0  0  0  0  0  0  0  0  0  0
  -32.6220  -18.9790   20.7250 C   0  0  0  0  0  1  0  0  0  0  0  0
  -31.5680  -20.8200   19.6070 C   0  0  0  0  0  1  0  0  0  0  0  0
  -31.2840  -19.8010   20.7490 C   0  0  1  0  0  0  0  0  0  0  0  0
  -32.4980  -21.2740   22.6010 C   0  0  0  0  0  1  0  0  0  0  0  0
  -30.7600  -19.6280   23.2970 C   0  0  0  0  0  1  0  0  0  0  0  0
  -31.1490  -20.6130   22.1730 C   0  0  2  0  0  0  0  0  0  0  0  0
  -30.1050  -21.8230   22.2280 C   0  0  0  0  0  3  0  0  0  0  0  0
  -30.4480  -23.1030   23.1000 C   0  0  0  0  0  3  0  0  0  0  0  0
  -29.2560  -24.0750   23.3880 C   0  0  0  0  0  2  0  0  0  0  0  0
  -29.5370  -25.5080   23.5040 O   0  0  0  0  0  0  0  0  0  0  0  0
  -27.9530  -31.8380   26.5290 C   0  0  0  0  0  0  0  0  0  0  0  0
  -28.5850  -26.2970   24.1550 C   0  0  0  0  0  0  0  0  0  0  0  0
  -26.4660  -29.9450   27.0840 C   0  0  0  0  0  3  0  0  0  0  0  0
  -26.7170  -27.8650   25.6290 C   0  0  0  0  0  0  0  0  0  0  0  0
  -27.7000  -30.0150   24.8380 C   0  0  0  0  0  2  0  0  0  0  0  0
  -27.6920  -28.4980   24.8460 C   0  0  0  0  0  0  0  0  0  0  0  0
  -28.6230  -27.7210   24.1040 C   0  0  0  0  0  3  0  0  0  0  0  0
  -27.5520  -25.7030   24.9160 C   0  0  0  0  0  3  0  0  0  0  0  0
  -26.6380  -26.4690   25.6560 C   0  0  0  0  0  3  0  0  0  0  0  0
  -25.7640  -28.7380   26.4090 C   0  0  0  0  0  2  0  0  0  0  0  0
  -27.4210  -30.6370   26.1590 N   0  0  0  0  0  0  0  0  0  0  0  0
  -27.6370  -32.3800   27.5970 O   0  0  0  0  0  0  0  0  0  0  0  0
  -27.1260  -29.4680   28.4000 C   0  0  0  0  0  0  0  0  0  0  0  0
  -26.3640  -29.5220   29.5070 N   0  0  0  0  0  0  0  0  0  0  0  0
  -28.2870  -29.0470   28.4090 O   0  0  0  0  0  0  0  0  0  0  0  0
  -25.4220  -29.8800   29.4160 H   0  0  0  0  0  0  0  0  0  0  0  0
  -25.3570  -29.4710   32.9790 C   0  0  0  0  0  0  0  0  0  0  0  0
  -26.7650  -29.0900   30.8470 C   0  0  0  0  0  3  0  0  0  0  0  0
  -26.4830  -27.5830   31.0520 C   0  0  0  0  0  2  0  0  0  0  0  0
  -25.1190  -27.3080   31.6900 C   0  0  0  0  0  2  0  0  0  0  0  0
  -25.0130  -27.9940   33.0550 C   0  0  0  0  0  2  0  0  0  0  0  0
  -26.1660  -29.9890   31.9340 C   0  0  0  0  0  0  0  0  0  0  0  0
  -26.4280  -31.3760   31.8920 C   0  0  0  0  0  3  0  0  0  0  0  0
  -25.8970  -32.2380   32.8700 C   0  0  0  0  0  3  0  0  0  0  0  0
  -25.1110  -31.7170   33.9130 C   0  0  0  0  0  3  0  0  0  0  0  0
  -24.8490  -30.3380   33.9700 C   0  0  0  0  0  3  0  0  0  0  0  0
  -28.9650  -32.5980   25.6180 C   0  0  0  0  0  3  0  0  0  0  0  0
  -30.4510  -32.5330   26.1460 C   0  0  1  0  0  0  0  0  0  0  0  0
  -30.5930  -32.8480   27.6540 C   0  0  0  0  0  1  0  0  0  0  0  0
  -31.0580  -31.1310   25.9040 C   0  0  0  0  0  1  0  0  0  0  0  0
  -31.3320  -33.5290   25.3530 C   0  0  0  0  0  1  0  0  0  0  0  0
  -28.5120  -33.9920   25.5190 N   0  0  0  0  0  0  0  0  0  0  0  0
  -27.8820  -34.5160   24.4600 C   0  0  0  0  0  0  0  0  0  0  0  0
  -27.6840  -33.8800   23.4200 O   0  0  0  0  0  0  0  0  0  0  0  0
  -28.6040  -34.5530   26.3520 H   0  0  0  0  0  0  0  0  0  0  0  0
  -25.8810  -35.9910   24.8270 C   0  0  0  0  0  1  0  0  0  0  0  0
  -27.3960  -35.9730   24.5670 C   0  0  0  0  0  3  0  0  0  0  0  0
  -29.1370  -37.0450   23.2110 C   0  0  0  0  0  1  0  0  0  0  0  0
  -27.7090  -36.7900   23.3740 N   0  0  0  0  0  0  0  0  0  0  0  0
  -27.2290  -37.6860   23.4120 H   0  0  0  0  0  0  0  0  0  0  0  0
  -29.4500  -14.2570   22.1790 C   0  0  0  0  0  1  0  0  0  0  0  0
  -30.2010  -14.8730   20.9570 C   0  0  1  0  0  0  0  0  0  0  0  0
  -30.1020  -14.0050   19.6190 C   0  0  0  0  0  0  0  0  0  0  0  0
  -29.1570  -12.4380   17.9340 C   0  0  0  0  0  2  0  0  0  0  0  0
  -27.9840  -13.0640   17.1580 C   0  0  0  0  0  2  0  0  0  0  0  0
  -26.6560  -12.7760   17.8780 C   0  0  0  0  0  2  0  0  0  0  0  0
  -26.7340  -13.1030   19.3880 C   0  0  0  0  0  3  0  0  0  0  0  0
  -28.0180  -12.5360   20.0410 C   0  0  0  0  0  2  0  0  0  0  0  0
  -29.1920  -13.0200   19.2960 N   0  0  0  0  0  0  0  0  0  0  0  0
  -30.9640  -14.2870   18.7810 O   0  0  0  0  0  0  0  0  0  0  0  0
  -24.5150  -13.4740   20.6330 C   0  0  0  0  0  0  0  0  0  0  0  0
  -23.6090  -12.5960   21.1690 C   0  0  0  0  0  0  0  0  0  0  0  0
  -24.1340  -11.2940   20.9260 C   0  0  0  0  0  0  0  0  0  0  0  0
  -25.5360  -12.6930   20.1110 N   0  0  0  0  0  0  0  0  0  0  0  0
  -25.3260  -11.3740   20.3480 N   0  0  0  0  0  0  0  0  0  0  0  0
  -23.5450   -9.9700   21.1510 C   0  0  0  0  0  0  0  0  0  0  0  0
  -24.1210   -9.0470   22.0500 C   0  0  0  0  0  3  0  0  0  0  0  0
  -23.5240   -7.7870   22.2650 C   0  0  0  0  0  3  0  0  0  0  0  0
  -22.3340   -7.4420   21.5820 C   0  0  0  0  0  0  0  0  0  0  0  0
  -21.7710   -8.3570   20.6770 C   0  0  0  0  0  3  0  0  0  0  0  0
  -22.3710   -9.6100   20.4600 C   0  0  0  0  0  3  0  0  0  0  0  0
  -21.7030   -6.2280   21.7030 O   0  0  0  0  0  0  0  0  0  0  0  0
  -21.6890   -5.5430   22.8910 C   0  0  0  0  0  0  0  0  0  0  0  0
  -21.1690   -6.1130   24.0720 C   0  0  0  0  0  3  0  0  0  0  0  0
  -21.1140   -5.3530   25.2570 C   0  0  0  0  0  3  0  0  0  0  0  0
  -21.5650   -4.0180   25.2590 C   0  0  0  0  0  0  0  0  0  0  0  0
  -22.0800   -3.4480   24.0810 C   0  0  0  0  0  3  0  0  0  0  0  0
  -22.1380   -4.2080   22.9000 C   0  0  0  0  0  0  0  0  0  0  0  0
  -22.6150   -3.6490   21.7620 F   0  0  0  0  0  0  0  0  0  0  0  0
  -21.5040   -3.2830   26.3930 F   0  0  0  0  0  0  0  0  0  0  0  0
  -22.2770  -12.9510   21.7680 C   0  0  0  0  0  0  0  0  0  0  0  0
  -21.8210  -12.1810   22.7540 N   0  0  0  0  0  0  0  0  0  0  0  0
  -21.6530  -13.9400   21.3970 O   0  0  0  0  0  0  0  0  0  0  0  0
  -22.3460  -11.3850   23.0880 H   0  0  0  0  0  0  0  0  0  0  0  0
  -20.9280  -12.3950   23.1820 H   0  0  0  0  0  0  0  0  0  0  0  0
  -24.5170  -14.8540   20.5270 N   0  0  0  0  0  0  0  0  0  0  0  0
  -23.7000  -15.3800   20.8180 H   0  0  0  0  0  0  0  0  0  0  0  0
  -25.0930  -15.3700   19.8700 H   0  0  0  0  0  0  0  0  0  0  0  0
  -31.7060  -14.9520   21.4250 C   0  0  0  0  0  2  0  0  0  0  0  0
  -32.4470  -13.6720   21.4630 N   0  0  0  0  0  4  0  0  0  0  0  0
  -31.9130  -12.9200   21.8510 H   0  0  0  0  0  0  0  0  0  0  0  0
  -33.2760  -13.7870   22.0190 H   0  0  0  0  0  0  0  0  0  0  0  0
  -32.7380  -13.4210   20.5320 H   0  0  0  0  0  0  0  0  0  0  0  0
  -28.2830  -19.9950   19.0030 C   0  0  0  0  0  2  0  0  0  0  0  0
  -27.2260  -18.5240   17.0720 C   0  0  0  0  0  1  0  0  0  0  0  0
  -28.0080  -19.8320   17.4250 C   0  0  2  0  0  0  0  0  0  0  0  0
  -29.0760  -19.5540   15.0330 C   0  0  0  0  0  1  0  0  0  0  0  0
  -30.3530  -18.7790   16.9690 C   0  0  0  0  0  1  0  0  0  0  0  0
  -30.0290  -21.2340   16.5790 C   0  0  0  0  0  1  0  0  0  0  0  0
  -29.3330  -19.8540   16.5360 C   0  0  2  0  0  0  0  0  0  0  0  0
  -25.6090  -20.9930   17.5500 C   0  0  0  0  0  1  0  0  0  0  0  0
  -27.0550  -21.0060   17.0030 C   0  0  0  0  0  2  0  0  0  0  0  0
  1  2  1  0
  2  6  2  0
  2 58  1  0
  3  5  1  0
  3  4  2  0
  4  9  1  0
  4  6  1  0
  5  1  2  0
  9  7  1  1
  8  9  1  0
  9 12  1  0
 12 13  1  0
 12 10  1  1
 12 11  1  0
 13 14  2  0
 14 15  1  0
 15 16  1  0
 16 18  1  0
 17 28  2  0
 18 24  1  0
 19 29  1  0
 20 25  1  0
 20 26  1  0
 21 22  1  0
 21 27  1  0
 22 20  2  0
 23 18  2  0
 23 22  1  0
 24 25  2  0
 26 19  1  0
 27 17  1  0
 27 19  1  0
 29 31  2  0
 29 30  1  0
 32 30  1  0
 33 37  1  0
 33 42  1  0
 34 30  1  0
 34 35  1  0
 34 38  1  0
 35 36  1  0
 36 37  1  0
 38 33  2  0
 39 38  1  0
 39 40  2  0
 40 41  1  0
 41 42  2  0
 43 44  1  0
 43 17  1  0
 44 45  1  1
 46 44  1  0
 47 44  1  0
 48 43  1  0
 48 51  1  0
 49 53  1  0
 49 48  1  0
 50 49  2  0
 53 52  1  0
 54 55  1  0
 55 56  1  0
 55 53  1  0
 58 95  1  0
 58 57  1  1
 59 58  1  0
 60 65  1  0
 61 62  1  0
 61 60  1  0
 63 62  1  0
 63 64  1  0
 63 70  1  0
 65 59  1  0
 65 64  1  0
 66 59  2  0
 67 68  2  0
 68 87  1  0
 69 72  1  0
 69 68  1  0
 70 71  1  0
 70 67  1  0
 71 69  2  0
 72 73  1  0
 73 74  2  0
 75 78  1  0
 75 74  1  0
 76 75  2  0
 77 76  1  0
 77 72  2  0
 78 79  1  0
 79 84  2  0
 79 80  1  0
 80 81  2  0
 81 82  1  0
 82 86  1  0
 83 82  2  0
 84 83  1  0
 85 84  1  0
 87 88  1  0
 88 90  1  0
 88 91  1  0
 89 87  2  0
 92 67  1  0
 92 93  1  0
 94 92  1  0
 95 96  1  0
 96 97  1  0
 96 98  1  0
 99 96  1  0
100  3  1  0
102101  1  1
102100  1  0
106103  1  6
106105  1  0
106104  1  0
106102  1  0
108102  1  0
108107  1  0
M  ISO  4  15 101  16 101  58 100  59 100
M  END
>  <TORSDO>  (24) 
F 28

>  <SCORE>  (24) 
-5.101

>  <name>  (24) 
24

>  <ligand_id>  (24) 
24

>  <original_smiles>  (24) 
[H]c1nc(C([H])([H])C(C([H])([H])[H])(C([H])([H])C([H])([H])[H])C(C([H])([H])[H])(C([H])([H])[H])C([H])([H])[H])c(C(C([H])([H])[H])(C([H])([H])[H])C(C([H])([H])[H])(C([H])([H])[H])C([H])([H])C([H])([H])C([H])([H])Oc2c([H])c([H])c3c(c2[H])C([H])([H])N(C(=O)C([H])(N([H])C(=O)C([H])(N([H])C([H])([H])[H])C([H])([H])[H])C(C([H])([H])[H])(C([H])([H])[H])C([H])([H])[H])C([H])(C(=O)N([H])C2([H])c4c([H])c([H])c([H])c([H])c4C([H])([H])C([H])([H])C2([H])[H])C3([H])[H])nc1C(C(=O)N1C([H])([H])C([H])([H])C([H])([H])C([H])(n2nc(-c3c([H])c([H])c(Oc4c([H])c([H])c(F)c([H])c4F)c([H])c3[H])c(C(=O)N([H])[H])c2N([H])[H])C1([H])[H])(C([H])([H])[H])C([H])([H])[N+]([H])([H])[H]

>  <smiles>  (24) 
[H]c1nc(C([H])([H])C(C([H])([H])[H])(C([H])([H])C([H])([H])[H])C(C([H])([H])[H])(C([H])([H])[H])C([H])([H])[H])c(C(C([H])([H])[H])(C([H])([H])[H])C(C([H])([H])[H])(C([H])([H])[H])C([H])([H])C([H])([H])C([H])([H])Oc2c([H])c([H])c3c(c2[H])C([H])([H])N(C(=O)C([H])(N([H])C(=O)C([H])(N([H])C([H])([H])[H])C([H])([H])[H])C(C([H])([H])[H])(C([H])([H])[H])C([H])([H])[H])C([H])(C(=O)N([H])C2([H])c4c([H])c([H])c([H])c([H])c4C([H])([H])C([H])([H])C2([H])[H])C3([H])[H])nc1C(C(=O)N1C([H])([H])C([H])([H])C([H])([H])C([H])(n2nc(-c3c([H])c([H])c(Oc4c([H])c([H])c(F)c([H])c4F)c([H])c3[H])c(C(=O)N([H])[H])c2N([H])[H])C1([H])[H])(C([H])([H])[H])C([H])([H])[N+]([H])([H])[H]

$$$$
25:0:0
     RDKit          3D

 98106  0  0  1  0  0  0  0  0999 V2000
  -29.7910  -18.6490   20.4200 C   0  0  0  0  0  0  0  0  0  0  0  0
  -29.2980  -20.8160   20.2910 C   0  0  0  0  0  3  0  0  0  0  0  0
  -29.9510  -19.8760   21.0450 N   0  0  0  0  0  0  0  0  0  0  0  0
  -29.0540  -18.7730   19.3300 N   0  0  0  0  0  2  0  0  0  0  0  0
  -28.7170  -20.1210   19.2440 N   0  0  0  0  0  0  0  0  0  0  0  0
  -28.9110  -21.2550   17.0670 C   0  0  0  0  0  1  0  0  0  0  0  0
  -26.6550  -21.2370   18.3430 C   0  0  0  0  0  1  0  0  0  0  0  0
  -27.4780  -19.2430   17.2190 C   0  0  0  0  0  1  0  0  0  0  0  0
  -27.9650  -20.4910   18.0160 C   0  0  2  0  0  0  0  0  0  0  0  0
  -30.5400  -17.2110   22.3480 C   0  0  0  0  0  1  0  0  0  0  0  0
  -32.0610  -17.6020   20.3990 C   0  0  0  0  0  1  0  0  0  0  0  0
  -30.5940  -17.3320   20.8100 C   0  0  2  0  0  0  0  0  0  0  0  0
  -30.8140  -14.7750   19.9930 C   0  0  0  0  0  0  0  0  0  0  0  0
  -30.4900  -12.5130   18.9610 C   0  0  0  0  0  2  0  0  0  0  0  0
  -29.4790  -12.5830   17.7980 C   0  0  0  0  0  2  0  0  0  0  0  0
  -28.0390  -12.4240   18.3220 C   0  0  0  0  0  2  0  0  0  0  0  0
  -27.7490  -13.3180   19.5570 C   0  0  0  0  0  3  0  0  0  0  0  0
  -28.8770  -13.2400   20.6090 C   0  0  0  0  0  2  0  0  0  0  0  0
  -30.1300  -13.5810   19.9250 N   0  0  0  0  0  0  0  0  0  0  0  0
  -31.9840  -14.8040   19.6060 O   0  0  0  0  0  0  0  0  0  0  0  0
  -30.1300  -15.9410   20.3310 N   0  0  0  0  0  0  0  0  0  0  0  0
  -29.1340  -15.8150   20.4240 H   0  0  0  0  0  0  0  0  0  0  0  0
  -25.4330  -13.9280   20.4690 C   0  0  0  0  0  0  0  0  0  0  0  0
  -24.3770  -13.1630   20.8840 C   0  0  0  0  0  0  0  0  0  0  0  0
  -24.8080  -11.8050   20.7780 C   0  0  0  0  0  0  0  0  0  0  0  0
  -26.4380  -13.0370   20.1330 N   0  0  0  0  0  0  0  0  0  0  0  0
  -26.0740  -11.7530   20.3830 N   0  0  0  0  0  0  0  0  0  0  0  0
  -24.0670  -10.5520   20.9750 C   0  0  0  0  0  0  0  0  0  0  0  0
  -24.5080   -9.5660   21.8850 C   0  0  0  0  0  3  0  0  0  0  0  0
  -23.7670   -8.3790   22.0690 C   0  0  0  0  0  3  0  0  0  0  0  0
  -22.5690   -8.1690   21.3450 C   0  0  0  0  0  0  0  0  0  0  0  0
  -22.1480   -9.1440   20.4230 C   0  0  0  0  0  3  0  0  0  0  0  0
  -22.8900  -10.3210   20.2360 C   0  0  0  0  0  3  0  0  0  0  0  0
  -21.7990   -7.0360   21.4410 O   0  0  0  0  0  0  0  0  0  0  0  0
  -21.7340   -6.3050   22.6000 C   0  0  0  0  0  0  0  0  0  0  0  0
  -21.2410   -6.8570   23.8030 C   0  0  0  0  0  3  0  0  0  0  0  0
  -21.1280   -6.0510   24.9540 C   0  0  0  0  0  3  0  0  0  0  0  0
  -21.4970   -4.6940   24.9010 C   0  0  0  0  0  0  0  0  0  0  0  0
  -21.9810   -4.1410   23.7030 C   0  0  0  0  0  3  0  0  0  0  0  0
  -22.0970   -4.9440   22.5550 C   0  0  0  0  0  0  0  0  0  0  0  0
  -22.5450   -4.4000   21.3980 F   0  0  0  0  0  0  0  0  0  0  0  0
  -21.3800   -3.9170   26.0030 F   0  0  0  0  0  0  0  0  0  0  0  0
  -23.0130  -13.6590   21.2600 C   0  0  0  0  0  0  0  0  0  0  0  0
  -22.3250  -12.9470   22.1470 N   0  0  0  0  0  0  0  0  0  0  0  0
  -22.5670  -14.7130   20.8080 O   0  0  0  0  0  0  0  0  0  0  0  0
  -22.7000  -12.0940   22.5360 H   0  0  0  0  0  0  0  0  0  0  0  0
  -21.4110  -13.2610   22.4420 H   0  0  0  0  0  0  0  0  0  0  0  0
  -25.6120  -15.3000   20.3240 N   0  0  0  0  0  0  0  0  0  0  0  0
  -24.8600  -15.9580   20.4970 H   0  0  0  0  0  0  0  0  0  0  0  0
  -26.4300  -15.7370   19.9160 H   0  0  0  0  0  0  0  0  0  0  0  0
  -29.2940  -22.4620   22.1940 C   0  0  0  0  0  1  0  0  0  0  0  0
  -29.4790  -22.4160   20.6490 C   0  0  1  0  0  0  0  0  0  0  0  0
  -32.1240  -21.9820   20.7600 C   0  0  0  0  0  1  0  0  0  0  0  0
  -30.9440  -22.8620   20.3140 C   0  0  0  0  0  2  0  0  0  0  0  0
  -28.8860  -24.2270   18.7130 C   0  0  0  0  0  1  0  0  0  0  0  0
  -28.5420  -23.7030   20.1270 C   0  0  0  0  0  3  0  0  0  0  0  0
  -28.4480  -25.0900   20.9970 C   0  0  0  0  0  2  0  0  0  0  0  0
  -28.4770  -26.4660   20.3990 O   0  0  0  0  0  0  0  0  0  0  0  0
  -24.6430  -31.9400   23.2260 C   0  0  0  0  0  0  0  0  0  0  0  0
  -27.3390  -27.2890   20.3880 C   0  0  0  0  0  0  0  0  0  0  0  0
  -23.4750  -30.4780   21.6120 C   0  0  0  0  0  3  0  0  0  0  0  0
  -24.9620  -28.8850   20.2660 C   0  0  0  0  0  0  0  0  0  0  0  0
  -26.0130  -30.8140   21.4550 C   0  0  0  0  0  2  0  0  0  0  0  0
  -26.1180  -29.4100   20.8600 C   0  0  0  0  0  0  0  0  0  0  0  0
  -27.3130  -28.6290   20.9000 C   0  0  0  0  0  3  0  0  0  0  0  0
  -26.1620  -26.8120   19.7800 C   0  0  0  0  0  3  0  0  0  0  0  0
  -24.9880  -27.5920   19.7130 C   0  0  0  0  0  3  0  0  0  0  0  0
  -23.7180  -29.7530   20.2600 C   0  0  0  0  0  2  0  0  0  0  0  0
  -24.7270  -31.0980   22.1530 N   0  0  0  0  0  0  0  0  0  0  0  0
  -23.5490  -32.2250   23.7380 O   0  0  0  0  0  0  0  0  0  0  0  0
  -22.8050  -29.4910   22.5980 C   0  0  0  0  0  0  0  0  0  0  0  0
  -21.4820  -29.3060   22.4630 N   0  0  0  0  0  0  0  0  0  0  0  0
  -23.4770  -28.8900   23.4400 O   0  0  0  0  0  0  0  0  0  0  0  0
  -21.0010  -29.8400   21.7540 H   0  0  0  0  0  0  0  0  0  0  0  0
  -18.0980  -28.1370   22.9860 C   0  0  0  0  0  0  0  0  0  0  0  0
  -20.6570  -28.3860   23.2520 C   0  0  0  0  0  3  0  0  0  0  0  0
  -20.7520  -26.9440   22.7030 C   0  0  0  0  0  2  0  0  0  0  0  0
  -19.6480  -26.6100   21.6950 C   0  0  0  0  0  2  0  0  0  0  0  0
  -18.2680  -26.7740   22.3370 C   0  0  0  0  0  2  0  0  0  0  0  0
  -19.2210  -28.9010   23.4020 C   0  0  0  0  0  0  0  0  0  0  0  0
  -19.0120  -30.1750   23.9720 C   0  0  0  0  0  3  0  0  0  0  0  0
  -17.7100  -30.6870   24.1310 C   0  0  0  0  0  3  0  0  0  0  0  0
  -16.6010  -29.9200   23.7320 C   0  0  0  0  0  3  0  0  0  0  0  0
  -16.7960  -28.6480   23.1650 C   0  0  0  0  0  3  0  0  0  0  0  0
  -25.9100  -32.6020   23.8470 C   0  0  0  0  0  3  0  0  0  0  0  0
  -25.5710  -33.9950   24.1730 N   0  0  0  0  0  0  0  0  0  0  0  0
  -25.8780  -35.0530   23.4120 C   0  0  0  0  0  0  0  0  0  0  0  0
  -26.5460  -34.9610   22.3780 O   0  0  0  0  0  0  0  0  0  0  0  0
  -24.9790  -34.1400   24.9770 H   0  0  0  0  0  0  0  0  0  0  0  0
  -24.1200  -36.8120   23.0460 C   0  0  0  0  0  1  0  0  0  0  0  0
  -25.3630  -36.4320   23.8670 C   0  0  0  0  0  3  0  0  0  0  0  0
  -27.4670  -37.3630   24.7220 C   0  0  0  0  0  1  0  0  0  0  0  0
  -26.3760  -37.5050   23.7620 N   0  0  0  0  0  0  0  0  0  0  0  0
  -25.9500  -38.4180   23.8990 H   0  0  0  0  0  0  0  0  0  0  0  0
  -26.4400  -31.8500   25.1300 C   0  0  1  0  0  0  0  0  0  0  0  0
  -25.3460  -31.5830   26.1880 C   0  0  0  0  0  1  0  0  0  0  0  0
  -27.0680  -30.4900   24.7450 C   0  0  0  0  0  1  0  0  0  0  0  0
  -27.5610  -32.6790   25.7980 C   0  0  0  0  0  1  0  0  0  0  0  0
  1 12  1  0
  1  3  2  0
  2 52  1  0
  2  3  1  0
  4  1  1  0
  5  4  1  0
  5  2  1  0
  9  6  1  6
  8  9  1  0
  9  7  1  0
  9  5  1  0
 12 11  1  1
 12 10  1  0
 13 21  1  0
 14 19  1  0
 15 16  1  0
 15 14  1  0
 17 16  1  0
 17 26  1  0
 17 18  1  0
 19 13  1  0
 19 18  1  0
 20 13  2  0
 21 22  1  0
 21 12  1  0
 23 24  2  0
 24 43  1  0
 25 24  1  0
 25 28  1  0
 26 27  1  0
 26 23  1  0
 27 25  2  0
 28 29  1  0
 29 30  2  0
 31 34  1  0
 31 30  1  0
 32 31  2  0
 33 32  1  0
 33 28  2  0
 34 35  1  0
 35 36  1  0
 36 37  2  0
 38 37  1  0
 38 42  1  0
 39 38  2  0
 40 35  2  0
 40 39  1  0
 41 40  1  0
 43 44  1  0
 44 47  1  0
 44 46  1  0
 45 43  2  0
 48 23  1  0
 48 49  1  0
 50 48  1  0
 52 51  1  1
 54 52  1  0
 54 53  1  0
 56 55  1  0
 56 52  1  0
 56 57  1  0
 58 57  1  0
 59 70  2  0
 60 58  1  0
 60 65  1  0
 61 69  1  0
 61 71  1  0
 62 64  1  0
 63 69  1  0
 64 65  2  0
 64 63  1  0
 66 60  2  0
 67 66  1  0
 67 62  2  0
 68 62  1  0
 68 61  1  0
 69 59  1  0
 71 73  2  0
 72 71  1  0
 74 72  1  0
 75 84  2  0
 75 80  1  0
 76 72  1  0
 76 80  1  0
 77 76  1  0
 78 79  1  0
 78 77  1  0
 79 75  1  0
 80 81  2  0
 81 82  1  0
 83 82  2  0
 84 83  1  0
 85 59  1  0
 85 86  1  0
 85 95  1  0
 86 89  1  0
 87 91  1  0
 87 86  1  0
 88 87  2  0
 91 90  1  0
 93 91  1  0
 93 94  1  0
 93 92  1  0
 95 98  1  1
 95 96  1  0
 97 95  1  0
M  ISO  4  13 100  21 100  57 101  58 101
M  END
>  <TORSDO>  (25) 
F 22

>  <SCORE>  (25) 
-13.644

>  <name>  (25) 
25

>  <ligand_id>  (25) 
25

>  <original_smiles>  (25) 
[H]c1c([H])c([H])c2c(c1[H])C([H])([H])C([H])([H])C([H])([H])C2([H])N([H])C(=O)C1([H])N(C(=O)C([H])(N([H])C(=O)C([H])(N([H])C([H])([H])[H])C([H])([H])[H])C(C([H])([H])[H])(C([H])([H])[H])C([H])([H])[H])C([H])([H])c2c([H])c(OC([H])([H])C([H])(C([H])([H])[H])C(c3nc(C(N([H])C(=O)N4C([H])([H])C([H])([H])C([H])([H])C([H])(n5nc(-c6c([H])c([H])c(Oc7c([H])c([H])c(F)c([H])c7F)c([H])c6[H])c(C(=O)N([H])[H])c5N([H])[H])C4([H])[H])(C([H])([H])[H])C([H])([H])[H])nn3C(C([H])([H])[H])(C([H])([H])[H])C([H])([H])[H])(C([H])([H])[H])C([H])([H])C([H])([H])[H])c([H])c([H])c2C1([H])[H]

>  <smiles>  (25) 
[H]c1c([H])c([H])c2c(c1[H])C([H])([H])C([H])([H])C([H])([H])C2([H])N([H])C(=O)C1([H])N(C(=O)C([H])(N([H])C(=O)C([H])(N([H])C([H])([H])[H])C([H])([H])[H])C(C([H])([H])[H])(C([H])([H])[H])C([H])([H])[H])C([H])([H])c2c([H])c(OC([H])([H])C([H])(C([H])([H])[H])C(c3nc(C(N([H])C(=O)N4C([H])([H])C([H])([H])C([H])([H])C([H])(n5nc(-c6c([H])c([H])c(Oc7c([H])c([H])c(F)c([H])c7F)c([H])c6[H])c(C(=O)N([H])[H])c5N([H])[H])C4([H])[H])(C([H])([H])[H])C([H])([H])[H])nn3C(C([H])([H])[H])(C([H])([H])[H])C([H])([H])[H])(C([H])([H])[H])C([H])([H])C([H])([H])[H])c([H])c([H])c2C1([H])[H]

$$$$
26:0:0
     RDKit          3D

 97105  0  0  1  0  0  0  0  0999 V2000
  -28.2630  -17.0520   19.1560 C   0  0  0  0  0  3  0  0  0  0  0  0
  -29.2940  -17.5010   20.0100 C   0  0  0  0  0  0  0  0  0  0  0  0
  -27.2290  -19.1500   19.1370 C   0  0  0  0  0  0  0  0  0  0  0  0
  -28.2720  -19.7150   19.9260 C   0  0  0  0  0  0  0  0  0  0  0  0
  -27.2450  -17.8460   18.7490 N   0  0  0  0  0  0  0  0  0  0  0  0
  -29.2900  -18.8640   20.3450 N   0  0  0  0  0  0  0  0  0  0  0  0
  -26.0850  -20.4500   17.2410 C   0  0  0  0  0  1  0  0  0  0  0  0
  -25.9940  -19.9290   18.6850 C   0  0  0  0  0  2  0  0  0  0  0  0
  -31.2400  -16.9040   18.7340 C   0  0  0  0  0  1  0  0  0  0  0  0
  -30.6490  -16.6730   20.1710 C   0  0  2  0  0  0  0  0  0  0  0  0
  -30.9040  -15.0530   20.3720 C   0  0  0  0  0  0  0  0  0  0  0  0
  -30.6280  -12.6500   19.7980 C   0  0  0  0  0  2  0  0  0  0  0  0
  -29.8050  -12.4640   18.5150 C   0  0  0  0  0  2  0  0  0  0  0  0
  -28.3230  -12.2900   18.8740 C   0  0  0  0  0  2  0  0  0  0  0  0
  -27.8240  -13.3520   19.8890 C   0  0  0  0  0  3  0  0  0  0  0  0
  -28.8180  -13.6470   21.0340 C   0  0  0  0  0  2  0  0  0  0  0  0
  -30.1370  -13.9010   20.4430 N   0  0  0  0  0  0  0  0  0  0  0  0
  -32.1120  -14.8280   20.3240 O   0  0  0  0  0  0  0  0  0  0  0  0
  -25.4440  -13.9390   20.5900 C   0  0  0  0  0  0  0  0  0  0  0  0
  -24.3680  -13.1680   20.9290 C   0  0  0  0  0  0  0  0  0  0  0  0
  -24.8280  -11.8150   20.9100 C   0  0  0  0  0  0  0  0  0  0  0  0
  -26.4860  -13.0580   20.3760 N   0  0  0  0  0  0  0  0  0  0  0  0
  -26.1260  -11.7760   20.6380 N   0  0  0  0  0  0  0  0  0  0  0  0
  -24.0930  -10.5550   21.0710 C   0  0  0  0  0  0  0  0  0  0  0  0
  -24.5010   -9.5840   22.0090 C   0  0  0  0  0  3  0  0  0  0  0  0
  -23.7680   -8.3870   22.1660 C   0  0  0  0  0  3  0  0  0  0  0  0
  -22.6090   -8.1580   21.3840 C   0  0  0  0  0  0  0  0  0  0  0  0
  -22.2230   -9.1180   20.4330 C   0  0  0  0  0  3  0  0  0  0  0  0
  -22.9580  -10.3050   20.2760 C   0  0  0  0  0  3  0  0  0  0  0  0
  -21.8460   -7.0160   21.4510 O   0  0  0  0  0  0  0  0  0  0  0  0
  -21.7630   -6.2740   22.6010 C   0  0  0  0  0  0  0  0  0  0  0  0
  -21.3170   -6.8310   23.8200 C   0  0  0  0  0  3  0  0  0  0  0  0
  -21.1800   -6.0140   24.9600 C   0  0  0  0  0  3  0  0  0  0  0  0
  -21.4740   -4.6400   24.8790 C   0  0  0  0  0  0  0  0  0  0  0  0
  -21.9110   -4.0810   23.6660 C   0  0  0  0  0  3  0  0  0  0  0  0
  -22.0490   -4.8960   22.5290 C   0  0  0  0  0  0  0  0  0  0  0  0
  -22.4480   -4.3480   21.3550 F   0  0  0  0  0  0  0  0  0  0  0  0
  -21.3330   -3.8510   25.9710 F   0  0  0  0  0  0  0  0  0  0  0  0
  -22.9670  -13.6500   21.1550 C   0  0  0  0  0  0  0  0  0  0  0  0
  -22.2140  -12.9620   22.0060 N   0  0  0  0  0  0  0  0  0  0  0  0
  -22.5440  -14.6680   20.6090 O   0  0  0  0  0  0  0  0  0  0  0  0
  -22.5700  -12.1360   22.4640 H   0  0  0  0  0  0  0  0  0  0  0  0
  -21.2670  -13.2590   22.1950 H   0  0  0  0  0  0  0  0  0  0  0  0
  -25.6110  -15.3110   20.4120 N   0  0  0  0  0  0  0  0  0  0  0  0
  -24.8390  -15.9630   20.4890 H   0  0  0  0  0  0  0  0  0  0  0  0
  -26.4580  -15.7530   20.0810 H   0  0  0  0  0  0  0  0  0  0  0  0
  -31.5330  -17.3820   21.2710 C   0  0  0  0  0  3  0  0  0  0  0  0
  -32.4480  -18.5380   20.7630 C   0  0  0  0  0  3  0  0  0  0  0  0
  -34.1910  -20.1930   21.2840 C   0  0  0  0  0  1  0  0  0  0  0  0
  -32.1300  -20.1610   22.6020 C   0  0  0  0  0  1  0  0  0  0  0  0
  -33.0920  -19.3520   21.8230 N   0  0  1  0  0  4  0  0  0  0  0  0
  -33.5340  -18.7080   22.4630 H   0  0  0  0  0  0  0  0  0  0  0  0
  -28.1970  -21.2270   20.4400 C   0  0  0  0  0  2  0  0  0  0  0  0
  -28.6260  -22.4730   19.5140 C   0  0  0  0  0  2  0  0  0  0  0  0
  -27.7910  -23.8670   19.3830 C   0  0  0  0  0  2  0  0  0  0  0  0
  -28.0820  -25.1990   20.2480 C   0  0  0  0  0  2  0  0  0  0  0  0
  -28.0920  -26.5820   19.6730 O   0  0  0  0  0  0  0  0  0  0  0  0
  -24.5780  -31.9230   23.1190 C   0  0  0  0  0  0  0  0  0  0  0  0
  -26.9780  -27.4290   19.7890 C   0  0  0  0  0  0  0  0  0  0  0  0
  -23.2750  -30.5820   21.5070 C   0  0  0  0  0  3  0  0  0  0  0  0
  -24.6300  -29.0610   19.9550 C   0  0  0  0  0  0  0  0  0  0  0  0
  -25.8010  -30.8920   21.1820 C   0  0  0  0  0  2  0  0  0  0  0  0
  -25.8350  -29.5300   20.4970 C   0  0  0  0  0  0  0  0  0  0  0  0
  -27.0140  -28.7270   20.3950 C   0  0  0  0  0  3  0  0  0  0  0  0
  -25.7530  -27.0110   19.2370 C   0  0  0  0  0  3  0  0  0  0  0  0
  -24.5920  -27.8100   19.3150 C   0  0  0  0  0  3  0  0  0  0  0  0
  -23.4050  -29.9430   20.0980 C   0  0  0  0  0  2  0  0  0  0  0  0
  -24.5750  -31.1520   21.9930 N   0  0  0  0  0  0  0  0  0  0  0  0
  -23.5270  -32.1830   23.7260 O   0  0  0  0  0  0  0  0  0  0  0  0
  -22.6660  -29.5410   22.4760 C   0  0  0  0  0  0  0  0  0  0  0  0
  -21.3390  -29.3450   22.3940 N   0  0  0  0  0  0  0  0  0  0  0  0
  -23.3830  -28.9130   23.2580 O   0  0  0  0  0  0  0  0  0  0  0  0
  -20.8200  -29.9040   21.7320 H   0  0  0  0  0  0  0  0  0  0  0  0
  -18.0090  -28.0380   22.9470 C   0  0  0  0  0  0  0  0  0  0  0  0
  -20.5630  -28.3780   23.1730 C   0  0  0  0  0  3  0  0  0  0  0  0
  -20.7020  -26.9540   22.5880 C   0  0  0  0  0  2  0  0  0  0  0  0
  -19.5920  -26.5990   21.5920 C   0  0  0  0  0  2  0  0  0  0  0  0
  -18.2160  -26.6960   22.2590 C   0  0  0  0  0  2  0  0  0  0  0  0
  -19.1110  -28.8330   23.3580 C   0  0  0  0  0  0  0  0  0  0  0  0
  -18.8610  -30.0870   23.9590 C   0  0  0  0  0  3  0  0  0  0  0  0
  -17.5430  -30.5420   24.1510 C   0  0  0  0  0  3  0  0  0  0  0  0
  -16.4580  -29.7450   23.7490 C   0  0  0  0  0  3  0  0  0  0  0  0
  -16.6920  -28.4930   23.1520 C   0  0  0  0  0  3  0  0  0  0  0  0
  -25.8980  -32.5300   23.6890 C   0  0  0  0  0  3  0  0  0  0  0  0
  -26.4740  -31.7180   24.9160 C   0  0  1  0  0  0  0  0  0  0  0  0
  -25.4390  -31.4600   26.0360 C   0  0  0  0  0  1  0  0  0  0  0  0
  -27.0130  -30.3450   24.4550 C   0  0  0  0  0  1  0  0  0  0  0  0
  -27.6680  -32.4810   25.5300 C   0  0  0  0  0  1  0  0  0  0  0  0
  -25.6170  -33.9210   24.0750 N   0  0  0  0  0  0  0  0  0  0  0  0
  -25.9270  -34.9970   23.3380 C   0  0  0  0  0  0  0  0  0  0  0  0
  -26.5460  -34.9220   22.2730 O   0  0  0  0  0  0  0  0  0  0  0  0
  -25.0610  -34.0580   24.9060 H   0  0  0  0  0  0  0  0  0  0  0  0
  -24.2000  -36.8170   23.1190 C   0  0  0  0  0  1  0  0  0  0  0  0
  -25.4700  -36.3750   23.8610 C   0  0  0  0  0  3  0  0  0  0  0  0
  -27.6490  -37.2140   24.6180 C   0  0  0  0  0  1  0  0  0  0  0  0
  -26.5070  -37.4230   23.7340 N   0  0  0  0  0  0  0  0  0  0  0  0
  -26.1180  -38.3420   23.9280 H   0  0  0  0  0  0  0  0  0  0  0  0
  1  2  1  0
  2 10  1  0
  2  6  2  0
  3  4  2  0
  4  6  1  0
  4 53  1  0
  5  3  1  0
  5  1  2  0
  7  8  1  0
  8  3  1  0
 10  9  1  6
 10 11  1  0
 10 47  1  0
 11 17  1  0
 12 17  1  0
 13 14  1  0
 13 12  1  0
 15 14  1  0
 15 22  1  0
 15 16  1  0
 17 16  1  0
 18 11  2  0
 19 20  2  0
 20 39  1  0
 21 20  1  0
 21 24  1  0
 22 19  1  0
 22 23  1  0
 23 21  2  0
 24 25  1  0
 25 26  2  0
 27 30  1  0
 27 26  1  0
 28 27  2  0
 29 28  1  0
 29 24  2  0
 30 31  1  0
 31 32  1  0
 32 33  2  0
 34 33  1  0
 34 38  1  0
 35 34  2  0
 36 31  2  0
 36 35  1  0
 37 36  1  0
 39 40  1  0
 40 43  1  0
 40 42  1  0
 41 39  2  0
 44 45  1  0
 44 19  1  0
 46 44  1  0
 48 47  2  0
 48 51  1  0
 49 51  1  0
 51 52  1  1
 51 50  1  0
 54 53  1  0
 55 54  1  0
 55 56  1  0
 57 59  1  0
 57 56  1  0
 58 69  2  0
 59 64  1  0
 60 68  1  0
 60 70  1  0
 61 67  1  0
 61 63  1  0
 62 68  1  0
 63 62  1  0
 64 63  2  0
 65 66  1  0
 65 59  2  0
 66 61  2  0
 67 60  1  0
 68 58  1  0
 70 72  2  0
 71 70  1  0
 73 71  1  0
 74 83  2  0
 74 79  1  0
 75 71  1  0
 75 79  1  0
 76 75  1  0
 77 78  1  0
 77 76  1  0
 78 74  1  0
 79 80  2  0
 80 81  1  0
 82 81  2  0
 83 82  1  0
 84 58  1  0
 84 89  1  0
 84 85  1  0
 85 88  1  1
 85 86  1  0
 87 85  1  0
 89 92  1  0
 90 94  1  0
 90 89  1  0
 91 90  2  0
 94 93  1  0
 96 94  1  0
 96 97  1  0
 96 95  1  0
M  ISO  4  10 100  11 100  56 101  57 101
M  END
>  <TORSDO>  (26) 
F 25

>  <SCORE>  (26) 
-12.098

>  <name>  (26) 
26

>  <ligand_id>  (26) 
26

>  <original_smiles>  (26) 
[H]c1nc(C([H])([H])C([H])([H])[H])c(C([H])([H])C([H])([H])C([H])([H])C([H])([H])Oc2c([H])c([H])c3c(c2[H])C([H])([H])N(C(=O)C([H])(N([H])C(=O)C([H])(N([H])C([H])([H])[H])C([H])([H])[H])C(C([H])([H])[H])(C([H])([H])[H])C([H])([H])[H])C([H])(C(=O)N([H])C2([H])c4c([H])c([H])c([H])c([H])c4C([H])([H])C([H])([H])C2([H])[H])C3([H])[H])nc1C(C(=O)N1C([H])([H])C([H])([H])C([H])([H])C([H])(n2nc(-c3c([H])c([H])c(Oc4c([H])c([H])c(F)c([H])c4F)c([H])c3[H])c(C(=O)N([H])[H])c2N([H])[H])C1([H])[H])(C([H])([H])[H])C([H])([H])C([H])([H])[N+]([H])(C([H])([H])[H])C([H])([H])[H]

>  <smiles>  (26) 
[H]c1nc(C([H])([H])C([H])([H])[H])c(C([H])([H])C([H])([H])C([H])([H])C([H])([H])Oc2c([H])c([H])c3c(c2[H])C([H])([H])N(C(=O)C([H])(N([H])C(=O)C([H])(N([H])C([H])([H])[H])C([H])([H])[H])C(C([H])([H])[H])(C([H])([H])[H])C([H])([H])[H])C([H])(C(=O)N([H])C2([H])c4c([H])c([H])c([H])c([H])c4C([H])([H])C([H])([H])C2([H])[H])C3([H])[H])nc1C(C(=O)N1C([H])([H])C([H])([H])C([H])([H])C([H])(n2nc(-c3c([H])c([H])c(Oc4c([H])c([H])c(F)c([H])c4F)c([H])c3[H])c(C(=O)N([H])[H])c2N([H])[H])C1([H])[H])(C([H])([H])[H])C([H])([H])C([H])([H])[N+]([H])(C([H])([H])[H])C([H])([H])[H]

$$$$
27:0:0
     RDKit          3D

 96104  0  0  1  0  0  0  0  0999 V2000
  -29.6240  -22.6430   19.8890 C   0  0  0  0  0  0  0  0  0  0  0  0
  -29.6500  -20.4640   19.9030 C   0  0  0  0  0  0  0  0  0  0  0  0
  -29.2620  -22.2530   18.6660 N   0  0  0  0  0  0  0  0  0  0  0  0
  -29.2510  -20.8750   18.6870 N   0  0  0  0  0  0  0  0  0  0  0  0
  -29.8390  -21.5740   20.7200 N   0  0  0  0  0  0  0  0  0  0  0  0
  -28.0100  -18.8650   20.6830 C   0  0  0  0  0  1  0  0  0  0  0  0
  -30.2470  -18.6830   21.7240 C   0  0  0  0  0  1  0  0  0  0  0  0
  -29.5360  -18.9530   20.3740 C   0  0  2  0  0  0  0  0  0  0  0  0
  -28.8510  -16.6350   19.3230 C   0  0  0  0  0  1  0  0  0  0  0  0
  -30.1850  -18.1130   17.9020 C   0  0  0  0  0  1  0  0  0  0  0  0
  -29.9930  -17.6940   19.3750 C   0  0  1  0  0  0  0  0  0  0  0  0
  -31.3460  -16.8870   19.7290 C   0  0  0  0  0  2  0  0  0  0  0  0
  -31.6250  -14.3580   19.5770 C   0  0  0  0  0  0  0  0  0  0  0  0
  -31.1950  -11.9920   18.9370 C   0  0  0  0  0  2  0  0  0  0  0  0
  -30.2110  -11.8950   17.7540 C   0  0  0  0  0  2  0  0  0  0  0  0
  -28.7600  -11.8650   18.2660 C   0  0  0  0  0  2  0  0  0  0  0  0
  -28.4780  -13.0140   19.2680 C   0  0  0  0  0  3  0  0  0  0  0  0
  -29.5680  -13.0770   20.3610 C   0  0  0  0  0  2  0  0  0  0  0  0
  -30.8840  -13.2130   19.7070 N   0  0  0  0  0  0  0  0  0  0  0  0
  -32.6220  -14.3990   18.8480 O   0  0  0  0  0  0  0  0  0  0  0  0
  -31.5010  -15.4160   21.6980 C   0  0  0  0  0  1  0  0  0  0  0  0
  -31.2180  -15.4730   20.2540 N   0  0  0  0  0  0  0  0  0  0  0  0
  -26.2360  -13.9090   20.1510 C   0  0  0  0  0  0  0  0  0  0  0  0
  -25.1070  -13.2730   20.5890 C   0  0  0  0  0  0  0  0  0  0  0  0
  -25.3880  -11.8740   20.5240 C   0  0  0  0  0  0  0  0  0  0  0  0
  -27.1420  -12.9060   19.8450 N   0  0  0  0  0  0  0  0  0  0  0  0
  -26.6390  -11.6770   20.1300 N   0  0  0  0  0  0  0  0  0  0  0  0
  -24.5180  -10.7120   20.7590 C   0  0  0  0  0  0  0  0  0  0  0  0
  -24.8470   -9.7210   21.7110 C   0  0  0  0  0  3  0  0  0  0  0  0
  -23.9860   -8.6240   21.9270 C   0  0  0  0  0  3  0  0  0  0  0  0
  -22.7820   -8.5090   21.1930 C   0  0  0  0  0  0  0  0  0  0  0  0
  -22.4700   -9.4840   20.2310 C   0  0  0  0  0  3  0  0  0  0  0  0
  -23.3300  -10.5740   20.0130 C   0  0  0  0  0  3  0  0  0  0  0  0
  -21.8990   -7.4640   21.3220 O   0  0  0  0  0  0  0  0  0  0  0  0
  -21.7610   -6.7810   22.5040 C   0  0  0  0  0  0  0  0  0  0  0  0
  -21.3870   -7.4300   23.7010 C   0  0  0  0  0  3  0  0  0  0  0  0
  -21.1860   -6.6780   24.8760 C   0  0  0  0  0  3  0  0  0  0  0  0
  -21.3500   -5.2800   24.8560 C   0  0  0  0  0  0  0  0  0  0  0  0
  -21.7190   -4.6320   23.6640 C   0  0  0  0  0  3  0  0  0  0  0  0
  -21.9190   -5.3800   22.4900 C   0  0  0  0  0  0  0  0  0  0  0  0
  -22.2540   -4.7480   21.3390 F   0  0  0  0  0  0  0  0  0  0  0  0
  -21.1470   -4.5580   25.9810 F   0  0  0  0  0  0  0  0  0  0  0  0
  -23.8050  -13.9230   20.9600 C   0  0  0  0  0  0  0  0  0  0  0  0
  -23.0750  -13.3300   21.8970 N   0  0  0  0  0  0  0  0  0  0  0  0
  -23.4510  -14.9860   20.4530 O   0  0  0  0  0  0  0  0  0  0  0  0
  -23.3770  -12.4680   22.3250 H   0  0  0  0  0  0  0  0  0  0  0  0
  -22.2020  -13.7470   22.1880 H   0  0  0  0  0  0  0  0  0  0  0  0
  -26.5560  -15.2500   19.9710 N   0  0  0  0  0  0  0  0  0  0  0  0
  -25.8920  -15.9890   20.1760 H   0  0  0  0  0  0  0  0  0  0  0  0
  -27.4630  -15.5970   19.6850 H   0  0  0  0  0  0  0  0  0  0  0  0
  -31.6150  -21.6600   22.4860 C   0  0  0  0  0  1  0  0  0  0  0  0
  -30.1160  -21.6920   22.1530 C   0  0  0  0  0  2  0  0  0  0  0  0
  -30.9330  -24.7770   19.4760 C   0  0  0  0  0  1  0  0  0  0  0  0
  -29.7790  -24.1420   20.2730 C   0  0  0  0  0  3  0  0  0  0  0  0
  -28.4890  -25.0310   20.1280 C   0  0  0  0  0  2  0  0  0  0  0  0
  -28.6480  -26.4780   20.3330 O   0  0  0  0  0  0  0  0  0  0  0  0
  -24.7520  -31.7370   23.2960 C   0  0  0  0  0  0  0  0  0  0  0  0
  -27.5010  -27.2740   20.2660 C   0  0  0  0  0  0  0  0  0  0  0  0
  -23.6090  -30.3540   21.5990 C   0  0  0  0  0  3  0  0  0  0  0  0
  -25.1140  -28.8390   20.2030 C   0  0  0  0  0  0  0  0  0  0  0  0
  -26.1480  -30.7040   21.4970 C   0  0  0  0  0  2  0  0  0  0  0  0
  -26.2580  -29.3380   20.8370 C   0  0  0  0  0  0  0  0  0  0  0  0
  -27.4550  -28.5700   20.8560 C   0  0  0  0  0  3  0  0  0  0  0  0
  -26.3290  -26.8140   19.6170 C   0  0  0  0  0  3  0  0  0  0  0  0
  -25.1510  -27.5800   19.5850 C   0  0  0  0  0  3  0  0  0  0  0  0
  -23.8700  -29.7010   20.2170 C   0  0  0  0  0  2  0  0  0  0  0  0
  -24.8530  -30.9460   22.1880 N   0  0  0  0  0  0  0  0  0  0  0  0
  -23.6510  -32.0010   23.7980 O   0  0  0  0  0  0  0  0  0  0  0  0
  -22.9260  -29.3180   22.5220 C   0  0  0  0  0  0  0  0  0  0  0  0
  -21.6060  -29.1340   22.3460 N   0  0  0  0  0  0  0  0  0  0  0  0
  -23.5810  -28.6850   23.3540 O   0  0  0  0  0  0  0  0  0  0  0  0
  -21.1400  -29.6950   21.6490 H   0  0  0  0  0  0  0  0  0  0  0  0
  -18.2200  -27.9210   22.7170 C   0  0  0  0  0  0  0  0  0  0  0  0
  -20.7660  -28.1830   23.0770 C   0  0  0  0  0  3  0  0  0  0  0  0
  -20.8930  -26.7600   22.4860 C   0  0  0  0  0  2  0  0  0  0  0  0
  -19.8260  -26.4480   21.4320 C   0  0  0  0  0  2  0  0  0  0  0  0
  -18.4230  -26.5810   22.0290 C   0  0  0  0  0  2  0  0  0  0  0  0
  -19.3200  -28.6810   23.1940 C   0  0  0  0  0  0  0  0  0  0  0  0
  -19.0770  -29.9360   23.7920 C   0  0  0  0  0  3  0  0  0  0  0  0
  -17.7660  -30.4320   23.9190 C   0  0  0  0  0  3  0  0  0  0  0  0
  -16.6790  -29.6690   23.4580 C   0  0  0  0  0  3  0  0  0  0  0  0
  -16.9070  -28.4160   22.8630 C   0  0  0  0  0  3  0  0  0  0  0  0
  -26.0120  -32.3650   23.9670 C   0  0  0  0  0  3  0  0  0  0  0  0
  -25.6760  -33.7490   24.3300 N   0  0  0  0  0  0  0  0  0  0  0  0
  -26.0530  -34.8300   23.6350 C   0  0  0  0  0  0  0  0  0  0  0  0
  -26.7910  -34.7670   22.6480 O   0  0  0  0  0  0  0  0  0  0  0  0
  -25.0290  -33.8720   25.0950 H   0  0  0  0  0  0  0  0  0  0  0  0
  -24.3510  -36.6350   23.2270 C   0  0  0  0  0  1  0  0  0  0  0  0
  -25.5300  -36.1990   24.1100 C   0  0  0  0  0  3  0  0  0  0  0  0
  -27.6010  -37.0440   25.1240 C   0  0  0  0  0  1  0  0  0  0  0  0
  -26.5660  -37.2560   24.1150 N   0  0  0  0  0  0  0  0  0  0  0  0
  -26.1490  -38.1690   24.2750 H   0  0  0  0  0  0  0  0  0  0  0  0
  -26.5060  -31.5620   25.2330 C   0  0  1  0  0  0  0  0  0  0  0  0
  -25.3830  -31.2570   26.2510 C   0  0  0  0  0  1  0  0  0  0  0  0
  -27.1390  -30.2150   24.8130 C   0  0  0  0  0  1  0  0  0  0  0  0
  -27.6110  -32.3610   25.9610 C   0  0  0  0  0  1  0  0  0  0  0  0
  1 54  1  0
  1  5  1  0
  2  8  1  0
  2  5  1  0
  3  4  1  0
  3  1  2  0
  4  2  2  0
  5 52  1  0
  8  6  1  1
  8  7  1  0
 11  9  1  6
 10 11  1  0
 11 12  1  0
 11  8  1  0
 12 22  1  0
 13 19  1  0
 13 22  1  0
 14 19  1  0
 15 16  1  0
 15 14  1  0
 17 16  1  0
 17 26  1  0
 17 18  1  0
 19 18  1  0
 20 13  2  0
 22 21  1  0
 23 24  2  0
 24 43  1  0
 25 24  1  0
 25 28  1  0
 26 27  1  0
 26 23  1  0
 27 25  2  0
 28 29  1  0
 29 30  2  0
 31 34  1  0
 31 30  1  0
 32 31  2  0
 33 32  1  0
 33 28  2  0
 34 35  1  0
 35 36  1  0
 36 37  2  0
 38 37  1  0
 38 42  1  0
 39 38  2  0
 40 35  2  0
 40 39  1  0
 41 40  1  0
 43 44  1  0
 44 47  1  0
 44 46  1  0
 45 43  2  0
 48 23  1  0
 48 49  1  0
 50 48  1  0
 52 51  1  0
 54 53  1  0
 55 54  1  0
 55 56  1  0
 57 68  2  0
 58 56  1  0
 58 63  1  0
 59 67  1  0
 59 69  1  0
 60 66  1  0
 60 62  1  0
 61 67  1  0
 62 63  2  0
 62 61  1  0
 64 58  2  0
 65 64  1  0
 65 60  2  0
 66 59  1  0
 67 57  1  0
 69 71  2  0
 70 69  1  0
 72 70  1  0
 73 82  2  0
 73 78  1  0
 74 70  1  0
 74 78  1  0
 75 74  1  0
 76 77  1  0
 76 75  1  0
 77 73  1  0
 78 79  2  0
 79 80  1  0
 81 80  2  0
 82 81  1  0
 83 57  1  0
 83 84  1  0
 83 93  1  0
 84 87  1  0
 85 89  1  0
 85 84  1  0
 86 85  2  0
 89 88  1  0
 89 91  1  0
 91 92  1  0
 91 90  1  0
 93 96  1  1
 93 94  1  0
 95 93  1  0
M  ISO  4  13 100  22 100  55 101  56 101
M  END
>  <TORSDO>  (27) 
F 22

>  <SCORE>  (27) 
-12.018

>  <name>  (27) 
27

>  <ligand_id>  (27) 
27

>  <original_smiles>  (27) 
[H]c1c([H])c([H])c2c(c1[H])C([H])([H])C([H])([H])C([H])([H])C2([H])N([H])C(=O)C1([H])N(C(=O)C([H])(N([H])C(=O)C([H])(N([H])C([H])([H])[H])C([H])([H])[H])C(C([H])([H])[H])(C([H])([H])[H])C([H])([H])[H])C([H])([H])c2c([H])c(OC([H])([H])C([H])(c3nnc(C(C([H])([H])[H])(C([H])([H])[H])C(C([H])([H])[H])(C([H])([H])[H])C([H])([H])N(C(=O)N4C([H])([H])C([H])([H])C([H])([H])C([H])(n5nc(-c6c([H])c([H])c(Oc7c([H])c([H])c(F)c([H])c7F)c([H])c6[H])c(C(=O)N([H])[H])c5N([H])[H])C4([H])[H])C([H])([H])[H])n3C([H])([H])C([H])([H])[H])C([H])([H])[H])c([H])c([H])c2C1([H])[H]

>  <smiles>  (27) 
[H]c1c([H])c([H])c2c(c1[H])C([H])([H])C([H])([H])C([H])([H])C2([H])N([H])C(=O)C1([H])N(C(=O)C([H])(N([H])C(=O)C([H])(N([H])C([H])([H])[H])C([H])([H])[H])C(C([H])([H])[H])(C([H])([H])[H])C([H])([H])[H])C([H])([H])c2c([H])c(OC([H])([H])C([H])(c3nnc(C(C([H])([H])[H])(C([H])([H])[H])C(C([H])([H])[H])(C([H])([H])[H])C([H])([H])N(C(=O)N4C([H])([H])C([H])([H])C([H])([H])C([H])(n5nc(-c6c([H])c([H])c(Oc7c([H])c([H])c(F)c([H])c7F)c([H])c6[H])c(C(=O)N([H])[H])c5N([H])[H])C4([H])[H])C([H])([H])[H])n3C([H])([H])C([H])([H])[H])C([H])([H])[H])c([H])c([H])c2C1([H])[H]

$$$$
28:0:0
     RDKit          3D

 92100  0  0  1  0  0  0  0  0999 V2000
  -27.4140  -22.9130   19.5180 C   0  0  0  0  0  3  0  0  0  0  0  0
  -28.4390  -23.3360   20.3060 C   0  0  0  0  0  0  0  0  0  0  0  0
  -28.6320  -20.9440   19.7760 C   0  0  0  0  0  3  0  0  0  0  0  0
  -27.4870  -21.5450   19.2890 N   0  0  0  0  0  0  0  0  0  0  0  0
  -29.1890  -22.0760   20.4170 N   0  0  0  0  0  0  0  0  0  0  0  0
  -30.0470  -22.0110   20.9510 H   0  0  0  0  0  0  0  0  0  0  0  0
  -27.8480  -18.4580   20.1730 C   0  0  0  0  0  1  0  0  0  0  0  0
  -28.9190  -19.2150   17.9170 C   0  0  0  0  0  1  0  0  0  0  0  0
  -28.9680  -19.2750   19.4680 C   0  0  1  0  0  0  0  0  0  0  0  0
  -30.2560  -18.1560   19.8080 C   0  0  0  0  0  2  0  0  0  0  0  0
  -30.9100  -15.3650   20.0550 C   0  0  0  0  0  0  0  0  0  0  0  0
  -30.8440  -12.9130   19.3470 C   0  0  0  0  0  2  0  0  0  0  0  0
  -29.9100  -12.6620   18.1400 C   0  0  0  0  0  2  0  0  0  0  0  0
  -28.4550  -12.4630   18.6030 C   0  0  0  0  0  2  0  0  0  0  0  0
  -28.0180  -13.5000   19.6710 C   0  0  0  0  0  3  0  0  0  0  0  0
  -29.0760  -13.6920   20.7740 C   0  0  0  0  0  2  0  0  0  0  0  0
  -30.3140  -14.0930   20.0920 N   0  0  0  0  0  0  0  0  0  0  0  0
  -32.1470  -15.3720   20.0410 O   0  0  0  0  0  0  0  0  0  0  0  0
  -30.0770  -16.3290   18.1050 C   0  0  0  0  0  1  0  0  0  0  0  0
  -30.1800  -16.5310   19.5720 N   0  0  0  0  0  0  0  0  0  0  0  0
  -25.7010  -14.1290   20.5390 C   0  0  0  0  0  0  0  0  0  0  0  0
  -24.6100  -13.3810   20.8830 C   0  0  0  0  0  0  0  0  0  0  0  0
  -25.0090  -12.0150   20.7510 C   0  0  0  0  0  0  0  0  0  0  0  0
  -26.6920  -13.2220   20.2060 N   0  0  0  0  0  0  0  0  0  0  0  0
  -26.2890  -11.9410   20.4060 N   0  0  0  0  0  0  0  0  0  0  0  0
  -24.2310  -10.7760   20.8740 C   0  0  0  0  0  0  0  0  0  0  0  0
  -24.6320   -9.7330   21.7390 C   0  0  0  0  0  3  0  0  0  0  0  0
  -23.8520   -8.5620   21.8560 C   0  0  0  0  0  3  0  0  0  0  0  0
  -22.6590   -8.4260   21.1090 C   0  0  0  0  0  0  0  0  0  0  0  0
  -22.2780   -9.4570   20.2310 C   0  0  0  0  0  3  0  0  0  0  0  0
  -23.0560  -10.6190   20.1100 C   0  0  0  0  0  3  0  0  0  0  0  0
  -21.8530   -7.3140   21.1380 O   0  0  0  0  0  0  0  0  0  0  0  0
  -21.7680   -6.5150   22.2500 C   0  0  0  0  0  0  0  0  0  0  0  0
  -21.3490   -7.0230   23.4990 C   0  0  0  0  0  3  0  0  0  0  0  0
  -21.2090   -6.1550   24.6010 C   0  0  0  0  0  3  0  0  0  0  0  0
  -21.4760   -4.7810   24.4540 C   0  0  0  0  0  0  0  0  0  0  0  0
  -21.8870   -4.2730   23.2090 C   0  0  0  0  0  3  0  0  0  0  0  0
  -22.0290   -5.1370   22.1090 C   0  0  0  0  0  0  0  0  0  0  0  0
  -22.4050   -4.6390   20.9070 F   0  0  0  0  0  0  0  0  0  0  0  0
  -21.3340   -3.9460   25.5100 F   0  0  0  0  0  0  0  0  0  0  0  0
  -23.2430  -13.9020   21.2170 C   0  0  0  0  0  0  0  0  0  0  0  0
  -22.5090  -13.1950   22.0680 N   0  0  0  0  0  0  0  0  0  0  0  0
  -22.8410  -14.9720   20.7640 O   0  0  0  0  0  0  0  0  0  0  0  0
  -22.8500  -12.3280   22.4550 H   0  0  0  0  0  0  0  0  0  0  0  0
  -21.5920  -13.5240   22.3340 H   0  0  0  0  0  0  0  0  0  0  0  0
  -25.9300  -15.5010   20.4490 N   0  0  0  0  0  0  0  0  0  0  0  0
  -25.2100  -16.1880   20.6480 H   0  0  0  0  0  0  0  0  0  0  0  0
  -26.7980  -15.9230   20.1470 H   0  0  0  0  0  0  0  0  0  0  0  0
  -25.0020  -21.5800   18.9410 C   0  0  0  0  0  1  0  0  0  0  0  0
  -26.3420  -20.9280   18.5630 C   0  0  0  0  0  2  0  0  0  0  0  0
  -28.5040  -24.7980   21.1060 C   0  0  0  0  0  2  0  0  0  0  0  0
  -28.4020  -26.3040   20.6300 O   0  0  0  0  0  0  0  0  0  0  0  0
  -24.6000  -32.0500   23.5410 C   0  0  0  0  0  0  0  0  0  0  0  0
  -27.3040  -27.2490   20.7080 C   0  0  0  0  0  0  0  0  0  0  0  0
  -23.4670  -30.6150   21.8890 C   0  0  0  0  0  3  0  0  0  0  0  0
  -24.9710  -29.0040   20.5610 C   0  0  0  0  0  0  0  0  0  0  0  0
  -26.0250  -30.8800   21.8080 C   0  0  0  0  0  2  0  0  0  0  0  0
  -26.1300  -29.4660   21.1980 C   0  0  0  0  0  0  0  0  0  0  0  0
  -27.3000  -28.6090   21.2460 C   0  0  0  0  0  3  0  0  0  0  0  0
  -26.1160  -26.8920   20.0410 C   0  0  0  0  0  3  0  0  0  0  0  0
  -24.9780  -27.7300   19.9700 C   0  0  0  0  0  3  0  0  0  0  0  0
  -23.7430  -29.9060   20.5360 C   0  0  0  0  0  2  0  0  0  0  0  0
  -24.7170  -31.2080   22.4680 N   0  0  0  0  0  0  0  0  0  0  0  0
  -23.4950  -32.3370   24.0260 O   0  0  0  0  0  0  0  0  0  0  0  0
  -22.7570  -29.6260   22.8470 C   0  0  0  0  0  0  0  0  0  0  0  0
  -21.4500  -29.3880   22.6330 N   0  0  0  0  0  0  0  0  0  0  0  0
  -23.3910  -29.0680   23.7480 O   0  0  0  0  0  0  0  0  0  0  0  0
  -20.9920  -29.8880   21.8840 H   0  0  0  0  0  0  0  0  0  0  0  0
  -18.1020  -28.0390   22.9380 C   0  0  0  0  0  0  0  0  0  0  0  0
  -20.6160  -28.4460   23.3850 C   0  0  0  0  0  3  0  0  0  0  0  0
  -20.8300  -26.9940   22.8960 C   0  0  0  0  0  2  0  0  0  0  0  0
  -19.8290  -26.5640   21.8210 C   0  0  0  0  0  2  0  0  0  0  0  0
  -18.3950  -26.6700   22.3480 C   0  0  0  0  0  2  0  0  0  0  0  0
  -19.1450  -28.8780   23.4120 C   0  0  0  0  0  0  0  0  0  0  0  0
  -18.8170  -30.1540   23.9240 C   0  0  0  0  0  3  0  0  0  0  0  0
  -17.4810  -30.5920   23.9630 C   0  0  0  0  0  3  0  0  0  0  0  0
  -16.4510  -29.7510   23.5030 C   0  0  0  0  0  3  0  0  0  0  0  0
  -16.7630  -28.4760   22.9960 C   0  0  0  0  0  3  0  0  0  0  0  0
  -25.8520  -32.7070   24.1980 C   0  0  0  0  0  3  0  0  0  0  0  0
  -26.3080  -31.9820   25.5250 C   0  0  1  0  0  0  0  0  0  0  0  0
  -25.1520  -31.7180   26.5170 C   0  0  0  0  0  1  0  0  0  0  0  0
  -26.9720  -30.6230   25.2100 C   0  0  0  0  0  1  0  0  0  0  0  0
  -27.3730  -32.8370   26.2510 C   0  0  0  0  0  1  0  0  0  0  0  0
  -25.5270  -34.1170   24.4750 N   0  0  0  0  0  0  0  0  0  0  0  0
  -25.8550  -35.1470   23.6840 C   0  0  0  0  0  0  0  0  0  0  0  0
  -26.5280  -35.0130   22.6590 O   0  0  0  0  0  0  0  0  0  0  0  0
  -24.9310  -34.2950   25.2700 H   0  0  0  0  0  0  0  0  0  0  0  0
  -24.0960  -36.9030   23.2910 C   0  0  0  0  0  1  0  0  0  0  0  0
  -25.3590  -36.5490   24.0920 C   0  0  0  0  0  3  0  0  0  0  0  0
  -27.4960  -37.4990   24.8430 C   0  0  0  0  0  1  0  0  0  0  0  0
  -26.3750  -37.6090   23.9130 N   0  0  0  0  0  0  0  0  0  0  0  0
  -25.9600  -38.5300   24.0280 H   0  0  0  0  0  0  0  0  0  0  0  0
  1  2  2  0
  2  5  1  0
  2 51  1  0
  3  9  1  0
  3  5  1  0
  4  1  1  0
  4  3  1  0
  5  6  1  0
  9  8  1  6
  9 10  1  0
  9  7  1  0
 11 17  1  0
 12 17  1  0
 13 14  1  0
 13 12  1  0
 15 14  1  0
 15 24  1  0
 15 16  1  0
 17 16  1  0
 18 11  2  0
 19 20  1  0
 20 10  1  0
 20 11  1  0
 21 22  2  0
 22 41  1  0
 23 26  1  0
 23 22  1  0
 24 25  1  0
 24 21  1  0
 25 23  2  0
 26 27  1  0
 27 28  2  0
 29 32  1  0
 29 28  1  0
 30 29  2  0
 31 30  1  0
 31 26  2  0
 32 33  1  0
 33 34  1  0
 34 35  2  0
 36 35  1  0
 36 40  1  0
 37 36  2  0
 38 33  2  0
 38 37  1  0
 39 38  1  0
 41 42  1  0
 42 45  1  0
 42 44  1  0
 43 41  2  0
 46 21  1  0
 46 47  1  0
 48 46  1  0
 50 49  1  0
 50  4  1  0
 52 54  1  0
 52 51  1  0
 53 64  2  0
 54 59  1  0
 55 63  1  0
 55 65  1  0
 56 58  1  0
 57 63  1  0
 58 59  2  0
 58 57  1  0
 60 54  2  0
 61 60  1  0
 61 56  2  0
 62 56  1  0
 62 55  1  0
 63 53  1  0
 65 67  2  0
 66 65  1  0
 68 66  1  0
 69 78  2  0
 69 74  1  0
 70 66  1  0
 70 74  1  0
 71 70  1  0
 72 73  1  0
 72 71  1  0
 73 69  1  0
 74 75  2  0
 75 76  1  0
 77 76  2  0
 78 77  1  0
 79 53  1  0
 79 84  1  0
 79 80  1  0
 80 83  1  1
 80 81  1  0
 82 80  1  0
 84 87  1  0
 85 89  1  0
 85 84  1  0
 86 85  2  0
 89 88  1  0
 91 92  1  0
 91 89  1  0
 91 90  1  0
M  ISO  4  11 100  20 100  51 101  52 101
M  END
>  <TORSDO>  (28) 
F 20

>  <SCORE>  (28) 
-13.116

>  <name>  (28) 
28

>  <ligand_id>  (28) 
28

>  <original_smiles>  (28) 
[H]c1c([H])c([H])c2c(c1[H])C([H])([H])C([H])([H])C([H])([H])C2([H])N([H])C(=O)C1([H])N(C(=O)C([H])(N([H])C(=O)C([H])(N([H])C([H])([H])[H])C([H])([H])[H])C(C([H])([H])[H])(C([H])([H])[H])C([H])([H])[H])C([H])([H])c2c([H])c(OC([H])([H])c3c([H])n(C([H])([H])C([H])([H])[H])c(C(C([H])([H])[H])(C([H])([H])[H])C([H])([H])N(C(=O)N4C([H])([H])C([H])([H])C([H])([H])C([H])(n5nc(-c6c([H])c([H])c(Oc7c([H])c([H])c(F)c([H])c7F)c([H])c6[H])c(C(=O)N([H])[H])c5N([H])[H])C4([H])[H])C([H])([H])[H])[n+]3[H])c([H])c([H])c2C1([H])[H]

>  <smiles>  (28) 
[H]c1c([H])c([H])c2c(c1[H])C([H])([H])C([H])([H])C([H])([H])C2([H])N([H])C(=O)C1([H])N(C(=O)C([H])(N([H])C(=O)C([H])(N([H])C([H])([H])[H])C([H])([H])[H])C(C([H])([H])[H])(C([H])([H])[H])C([H])([H])[H])C([H])([H])c2c([H])c(OC([H])([H])c3c([H])n(C([H])([H])C([H])([H])[H])c(C(C([H])([H])[H])(C([H])([H])[H])C([H])([H])N(C(=O)N4C([H])([H])C([H])([H])C([H])([H])C([H])(n5nc(-c6c([H])c([H])c(Oc7c([H])c([H])c(F)c([H])c7F)c([H])c6[H])c(C(=O)N([H])[H])c5N([H])[H])C4([H])[H])C([H])([H])[H])[n+]3[H])c([H])c([H])c2C1([H])[H]

$$$$
29:0:0
     RDKit          3D

106114  0  0  1  0  0  0  0  0999 V2000
  -31.1490  -18.3890   18.9220 C   0  0  0  0  0  2  0  0  0  0  0  0
  -30.9640  -19.6860   19.2990 C   0  0  0  0  0  0  0  0  0  0  0  0
  -30.8100  -19.6010   20.7110 C   0  0  0  0  0  0  0  0  0  0  0  0
  -30.6930  -18.3150   21.1080 N   0  0  0  0  0  2  0  0  0  0  0  0
  -30.8550  -17.5350   19.9850 N   0  0  0  0  0  0  0  0  0  0  0  0
  -30.7270  -15.6370   18.4280 C   0  0  0  0  0  1  0  0  0  0  0  0
  -28.7590  -16.4140   19.7550 C   0  0  0  0  0  1  0  0  0  0  0  0
  -30.2720  -16.1450   19.8280 C   0  0  2  0  0  0  0  0  0  0  0  0
  -30.7280  -14.9430   20.7960 C   0  0  0  0  0  0  0  0  0  0  0  0
  -30.6090  -12.5650   20.1470 C   0  0  0  0  0  2  0  0  0  0  0  0
  -29.7830  -12.3480   18.8570 C   0  0  0  0  0  2  0  0  0  0  0  0
  -28.2960  -12.1460   19.1890 C   0  0  0  0  0  2  0  0  0  0  0  0
  -27.7530  -13.1960   20.1840 C   0  0  0  0  0  3  0  0  0  0  0  0
  -28.7080  -13.4530   21.3740 C   0  0  0  0  0  2  0  0  0  0  0  0
  -30.0590  -13.7390   20.8520 N   0  0  0  0  0  0  0  0  0  0  0  0
  -31.9370  -14.9570   21.0220 O   0  0  0  0  0  0  0  0  0  0  0  0
  -25.3240  -13.8500   20.6750 C   0  0  0  0  0  0  0  0  0  0  0  0
  -24.2200  -13.0900   20.9580 C   0  0  0  0  0  0  0  0  0  0  0  0
  -24.6850  -11.7410   21.0200 C   0  0  0  0  0  0  0  0  0  0  0  0
  -26.3780  -12.9520   20.5790 N   0  0  0  0  0  0  0  0  0  0  0  0
  -25.9960  -11.6850   20.8490 N   0  0  0  0  0  0  0  0  0  0  0  0
  -23.9580  -10.4810   21.1740 C   0  0  0  0  0  0  0  0  0  0  0  0
  -24.3390   -9.5280   22.1440 C   0  0  0  0  0  3  0  0  0  0  0  0
  -23.6130   -8.3280   22.2840 C   0  0  0  0  0  3  0  0  0  0  0  0
  -22.4960   -8.0760   21.4520 C   0  0  0  0  0  0  0  0  0  0  0  0
  -22.1420   -9.0160   20.4660 C   0  0  0  0  0  3  0  0  0  0  0  0
  -22.8700  -10.2090   20.3240 C   0  0  0  0  0  3  0  0  0  0  0  0
  -21.7460   -6.9270   21.4980 O   0  0  0  0  0  0  0  0  0  0  0  0
  -21.6500   -6.1800   22.6450 C   0  0  0  0  0  0  0  0  0  0  0  0
  -21.1530   -6.7250   23.8490 C   0  0  0  0  0  3  0  0  0  0  0  0
  -21.0080   -5.9020   24.9830 C   0  0  0  0  0  3  0  0  0  0  0  0
  -21.3470   -4.5370   24.9140 C   0  0  0  0  0  0  0  0  0  0  0  0
  -21.8370   -3.9950   23.7140 C   0  0  0  0  0  3  0  0  0  0  0  0
  -21.9860   -4.8150   22.5800 C   0  0  0  0  0  0  0  0  0  0  0  0
  -22.4390   -4.2820   21.4200 F   0  0  0  0  0  0  0  0  0  0  0  0
  -21.2020   -3.7460   26.0030 F   0  0  0  0  0  0  0  0  0  0  0  0
  -22.8030  -13.5720   21.0630 C   0  0  0  0  0  0  0  0  0  0  0  0
  -21.9950  -12.9240   21.8950 N   0  0  0  0  0  0  0  0  0  0  0  0
  -22.4120  -14.5560   20.4390 O   0  0  0  0  0  0  0  0  0  0  0  0
  -22.3190  -12.1380   22.4380 H   0  0  0  0  0  0  0  0  0  0  0  0
  -21.0360  -13.2280   21.9970 H   0  0  0  0  0  0  0  0  0  0  0  0
  -25.5080  -15.2120   20.4610 N   0  0  0  0  0  0  0  0  0  0  0  0
  -24.7520  -15.8860   20.4740 H   0  0  0  0  0  0  0  0  0  0  0  0
  -26.3950  -15.6280   20.2090 H   0  0  0  0  0  0  0  0  0  0  0  0
  -30.8380  -20.9060   18.3900 C   0  0  0  0  0  3  0  0  0  0  0  0
  -29.0590  -22.5200   17.4430 C   0  0  0  0  0  1  0  0  0  0  0  0
  -28.2530  -20.5780   18.7230 C   0  0  0  0  0  1  0  0  0  0  0  0
  -29.2420  -20.2340   16.4760 C   0  0  0  0  0  1  0  0  0  0  0  0
  -29.3830  -21.0520   17.7770 C   0  0  2  0  0  0  0  0  0  0  0  0
  -31.9590  -20.9950   17.3160 C   0  0  0  0  0  2  0  0  0  0  0  0
  -33.4010  -21.3260   17.7990 C   0  0  0  0  0  3  0  0  0  0  0  0
  -34.6170  -19.4500   16.5480 C   0  0  0  0  0  1  0  0  0  0  0  0
  -35.8830  -21.5020   17.1060 C   0  0  0  0  0  1  0  0  0  0  0  0
  -34.1510  -21.6120   15.3330 C   0  0  0  0  0  1  0  0  0  0  0  0
  -34.4860  -20.9830   16.7070 C   0  0  2  0  0  0  0  0  0  0  0  0
  -34.2930  -22.9910   19.5870 C   0  0  0  0  0  1  0  0  0  0  0  0
  -33.4720  -22.8030   18.2970 C   0  0  0  0  0  2  0  0  0  0  0  0
  -30.7360  -20.7900   21.6830 C   0  0  0  0  0  2  0  0  0  0  0  0
  -29.4440  -21.6760   21.5970 C   0  0  0  0  0  2  0  0  0  0  0  0
  -30.6970  -23.9640   21.6630 C   0  0  0  0  0  1  0  0  0  0  0  0
  -29.5890  -23.0540   23.6940 C   0  0  0  0  0  1  0  0  0  0  0  0
  -29.4920  -23.1400   22.1590 C   0  0  2  0  0  0  0  0  0  0  0  0
  -28.1800  -23.9270   21.8260 C   0  0  0  0  0  2  0  0  0  0  0  0
  -28.1280  -24.7540   20.5090 C   0  0  0  0  0  2  0  0  0  0  0  0
  -28.5510  -26.2410   20.5990 C   0  0  0  0  0  2  0  0  0  0  0  0
  -28.2510  -26.9950   19.4100 O   0  0  0  0  0  0  0  0  0  0  0  0
  -24.5620  -31.6190   23.3430 C   0  0  0  0  0  0  0  0  0  0  0  0
  -27.1060  -27.7390   19.5320 C   0  0  0  0  0  0  0  0  0  0  0  0
  -23.2920  -30.4290   21.5820 C   0  0  0  0  0  3  0  0  0  0  0  0
  -24.6910  -29.1600   19.8700 C   0  0  0  0  0  0  0  0  0  0  0  0
  -25.7900  -30.8900   21.3010 C   0  0  0  0  0  2  0  0  0  0  0  0
  -25.8700  -29.6270   20.4700 C   0  0  0  0  0  0  0  0  0  0  0  0
  -27.0820  -28.9200   20.3030 C   0  0  0  0  0  3  0  0  0  0  0  0
  -25.9250  -27.2950   18.9110 C   0  0  0  0  0  3  0  0  0  0  0  0
  -24.7170  -27.9900   19.0890 C   0  0  0  0  0  3  0  0  0  0  0  0
  -23.4330  -29.9610   20.1070 C   0  0  0  0  0  2  0  0  0  0  0  0
  -24.5680  -30.9840   22.1360 N   0  0  0  0  0  0  0  0  0  0  0  0
  -23.5110  -31.7830   23.9750 O   0  0  0  0  0  0  0  0  0  0  0  0
  -22.7170  -29.2640   22.4190 C   0  0  0  0  0  0  0  0  0  0  0  0
  -21.4080  -29.0000   22.2640 N   0  0  0  0  0  0  0  0  0  0  0  0
  -23.4470  -28.6070   23.1670 O   0  0  0  0  0  0  0  0  0  0  0  0
  -20.8660  -29.5960   21.6530 H   0  0  0  0  0  0  0  0  0  0  0  0
  -18.2060  -27.3450   22.4110 C   0  0  0  0  0  0  0  0  0  0  0  0
  -20.6710  -27.9240   22.9260 C   0  0  0  0  0  3  0  0  0  0  0  0
  -21.0130  -26.5460   22.3060 C   0  0  0  0  0  2  0  0  0  0  0  0
  -20.0570  -26.1330   21.1830 C   0  0  0  0  0  2  0  0  0  0  0  0
  -18.6200  -26.0650   21.7060 C   0  0  0  0  0  2  0  0  0  0  0  0
  -19.1700  -28.2260   22.9700 C   0  0  0  0  0  0  0  0  0  0  0  0
  -18.7310  -29.4200   23.5800 C   0  0  0  0  0  3  0  0  0  0  0  0
  -17.3600  -29.7370   23.6450 C   0  0  0  0  0  3  0  0  0  0  0  0
  -16.4090  -28.8520   23.1050 C   0  0  0  0  0  3  0  0  0  0  0  0
  -16.8330  -27.6590   22.4930 C   0  0  0  0  0  3  0  0  0  0  0  0
  -25.8730  -32.1940   23.9680 C   0  0  0  0  0  3  0  0  0  0  0  0
  -25.6200  -33.5970   24.3140 N   0  0  0  0  0  0  0  0  0  0  0  0
  -26.0510  -34.6480   23.6010 C   0  0  0  0  0  0  0  0  0  0  0  0
  -26.7760  -34.5310   22.6070 O   0  0  0  0  0  0  0  0  0  0  0  0
  -24.9880  -33.7660   25.0830 H   0  0  0  0  0  0  0  0  0  0  0  0
  -24.4560  -36.5430   23.1780 C   0  0  0  0  0  1  0  0  0  0  0  0
  -25.6100  -36.0480   24.0640 C   0  0  0  0  0  3  0  0  0  0  0  0
  -27.7280  -36.7880   25.0630 C   0  0  0  0  0  1  0  0  0  0  0  0
  -26.7040  -37.0430   24.0550 N   0  0  0  0  0  0  0  0  0  0  0  0
  -26.3400  -37.9790   24.2080 H   0  0  0  0  0  0  0  0  0  0  0  0
  -26.3610  -31.3830   25.2290 C   0  0  1  0  0  0  0  0  0  0  0  0
  -25.2740  -31.1850   26.3120 C   0  0  0  0  0  1  0  0  0  0  0  0
  -26.8720  -29.9830   24.8120 C   0  0  0  0  0  1  0  0  0  0  0  0
  -27.5560  -32.1130   25.8870 C   0  0  0  0  0  1  0  0  0  0  0  0
  1  2  1  0
  1  5  1  0
  2  3  2  0
  3  4  1  0
  3 58  1  0
  5  4  1  0
  8  6  1  6
  7  8  1  0
  8  5  1  0
  8  9  1  0
  9 15  1  0
  9 16  2  0
 10 15  1  0
 11 12  1  0
 11 10  1  0
 13 12  1  0
 13 20  1  0
 13 14  1  0
 15 14  1  0
 17 18  2  0
 18 19  1  0
 18 37  1  0
 19 22  1  0
 20 17  1  0
 20 21  1  0
 21 19  2  0
 22 23  1  0
 23 24  2  0
 25 28  1  0
 25 24  1  0
 26 25  2  0
 27 26  1  0
 27 22  2  0
 28 29  1  0
 29 30  1  0
 30 31  2  0
 32 31  1  0
 32 36  1  0
 33 32  2  0
 34 29  2  0
 34 33  1  0
 35 34  1  0
 37 38  1  0
 38 41  1  0
 38 40  1  0
 39 37  2  0
 42 43  1  0
 42 17  1  0
 44 42  1  0
 45 50  1  0
 45  2  1  0
 49 46  1  6
 48 49  1  0
 49 45  1  0
 49 47  1  0
 51 50  1  0
 51 57  1  0
 55 52  1  6
 54 55  1  0
 55 53  1  0
 55 51  1  0
 57 56  1  0
 59 58  1  0
 59 62  1  0
 62 60  1  6
 62 61  1  0
 63 62  1  0
 64 65  1  0
 64 63  1  0
 66 68  1  0
 66 65  1  0
 67 78  2  0
 68 73  1  0
 69 77  1  0
 69 79  1  0
 70 76  1  0
 70 72  1  0
 71 77  1  0
 72 71  1  0
 73 72  2  0
 74 75  1  0
 74 68  2  0
 75 70  2  0
 76 69  1  0
 77 67  1  0
 79 81  2  0
 80 79  1  0
 82 80  1  0
 83 92  2  0
 83 88  1  0
 84 80  1  0
 84 88  1  0
 85 84  1  0
 86 87  1  0
 86 85  1  0
 87 83  1  0
 88 89  2  0
 89 90  1  0
 91 90  2  0
 92 91  1  0
 93 67  1  0
 93 94  1  0
 93103  1  0
 94 97  1  0
 95 99  1  0
 95 94  1  0
 96 95  2  0
 99 98  1  0
101 99  1  0
101102  1  0
101100  1  0
103106  1  1
103104  1  0
105103  1  0
M  ISO  4   8 100   9 100  65 101  66 101
M  END
>  <TORSDO>  (29) 
F 29

>  <SCORE>  (29) 
-10.570

>  <name>  (29) 
29

>  <ligand_id>  (29) 
29

>  <original_smiles>  (29) 
[H]c1c([H])c([H])c2c(c1[H])C([H])([H])C([H])([H])C([H])([H])C2([H])N([H])C(=O)C1([H])N(C(=O)C([H])(N([H])C(=O)C([H])(N([H])C([H])([H])[H])C([H])([H])[H])C(C([H])([H])[H])(C([H])([H])[H])C([H])([H])[H])C([H])([H])c2c([H])c(OC([H])([H])C([H])([H])C([H])([H])C(C([H])([H])[H])(C([H])([H])[H])C([H])([H])C([H])([H])c3nn(C(C(=O)N4C([H])([H])C([H])([H])C([H])([H])C([H])(n5nc(-c6c([H])c([H])c(Oc7c([H])c([H])c(F)c([H])c7F)c([H])c6[H])c(C(=O)N([H])[H])c5N([H])[H])C4([H])[H])(C([H])([H])[H])C([H])([H])[H])c([H])c3C([H])(C([H])([H])C([H])(C([H])([H])C([H])([H])[H])C(C([H])([H])[H])(C([H])([H])[H])C([H])([H])[H])C(C([H])([H])[H])(C([H])([H])[H])C([H])([H])[H])c([H])c([H])c2C1([H])[H]

>  <smiles>  (29) 
[H]c1c([H])c([H])c2c(c1[H])C([H])([H])C([H])([H])C([H])([H])C2([H])N([H])C(=O)C1([H])N(C(=O)C([H])(N([H])C(=O)C([H])(N([H])C([H])([H])[H])C([H])([H])[H])C(C([H])([H])[H])(C([H])([H])[H])C([H])([H])[H])C([H])([H])c2c([H])c(OC([H])([H])C([H])([H])C([H])([H])C(C([H])([H])[H])(C([H])([H])[H])C([H])([H])C([H])([H])c3nn(C(C(=O)N4C([H])([H])C([H])([H])C([H])([H])C([H])(n5nc(-c6c([H])c([H])c(Oc7c([H])c([H])c(F)c([H])c7F)c([H])c6[H])c(C(=O)N([H])[H])c5N([H])[H])C4([H])[H])(C([H])([H])[H])C([H])([H])[H])c([H])c3C([H])(C([H])([H])C([H])(C([H])([H])C([H])([H])[H])C(C([H])([H])[H])(C([H])([H])[H])C([H])([H])[H])C(C([H])([H])[H])(C([H])([H])[H])C([H])([H])[H])c([H])c([H])c2C1([H])[H]

$$$$
30:0:0
     RDKit          3D

101108  0  0  1  0  0  0  0  0999 V2000
  -28.3460  -22.8560   19.8950 C   0  0  0  0  0  3  0  0  0  0  0  0
  -29.2270  -21.2870   18.0850 C   0  0  0  0  0  1  0  0  0  0  0  0
  -27.8330  -20.2230   19.7170 C   0  0  0  0  0  1  0  0  0  0  0  0
  -28.9680  -21.2780   19.6320 C   0  0  2  0  0  0  0  0  0  0  0  0
  -31.5050  -21.4390   20.0620 C   0  0  0  0  0  1  0  0  0  0  0  0
  -30.2840  -20.5230   20.3670 C   0  0  1  0  0  0  0  0  0  0  0  0
  -31.5070  -19.9540   22.5460 C   0  0  0  0  0  1  0  0  0  0  0  0
  -29.5460  -21.3000   22.7030 C   0  0  0  0  0  1  0  0  0  0  0  0
  -30.2220  -20.3050   21.8700 N   0  0  1  0  0  4  0  0  0  0  0  0
  -29.6470  -19.4800   21.9600 H   0  0  0  0  0  0  0  0  0  0  0  0
  -30.6840  -19.0100   19.8370 C   0  0  0  0  0  2  0  0  0  0  0  0
  -29.7960  -17.6790   20.1000 C   0  0  0  0  0  2  0  0  0  0  0  0
  -31.0550  -15.3710   20.3530 C   0  0  0  0  0  0  0  0  0  0  0  0
  -30.9600  -13.0140   19.5150 C   0  0  0  0  0  2  0  0  0  0  0  0
  -30.0700  -12.9310   18.2540 C   0  0  0  0  0  2  0  0  0  0  0  0
  -28.5930  -12.7370   18.6430 C   0  0  0  0  0  2  0  0  0  0  0  0
  -28.1370  -13.7290   19.7440 C   0  0  0  0  0  3  0  0  0  0  0  0
  -29.1440  -13.7760   20.9130 C   0  0  0  0  0  2  0  0  0  0  0  0
  -30.4640  -14.1250   20.3610 N   0  0  0  0  0  0  0  0  0  0  0  0
  -32.1610  -15.5320   19.8270 O   0  0  0  0  0  0  0  0  0  0  0  0
  -30.3170  -16.6070   22.3000 C   0  0  0  0  0  1  0  0  0  0  0  0
  -30.3450  -16.4580   20.8430 N   0  0  0  0  0  0  0  0  0  0  0  0
  -25.7430  -14.3200   20.4640 C   0  0  0  0  0  0  0  0  0  0  0  0
  -24.6660  -13.5440   20.7950 C   0  0  0  0  0  0  0  0  0  0  0  0
  -25.1170  -12.1900   20.7170 C   0  0  0  0  0  0  0  0  0  0  0  0
  -26.7820  -13.4400   20.2040 N   0  0  0  0  0  0  0  0  0  0  0  0
  -26.4090  -12.1510   20.4170 N   0  0  0  0  0  0  0  0  0  0  0  0
  -24.3760  -10.9290   20.8540 C   0  0  0  0  0  0  0  0  0  0  0  0
  -24.7630   -9.9420   21.7870 C   0  0  0  0  0  3  0  0  0  0  0  0
  -24.0240   -8.7460   21.9130 C   0  0  0  0  0  3  0  0  0  0  0  0
  -22.8830   -8.5280   21.1040 C   0  0  0  0  0  0  0  0  0  0  0  0
  -22.5160   -9.5030   20.1590 C   0  0  0  0  0  3  0  0  0  0  0  0
  -23.2560  -10.6900   20.0320 C   0  0  0  0  0  3  0  0  0  0  0  0
  -22.1210   -7.3860   21.1380 O   0  0  0  0  0  0  0  0  0  0  0  0
  -21.9430   -6.6730   22.2960 C   0  0  0  0  0  0  0  0  0  0  0  0
  -21.3910   -7.2610   23.4550 C   0  0  0  0  0  3  0  0  0  0  0  0
  -21.1620   -6.4740   24.6020 C   0  0  0  0  0  3  0  0  0  0  0  0
  -21.4740   -5.1010   24.5900 C   0  0  0  0  0  0  0  0  0  0  0  0
  -22.0180   -4.5140   23.4340 C   0  0  0  0  0  3  0  0  0  0  0  0
  -22.2480   -5.2970   22.2900 C   0  0  0  0  0  0  0  0  0  0  0  0
  -22.7530   -4.7200   21.1720 F   0  0  0  0  0  0  0  0  0  0  0  0
  -21.2460   -4.3440   25.6880 F   0  0  0  0  0  0  0  0  0  0  0  0
  -23.2710  -14.0240   21.0710 C   0  0  0  0  0  0  0  0  0  0  0  0
  -22.5390  -13.3190   21.9270 N   0  0  0  0  0  0  0  0  0  0  0  0
  -22.8390  -15.0590   20.5650 O   0  0  0  0  0  0  0  0  0  0  0  0
  -22.9020  -12.4820   22.3580 H   0  0  0  0  0  0  0  0  0  0  0  0
  -21.6020  -13.6210   22.1540 H   0  0  0  0  0  0  0  0  0  0  0  0
  -25.9200  -15.6950   20.3400 N   0  0  0  0  0  0  0  0  0  0  0  0
  -25.1500  -16.3450   20.4500 H   0  0  0  0  0  0  0  0  0  0  0  0
  -26.7690  -16.1370   20.0130 H   0  0  0  0  0  0  0  0  0  0  0  0
  -29.6200  -24.3120   21.7350 C   0  0  0  0  0  1  0  0  0  0  0  0
  -29.3140  -24.1400   20.2310 C   0  0  0  0  0  3  0  0  0  0  0  0
  -29.0110  -25.5610   19.4860 C   0  0  0  0  0  2  0  0  0  0  0  0
  -28.8570  -26.8830   20.1850 O   0  0  0  0  0  0  0  0  0  0  0  0
  -24.7060  -31.9030   23.3530 C   0  0  0  0  0  0  0  0  0  0  0  0
  -27.6890  -27.6810   20.1070 C   0  0  0  0  0  0  0  0  0  0  0  0
  -23.6490  -30.5550   21.5770 C   0  0  0  0  0  3  0  0  0  0  0  0
  -25.2390  -29.1890   20.1100 C   0  0  0  0  0  0  0  0  0  0  0  0
  -26.1760  -31.0100   21.5280 C   0  0  0  0  0  2  0  0  0  0  0  0
  -26.3560  -29.6840   20.7940 C   0  0  0  0  0  0  0  0  0  0  0  0
  -27.5780  -28.9380   20.7900 C   0  0  0  0  0  3  0  0  0  0  0  0
  -26.5470  -27.2680   19.3800 C   0  0  0  0  0  3  0  0  0  0  0  0
  -25.3390  -27.9880   19.3980 C   0  0  0  0  0  3  0  0  0  0  0  0
  -23.9550  -29.9900   20.1660 C   0  0  0  0  0  2  0  0  0  0  0  0
  -24.8600  -31.1710   22.2100 N   0  0  0  0  0  0  0  0  0  0  0  0
  -23.5880  -32.0860   23.8550 O   0  0  0  0  0  0  0  0  0  0  0  0
  -23.0080  -29.4400   22.4390 C   0  0  0  0  0  0  0  0  0  0  0  0
  -21.6980  -29.2050   22.2490 N   0  0  0  0  0  0  0  0  0  0  0  0
  -23.6890  -28.7920   23.2370 O   0  0  0  0  0  0  0  0  0  0  0  0
  -21.2050  -29.7870   21.5860 H   0  0  0  0  0  0  0  0  0  0  0  0
  -18.3700  -27.8170   22.5490 C   0  0  0  0  0  0  0  0  0  0  0  0
  -20.9030  -28.1760   22.9220 C   0  0  0  0  0  3  0  0  0  0  0  0
  -21.0930  -26.7980   22.2480 C   0  0  0  0  0  2  0  0  0  0  0  0
  -20.0390  -26.4980   21.1770 C   0  0  0  0  0  2  0  0  0  0  0  0
  -18.6330  -26.5310   21.7820 C   0  0  0  0  0  2  0  0  0  0  0  0
  -19.4360  -28.5970   23.0680 C   0  0  0  0  0  0  0  0  0  0  0  0
  -19.1380  -29.8020   23.7420 C   0  0  0  0  0  3  0  0  0  0  0  0
  -17.8060  -30.2280   23.9000 C   0  0  0  0  0  3  0  0  0  0  0  0
  -16.7530  -29.4440   23.3960 C   0  0  0  0  0  3  0  0  0  0  0  0
  -17.0360  -28.2390   22.7260 C   0  0  0  0  0  3  0  0  0  0  0  0
  -25.9240  -32.5610   24.0690 C   0  0  0  0  0  3  0  0  0  0  0  0
  -26.3360  -31.8190   25.3990 C   0  0  1  0  0  0  0  0  0  0  0  0
  -25.1560  -31.5770   26.3690 C   0  0  0  0  0  1  0  0  0  0  0  0
  -26.9770  -30.4460   25.0870 C   0  0  0  0  0  1  0  0  0  0  0  0
  -27.4100  -32.6450   26.1470 C   0  0  0  0  0  1  0  0  0  0  0  0
  -25.5730  -33.9600   24.3480 N   0  0  0  0  0  0  0  0  0  0  0  0
  -25.9400  -35.0030   23.5910 C   0  0  0  0  0  0  0  0  0  0  0  0
  -26.6770  -34.8900   22.6090 O   0  0  0  0  0  0  0  0  0  0  0  0
  -24.9270  -34.1210   25.1070 H   0  0  0  0  0  0  0  0  0  0  0  0
  -24.2110  -36.7600   23.0890 C   0  0  0  0  0  1  0  0  0  0  0  0
  -25.4040  -36.3930   23.9870 C   0  0  0  0  0  3  0  0  0  0  0  0
  -27.4670  -37.3300   24.9330 C   0  0  0  0  0  1  0  0  0  0  0  0
  -26.4260  -37.4600   23.9170 N   0  0  0  0  0  0  0  0  0  0  0  0
  -25.9980  -38.3770   24.0150 H   0  0  0  0  0  0  0  0  0  0  0  0
  -26.6900  -24.2540   21.5120 C   0  0  0  0  0  1  0  0  0  0  0  0
  -26.8570  -23.1070   20.4780 C   0  0  0  0  0  3  0  0  0  0  0  0
  -26.1710  -23.6890   18.0390 C   0  0  0  0  0  1  0  0  0  0  0  0
  -25.6720  -23.2610   19.4430 C   0  0  0  0  0  3  0  0  0  0  0  0
  -23.2790  -24.0880   18.9450 C   0  0  0  0  0  1  0  0  0  0  0  0
  -23.9880  -23.9210   21.3290 C   0  0  0  0  0  1  0  0  0  0  0  0
  -24.4890  -24.1860   19.8960 C   0  0  0  0  0  3  0  0  0  0  0  0
  1  4  1  0
  1 52  1  0
  1 96  1  0
  4  2  1  6
  4  3  1  0
  4  6  1  0
  6  5  1  1
  6  9  1  0
  9 10  1  6
  9  7  1  0
  9  8  1  0
 11 12  1  0
 11  6  1  0
 12 22  1  0
 13 19  1  0
 13 22  1  0
 14 19  1  0
 15 16  1  0
 15 14  1  0
 17 16  1  0
 17 26  1  0
 17 18  1  0
 19 18  1  0
 20 13  2  0
 22 21  1  0
 23 24  2  0
 24 43  1  0
 25 24  1  0
 25 28  1  0
 26 27  1  0
 26 23  1  0
 27 25  2  0
 28 29  1  0
 29 30  2  0
 31 34  1  0
 31 30  1  0
 32 31  2  0
 33 32  1  0
 33 28  2  0
 34 35  1  0
 35 36  1  0
 36 37  2  0
 38 37  1  0
 38 42  1  0
 39 38  2  0
 40 35  2  0
 40 39  1  0
 41 40  1  0
 43 44  1  0
 44 47  1  0
 44 46  1  0
 45 43  2  0
 48 49  1  0
 48 23  1  0
 50 48  1  0
 52 51  1  0
 53 54  1  0
 53 52  1  0
 55 66  2  0
 56 54  1  0
 56 61  1  0
 57 65  1  0
 57 67  1  0
 58 64  1  0
 58 60  1  0
 59 65  1  0
 60 59  1  0
 61 60  2  0
 62 63  1  0
 62 56  2  0
 63 58  2  0
 64 57  1  0
 65 55  1  0
 67 69  2  0
 68 67  1  0
 70 68  1  0
 71 80  2  0
 71 76  1  0
 72 68  1  0
 72 76  1  0
 73 72  1  0
 74 75  1  0
 74 73  1  0
 75 71  1  0
 76 77  2  0
 77 78  1  0
 79 78  2  0
 80 79  1  0
 81 55  1  0
 81 86  1  0
 81 82  1  0
 82 85  1  1
 82 83  1  0
 84 82  1  0
 86 89  1  0
 87 91  1  0
 87 86  1  0
 88 87  2  0
 91 90  1  0
 93 91  1  0
 93 94  1  0
 93 92  1  0
 96 95  1  0
 98 97  1  0
 98101  1  0
 98 96  1  0
 99101  1  0
101100  1  0
M  ISO  4  13 100  22 100  53 101  54 101
M  END
>  <TORSDO>  (30) 
F 26

>  <SCORE>  (30) 
-12.085

>  <name>  (30) 
30

>  <ligand_id>  (30) 
30

>  <original_smiles>  (30) 
[H]c1c([H])c([H])c2c(c1[H])C([H])([H])C([H])([H])C([H])([H])C2([H])N([H])C(=O)C1([H])N(C(=O)C([H])(N([H])C(=O)C([H])(N([H])C([H])([H])[H])C([H])([H])[H])C(C([H])([H])[H])(C([H])([H])[H])C([H])([H])[H])C([H])([H])c2c([H])c(OC([H])([H])C([H])(C([H])([H])[H])C([H])(C([H])(C([H])([H])[H])C([H])(C([H])([H])[H])C([H])(C([H])([H])[H])C([H])([H])[H])C(C([H])([H])[H])(C([H])([H])[H])C(C([H])([H])[H])(C([H])([H])C([H])([H])N(C(=O)N3C([H])([H])C([H])([H])C([H])([H])C([H])(n4nc(-c5c([H])c([H])c(Oc6c([H])c([H])c(F)c([H])c6F)c([H])c5[H])c(C(=O)N([H])[H])c4N([H])[H])C3([H])[H])C([H])([H])[H])[N+]([H])(C([H])([H])[H])C([H])([H])[H])c([H])c([H])c2C1([H])[H]

>  <smiles>  (30) 
[H]c1c([H])c([H])c2c(c1[H])C([H])([H])C([H])([H])C([H])([H])C2([H])N([H])C(=O)C1([H])N(C(=O)C([H])(N([H])C(=O)C([H])(N([H])C([H])([H])[H])C([H])([H])[H])C(C([H])([H])[H])(C([H])([H])[H])C([H])([H])[H])C([H])([H])c2c([H])c(OC([H])([H])C([H])(C([H])([H])[H])C([H])(C([H])(C([H])([H])[H])C([H])(C([H])([H])[H])C([H])(C([H])([H])[H])C([H])([H])[H])C(C([H])([H])[H])(C([H])([H])[H])C(C([H])([H])[H])(C([H])([H])C([H])([H])N(C(=O)N3C([H])([H])C([H])([H])C([H])([H])C([H])(n4nc(-c5c([H])c([H])c(Oc6c([H])c([H])c(F)c([H])c6F)c([H])c5[H])c(C(=O)N([H])[H])c4N([H])[H])C3([H])[H])C([H])([H])[H])[N+]([H])(C([H])([H])[H])C([H])([H])[H])c([H])c([H])c2C1([H])[H]

$$$$
31:0:0
     RDKit          3D

 99107  0  0  1  0  0  0  0  0999 V2000
  -29.5450  -21.8360   22.3490 C   0  0  0  0  0  1  0  0  0  0  0  0
  -29.2660  -21.9820   20.8230 C   0  0  1  0  0  0  0  0  0  0  0  0
  -29.8990  -20.7030   20.1820 C   0  0  0  0  0  0  0  0  0  0  0  0
  -30.7860  -18.7770   19.9380 C   0  0  0  0  0  3  0  0  0  0  0  0
  -30.5220  -19.6870   20.8850 N   0  0  0  0  0  0  0  0  0  0  0  0
  -29.7710  -20.4350   18.8840 N   0  0  0  0  0  2  0  0  0  0  0  0
  -30.2810  -19.1740   18.7470 N   0  0  0  0  0  0  0  0  0  0  0  0
  -32.7380  -17.5030   18.9520 C   0  0  0  0  0  1  0  0  0  0  0  0
  -31.7480  -17.5880   20.1400 C   0  0  0  0  0  3  0  0  0  0  0  0
  -31.7830  -15.0860   20.5180 C   0  0  0  0  0  0  0  0  0  0  0  0
  -31.4100  -12.8800   19.4990 C   0  0  0  0  0  2  0  0  0  0  0  0
  -30.5720  -13.0820   18.2200 C   0  0  0  0  0  2  0  0  0  0  0  0
  -29.0640  -13.0780   18.5370 C   0  0  0  0  0  2  0  0  0  0  0  0
  -28.7030  -13.9930   19.7380 C   0  0  0  0  0  3  0  0  0  0  0  0
  -29.6630  -13.7700   20.9250 C   0  0  0  0  0  2  0  0  0  0  0  0
  -31.0300  -13.9560   20.4290 N   0  0  0  0  0  0  0  0  0  0  0  0
  -33.0040  -15.0530   20.3670 O   0  0  0  0  0  0  0  0  0  0  0  0
  -31.1190  -16.2720   20.4790 N   0  0  0  0  0  0  0  0  0  0  0  0
  -30.1240  -16.2580   20.6250 H   0  0  0  0  0  0  0  0  0  0  0  0
  -26.3330  -14.8200   20.3030 C   0  0  0  0  0  0  0  0  0  0  0  0
  -25.1790  -14.1490   20.5920 C   0  0  0  0  0  0  0  0  0  0  0  0
  -25.5130  -12.7570   20.5820 C   0  0  0  0  0  0  0  0  0  0  0  0
  -27.3050  -13.8450   20.1290 N   0  0  0  0  0  0  0  0  0  0  0  0
  -26.8120  -12.6000   20.3580 N   0  0  0  0  0  0  0  0  0  0  0  0
  -24.6630  -11.5700   20.7090 C   0  0  0  0  0  0  0  0  0  0  0  0
  -24.9730  -10.5340   21.6160 C   0  0  0  0  0  3  0  0  0  0  0  0
  -24.1300   -9.4080   21.7300 C   0  0  0  0  0  3  0  0  0  0  0  0
  -22.9600   -9.3160   20.9400 C   0  0  0  0  0  0  0  0  0  0  0  0
  -22.6690  -10.3400   20.0200 C   0  0  0  0  0  3  0  0  0  0  0  0
  -23.5130  -11.4570   19.9040 C   0  0  0  0  0  3  0  0  0  0  0  0
  -22.0900   -8.2520   20.9720 O   0  0  0  0  0  0  0  0  0  0  0  0
  -21.9430   -7.4740   22.0920 C   0  0  0  0  0  0  0  0  0  0  0  0
  -21.5860   -8.0280   23.3420 C   0  0  0  0  0  3  0  0  0  0  0  0
  -21.3780   -7.1820   24.4510 C   0  0  0  0  0  3  0  0  0  0  0  0
  -21.5150   -5.7900   24.3100 C   0  0  0  0  0  0  0  0  0  0  0  0
  -21.8660   -5.2370   23.0660 C   0  0  0  0  0  3  0  0  0  0  0  0
  -22.0770   -6.0770   21.9590 C   0  0  0  0  0  0  0  0  0  0  0  0
  -22.3940   -5.5380   20.7590 F   0  0  0  0  0  0  0  0  0  0  0  0
  -21.3070   -4.9780   25.3740 F   0  0  0  0  0  0  0  0  0  0  0  0
  -23.8160  -14.7550   20.7720 C   0  0  0  0  0  0  0  0  0  0  0  0
  -22.9730  -14.1380   21.5890 N   0  0  0  0  0  0  0  0  0  0  0  0
  -23.5090  -15.8110   20.2180 O   0  0  0  0  0  0  0  0  0  0  0  0
  -23.2330  -13.2860   22.0660 H   0  0  0  0  0  0  0  0  0  0  0  0
  -22.0530  -14.5210   21.7390 H   0  0  0  0  0  0  0  0  0  0  0  0
  -26.6300  -16.1750   20.1540 N   0  0  0  0  0  0  0  0  0  0  0  0
  -25.9080  -16.8830   20.2370 H   0  0  0  0  0  0  0  0  0  0  0  0
  -27.5230  -16.5600   19.8830 H   0  0  0  0  0  0  0  0  0  0  0  0
  -29.2600  -19.0710   16.4400 C   0  0  0  0  0  1  0  0  0  0  0  0
  -30.3180  -18.5420   17.4280 C   0  0  0  0  0  2  0  0  0  0  0  0
  -27.2980  -22.9400   19.3560 C   0  0  0  0  0  1  0  0  0  0  0  0
  -27.0770  -20.6220   20.1430 C   0  0  0  0  0  1  0  0  0  0  0  0
  -26.7870  -22.4330   21.7440 C   0  0  0  0  0  1  0  0  0  0  0  0
  -27.6660  -22.0040   20.5370 C   0  0  1  0  0  0  0  0  0  0  0  0
  -30.0530  -23.2930   20.3100 C   0  0  0  0  0  2  0  0  0  0  0  0
  -28.9690  -25.0520   22.0420 C   0  0  0  0  0  1  0  0  0  0  0  0
  -30.1060  -24.7110   21.0560 C   0  0  1  0  0  0  0  0  0  0  0  0
  -31.2190  -24.6960   21.7950 F   0  0  0  0  0  0  0  0  0  0  0  0
  -30.2850  -25.9150   20.0550 C   0  0  0  0  0  2  0  0  0  0  0  0
  -29.9580  -27.2450   20.5690 O   0  0  0  0  0  0  0  0  0  0  0  0
  -25.1460  -31.7660   23.3660 C   0  0  0  0  0  0  0  0  0  0  0  0
  -28.6780  -27.7880   20.4730 C   0  0  0  0  0  0  0  0  0  0  0  0
  -24.3150  -30.2770   21.5780 C   0  0  0  0  0  3  0  0  0  0  0  0
  -26.1000  -28.9920   20.2850 C   0  0  0  0  0  0  0  0  0  0  0  0
  -26.7810  -30.9580   21.6640 C   0  0  0  0  0  2  0  0  0  0  0  0
  -27.1180  -29.6330   21.0000 C   0  0  0  0  0  0  0  0  0  0  0  0
  -28.4010  -29.0340   21.0970 C   0  0  0  0  0  3  0  0  0  0  0  0
  -27.6220  -27.1670   19.7620 C   0  0  0  0  0  3  0  0  0  0  0  0
  -26.3480  -27.7540   19.6730 C   0  0  0  0  0  3  0  0  0  0  0  0
  -24.7570  -29.6810   20.2160 C   0  0  0  0  0  2  0  0  0  0  0  0
  -25.4240  -31.0190   22.2600 N   0  0  0  0  0  0  0  0  0  0  0  0
  -23.9890  -31.8730   23.7960 O   0  0  0  0  0  0  0  0  0  0  0  0
  -23.7190  -29.1450   22.4420 C   0  0  0  0  0  0  0  0  0  0  0  0
  -22.4320  -28.8280   22.2190 N   0  0  0  0  0  0  0  0  0  0  0  0
  -24.4160  -28.5510   23.2710 O   0  0  0  0  0  0  0  0  0  0  0  0
  -21.9200  -29.3670   21.5350 H   0  0  0  0  0  0  0  0  0  0  0  0
  -19.1800  -27.2800   22.4660 C   0  0  0  0  0  0  0  0  0  0  0  0
  -21.6850  -27.7640   22.8870 C   0  0  0  0  0  3  0  0  0  0  0  0
  -21.9580  -26.3920   22.2280 C   0  0  0  0  0  2  0  0  0  0  0  0
  -20.9450  -26.0440   21.1320 C   0  0  0  0  0  2  0  0  0  0  0  0
  -19.5270  -26.0050   21.7120 C   0  0  0  0  0  2  0  0  0  0  0  0
  -20.1970  -28.1140   23.0020 C   0  0  0  0  0  0  0  0  0  0  0  0
  -19.8310  -29.3100   23.6600 C   0  0  0  0  0  3  0  0  0  0  0  0
  -18.4790  -29.6760   23.7800 C   0  0  0  0  0  3  0  0  0  0  0  0
  -17.4740  -28.8390   23.2630 C   0  0  0  0  0  3  0  0  0  0  0  0
  -17.8250  -27.6400   22.6110 C   0  0  0  0  0  3  0  0  0  0  0  0
  -26.2660  -32.5460   24.1260 C   0  0  0  0  0  3  0  0  0  0  0  0
  -25.7740  -33.9090   24.3650 N   0  0  0  0  0  0  0  0  0  0  0  0
  -26.0770  -34.9710   23.6070 C   0  0  0  0  0  0  0  0  0  0  0  0
  -26.8710  -34.9130   22.6640 O   0  0  0  0  0  0  0  0  0  0  0  0
  -25.0760  -34.0210   25.0850 H   0  0  0  0  0  0  0  0  0  0  0  0
  -24.2090  -36.5410   22.9950 C   0  0  0  0  0  1  0  0  0  0  0  0
  -25.3900  -36.3060   23.9500 C   0  0  0  0  0  3  0  0  0  0  0  0
  -27.3170  -37.4550   24.9520 C   0  0  0  0  0  1  0  0  0  0  0  0
  -26.3050  -37.4690   23.8990 N   0  0  0  0  0  0  0  0  0  0  0  0
  -25.7830  -38.3390   23.9670 H   0  0  0  0  0  0  0  0  0  0  0  0
  -26.6860  -31.8640   25.4860 C   0  0  1  0  0  0  0  0  0  0  0  0
  -25.4910  -31.5430   26.4110 C   0  0  0  0  0  1  0  0  0  0  0  0
  -27.4570  -30.5480   25.2280 C   0  0  0  0  0  1  0  0  0  0  0  0
  -27.6460  -32.7920   26.2650 C   0  0  0  0  0  1  0  0  0  0  0  0
  2  1  1  1
  3  2  1  0
  3  5  2  0
  4  9  1  0
  4  5  1  0
  6  3  1  0
  7  6  1  0
  7  4  1  0
  9  8  1  0
  9 18  1  0
 11 16  1  0
 12 13  1  0
 12 11  1  0
 14 13  1  0
 14 23  1  0
 14 15  1  0
 16 10  1  0
 16 15  1  0
 17 10  2  0
 18 10  1  0
 18 19  1  0
 20 21  2  0
 21 40  1  0
 22 21  1  0
 22 25  1  0
 23 20  1  0
 23 24  1  0
 24 22  2  0
 25 26  1  0
 26 27  2  0
 28 31  1  0
 28 27  1  0
 29 28  2  0
 30 29  1  0
 30 25  2  0
 31 32  1  0
 32 33  1  0
 33 34  2  0
 35 34  1  0
 35 39  1  0
 36 35  2  0
 37 32  2  0
 37 36  1  0
 38 37  1  0
 40 41  1  0
 41 44  1  0
 41 43  1  0
 42 40  2  0
 45 46  1  0
 45 20  1  0
 47 45  1  0
 48 49  1  0
 49  7  1  0
 53 50  1  6
 51 53  1  0
 53  2  1  0
 53 52  1  0
 54  2  1  0
 54 56  1  0
 56 57  1  0
 56 55  1  1
 58 59  1  0
 58 56  1  0
 60 71  2  0
 61 59  1  0
 61 66  1  0
 62 70  1  0
 62 72  1  0
 63 65  1  0
 64 70  1  0
 65 66  2  0
 65 64  1  0
 67 61  2  0
 68 67  1  0
 68 63  2  0
 69 63  1  0
 69 62  1  0
 70 60  1  0
 72 74  2  0
 73 72  1  0
 75 73  1  0
 76 85  2  0
 76 81  1  0
 77 73  1  0
 77 81  1  0
 78 77  1  0
 79 80  1  0
 79 78  1  0
 80 76  1  0
 81 82  2  0
 82 83  1  0
 84 83  2  0
 85 84  1  0
 86 60  1  0
 86 87  1  0
 86 96  1  0
 87 90  1  0
 88 92  1  0
 88 87  1  0
 89 88  2  0
 92 91  1  0
 94 92  1  0
 94 95  1  0
 94 93  1  0
 96 99  1  1
 96 97  1  0
 98 96  1  0
M  ISO  4  10 100  18 100  58 101  59 101
M  END
>  <TORSDO>  (31) 
F 23

>  <SCORE>  (31) 
-9.025

>  <name>  (31) 
31

>  <ligand_id>  (31) 
31

>  <original_smiles>  (31) 
[H]c1c([H])c([H])c2c(c1[H])C([H])([H])C([H])([H])C([H])([H])C2([H])N([H])C(=O)C1([H])N(C(=O)C([H])(N([H])C(=O)C([H])(N([H])C([H])([H])[H])C([H])([H])[H])C(C([H])([H])[H])(C([H])([H])[H])C([H])([H])[H])C([H])([H])c2c([H])c(OC([H])([H])C(F)(C([H])([H])[H])C([H])([H])C(c3nc(C([H])(N([H])C(=O)N4C([H])([H])C([H])([H])C([H])([H])C([H])(n5nc(-c6c([H])c([H])c(Oc7c([H])c([H])c(F)c([H])c7F)c([H])c6[H])c(C(=O)N([H])[H])c5N([H])[H])C4([H])[H])C([H])([H])[H])n(C([H])([H])C([H])([H])[H])n3)(C([H])([H])[H])C(C([H])([H])[H])(C([H])([H])[H])C([H])([H])[H])c([H])c([H])c2C1([H])[H]

>  <smiles>  (31) 
[H]c1c([H])c([H])c2c(c1[H])C([H])([H])C([H])([H])C([H])([H])C2([H])N([H])C(=O)C1([H])N(C(=O)C([H])(N([H])C(=O)C([H])(N([H])C([H])([H])[H])C([H])([H])[H])C(C([H])([H])[H])(C([H])([H])[H])C([H])([H])[H])C([H])([H])c2c([H])c(OC([H])([H])C(F)(C([H])([H])[H])C([H])([H])C(c3nc(C([H])(N([H])C(=O)N4C([H])([H])C([H])([H])C([H])([H])C([H])(n5nc(-c6c([H])c([H])c(Oc7c([H])c([H])c(F)c([H])c7F)c([H])c6[H])c(C(=O)N([H])[H])c5N([H])[H])C4([H])[H])C([H])([H])[H])n(C([H])([H])C([H])([H])[H])n3)(C([H])([H])[H])C(C([H])([H])[H])(C([H])([H])[H])C([H])([H])[H])c([H])c([H])c2C1([H])[H]

$$$$
32:0:0
     RDKit          3D

 98106  0  0  1  0  0  0  0  0999 V2000
  -30.8730  -21.9100   18.9280 C   0  0  0  0  0  1  0  0  0  0  0  0
  -28.5050  -21.7960   18.2020 C   0  0  0  0  0  1  0  0  0  0  0  0
  -29.4470  -21.5670   19.4050 C   0  0  1  0  0  0  0  0  0  0  0  0
  -29.9020  -19.5300   21.0300 C   0  0  0  0  0  3  0  0  0  0  0  0
  -29.2400  -18.9510   18.8630 C   0  0  0  0  0  3  0  0  0  0  0  0
  -29.5020  -20.0150   19.7720 C   0  0  0  0  0  0  0  0  0  0  0  0
  -29.8350  -17.2700   20.3760 C   0  0  0  0  0  0  0  0  0  0  0  0
  -30.0320  -18.2120   21.3100 N   0  0  0  0  0  0  0  0  0  0  0  0
  -29.3810  -17.6220   19.1610 N   0  0  0  0  0  0  0  0  0  0  0  0
  -28.8020  -15.4920   21.8240 C   0  0  0  0  0  1  0  0  0  0  0  0
  -29.9780  -15.7490   20.8630 C   0  0  1  0  0  0  0  0  0  0  0  0
  -30.1440  -14.6020   19.7290 C   0  0  0  0  0  0  0  0  0  0  0  0
  -29.7460  -12.4550   18.4840 C   0  0  0  0  0  2  0  0  0  0  0  0
  -28.5980  -12.6090   17.4600 C   0  0  0  0  0  2  0  0  0  0  0  0
  -27.2240  -12.3500   18.1070 C   0  0  0  0  0  2  0  0  0  0  0  0
  -27.0740  -13.0750   19.4660 C   0  0  0  0  0  3  0  0  0  0  0  0
  -28.3170  -12.8330   20.3450 C   0  0  0  0  0  2  0  0  0  0  0  0
  -29.4920  -13.3760   19.6290 N   0  0  0  0  0  0  0  0  0  0  0  0
  -31.0200  -14.8260   18.8850 O   0  0  0  0  0  0  0  0  0  0  0  0
  -24.8230  -13.5120   20.6230 C   0  0  0  0  0  0  0  0  0  0  0  0
  -23.8580  -12.6660   21.1040 C   0  0  0  0  0  0  0  0  0  0  0  0
  -24.3420  -11.3430   20.8720 C   0  0  0  0  0  0  0  0  0  0  0  0
  -25.8350  -12.6980   20.1420 N   0  0  0  0  0  0  0  0  0  0  0  0
  -25.5570  -11.3830   20.3370 N   0  0  0  0  0  0  0  0  0  0  0  0
  -23.6940  -10.0410   21.0760 C   0  0  0  0  0  0  0  0  0  0  0  0
  -24.2340   -9.0780   21.9570 C   0  0  0  0  0  3  0  0  0  0  0  0
  -23.5790   -7.8420   22.1510 C   0  0  0  0  0  3  0  0  0  0  0  0
  -22.3720   -7.5610   21.4660 C   0  0  0  0  0  0  0  0  0  0  0  0
  -21.8540   -8.5140   20.5700 C   0  0  0  0  0  3  0  0  0  0  0  0
  -22.5090   -9.7410   20.3750 C   0  0  0  0  0  3  0  0  0  0  0  0
  -21.6800   -6.3780   21.5730 O   0  0  0  0  0  0  0  0  0  0  0  0
  -21.6770   -5.6490   22.7360 C   0  0  0  0  0  0  0  0  0  0  0  0
  -21.1910   -6.1850   23.9500 C   0  0  0  0  0  3  0  0  0  0  0  0
  -21.1390   -5.3790   25.1040 C   0  0  0  0  0  3  0  0  0  0  0  0
  -21.5660   -4.0370   25.0470 C   0  0  0  0  0  0  0  0  0  0  0  0
  -22.0460   -3.5020   23.8390 C   0  0  0  0  0  3  0  0  0  0  0  0
  -22.0980   -4.3050   22.6860 C   0  0  0  0  0  0  0  0  0  0  0  0
  -22.5390   -3.7770   21.5180 F   0  0  0  0  0  0  0  0  0  0  0  0
  -21.5110   -3.2610   26.1550 F   0  0  0  0  0  0  0  0  0  0  0  0
  -22.5190  -13.0600   21.6620 C   0  0  0  0  0  0  0  0  0  0  0  0
  -21.9840  -12.2660   22.5840 N   0  0  0  0  0  0  0  0  0  0  0  0
  -21.9660  -14.1010   21.3150 O   0  0  0  0  0  0  0  0  0  0  0  0
  -22.4510  -11.4230   22.8830 H   0  0  0  0  0  0  0  0  0  0  0  0
  -21.0900  -12.5040   22.9920 H   0  0  0  0  0  0  0  0  0  0  0  0
  -24.9150  -14.8970   20.5430 N   0  0  0  0  0  0  0  0  0  0  0  0
  -24.1670  -15.5050   20.8580 H   0  0  0  0  0  0  0  0  0  0  0  0
  -25.6720  -15.3990   20.0990 H   0  0  0  0  0  0  0  0  0  0  0  0
  -31.2910  -15.6330   21.7340 C   0  0  1  0  0  0  0  0  0  0  0  0
  -31.1790  -16.2150   22.9340 F   0  0  0  0  0  0  0  0  0  0  0  0
  -31.5980  -14.3550   21.9900 F   0  0  0  0  0  0  0  0  0  0  0  0
  -32.3540  -16.1730   21.1290 F   0  0  0  0  0  0  0  0  0  0  0  0
  -27.5680  -22.0380   21.0930 C   0  0  0  0  0  1  0  0  0  0  0  0
  -28.9520  -22.5400   20.6030 C   0  0  0  0  0  3  0  0  0  0  0  0
  -30.5480  -24.6360   20.5770 C   0  0  0  0  0  1  0  0  0  0  0  0
  -28.6100  -24.5930   22.1010 C   0  0  0  0  0  1  0  0  0  0  0  0
  -29.0730  -24.1770   20.6750 C   0  0  2  0  0  0  0  0  0  0  0  0
  -28.2090  -25.1110   19.7180 C   0  0  0  0  0  2  0  0  0  0  0  0
  -28.3250  -26.5660   19.9950 O   0  0  0  0  0  0  0  0  0  0  0  0
  -24.6270  -31.9030   23.1240 C   0  0  0  0  0  0  0  0  0  0  0  0
  -27.1920  -27.3890   19.9710 C   0  0  0  0  0  0  0  0  0  0  0  0
  -23.3980  -30.5200   21.4890 C   0  0  0  0  0  3  0  0  0  0  0  0
  -24.8250  -28.9860   20.0230 C   0  0  0  0  0  0  0  0  0  0  0  0
  -25.9340  -30.8390   21.2760 C   0  0  0  0  0  2  0  0  0  0  0  0
  -26.0000  -29.4710   20.6110 C   0  0  0  0  0  0  0  0  0  0  0  0
  -27.1860  -28.6790   20.5820 C   0  0  0  0  0  3  0  0  0  0  0  0
  -25.9990  -26.9620   19.3460 C   0  0  0  0  0  3  0  0  0  0  0  0
  -24.8240  -27.7370   19.3840 C   0  0  0  0  0  3  0  0  0  0  0  0
  -23.5910  -29.8580   20.0990 C   0  0  0  0  0  2  0  0  0  0  0  0
  -24.6720  -31.1050   22.0180 N   0  0  0  0  0  0  0  0  0  0  0  0
  -23.5520  -32.1740   23.6800 O   0  0  0  0  0  0  0  0  0  0  0  0
  -22.7520  -29.4920   22.4480 C   0  0  0  0  0  0  0  0  0  0  0  0
  -21.4260  -29.3040   22.3300 N   0  0  0  0  0  0  0  0  0  0  0  0
  -23.4420  -28.8680   23.2590 O   0  0  0  0  0  0  0  0  0  0  0  0
  -20.9260  -29.8620   21.6520 H   0  0  0  0  0  0  0  0  0  0  0  0
  -18.0610  -28.0940   22.8660 C   0  0  0  0  0  0  0  0  0  0  0  0
  -20.6220  -28.3580   23.1040 C   0  0  0  0  0  3  0  0  0  0  0  0
  -20.7200  -26.9310   22.5170 C   0  0  0  0  0  2  0  0  0  0  0  0
  -19.6080  -26.6150   21.5120 C   0  0  0  0  0  2  0  0  0  0  0  0
  -18.2320  -26.7510   22.1730 C   0  0  0  0  0  2  0  0  0  0  0  0
  -19.1830  -28.8550   23.2870 C   0  0  0  0  0  0  0  0  0  0  0  0
  -18.9690  -30.1130   23.8920 C   0  0  0  0  0  3  0  0  0  0  0  0
  -17.6660  -30.6100   24.0770 C   0  0  0  0  0  3  0  0  0  0  0  0
  -16.5580  -29.8460   23.6700 C   0  0  0  0  0  3  0  0  0  0  0  0
  -16.7560  -28.5880   23.0730 C   0  0  0  0  0  3  0  0  0  0  0  0
  -25.9220  -32.5300   23.7280 C   0  0  0  0  0  3  0  0  0  0  0  0
  -25.6040  -33.9120   24.1200 N   0  0  0  0  0  0  0  0  0  0  0  0
  -25.9010  -34.9970   23.3930 C   0  0  0  0  0  0  0  0  0  0  0  0
  -26.5420  -34.9430   22.3400 O   0  0  0  0  0  0  0  0  0  0  0  0
  -25.0290  -34.0240   24.9410 H   0  0  0  0  0  0  0  0  0  0  0  0
  -24.1520  -36.7890   23.1430 C   0  0  0  0  0  1  0  0  0  0  0  0
  -25.4090  -36.3600   23.9170 C   0  0  0  0  0  3  0  0  0  0  0  0
  -27.5480  -37.2290   24.7560 C   0  0  0  0  0  1  0  0  0  0  0  0
  -26.4290  -37.4270   23.8360 N   0  0  0  0  0  0  0  0  0  0  0  0
  -26.0160  -38.3350   24.0360 H   0  0  0  0  0  0  0  0  0  0  0  0
  -26.4850  -31.7200   24.9610 C   0  0  1  0  0  0  0  0  0  0  0  0
  -25.4280  -31.4200   26.0470 C   0  0  0  0  0  1  0  0  0  0  0  0
  -27.0840  -30.3700   24.5020 C   0  0  0  0  0  1  0  0  0  0  0  0
  -27.6390  -32.5130   25.6220 C   0  0  0  0  0  1  0  0  0  0  0  0
  3  1  1  6
  2  3  1  0
  3  6  1  0
  3 53  1  0
  4  8  1  0
  5  9  2  0
  5  6  1  0
  6  4  2  0
  7 11  1  0
  7  8  2  0
  9  7  1  0
 11 48  1  0
 11 10  1  1
 12 11  1  0
 13 18  1  0
 14 15  1  0
 14 13  1  0
 16 15  1  0
 16 23  1  0
 16 17  1  0
 18 12  1  0
 18 17  1  0
 19 12  2  0
 20 21  2  0
 21 40  1  0
 22 25  1  0
 22 21  1  0
 23 24  1  0
 23 20  1  0
 24 22  2  0
 25 26  1  0
 26 27  2  0
 28 31  1  0
 28 27  1  0
 29 28  2  0
 30 29  1  0
 30 25  2  0
 31 32  1  0
 32 33  1  0
 33 34  2  0
 35 34  1  0
 35 39  1  0
 36 35  2  0
 37 32  2  0
 37 36  1  0
 38 37  1  0
 40 41  1  0
 41 43  1  0
 41 44  1  0
 42 40  2  0
 45 20  1  0
 45 46  1  0
 47 45  1  0
 48 50  1  1
 48 49  1  0
 51 48  1  0
 53 56  1  0
 53 52  1  0
 56 54  1  1
 56 55  1  0
 57 58  1  0
 57 56  1  0
 59 70  2  0
 60 58  1  0
 60 65  1  0
 61 69  1  0
 61 71  1  0
 62 68  1  0
 62 64  1  0
 63 69  1  0
 64 63  1  0
 65 64  2  0
 66 67  1  0
 66 60  2  0
 67 62  2  0
 68 61  1  0
 69 59  1  0
 71 73  2  0
 72 71  1  0
 74 72  1  0
 75 84  2  0
 75 80  1  0
 76 72  1  0
 76 80  1  0
 77 76  1  0
 78 79  1  0
 78 77  1  0
 79 75  1  0
 80 81  2  0
 81 82  1  0
 83 82  2  0
 84 83  1  0
 85 59  1  0
 85 86  1  0
 85 95  1  0
 86 89  1  0
 87 91  1  0
 87 86  1  0
 88 87  2  0
 91 90  1  0
 93 91  1  0
 93 94  1  0
 93 92  1  0
 95 98  1  1
 95 96  1  0
 97 95  1  0
M  ISO  4  11 100  12 100  57 101  58 101
M  END
>  <TORSDO>  (32) 
F 22

>  <SCORE>  (32) 
-11.025

>  <name>  (32) 
32

>  <ligand_id>  (32) 
32

>  <original_smiles>  (32) 
[H]c1nc(C(C(=O)N2C([H])([H])C([H])([H])C([H])([H])C([H])(n3nc(-c4c([H])c([H])c(Oc5c([H])c([H])c(F)c([H])c5F)c([H])c4[H])c(C(=O)N([H])[H])c3N([H])[H])C2([H])[H])(C([H])([H])[H])C(F)(F)F)nc([H])c1C(C([H])([H])[H])(C([H])([H])[H])C([H])(C([H])([H])[H])C(C([H])([H])[H])(C([H])([H])[H])C([H])([H])Oc1c([H])c([H])c2c(c1[H])C([H])([H])N(C(=O)C([H])(N([H])C(=O)C([H])(N([H])C([H])([H])[H])C([H])([H])[H])C(C([H])([H])[H])(C([H])([H])[H])C([H])([H])[H])C([H])(C(=O)N([H])C1([H])c3c([H])c([H])c([H])c([H])c3C([H])([H])C([H])([H])C1([H])[H])C2([H])[H]

>  <smiles>  (32) 
[H]c1nc(C(C(=O)N2C([H])([H])C([H])([H])C([H])([H])C([H])(n3nc(-c4c([H])c([H])c(Oc5c([H])c([H])c(F)c([H])c5F)c([H])c4[H])c(C(=O)N([H])[H])c3N([H])[H])C2([H])[H])(C([H])([H])[H])C(F)(F)F)nc([H])c1C(C([H])([H])[H])(C([H])([H])[H])C([H])(C([H])([H])[H])C(C([H])([H])[H])(C([H])([H])[H])C([H])([H])Oc1c([H])c([H])c2c(c1[H])C([H])([H])N(C(=O)C([H])(N([H])C(=O)C([H])(N([H])C([H])([H])[H])C([H])([H])[H])C(C([H])([H])[H])(C([H])([H])[H])C([H])([H])[H])C([H])(C(=O)N([H])C1([H])c3c([H])c([H])c([H])c([H])c3C([H])([H])C([H])([H])C1([H])[H])C2([H])[H]

$$$$
33:0:0
     RDKit          3D

104112  0  0  1  0  0  0  0  0999 V2000
  -28.8130  -21.6390   20.9660 C   0  0  0  0  0  1  0  0  0  0  0  0
  -29.7550  -21.3440   19.8200 C   0  0  2  0  0  0  0  0  0  0  0  0
  -30.6420  -18.8510   19.3370 C   0  0  0  0  0  2  0  0  0  0  0  0
  -31.4340  -17.8560   19.9210 C   0  0  0  0  0  3  0  0  0  0  0  0
  -31.2740  -19.6120   21.3130 C   0  0  0  0  0  3  0  0  0  0  0  0
  -30.6450  -20.0270   20.1320 N   0  0  0  0  0  0  0  0  0  0  0  0
  -31.9190  -18.4450   21.0370 N   0  0  0  0  0  0  0  0  0  0  0  0
  -32.4800  -17.9630   21.7260 H   0  0  0  0  0  0  0  0  0  0  0  0
  -32.2890  -15.3340   20.0770 C   0  0  0  0  0  0  0  0  0  0  0  0
  -32.1080  -12.9010   19.5030 C   0  0  0  0  0  2  0  0  0  0  0  0
  -31.2150  -12.7830   18.2520 C   0  0  0  0  0  2  0  0  0  0  0  0
  -29.7210  -12.7380   18.6440 C   0  0  0  0  0  2  0  0  0  0  0  0
  -29.3390  -13.8410   19.6640 C   0  0  0  0  0  3  0  0  0  0  0  0
  -30.3560  -13.9210   20.8260 C   0  0  0  0  0  2  0  0  0  0  0  0
  -31.6720  -14.1180   20.2160 N   0  0  0  0  0  0  0  0  0  0  0  0
  -33.5140  -15.3970   19.9330 O   0  0  0  0  0  0  0  0  0  0  0  0
  -31.4520  -16.3830   19.6970 N   0  0  0  0  0  0  0  0  0  0  0  0
  -30.5740  -16.0210   19.3470 H   0  0  0  0  0  0  0  0  0  0  0  0
  -27.0400  -14.7030   20.3890 C   0  0  0  0  0  0  0  0  0  0  0  0
  -25.8850  -14.0670   20.7310 C   0  0  0  0  0  0  0  0  0  0  0  0
  -26.1800  -12.6660   20.6740 C   0  0  0  0  0  0  0  0  0  0  0  0
  -27.9690  -13.7080   20.1400 N   0  0  0  0  0  0  0  0  0  0  0  0
  -27.4580  -12.4720   20.3730 N   0  0  0  0  0  0  0  0  0  0  0  0
  -25.3060  -11.4980   20.8260 C   0  0  0  0  0  0  0  0  0  0  0  0
  -25.5910  -10.4860   21.7710 C   0  0  0  0  0  3  0  0  0  0  0  0
  -24.7270   -9.3790   21.9160 C   0  0  0  0  0  3  0  0  0  0  0  0
  -23.5620   -9.2830   21.1140 C   0  0  0  0  0  0  0  0  0  0  0  0
  -23.2950  -10.2820   20.1610 C   0  0  0  0  0  3  0  0  0  0  0  0
  -24.1590  -11.3800   20.0150 C   0  0  0  0  0  3  0  0  0  0  0  0
  -22.6830   -8.2290   21.1570 O   0  0  0  0  0  0  0  0  0  0  0  0
  -22.4200   -7.5600   22.3240 C   0  0  0  0  0  0  0  0  0  0  0  0
  -21.9400   -8.2280   23.4720 C   0  0  0  0  0  3  0  0  0  0  0  0
  -21.6220   -7.4940   24.6330 C   0  0  0  0  0  3  0  0  0  0  0  0
  -21.7740   -6.0940   24.6420 C   0  0  0  0  0  0  0  0  0  0  0  0
  -22.2510   -5.4290   23.4980 C   0  0  0  0  0  3  0  0  0  0  0  0
  -22.5670   -6.1600   22.3420 C   0  0  0  0  0  0  0  0  0  0  0  0
  -23.0060   -5.5130   21.2360 F   0  0  0  0  0  0  0  0  0  0  0  0
  -21.4580   -5.3860   25.7510 F   0  0  0  0  0  0  0  0  0  0  0  0
  -24.5530  -14.7020   21.0020 C   0  0  0  0  0  0  0  0  0  0  0  0
  -23.7540  -14.0930   21.8680 N   0  0  0  0  0  0  0  0  0  0  0  0
  -24.2350  -15.7720   20.4810 O   0  0  0  0  0  0  0  0  0  0  0  0
  -24.0220  -13.2210   22.3000 H   0  0  0  0  0  0  0  0  0  0  0  0
  -22.8620  -14.5000   22.1060 H   0  0  0  0  0  0  0  0  0  0  0  0
  -27.3770  -16.0510   20.2370 N   0  0  0  0  0  0  0  0  0  0  0  0
  -26.6980  -16.7980   20.3360 H   0  0  0  0  0  0  0  0  0  0  0  0
  -28.2430  -16.3560   19.8180 H   0  0  0  0  0  0  0  0  0  0  0  0
  -29.8530  -19.0250   23.2910 C   0  0  0  0  0  1  0  0  0  0  0  0
  -31.0050  -21.2360   23.4850 C   0  0  0  0  0  1  0  0  0  0  0  0
  -32.2630  -19.1650   23.6680 C   0  0  0  0  0  1  0  0  0  0  0  0
  -31.1020  -19.8220   22.8610 C   0  0  2  0  0  0  0  0  0  0  0  0
  -30.4730  -22.8580   19.7320 C   0  0  1  0  0  0  0  0  0  0  0  0
  -31.1980  -22.9640   20.8520 F   0  0  0  0  0  0  0  0  0  0  0  0
  -32.8250  -22.2300   18.4900 C   0  0  0  0  0  1  0  0  0  0  0  0
  -31.4890  -22.9870   18.5410 C   0  0  0  0  0  2  0  0  0  0  0  0
  -29.7010  -24.3640   19.6190 C   0  0  0  0  0  2  0  0  0  0  0  0
  -28.7850  -25.2820   20.6130 C   0  0  0  0  0  2  0  0  0  0  0  0
  -28.9170  -26.7980   20.6080 O   0  0  0  0  0  0  0  0  0  0  0  0
  -24.7970  -32.0570   23.5420 C   0  0  0  0  0  0  0  0  0  0  0  0
  -27.7760  -27.6390   20.5550 C   0  0  0  0  0  0  0  0  0  0  0  0
  -23.7640  -30.6630   21.7940 C   0  0  0  0  0  3  0  0  0  0  0  0
  -25.3570  -29.2000   20.4270 C   0  0  0  0  0  0  0  0  0  0  0  0
  -26.2980  -31.0740   21.7780 C   0  0  0  0  0  2  0  0  0  0  0  0
  -26.4740  -29.7090   21.1060 C   0  0  0  0  0  0  0  0  0  0  0  0
  -27.6850  -28.9410   21.1610 C   0  0  0  0  0  3  0  0  0  0  0  0
  -26.6380  -27.2050   19.8440 C   0  0  0  0  0  3  0  0  0  0  0  0
  -25.4410  -27.9490   19.7930 C   0  0  0  0  0  3  0  0  0  0  0  0
  -24.0900  -30.0360   20.4150 C   0  0  0  0  0  2  0  0  0  0  0  0
  -24.9700  -31.2820   22.4300 N   0  0  0  0  0  0  0  0  0  0  0  0
  -23.6730  -32.2680   24.0240 O   0  0  0  0  0  0  0  0  0  0  0  0
  -23.0760  -29.5960   22.6760 C   0  0  0  0  0  0  0  0  0  0  0  0
  -21.7800  -29.3400   22.4410 N   0  0  0  0  0  0  0  0  0  0  0  0
  -23.7240  -28.9890   23.5380 O   0  0  0  0  0  0  0  0  0  0  0  0
  -21.3170  -29.8580   21.7030 H   0  0  0  0  0  0  0  0  0  0  0  0
  -18.4450  -27.9640   22.7200 C   0  0  0  0  0  0  0  0  0  0  0  0
  -20.9650  -28.3440   23.1440 C   0  0  0  0  0  3  0  0  0  0  0  0
  -21.1790  -26.9300   22.5450 C   0  0  0  0  0  2  0  0  0  0  0  0
  -20.1450  -26.5590   21.4760 C   0  0  0  0  0  2  0  0  0  0  0  0
  -18.7260  -26.6310   22.0440 C   0  0  0  0  0  2  0  0  0  0  0  0
  -19.4950  -28.7720   23.2290 C   0  0  0  0  0  0  0  0  0  0  0  0
  -19.1780  -30.0070   23.8400 C   0  0  0  0  0  3  0  0  0  0  0  0
  -17.8390  -30.4430   23.9350 C   0  0  0  0  0  3  0  0  0  0  0  0
  -16.8050  -29.6350   23.4340 C   0  0  0  0  0  3  0  0  0  0  0  0
  -17.1050  -28.3980   22.8360 C   0  0  0  0  0  3  0  0  0  0  0  0
  -26.0100  -32.7320   24.2550 C   0  0  0  0  0  3  0  0  0  0  0  0
  -26.4590  -31.9700   25.5660 C   0  0  1  0  0  0  0  0  0  0  0  0
  -25.2820  -31.6200   26.5110 C   0  0  0  0  0  1  0  0  0  0  0  0
  -27.1900  -30.6560   25.2090 C   0  0  0  0  0  1  0  0  0  0  0  0
  -27.4710  -32.8340   26.3570 C   0  0  0  0  0  1  0  0  0  0  0  0
  -25.6240  -34.1140   24.5630 N   0  0  0  0  0  0  0  0  0  0  0  0
  -25.9730  -35.1840   23.8370 C   0  0  0  0  0  0  0  0  0  0  0  0
  -26.7090  -35.1140   22.8510 O   0  0  0  0  0  0  0  0  0  0  0  0
  -24.9770  -34.2390   25.3280 H   0  0  0  0  0  0  0  0  0  0  0  0
  -24.1940  -36.9100   23.4030 C   0  0  0  0  0  1  0  0  0  0  0  0
  -25.4100  -36.5520   24.2720 C   0  0  0  0  0  3  0  0  0  0  0  0
  -27.4900  -37.5030   25.1660 C   0  0  0  0  0  1  0  0  0  0  0  0
  -26.4020  -37.6470   24.2040 N   0  0  0  0  0  0  0  0  0  0  0  0
  -25.9570  -38.5500   24.3600 H   0  0  0  0  0  0  0  0  0  0  0  0
  -28.9850  -20.8770   18.5100 C   0  0  0  0  0  2  0  0  0  0  0  0
  -27.7420  -20.7480   16.3700 C   0  0  0  0  0  1  0  0  0  0  0  0
  -28.2220  -21.7540   17.4590 C   0  0  1  0  0  0  0  0  0  0  0  0
  -25.6940  -22.6130   17.3160 C   0  0  0  0  0  1  0  0  0  0  0  0
  -26.9920  -22.4580   18.1190 C   0  0  0  0  0  2  0  0  0  0  0  0
  -28.5640  -23.6270   15.6870 C   0  0  0  0  0  1  0  0  0  0  0  0
  -29.1630  -22.7860   16.8200 C   0  0  0  0  0  2  0  0  0  0  0  0
  2  6  1  0
  2  1  1  1
  3  4  1  0
  3  6  1  0
  4 17  1  0
  4  7  1  0
  5 50  1  0
  6  5  1  0
  7  5  1  0
  7  8  1  0
  9 15  1  0
 10 15  1  0
 11 12  1  0
 11 10  1  0
 13 12  1  0
 13 22  1  0
 13 14  1  0
 15 14  1  0
 16  9  2  0
 17  9  1  0
 18 17  1  0
 19 20  2  0
 20 39  1  0
 21 20  1  0
 21 24  1  0
 22 23  1  0
 22 19  1  0
 23 21  2  0
 24 25  1  0
 25 26  2  0
 27 30  1  0
 27 26  1  0
 28 27  2  0
 29 28  1  0
 29 24  2  0
 30 31  1  0
 31 36  2  0
 31 32  1  0
 32 33  2  0
 33 34  1  0
 34 38  1  0
 35 34  2  0
 36 35  1  0
 37 36  1  0
 39 40  1  0
 40 43  1  0
 40 42  1  0
 41 39  2  0
 44 45  1  0
 44 19  1  0
 46 44  1  0
 50 47  1  1
 50 48  1  0
 50 49  1  0
 51  2  1  0
 51 52  1  1
 53 54  1  0
 54 51  1  0
 55 51  1  0
 55 56  1  0
 57 56  1  0
 58 69  2  0
 59 57  1  0
 59 64  1  0
 60 68  1  0
 60 70  1  0
 61 63  1  0
 62 68  1  0
 63 64  2  0
 63 62  1  0
 65 59  2  0
 66 65  1  0
 66 61  2  0
 67 61  1  0
 67 60  1  0
 68 58  1  0
 70 72  2  0
 71 70  1  0
 73 71  1  0
 74 83  2  0
 74 79  1  0
 75 71  1  0
 75 79  1  0
 76 75  1  0
 77 78  1  0
 77 76  1  0
 78 74  1  0
 79 80  2  0
 80 81  1  0
 82 81  2  0
 83 82  1  0
 84 58  1  0
 84 89  1  0
 84 85  1  0
 85 88  1  1
 85 86  1  0
 87 85  1  0
 89 92  1  0
 90 94  1  0
 90 89  1  0
 91 90  2  0
 94 93  1  0
 96 94  1  0
 96 97  1  0
 96 95  1  0
 98  2  1  0
100 99  1  6
100102  1  0
100 98  1  0
101102  1  0
103104  1  0
104100  1  0
M  ISO  4   9 100  17 100  56 101  57 101
M  END
>  <TORSDO>  (33) 
F 26

>  <SCORE>  (33) 
-6.315

>  <name>  (33) 
33

>  <ligand_id>  (33) 
33

>  <original_smiles>  (33) 
[H]c1c([H])c([H])c2c(c1[H])C([H])([H])C([H])([H])C([H])([H])C2([H])N([H])C(=O)C1([H])N(C(=O)C([H])(N([H])C(=O)C([H])(N([H])C([H])([H])[H])C([H])([H])[H])C(C([H])([H])[H])(C([H])([H])[H])C([H])([H])[H])C([H])([H])c2c([H])c(OC([H])([H])C([H])([H])C(F)(C([H])([H])C([H])([H])[H])C(n3c([H])c(N([H])C(=O)N4C([H])([H])C([H])([H])C([H])([H])C([H])(n5nc(-c6c([H])c([H])c(Oc7c([H])c([H])c(F)c([H])c7F)c([H])c6[H])c(C(=O)N([H])[H])c5N([H])[H])C4([H])[H])[n+]([H])c3C(C([H])([H])[H])(C([H])([H])[H])C([H])([H])[H])(C([H])([H])[H])C([H])([H])C(C([H])([H])[H])(C([H])([H])C([H])([H])[H])C([H])([H])C([H])([H])[H])c([H])c([H])c2C1([H])[H]

>  <smiles>  (33) 
[H]c1c([H])c([H])c2c(c1[H])C([H])([H])C([H])([H])C([H])([H])C2([H])N([H])C(=O)C1([H])N(C(=O)C([H])(N([H])C(=O)C([H])(N([H])C([H])([H])[H])C([H])([H])[H])C(C([H])([H])[H])(C([H])([H])[H])C([H])([H])[H])C([H])([H])c2c([H])c(OC([H])([H])C([H])([H])C(F)(C([H])([H])C([H])([H])[H])C(n3c([H])c(N([H])C(=O)N4C([H])([H])C([H])([H])C([H])([H])C([H])(n5nc(-c6c([H])c([H])c(Oc7c([H])c([H])c(F)c([H])c7F)c([H])c6[H])c(C(=O)N([H])[H])c5N([H])[H])C4([H])[H])[n+]([H])c3C(C([H])([H])[H])(C([H])([H])[H])C([H])([H])[H])(C([H])([H])[H])C([H])([H])C(C([H])([H])[H])(C([H])([H])C([H])([H])[H])C([H])([H])C([H])([H])[H])c([H])c([H])c2C1([H])[H]

$$$$
34:0:0
     RDKit          3D

102110  0  0  1  0  0  0  0  0999 V2000
  -29.8510  -19.8460   18.2430 C   0  0  0  0  0  2  0  0  0  0  0  0
  -31.9780  -16.9930   19.1490 C   0  0  0  0  0  3  0  0  0  0  0  0
  -31.9470  -18.2220   18.5590 C   0  0  0  0  0  0  0  0  0  0  0  0
  -30.5730  -18.6110   18.7320 C   0  0  0  0  0  0  0  0  0  0  0  0
  -29.8650  -17.6790   19.3790 N   0  0  0  0  0  0  0  0  0  0  0  0
  -30.7180  -16.6450   19.5990 N   0  0  0  0  0  0  0  0  0  0  0  0
  -34.4480  -18.5400   18.6080 C   0  0  0  0  0  1  0  0  0  0  0  0
  -33.0810  -20.3860   17.7010 C   0  0  0  0  0  1  0  0  0  0  0  0
  -33.2420  -18.2540   16.4290 C   0  0  0  0  0  1  0  0  0  0  0  0
  -33.1460  -18.8580   17.8410 C   0  0  2  0  0  0  0  0  0  0  0  0
  -30.2690  -15.3710   20.2220 C   0  0  0  0  0  3  0  0  0  0  0  0
  -30.4470  -14.1940   19.1960 C   0  0  0  0  0  0  0  0  0  0  0  0
  -29.5870  -12.3250   17.8280 C   0  0  0  0  0  2  0  0  0  0  0  0
  -28.4360  -12.7940   16.9210 C   0  0  0  0  0  2  0  0  0  0  0  0
  -27.0920  -12.6560   17.6580 C   0  0  0  0  0  2  0  0  0  0  0  0
  -27.1220  -13.2850   19.0740 C   0  0  0  0  0  3  0  0  0  0  0  0
  -28.3830  -12.8680   19.8630 C   0  0  0  0  0  2  0  0  0  0  0  0
  -29.5700  -13.1600   19.0460 N   0  0  0  0  0  0  0  0  0  0  0  0
  -31.4020  -14.2830   18.4180 O   0  0  0  0  0  0  0  0  0  0  0  0
  -24.9420  -13.8480   20.3160 C   0  0  0  0  0  0  0  0  0  0  0  0
  -23.9610  -13.0570   20.8510 C   0  0  0  0  0  0  0  0  0  0  0  0
  -24.3840  -11.7070   20.6420 C   0  0  0  0  0  0  0  0  0  0  0  0
  -25.8990  -12.9810   19.8140 N   0  0  0  0  0  0  0  0  0  0  0  0
  -25.5800  -11.6850   20.0670 N   0  0  0  0  0  0  0  0  0  0  0  0
  -23.6930  -10.4370   20.9040 C   0  0  0  0  0  0  0  0  0  0  0  0
  -24.2730   -9.4300   21.7070 C   0  0  0  0  0  3  0  0  0  0  0  0
  -23.5810   -8.2240   21.9560 C   0  0  0  0  0  3  0  0  0  0  0  0
  -22.2940   -8.0170   21.4050 C   0  0  0  0  0  0  0  0  0  0  0  0
  -21.7290   -9.0150   20.5890 C   0  0  0  0  0  3  0  0  0  0  0  0
  -22.4220  -10.2110   20.3370 C   0  0  0  0  0  3  0  0  0  0  0  0
  -21.5570   -6.8700   21.5760 O   0  0  0  0  0  0  0  0  0  0  0  0
  -21.6880   -6.0910   22.6980 C   0  0  0  0  0  0  0  0  0  0  0  0
  -21.4770   -6.6110   23.9950 C   0  0  0  0  0  3  0  0  0  0  0  0
  -21.5500   -5.7590   25.1140 C   0  0  0  0  0  3  0  0  0  0  0  0
  -21.8250   -4.3880   24.9410 C   0  0  0  0  0  0  0  0  0  0  0  0
  -22.0300   -3.8690   23.6510 C   0  0  0  0  0  3  0  0  0  0  0  0
  -21.9590   -4.7180   22.5330 C   0  0  0  0  0  0  0  0  0  0  0  0
  -22.1360   -4.2080   21.2890 F   0  0  0  0  0  0  0  0  0  0  0  0
  -21.8880   -3.5680   26.0150 F   0  0  0  0  0  0  0  0  0  0  0  0
  -22.6600  -13.5190   21.4410 C   0  0  0  0  0  0  0  0  0  0  0  0
  -22.1360  -12.7850   22.4150 N   0  0  0  0  0  0  0  0  0  0  0  0
  -22.1270  -14.5650   21.0730 O   0  0  0  0  0  0  0  0  0  0  0  0
  -22.5850  -11.9380   22.7320 H   0  0  0  0  0  0  0  0  0  0  0  0
  -21.2750  -13.0760   22.8540 H   0  0  0  0  0  0  0  0  0  0  0  0
  -25.0910  -15.2250   20.1920 N   0  0  0  0  0  0  0  0  0  0  0  0
  -24.3880  -15.8790   20.5160 H   0  0  0  0  0  0  0  0  0  0  0  0
  -25.8720  -15.6770   19.7310 H   0  0  0  0  0  0  0  0  0  0  0  0
  -32.4770  -14.8390   21.5540 C   0  0  0  0  0  1  0  0  0  0  0  0
  -30.7860  -16.4080   22.5130 C   0  0  0  0  0  1  0  0  0  0  0  0
  -30.3060  -13.9810   22.4080 C   0  0  0  0  0  1  0  0  0  0  0  0
  -30.9600  -15.1450   21.6340 C   0  0  1  0  0  0  0  0  0  0  0  0
  -30.0190  -21.0660   19.1840 C   0  0  0  0  0  2  0  0  0  0  0  0
  -29.9560  -22.6750   17.1720 C   0  0  0  0  0  1  0  0  0  0  0  0
  -28.0040  -22.5250   18.7280 C   0  0  0  0  0  1  0  0  0  0  0  0
  -29.5420  -22.4530   18.6480 C   0  0  1  0  0  0  0  0  0  0  0  0
  -30.1850  -23.6110   19.4830 C   0  0  1  0  0  0  0  0  0  0  0  0
  -31.5120  -23.4600   19.4690 F   0  0  0  0  0  0  0  0  0  0  0  0
  -29.9050  -24.7710   18.8860 F   0  0  0  0  0  0  0  0  0  0  0  0
  -29.7430  -23.7240   20.9630 C   0  0  0  0  0  2  0  0  0  0  0  0
  -30.2360  -25.0130   21.6640 C   0  0  0  0  0  2  0  0  0  0  0  0
  -29.1790  -26.1260   21.7780 C   0  0  0  0  0  2  0  0  0  0  0  0
  -28.6940  -26.4700   20.4850 O   0  0  0  0  0  0  0  0  0  0  0  0
  -24.7390  -31.7090   23.2860 C   0  0  0  0  0  0  0  0  0  0  0  0
  -27.5390  -27.2090   20.4690 C   0  0  0  0  0  0  0  0  0  0  0  0
  -23.6070  -30.2440   21.6430 C   0  0  0  0  0  3  0  0  0  0  0  0
  -25.1290  -28.6680   20.3340 C   0  0  0  0  0  0  0  0  0  0  0  0
  -26.1340  -30.6180   21.5380 C   0  0  0  0  0  2  0  0  0  0  0  0
  -26.2530  -29.2260   20.9590 C   0  0  0  0  0  0  0  0  0  0  0  0
  -27.4590  -28.4990   21.0350 C   0  0  0  0  0  3  0  0  0  0  0  0
  -26.4090  -26.6600   19.8340 C   0  0  0  0  0  3  0  0  0  0  0  0
  -25.1980  -27.3790   19.7750 C   0  0  0  0  0  3  0  0  0  0  0  0
  -23.8770  -29.5160   20.2980 C   0  0  0  0  0  2  0  0  0  0  0  0
  -24.8420  -30.8750   22.2130 N   0  0  0  0  0  0  0  0  0  0  0  0
  -23.6360  -31.9930   23.7730 O   0  0  0  0  0  0  0  0  0  0  0  0
  -22.9230  -29.2530   22.6110 C   0  0  0  0  0  0  0  0  0  0  0  0
  -21.6030  -29.0720   22.4450 N   0  0  0  0  0  0  0  0  0  0  0  0
  -23.5790  -28.6470   23.4620 O   0  0  0  0  0  0  0  0  0  0  0  0
  -21.1390  -29.6120   21.7260 H   0  0  0  0  0  0  0  0  0  0  0  0
  -18.2040  -27.9340   22.8850 C   0  0  0  0  0  0  0  0  0  0  0  0
  -20.7570  -28.1600   23.2120 C   0  0  0  0  0  3  0  0  0  0  0  0
  -20.8520  -26.7180   22.6650 C   0  0  0  0  0  2  0  0  0  0  0  0
  -19.7710  -26.3920   21.6310 C   0  0  0  0  0  2  0  0  0  0  0  0
  -18.3770  -26.5680   22.2390 C   0  0  0  0  0  2  0  0  0  0  0  0
  -19.3220  -28.6880   23.3270 C   0  0  0  0  0  0  0  0  0  0  0  0
  -19.1090  -29.9650   23.8880 C   0  0  0  0  0  3  0  0  0  0  0  0
  -17.8090  -30.4890   24.0120 C   0  0  0  0  0  3  0  0  0  0  0  0
  -16.7030  -29.7320   23.5880 C   0  0  0  0  0  3  0  0  0  0  0  0
  -16.9020  -28.4560   23.0290 C   0  0  0  0  0  3  0  0  0  0  0  0
  -25.9980  -32.3650   23.9360 C   0  0  0  0  0  3  0  0  0  0  0  0
  -26.4880  -31.6210   25.2380 C   0  0  1  0  0  0  0  0  0  0  0  0
  -25.3660  -31.3770   26.2740 C   0  0  0  0  0  1  0  0  0  0  0  0
  -27.1080  -30.2500   24.8820 C   0  0  0  0  0  1  0  0  0  0  0  0
  -27.6010  -32.4470   25.9270 C   0  0  0  0  0  1  0  0  0  0  0  0
  -25.6620  -33.7650   24.2300 N   0  0  0  0  0  0  0  0  0  0  0  0
  -25.9980  -34.8050   23.4560 C   0  0  0  0  0  0  0  0  0  0  0  0
  -26.6920  -34.6920   22.4430 O   0  0  0  0  0  0  0  0  0  0  0  0
  -25.0460  -33.9270   25.0130 H   0  0  0  0  0  0  0  0  0  0  0  0
  -24.2470  -36.5600   23.0290 C   0  0  0  0  0  1  0  0  0  0  0  0
  -25.4780  -36.1950   23.8730 C   0  0  0  0  0  3  0  0  0  0  0  0
  -27.5820  -37.1310   24.7240 C   0  0  0  0  0  1  0  0  0  0  0  0
  -26.4950  -37.2620   23.7570 N   0  0  0  0  0  0  0  0  0  0  0  0
  -26.0710  -38.1780   23.8780 H   0  0  0  0  0  0  0  0  0  0  0  0
  1  4  1  0
  1 52  1  0
  2  6  1  0
  3  4  1  0
  3  2  2  0
  4  5  2  0
  5  6  1  0
  6 11  1  0
 10  8  1  6
  9 10  1  0
 10  3  1  0
 10  7  1  0
 11 12  1  0
 11 51  1  0
 13 18  1  0
 14 15  1  0
 14 13  1  0
 16 15  1  0
 16 23  1  0
 16 17  1  0
 18 12  1  0
 18 17  1  0
 19 12  2  0
 20 21  2  0
 21 40  1  0
 22 21  1  0
 22 25  1  0
 23 24  1  0
 23 20  1  0
 24 22  2  0
 25 26  1  0
 26 27  2  0
 28 31  1  0
 28 27  1  0
 29 28  2  0
 30 29  1  0
 30 25  2  0
 31 32  1  0
 32 33  1  0
 33 34  2  0
 35 34  1  0
 35 39  1  0
 36 35  2  0
 37 32  2  0
 37 36  1  0
 38 37  1  0
 40 41  1  0
 41 43  1  0
 41 44  1  0
 42 40  2  0
 45 20  1  0
 45 46  1  0
 47 45  1  0
 51 48  1  6
 51 50  1  0
 51 49  1  0
 55 53  1  6
 55 54  1  0
 55 52  1  0
 55 56  1  0
 56 59  1  0
 56 57  1  1
 58 56  1  0
 59 60  1  0
 60 61  1  0
 62 61  1  0
 63 74  2  0
 64 62  1  0
 64 69  1  0
 65 73  1  0
 65 75  1  0
 66 68  1  0
 67 73  1  0
 68 69  2  0
 68 67  1  0
 70 64  2  0
 71 70  1  0
 71 66  2  0
 72 66  1  0
 72 65  1  0
 73 63  1  0
 75 77  2  0
 76 75  1  0
 78 76  1  0
 79 88  2  0
 79 84  1  0
 80 76  1  0
 80 84  1  0
 81 80  1  0
 82 83  1  0
 82 81  1  0
 83 79  1  0
 84 85  2  0
 85 86  1  0
 87 86  2  0
 88 87  1  0
 89 63  1  0
 89 94  1  0
 89 90  1  0
 90 93  1  1
 90 91  1  0
 92 90  1  0
 94 97  1  0
 95 99  1  0
 95 94  1  0
 96 95  2  0
 99 98  1  0
101 99  1  0
101102  1  0
101100  1  0
M  ISO  4  11 100  12 100  61 101  62 101
M  END
>  <TORSDO>  (34) 
F 26

>  <SCORE>  (34) 
-7.206

>  <name>  (34) 
34

>  <ligand_id>  (34) 
34

>  <original_smiles>  (34) 
[H]c1c([H])c([H])c2c(c1[H])C([H])([H])C([H])([H])C([H])([H])C2([H])N([H])C(=O)C1([H])N(C(=O)C([H])(N([H])C(=O)C([H])(N([H])C([H])([H])[H])C([H])([H])[H])C(C([H])([H])[H])(C([H])([H])[H])C([H])([H])[H])C([H])([H])c2c([H])c(OC([H])([H])C([H])([H])C([H])([H])C(F)(F)C(C([H])([H])[H])(C([H])([H])[H])C([H])([H])C([H])([H])c3nn(C([H])(C(=O)N4C([H])([H])C([H])([H])C([H])([H])C([H])(n5nc(-c6c([H])c([H])c(Oc7c([H])c([H])c(F)c([H])c7F)c([H])c6[H])c(C(=O)N([H])[H])c5N([H])[H])C4([H])[H])C(C([H])([H])[H])(C([H])([H])[H])C([H])([H])[H])c([H])c3C(C([H])([H])[H])(C([H])([H])[H])C([H])([H])[H])c([H])c([H])c2C1([H])[H]

>  <smiles>  (34) 
[H]c1c([H])c([H])c2c(c1[H])C([H])([H])C([H])([H])C([H])([H])C2([H])N([H])C(=O)C1([H])N(C(=O)C([H])(N([H])C(=O)C([H])(N([H])C([H])([H])[H])C([H])([H])[H])C(C([H])([H])[H])(C([H])([H])[H])C([H])([H])[H])C([H])([H])c2c([H])c(OC([H])([H])C([H])([H])C([H])([H])C(F)(F)C(C([H])([H])[H])(C([H])([H])[H])C([H])([H])C([H])([H])c3nn(C([H])(C(=O)N4C([H])([H])C([H])([H])C([H])([H])C([H])(n5nc(-c6c([H])c([H])c(Oc7c([H])c([H])c(F)c([H])c7F)c([H])c6[H])c(C(=O)N([H])[H])c5N([H])[H])C4([H])[H])C(C([H])([H])[H])(C([H])([H])[H])C([H])([H])[H])c([H])c3C(C([H])([H])[H])(C([H])([H])[H])C([H])([H])[H])c([H])c([H])c2C1([H])[H]

$$$$
35:0:0
     RDKit          3D

102110  0  0  1  0  0  0  0  0999 V2000
  -31.6050  -21.9700   19.0170 C   0  0  0  0  0  0  0  0  0  0  0  0
  -31.2520  -21.7250   17.7010 C   0  0  0  0  0  0  0  0  0  0  0  0
  -30.2130  -20.1950   18.9890 C   0  0  0  0  0  3  0  0  0  0  0  0
  -30.9720  -20.9920   19.7790 N   0  0  0  0  0  0  0  0  0  0  0  0
  -30.3650  -20.6880   17.7580 N   0  0  0  0  0  0  0  0  0  0  0  0
  -29.9170  -20.2850   16.9440 H   0  0  0  0  0  0  0  0  0  0  0  0
  -33.0660  -22.8400   16.3230 C   0  0  0  0  0  1  0  0  0  0  0  0
  -30.6320  -23.4870   16.0530 C   0  0  0  0  0  1  0  0  0  0  0  0
  -31.4810  -21.2810   15.2340 C   0  0  0  0  0  1  0  0  0  0  0  0
  -31.6080  -22.3380   16.3570 C   0  0  2  0  0  0  0  0  0  0  0  0
  -28.1850  -19.2910   20.2050 C   0  0  0  0  0  1  0  0  0  0  0  0
  -28.7290  -18.4560   17.9420 C   0  0  0  0  0  1  0  0  0  0  0  0
  -29.3720  -18.9390   19.2750 C   0  0  1  0  0  0  0  0  0  0  0  0
  -31.5510  -17.5440   19.0680 C   0  0  0  0  0  1  0  0  0  0  0  0
  -30.2490  -17.7680   19.8730 C   0  0  0  0  0  3  0  0  0  0  0  0
  -29.4770  -16.4240   20.1100 C   0  0  0  0  0  2  0  0  0  0  0  0
  -30.7950  -14.3190   20.1180 C   0  0  0  0  0  0  0  0  0  0  0  0
  -30.3520  -12.2000   18.9420 C   0  0  0  0  0  2  0  0  0  0  0  0
  -29.3750  -12.4530   17.7780 C   0  0  0  0  0  2  0  0  0  0  0  0
  -27.9180  -12.3400   18.2650 C   0  0  0  0  0  2  0  0  0  0  0  0
  -27.6510  -13.1770   19.5440 C   0  0  0  0  0  3  0  0  0  0  0  0
  -28.7420  -12.9310   20.6100 C   0  0  0  0  0  2  0  0  0  0  0  0
  -30.0520  -13.1880   19.9890 N   0  0  0  0  0  0  0  0  0  0  0  0
  -31.8930  -14.4550   19.5730 O   0  0  0  0  0  0  0  0  0  0  0  0
  -30.5830  -15.5940   22.1850 C   0  0  0  0  0  1  0  0  0  0  0  0
  -30.2180  -15.3410   20.7910 N   0  0  0  0  0  0  0  0  0  0  0  0
  -25.2950  -13.8390   20.3400 C   0  0  0  0  0  0  0  0  0  0  0  0
  -24.2250  -13.0910   20.7500 C   0  0  0  0  0  0  0  0  0  0  0  0
  -24.6560  -11.7290   20.7080 C   0  0  0  0  0  0  0  0  0  0  0  0
  -26.3120  -12.9340   20.0740 N   0  0  0  0  0  0  0  0  0  0  0  0
  -25.9330  -11.6610   20.3540 N   0  0  0  0  0  0  0  0  0  0  0  0
  -23.9120  -10.4840   20.9300 C   0  0  0  0  0  0  0  0  0  0  0  0
  -24.3590   -9.5120   21.8520 C   0  0  0  0  0  3  0  0  0  0  0  0
  -23.6180   -8.3290   22.0600 C   0  0  0  0  0  3  0  0  0  0  0  0
  -22.4170   -8.1100   21.3460 C   0  0  0  0  0  0  0  0  0  0  0  0
  -21.9880   -9.0700   20.4140 C   0  0  0  0  0  3  0  0  0  0  0  0
  -22.7290  -10.2440   20.2030 C   0  0  0  0  0  3  0  0  0  0  0  0
  -21.6440   -6.9790   21.4640 O   0  0  0  0  0  0  0  0  0  0  0  0
  -21.6180   -6.2420   22.6200 C   0  0  0  0  0  0  0  0  0  0  0  0
  -21.2630   -6.8150   23.8610 C   0  0  0  0  0  3  0  0  0  0  0  0
  -21.1830   -6.0060   25.0120 C   0  0  0  0  0  3  0  0  0  0  0  0
  -21.4470   -4.6260   24.9250 C   0  0  0  0  0  0  0  0  0  0  0  0
  -21.7960   -4.0530   23.6880 C   0  0  0  0  0  3  0  0  0  0  0  0
  -21.8780   -4.8590   22.5390 C   0  0  0  0  0  0  0  0  0  0  0  0
  -22.1940   -4.2980   21.3470 F   0  0  0  0  0  0  0  0  0  0  0  0
  -21.3630   -3.8480   26.0290 F   0  0  0  0  0  0  0  0  0  0  0  0
  -22.8500  -13.5990   21.0710 C   0  0  0  0  0  0  0  0  0  0  0  0
  -22.1390  -12.9240   21.9690 N   0  0  0  0  0  0  0  0  0  0  0  0
  -22.4140  -14.6310   20.5630 O   0  0  0  0  0  0  0  0  0  0  0  0
  -22.5060  -12.0900   22.4050 H   0  0  0  0  0  0  0  0  0  0  0  0
  -21.2170  -13.2480   22.2250 H   0  0  0  0  0  0  0  0  0  0  0  0
  -25.4820  -15.2060   20.1500 N   0  0  0  0  0  0  0  0  0  0  0  0
  -24.7350  -15.8750   20.2930 H   0  0  0  0  0  0  0  0  0  0  0  0
  -26.3350  -15.6280   19.8100 H   0  0  0  0  0  0  0  0  0  0  0  0
  -32.4580  -20.1810   21.6470 C   0  0  0  0  0  1  0  0  0  0  0  0
  -31.1190  -20.8220   21.2400 C   0  0  0  0  0  2  0  0  0  0  0  0
  -32.5520  -22.9850   19.6170 C   0  0  0  0  0  2  0  0  0  0  0  0
  -32.1650  -24.4650   19.4240 C   0  0  0  0  0  2  0  0  0  0  0  0
  -30.9100  -24.9550   20.1650 C   0  0  0  0  0  2  0  0  0  0  0  0
  -30.7720  -26.4800   19.9950 C   0  0  0  0  0  2  0  0  0  0  0  0
  -29.5800  -27.1350   20.7050 C   0  0  0  0  0  2  0  0  0  0  0  0
  -28.3660  -26.6650   20.1310 O   0  0  0  0  0  0  0  0  0  0  0  0
  -24.5770  -31.9030   23.2320 C   0  0  0  0  0  0  0  0  0  0  0  0
  -27.2310  -27.4440   20.2100 C   0  0  0  0  0  0  0  0  0  0  0  0
  -23.3660  -30.4880   21.5990 C   0  0  0  0  0  3  0  0  0  0  0  0
  -24.8180  -28.9240   20.2030 C   0  0  0  0  0  0  0  0  0  0  0  0
  -25.8870  -30.8410   21.4030 C   0  0  0  0  0  2  0  0  0  0  0  0
  -25.9690  -29.4590   20.7930 C   0  0  0  0  0  0  0  0  0  0  0  0
  -27.1700  -28.7240   20.8130 C   0  0  0  0  0  3  0  0  0  0  0  0
  -26.0610  -26.9150   19.6270 C   0  0  0  0  0  3  0  0  0  0  0  0
  -24.8550  -27.6440   19.6230 C   0  0  0  0  0  3  0  0  0  0  0  0
  -23.5760  -29.7850   20.2290 C   0  0  0  0  0  2  0  0  0  0  0  0
  -24.6270  -31.0920   22.1370 N   0  0  0  0  0  0  0  0  0  0  0  0
  -23.4970  -32.1870   23.7680 O   0  0  0  0  0  0  0  0  0  0  0  0
  -22.7070  -29.4820   22.5710 C   0  0  0  0  0  0  0  0  0  0  0  0
  -21.3820  -29.3170   22.4500 N   0  0  0  0  0  0  0  0  0  0  0  0
  -23.3880  -28.8520   23.3850 O   0  0  0  0  0  0  0  0  0  0  0  0
  -20.8960  -29.8770   21.7620 H   0  0  0  0  0  0  0  0  0  0  0  0
  -17.9920  -28.1860   22.9700 C   0  0  0  0  0  0  0  0  0  0  0  0
  -20.5550  -28.3970   23.2290 C   0  0  0  0  0  3  0  0  0  0  0  0
  -20.6290  -26.9630   22.6570 C   0  0  0  0  0  2  0  0  0  0  0  0
  -19.5160  -26.6580   21.6490 C   0  0  0  0  0  2  0  0  0  0  0  0
  -18.1400  -26.8300   22.3000 C   0  0  0  0  0  2  0  0  0  0  0  0
  -19.1270  -28.9290   23.3920 C   0  0  0  0  0  0  0  0  0  0  0  0
  -18.9360  -30.1980   23.9780 C   0  0  0  0  0  3  0  0  0  0  0  0
  -17.6420  -30.7260   24.1480 C   0  0  0  0  0  3  0  0  0  0  0  0
  -16.5210  -29.9800   23.7430 C   0  0  0  0  0  3  0  0  0  0  0  0
  -16.6970  -28.7130   23.1600 C   0  0  0  0  0  3  0  0  0  0  0  0
  -25.8680  -32.5290   23.8480 C   0  0  0  0  0  3  0  0  0  0  0  0
  -26.3950  -31.7510   25.1150 C   0  0  1  0  0  0  0  0  0  0  0  0
  -25.3110  -31.5110   26.1910 C   0  0  0  0  0  1  0  0  0  0  0  0
  -26.9730  -30.3740   24.7100 C   0  0  0  0  0  1  0  0  0  0  0  0
  -27.5530  -32.5400   25.7720 C   0  0  0  0  0  1  0  0  0  0  0  0
  -25.5650  -33.9260   24.1820 N   0  0  0  0  0  0  0  0  0  0  0  0
  -25.9020  -34.9790   23.4240 C   0  0  0  0  0  0  0  0  0  0  0  0
  -26.5740  -34.8750   22.3950 O   0  0  0  0  0  0  0  0  0  0  0  0
  -24.9680  -34.0810   24.9820 H   0  0  0  0  0  0  0  0  0  0  0  0
  -24.1780  -36.7740   23.0680 C   0  0  0  0  0  1  0  0  0  0  0  0
  -25.4160  -36.3670   23.8820 C   0  0  0  0  0  3  0  0  0  0  0  0
  -27.5550  -37.2400   24.7170 C   0  0  0  0  0  1  0  0  0  0  0  0
  -26.4530  -37.4170   23.7750 N   0  0  0  0  0  0  0  0  0  0  0  0
  -26.0490  -38.3370   23.9280 H   0  0  0  0  0  0  0  0  0  0  0  0
  1 57  1  0
  1  4  1  0
  2  5  1  0
  2  1  2  0
  3 13  1  0
  3  4  1  0
  4 56  1  0
  5  3  1  0
  6  5  1  0
 10  7  1  1
  8 10  1  0
  9 10  1  0
 10  2  1  0
 13 12  1  6
 13 15  1  0
 13 11  1  0
 15 14  1  0
 15 16  1  0
 16 26  1  0
 17 26  1  0
 18 23  1  0
 19 20  1  0
 19 18  1  0
 21 20  1  0
 21 30  1  0
 21 22  1  0
 23 17  1  0
 23 22  1  0
 24 17  2  0
 26 25  1  0
 27 28  2  0
 28 47  1  0
 29 28  1  0
 29 32  1  0
 30 27  1  0
 30 31  1  0
 31 29  2  0
 32 33  1  0
 33 34  2  0
 35 38  1  0
 35 34  1  0
 36 35  2  0
 37 36  1  0
 37 32  2  0
 38 39  1  0
 39 40  1  0
 40 41  2  0
 42 41  1  0
 42 46  1  0
 43 42  2  0
 44 39  2  0
 44 43  1  0
 45 44  1  0
 47 48  1  0
 48 51  1  0
 48 50  1  0
 49 47  2  0
 52 53  1  0
 52 27  1  0
 54 52  1  0
 56 55  1  0
 58 57  1  0
 58 59  1  0
 60 59  1  0
 60 61  1  0
 62 64  1  0
 62 61  1  0
 63 74  2  0
 64 69  1  0
 65 73  1  0
 65 75  1  0
 66 72  1  0
 66 68  1  0
 67 73  1  0
 68 69  2  0
 68 67  1  0
 70 64  2  0
 71 70  1  0
 71 66  2  0
 72 65  1  0
 73 63  1  0
 75 77  2  0
 76 75  1  0
 78 76  1  0
 79 88  2  0
 79 84  1  0
 80 76  1  0
 80 84  1  0
 81 80  1  0
 82 83  1  0
 82 81  1  0
 83 79  1  0
 84 85  2  0
 85 86  1  0
 87 86  2  0
 88 87  1  0
 89 63  1  0
 89 94  1  0
 89 90  1  0
 90 93  1  1
 90 91  1  0
 92 90  1  0
 94 97  1  0
 95 99  1  0
 95 94  1  0
 96 95  2  0
 99 98  1  0
101 99  1  0
101102  1  0
101100  1  0
M  ISO  4  17 100  26 100  61 101  62 101
M  END
>  <TORSDO>  (35) 
F 26

>  <SCORE>  (35) 
-11.997

>  <name>  (35) 
35

>  <ligand_id>  (35) 
35

>  <original_smiles>  (35) 
[H]c1c([H])c([H])c2c(c1[H])C([H])([H])C([H])([H])C([H])([H])C2([H])N([H])C(=O)C1([H])N(C(=O)C([H])(N([H])C(=O)C([H])(N([H])C([H])([H])[H])C([H])([H])[H])C(C([H])([H])[H])(C([H])([H])[H])C([H])([H])[H])C([H])([H])c2c([H])c(OC([H])([H])C([H])([H])C([H])([H])C([H])([H])C([H])([H])c3c(C(C([H])([H])[H])(C([H])([H])[H])C([H])([H])[H])[n+]([H])c(C(C([H])([H])[H])(C([H])([H])[H])C([H])(C([H])([H])[H])C([H])([H])N(C(=O)N4C([H])([H])C([H])([H])C([H])([H])C([H])(n5nc(-c6c([H])c([H])c(Oc7c([H])c([H])c(F)c([H])c7F)c([H])c6[H])c(C(=O)N([H])[H])c5N([H])[H])C4([H])[H])C([H])([H])[H])n3C([H])([H])C([H])([H])[H])c([H])c([H])c2C1([H])[H]

>  <smiles>  (35) 
[H]c1c([H])c([H])c2c(c1[H])C([H])([H])C([H])([H])C([H])([H])C2([H])N([H])C(=O)C1([H])N(C(=O)C([H])(N([H])C(=O)C([H])(N([H])C([H])([H])[H])C([H])([H])[H])C(C([H])([H])[H])(C([H])([H])[H])C([H])([H])[H])C([H])([H])c2c([H])c(OC([H])([H])C([H])([H])C([H])([H])C([H])([H])C([H])([H])c3c(C(C([H])([H])[H])(C([H])([H])[H])C([H])([H])[H])[n+]([H])c(C(C([H])([H])[H])(C([H])([H])[H])C([H])(C([H])([H])[H])C([H])([H])N(C(=O)N4C([H])([H])C([H])([H])C([H])([H])C([H])(n5nc(-c6c([H])c([H])c(Oc7c([H])c([H])c(F)c([H])c7F)c([H])c6[H])c(C(=O)N([H])[H])c5N([H])[H])C4([H])[H])C([H])([H])[H])n3C([H])([H])C([H])([H])[H])c([H])c([H])c2C1([H])[H]

$$$$
36:0:0
     RDKit          3D

 93101  0  0  1  0  0  0  0  0999 V2000
  -28.2770  -21.0310   20.1100 C   0  0  0  0  0  3  0  0  0  0  0  0
  -30.1920  -20.6950   21.0950 C   0  0  0  0  0  3  0  0  0  0  0  0
  -29.3260  -21.7180   20.7800 C   0  0  0  0  0  0  0  0  0  0  0  0
  -28.4580  -19.7150   20.0880 N   0  0  0  0  0  0  0  0  0  0  0  0
  -29.6580  -19.4720   20.6810 N   0  0  0  0  0  0  0  0  0  0  0  0
  -29.1130  -17.4940   22.0170 C   0  0  0  0  0  1  0  0  0  0  0  0
  -31.4780  -18.1180   21.7110 C   0  0  0  0  0  1  0  0  0  0  0  0
  -30.1100  -18.0670   20.9800 C   0  0  2  0  0  0  0  0  0  0  0  0
  -31.4820  -17.4980   18.8750 C   0  0  0  0  0  1  0  0  0  0  0  0
  -29.0490  -17.1700   18.7380 C   0  0  0  0  0  1  0  0  0  0  0  0
  -30.2460  -17.0840   19.7180 C   0  0  2  0  0  0  0  0  0  0  0  0
  -30.9380  -14.5700   19.6540 C   0  0  0  0  0  0  0  0  0  0  0  0
  -30.4520  -12.4340   18.5210 C   0  0  0  0  0  2  0  0  0  0  0  0
  -29.4200  -12.7300   17.4110 C   0  0  0  0  0  2  0  0  0  0  0  0
  -27.9830  -12.6450   17.9650 C   0  0  0  0  0  2  0  0  0  0  0  0
  -27.8020  -13.4400   19.2860 C   0  0  0  0  0  3  0  0  0  0  0  0
  -28.9480  -13.1430   20.2840 C   0  0  0  0  0  2  0  0  0  0  0  0
  -30.2250  -13.4080   19.6030 N   0  0  0  0  0  0  0  0  0  0  0  0
  -32.0370  -14.6800   19.1030 O   0  0  0  0  0  0  0  0  0  0  0  0
  -30.2610  -15.6400   20.1390 N   0  0  0  0  0  0  0  0  0  0  0  0
  -29.4450  -15.3700   20.6660 H   0  0  0  0  0  0  0  0  0  0  0  0
  -25.5260  -14.1300   20.2670 C   0  0  0  0  0  0  0  0  0  0  0  0
  -24.4560  -13.3960   20.7050 C   0  0  0  0  0  0  0  0  0  0  0  0
  -24.8320  -12.0260   20.5540 C   0  0  0  0  0  0  0  0  0  0  0  0
  -26.4900  -13.2090   19.8830 N   0  0  0  0  0  0  0  0  0  0  0  0
  -26.0810  -11.9360   20.1140 N   0  0  0  0  0  0  0  0  0  0  0  0
  -24.0540  -10.7950   20.7490 C   0  0  0  0  0  0  0  0  0  0  0  0
  -24.4920   -9.7800   21.6260 C   0  0  0  0  0  3  0  0  0  0  0  0
  -23.7180   -8.6130   21.8120 C   0  0  0  0  0  3  0  0  0  0  0  0
  -22.4950   -8.4560   21.1200 C   0  0  0  0  0  0  0  0  0  0  0  0
  -22.0740   -9.4620   20.2320 C   0  0  0  0  0  3  0  0  0  0  0  0
  -22.8460  -10.6200   20.0440 C   0  0  0  0  0  3  0  0  0  0  0  0
  -21.6880   -7.3480   21.2180 O   0  0  0  0  0  0  0  0  0  0  0  0
  -21.6280   -6.6020   22.3690 C   0  0  0  0  0  0  0  0  0  0  0  0
  -21.2580   -7.1690   23.6080 C   0  0  0  0  0  3  0  0  0  0  0  0
  -21.1400   -6.3530   24.7490 C   0  0  0  0  0  3  0  0  0  0  0  0
  -21.3820   -4.9700   24.6550 C   0  0  0  0  0  0  0  0  0  0  0  0
  -21.7430   -4.4000   23.4210 C   0  0  0  0  0  3  0  0  0  0  0  0
  -21.8640   -5.2140   22.2810 C   0  0  0  0  0  0  0  0  0  0  0  0
  -22.1930   -4.6580   21.0910 F   0  0  0  0  0  0  0  0  0  0  0  0
  -21.2620   -4.1840   25.7510 F   0  0  0  0  0  0  0  0  0  0  0  0
  -23.1230  -13.9310   21.1410 C   0  0  0  0  0  0  0  0  0  0  0  0
  -22.4570  -13.2470   22.0640 N   0  0  0  0  0  0  0  0  0  0  0  0
  -22.6860  -14.9930   20.7000 O   0  0  0  0  0  0  0  0  0  0  0  0
  -22.8240  -12.3890   22.4490 H   0  0  0  0  0  0  0  0  0  0  0  0
  -21.5640  -13.5890   22.3910 H   0  0  0  0  0  0  0  0  0  0  0  0
  -25.7500  -15.4980   20.1450 N   0  0  0  0  0  0  0  0  0  0  0  0
  -25.0260  -16.1770   20.3510 H   0  0  0  0  0  0  0  0  0  0  0  0
  -26.5760  -15.9140   19.7360 H   0  0  0  0  0  0  0  0  0  0  0  0
  -29.4390  -23.2040   21.1390 C   0  0  0  0  0  2  0  0  0  0  0  0
  -28.6740  -24.2230   20.2380 C   0  0  0  0  0  2  0  0  0  0  0  0
  -28.6900  -25.6740   20.8040 C   0  0  0  0  0  2  0  0  0  0  0  0
  -28.4490  -26.6910   19.8200 O   0  0  0  0  0  0  0  0  0  0  0  0
  -24.4870  -31.7010   23.0580 C   0  0  0  0  0  0  0  0  0  0  0  0
  -27.2600  -27.3810   19.9090 C   0  0  0  0  0  0  0  0  0  0  0  0
  -23.3250  -30.3010   21.3810 C   0  0  0  0  0  3  0  0  0  0  0  0
  -24.8250  -28.8220   19.9390 C   0  0  0  0  0  0  0  0  0  0  0  0
  -25.8410  -30.7270   21.2020 C   0  0  0  0  0  2  0  0  0  0  0  0
  -25.9650  -29.3660   20.5450 C   0  0  0  0  0  0  0  0  0  0  0  0
  -27.1880  -28.6510   20.5300 C   0  0  0  0  0  3  0  0  0  0  0  0
  -26.1050  -26.8510   19.3000 C   0  0  0  0  0  3  0  0  0  0  0  0
  -24.8910  -27.5630   19.3150 C   0  0  0  0  0  3  0  0  0  0  0  0
  -23.5610  -29.6500   19.9910 C   0  0  0  0  0  2  0  0  0  0  0  0
  -24.5680  -30.9240   21.9400 N   0  0  0  0  0  0  0  0  0  0  0  0
  -23.3960  -31.9340   23.5970 O   0  0  0  0  0  0  0  0  0  0  0  0
  -22.6930  -29.2470   22.3180 C   0  0  0  0  0  0  0  0  0  0  0  0
  -21.3730  -29.0370   22.1830 N   0  0  0  0  0  0  0  0  0  0  0  0
  -23.3890  -28.6200   23.1240 O   0  0  0  0  0  0  0  0  0  0  0  0
  -20.8730  -29.5950   21.5040 H   0  0  0  0  0  0  0  0  0  0  0  0
  -18.0270  -27.7500   22.6350 C   0  0  0  0  0  0  0  0  0  0  0  0
  -20.5760  -28.0660   22.9310 C   0  0  0  0  0  3  0  0  0  0  0  0
  -20.7190  -26.6500   22.3280 C   0  0  0  0  0  2  0  0  0  0  0  0
  -19.6320  -26.3190   21.3010 C   0  0  0  0  0  2  0  0  0  0  0  0
  -18.2430  -26.4180   21.9370 C   0  0  0  0  0  2  0  0  0  0  0  0
  -19.1230  -28.5310   23.0880 C   0  0  0  0  0  0  0  0  0  0  0  0
  -18.8680  -29.7780   23.6990 C   0  0  0  0  0  3  0  0  0  0  0  0
  -17.5500  -30.2420   23.8650 C   0  0  0  0  0  3  0  0  0  0  0  0
  -16.4690  -29.4570   23.4300 C   0  0  0  0  0  3  0  0  0  0  0  0
  -16.7080  -28.2140   22.8190 C   0  0  0  0  0  3  0  0  0  0  0  0
  -25.7540  -32.3520   23.6960 C   0  0  0  0  0  3  0  0  0  0  0  0
  -25.4050  -33.7300   24.0700 N   0  0  0  0  0  0  0  0  0  0  0  0
  -25.7110  -34.8130   23.3430 C   0  0  0  0  0  0  0  0  0  0  0  0
  -26.3850  -34.7610   22.3120 O   0  0  0  0  0  0  0  0  0  0  0  0
  -24.8070  -33.8450   24.8750 H   0  0  0  0  0  0  0  0  0  0  0  0
  -23.9390  -36.5700   23.0310 C   0  0  0  0  0  1  0  0  0  0  0  0
  -25.1830  -36.1730   23.8400 C   0  0  0  0  0  3  0  0  0  0  0  0
  -27.2860  -37.0860   24.7210 C   0  0  0  0  0  1  0  0  0  0  0  0
  -26.1880  -37.2560   23.7720 N   0  0  0  0  0  0  0  0  0  0  0  0
  -25.7560  -38.1590   23.9460 H   0  0  0  0  0  0  0  0  0  0  0  0
  -26.3030  -31.5540   24.9430 C   0  0  1  0  0  0  0  0  0  0  0  0
  -25.2230  -31.2450   26.0060 C   0  0  0  0  0  1  0  0  0  0  0  0
  -26.9250  -30.2100   24.5000 C   0  0  0  0  0  1  0  0  0  0  0  0
  -27.4330  -32.3610   25.6250 C   0  0  0  0  0  1  0  0  0  0  0  0
  1  3  1  0
  3  2  2  0
  3 50  1  0
  4  1  2  0
  4  5  1  0
  5  8  1  0
  5  2  1  0
  8  7  1  1
  8  6  1  0
 11  9  1  6
 10 11  1  0
 11 20  1  0
 11  8  1  0
 12 20  1  0
 13 18  1  0
 14 15  1  0
 14 13  1  0
 16 15  1  0
 16 25  1  0
 16 17  1  0
 18 12  1  0
 18 17  1  0
 19 12  2  0
 20 21  1  0
 22 23  2  0
 23 42  1  0
 24 23  1  0
 24 27  1  0
 25 26  1  0
 25 22  1  0
 26 24  2  0
 27 28  1  0
 28 29  2  0
 30 33  1  0
 30 29  1  0
 31 30  2  0
 32 31  1  0
 32 27  2  0
 33 34  1  0
 34 35  1  0
 35 36  2  0
 37 36  1  0
 37 41  1  0
 38 37  2  0
 39 34  2  0
 39 38  1  0
 40 39  1  0
 42 43  1  0
 43 46  1  0
 43 45  1  0
 44 42  2  0
 47 22  1  0
 47 48  1  0
 49 47  1  0
 51 52  1  0
 51 50  1  0
 53 55  1  0
 53 52  1  0
 54 65  2  0
 55 60  1  0
 56 64  1  0
 56 66  1  0
 57 63  1  0
 57 59  1  0
 58 64  1  0
 59 58  1  0
 60 59  2  0
 61 62  1  0
 61 55  2  0
 62 57  2  0
 63 56  1  0
 64 54  1  0
 66 68  2  0
 67 66  1  0
 69 67  1  0
 70 79  2  0
 70 75  1  0
 71 67  1  0
 71 75  1  0
 72 71  1  0
 73 74  1  0
 73 72  1  0
 74 70  1  0
 75 76  2  0
 76 77  1  0
 78 77  2  0
 79 78  1  0
 80 54  1  0
 80 81  1  0
 80 90  1  0
 81 84  1  0
 82 86  1  0
 82 81  1  0
 83 82  2  0
 86 85  1  0
 88 86  1  0
 88 89  1  0
 88 87  1  0
 90 93  1  1
 90 91  1  0
 92 90  1  0
M  ISO  4  12 100  20 100  52 101  53 101
M  END
>  <TORSDO>  (36) 
F 21

>  <SCORE>  (36) 
-11.481

>  <name>  (36) 
36

>  <ligand_id>  (36) 
36

>  <original_smiles>  (36) 
[H]c1nn(C(C([H])([H])[H])(C([H])([H])[H])C(N([H])C(=O)N2C([H])([H])C([H])([H])C([H])([H])C([H])(n3nc(-c4c([H])c([H])c(Oc5c([H])c([H])c(F)c([H])c5F)c([H])c4[H])c(C(=O)N([H])[H])c3N([H])[H])C2([H])[H])(C([H])([H])[H])C([H])([H])[H])c([H])c1C([H])([H])C([H])([H])C([H])([H])Oc1c([H])c([H])c2c(c1[H])C([H])([H])N(C(=O)C([H])(N([H])C(=O)C([H])(N([H])C([H])([H])[H])C([H])([H])[H])C(C([H])([H])[H])(C([H])([H])[H])C([H])([H])[H])C([H])(C(=O)N([H])C1([H])c3c([H])c([H])c([H])c([H])c3C([H])([H])C([H])([H])C1([H])[H])C2([H])[H]

>  <smiles>  (36) 
[H]c1nn(C(C([H])([H])[H])(C([H])([H])[H])C(N([H])C(=O)N2C([H])([H])C([H])([H])C([H])([H])C([H])(n3nc(-c4c([H])c([H])c(Oc5c([H])c([H])c(F)c([H])c5F)c([H])c4[H])c(C(=O)N([H])[H])c3N([H])[H])C2([H])[H])(C([H])([H])[H])C([H])([H])[H])c([H])c1C([H])([H])C([H])([H])C([H])([H])Oc1c([H])c([H])c2c(c1[H])C([H])([H])N(C(=O)C([H])(N([H])C(=O)C([H])(N([H])C([H])([H])[H])C([H])([H])[H])C(C([H])([H])[H])(C([H])([H])[H])C([H])([H])[H])C([H])(C(=O)N([H])C1([H])c3c([H])c([H])c([H])c([H])c3C([H])([H])C([H])([H])C1([H])[H])C2([H])[H]

$$$$
38:0:0
     RDKit          3D

 98106  0  0  1  0  0  0  0  0999 V2000
  -32.0970  -14.9710   19.1020 C   0  0  0  0  0  0  0  0  0  0  0  0
  -31.6770  -12.5300   18.6790 C   0  0  0  0  0  2  0  0  0  0  0  0
  -30.7230  -12.3430   17.4750 C   0  0  0  0  0  2  0  0  0  0  0  0
  -29.2640  -12.3290   17.9670 C   0  0  0  0  0  2  0  0  0  0  0  0
  -28.9690  -13.5480   18.8700 C   0  0  0  0  0  3  0  0  0  0  0  0
  -30.0330  -13.7660   19.9450 C   0  0  0  0  0  2  0  0  0  0  0  0
  -31.3530  -13.8340   19.3310 N   0  0  0  0  0  0  0  0  0  0  0  0
  -33.2420  -14.8320   18.6520 O   0  0  0  0  0  0  0  0  0  0  0  0
  -31.6450  -18.5560   18.1100 C   0  0  0  0  0  0  0  0  0  0  0  0
  -31.7300  -17.1990   17.7980 C   0  0  0  0  0  0  0  0  0  0  0  0
  -31.2410  -17.3630   19.9790 C   0  0  0  0  0  0  0  0  0  0  0  0
  -31.9950  -16.5710   16.4500 C   0  0  0  0  0  1  0  0  0  0  0  0
  -31.3720  -18.5990   19.4620 N   0  0  0  0  0  0  0  0  0  0  0  0
  -31.5910  -16.4260   19.0060 N   0  0  0  0  0  0  0  0  0  0  0  0
  -26.8200  -14.5580   19.8240 C   0  0  0  0  0  0  0  0  0  0  0  0
  -25.6720  -13.9820   20.3080 C   0  0  0  0  0  0  0  0  0  0  0  0
  -25.8770  -12.5710   20.2350 C   0  0  0  0  0  0  0  0  0  0  0  0
  -27.6490  -13.5020   19.4800 N   0  0  0  0  0  0  0  0  0  0  0  0
  -27.1030  -12.3030   19.8030 N   0  0  0  0  0  0  0  0  0  0  0  0
  -24.9560  -11.4580   20.4930 C   0  0  0  0  0  0  0  0  0  0  0  0
  -25.3080  -10.3810   21.3410 C   0  0  0  0  0  3  0  0  0  0  0  0
  -24.3940   -9.3320   21.5780 C   0  0  0  0  0  3  0  0  0  0  0  0
  -23.1150   -9.3530   20.9690 C   0  0  0  0  0  0  0  0  0  0  0  0
  -22.7760  -10.4150   20.1130 C   0  0  0  0  0  3  0  0  0  0  0  0
  -23.6880  -11.4540   19.8720 C   0  0  0  0  0  3  0  0  0  0  0  0
  -22.1730   -8.3680   21.1160 O   0  0  0  0  0  0  0  0  0  0  0  0
  -22.1630   -7.5360   22.2080 C   0  0  0  0  0  0  0  0  0  0  0  0
  -21.9870   -8.0350   23.5180 C   0  0  0  0  0  3  0  0  0  0  0  0
  -21.9150   -7.1430   24.6080 C   0  0  0  0  0  3  0  0  0  0  0  0
  -22.0090   -5.7560   24.3890 C   0  0  0  0  0  0  0  0  0  0  0  0
  -22.1910   -5.2550   23.0860 C   0  0  0  0  0  3  0  0  0  0  0  0
  -22.2620   -6.1480   22.0000 C   0  0  0  0  0  0  0  0  0  0  0  0
  -22.4080   -5.6620   20.7410 F   0  0  0  0  0  0  0  0  0  0  0  0
  -21.9390   -4.8940   25.4300 F   0  0  0  0  0  0  0  0  0  0  0  0
  -24.4220  -14.7020   20.7250 C   0  0  0  0  0  0  0  0  0  0  0  0
  -23.6980  -14.1500   21.6940 N   0  0  0  0  0  0  0  0  0  0  0  0
  -24.0940  -15.7720   20.2140 O   0  0  0  0  0  0  0  0  0  0  0  0
  -23.9640  -13.2640   22.1020 H   0  0  0  0  0  0  0  0  0  0  0  0
  -22.8650  -14.6040   22.0360 H   0  0  0  0  0  0  0  0  0  0  0  0
  -27.2070  -15.8830   19.6360 N   0  0  0  0  0  0  0  0  0  0  0  0
  -26.5510  -16.6460   19.7810 H   0  0  0  0  0  0  0  0  0  0  0  0
  -28.0790  -16.2070   19.2300 H   0  0  0  0  0  0  0  0  0  0  0  0
  -29.4550  -17.2990   21.9780 C   0  0  0  0  0  1  0  0  0  0  0  0
  -30.9290  -17.3950   21.5200 C   0  0  1  0  0  0  0  0  0  0  0  0
  -31.6180  -16.1610   21.9150 N   0  0  0  0  0  4  0  0  0  0  0  0
  -32.0450  -16.2720   22.8130 H   0  0  0  0  0  0  0  0  0  0  0  0
  -32.3540  -16.0240   21.2400 H   0  0  0  0  0  0  0  0  0  0  0  0
  -30.9870  -15.3800   21.9230 H   0  0  0  0  0  0  0  0  0  0  0  0
  -31.8670  -19.8000   21.2500 C   0  0  0  0  0  1  0  0  0  0  0  0
  -30.7590  -19.2920   23.4030 C   0  0  0  0  0  1  0  0  0  0  0  0
  -32.9950  -18.3570   22.9640 C   0  0  0  0  0  1  0  0  0  0  0  0
  -31.6220  -18.6630   22.2640 C   0  0  1  0  0  0  0  0  0  0  0  0
  -32.0150  -19.8670   17.3510 C   0  0  0  0  0  2  0  0  0  0  0  0
  -31.1830  -21.2210   17.5490 C   0  0  0  0  0  2  0  0  0  0  0  0
  -31.9460  -22.5980   17.2150 C   0  0  0  0  0  2  0  0  0  0  0  0
  -31.4870  -24.0200   17.8600 C   0  0  0  0  0  3  0  0  0  0  0  0
  -31.4920  -25.5380   17.2940 C   0  0  0  0  0  3  0  0  0  0  0  0
  -31.3020  -26.7000   18.2070 O   0  0  0  0  0  0  0  0  0  0  0  0
  -27.0310  -29.2190   23.4540 C   0  0  0  0  0  0  0  0  0  0  0  0
  -30.0400  -27.2170   18.5550 C   0  0  0  0  0  0  0  0  0  0  0  0
  -25.9210  -28.5820   21.3490 C   0  0  0  0  0  3  0  0  0  0  0  0
  -27.4580  -28.1810   19.3530 C   0  0  0  0  0  0  0  0  0  0  0  0
  -28.3590  -29.3950   21.3390 C   0  0  0  0  0  2  0  0  0  0  0  0
  -28.5870  -28.5330   20.0980 C   0  0  0  0  0  0  0  0  0  0  0  0
  -29.8770  -28.0740   19.6890 C   0  0  0  0  0  3  0  0  0  0  0  0
  -28.8580  -26.8840   17.8380 C   0  0  0  0  0  3  0  0  0  0  0  0
  -27.5900  -27.3660   18.2220 C   0  0  0  0  0  3  0  0  0  0  0  0
  -26.1200  -28.7110   19.8180 C   0  0  0  0  0  2  0  0  0  0  0  0
  -27.1250  -29.0510   22.1060 N   0  0  0  0  0  0  0  0  0  0  0  0
  -25.9680  -29.0120   24.0590 O   0  0  0  0  0  0  0  0  0  0  0  0
  -25.5040  -27.1310   21.6820 C   0  0  0  0  0  0  0  0  0  0  0  0
  -24.2790  -26.7360   21.3070 N   0  0  0  0  0  0  0  0  0  0  0  0
  -26.2930  -26.3690   22.2480 O   0  0  0  0  0  0  0  0  0  0  0  0
  -23.7020  -27.4130   20.8300 H   0  0  0  0  0  0  0  0  0  0  0  0
  -21.3140  -24.7420   20.7270 C   0  0  0  0  0  0  0  0  0  0  0  0
  -23.6990  -25.4020   21.4980 C   0  0  0  0  0  3  0  0  0  0  0  0
  -24.2150  -24.4060   20.4310 C   0  0  0  0  0  2  0  0  0  0  0  0
  -23.2870  -24.2920   19.2120 C   0  0  0  0  0  2  0  0  0  0  0  0
  -21.8860  -23.8520   19.6370 C   0  0  0  0  0  2  0  0  0  0  0  0
  -22.1670  -25.4650   21.6040 C   0  0  0  0  0  0  0  0  0  0  0  0
  -21.5860  -26.2770   22.6020 C   0  0  0  0  0  3  0  0  0  0  0  0
  -20.1880  -26.3520   22.7400 C   0  0  0  0  0  3  0  0  0  0  0  0
  -19.3520  -25.6330   21.8770 C   0  0  0  0  0  3  0  0  0  0  0  0
  -19.9140  -24.8310   20.8680 C   0  0  0  0  0  3  0  0  0  0  0  0
  -28.2500  -29.7040   24.3050 C   0  0  0  0  0  3  0  0  0  0  0  0
  -28.8370  -28.5720   25.2370 C   0  0  1  0  0  0  0  0  0  0  0  0
  -27.7740  -27.8810   26.1240 C   0  0  0  0  0  1  0  0  0  0  0  0
  -29.5300  -27.4690   24.4050 C   0  0  0  0  0  1  0  0  0  0  0  0
  -29.9190  -29.1660   26.1660 C   0  0  0  0  0  1  0  0  0  0  0  0
  -27.8130  -30.8560   25.1070 N   0  0  0  0  0  0  0  0  0  0  0  0
  -28.0710  -32.1320   24.7990 C   0  0  0  0  0  0  0  0  0  0  0  0
  -28.7660  -32.4560   23.8360 O   0  0  0  0  0  0  0  0  0  0  0  0
  -27.1890  -30.6750   25.8810 H   0  0  0  0  0  0  0  0  0  0  0  0
  -26.1890  -33.7880   25.0360 C   0  0  0  0  0  1  0  0  0  0  0  0
  -27.4510  -33.2160   25.7060 C   0  0  0  0  0  3  0  0  0  0  0  0
  -29.4980  -33.9000   26.8750 C   0  0  0  0  0  1  0  0  0  0  0  0
  -28.3810  -34.3150   26.0320 N   0  0  0  0  0  0  0  0  0  0  0  0
  -27.8960  -35.0770   26.4930 H   0  0  0  0  0  0  0  0  0  0  0  0
  1  7  1  0
  2  7  1  0
  3  4  1  0
  3  2  1  0
  5  4  1  0
  5 18  1  0
  5  6  1  0
  7  6  1  0
  8  1  2  0
  9 13  1  0
 10  9  2  0
 10 14  1  0
 11 44  1  0
 12 10  1  0
 13 11  2  0
 14  1  1  0
 14 11  1  0
 15 16  2  0
 16 35  1  0
 17 16  1  0
 17 20  1  0
 18 19  1  0
 18 15  1  0
 19 17  2  0
 20 21  1  0
 21 22  2  0
 23 26  1  0
 23 22  1  0
 24 23  2  0
 25 24  1  0
 25 20  2  0
 26 27  1  0
 27 28  1  0
 28 29  2  0
 30 29  1  0
 30 34  1  0
 31 30  2  0
 32 27  2  0
 32 31  1  0
 33 32  1  0
 35 36  1  0
 36 39  1  0
 36 38  1  0
 37 35  2  0
 40 41  1  0
 40 15  1  0
 42 40  1  0
 44 45  1  0
 44 43  1  6
 44 52  1  0
 45 48  1  0
 45 46  1  0
 47 45  1  0
 52 49  1  6
 52 51  1  0
 52 50  1  0
 53 54  1  0
 53  9  1  0
 55 54  1  0
 55 56  1  0
 57 56  2  0
 57 58  1  0
 58 60  1  0
 59 70  2  0
 60 65  1  0
 61 71  1  0
 61 69  1  0
 62 68  1  0
 62 64  1  0
 63 69  1  0
 64 63  1  0
 65 64  2  0
 66 67  1  0
 66 60  2  0
 67 62  2  0
 68 61  1  0
 69 59  1  0
 71 73  2  0
 72 71  1  0
 74 72  1  0
 75 84  2  0
 75 80  1  0
 76 72  1  0
 76 80  1  0
 77 76  1  0
 78 79  1  0
 78 77  1  0
 79 75  1  0
 80 81  2  0
 81 82  1  0
 83 82  2  0
 84 83  1  0
 85 59  1  0
 85 90  1  0
 85 86  1  0
 86 87  1  1
 86 89  1  0
 88 86  1  0
 90 93  1  0
 91 90  1  0
 91 95  1  0
 92 91  2  0
 95 94  1  0
 95 97  1  0
 97 98  1  0
 97 96  1  0
M  ISO  4   1 100  14 100  57 101  58 101
M  END
>  <TORSDO>  (37) 
F 23

>  <SCORE>  (37) 
-3.469

>  <name>  (37) 
38

>  <ligand_id>  (37) 
38

>  <original_smiles>  (37) 
[H]c1c([H])c([H])c2c(c1[H])C([H])([H])C([H])([H])C([H])([H])C2([H])N([H])C(=O)C1([H])N(C(=O)C([H])(N([H])C(=O)C([H])(N([H])C([H])([H])[H])C([H])([H])[H])C(C([H])([H])[H])(C([H])([H])[H])C([H])([H])[H])C([H])([H])c2c([H])c(OC([H])([H])C([H])([H])C([H])([H])C([H])([H])C([H])([H])c3nc(C(C([H])([H])[H])(C(C([H])([H])[H])(C([H])([H])[H])C([H])([H])[H])[N+]([H])([H])[H])n(C(=O)N4C([H])([H])C([H])([H])C([H])([H])C([H])(n5nc(-c6c([H])c([H])c(Oc7c([H])c([H])c(F)c([H])c7F)c([H])c6[H])c(C(=O)N([H])[H])c5N([H])[H])C4([H])[H])c3C([H])([H])[H])c([H])c([H])c2C1([H])[H]

>  <smiles>  (37) 
[H]c1c([H])c([H])c2c(c1[H])C([H])([H])C([H])([H])C([H])([H])C2([H])N([H])C(=O)C1([H])N(C(=O)C([H])(N([H])C(=O)C([H])(N([H])C([H])([H])[H])C([H])([H])[H])C(C([H])([H])[H])(C([H])([H])[H])C([H])([H])[H])C([H])([H])c2c([H])c(OC([H])([H])C([H])([H])C([H])([H])C([H])([H])C([H])([H])c3nc(C(C([H])([H])[H])(C(C([H])([H])[H])(C([H])([H])[H])C([H])([H])[H])[N+]([H])([H])[H])n(C(=O)N4C([H])([H])C([H])([H])C([H])([H])C([H])(n5nc(-c6c([H])c([H])c(Oc7c([H])c([H])c(F)c([H])c7F)c([H])c6[H])c(C(=O)N([H])[H])c5N([H])[H])C4([H])[H])c3C([H])([H])[H])c([H])c([H])c2C1([H])[H]

$$$$
39:0:0
     RDKit          3D

103111  0  0  1  0  0  0  0  0999 V2000
  -30.2930  -22.6730   22.3270 C   0  0  0  0  0  0  0  0  0  0  0  0
  -30.0200  -22.6290   20.1250 C   0  0  0  0  0  0  0  0  0  0  0  0
  -30.9570  -20.8770   21.1950 C   0  0  0  0  0  0  0  0  0  0  0  0
  -30.1210  -23.4230   23.6320 C   0  0  0  0  0  1  0  0  0  0  0  0
  -29.9500  -23.3410   21.2380 N   0  0  0  0  0  4  0  0  0  0  0  0
  -30.7670  -21.4340   22.3900 N   0  0  0  0  0  0  0  0  0  0  0  0
  -30.6310  -21.4390   20.0290 N   0  0  0  0  0  2  0  0  0  0  0  0
  -30.7150  -23.7180   17.9710 C   0  0  0  0  0  1  0  0  0  0  0  0
  -28.8430  -22.0590   18.0160 C   0  0  0  0  0  1  0  0  0  0  0  0
  -29.4880  -23.2590   18.7970 C   0  0  1  0  0  0  0  0  0  0  0  0
  -27.5730  -24.5410   17.6110 C   0  0  0  0  0  1  0  0  0  0  0  0
  -27.3630  -24.0780   20.0850 C   0  0  0  0  0  1  0  0  0  0  0  0
  -28.3730  -24.4390   18.9530 C   0  0  1  0  0  0  0  0  0  0  0  0
  -28.9900  -25.8910   19.1990 C   0  0  0  0  0  2  0  0  0  0  0  0
  -28.5340  -26.8280   20.2170 O   0  0  0  0  0  0  0  0  0  0  0  0
  -24.6750  -31.9470   23.3690 C   0  0  0  0  0  0  0  0  0  0  0  0
  -27.3780  -27.5970   20.1380 C   0  0  0  0  0  0  0  0  0  0  0  0
  -23.5000  -30.5980   21.6650 C   0  0  0  0  0  3  0  0  0  0  0  0
  -24.9790  -29.1320   20.1940 C   0  0  0  0  0  0  0  0  0  0  0  0
  -26.0350  -30.9570   21.5250 C   0  0  0  0  0  2  0  0  0  0  0  0
  -26.1300  -29.6130   20.8270 C   0  0  0  0  0  0  0  0  0  0  0  0
  -27.3250  -28.8490   20.8090 C   0  0  0  0  0  3  0  0  0  0  0  0
  -26.2000  -27.1560   19.5000 C   0  0  0  0  0  3  0  0  0  0  0  0
  -25.0120  -27.8990   19.5300 C   0  0  0  0  0  3  0  0  0  0  0  0
  -23.7310  -29.9790   20.2630 C   0  0  0  0  0  2  0  0  0  0  0  0
  -24.7540  -31.1810   22.2420 N   0  0  0  0  0  0  0  0  0  0  0  0
  -23.5850  -32.1980   23.9000 O   0  0  0  0  0  0  0  0  0  0  0  0
  -22.8430  -29.5370   22.5780 C   0  0  0  0  0  0  0  0  0  0  0  0
  -21.5280  -29.3240   22.4030 N   0  0  0  0  0  0  0  0  0  0  0  0
  -23.5150  -28.9110   23.4020 O   0  0  0  0  0  0  0  0  0  0  0  0
  -21.0450  -29.8820   21.7120 H   0  0  0  0  0  0  0  0  0  0  0  0
  -18.1770  -28.0140   22.7480 C   0  0  0  0  0  0  0  0  0  0  0  0
  -20.7110  -28.3490   23.1280 C   0  0  0  0  0  3  0  0  0  0  0  0
  -20.8830  -26.9300   22.5380 C   0  0  0  0  0  2  0  0  0  0  0  0
  -19.8350  -26.5870   21.4750 C   0  0  0  0  0  2  0  0  0  0  0  0
  -18.4250  -26.6800   22.0630 C   0  0  0  0  0  2  0  0  0  0  0  0
  -19.2510  -28.8050   23.2340 C   0  0  0  0  0  0  0  0  0  0  0  0
  -18.9680  -30.0530   23.8310 C   0  0  0  0  0  3  0  0  0  0  0  0
  -17.6420  -30.5110   23.9480 C   0  0  0  0  0  3  0  0  0  0  0  0
  -16.5820  -29.7170   23.4790 C   0  0  0  0  0  3  0  0  0  0  0  0
  -16.8490  -28.4700   22.8850 C   0  0  0  0  0  3  0  0  0  0  0  0
  -25.9480  -32.5670   24.0210 C   0  0  0  0  0  3  0  0  0  0  0  0
  -26.4150  -31.8000   25.3200 C   0  0  1  0  0  0  0  0  0  0  0  0
  -25.2830  -31.5720   26.3490 C   0  0  0  0  0  1  0  0  0  0  0  0
  -27.0090  -30.4180   24.9600 C   0  0  0  0  0  1  0  0  0  0  0  0
  -27.5420  -32.5950   26.0200 C   0  0  0  0  0  1  0  0  0  0  0  0
  -25.6490  -33.9720   24.3280 N   0  0  0  0  0  0  0  0  0  0  0  0
  -26.0100  -35.0120   23.5650 C   0  0  0  0  0  0  0  0  0  0  0  0
  -26.7020  -34.8880   22.5490 O   0  0  0  0  0  0  0  0  0  0  0  0
  -25.0390  -34.1430   25.1150 H   0  0  0  0  0  0  0  0  0  0  0  0
  -24.3000  -36.8110   23.1580 C   0  0  0  0  0  1  0  0  0  0  0  0
  -25.5260  -36.4100   23.9920 C   0  0  0  0  0  3  0  0  0  0  0  0
  -27.6540  -37.2950   24.8440 C   0  0  0  0  0  1  0  0  0  0  0  0
  -26.5690  -37.4540   23.8770 N   0  0  0  0  0  0  0  0  0  0  0  0
  -26.1680  -38.3790   24.0000 H   0  0  0  0  0  0  0  0  0  0  0  0
  -32.7990  -19.4020   22.1670 C   0  0  0  0  0  1  0  0  0  0  0  0
  -31.6660  -19.4830   21.1050 C   0  0  2  0  0  0  0  0  0  0  0  0
  -32.3220  -19.5610   19.7930 N   0  0  0  0  0  4  0  0  0  0  0  0
  -33.1190  -20.1660   19.8470 H   0  0  0  0  0  0  0  0  0  0  0  0
  -31.6190  -20.0650   19.2640 H   0  0  0  0  0  0  0  0  0  0  0  0
  -32.5560  -18.6820   19.3750 H   0  0  0  0  0  0  0  0  0  0  0  0
  -29.8930  -18.1850   22.4810 C   0  0  0  0  0  1  0  0  0  0  0  0
  -29.6330  -18.2650   20.0010 C   0  0  0  0  0  1  0  0  0  0  0  0
  -30.6820  -18.2000   21.1460 C   0  0  1  0  0  0  0  0  0  0  0  0
  -31.4680  -16.8270   21.0250 C   0  0  0  0  0  2  0  0  0  0  0  0
  -31.0720  -14.5490   20.0040 C   0  0  0  0  0  0  0  0  0  0  0  0
  -30.6440  -12.3510   18.9400 C   0  0  0  0  0  2  0  0  0  0  0  0
  -29.6520  -12.4780   17.7670 C   0  0  0  0  0  2  0  0  0  0  0  0
  -28.2110  -12.3220   18.2760 C   0  0  0  0  0  2  0  0  0  0  0  0
  -27.9160  -13.2360   19.4910 C   0  0  0  0  0  3  0  0  0  0  0  0
  -29.0230  -13.1390   20.5700 C   0  0  0  0  0  2  0  0  0  0  0  0
  -30.3270  -13.4010   19.9370 N   0  0  0  0  0  0  0  0  0  0  0  0
  -32.0860  -14.6860   19.3190 O   0  0  0  0  0  0  0  0  0  0  0  0
  -30.6830  -15.5630   20.8210 N   0  0  0  0  0  0  0  0  0  0  0  0
  -29.8640  -15.4200   21.3940 H   0  0  0  0  0  0  0  0  0  0  0  0
  -25.5720  -13.8560   20.3560 C   0  0  0  0  0  0  0  0  0  0  0  0
  -24.5150  -13.0910   20.7690 C   0  0  0  0  0  0  0  0  0  0  0  0
  -24.9470  -11.7340   20.6730 C   0  0  0  0  0  0  0  0  0  0  0  0
  -26.5880  -12.9650   20.0430 N   0  0  0  0  0  0  0  0  0  0  0  0
  -26.2170  -11.6800   20.2880 N   0  0  0  0  0  0  0  0  0  0  0  0
  -24.2070  -10.4810   20.8770 C   0  0  0  0  0  0  0  0  0  0  0  0
  -24.6200   -9.5250   21.8320 C   0  0  0  0  0  3  0  0  0  0  0  0
  -23.8820   -8.3380   22.0240 C   0  0  0  0  0  3  0  0  0  0  0  0
  -22.7170   -8.0960   21.2570 C   0  0  0  0  0  0  0  0  0  0  0  0
  -22.3220   -9.0400   20.2910 C   0  0  0  0  0  3  0  0  0  0  0  0
  -23.0600  -10.2200   20.1020 C   0  0  0  0  0  3  0  0  0  0  0  0
  -21.9510   -6.9580   21.3560 O   0  0  0  0  0  0  0  0  0  0  0  0
  -21.8030   -6.2880   22.5440 C   0  0  0  0  0  0  0  0  0  0  0  0
  -21.2620   -6.9160   23.6870 C   0  0  0  0  0  3  0  0  0  0  0  0
  -21.0590   -6.1750   24.8680 C   0  0  0  0  0  3  0  0  0  0  0  0
  -21.3890   -4.8070   24.9080 C   0  0  0  0  0  0  0  0  0  0  0  0
  -21.9230   -4.1790   23.7690 C   0  0  0  0  0  3  0  0  0  0  0  0
  -22.1270   -4.9180   22.5910 C   0  0  0  0  0  0  0  0  0  0  0  0
  -22.6210   -4.3010   21.4900 F   0  0  0  0  0  0  0  0  0  0  0  0
  -21.1890   -4.0930   26.0410 F   0  0  0  0  0  0  0  0  0  0  0  0
  -23.1450  -13.5840   21.1410 C   0  0  0  0  0  0  0  0  0  0  0  0
  -22.4610  -12.8850   22.0390 N   0  0  0  0  0  0  0  0  0  0  0  0
  -22.6920  -14.6260   20.6680 O   0  0  0  0  0  0  0  0  0  0  0  0
  -22.8400  -12.0400   22.4390 H   0  0  0  0  0  0  0  0  0  0  0  0
  -21.5430  -13.1930   22.3260 H   0  0  0  0  0  0  0  0  0  0  0  0
  -25.7500  -15.2270   20.2020 N   0  0  0  0  0  0  0  0  0  0  0  0
  -25.0020  -15.8890   20.3830 H   0  0  0  0  0  0  0  0  0  0  0  0
  -26.5900  -15.6610   19.8380 H   0  0  0  0  0  0  0  0  0  0  0  0
  1  6  1  0
  1  4  1  0
  2  5  2  0
  3  6  2  0
  5  1  2  0
  7  2  1  0
  7  3  1  0
 10  8  1  6
  9 10  1  0
 10 13  1  0
 10  2  1  0
 13 11  1  6
 13 14  1  0
 13 12  1  0
 14 15  1  0
 16 27  2  0
 17 15  1  0
 17 22  1  0
 18 26  1  0
 18 28  1  0
 19 25  1  0
 19 21  1  0
 20 26  1  0
 21 20  1  0
 22 21  2  0
 23 24  1  0
 23 17  2  0
 24 19  2  0
 25 18  1  0
 26 16  1  0
 28 30  2  0
 29 28  1  0
 31 29  1  0
 32 41  2  0
 32 37  1  0
 33 29  1  0
 33 37  1  0
 34 33  1  0
 35 36  1  0
 35 34  1  0
 36 32  1  0
 37 38  2  0
 38 39  1  0
 40 39  2  0
 41 40  1  0
 42 16  1  0
 42 47  1  0
 42 43  1  0
 43 46  1  1
 43 44  1  0
 45 43  1  0
 47 50  1  0
 48 52  1  0
 48 47  1  0
 49 48  2  0
 52 51  1  0
 54 52  1  0
 54 55  1  0
 54 53  1  0
 57 64  1  0
 57  3  1  0
 57 56  1  1
 58 59  1  0
 58 57  1  0
 60 58  1  0
 61 58  1  0
 64 63  1  6
 64 62  1  0
 65 64  1  0
 66 74  1  0
 67 72  1  0
 68 69  1  0
 68 67  1  0
 70 69  1  0
 70 79  1  0
 70 71  1  0
 72 66  1  0
 72 71  1  0
 73 66  2  0
 74 65  1  0
 74 75  1  0
 76 77  2  0
 77 96  1  0
 78 77  1  0
 78 81  1  0
 79 80  1  0
 79 76  1  0
 80 78  2  0
 81 82  1  0
 82 83  2  0
 84 87  1  0
 84 83  1  0
 85 84  2  0
 86 85  1  0
 86 81  2  0
 87 88  1  0
 88 93  2  0
 88 89  1  0
 89 90  2  0
 90 91  1  0
 91 95  1  0
 92 91  2  0
 93 92  1  0
 94 93  1  0
 96 97  1  0
 97100  1  0
 97 99  1  0
 98 96  2  0
101 76  1  0
101102  1  0
103101  1  0
M  ISO  4  14 101  15 101  66 100  74 100
M  END
>  <TORSDO>  (38) 
F 23

>  <SCORE>  (38) 
-12.229

>  <name>  (38) 
39

>  <ligand_id>  (38) 
39

>  <original_smiles>  (38) 
[H]c1c([H])c([H])c2c(c1[H])C([H])([H])C([H])([H])C([H])([H])C2([H])N([H])C(=O)C1([H])N(C(=O)C([H])(N([H])C(=O)C([H])(N([H])C([H])([H])[H])C([H])([H])[H])C(C([H])([H])[H])(C([H])([H])[H])C([H])([H])[H])C([H])([H])c2c([H])c(OC([H])([H])C(C([H])([H])[H])(C([H])([H])[H])C(c3nc(C([H])([H])[H])nc(C(C([H])([H])[H])(C(C([H])([H])[H])(C([H])([H])[H])C([H])([H])N([H])C(=O)N4C([H])([H])C([H])([H])C([H])([H])C([H])(n5nc(-c6c([H])c([H])c(Oc7c([H])c([H])c(F)c([H])c7F)c([H])c6[H])c(C(=O)N([H])[H])c5N([H])[H])C4([H])[H])[N+]([H])([H])[H])n3)(C([H])([H])[H])C([H])([H])[H])c([H])c([H])c2C1([H])[H]

>  <smiles>  (38) 
[H]c1c([H])c([H])c2c(c1[H])C([H])([H])C([H])([H])C([H])([H])C2([H])N([H])C(=O)C1([H])N(C(=O)C([H])(N([H])C(=O)C([H])(N([H])C([H])([H])[H])C([H])([H])[H])C(C([H])([H])[H])(C([H])([H])[H])C([H])([H])[H])C([H])([H])c2c([H])c(OC([H])([H])C(C([H])([H])[H])(C([H])([H])[H])C(c3nc(C([H])([H])[H])nc(C(C([H])([H])[H])(C(C([H])([H])[H])(C([H])([H])[H])C([H])([H])N([H])C(=O)N4C([H])([H])C([H])([H])C([H])([H])C([H])(n5nc(-c6c([H])c([H])c(Oc7c([H])c([H])c(F)c([H])c7F)c([H])c6[H])c(C(=O)N([H])[H])c5N([H])[H])C4([H])[H])[N+]([H])([H])[H])n3)(C([H])([H])[H])C([H])([H])[H])c([H])c([H])c2C1([H])[H]

$$$$
40:0:0
     RDKit          3D

100108  0  0  1  0  0  0  0  0999 V2000
  -28.3630  -21.1760   18.6000 C   0  0  0  0  0  3  0  0  0  0  0  0
  -29.3180  -21.2880   19.5710 C   0  0  0  0  0  0  0  0  0  0  0  0
  -28.6720  -19.1150   19.4320 C   0  0  0  0  0  3  0  0  0  0  0  0
  -26.8480  -19.4400   17.6900 C   0  0  0  0  0  1  0  0  0  0  0  0
  -27.9510  -19.8740   18.5620 N   0  0  0  0  0  0  0  0  0  0  0  0
  -29.4850  -19.9990   20.0550 N   0  0  0  0  0  0  0  0  0  0  0  0
  -30.1110  -19.7490   20.8110 H   0  0  0  0  0  0  0  0  0  0  0  0
  -28.2150  -16.8320   18.4750 C   0  0  0  0  0  1  0  0  0  0  0  0
  -27.1890  -17.6520   20.6840 C   0  0  0  0  0  1  0  0  0  0  0  0
  -28.4530  -17.6200   19.7950 C   0  0  2  0  0  0  0  0  0  0  0  0
  -29.5620  -16.8780   20.6780 C   0  0  0  0  0  2  0  0  0  0  0  0
  -30.8820  -14.7050   20.6520 C   0  0  0  0  0  0  0  0  0  0  0  0
  -30.5950  -12.4130   19.8020 C   0  0  0  0  0  2  0  0  0  0  0  0
  -29.7360  -12.3820   18.5270 C   0  0  0  0  0  2  0  0  0  0  0  0
  -28.2490  -12.2230   18.8960 C   0  0  0  0  0  2  0  0  0  0  0  0
  -27.7900  -13.1880   20.0260 C   0  0  0  0  0  3  0  0  0  0  0  0
  -28.8080  -13.2850   21.1840 C   0  0  0  0  0  2  0  0  0  0  0  0
  -30.1200  -13.5690   20.5810 N   0  0  0  0  0  0  0  0  0  0  0  0
  -32.1000  -14.5860   20.7320 O   0  0  0  0  0  0  0  0  0  0  0  0
  -30.4310  -15.8550   20.0210 N   0  0  0  0  0  0  0  0  0  0  0  0
  -25.3570  -13.7830   20.5680 C   0  0  0  0  0  0  0  0  0  0  0  0
  -24.2800  -13.0160   20.9080 C   0  0  0  0  0  0  0  0  0  0  0  0
  -24.7610  -11.6740   20.9570 C   0  0  0  0  0  0  0  0  0  0  0  0
  -26.4290  -12.9120   20.4580 N   0  0  0  0  0  0  0  0  0  0  0  0
  -26.0710  -11.6390   20.7480 N   0  0  0  0  0  0  0  0  0  0  0  0
  -24.0400  -10.4150   21.1340 C   0  0  0  0  0  0  0  0  0  0  0  0
  -24.4450   -9.4680   22.1010 C   0  0  0  0  0  3  0  0  0  0  0  0
  -23.7250   -8.2680   22.2670 C   0  0  0  0  0  3  0  0  0  0  0  0
  -22.5850   -8.0100   21.4690 C   0  0  0  0  0  0  0  0  0  0  0  0
  -22.2010   -8.9440   20.4920 C   0  0  0  0  0  3  0  0  0  0  0  0
  -22.9230  -10.1360   20.3220 C   0  0  0  0  0  3  0  0  0  0  0  0
  -21.8350   -6.8620   21.5470 O   0  0  0  0  0  0  0  0  0  0  0  0
  -21.7640   -6.1300   22.7050 C   0  0  0  0  0  0  0  0  0  0  0  0
  -21.3100   -6.6930   23.9170 C   0  0  0  0  0  3  0  0  0  0  0  0
  -21.1880   -5.8840   25.0650 C   0  0  0  0  0  3  0  0  0  0  0  0
  -21.5090   -4.5150   25.0000 C   0  0  0  0  0  0  0  0  0  0  0  0
  -21.9550   -3.9530   23.7910 C   0  0  0  0  0  3  0  0  0  0  0  0
  -22.0800   -4.7580   22.6460 C   0  0  0  0  0  0  0  0  0  0  0  0
  -22.4910   -4.2070   21.4770 F   0  0  0  0  0  0  0  0  0  0  0  0
  -21.3840   -3.7360   26.1000 F   0  0  0  0  0  0  0  0  0  0  0  0
  -22.8660  -13.4890   21.0700 C   0  0  0  0  0  0  0  0  0  0  0  0
  -22.0950  -12.8260   21.9230 N   0  0  0  0  0  0  0  0  0  0  0  0
  -22.4520  -14.4840   20.4760 O   0  0  0  0  0  0  0  0  0  0  0  0
  -22.4410  -12.0210   22.4250 H   0  0  0  0  0  0  0  0  0  0  0  0
  -21.1430  -13.1280   22.0750 H   0  0  0  0  0  0  0  0  0  0  0  0
  -25.4910  -15.1370   20.3060 N   0  0  0  0  0  0  0  0  0  0  0  0
  -24.6950  -15.7640   20.3160 H   0  0  0  0  0  0  0  0  0  0  0  0
  -26.3480  -15.5810   20.0030 H   0  0  0  0  0  0  0  0  0  0  0  0
  -32.5260  -17.2790   19.5940 C   0  0  0  0  0  1  0  0  0  0  0  0
  -31.6680  -15.6550   17.8210 C   0  0  0  0  0  1  0  0  0  0  0  0
  -31.2870  -16.5560   19.0100 C   0  0  0  0  0  3  0  0  0  0  0  0
  -30.0480  -22.5240   20.0560 C   0  0  0  0  0  2  0  0  0  0  0  0
  -29.4220  -23.8530   19.5030 C   0  0  0  0  0  2  0  0  0  0  0  0
  -31.4980  -25.1480   18.8730 C   0  0  0  0  0  1  0  0  0  0  0  0
  -30.5960  -25.3390   21.1890 C   0  0  0  0  0  1  0  0  0  0  0  0
  -30.1910  -25.2130   19.7000 C   0  0  2  0  0  0  0  0  0  0  0  0
  -28.6330  -26.2620   17.8820 C   0  0  0  0  0  1  0  0  0  0  0  0
  -30.1200  -27.7930   19.1910 C   0  0  0  0  0  1  0  0  0  0  0  0
  -29.3070  -26.4760   19.2600 C   0  0  2  0  0  0  0  0  0  0  0  0
  -28.3400  -26.6760   20.3050 O   0  0  0  0  0  0  0  0  0  0  0  0
  -24.5690  -31.9350   23.2520 C   0  0  0  0  0  0  0  0  0  0  0  0
  -27.2310  -27.4910   20.1720 C   0  0  0  0  0  0  0  0  0  0  0  0
  -23.3670  -30.5280   21.6110 C   0  0  0  0  0  3  0  0  0  0  0  0
  -24.8270  -28.9900   20.1850 C   0  0  0  0  0  0  0  0  0  0  0  0
  -25.8930  -30.8880   21.4170 C   0  0  0  0  0  2  0  0  0  0  0  0
  -25.9840  -29.5180   20.7730 C   0  0  0  0  0  0  0  0  0  0  0  0
  -27.1870  -28.7720   20.7720 C   0  0  0  0  0  3  0  0  0  0  0  0
  -26.0520  -26.9700   19.6000 C   0  0  0  0  0  3  0  0  0  0  0  0
  -24.8570  -27.7150   19.5930 C   0  0  0  0  0  3  0  0  0  0  0  0
  -23.5790  -29.8440   20.2330 C   0  0  0  0  0  2  0  0  0  0  0  0
  -24.6280  -31.1310   22.1530 N   0  0  0  0  0  0  0  0  0  0  0  0
  -23.4870  -32.2090   23.7890 O   0  0  0  0  0  0  0  0  0  0  0  0
  -22.7110  -29.5120   22.5740 C   0  0  0  0  0  0  0  0  0  0  0  0
  -21.3840  -29.3380   22.4490 N   0  0  0  0  0  0  0  0  0  0  0  0
  -23.3910  -28.8840   23.3890 O   0  0  0  0  0  0  0  0  0  0  0  0
  -20.8970  -29.8970   21.7630 H   0  0  0  0  0  0  0  0  0  0  0  0
  -18.0030  -28.1660   22.9550 C   0  0  0  0  0  0  0  0  0  0  0  0
  -20.5640  -28.4050   23.2200 C   0  0  0  0  0  3  0  0  0  0  0  0
  -20.6540  -26.9740   22.6410 C   0  0  0  0  0  2  0  0  0  0  0  0
  -19.5470  -26.6600   21.6300 C   0  0  0  0  0  2  0  0  0  0  0  0
  -18.1680  -26.8160   22.2770 C   0  0  0  0  0  2  0  0  0  0  0  0
  -19.1280  -28.9190   23.3830 C   0  0  0  0  0  0  0  0  0  0  0  0
  -18.9210  -30.1840   23.9760 C   0  0  0  0  0  3  0  0  0  0  0  0
  -17.6200  -30.6950   24.1440 C   0  0  0  0  0  3  0  0  0  0  0  0
  -16.5100  -29.9370   23.7340 C   0  0  0  0  0  3  0  0  0  0  0  0
  -16.7010  -28.6750   23.1450 C   0  0  0  0  0  3  0  0  0  0  0  0
  -25.8540  -32.5670   23.8740 C   0  0  0  0  0  3  0  0  0  0  0  0
  -25.5500  -33.9690   24.1890 N   0  0  0  0  0  0  0  0  0  0  0  0
  -25.9000  -35.0140   23.4270 C   0  0  0  0  0  0  0  0  0  0  0  0
  -26.5830  -34.8980   22.4060 O   0  0  0  0  0  0  0  0  0  0  0  0
  -24.9460  -34.1340   24.9810 H   0  0  0  0  0  0  0  0  0  0  0  0
  -24.1970  -36.8180   23.0240 C   0  0  0  0  0  1  0  0  0  0  0  0
  -25.4150  -36.4080   23.8660 C   0  0  0  0  0  3  0  0  0  0  0  0
  -27.5390  -37.2760   24.7400 C   0  0  0  0  0  1  0  0  0  0  0  0
  -26.4600  -37.4500   23.7720 N   0  0  0  0  0  0  0  0  0  0  0  0
  -26.0590  -38.3760   23.9060 H   0  0  0  0  0  0  0  0  0  0  0  0
  -26.3640  -31.8040   25.1570 C   0  0  1  0  0  0  0  0  0  0  0  0
  -25.2660  -31.5770   26.2220 C   0  0  0  0  0  1  0  0  0  0  0  0
  -26.9450  -30.4230   24.7750 C   0  0  0  0  0  1  0  0  0  0  0  0
  -27.5140  -32.5990   25.8170 C   0  0  0  0  0  1  0  0  0  0  0  0
  1  2  2  0
  2  6  1  0
  2 52  1  0
  3 10  1  0
  3  6  1  0
  4  5  1  0
  5  1  1  0
  5  3  1  0
  6  7  1  0
 10  8  1  6
 10 11  1  0
 10  9  1  0
 12 19  2  0
 13 18  1  0
 14 15  1  0
 14 13  1  0
 16 15  1  0
 16 24  1  0
 16 17  1  0
 18 12  1  0
 18 17  1  0
 20 12  1  0
 20 11  1  0
 21 22  2  0
 22 23  1  0
 22 41  1  0
 23 26  1  0
 24 21  1  0
 24 25  1  0
 25 23  2  0
 26 27  1  0
 27 28  2  0
 29 32  1  0
 29 28  1  0
 30 29  2  0
 31 30  1  0
 31 26  2  0
 32 33  1  0
 33 34  1  0
 34 35  2  0
 36 35  1  0
 36 40  1  0
 37 36  2  0
 38 33  2  0
 38 37  1  0
 39 38  1  0
 41 42  1  0
 42 45  1  0
 42 44  1  0
 43 41  2  0
 46 47  1  0
 46 21  1  0
 48 46  1  0
 50 51  1  0
 51 49  1  0
 51 20  1  0
 53 56  1  0
 53 52  1  0
 56 54  1  6
 56 55  1  0
 59 57  1  6
 58 59  1  0
 59 56  1  0
 59 60  1  0
 61 72  2  0
 62 60  1  0
 62 67  1  0
 63 71  1  0
 63 73  1  0
 64 70  1  0
 64 66  1  0
 65 71  1  0
 66 65  1  0
 67 66  2  0
 68 62  2  0
 69 68  1  0
 69 64  2  0
 70 63  1  0
 71 61  1  0
 73 75  2  0
 74 73  1  0
 76 74  1  0
 77 86  2  0
 77 82  1  0
 78 74  1  0
 78 82  1  0
 79 78  1  0
 80 81  1  0
 80 79  1  0
 81 77  1  0
 82 83  2  0
 83 84  1  0
 85 84  2  0
 86 85  1  0
 87 61  1  0
 87 88  1  0
 87 97  1  0
 88 91  1  0
 89 93  1  0
 89 88  1  0
 90 89  2  0
 93 92  1  0
 95 93  1  0
 95 96  1  0
 95 94  1  0
 97100  1  1
 97 98  1  0
 99 97  1  0
M  ISO  4  12 100  20 100  59 101  60 101
M  END
>  <TORSDO>  (39) 
F 23

>  <SCORE>  (39) 
-12.398

>  <name>  (39) 
40

>  <ligand_id>  (39) 
40

>  <original_smiles>  (39) 
[H]c1c([H])c([H])c2c(c1[H])C([H])([H])C([H])([H])C([H])([H])C2([H])N([H])C(=O)C1([H])N(C(=O)C([H])(N([H])C(=O)C([H])(N([H])C([H])([H])[H])C([H])([H])[H])C(C([H])([H])[H])(C([H])([H])[H])C([H])([H])[H])C([H])([H])c2c([H])c(OC(C([H])([H])[H])(C([H])([H])[H])C(C([H])([H])[H])(C([H])([H])[H])C([H])([H])C([H])([H])c3c([H])n(C([H])([H])[H])c(C(C([H])([H])[H])(C([H])([H])[H])C([H])([H])N(C(=O)N4C([H])([H])C([H])([H])C([H])([H])C([H])(n5nc(-c6c([H])c([H])c(Oc7c([H])c([H])c(F)c([H])c7F)c([H])c6[H])c(C(=O)N([H])[H])c5N([H])[H])C4([H])[H])C([H])(C([H])([H])[H])C([H])([H])[H])[n+]3[H])c([H])c([H])c2C1([H])[H]

>  <smiles>  (39) 
[H]c1c([H])c([H])c2c(c1[H])C([H])([H])C([H])([H])C([H])([H])C2([H])N([H])C(=O)C1([H])N(C(=O)C([H])(N([H])C(=O)C([H])(N([H])C([H])([H])[H])C([H])([H])[H])C(C([H])([H])[H])(C([H])([H])[H])C([H])([H])[H])C([H])([H])c2c([H])c(OC(C([H])([H])[H])(C([H])([H])[H])C(C([H])([H])[H])(C([H])([H])[H])C([H])([H])C([H])([H])c3c([H])n(C([H])([H])[H])c(C(C([H])([H])[H])(C([H])([H])[H])C([H])([H])N(C(=O)N4C([H])([H])C([H])([H])C([H])([H])C([H])(n5nc(-c6c([H])c([H])c(Oc7c([H])c([H])c(F)c([H])c7F)c([H])c6[H])c(C(=O)N([H])[H])c5N([H])[H])C4([H])[H])C([H])(C([H])([H])[H])C([H])([H])[H])[n+]3[H])c([H])c([H])c2C1([H])[H]

$$$$
41:0:0
     RDKit          3D

 97105  0  0  1  0  0  0  0  0999 V2000
  -28.7190  -21.9220   19.0060 C   0  0  0  0  0  3  0  0  0  0  0  0
  -29.2580  -22.4590   20.1520 C   0  0  0  0  0  0  0  0  0  0  0  0
  -29.8950  -20.1930   19.8860 C   0  0  0  0  0  3  0  0  0  0  0  0
  -29.9620  -21.3250   20.6920 N   0  0  0  0  0  0  0  0  0  0  0  0
  -29.0740  -20.5950   18.9020 N   0  0  0  0  0  0  0  0  0  0  0  0
  -28.7810  -20.0030   18.1360 H   0  0  0  0  0  0  0  0  0  0  0  0
  -31.8330  -18.6670   20.7990 C   0  0  0  0  0  1  0  0  0  0  0  0
  -31.1800  -18.5640   18.4450 C   0  0  0  0  0  1  0  0  0  0  0  0
  -30.6040  -18.7250   19.8730 C   0  0  2  0  0  0  0  0  0  0  0  0
  -29.7280  -17.3680   20.1170 C   0  0  0  0  0  2  0  0  0  0  0  0
  -30.9560  -14.9630   20.0570 C   0  0  0  0  0  0  0  0  0  0  0  0
  -30.7500  -12.6680   19.0630 C   0  0  0  0  0  2  0  0  0  0  0  0
  -29.7840  -12.7160   17.8580 C   0  0  0  0  0  2  0  0  0  0  0  0
  -28.3220  -12.5380   18.3160 C   0  0  0  0  0  2  0  0  0  0  0  0
  -27.9720  -13.4420   19.5250 C   0  0  0  0  0  3  0  0  0  0  0  0
  -29.0490  -13.3510   20.6230 C   0  0  0  0  0  2  0  0  0  0  0  0
  -30.3400  -13.7250   20.0180 N   0  0  0  0  0  0  0  0  0  0  0  0
  -32.0420  -15.1160   19.4850 O   0  0  0  0  0  0  0  0  0  0  0  0
  -30.3260  -15.9880   22.1410 C   0  0  0  0  0  1  0  0  0  0  0  0
  -30.3050  -16.0340   20.6700 N   0  0  0  0  0  0  0  0  0  0  0  0
  -25.6210  -14.0580   20.3480 C   0  0  0  0  0  0  0  0  0  0  0  0
  -24.5540  -13.2940   20.7380 C   0  0  0  0  0  0  0  0  0  0  0  0
  -24.9920  -11.9360   20.6600 C   0  0  0  0  0  0  0  0  0  0  0  0
  -26.6390  -13.1650   20.0520 N   0  0  0  0  0  0  0  0  0  0  0  0
  -26.2700  -11.8830   20.3030 N   0  0  0  0  0  0  0  0  0  0  0  0
  -24.2520  -10.6830   20.8490 C   0  0  0  0  0  0  0  0  0  0  0  0
  -24.6540   -9.7250   21.8060 C   0  0  0  0  0  3  0  0  0  0  0  0
  -23.9120   -8.5370   21.9840 C   0  0  0  0  0  3  0  0  0  0  0  0
  -22.7570   -8.2970   21.2020 C   0  0  0  0  0  0  0  0  0  0  0  0
  -22.3750   -9.2440   20.2350 C   0  0  0  0  0  3  0  0  0  0  0  0
  -23.1170  -10.4230   20.0570 C   0  0  0  0  0  3  0  0  0  0  0  0
  -21.9890   -7.1620   21.2860 O   0  0  0  0  0  0  0  0  0  0  0  0
  -21.8220   -6.4910   22.4700 C   0  0  0  0  0  0  0  0  0  0  0  0
  -21.2860   -7.1210   23.6150 C   0  0  0  0  0  3  0  0  0  0  0  0
  -21.0650   -6.3770   24.7910 C   0  0  0  0  0  3  0  0  0  0  0  0
  -21.3730   -5.0010   24.8210 C   0  0  0  0  0  0  0  0  0  0  0  0
  -21.9030   -4.3730   23.6810 C   0  0  0  0  0  3  0  0  0  0  0  0
  -22.1250   -5.1160   22.5100 C   0  0  0  0  0  0  0  0  0  0  0  0
  -22.6140   -4.4980   21.4060 F   0  0  0  0  0  0  0  0  0  0  0  0
  -21.1560   -4.2840   25.9480 F   0  0  0  0  0  0  0  0  0  0  0  0
  -23.1750  -13.7890   21.0680 C   0  0  0  0  0  0  0  0  0  0  0  0
  -22.4730  -13.1030   21.9630 N   0  0  0  0  0  0  0  0  0  0  0  0
  -22.7320  -14.8230   20.5710 O   0  0  0  0  0  0  0  0  0  0  0  0
  -22.8450  -12.2640   22.3860 H   0  0  0  0  0  0  0  0  0  0  0  0
  -21.5490  -13.4160   22.2250 H   0  0  0  0  0  0  0  0  0  0  0  0
  -25.8040  -15.4280   20.1990 N   0  0  0  0  0  0  0  0  0  0  0  0
  -25.0520  -16.0910   20.3590 H   0  0  0  0  0  0  0  0  0  0  0  0
  -26.6550  -15.8660   19.8700 H   0  0  0  0  0  0  0  0  0  0  0  0
  -29.9790  -20.4870   23.0430 C   0  0  0  0  0  1  0  0  0  0  0  0
  -30.7140  -21.2770   21.9540 C   0  0  0  0  0  2  0  0  0  0  0  0
  -28.9350  -23.9420   20.7270 C   0  0  1  0  0  0  0  0  0  0  0  0
  -26.8760  -24.8830   22.1520 C   0  0  0  0  0  1  0  0  0  0  0  0
  -27.6030  -23.6920   21.5050 C   0  0  0  0  0  2  0  0  0  0  0  0
  -29.8810  -24.4540   23.1960 C   0  0  0  0  0  1  0  0  0  0  0  0
  -30.0620  -24.5240   21.6540 C   0  0  0  0  0  2  0  0  0  0  0  0
  -28.6790  -25.0920   19.5750 C   0  0  0  0  0  2  0  0  0  0  0  0
  -28.6590  -26.5940   19.8140 O   0  0  0  0  0  0  0  0  0  0  0  0
  -24.6950  -31.7330   23.0380 C   0  0  0  0  0  0  0  0  0  0  0  0
  -27.5150  -27.4210   19.7620 C   0  0  0  0  0  0  0  0  0  0  0  0
  -23.5670  -30.3570   21.3280 C   0  0  0  0  0  3  0  0  0  0  0  0
  -25.0880  -28.9600   19.8180 C   0  0  0  0  0  0  0  0  0  0  0  0
  -26.0890  -30.8040   21.1670 C   0  0  0  0  0  2  0  0  0  0  0  0
  -26.2350  -29.4620   20.4470 C   0  0  0  0  0  0  0  0  0  0  0  0
  -27.4460  -28.7030   20.4120 C   0  0  0  0  0  3  0  0  0  0  0  0
  -26.3480  -26.9960   19.0930 C   0  0  0  0  0  3  0  0  0  0  0  0
  -25.1520  -27.7380   19.1330 C   0  0  0  0  0  3  0  0  0  0  0  0
  -23.8130  -29.7740   19.9110 C   0  0  0  0  0  2  0  0  0  0  0  0
  -24.8020  -30.9860   21.9000 N   0  0  0  0  0  0  0  0  0  0  0  0
  -23.6000  -31.9210   23.5860 O   0  0  0  0  0  0  0  0  0  0  0  0
  -22.9650  -29.2580   22.2360 C   0  0  0  0  0  0  0  0  0  0  0  0
  -21.6500  -29.0130   22.1090 N   0  0  0  0  0  0  0  0  0  0  0  0
  -23.6830  -28.6280   23.0180 O   0  0  0  0  0  0  0  0  0  0  0  0
  -21.1220  -29.5810   21.4580 H   0  0  0  0  0  0  0  0  0  0  0  0
  -18.3560  -27.5720   22.5270 C   0  0  0  0  0  0  0  0  0  0  0  0
  -20.8920  -27.9890   22.8330 C   0  0  0  0  0  3  0  0  0  0  0  0
  -21.0910  -26.5920   22.2000 C   0  0  0  0  0  2  0  0  0  0  0  0
  -20.0210  -26.2380   21.1620 C   0  0  0  0  0  2  0  0  0  0  0  0
  -18.6270  -26.2680   21.7960 C   0  0  0  0  0  2  0  0  0  0  0  0
  -19.4200  -28.3860   23.0000 C   0  0  0  0  0  0  0  0  0  0  0  0
  -19.1130  -29.6080   23.6410 C   0  0  0  0  0  3  0  0  0  0  0  0
  -17.7780  -30.0140   23.8150 C   0  0  0  0  0  3  0  0  0  0  0  0
  -16.7290  -29.1950   23.3600 C   0  0  0  0  0  3  0  0  0  0  0  0
  -17.0190  -27.9780   22.7210 C   0  0  0  0  0  3  0  0  0  0  0  0
  -25.9430  -32.4080   23.6910 C   0  0  0  0  0  3  0  0  0  0  0  0
  -25.5640  -33.7780   24.0670 N   0  0  0  0  0  0  0  0  0  0  0  0
  -25.8430  -34.8710   23.3450 C   0  0  0  0  0  0  0  0  0  0  0  0
  -26.5170  -34.8360   22.3110 O   0  0  0  0  0  0  0  0  0  0  0  0
  -24.9730  -33.8740   24.8800 H   0  0  0  0  0  0  0  0  0  0  0  0
  -24.0210  -36.5790   23.0620 C   0  0  0  0  0  1  0  0  0  0  0  0
  -25.2880  -36.2180   23.8510 C   0  0  0  0  0  3  0  0  0  0  0  0
  -27.3810  -37.1890   24.6920 C   0  0  0  0  0  1  0  0  0  0  0  0
  -26.2630  -37.3260   23.7610 N   0  0  0  0  0  0  0  0  0  0  0  0
  -25.8100  -38.2190   23.9420 H   0  0  0  0  0  0  0  0  0  0  0  0
  -26.4840  -31.6240   24.9490 C   0  0  1  0  0  0  0  0  0  0  0  0
  -25.3990  -31.3120   26.0060 C   0  0  0  0  0  1  0  0  0  0  0  0
  -27.1230  -30.2840   24.5200 C   0  0  0  0  0  1  0  0  0  0  0  0
  -27.6000  -32.4450   25.6350 C   0  0  0  0  0  1  0  0  0  0  0  0
  1  2  2  0
  2  4  1  0
  2 51  1  0
  3  9  1  0
  3  4  1  0
  4 50  1  0
  5  1  1  0
  5  3  1  0
  6  5  1  0
  9  8  1  6
  9 10  1  0
  9  7  1  0
 10 20  1  0
 11 20  1  0
 12 17  1  0
 13 14  1  0
 13 12  1  0
 15 14  1  0
 15 24  1  0
 15 16  1  0
 17 11  1  0
 17 16  1  0
 18 11  2  0
 20 19  1  0
 21 22  2  0
 22 41  1  0
 23 22  1  0
 23 26  1  0
 24 25  1  0
 24 21  1  0
 25 23  2  0
 26 27  1  0
 27 28  2  0
 29 32  1  0
 29 28  1  0
 30 29  2  0
 31 30  1  0
 31 26  2  0
 32 33  1  0
 33 38  2  0
 33 34  1  0
 34 35  2  0
 35 36  1  0
 36 40  1  0
 37 36  2  0
 38 37  1  0
 39 38  1  0
 41 42  1  0
 42 45  1  0
 42 44  1  0
 43 41  2  0
 46 21  1  0
 46 47  1  0
 48 46  1  0
 50 49  1  0
 51 53  1  1
 51 55  1  0
 53 52  1  0
 55 54  1  0
 56 57  1  0
 56 51  1  0
 58 69  2  0
 59 57  1  0
 59 64  1  0
 60 68  1  0
 60 70  1  0
 61 67  1  0
 61 63  1  0
 62 68  1  0
 63 62  1  0
 64 63  2  0
 65 66  1  0
 65 59  2  0
 66 61  2  0
 67 60  1  0
 68 58  1  0
 70 72  2  0
 71 70  1  0
 73 71  1  0
 74 83  2  0
 74 79  1  0
 75 71  1  0
 75 79  1  0
 76 75  1  0
 77 78  1  0
 77 76  1  0
 78 74  1  0
 79 80  2  0
 80 81  1  0
 82 81  2  0
 83 82  1  0
 84 58  1  0
 84 85  1  0
 84 94  1  0
 85 88  1  0
 86 90  1  0
 86 85  1  0
 87 86  2  0
 90 89  1  0
 92 90  1  0
 92 93  1  0
 92 91  1  0
 94 97  1  1
 94 95  1  0
 96 94  1  0
M  ISO  4  11 100  20 100  56 101  57 101
M  END
>  <TORSDO>  (40) 
F 23

>  <SCORE>  (40) 
-11.671

>  <name>  (40) 
41

>  <ligand_id>  (40) 
41

>  <original_smiles>  (40) 
[H]c1c([H])c([H])c2c(c1[H])C([H])([H])C([H])([H])C([H])([H])C2([H])N([H])C(=O)C1([H])N(C(=O)C([H])(N([H])C(=O)C([H])(N([H])C([H])([H])[H])C([H])([H])[H])C(C([H])([H])[H])(C([H])([H])[H])C([H])([H])[H])C([H])([H])c2c([H])c(OC([H])([H])C(c3c([H])[n+]([H])c(C(C([H])([H])[H])(C([H])([H])[H])C([H])([H])N(C(=O)N4C([H])([H])C([H])([H])C([H])([H])C([H])(n5nc(-c6c([H])c([H])c(Oc7c([H])c([H])c(F)c([H])c7F)c([H])c6[H])c(C(=O)N([H])[H])c5N([H])[H])C4([H])[H])C([H])([H])[H])n3C([H])([H])C([H])([H])[H])(C([H])([H])C([H])([H])[H])C([H])([H])C([H])([H])[H])c([H])c([H])c2C1([H])[H]

>  <smiles>  (40) 
[H]c1c([H])c([H])c2c(c1[H])C([H])([H])C([H])([H])C([H])([H])C2([H])N([H])C(=O)C1([H])N(C(=O)C([H])(N([H])C(=O)C([H])(N([H])C([H])([H])[H])C([H])([H])[H])C(C([H])([H])[H])(C([H])([H])[H])C([H])([H])[H])C([H])([H])c2c([H])c(OC([H])([H])C(c3c([H])[n+]([H])c(C(C([H])([H])[H])(C([H])([H])[H])C([H])([H])N(C(=O)N4C([H])([H])C([H])([H])C([H])([H])C([H])(n5nc(-c6c([H])c([H])c(Oc7c([H])c([H])c(F)c([H])c7F)c([H])c6[H])c(C(=O)N([H])[H])c5N([H])[H])C4([H])[H])C([H])([H])[H])n3C([H])([H])C([H])([H])[H])(C([H])([H])C([H])([H])[H])C([H])([H])C([H])([H])[H])c([H])c([H])c2C1([H])[H]

$$$$
42:0:0
     RDKit          3D

101109  0  0  1  0  0  0  0  0999 V2000
  -29.5560  -21.6750   19.2140 C   0  0  2  0  0  0  0  0  0  0  0  0
  -29.5880  -19.1440   20.1980 C   0  0  0  0  0  3  0  0  0  0  0  0
  -29.7300  -20.0960   19.1980 C   0  0  0  0  0  0  0  0  0  0  0  0
  -30.1500  -19.2520   18.0950 C   0  0  0  0  0  0  0  0  0  0  0  0
  -30.2050  -17.9620   18.4120 N   0  0  0  0  0  0  0  0  0  0  0  0
  -29.8500  -17.8600   19.6970 N   0  0  0  0  0  0  0  0  0  0  0  0
  -32.1370  -19.3910   16.5660 C   0  0  0  0  0  1  0  0  0  0  0  0
  -30.6160  -19.5810   16.6830 C   0  0  0  0  0  3  0  0  0  0  0  0
  -28.3530  -19.0110   15.5460 C   0  0  0  0  0  1  0  0  0  0  0  0
  -29.8710  -18.7870   15.5820 C   0  0  0  0  0  2  0  0  0  0  0  0
  -28.7800  -16.5410   21.4990 C   0  0  0  0  0  1  0  0  0  0  0  0
  -29.7390  -16.4890   20.2900 C   0  0  0  0  0  3  0  0  0  0  0  0
  -31.3050  -15.2430   22.0410 C   0  0  0  0  0  1  0  0  0  0  0  0
  -32.2900  -16.6570   20.3280 C   0  0  0  0  0  1  0  0  0  0  0  0
  -31.1000  -15.6740   20.5570 C   0  0  2  0  0  0  0  0  0  0  0  0
  -31.3220  -14.3920   19.6310 C   0  0  0  0  0  0  0  0  0  0  0  0
  -30.7740  -12.1710   18.6330 C   0  0  0  0  0  2  0  0  0  0  0  0
  -29.7740  -12.3010   17.4670 C   0  0  0  0  0  2  0  0  0  0  0  0
  -28.3320  -12.2320   17.9960 C   0  0  0  0  0  2  0  0  0  0  0  0
  -28.1050  -13.1930   19.1880 C   0  0  0  0  0  3  0  0  0  0  0  0
  -29.2210  -13.0770   20.2480 C   0  0  0  0  0  2  0  0  0  0  0  0
  -30.5220  -13.2730   19.5930 N   0  0  0  0  0  0  0  0  0  0  0  0
  -32.3330  -14.4070   18.9220 O   0  0  0  0  0  0  0  0  0  0  0  0
  -25.8410  -13.9800   20.1130 C   0  0  0  0  0  0  0  0  0  0  0  0
  -24.7490  -13.2920   20.5690 C   0  0  0  0  0  0  0  0  0  0  0  0
  -25.0940  -11.9090   20.4940 C   0  0  0  0  0  0  0  0  0  0  0  0
  -26.7840  -13.0190   19.7850 N   0  0  0  0  0  0  0  0  0  0  0  0
  -26.3460  -11.7680   20.0760 N   0  0  0  0  0  0  0  0  0  0  0  0
  -24.2850  -10.7080   20.7400 C   0  0  0  0  0  0  0  0  0  0  0  0
  -24.6890   -9.7210   21.6660 C   0  0  0  0  0  3  0  0  0  0  0  0
  -23.8850   -8.5840   21.8980 C   0  0  0  0  0  3  0  0  0  0  0  0
  -22.6630   -8.4260   21.2030 C   0  0  0  0  0  0  0  0  0  0  0  0
  -22.2760   -9.3990   20.2640 C   0  0  0  0  0  3  0  0  0  0  0  0
  -23.0810  -10.5280   20.0310 C   0  0  0  0  0  3  0  0  0  0  0  0
  -21.8300   -7.3430   21.3430 O   0  0  0  0  0  0  0  0  0  0  0  0
  -21.7560   -6.6390   22.5190 C   0  0  0  0  0  0  0  0  0  0  0  0
  -21.4130   -7.2620   23.7380 C   0  0  0  0  0  3  0  0  0  0  0  0
  -21.2800   -6.4890   24.9090 C   0  0  0  0  0  3  0  0  0  0  0  0
  -21.4800   -5.0960   24.8620 C   0  0  0  0  0  0  0  0  0  0  0  0
  -21.8170   -4.4740   23.6480 C   0  0  0  0  0  3  0  0  0  0  0  0
  -21.9510   -5.2440   22.4780 C   0  0  0  0  0  0  0  0  0  0  0  0
  -22.2550   -4.6370   21.3060 F   0  0  0  0  0  0  0  0  0  0  0  0
  -21.3460   -4.3530   25.9860 F   0  0  0  0  0  0  0  0  0  0  0  0
  -23.4230  -13.8790   20.9580 C   0  0  0  0  0  0  0  0  0  0  0  0
  -22.7260  -13.2490   21.8980 N   0  0  0  0  0  0  0  0  0  0  0  0
  -23.0180  -14.9290   20.4620 O   0  0  0  0  0  0  0  0  0  0  0  0
  -23.0670  -12.3980   22.3190 H   0  0  0  0  0  0  0  0  0  0  0  0
  -21.8370  -13.6240   22.2010 H   0  0  0  0  0  0  0  0  0  0  0  0
  -26.1000  -15.3350   19.9290 N   0  0  0  0  0  0  0  0  0  0  0  0
  -25.3990  -16.0450   20.1080 H   0  0  0  0  0  0  0  0  0  0  0  0
  -26.9470  -15.7080   19.5210 H   0  0  0  0  0  0  0  0  0  0  0  0
  -27.2160  -21.3990   17.9900 C   0  0  0  0  0  1  0  0  0  0  0  0
  -28.5750  -22.1190   18.0830 C   0  0  0  0  0  2  0  0  0  0  0  0
  -32.0890  -21.9770   19.8630 C   0  0  0  0  0  1  0  0  0  0  0  0
  -30.9580  -22.2660   18.8590 C   0  0  0  0  0  2  0  0  0  0  0  0
  -27.7020  -21.8300   21.1210 C   0  0  0  0  0  1  0  0  0  0  0  0
  -29.0650  -22.3390   20.5980 C   0  0  0  0  0  3  0  0  0  0  0  0
  -29.4450  -24.1930   22.3510 C   0  0  0  0  0  1  0  0  0  0  0  0
  -29.2220  -23.9300   20.8480 C   0  0  0  0  0  3  0  0  0  0  0  0
  -28.0850  -24.9090   20.3480 C   0  0  0  0  0  2  0  0  0  0  0  0
  -28.3290  -26.3530   20.4590 O   0  0  0  0  0  0  0  0  0  0  0  0
  -24.5900  -31.8170   23.2370 C   0  0  0  0  0  0  0  0  0  0  0  0
  -27.2130  -27.1860   20.3530 C   0  0  0  0  0  0  0  0  0  0  0  0
  -23.3990  -30.3830   21.6170 C   0  0  0  0  0  3  0  0  0  0  0  0
  -24.8590  -28.7900   20.2570 C   0  0  0  0  0  0  0  0  0  0  0  0
  -25.9410  -30.6860   21.4630 C   0  0  0  0  0  2  0  0  0  0  0  0
  -26.0190  -29.2940   20.8570 C   0  0  0  0  0  0  0  0  0  0  0  0
  -27.2010  -28.5020   20.8970 C   0  0  0  0  0  3  0  0  0  0  0  0
  -26.0300  -26.7290   19.7230 C   0  0  0  0  0  3  0  0  0  0  0  0
  -24.8640  -27.5120   19.6800 C   0  0  0  0  0  3  0  0  0  0  0  0
  -23.6270  -29.6700   20.2590 C   0  0  0  0  0  2  0  0  0  0  0  0
  -24.6620  -30.9800   22.1630 N   0  0  0  0  0  0  0  0  0  0  0  0
  -23.5010  -32.1190   23.7460 O   0  0  0  0  0  0  0  0  0  0  0  0
  -22.7160  -29.3960   22.5930 C   0  0  0  0  0  0  0  0  0  0  0  0
  -21.3910  -29.2260   22.4460 N   0  0  0  0  0  0  0  0  0  0  0  0
  -23.3750  -28.7880   23.4400 O   0  0  0  0  0  0  0  0  0  0  0  0
  -20.9200  -29.7680   21.7360 H   0  0  0  0  0  0  0  0  0  0  0  0
  -17.9910  -28.0910   22.9250 C   0  0  0  0  0  0  0  0  0  0  0  0
  -20.5480  -28.3200   23.2280 C   0  0  0  0  0  3  0  0  0  0  0  0
  -20.6370  -26.8730   22.6900 C   0  0  0  0  0  2  0  0  0  0  0  0
  -19.5470  -26.5410   21.6670 C   0  0  0  0  0  2  0  0  0  0  0  0
  -18.1570  -26.7230   22.2870 C   0  0  0  0  0  2  0  0  0  0  0  0
  -19.1140  -28.8480   23.3520 C   0  0  0  0  0  0  0  0  0  0  0  0
  -18.9060  -30.1300   23.9070 C   0  0  0  0  0  3  0  0  0  0  0  0
  -17.6070  -30.6540   24.0400 C   0  0  0  0  0  3  0  0  0  0  0  0
  -16.4970  -29.8950   23.6310 C   0  0  0  0  0  3  0  0  0  0  0  0
  -16.6900  -28.6160   23.0780 C   0  0  0  0  0  3  0  0  0  0  0  0
  -25.8700  -32.4530   23.8610 C   0  0  0  0  0  3  0  0  0  0  0  0
  -26.3860  -31.6830   25.1400 C   0  0  1  0  0  0  0  0  0  0  0  0
  -25.2900  -31.4360   26.2010 C   0  0  0  0  0  1  0  0  0  0  0  0
  -26.9820  -30.3100   24.7470 C   0  0  0  0  0  1  0  0  0  0  0  0
  -27.5270  -32.4850   25.8090 C   0  0  0  0  0  1  0  0  0  0  0  0
  -25.5560  -33.8500   24.1900 N   0  0  0  0  0  0  0  0  0  0  0  0
  -25.8870  -34.9030   23.4310 C   0  0  0  0  0  0  0  0  0  0  0  0
  -26.5600  -34.8020   22.4010 O   0  0  0  0  0  0  0  0  0  0  0  0
  -24.9600  -34.0030   24.9900 H   0  0  0  0  0  0  0  0  0  0  0  0
  -24.1560  -36.6910   23.0660 C   0  0  0  0  0  1  0  0  0  0  0  0
  -25.3920  -36.2900   23.8850 C   0  0  0  0  0  3  0  0  0  0  0  0
  -27.5210  -37.1780   24.7310 C   0  0  0  0  0  1  0  0  0  0  0  0
  -26.4230  -37.3450   23.7820 N   0  0  0  0  0  0  0  0  0  0  0  0
  -26.0130  -38.2640   23.9310 H   0  0  0  0  0  0  0  0  0  0  0  0
  1 57  1  0
  3  1  1  0
  3  2  2  0
  4  5  2  0
  4  3  1  0
  5  6  1  0
  6  2  1  0
  6 12  1  0
  8  7  1  0
  8  4  1  0
  9 10  1  0
 10  8  1  0
 12 15  1  0
 12 11  1  0
 15 14  1  6
 15 13  1  0
 16 15  1  0
 17 22  1  0
 18 19  1  0
 18 17  1  0
 20 19  1  0
 20 27  1  0
 20 21  1  0
 22 16  1  0
 22 21  1  0
 23 16  2  0
 24 25  2  0
 25 44  1  0
 26 25  1  0
 26 29  1  0
 27 28  1  0
 27 24  1  0
 28 26  2  0
 29 30  1  0
 30 31  2  0
 32 35  1  0
 32 31  1  0
 33 32  2  0
 34 33  1  0
 34 29  2  0
 35 36  1  0
 36 37  1  0
 37 38  2  0
 39 38  1  0
 39 43  1  0
 40 39  2  0
 41 36  2  0
 41 40  1  0
 42 41  1  0
 44 45  1  0
 45 48  1  0
 45 47  1  0
 46 44  2  0
 49 50  1  0
 49 24  1  0
 51 49  1  0
 52 53  1  0
  1 53  1  6
 55  1  1  0
 55 54  1  0
 57 59  1  0
 57 56  1  0
 59 58  1  0
 60 61  1  0
 60 59  1  0
 62 73  2  0
 63 61  1  0
 63 68  1  0
 64 72  1  0
 64 74  1  0
 65 71  1  0
 65 67  1  0
 66 72  1  0
 67 68  2  0
 67 66  1  0
 69 63  2  0
 70 69  1  0
 70 65  2  0
 71 64  1  0
 72 62  1  0
 74 76  2  0
 75 74  1  0
 77 75  1  0
 78 87  2  0
 78 83  1  0
 79 75  1  0
 79 83  1  0
 80 79  1  0
 81 82  1  0
 81 80  1  0
 82 78  1  0
 83 84  2  0
 84 85  1  0
 86 85  2  0
 87 86  1  0
 88 62  1  0
 88 93  1  0
 88 89  1  0
 89 92  1  1
 89 90  1  0
 91 89  1  0
 93 96  1  0
 94 98  1  0
 94 93  1  0
 95 94  2  0
 98 97  1  0
100 98  1  0
100101  1  0
100 99  1  0
M  ISO  4  15 100  16 100  60 101  61 101
M  END
>  <TORSDO>  (41) 
F 26

>  <SCORE>  (41) 
-11.143

>  <name>  (41) 
42

>  <ligand_id>  (41) 
42

>  <original_smiles>  (41) 
[H]c1c([H])c([H])c2c(c1[H])C([H])([H])C([H])([H])C([H])([H])C2([H])N([H])C(=O)C1([H])N(C(=O)C([H])(N([H])C(=O)C([H])(N([H])C([H])([H])[H])C([H])([H])[H])C(C([H])([H])[H])(C([H])([H])[H])C([H])([H])[H])C([H])([H])c2c([H])c(OC([H])([H])C([H])(C([H])([H])[H])C([H])(C([H])([H])[H])C(c3c(C([H])(C([H])([H])[H])C([H])([H])C([H])([H])[H])nn(C([H])(C([H])([H])[H])C(C(=O)N4C([H])([H])C([H])([H])C([H])([H])C([H])(n5nc(-c6c([H])c([H])c(Oc7c([H])c([H])c(F)c([H])c7F)c([H])c6[H])c(C(=O)N([H])[H])c5N([H])[H])C4([H])[H])(C([H])([H])[H])C([H])([H])[H])c3[H])(C([H])([H])C([H])([H])[H])C([H])([H])C([H])([H])[H])c([H])c([H])c2C1([H])[H]

>  <smiles>  (41) 
[H]c1c([H])c([H])c2c(c1[H])C([H])([H])C([H])([H])C([H])([H])C2([H])N([H])C(=O)C1([H])N(C(=O)C([H])(N([H])C(=O)C([H])(N([H])C([H])([H])[H])C([H])([H])[H])C(C([H])([H])[H])(C([H])([H])[H])C([H])([H])[H])C([H])([H])c2c([H])c(OC([H])([H])C([H])(C([H])([H])[H])C([H])(C([H])([H])[H])C(c3c(C([H])(C([H])([H])[H])C([H])([H])C([H])([H])[H])nn(C([H])(C([H])([H])[H])C(C(=O)N4C([H])([H])C([H])([H])C([H])([H])C([H])(n5nc(-c6c([H])c([H])c(Oc7c([H])c([H])c(F)c([H])c7F)c([H])c6[H])c(C(=O)N([H])[H])c5N([H])[H])C4([H])[H])(C([H])([H])[H])C([H])([H])[H])c3[H])(C([H])([H])C([H])([H])[H])C([H])([H])C([H])([H])[H])c([H])c([H])c2C1([H])[H]

$$$$
43:0:0
     RDKit          3D

101109  0  0  1  0  0  0  0  0999 V2000
  -31.1400  -22.7140   17.0410 C   0  0  0  0  0  1  0  0  0  0  0  0
  -30.0190  -21.9580   17.7910 C   0  0  1  0  0  0  0  0  0  0  0  0
  -28.4770  -22.0250   15.5810 C   0  0  0  0  0  1  0  0  0  0  0  0
  -28.7000  -22.4200   17.0570 C   0  0  0  0  0  2  0  0  0  0  0  0
  -30.0940  -20.4210   17.4850 C   0  0  0  0  0  2  0  0  0  0  0  0
  -31.3420  -17.6650   19.1730 C   0  0  0  0  0  0  0  0  0  0  0  0
  -32.2560  -19.2210   18.1460 C   0  0  0  0  0  3  0  0  0  0  0  0
  -33.2280  -19.9990   17.3200 C   0  0  0  0  0  1  0  0  0  0  0  0
  -32.5750  -18.0820   18.7580 N   0  0  0  0  0  0  0  0  0  0  0  0
  -30.3660  -18.5590   19.0160 N   0  0  0  0  0  2  0  0  0  0  0  0
  -30.9490  -19.5210   18.2550 N   0  0  0  0  0  0  0  0  0  0  0  0
  -31.0080  -16.2090   19.3730 C   0  0  0  0  0  3  0  0  0  0  0  0
  -31.2780  -14.7770   21.3510 C   0  0  0  0  0  0  0  0  0  0  0  0
  -31.1340  -12.4890   20.5070 C   0  0  0  0  0  2  0  0  0  0  0  0
  -30.4150  -12.5520   19.1450 C   0  0  0  0  0  2  0  0  0  0  0  0
  -28.8750  -12.5640   19.3120 C   0  0  0  0  0  2  0  0  0  0  0  0
  -28.3470  -13.4900   20.4480 C   0  0  0  0  0  3  0  0  0  0  0  0
  -29.2160  -13.3680   21.7190 C   0  0  0  0  0  2  0  0  0  0  0  0
  -30.6150  -13.5910   21.3230 N   0  0  0  0  0  0  0  0  0  0  0  0
  -32.5080  -14.8480   21.3800 O   0  0  0  0  0  0  0  0  0  0  0  0
  -29.8470  -16.7460   21.5450 C   0  0  0  0  0  1  0  0  0  0  0  0
  -30.5900  -15.7750   20.7370 N   0  0  0  0  0  0  0  0  0  0  0  0
  -25.9060  -14.2050   20.8200 C   0  0  0  0  0  0  0  0  0  0  0  0
  -24.7590  -13.4770   20.9810 C   0  0  0  0  0  0  0  0  0  0  0  0
  -25.1550  -12.1060   20.9500 C   0  0  0  0  0  0  0  0  0  0  0  0
  -26.9300  -13.2750   20.7100 N   0  0  0  0  0  0  0  0  0  0  0  0
  -26.4720  -12.0060   20.8470 N   0  0  0  0  0  0  0  0  0  0  0  0
  -24.3530  -10.8760   20.9590 C   0  0  0  0  0  0  0  0  0  0  0  0
  -24.6190   -9.8280   21.8680 C   0  0  0  0  0  3  0  0  0  0  0  0
  -23.8220   -8.6650   21.8680 C   0  0  0  0  0  3  0  0  0  0  0  0
  -22.7480   -8.5380   20.9560 C   0  0  0  0  0  0  0  0  0  0  0  0
  -22.5030   -9.5740   20.0380 C   0  0  0  0  0  3  0  0  0  0  0  0
  -23.2980  -10.7310   20.0340 C   0  0  0  0  0  3  0  0  0  0  0  0
  -21.9370   -7.4340   20.8690 O   0  0  0  0  0  0  0  0  0  0  0  0
  -21.7110   -6.6210   21.9500 C   0  0  0  0  0  0  0  0  0  0  0  0
  -21.1750   -7.1180   23.1580 C   0  0  0  0  0  3  0  0  0  0  0  0
  -20.8950   -6.2350   24.2200 C   0  0  0  0  0  3  0  0  0  0  0  0
  -21.1420   -4.8570   24.0740 C   0  0  0  0  0  0  0  0  0  0  0  0
  -21.6720   -4.3600   22.8710 C   0  0  0  0  0  3  0  0  0  0  0  0
  -21.9540   -5.2390   21.8100 C   0  0  0  0  0  0  0  0  0  0  0  0
  -22.4450   -4.7530   20.6450 F   0  0  0  0  0  0  0  0  0  0  0  0
  -20.8650   -4.0060   25.0900 F   0  0  0  0  0  0  0  0  0  0  0  0
  -23.3580  -14.0170   21.0620 C   0  0  0  0  0  0  0  0  0  0  0  0
  -22.4780  -13.3360   21.7850 N   0  0  0  0  0  0  0  0  0  0  0  0
  -23.0500  -15.0770   20.5180 O   0  0  0  0  0  0  0  0  0  0  0  0
  -22.7330  -12.4770   22.2490 H   0  0  0  0  0  0  0  0  0  0  0  0
  -21.5320  -13.6790   21.8780 H   0  0  0  0  0  0  0  0  0  0  0  0
  -26.1600  -15.5720   20.7360 N   0  0  0  0  0  0  0  0  0  0  0  0
  -25.4160  -16.2610   20.7580 H   0  0  0  0  0  0  0  0  0  0  0  0
  -27.0750  -15.9780   20.5870 H   0  0  0  0  0  0  0  0  0  0  0  0
  -30.5130  -16.0170   16.8130 C   0  0  0  0  0  1  0  0  0  0  0  0
  -30.0370  -15.7350   18.2490 C   0  0  0  0  0  2  0  0  0  0  0  0
  -29.9800  -22.2700   19.3770 C   0  0  0  0  0  3  0  0  0  0  0  0
  -32.4070  -21.5300   20.0940 C   0  0  0  0  0  1  0  0  0  0  0  0
  -30.9960  -22.6010   21.7430 C   0  0  0  0  0  1  0  0  0  0  0  0
  -31.9450  -23.9830   19.9230 C   0  0  0  0  0  1  0  0  0  0  0  0
  -31.3060  -22.6030   20.2210 C   0  0  2  0  0  0  0  0  0  0  0  0
  -28.7570  -23.1350   19.8500 C   0  0  0  0  0  2  0  0  0  0  0  0
  -28.7470  -24.6300   19.4640 C   0  0  0  0  0  2  0  0  0  0  0  0
  -28.5020  -25.5650   20.6530 C   0  0  0  0  0  2  0  0  0  0  0  0
  -28.5450  -26.9250   20.2280 O   0  0  0  0  0  0  0  0  0  0  0  0
  -24.5300  -31.8760   23.3110 C   0  0  0  0  0  0  0  0  0  0  0  0
  -27.3430  -27.5890   20.2000 C   0  0  0  0  0  0  0  0  0  0  0  0
  -23.3910  -30.4890   21.6080 C   0  0  0  0  0  3  0  0  0  0  0  0
  -24.9100  -29.0190   20.1840 C   0  0  0  0  0  0  0  0  0  0  0  0
  -25.9080  -30.9170   21.4730 C   0  0  0  0  0  2  0  0  0  0  0  0
  -26.0390  -29.5650   20.8040 C   0  0  0  0  0  0  0  0  0  0  0  0
  -27.2590  -28.8600   20.8040 C   0  0  0  0  0  3  0  0  0  0  0  0
  -26.1950  -27.0470   19.5790 C   0  0  0  0  0  3  0  0  0  0  0  0
  -24.9810  -27.7580   19.5680 C   0  0  0  0  0  3  0  0  0  0  0  0
  -23.6440  -29.8440   20.2180 C   0  0  0  0  0  2  0  0  0  0  0  0
  -24.6270  -31.1070   22.1910 N   0  0  0  0  0  0  0  0  0  0  0  0
  -23.4320  -32.1120   23.8330 O   0  0  0  0  0  0  0  0  0  0  0  0
  -22.7420  -29.4310   22.5270 C   0  0  0  0  0  0  0  0  0  0  0  0
  -21.4340  -29.1990   22.3380 N   0  0  0  0  0  0  0  0  0  0  0  0
  -23.4140  -28.8220   23.3650 O   0  0  0  0  0  0  0  0  0  0  0  0
  -20.9560  -29.7420   21.6330 H   0  0  0  0  0  0  0  0  0  0  0  0
  -18.1020  -27.8350   22.6250 C   0  0  0  0  0  0  0  0  0  0  0  0
  -20.6210  -28.2220   23.0610 C   0  0  0  0  0  3  0  0  0  0  0  0
  -20.8340  -26.7980   22.4980 C   0  0  0  0  0  2  0  0  0  0  0  0
  -19.8160  -26.4160   21.4180 C   0  0  0  0  0  2  0  0  0  0  0  0
  -18.3900  -26.4940   21.9710 C   0  0  0  0  0  2  0  0  0  0  0  0
  -19.1500  -28.6530   23.1220 C   0  0  0  0  0  0  0  0  0  0  0  0
  -18.8320  -29.9060   23.6890 C   0  0  0  0  0  3  0  0  0  0  0  0
  -17.4960  -30.3420   23.7650 C   0  0  0  0  0  3  0  0  0  0  0  0
  -16.4600  -29.5210   23.2870 C   0  0  0  0  0  3  0  0  0  0  0  0
  -16.7640  -28.2690   22.7230 C   0  0  0  0  0  3  0  0  0  0  0  0
  -25.7890  -32.5160   23.9770 C   0  0  0  0  0  3  0  0  0  0  0  0
  -26.2780  -31.7370   25.2590 C   0  0  1  0  0  0  0  0  0  0  0  0
  -25.1570  -31.4710   26.2900 C   0  0  0  0  0  1  0  0  0  0  0  0
  -26.8930  -30.3740   24.8640 C   0  0  0  0  0  1  0  0  0  0  0  0
  -27.3980  -32.5400   25.9630 C   0  0  0  0  0  1  0  0  0  0  0  0
  -25.4560  -33.9070   24.3080 N   0  0  0  0  0  0  0  0  0  0  0  0
  -25.8130  -34.9680   23.5740 C   0  0  0  0  0  0  0  0  0  0  0  0
  -26.5290  -34.8810   22.5730 O   0  0  0  0  0  0  0  0  0  0  0  0
  -24.8260  -34.0490   25.0850 H   0  0  0  0  0  0  0  0  0  0  0  0
  -24.0840  -36.7450   23.1570 C   0  0  0  0  0  1  0  0  0  0  0  0
  -25.2900  -36.3470   24.0220 C   0  0  0  0  0  3  0  0  0  0  0  0
  -27.3800  -37.2380   24.9530 C   0  0  0  0  0  1  0  0  0  0  0  0
  -26.3160  -37.4110   23.9660 N   0  0  0  0  0  0  0  0  0  0  0  0
  -25.8960  -38.3250   24.1100 H   0  0  0  0  0  0  0  0  0  0  0  0
  2  1  1  6
  2 53  1  0
  3  4  1  0
  4  2  1  0
  5  2  1  0
  5 11  1  0
  6 12  1  0
  7  8  1  0
  7 11  1  0
  7  9  1  0
  9  6  2  0
 10  6  1  0
 11 10  1  0
 12 52  1  0
 12 22  1  0
 13 20  2  0
 14 19  1  0
 15 16  1  0
 15 14  1  0
 17 16  1  0
 17 26  1  0
 17 18  1  0
 19 13  1  0
 19 18  1  0
 22 13  1  0
 22 21  1  0
 23 24  2  0
 24 43  1  0
 25 28  1  0
 25 24  1  0
 26 23  1  0
 26 27  1  0
 27 25  2  0
 28 29  1  0
 29 30  2  0
 31 30  1  0
 32 31  2  0
 33 32  1  0
 33 28  2  0
 34 31  1  0
 34 35  1  0
 35 36  1  0
 36 37  2  0
 38 37  1  0
 38 42  1  0
 39 38  2  0
 40 35  2  0
 40 39  1  0
 41 40  1  0
 43 44  1  0
 44 47  1  0
 44 46  1  0
 45 43  2  0
 48 49  1  0
 48 23  1  0
 50 48  1  0
 51 52  1  0
 53 58  1  0
 53 57  1  0
 57 54  1  1
 56 57  1  0
 57 55  1  0
 59 58  1  0
 59 60  1  0
 61 60  1  0
 62 73  2  0
 63 61  1  0
 63 68  1  0
 64 72  1  0
 64 74  1  0
 65 71  1  0
 65 67  1  0
 66 72  1  0
 67 66  1  0
 68 67  2  0
 69 63  2  0
 70 69  1  0
 70 65  2  0
 71 64  1  0
 72 62  1  0
 74 76  2  0
 75 74  1  0
 77 75  1  0
 78 87  2  0
 78 83  1  0
 79 75  1  0
 79 83  1  0
 80 79  1  0
 81 82  1  0
 81 80  1  0
 82 78  1  0
 83 84  2  0
 84 85  1  0
 86 85  2  0
 87 86  1  0
 88 62  1  0
 88 93  1  0
 88 89  1  0
 89 92  1  1
 89 90  1  0
 91 89  1  0
 93 96  1  0
 94 98  1  0
 94 93  1  0
 95 94  2  0
 98 97  1  0
100 98  1  0
100101  1  0
100 99  1  0
M  ISO  4  13 100  22 100  60 101  61 101
M  END
>  <TORSDO>  (42) 
F 26

>  <SCORE>  (42) 
-6.709

>  <name>  (42) 
43

>  <ligand_id>  (42) 
43

>  <original_smiles>  (42) 
[H]c1c([H])c([H])c2c(c1[H])C([H])([H])C([H])([H])C([H])([H])C2([H])N([H])C(=O)C1([H])N(C(=O)C([H])(N([H])C(=O)C([H])(N([H])C([H])([H])[H])C([H])([H])[H])C(C([H])([H])[H])(C([H])([H])[H])C([H])([H])[H])C([H])([H])c2c([H])c(OC([H])([H])C([H])([H])C([H])([H])C([H])(C(C([H])([H])[H])(C([H])([H])[H])C([H])([H])[H])C(C([H])([H])[H])(C([H])([H])n3nc(C([H])(N(C(=O)N4C([H])([H])C([H])([H])C([H])([H])C([H])(n5nc(-c6c([H])c([H])c(Oc7c([H])c([H])c(F)c([H])c7F)c([H])c6[H])c(C(=O)N([H])[H])c5N([H])[H])C4([H])[H])C([H])([H])[H])C([H])([H])C([H])([H])[H])nc3C([H])([H])[H])C([H])([H])C([H])([H])[H])c([H])c([H])c2C1([H])[H]

>  <smiles>  (42) 
[H]c1c([H])c([H])c2c(c1[H])C([H])([H])C([H])([H])C([H])([H])C2([H])N([H])C(=O)C1([H])N(C(=O)C([H])(N([H])C(=O)C([H])(N([H])C([H])([H])[H])C([H])([H])[H])C(C([H])([H])[H])(C([H])([H])[H])C([H])([H])[H])C([H])([H])c2c([H])c(OC([H])([H])C([H])([H])C([H])([H])C([H])(C(C([H])([H])[H])(C([H])([H])[H])C([H])([H])[H])C(C([H])([H])[H])(C([H])([H])n3nc(C([H])(N(C(=O)N4C([H])([H])C([H])([H])C([H])([H])C([H])(n5nc(-c6c([H])c([H])c(Oc7c([H])c([H])c(F)c([H])c7F)c([H])c6[H])c(C(=O)N([H])[H])c5N([H])[H])C4([H])[H])C([H])([H])[H])C([H])([H])C([H])([H])[H])nc3C([H])([H])[H])C([H])([H])C([H])([H])[H])c([H])c([H])c2C1([H])[H]

$$$$
45:0:0
     RDKit          3D

 93101  0  0  1  0  0  0  0  0999 V2000
  -29.7450  -21.5980   18.8830 C   0  0  0  0  0  2  0  0  0  0  0  0
  -29.0270  -22.0360   21.0640 C   0  0  0  0  0  3  0  0  0  0  0  0
  -29.0510  -22.5120   19.7310 C   0  0  0  0  0  3  0  0  0  0  0  0
  -29.9020  -19.9200   20.5100 C   0  0  0  0  0  0  0  0  0  0  0  0
  -30.1010  -20.3210   19.2470 N   0  0  0  0  0  0  0  0  0  0  0  0
  -29.4500  -20.7900   21.4260 N   0  0  0  0  0  0  0  0  0  0  0  0
  -26.7400  -23.5720   19.8960 C   0  0  0  0  0  1  0  0  0  0  0  0
  -27.8450  -23.4440   17.6740 C   0  0  0  0  0  1  0  0  0  0  0  0
  -28.1260  -23.7250   19.1960 C   0  0  2  0  0  0  0  0  0  0  0  0
  -28.6360  -25.2890   19.2100 C   0  0  0  0  0  2  0  0  0  0  0  0
  -28.3800  -26.3980   20.1810 O   0  0  0  0  0  0  0  0  0  0  0  0
  -24.5860  -31.8490   23.1790 C   0  0  0  0  0  0  0  0  0  0  0  0
  -27.2710  -27.2760   20.0990 C   0  0  0  0  0  0  0  0  0  0  0  0
  -23.4170  -30.4500   21.5110 C   0  0  0  0  0  3  0  0  0  0  0  0
  -24.8950  -28.8960   20.0960 C   0  0  0  0  0  0  0  0  0  0  0  0
  -25.9640  -30.7440   21.3930 C   0  0  0  0  0  2  0  0  0  0  0  0
  -26.0490  -29.3660   20.7410 C   0  0  0  0  0  0  0  0  0  0  0  0
  -27.2250  -28.5500   20.7580 C   0  0  0  0  0  3  0  0  0  0  0  0
  -26.1080  -26.8940   19.3990 C   0  0  0  0  0  3  0  0  0  0  0  0
  -24.9280  -27.6630   19.4270 C   0  0  0  0  0  3  0  0  0  0  0  0
  -23.6590  -29.7760   20.1330 C   0  0  0  0  0  2  0  0  0  0  0  0
  -24.6740  -31.0360   22.0810 N   0  0  0  0  0  0  0  0  0  0  0  0
  -23.4940  -32.1230   23.6930 O   0  0  0  0  0  0  0  0  0  0  0  0
  -22.7370  -29.4310   22.4580 C   0  0  0  0  0  0  0  0  0  0  0  0
  -21.4090  -29.2720   22.3200 N   0  0  0  0  0  0  0  0  0  0  0  0
  -23.4030  -28.7920   23.2750 O   0  0  0  0  0  0  0  0  0  0  0  0
  -20.9350  -29.8400   21.6340 H   0  0  0  0  0  0  0  0  0  0  0  0
  -18.0110  -28.1230   22.8110 C   0  0  0  0  0  0  0  0  0  0  0  0
  -20.5760  -28.3320   23.0740 C   0  0  0  0  0  3  0  0  0  0  0  0
  -20.6480  -26.9080   22.4740 C   0  0  0  0  0  2  0  0  0  0  0  0
  -19.5380  -26.6230   21.4570 C   0  0  0  0  0  2  0  0  0  0  0  0
  -18.1620  -26.7810   22.1100 C   0  0  0  0  0  2  0  0  0  0  0  0
  -19.1450  -28.8540   23.2500 C   0  0  0  0  0  0  0  0  0  0  0  0
  -18.9530  -30.1070   23.8680 C   0  0  0  0  0  3  0  0  0  0  0  0
  -17.6600  -30.6330   24.0480 C   0  0  0  0  0  3  0  0  0  0  0  0
  -16.5370  -29.8980   23.6260 C   0  0  0  0  0  3  0  0  0  0  0  0
  -16.7160  -28.6420   23.0150 C   0  0  0  0  0  3  0  0  0  0  0  0
  -25.8560  -32.4840   23.8240 C   0  0  0  0  0  3  0  0  0  0  0  0
  -26.3630  -31.7010   25.0970 C   0  0  1  0  0  0  0  0  0  0  0  0
  -25.2600  -31.4380   26.1510 C   0  0  0  0  0  1  0  0  0  0  0  0
  -26.9700  -30.3360   24.6970 C   0  0  0  0  0  1  0  0  0  0  0  0
  -27.4940  -32.5020   25.7860 C   0  0  0  0  0  1  0  0  0  0  0  0
  -25.5310  -33.8730   24.1720 N   0  0  0  0  0  0  0  0  0  0  0  0
  -25.8470  -34.9430   23.4320 C   0  0  0  0  0  0  0  0  0  0  0  0
  -26.5170  -34.8640   22.3980 O   0  0  0  0  0  0  0  0  0  0  0  0
  -24.9420  -34.0050   24.9810 H   0  0  0  0  0  0  0  0  0  0  0  0
  -24.0930  -36.7160   23.1060 C   0  0  0  0  0  1  0  0  0  0  0  0
  -25.3400  -36.3170   23.9100 C   0  0  0  0  0  3  0  0  0  0  0  0
  -27.4640  -37.2190   24.7480 C   0  0  0  0  0  1  0  0  0  0  0  0
  -26.3560  -37.3880   23.8130 N   0  0  0  0  0  0  0  0  0  0  0  0
  -25.9370  -38.2990   23.9770 H   0  0  0  0  0  0  0  0  0  0  0  0
  -28.3800  -17.9900   21.1200 C   0  0  0  0  0  1  0  0  0  0  0  0
  -30.6300  -18.1740   22.2570 C   0  0  0  0  0  1  0  0  0  0  0  0
  -29.8670  -18.3630   20.9260 C   0  0  2  0  0  0  0  0  0  0  0  0
  -30.4770  -17.2320   19.9620 C   0  0  0  0  0  2  0  0  0  0  0  0
  -30.8870  -14.6420   20.0070 C   0  0  0  0  0  0  0  0  0  0  0  0
  -30.5150  -12.4390   18.9290 C   0  0  0  0  0  2  0  0  0  0  0  0
  -29.5240  -12.6290   17.7650 C   0  0  0  0  0  2  0  0  0  0  0  0
  -28.0750  -12.4590   18.2580 C   0  0  0  0  0  2  0  0  0  0  0  0
  -27.7870  -13.2940   19.5380 C   0  0  0  0  0  3  0  0  0  0  0  0
  -28.9110  -13.1450   20.5960 C   0  0  0  0  0  2  0  0  0  0  0  0
  -30.1930  -13.4570   19.9500 N   0  0  0  0  0  0  0  0  0  0  0  0
  -32.0250  -14.7360   19.5590 O   0  0  0  0  0  0  0  0  0  0  0  0
  -30.1860  -15.7760   20.3260 N   0  0  0  0  0  0  0  0  0  0  0  0
  -29.2740  -15.6000   20.7160 H   0  0  0  0  0  0  0  0  0  0  0  0
  -25.4310  -13.8920   20.3890 C   0  0  0  0  0  0  0  0  0  0  0  0
  -24.3800  -13.1160   20.7960 C   0  0  0  0  0  0  0  0  0  0  0  0
  -24.8330  -11.7650   20.7260 C   0  0  0  0  0  0  0  0  0  0  0  0
  -26.4600  -13.0110   20.0890 N   0  0  0  0  0  0  0  0  0  0  0  0
  -26.1090  -11.7250   20.3560 N   0  0  0  0  0  0  0  0  0  0  0  0
  -24.1080  -10.5030   20.9330 C   0  0  0  0  0  0  0  0  0  0  0  0
  -24.5470   -9.5520   21.8800 C   0  0  0  0  0  3  0  0  0  0  0  0
  -23.8270   -8.3540   22.0820 C   0  0  0  0  0  3  0  0  0  0  0  0
  -22.6540   -8.1000   21.3310 C   0  0  0  0  0  0  0  0  0  0  0  0
  -22.2340   -9.0390   20.3750 C   0  0  0  0  0  3  0  0  0  0  0  0
  -22.9530  -10.2290   20.1720 C   0  0  0  0  0  3  0  0  0  0  0  0
  -21.9040   -6.9520   21.4370 O   0  0  0  0  0  0  0  0  0  0  0  0
  -21.8080   -6.2560   22.6170 C   0  0  0  0  0  0  0  0  0  0  0  0
  -21.3230   -6.8560   23.7980 C   0  0  0  0  0  3  0  0  0  0  0  0
  -21.1730   -6.0910   24.9690 C   0  0  0  0  0  3  0  0  0  0  0  0
  -21.5040   -4.7230   24.9640 C   0  0  0  0  0  0  0  0  0  0  0  0
  -21.9820   -4.1190   23.7870 C   0  0  0  0  0  3  0  0  0  0  0  0
  -22.1330   -4.8840   22.6160 C   0  0  0  0  0  0  0  0  0  0  0  0
  -22.5760   -4.2900   21.4810 F   0  0  0  0  0  0  0  0  0  0  0  0
  -21.3530   -3.9850   26.0880 F   0  0  0  0  0  0  0  0  0  0  0  0
  -23.0000  -13.5980   21.1350 C   0  0  0  0  0  0  0  0  0  0  0  0
  -22.3030  -12.9050   22.0290 N   0  0  0  0  0  0  0  0  0  0  0  0
  -22.5430  -14.6250   20.6360 O   0  0  0  0  0  0  0  0  0  0  0  0
  -22.6820  -12.0750   22.4550 H   0  0  0  0  0  0  0  0  0  0  0  0
  -21.3740  -13.2130   22.2780 H   0  0  0  0  0  0  0  0  0  0  0  0
  -25.5950  -15.2670   20.2270 N   0  0  0  0  0  0  0  0  0  0  0  0
  -24.8440  -15.9280   20.4050 H   0  0  0  0  0  0  0  0  0  0  0  0
  -26.4420  -15.7080   19.8910 H   0  0  0  0  0  0  0  0  0  0  0  0
  1  5  1  0
  1  3  1  0
  2  6  2  0
  3  9  1  0
  3  2  1  0
  4 54  1  0
  4  6  1  0
  5  4  2  0
  9  8  1  6
  9 10  1  0
  9  7  1  0
 10 11  1  0
 12 23  2  0
 13 11  1  0
 13 18  1  0
 14 22  1  0
 14 24  1  0
 15 21  1  0
 15 17  1  0
 16 22  1  0
 17 18  2  0
 17 16  1  0
 19 20  1  0
 19 13  2  0
 20 15  2  0
 21 14  1  0
 22 12  1  0
 24 26  2  0
 25 24  1  0
 27 25  1  0
 28 37  2  0
 28 33  1  0
 29 25  1  0
 29 33  1  0
 30 29  1  0
 31 32  1  0
 31 30  1  0
 32 28  1  0
 33 34  2  0
 34 35  1  0
 36 35  2  0
 37 36  1  0
 38 12  1  0
 38 43  1  0
 38 39  1  0
 39 42  1  1
 39 40  1  0
 41 39  1  0
 43 46  1  0
 44 48  1  0
 44 43  1  0
 45 44  2  0
 48 47  1  0
 50 48  1  0
 50 51  1  0
 50 49  1  0
 54 52  1  1
 54 53  1  0
 55 64  1  0
 55 54  1  0
 56 64  1  0
 57 62  1  0
 58 59  1  0
 58 57  1  0
 60 59  1  0
 60 69  1  0
 60 61  1  0
 62 56  1  0
 62 61  1  0
 63 56  2  0
 64 65  1  0
 66 67  2  0
 67 86  1  0
 68 67  1  0
 68 71  1  0
 69 70  1  0
 69 66  1  0
 70 68  2  0
 71 72  1  0
 72 73  2  0
 74 77  1  0
 74 73  1  0
 75 74  2  0
 76 75  1  0
 76 71  2  0
 77 78  1  0
 78 79  1  0
 79 80  2  0
 81 80  1  0
 81 85  1  0
 82 81  2  0
 83 78  2  0
 83 82  1  0
 84 83  1  0
 86 87  1  0
 87 90  1  0
 87 89  1  0
 88 86  2  0
 91 66  1  0
 91 92  1  0
 93 91  1  0
M  ISO  4  10 101  11 101  56 100  64 100
M  END
>  <TORSDO>  (43) 
F 20

>  <SCORE>  (43) 
-13.055

>  <name>  (43) 
45

>  <ligand_id>  (43) 
45

>  <original_smiles>  (43) 
[H]c1nc(C(C([H])([H])[H])(C([H])([H])[H])C([H])([H])N([H])C(=O)N2C([H])([H])C([H])([H])C([H])([H])C([H])(n3nc(-c4c([H])c([H])c(Oc5c([H])c([H])c(F)c([H])c5F)c([H])c4[H])c(C(=O)N([H])[H])c3N([H])[H])C2([H])[H])nc([H])c1C(C([H])([H])[H])(C([H])([H])[H])C([H])([H])Oc1c([H])c([H])c2c(c1[H])C([H])([H])N(C(=O)C([H])(N([H])C(=O)C([H])(N([H])C([H])([H])[H])C([H])([H])[H])C(C([H])([H])[H])(C([H])([H])[H])C([H])([H])[H])C([H])(C(=O)N([H])C1([H])c3c([H])c([H])c([H])c([H])c3C([H])([H])C([H])([H])C1([H])[H])C2([H])[H]

>  <smiles>  (43) 
[H]c1nc(C(C([H])([H])[H])(C([H])([H])[H])C([H])([H])N([H])C(=O)N2C([H])([H])C([H])([H])C([H])([H])C([H])(n3nc(-c4c([H])c([H])c(Oc5c([H])c([H])c(F)c([H])c5F)c([H])c4[H])c(C(=O)N([H])[H])c3N([H])[H])C2([H])[H])nc([H])c1C(C([H])([H])[H])(C([H])([H])[H])C([H])([H])Oc1c([H])c([H])c2c(c1[H])C([H])([H])N(C(=O)C([H])(N([H])C(=O)C([H])(N([H])C([H])([H])[H])C([H])([H])[H])C(C([H])([H])[H])(C([H])([H])[H])C([H])([H])[H])C([H])(C(=O)N([H])C1([H])c3c([H])c([H])c([H])c([H])c3C([H])([H])C([H])([H])C1([H])[H])C2([H])[H]

$$$$
46:0:0
     RDKit          3D

 97105  0  0  1  0  0  0  0  0999 V2000
  -29.0990  -20.4380   19.5270 C   0  0  0  0  0  0  0  0  0  0  0  0
  -29.4260  -19.4940   20.5070 C   0  0  0  0  0  0  0  0  0  0  0  0
  -29.4510  -19.8490   18.3070 N   0  0  0  0  0  2  0  0  0  0  0  0
  -29.7410  -18.5950   18.4610 N   0  0  0  0  0  2  0  0  0  0  0  0
  -29.6600  -18.3010   19.7780 N   0  0  0  0  0  0  0  0  0  0  0  0
  -27.3550  -21.7800   18.3190 C   0  0  0  0  0  1  0  0  0  0  0  0
  -27.5570  -22.1500   20.7390 C   0  0  0  0  0  1  0  0  0  0  0  0
  -28.3840  -21.8330   19.4780 C   0  0  1  0  0  0  0  0  0  0  0  0
  -29.3720  -23.0270   19.2180 C   0  0  0  0  0  2  0  0  0  0  0  0
  -28.8120  -24.4730   18.9330 C   0  0  0  0  0  2  0  0  0  0  0  0
  -28.4600  -25.3650   20.1610 C   0  0  0  0  0  2  0  0  0  0  0  0
  -28.5030  -26.7870   19.8950 O   0  0  0  0  0  0  0  0  0  0  0  0
  -24.7510  -31.8180   23.3410 C   0  0  0  0  0  0  0  0  0  0  0  0
  -27.3310  -27.5160   19.9780 C   0  0  0  0  0  0  0  0  0  0  0  0
  -23.5200  -30.5160   21.6390 C   0  0  0  0  0  3  0  0  0  0  0  0
  -24.9470  -29.0440   20.1170 C   0  0  0  0  0  0  0  0  0  0  0  0
  -26.0500  -30.8610   21.4340 C   0  0  0  0  0  2  0  0  0  0  0  0
  -26.1190  -29.5280   20.7100 C   0  0  0  0  0  0  0  0  0  0  0  0
  -27.3170  -28.7780   20.6250 C   0  0  0  0  0  3  0  0  0  0  0  0
  -26.1370  -27.0460   19.3880 C   0  0  0  0  0  3  0  0  0  0  0  0
  -24.9520  -27.8060   19.4490 C   0  0  0  0  0  3  0  0  0  0  0  0
  -23.7110  -29.9140   20.2220 C   0  0  0  0  0  2  0  0  0  0  0  0
  -24.7940  -31.0760   22.1960 N   0  0  0  0  0  0  0  0  0  0  0  0
  -23.6770  -32.0700   23.9030 O   0  0  0  0  0  0  0  0  0  0  0  0
  -22.8630  -29.4500   22.5440 C   0  0  0  0  0  0  0  0  0  0  0  0
  -21.5400  -29.2750   22.4040 N   0  0  0  0  0  0  0  0  0  0  0  0
  -23.5440  -28.7850   23.3300 O   0  0  0  0  0  0  0  0  0  0  0  0
  -21.0540  -29.8590   21.7400 H   0  0  0  0  0  0  0  0  0  0  0  0
  -18.1680  -28.0380   22.8030 C   0  0  0  0  0  0  0  0  0  0  0  0
  -20.7190  -28.3000   23.1240 C   0  0  0  0  0  3  0  0  0  0  0  0
  -20.8370  -26.8960   22.4860 C   0  0  0  0  0  2  0  0  0  0  0  0
  -19.7520  -26.6110   21.4430 C   0  0  0  0  0  2  0  0  0  0  0  0
  -18.3640  -26.7180   22.0760 C   0  0  0  0  0  2  0  0  0  0  0  0
  -19.2760  -28.7900   23.2810 C   0  0  0  0  0  0  0  0  0  0  0  0
  -19.0380  -30.0260   23.9180 C   0  0  0  0  0  3  0  0  0  0  0  0
  -17.7260  -30.5120   24.0820 C   0  0  0  0  0  3  0  0  0  0  0  0
  -16.6360  -29.7560   23.6210 C   0  0  0  0  0  3  0  0  0  0  0  0
  -16.8570  -28.5210   22.9890 C   0  0  0  0  0  3  0  0  0  0  0  0
  -26.0480  -32.4030   23.9850 C   0  0  0  0  0  3  0  0  0  0  0  0
  -26.5770  -31.5490   25.2000 C   0  0  1  0  0  0  0  0  0  0  0  0
  -25.4970  -31.2400   26.2630 C   0  0  0  0  0  1  0  0  0  0  0  0
  -27.1520  -30.2000   24.7060 C   0  0  0  0  0  1  0  0  0  0  0  0
  -27.7400  -32.2960   25.8960 C   0  0  0  0  0  1  0  0  0  0  0  0
  -25.7500  -33.7780   24.4070 N   0  0  0  0  0  0  0  0  0  0  0  0
  -26.0840  -34.8760   23.7150 C   0  0  0  0  0  0  0  0  0  0  0  0
  -26.7470  -34.8370   22.6740 O   0  0  0  0  0  0  0  0  0  0  0  0
  -25.1660  -33.8840   25.2230 H   0  0  0  0  0  0  0  0  0  0  0  0
  -24.3630  -36.6940   23.4870 C   0  0  0  0  0  1  0  0  0  0  0  0
  -25.6080  -36.2350   24.2630 C   0  0  0  0  0  3  0  0  0  0  0  0
  -27.7530  -37.0500   25.1330 C   0  0  0  0  0  1  0  0  0  0  0  0
  -26.6460  -37.2870   24.2120 N   0  0  0  0  0  0  0  0  0  0  0  0
  -26.2480  -38.1970   24.4210 H   0  0  0  0  0  0  0  0  0  0  0  0
  -28.4930  -16.5100   21.0770 C   0  0  0  0  0  1  0  0  0  0  0  0
  -29.6880  -16.8360   20.1590 C   0  0  0  0  0  3  0  0  0  0  0  0
  -31.1960  -15.9600   22.1440 C   0  0  0  0  0  1  0  0  0  0  0  0
  -32.2120  -17.1490   20.2940 C   0  0  0  0  0  1  0  0  0  0  0  0
  -31.0670  -16.1370   20.6030 C   0  0  2  0  0  0  0  0  0  0  0  0
  -31.4240  -14.7500   19.8650 C   0  0  0  0  0  0  0  0  0  0  0  0
  -30.9900  -12.4910   18.8910 C   0  0  0  0  0  2  0  0  0  0  0  0
  -30.0320  -12.5760   17.6810 C   0  0  0  0  0  2  0  0  0  0  0  0
  -28.5660  -12.4930   18.1480 C   0  0  0  0  0  2  0  0  0  0  0  0
  -28.2750  -13.4540   19.3290 C   0  0  0  0  0  3  0  0  0  0  0  0
  -29.3550  -13.3340   20.4320 C   0  0  0  0  0  2  0  0  0  0  0  0
  -30.6680  -13.5980   19.8270 N   0  0  0  0  0  0  0  0  0  0  0  0
  -32.4960  -14.7400   19.2540 O   0  0  0  0  0  0  0  0  0  0  0  0
  -25.9180  -14.1780   20.0690 C   0  0  0  0  0  0  0  0  0  0  0  0
  -24.8400  -13.4720   20.5240 C   0  0  0  0  0  0  0  0  0  0  0  0
  -25.2420  -12.1030   20.5180 C   0  0  0  0  0  0  0  0  0  0  0  0
  -26.9290  -13.2520   19.8600 N   0  0  0  0  0  0  0  0  0  0  0  0
  -26.5230  -11.9970   20.1810 N   0  0  0  0  0  0  0  0  0  0  0  0
  -24.4590  -10.8870   20.7520 C   0  0  0  0  0  0  0  0  0  0  0  0
  -24.8260   -9.9530   21.7430 C   0  0  0  0  0  3  0  0  0  0  0  0
  -24.0430   -8.8000   21.9630 C   0  0  0  0  0  3  0  0  0  0  0  0
  -22.8780   -8.5770   21.1920 C   0  0  0  0  0  0  0  0  0  0  0  0
  -22.5300   -9.4990   20.1890 C   0  0  0  0  0  3  0  0  0  0  0  0
  -23.3150  -10.6420   19.9680 C   0  0  0  0  0  3  0  0  0  0  0  0
  -22.0700   -7.4750   21.3190 O   0  0  0  0  0  0  0  0  0  0  0  0
  -21.9010   -6.8420   22.5250 C   0  0  0  0  0  0  0  0  0  0  0  0
  -21.4160   -7.5240   23.6620 C   0  0  0  0  0  3  0  0  0  0  0  0
  -21.1970   -6.8200   24.8630 C   0  0  0  0  0  3  0  0  0  0  0  0
  -21.4480   -5.4370   24.9250 C   0  0  0  0  0  0  0  0  0  0  0  0
  -21.9230   -4.7550   23.7910 C   0  0  0  0  0  3  0  0  0  0  0  0
  -22.1460   -5.4560   22.5930 C   0  0  0  0  0  0  0  0  0  0  0  0
  -22.5850   -4.7900   21.4970 F   0  0  0  0  0  0  0  0  0  0  0  0
  -21.2290   -4.7600   26.0750 F   0  0  0  0  0  0  0  0  0  0  0  0
  -23.4830  -14.0320   20.8340 C   0  0  0  0  0  0  0  0  0  0  0  0
  -22.7640  -13.4090   21.7610 N   0  0  0  0  0  0  0  0  0  0  0  0
  -23.0750  -15.0580   20.2940 O   0  0  0  0  0  0  0  0  0  0  0  0
  -23.1090  -12.5770   22.2160 H   0  0  0  0  0  0  0  0  0  0  0  0
  -21.8610  -13.7750   22.0260 H   0  0  0  0  0  0  0  0  0  0  0  0
  -26.0840  -15.5230   19.7830 N   0  0  0  0  0  0  0  0  0  0  0  0
  -25.3250  -16.1890   19.8640 H   0  0  0  0  0  0  0  0  0  0  0  0
  -26.9170  -15.9180   19.3720 H   0  0  0  0  0  0  0  0  0  0  0  0
  -29.4340  -19.4870   22.0180 C   0  0  0  0  0  2  0  0  0  0  0  0
  -29.9370  -20.7110   22.8040 C   0  0  0  0  0  2  0  0  0  0  0  0
  -31.3560  -22.8150   22.8390 C   0  0  0  0  0  1  0  0  0  0  0  0
  -31.2030  -21.3980   22.2670 C   0  0  0  0  0  2  0  0  0  0  0  0
  1  2  2  0
  2 94  1  0
  3  4  1  0
  3  1  1  0
  4  5  1  0
  5 54  1  0
  5  2  1  0
  8  6  1  6
  8  1  1  0
  8  7  1  0
  9  8  1  0
 10  9  1  0
 10 11  1  0
 12 14  1  0
 12 11  1  0
 13 24  2  0
 14 19  1  0
 15 23  1  0
 15 25  1  0
 16 22  1  0
 16 18  1  0
 17 23  1  0
 18 17  1  0
 19 18  2  0
 20 21  1  0
 20 14  2  0
 21 16  2  0
 22 15  1  0
 23 13  1  0
 25 27  2  0
 26 25  1  0
 28 26  1  0
 29 38  2  0
 29 34  1  0
 30 26  1  0
 30 34  1  0
 31 30  1  0
 32 33  1  0
 32 31  1  0
 33 29  1  0
 34 35  2  0
 35 36  1  0
 37 36  2  0
 38 37  1  0
 39 13  1  0
 39 44  1  0
 39 40  1  0
 40 43  1  1
 40 41  1  0
 42 40  1  0
 44 47  1  0
 45 49  1  0
 45 44  1  0
 46 45  2  0
 49 48  1  0
 51 49  1  0
 51 52  1  0
 51 50  1  0
 54 57  1  0
 54 53  1  0
 57 56  1  6
 57 55  1  0
 58 57  1  0
 59 64  1  0
 60 61  1  0
 60 59  1  0
 62 61  1  0
 62 69  1  0
 62 63  1  0
 64 58  1  0
 64 63  1  0
 65 58  2  0
 66 67  2  0
 67 86  1  0
 68 67  1  0
 68 71  1  0
 69 66  1  0
 69 70  1  0
 70 68  2  0
 71 72  1  0
 72 73  2  0
 74 77  1  0
 74 73  1  0
 75 74  2  0
 76 75  1  0
 76 71  2  0
 77 78  1  0
 78 83  2  0
 78 79  1  0
 79 80  2  0
 80 81  1  0
 81 85  1  0
 82 81  2  0
 83 82  1  0
 84 83  1  0
 86 87  1  0
 87 90  1  0
 87 89  1  0
 88 86  2  0
 91 92  1  0
 91 66  1  0
 93 91  1  0
 94 95  1  0
 97 95  1  0
 97 96  1  0
M  ISO  4  11 101  12 101  57 100  58 100
M  END
>  <TORSDO>  (44) 
F 25

>  <SCORE>  (44) 
-9.271

>  <name>  (44) 
46

>  <ligand_id>  (44) 
46

>  <original_smiles>  (44) 
[H]c1c([H])c([H])c2c(c1[H])C([H])([H])C([H])([H])C([H])([H])C2([H])N([H])C(=O)C1([H])N(C(=O)C([H])(N([H])C(=O)C([H])(N([H])C([H])([H])[H])C([H])([H])[H])C(C([H])([H])[H])(C([H])([H])[H])C([H])([H])[H])C([H])([H])c2c([H])c(OC([H])([H])C([H])([H])C([H])([H])C(c3nnn(C([H])(C([H])([H])[H])C(C(=O)N4C([H])([H])C([H])([H])C([H])([H])C([H])(n5nc(-c6c([H])c([H])c(Oc7c([H])c([H])c(F)c([H])c7F)c([H])c6[H])c(C(=O)N([H])[H])c5N([H])[H])C4([H])[H])(C([H])([H])[H])C([H])([H])[H])c3C([H])([H])C([H])([H])C([H])([H])C([H])([H])[H])(C([H])([H])[H])C([H])([H])[H])c([H])c([H])c2C1([H])[H]

>  <smiles>  (44) 
[H]c1c([H])c([H])c2c(c1[H])C([H])([H])C([H])([H])C([H])([H])C2([H])N([H])C(=O)C1([H])N(C(=O)C([H])(N([H])C(=O)C([H])(N([H])C([H])([H])[H])C([H])([H])[H])C(C([H])([H])[H])(C([H])([H])[H])C([H])([H])[H])C([H])([H])c2c([H])c(OC([H])([H])C([H])([H])C([H])([H])C(c3nnn(C([H])(C([H])([H])[H])C(C(=O)N4C([H])([H])C([H])([H])C([H])([H])C([H])(n5nc(-c6c([H])c([H])c(Oc7c([H])c([H])c(F)c([H])c7F)c([H])c6[H])c(C(=O)N([H])[H])c5N([H])[H])C4([H])[H])(C([H])([H])[H])C([H])([H])[H])c3C([H])([H])C([H])([H])C([H])([H])C([H])([H])[H])(C([H])([H])[H])C([H])([H])[H])c([H])c([H])c2C1([H])[H]

$$$$
47:0:0
     RDKit          3D

 92100  0  0  1  0  0  0  0  0999 V2000
  -28.7280  -18.1230   19.7430 C   0  0  0  0  0  3  0  0  0  0  0  0
  -30.4370  -17.9970   21.0880 C   0  0  0  0  0  3  0  0  0  0  0  0
  -29.4570  -18.8790   20.7090 C   0  0  0  0  0  0  0  0  0  0  0  0
  -29.2290  -16.8960   19.5540 N   0  0  0  0  0  0  0  0  0  0  0  0
  -30.3210  -16.8100   20.3610 N   0  0  0  0  0  0  0  0  0  0  0  0
  -32.6660  -16.1850   20.3540 C   0  0  0  0  0  1  0  0  0  0  0  0
  -31.2130  -15.6030   20.4490 C   0  0  2  0  0  0  0  0  0  0  0  0
  -31.1080  -14.6010   19.1940 C   0  0  0  0  0  0  0  0  0  0  0  0
  -30.3290  -12.6570   17.8370 C   0  0  0  0  0  2  0  0  0  0  0  0
  -29.1640  -13.0200   16.8940 C   0  0  0  0  0  2  0  0  0  0  0  0
  -27.8220  -12.8400   17.6200 C   0  0  0  0  0  2  0  0  0  0  0  0
  -27.8140  -13.5540   18.9940 C   0  0  0  0  0  3  0  0  0  0  0  0
  -29.0670  -13.1860   19.8110 C   0  0  0  0  0  2  0  0  0  0  0  0
  -30.2660  -13.5250   19.0390 N   0  0  0  0  0  0  0  0  0  0  0  0
  -31.9190  -14.8150   18.2820 O   0  0  0  0  0  0  0  0  0  0  0  0
  -25.7130  -14.1510   20.3470 C   0  0  0  0  0  0  0  0  0  0  0  0
  -24.6940  -13.3840   20.8420 C   0  0  0  0  0  0  0  0  0  0  0  0
  -25.0150  -12.0340   20.5010 C   0  0  0  0  0  0  0  0  0  0  0  0
  -26.5910  -13.2700   19.7390 N   0  0  0  0  0  0  0  0  0  0  0  0
  -26.1910  -11.9810   19.8890 N   0  0  0  0  0  0  0  0  0  0  0  0
  -24.2440  -10.7940   20.6700 C   0  0  0  0  0  0  0  0  0  0  0  0
  -24.7510   -9.7030   21.4100 C   0  0  0  0  0  3  0  0  0  0  0  0
  -23.9830   -8.5300   21.5740 C   0  0  0  0  0  3  0  0  0  0  0  0
  -22.6930   -8.4400   20.9980 C   0  0  0  0  0  0  0  0  0  0  0  0
  -22.2030   -9.5190   20.2430 C   0  0  0  0  0  3  0  0  0  0  0  0
  -22.9700  -10.6840   20.0780 C   0  0  0  0  0  3  0  0  0  0  0  0
  -21.8880   -7.3300   21.0840 O   0  0  0  0  0  0  0  0  0  0  0  0
  -21.9050   -6.5110   22.1840 C   0  0  0  0  0  0  0  0  0  0  0  0
  -21.6600   -7.0020   23.4840 C   0  0  0  0  0  3  0  0  0  0  0  0
  -21.6180   -6.1120   24.5770 C   0  0  0  0  0  3  0  0  0  0  0  0
  -21.8140   -4.7340   24.3710 C   0  0  0  0  0  0  0  0  0  0  0  0
  -22.0540   -4.2430   23.0760 C   0  0  0  0  0  3  0  0  0  0  0  0
  -22.0970   -5.1280   21.9860 C   0  0  0  0  0  0  0  0  0  0  0  0
  -22.3060   -4.6460   20.7360 F   0  0  0  0  0  0  0  0  0  0  0  0
  -21.7680   -3.8790   25.4200 F   0  0  0  0  0  0  0  0  0  0  0  0
  -23.4450  -13.8790   21.5110 C   0  0  0  0  0  0  0  0  0  0  0  0
  -22.8990  -13.1070   22.4440 N   0  0  0  0  0  0  0  0  0  0  0  0
  -22.9700  -14.9810   21.2430 O   0  0  0  0  0  0  0  0  0  0  0  0
  -23.3010  -12.2110   22.6800 H   0  0  0  0  0  0  0  0  0  0  0  0
  -22.0750  -13.4200   22.9360 H   0  0  0  0  0  0  0  0  0  0  0  0
  -25.9620  -15.5220   20.3440 N   0  0  0  0  0  0  0  0  0  0  0  0
  -25.3360  -16.1990   20.7670 H   0  0  0  0  0  0  0  0  0  0  0  0
  -26.7800  -15.9430   19.9210 H   0  0  0  0  0  0  0  0  0  0  0  0
  -29.8030  -15.0910   22.6770 C   0  0  0  0  0  1  0  0  0  0  0  0
  -31.8750  -13.6350   22.1270 C   0  0  0  0  0  1  0  0  0  0  0  0
  -31.1480  -14.9840   21.9100 C   0  0  0  0  0  3  0  0  0  0  0  0
  -29.2380  -20.1520   21.2300 O   0  0  0  0  0  0  0  0  0  0  0  0
  -28.4770  -21.1230   20.4860 C   0  0  0  0  0  2  0  0  0  0  0  0
  -28.5270  -22.4920   21.2470 C   0  0  0  0  0  2  0  0  0  0  0  0
  -27.7480  -23.7170   20.6470 C   0  0  0  0  0  2  0  0  0  0  0  0
  -28.1470  -25.0950   21.2830 C   0  0  0  0  0  2  0  0  0  0  0  0
  -27.4400  -26.2870   20.8360 O   0  0  0  0  0  0  0  0  0  0  0  0
  -27.7950  -32.1400   24.9570 C   0  0  0  0  0  0  0  0  0  0  0  0
  -26.8750  -27.0590   21.8380 C   0  0  0  0  0  0  0  0  0  0  0  0
  -26.1970  -30.3920   25.6650 C   0  0  0  0  0  3  0  0  0  0  0  0
  -25.7270  -28.5560   23.9530 C   0  0  0  0  0  0  0  0  0  0  0  0
  -26.7940  -30.6840   23.1930 C   0  0  0  0  0  2  0  0  0  0  0  0
  -26.5430  -29.1960   23.0100 C   0  0  0  0  0  0  0  0  0  0  0  0
  -27.1090  -28.4560   21.9410 C   0  0  0  0  0  3  0  0  0  0  0  0
  -26.0380  -26.4410   22.7900 C   0  0  0  0  0  3  0  0  0  0  0  0
  -25.4680  -27.1790   23.8430 C   0  0  0  0  0  3  0  0  0  0  0  0
  -25.1580  -29.4070   25.0690 C   0  0  0  0  0  2  0  0  0  0  0  0
  -26.9850  -31.1010   24.6060 N   0  0  0  0  0  0  0  0  0  0  0  0
  -27.8630  -32.5340   26.1310 O   0  0  0  0  0  0  0  0  0  0  0  0
  -27.0830  -29.6290   26.6790 C   0  0  0  0  0  0  0  0  0  0  0  0
  -26.6330  -29.5710   27.9440 N   0  0  0  0  0  0  0  0  0  0  0  0
  -28.1310  -29.0880   26.3180 O   0  0  0  0  0  0  0  0  0  0  0  0
  -25.7690  -30.0470   28.1620 H   0  0  0  0  0  0  0  0  0  0  0  0
  -26.4630  -28.9670   31.5020 C   0  0  0  0  0  0  0  0  0  0  0  0
  -27.2810  -28.8700   29.0520 C   0  0  0  0  0  3  0  0  0  0  0  0
  -26.8710  -27.3800   29.0810 C   0  0  0  0  0  2  0  0  0  0  0  0
  -25.6670  -27.1020   29.9880 C   0  0  0  0  0  2  0  0  0  0  0  0
  -25.9690  -27.5320   31.4270 C   0  0  0  0  0  2  0  0  0  0  0  0
  -27.0660  -29.6000   30.3840 C   0  0  0  0  0  0  0  0  0  0  0  0
  -27.4780  -30.9450   30.4960 C   0  0  0  0  0  3  0  0  0  0  0  0
  -27.3000  -31.6540   31.6990 C   0  0  0  0  0  3  0  0  0  0  0  0
  -26.7170  -31.0190   32.8080 C   0  0  0  0  0  3  0  0  0  0  0  0
  -26.3050  -29.6780   32.7110 C   0  0  0  0  0  3  0  0  0  0  0  0
  -28.6570  -32.8990   23.9020 C   0  0  0  0  0  3  0  0  0  0  0  0
  -28.6040  -34.3310   24.2320 N   0  0  0  0  0  0  0  0  0  0  0  0
  -27.8590  -35.2340   23.5820 C   0  0  0  0  0  0  0  0  0  0  0  0
  -27.1930  -34.9570   22.5820 O   0  0  0  0  0  0  0  0  0  0  0  0
  -29.0860  -34.6190   25.0710 H   0  0  0  0  0  0  0  0  0  0  0  0
  -26.5430  -36.9380   24.8830 C   0  0  0  0  0  1  0  0  0  0  0  0
  -27.8560  -36.6770   24.1270 C   0  0  0  0  0  3  0  0  0  0  0  0
  -29.3780  -37.7060   22.4980 C   0  0  0  0  0  1  0  0  0  0  0  0
  -28.0370  -37.7030   23.0770 N   0  0  0  0  0  0  0  0  0  0  0  0
  -27.8510  -38.6320   23.4470 H   0  0  0  0  0  0  0  0  0  0  0  0
  -30.1520  -32.3950   23.8420 C   0  0  1  0  0  0  0  0  0  0  0  0
  -30.8480  -32.3500   25.2210 C   0  0  0  0  0  1  0  0  0  0  0  0
  -30.2270  -30.9780   23.2290 C   0  0  0  0  0  1  0  0  0  0  0  0
  -30.9800  -33.3210   22.9190 C   0  0  0  0  0  1  0  0  0  0  0  0
  1  3  1  0
  3  2  2  0
  3 47  1  0
  4  1  2  0
  4  5  1  0
  5  7  1  0
  5  2  1  0
  7  6  1  1
  7 46  1  0
  8  7  1  0
  9 14  1  0
 10 11  1  0
 10  9  1  0
 12 11  1  0
 12 19  1  0
 12 13  1  0
 14  8  1  0
 14 13  1  0
 15  8  2  0
 16 17  2  0
 17 36  1  0
 18 21  1  0
 18 17  1  0
 19 20  1  0
 19 16  1  0
 20 18  2  0
 21 22  1  0
 22 23  2  0
 24 27  1  0
 24 23  1  0
 25 24  2  0
 26 25  1  0
 26 21  2  0
 27 28  1  0
 28 29  1  0
 29 30  2  0
 31 30  1  0
 31 35  1  0
 32 31  2  0
 33 28  2  0
 33 32  1  0
 34 33  1  0
 36 37  1  0
 37 39  1  0
 37 40  1  0
 38 36  2  0
 41 16  1  0
 41 42  1  0
 43 41  1  0
 46 45  1  0
 46 44  1  0
 48 47  1  0
 48 49  1  0
 50 49  1  0
 50 51  1  0
 52 51  1  0
 52 54  1  0
 53 64  2  0
 54 59  2  0
 54 60  1  0
 55 65  1  0
 56 62  1  0
 57 63  1  0
 58 57  1  0
 58 56  2  0
 59 58  1  0
 60 61  2  0
 61 56  1  0
 62 55  1  0
 63 53  1  0
 63 55  1  0
 65 66  1  0
 66 68  1  0
 67 65  2  0
 69 78  1  0
 70 66  1  0
 70 71  1  0
 70 74  1  0
 71 72  1  0
 72 73  1  0
 73 69  1  0
 74 75  1  0
 74 69  2  0
 75 76  2  0
 76 77  1  0
 78 77  2  0
 79 80  1  0
 79 53  1  0
 80 83  1  0
 81 85  1  0
 81 80  1  0
 82 81  2  0
 85 84  1  0
 86 87  1  0
 87 88  1  0
 87 85  1  0
 89 79  1  0
 89 90  1  1
 91 89  1  0
 92 89  1  0
M  ISO  4   7 100   8 100  51 101  52 101
M  END
>  <TORSDO>  (45) 
F 23

>  <SCORE>  (45) 
-3.977

>  <name>  (45) 
47

>  <ligand_id>  (45) 
47

>  <original_smiles>  (45) 
[H]c1nn(C(C(=O)N2C([H])([H])C([H])([H])C([H])([H])C([H])(n3nc(-c4c([H])c([H])c(Oc5c([H])c([H])c(F)c([H])c5F)c([H])c4[H])c(C(=O)N([H])[H])c3N([H])[H])C2([H])[H])(C([H])([H])[H])C([H])(C([H])([H])[H])C([H])([H])[H])c([H])c1OC([H])([H])C([H])([H])C([H])([H])C([H])([H])Oc1c([H])c([H])c2c(c1[H])C([H])([H])N(C(=O)C([H])(N([H])C(=O)C([H])(N([H])C([H])([H])[H])C([H])([H])[H])C(C([H])([H])[H])(C([H])([H])[H])C([H])([H])[H])C([H])(C(=O)N([H])C1([H])c3c([H])c([H])c([H])c([H])c3C([H])([H])C([H])([H])C1([H])[H])C2([H])[H]

>  <smiles>  (45) 
[H]c1nn(C(C(=O)N2C([H])([H])C([H])([H])C([H])([H])C([H])(n3nc(-c4c([H])c([H])c(Oc5c([H])c([H])c(F)c([H])c5F)c([H])c4[H])c(C(=O)N([H])[H])c3N([H])[H])C2([H])[H])(C([H])([H])[H])C([H])(C([H])([H])[H])C([H])([H])[H])c([H])c1OC([H])([H])C([H])([H])C([H])([H])C([H])([H])Oc1c([H])c([H])c2c(c1[H])C([H])([H])N(C(=O)C([H])(N([H])C(=O)C([H])(N([H])C([H])([H])[H])C([H])([H])[H])C(C([H])([H])[H])(C([H])([H])[H])C([H])([H])[H])C([H])(C(=O)N([H])C1([H])c3c([H])c([H])c([H])c([H])c3C([H])([H])C([H])([H])C1([H])[H])C2([H])[H]

$$$$
48:0:0
     RDKit          3D

106114  0  0  1  0  0  0  0  0999 V2000
  -30.5910  -22.8820   19.9380 C   0  0  2  0  0  0  0  0  0  0  0  0
  -30.2270  -23.3820   18.7610 F   0  0  0  0  0  0  0  0  0  0  0  0
  -31.9190  -22.9900   20.0180 F   0  0  0  0  0  0  0  0  0  0  0  0
  -29.7770  -20.5450   19.0170 C   0  0  0  0  0  3  0  0  0  0  0  0
  -30.3340  -21.3900   19.9390 C   0  0  0  0  0  0  0  0  0  0  0  0
  -30.5950  -19.2630   20.6450 C   0  0  0  0  0  3  0  0  0  0  0  0
  -29.9160  -19.2350   19.4540 N   0  0  0  0  0  0  0  0  0  0  0  0
  -30.7820  -20.5620   20.9220 N   0  0  0  0  0  0  0  0  0  0  0  0
  -31.2610  -20.8760   21.7570 H   0  0  0  0  0  0  0  0  0  0  0  0
  -31.7160  -16.9620   21.0330 C   0  0  0  0  0  1  0  0  0  0  0  0
  -30.0070  -17.8780   22.6990 C   0  0  0  0  0  1  0  0  0  0  0  0
  -32.2640  -18.8300   22.5040 C   0  0  0  0  0  1  0  0  0  0  0  0
  -31.1000  -18.2270   21.6660 C   0  0  2  0  0  0  0  0  0  0  0  0
  -28.1370  -17.4300   19.0770 C   0  0  0  0  0  1  0  0  0  0  0  0
  -29.1790  -18.5020   17.1570 C   0  0  0  0  0  1  0  0  0  0  0  0
  -29.4760  -18.0490   18.6150 C   0  0  1  0  0  0  0  0  0  0  0  0
  -30.6290  -17.0080   18.5360 C   0  0  0  0  0  2  0  0  0  0  0  0
  -30.9670  -14.5760   18.7910 C   0  0  0  0  0  0  0  0  0  0  0  0
  -30.9240  -12.1120   18.7990 C   0  0  0  0  0  2  0  0  0  0  0  0
  -29.9070  -11.5910   17.7640 C   0  0  0  0  0  2  0  0  0  0  0  0
  -28.4990  -11.5050   18.3810 C   0  0  0  0  0  2  0  0  0  0  0  0
  -28.0890  -12.8100   19.1150 C   0  0  0  0  0  3  0  0  0  0  0  0
  -29.2110  -13.2850   20.0660 C   0  0  0  0  0  2  0  0  0  0  0  0
  -30.4530  -13.4180   19.2840 N   0  0  0  0  0  0  0  0  0  0  0  0
  -31.9450  -14.6130   18.0390 O   0  0  0  0  0  0  0  0  0  0  0  0
  -30.3120  -15.6980   19.1160 N   0  0  0  0  0  0  0  0  0  0  0  0
  -29.5160  -15.6200   19.7310 H   0  0  0  0  0  0  0  0  0  0  0  0
  -25.9490  -13.6120   20.3000 C   0  0  0  0  0  0  0  0  0  0  0  0
  -24.8750  -12.9310   20.8090 C   0  0  0  0  0  0  0  0  0  0  0  0
  -25.1500  -11.5460   20.5950 C   0  0  0  0  0  0  0  0  0  0  0  0
  -26.8180  -12.6460   19.8170 N   0  0  0  0  0  0  0  0  0  0  0  0
  -26.3480  -11.3930   20.0470 N   0  0  0  0  0  0  0  0  0  0  0  0
  -24.3170  -10.3580   20.8300 C   0  0  0  0  0  0  0  0  0  0  0  0
  -24.7020   -9.3570   21.7490 C   0  0  0  0  0  3  0  0  0  0  0  0
  -23.8760   -8.2350   21.9720 C   0  0  0  0  0  3  0  0  0  0  0  0
  -22.6500   -8.1050   21.2750 C   0  0  0  0  0  0  0  0  0  0  0  0
  -22.2840   -9.0940   20.3460 C   0  0  0  0  0  3  0  0  0  0  0  0
  -23.1100  -10.2090   20.1210 C   0  0  0  0  0  3  0  0  0  0  0  0
  -21.7970   -7.0370   21.4080 O   0  0  0  0  0  0  0  0  0  0  0  0
  -21.6500   -6.3770   22.6010 C   0  0  0  0  0  0  0  0  0  0  0  0
  -21.2320   -7.0440   23.7740 C   0  0  0  0  0  3  0  0  0  0  0  0
  -21.0250   -6.3150   24.9630 C   0  0  0  0  0  3  0  0  0  0  0  0
  -21.2270   -4.9220   24.9790 C   0  0  0  0  0  0  0  0  0  0  0  0
  -21.6390   -4.2560   23.8110 C   0  0  0  0  0  3  0  0  0  0  0  0
  -21.8460   -4.9830   22.6250 C   0  0  0  0  0  0  0  0  0  0  0  0
  -22.2220   -4.3320   21.4970 F   0  0  0  0  0  0  0  0  0  0  0  0
  -21.0220   -4.2200   26.1180 F   0  0  0  0  0  0  0  0  0  0  0  0
  -23.6220  -13.5330   21.3760 C   0  0  0  0  0  0  0  0  0  0  0  0
  -22.9910  -12.8510   22.3260 N   0  0  0  0  0  0  0  0  0  0  0  0
  -23.2220  -14.6380   21.0140 O   0  0  0  0  0  0  0  0  0  0  0  0
  -23.3300  -11.9520   22.6360 H   0  0  0  0  0  0  0  0  0  0  0  0
  -22.1570  -13.2340   22.7490 H   0  0  0  0  0  0  0  0  0  0  0  0
  -26.2480  -14.9670   20.1910 N   0  0  0  0  0  0  0  0  0  0  0  0
  -25.5980  -15.6850   20.4880 H   0  0  0  0  0  0  0  0  0  0  0  0
  -27.0690  -15.3390   19.7310 H   0  0  0  0  0  0  0  0  0  0  0  0
  -29.9820  -23.6900   21.1340 C   0  0  1  0  0  0  0  0  0  0  0  0
  -30.3220  -23.0420   22.2530 F   0  0  0  0  0  0  0  0  0  0  0  0
  -30.5850  -24.8770   21.1690 F   0  0  0  0  0  0  0  0  0  0  0  0
  -28.4340  -23.9040   21.1730 C   0  0  2  0  0  0  0  0  0  0  0  0
  -28.1290  -24.4070   22.3720 F   0  0  0  0  0  0  0  0  0  0  0  0
  -27.8670  -22.7000   21.0700 F   0  0  0  0  0  0  0  0  0  0  0  0
  -27.7700  -24.8610   20.1270 C   0  0  2  0  0  0  0  0  0  0  0  0
  -26.4720  -24.9420   20.4290 F   0  0  0  0  0  0  0  0  0  0  0  0
  -27.8680  -24.3510   18.9020 F   0  0  0  0  0  0  0  0  0  0  0  0
  -28.3010  -26.3210   20.0980 C   0  0  0  0  0  2  0  0  0  0  0  0
  -27.6860  -27.0580   19.0420 O   0  0  0  0  0  0  0  0  0  0  0  0
  -24.4250  -31.8170   23.2620 C   0  0  0  0  0  0  0  0  0  0  0  0
  -26.5780  -27.8040   19.3520 C   0  0  0  0  0  0  0  0  0  0  0  0
  -23.0180  -30.7340   21.5380 C   0  0  0  0  0  3  0  0  0  0  0  0
  -24.2710  -29.3660   19.7880 C   0  0  0  0  0  0  0  0  0  0  0  0
  -25.5330  -31.0160   21.1810 C   0  0  0  0  0  2  0  0  0  0  0  0
  -25.4950  -29.7490   20.3540 C   0  0  0  0  0  0  0  0  0  0  0  0
  -26.6530  -28.9710   20.1430 C   0  0  0  0  0  3  0  0  0  0  0  0
  -25.3460  -27.4320   18.7810 C   0  0  0  0  0  3  0  0  0  0  0  0
  -24.1880  -28.2010   19.0040 C   0  0  0  0  0  3  0  0  0  0  0  0
  -23.0820  -30.2600   20.0600 C   0  0  0  0  0  2  0  0  0  0  0  0
  -24.3490  -31.1940   22.0520 N   0  0  0  0  0  0  0  0  0  0  0  0
  -23.4070  -32.0500   23.9260 O   0  0  0  0  0  0  0  0  0  0  0  0
  -22.3900  -29.6070   22.3890 C   0  0  0  0  0  0  0  0  0  0  0  0
  -21.0580  -29.4600   22.2940 N   0  0  0  0  0  0  0  0  0  0  0  0
  -23.0940  -28.8760   23.0880 O   0  0  0  0  0  0  0  0  0  0  0  0
  -20.5510  -30.1070   21.7060 H   0  0  0  0  0  0  0  0  0  0  0  0
  -17.6910  -28.2280   22.7340 C   0  0  0  0  0  0  0  0  0  0  0  0
  -20.2550  -28.4420   22.9720 C   0  0  0  0  0  3  0  0  0  0  0  0
  -20.3350  -27.0860   22.2320 C   0  0  0  0  0  2  0  0  0  0  0  0
  -19.2060  -26.8870   21.2160 C   0  0  0  0  0  2  0  0  0  0  0  0
  -17.8410  -26.9640   21.9060 C   0  0  0  0  0  2  0  0  0  0  0  0
  -18.8250  -28.9310   23.2210 C   0  0  0  0  0  0  0  0  0  0  0  0
  -18.6280  -30.1210   23.9550 C   0  0  0  0  0  3  0  0  0  0  0  0
  -17.3320  -30.6070   24.2060 C   0  0  0  0  0  3  0  0  0  0  0  0
  -16.2130  -29.8980   23.7360 C   0  0  0  0  0  3  0  0  0  0  0  0
  -16.3940  -28.7100   23.0050 C   0  0  0  0  0  3  0  0  0  0  0  0
  -25.7890  -32.2880   23.8560 C   0  0  0  0  0  3  0  0  0  0  0  0
  -25.6210  -33.6780   24.2970 N   0  0  0  0  0  0  0  0  0  0  0  0
  -26.0350  -34.7500   23.6070 C   0  0  0  0  0  0  0  0  0  0  0  0
  -26.6670  -34.6640   22.5500 O   0  0  0  0  0  0  0  0  0  0  0  0
  -25.0600  -33.8260   25.1220 H   0  0  0  0  0  0  0  0  0  0  0  0
  -24.4800  -36.7190   23.4280 C   0  0  0  0  0  1  0  0  0  0  0  0
  -25.6890  -36.1370   24.1790 C   0  0  0  0  0  3  0  0  0  0  0  0
  -27.9080  -36.7520   25.0300 C   0  0  0  0  0  1  0  0  0  0  0  0
  -26.8150  -37.0940   24.1230 N   0  0  0  0  0  0  0  0  0  0  0  0
  -26.5010  -38.0340   24.3450 H   0  0  0  0  0  0  0  0  0  0  0  0
  -26.2980  -31.3800   25.0410 C   0  0  1  0  0  0  0  0  0  0  0  0
  -25.2400  -31.1440   26.1440 C   0  0  0  0  0  1  0  0  0  0  0  0
  -26.7470  -29.9960   24.5140 C   0  0  0  0  0  1  0  0  0  0  0  0
  -27.5400  -32.0260   25.7000 C   0  0  0  0  0  1  0  0  0  0  0  0
  1  5  1  0
  1  3  1  1
  1 56  1  0
  2  1  1  0
  4  7  1  0
  4  5  2  0
  5  8  1  0
  6  8  1  0
  6 13  1  0
  7  6  1  0
  8  9  1  0
 13 10  1  6
 13 12  1  0
 13 11  1  0
 16 15  1  6
 16 14  1  0
 16  7  1  0
 17 16  1  0
 17 26  1  0
 18 26  1  0
 18 24  1  0
 19 24  1  0
 20 21  1  0
 20 19  1  0
 22 21  1  0
 22 31  1  0
 22 23  1  0
 24 23  1  0
 25 18  2  0
 26 27  1  0
 28 29  2  0
 29 48  1  0
 30 29  1  0
 30 33  1  0
 31 32  1  0
 31 28  1  0
 32 30  2  0
 33 34  1  0
 34 35  2  0
 36 39  1  0
 36 35  1  0
 37 36  2  0
 38 37  1  0
 38 33  2  0
 39 40  1  0
 40 45  2  0
 40 41  1  0
 41 42  2  0
 42 43  1  0
 43 47  1  0
 44 43  2  0
 45 44  1  0
 46 45  1  0
 48 49  1  0
 49 51  1  0
 49 52  1  0
 50 48  2  0
 53 28  1  0
 53 54  1  0
 55 53  1  0
 56 58  1  1
 56 59  1  0
 56 57  1  0
 59 60  1  1
 61 59  1  0
 62 63  1  1
 62 59  1  0
 64 62  1  0
 65 62  1  0
 66 68  1  0
 66 65  1  0
 67 78  2  0
 68 73  1  0
 69 77  1  0
 69 79  1  0
 70 76  1  0
 70 72  1  0
 71 77  1  0
 72 71  1  0
 73 72  2  0
 74 75  1  0
 74 68  2  0
 75 70  2  0
 76 69  1  0
 77 67  1  0
 79 81  2  0
 80 79  1  0
 82 80  1  0
 83 92  2  0
 83 88  1  0
 84 80  1  0
 84 88  1  0
 85 84  1  0
 86 87  1  0
 86 85  1  0
 87 83  1  0
 88 89  2  0
 89 90  1  0
 91 90  2  0
 92 91  1  0
 93 67  1  0
 93 94  1  0
 93103  1  0
 94 97  1  0
 95 99  1  0
 95 94  1  0
 96 95  2  0
 99 98  1  0
101 99  1  0
101102  1  0
101100  1  0
103106  1  1
103104  1  0
105103  1  0
M  ISO  4  18 100  26 100  65 101  66 101
M  END
>  <TORSDO>  (46) 
F 24

>  <SCORE>  (46) 
-10.878

>  <name>  (46) 
48

>  <ligand_id>  (46) 
48

>  <original_smiles>  (46) 
[H]c1c([H])c([H])c2c(c1[H])C([H])([H])C([H])([H])C([H])([H])C2([H])N([H])C(=O)C1([H])N(C(=O)C([H])(N([H])C(=O)C([H])(N([H])C([H])([H])[H])C([H])([H])[H])C(C([H])([H])[H])(C([H])([H])[H])C([H])([H])[H])C([H])([H])c2c([H])c(OC([H])([H])C(F)(F)C(F)(F)C(F)(F)C(F)(F)c3c([H])n(C(C([H])([H])[H])(C([H])([H])[H])C([H])([H])N([H])C(=O)N4C([H])([H])C([H])([H])C([H])([H])C([H])(n5nc(-c6c([H])c([H])c(Oc7c([H])c([H])c(F)c([H])c7F)c([H])c6[H])c(C(=O)N([H])[H])c5N([H])[H])C4([H])[H])c(C(C([H])([H])[H])(C([H])([H])[H])C([H])([H])[H])[n+]3[H])c([H])c([H])c2C1([H])[H]

>  <smiles>  (46) 
[H]c1c([H])c([H])c2c(c1[H])C([H])([H])C([H])([H])C([H])([H])C2([H])N([H])C(=O)C1([H])N(C(=O)C([H])(N([H])C(=O)C([H])(N([H])C([H])([H])[H])C([H])([H])[H])C(C([H])([H])[H])(C([H])([H])[H])C([H])([H])[H])C([H])([H])c2c([H])c(OC([H])([H])C(F)(F)C(F)(F)C(F)(F)C(F)(F)c3c([H])n(C(C([H])([H])[H])(C([H])([H])[H])C([H])([H])N([H])C(=O)N4C([H])([H])C([H])([H])C([H])([H])C([H])(n5nc(-c6c([H])c([H])c(Oc7c([H])c([H])c(F)c([H])c7F)c([H])c6[H])c(C(=O)N([H])[H])c5N([H])[H])C4([H])[H])c(C(C([H])([H])[H])(C([H])([H])[H])C([H])([H])[H])[n+]3[H])c([H])c([H])c2C1([H])[H]

$$$$
50:0:0
     RDKit          3D

 99107  0  0  1  0  0  0  0  0999 V2000
  -30.8760  -21.8420   18.2900 C   0  0  0  0  0  1  0  0  0  0  0  0
  -30.9220  -21.6130   19.8450 C   0  0  1  0  0  0  0  0  0  0  0  0
  -29.8700  -18.3450   21.5220 C   0  0  0  0  0  3  0  0  0  0  0  0
  -30.4920  -17.8480   19.3420 C   0  0  0  0  0  3  0  0  0  0  0  0
  -30.1720  -17.3010   20.6050 C   0  0  0  0  0  0  0  0  0  0  0  0
  -30.2810  -20.1180   20.0470 C   0  0  0  0  0  0  0  0  0  0  0  0
  -29.9200  -19.6810   21.2550 N   0  0  0  0  0  0  0  0  0  0  0  0
  -30.5250  -19.1930   19.0890 N   0  0  0  0  0  0  0  0  0  0  0  0
  -28.8750  -15.5130   21.8620 C   0  0  0  0  0  1  0  0  0  0  0  0
  -31.3140  -15.6250   22.0930 C   0  0  0  0  0  1  0  0  0  0  0  0
  -30.1760  -15.7490   21.0430 C   0  0  2  0  0  0  0  0  0  0  0  0
  -30.4900  -14.5880   19.9310 C   0  0  0  0  0  0  0  0  0  0  0  0
  -30.0860  -12.4980   18.5490 C   0  0  0  0  0  2  0  0  0  0  0  0
  -29.0000  -12.6930   17.4600 C   0  0  0  0  0  2  0  0  0  0  0  0
  -27.5800  -12.4930   18.0290 C   0  0  0  0  0  2  0  0  0  0  0  0
  -27.3890  -13.2450   19.3730 C   0  0  0  0  0  3  0  0  0  0  0  0
  -28.5560  -12.8880   20.3090 C   0  0  0  0  0  2  0  0  0  0  0  0
  -29.7920  -13.4030   19.6980 N   0  0  0  0  0  0  0  0  0  0  0  0
  -31.5060  -14.7760   19.2520 O   0  0  0  0  0  0  0  0  0  0  0  0
  -25.0720  -13.8630   20.3020 C   0  0  0  0  0  0  0  0  0  0  0  0
  -24.0400  -13.1000   20.7610 C   0  0  0  0  0  0  0  0  0  0  0  0
  -24.4760  -11.7400   20.6600 C   0  0  0  0  0  0  0  0  0  0  0  0
  -26.0840  -12.9760   19.9670 N   0  0  0  0  0  0  0  0  0  0  0  0
  -25.7310  -11.6950   20.2360 N   0  0  0  0  0  0  0  0  0  0  0  0
  -23.7560  -10.4830   20.8920 C   0  0  0  0  0  0  0  0  0  0  0  0
  -24.2600   -9.5050   21.7770 C   0  0  0  0  0  3  0  0  0  0  0  0
  -23.5480   -8.3110   22.0090 C   0  0  0  0  0  3  0  0  0  0  0  0
  -22.3160   -8.0820   21.3480 C   0  0  0  0  0  0  0  0  0  0  0  0
  -21.8290   -9.0470   20.4490 C   0  0  0  0  0  3  0  0  0  0  0  0
  -22.5420  -10.2360   20.2220 C   0  0  0  0  0  3  0  0  0  0  0  0
  -21.5730   -6.9360   21.4730 O   0  0  0  0  0  0  0  0  0  0  0  0
  -21.6010   -6.1810   22.6170 C   0  0  0  0  0  0  0  0  0  0  0  0
  -21.2810   -6.7240   23.8820 C   0  0  0  0  0  3  0  0  0  0  0  0
  -21.2640   -5.8930   25.0200 C   0  0  0  0  0  3  0  0  0  0  0  0
  -21.5530   -4.5200   24.8950 C   0  0  0  0  0  0  0  0  0  0  0  0
  -21.8560   -3.9770   23.6360 C   0  0  0  0  0  3  0  0  0  0  0  0
  -21.8720   -4.8030   22.4990 C   0  0  0  0  0  0  0  0  0  0  0  0
  -22.1450   -4.2680   21.2850 F   0  0  0  0  0  0  0  0  0  0  0  0
  -21.5410   -3.7240   25.9900 F   0  0  0  0  0  0  0  0  0  0  0  0
  -22.6770  -13.5800   21.1780 C   0  0  0  0  0  0  0  0  0  0  0  0
  -22.0390  -12.8880   22.1120 N   0  0  0  0  0  0  0  0  0  0  0  0
  -22.1910  -14.6120   20.7120 O   0  0  0  0  0  0  0  0  0  0  0  0
  -22.4550  -12.0640   22.5210 H   0  0  0  0  0  0  0  0  0  0  0  0
  -21.1370  -13.1960   22.4500 H   0  0  0  0  0  0  0  0  0  0  0  0
  -25.2200  -15.2370   20.1090 N   0  0  0  0  0  0  0  0  0  0  0  0
  -24.4400  -15.8630   20.2650 H   0  0  0  0  0  0  0  0  0  0  0  0
  -26.0180  -15.6840   19.6760 H   0  0  0  0  0  0  0  0  0  0  0  0
  -33.3700  -20.7000   19.3120 C   0  0  0  0  0  1  0  0  0  0  0  0
  -32.7010  -20.6420   21.6900 C   0  0  0  0  0  1  0  0  0  0  0  0
  -33.3500  -22.7150   20.5710 C   0  0  0  0  0  1  0  0  0  0  0  0
  -32.4940  -21.4400   20.3540 C   0  0  2  0  0  0  0  0  0  0  0  0
  -30.9720  -24.3590   20.1560 C   0  0  0  0  0  1  0  0  0  0  0  0
  -30.1860  -22.8680   22.0220 C   0  0  0  0  0  1  0  0  0  0  0  0
  -30.1750  -23.0300   20.4770 C   0  0  2  0  0  0  0  0  0  0  0  0
  -27.6570  -22.5070   20.5420 C   0  0  0  0  0  1  0  0  0  0  0  0
  -28.4350  -23.8070   18.5850 C   0  0  0  0  0  1  0  0  0  0  0  0
  -28.6730  -23.5770   20.0960 C   0  0  2  0  0  0  0  0  0  0  0  0
  -28.1320  -24.9800   20.7550 C   0  0  0  0  0  2  0  0  0  0  0  0
  -28.4160  -26.3560   20.2470 O   0  0  0  0  0  0  0  0  0  0  0  0
  -24.5650  -31.7400   23.1820 C   0  0  0  0  0  0  0  0  0  0  0  0
  -27.3190  -27.2320   20.1740 C   0  0  0  0  0  0  0  0  0  0  0  0
  -23.4270  -30.3210   21.5140 C   0  0  0  0  0  3  0  0  0  0  0  0
  -24.9380  -28.8080   20.1300 C   0  0  0  0  0  0  0  0  0  0  0  0
  -25.9690  -30.6870   21.3990 C   0  0  0  0  0  2  0  0  0  0  0  0
  -26.0900  -29.3170   20.7430 C   0  0  0  0  0  0  0  0  0  0  0  0
  -27.2910  -28.5410   20.7510 C   0  0  0  0  0  3  0  0  0  0  0  0
  -26.1510  -26.8000   19.5060 C   0  0  0  0  0  3  0  0  0  0  0  0
  -24.9670  -27.5560   19.5060 C   0  0  0  0  0  3  0  0  0  0  0  0
  -23.6840  -29.6500   20.1440 C   0  0  0  0  0  2  0  0  0  0  0  0
  -24.6710  -30.9340   22.0880 N   0  0  0  0  0  0  0  0  0  0  0  0
  -23.4640  -31.9990   23.6860 O   0  0  0  0  0  0  0  0  0  0  0  0
  -22.7610  -29.2910   22.4570 C   0  0  0  0  0  0  0  0  0  0  0  0
  -21.4380  -29.1000   22.3060 N   0  0  0  0  0  0  0  0  0  0  0  0
  -23.4300  -28.6710   23.2880 O   0  0  0  0  0  0  0  0  0  0  0  0
  -20.9570  -29.6450   21.6040 H   0  0  0  0  0  0  0  0  0  0  0  0
  -18.0640  -27.8700   22.7300 C   0  0  0  0  0  0  0  0  0  0  0  0
  -20.6140  -28.1520   23.0560 C   0  0  0  0  0  3  0  0  0  0  0  0
  -20.7420  -26.7200   22.4840 C   0  0  0  0  0  2  0  0  0  0  0  0
  -19.6650  -26.3890   21.4450 C   0  0  0  0  0  2  0  0  0  0  0  0
  -18.2670  -26.5220   22.0570 C   0  0  0  0  0  2  0  0  0  0  0  0
  -19.1650  -28.6400   23.1860 C   0  0  0  0  0  0  0  0  0  0  0  0
  -18.9200  -29.9000   23.7740 C   0  0  0  0  0  3  0  0  0  0  0  0
  -17.6070  -30.3880   23.9120 C   0  0  0  0  0  3  0  0  0  0  0  0
  -16.5200  -29.6130   23.4740 C   0  0  0  0  0  3  0  0  0  0  0  0
  -16.7480  -28.3560   22.8880 C   0  0  0  0  0  3  0  0  0  0  0  0
  -25.8220  -32.3920   23.8410 C   0  0  0  0  0  3  0  0  0  0  0  0
  -25.4700  -33.7760   24.1850 N   0  0  0  0  0  0  0  0  0  0  0  0
  -25.7810  -34.8470   23.4440 C   0  0  0  0  0  0  0  0  0  0  0  0
  -26.4640  -34.7770   22.4180 O   0  0  0  0  0  0  0  0  0  0  0  0
  -24.8590  -33.9070   24.9770 H   0  0  0  0  0  0  0  0  0  0  0  0
  -24.0010  -36.5930   23.1110 C   0  0  0  0  0  1  0  0  0  0  0  0
  -25.2520  -36.2120   23.9200 C   0  0  0  0  0  3  0  0  0  0  0  0
  -27.3570  -37.1480   24.7730 C   0  0  0  0  0  1  0  0  0  0  0  0
  -26.2520  -37.2980   23.8280 N   0  0  0  0  0  0  0  0  0  0  0  0
  -25.8150  -38.2000   23.9930 H   0  0  0  0  0  0  0  0  0  0  0  0
  -26.3320  -31.6140   25.1150 C   0  0  1  0  0  0  0  0  0  0  0  0
  -25.2260  -31.3370   26.1560 C   0  0  0  0  0  1  0  0  0  0  0  0
  -26.9550  -30.2550   24.7170 C   0  0  0  0  0  1  0  0  0  0  0  0
  -27.4500  -32.4280   25.8110 C   0  0  0  0  0  1  0  0  0  0  0  0
  2  1  1  6
  2  6  1  0
  2 51  1  0
  2 54  1  0
  4  5  1  0
  5 11  1  0
  5  3  2  0
  6  7  2  0
  7  3  1  0
  8  4  2  0
  8  6  1  0
 11  9  1  1
 11 10  1  0
 12 11  1  0
 13 18  1  0
 14 15  1  0
 14 13  1  0
 16 15  1  0
 16 23  1  0
 16 17  1  0
 18 12  1  0
 18 17  1  0
 19 12  2  0
 20 21  2  0
 21 40  1  0
 22 21  1  0
 22 25  1  0
 23 24  1  0
 23 20  1  0
 24 22  2  0
 25 26  1  0
 26 27  2  0
 28 31  1  0
 28 27  1  0
 29 28  2  0
 30 29  1  0
 30 25  2  0
 31 32  1  0
 32 33  1  0
 33 34  2  0
 35 34  1  0
 35 39  1  0
 36 35  2  0
 37 32  2  0
 37 36  1  0
 38 37  1  0
 40 41  1  0
 41 44  1  0
 41 43  1  0
 42 40  2  0
 45 46  1  0
 45 20  1  0
 47 45  1  0
 51 48  1  6
 51 50  1  0
 51 49  1  0
 54 52  1  1
 54 53  1  0
 57 56  1  6
 57 54  1  0
 57 55  1  0
 57 58  1  0
 59 58  1  0
 60 71  2  0
 61 59  1  0
 61 66  1  0
 62 70  1  0
 62 72  1  0
 63 69  1  0
 63 65  1  0
 64 70  1  0
 65 66  2  0
 65 64  1  0
 67 61  2  0
 68 67  1  0
 68 63  2  0
 69 62  1  0
 70 60  1  0
 72 74  2  0
 73 72  1  0
 75 73  1  0
 76 85  2  0
 76 81  1  0
 77 73  1  0
 77 81  1  0
 78 77  1  0
 79 80  1  0
 79 78  1  0
 80 76  1  0
 81 82  2  0
 82 83  1  0
 84 83  2  0
 85 84  1  0
 86 60  1  0
 86 87  1  0
 86 96  1  0
 87 90  1  0
 88 92  1  0
 88 87  1  0
 89 88  2  0
 92 91  1  0
 94 92  1  0
 94 95  1  0
 94 93  1  0
 96 99  1  1
 96 97  1  0
 98 96  1  0
M  ISO  4  11 100  12 100  58 101  59 101
M  END
>  <TORSDO>  (47) 
F 22

>  <SCORE>  (47) 
-11.363

>  <name>  (47) 
50

>  <ligand_id>  (47) 
50

>  <original_smiles>  (47) 
[H]c1nc(C(C([H])([H])[H])(C(C([H])([H])[H])(C([H])([H])[H])C([H])([H])[H])C(C([H])([H])[H])(C([H])([H])[H])C(C([H])([H])[H])(C([H])([H])[H])C([H])([H])Oc2c([H])c([H])c3c(c2[H])C([H])([H])N(C(=O)C([H])(N([H])C(=O)C([H])(N([H])C([H])([H])[H])C([H])([H])[H])C(C([H])([H])[H])(C([H])([H])[H])C([H])([H])[H])C([H])(C(=O)N([H])C2([H])c4c([H])c([H])c([H])c([H])c4C([H])([H])C([H])([H])C2([H])[H])C3([H])[H])nc([H])c1C(C(=O)N1C([H])([H])C([H])([H])C([H])([H])C([H])(n2nc(-c3c([H])c([H])c(Oc4c([H])c([H])c(F)c([H])c4F)c([H])c3[H])c(C(=O)N([H])[H])c2N([H])[H])C1([H])[H])(C([H])([H])[H])C([H])([H])[H]

>  <smiles>  (47) 
[H]c1nc(C(C([H])([H])[H])(C(C([H])([H])[H])(C([H])([H])[H])C([H])([H])[H])C(C([H])([H])[H])(C([H])([H])[H])C(C([H])([H])[H])(C([H])([H])[H])C([H])([H])Oc2c([H])c([H])c3c(c2[H])C([H])([H])N(C(=O)C([H])(N([H])C(=O)C([H])(N([H])C([H])([H])[H])C([H])([H])[H])C(C([H])([H])[H])(C([H])([H])[H])C([H])([H])[H])C([H])(C(=O)N([H])C2([H])c4c([H])c([H])c([H])c([H])c4C([H])([H])C([H])([H])C2([H])[H])C3([H])[H])nc([H])c1C(C(=O)N1C([H])([H])C([H])([H])C([H])([H])C([H])(n2nc(-c3c([H])c([H])c(Oc4c([H])c([H])c(F)c([H])c4F)c([H])c3[H])c(C(=O)N([H])[H])c2N([H])[H])C1([H])[H])(C([H])([H])[H])C([H])([H])[H]

$$$$
51:0:0
     RDKit          3D

100109  0  0  1  0  0  0  0  0999 V2000
  -28.5380  -23.3440   20.2050 C   0  0  0  0  0  3  0  0  0  0  0  0
  -29.1670  -22.9120   21.3850 C   0  0  0  0  0  0  0  0  0  0  0  0
  -28.1570  -24.6940   20.1230 C   0  0  0  0  0  0  0  0  0  0  0  0
  -29.0070  -25.0550   22.2280 C   0  0  0  0  0  0  0  0  0  0  0  0
  -29.3520  -23.7790   22.3990 N   0  0  0  0  0  0  0  0  0  0  0  0
  -28.4360  -25.5430   21.1300 N   0  0  0  0  0  0  0  0  0  0  0  0
  -30.9590  -26.5700   22.6560 C   0  0  0  0  0  1  0  0  0  0  0  0
  -29.8300  -25.4460   24.6060 C   0  0  0  0  0  1  0  0  0  0  0  0
  -28.6660  -27.2870   23.4190 C   0  0  0  0  0  1  0  0  0  0  0  0
  -29.6080  -26.0790   23.2120 C   0  0  2  0  0  0  0  0  0  0  0  0
  -29.5650  -21.4360   21.6000 C   0  0  0  0  0  2  0  0  0  0  0  0
  -31.8690  -21.3260   22.6590 C   0  0  0  0  0  1  0  0  0  0  0  0
  -31.7410  -21.6750   20.1890 C   0  0  0  0  0  1  0  0  0  0  0  0
  -31.0620  -20.9730   21.3910 C   0  0  2  0  0  0  0  0  0  0  0  0
  -30.1720  -18.4370   21.4860 C   0  0  0  0  0  3  0  0  0  0  0  0
  -32.1600  -18.7140   20.6590 C   0  0  0  0  0  3  0  0  0  0  0  0
  -31.1370  -19.4480   21.1980 C   0  0  0  0  0  0  0  0  0  0  0  0
  -30.5210  -17.2350   21.0310 N   0  0  0  0  0  0  0  0  0  0  0  0
  -31.7250  -17.4140   20.4360 N   0  0  0  0  0  0  0  0  0  0  0  0
  -33.6070  -17.0550   18.9230 C   0  0  0  0  0  1  0  0  0  0  0  0
  -31.4220  -16.3300   18.2140 C   0  0  0  0  0  1  0  0  0  0  0  0
  -32.2950  -16.4150   19.4960 C   0  0  2  0  0  0  0  0  0  0  0  0
  -32.6670  -14.9680   20.0440 C   0  0  0  0  0  0  0  0  0  0  0  0
  -32.0910  -12.6760   19.4160 C   0  0  0  0  0  2  0  0  0  0  0  0
  -31.2070  -12.6990   18.1570 C   0  0  0  0  0  2  0  0  0  0  0  0
  -29.7220  -12.7720   18.5540 C   0  0  0  0  0  2  0  0  0  0  0  0
  -29.4240  -13.8600   19.6240 C   0  0  0  0  0  3  0  0  0  0  0  0
  -30.4670  -13.8810   20.7600 C   0  0  0  0  0  2  0  0  0  0  0  0
  -31.8060  -13.9140   20.1630 N   0  0  0  0  0  0  0  0  0  0  0  0
  -33.8720  -14.7250   20.0110 O   0  0  0  0  0  0  0  0  0  0  0  0
  -27.1660  -14.7980   20.3940 C   0  0  0  0  0  0  0  0  0  0  0  0
  -25.9870  -14.1900   20.7200 C   0  0  0  0  0  0  0  0  0  0  0  0
  -26.2280  -12.7850   20.6270 C   0  0  0  0  0  0  0  0  0  0  0  0
  -28.0580  -13.7730   20.1200 N   0  0  0  0  0  0  0  0  0  0  0  0
  -27.4990  -12.5530   20.3230 N   0  0  0  0  0  0  0  0  0  0  0  0
  -25.3100  -11.6490   20.7540 C   0  0  0  0  0  0  0  0  0  0  0  0
  -25.5720  -10.5850   21.6450 C   0  0  0  0  0  3  0  0  0  0  0  0
  -24.6630   -9.5120   21.7630 C   0  0  0  0  0  3  0  0  0  0  0  0
  -23.4770   -9.4980   20.9900 C   0  0  0  0  0  0  0  0  0  0  0  0
  -23.2340  -10.5490   20.0870 C   0  0  0  0  0  3  0  0  0  0  0  0
  -24.1410  -11.6130   19.9680 C   0  0  0  0  0  3  0  0  0  0  0  0
  -22.5490   -8.4870   21.0210 O   0  0  0  0  0  0  0  0  0  0  0  0
  -22.2370   -7.8320   22.1860 C   0  0  0  0  0  0  0  0  0  0  0  0
  -21.7720   -8.5230   23.3260 C   0  0  0  0  0  3  0  0  0  0  0  0
  -21.3970   -7.8050   24.4790 C   0  0  0  0  0  3  0  0  0  0  0  0
  -21.4780   -6.3990   24.4920 C   0  0  0  0  0  0  0  0  0  0  0  0
  -21.9350   -5.7100   23.3550 C   0  0  0  0  0  3  0  0  0  0  0  0
  -22.3120   -6.4250   22.2040 C   0  0  0  0  0  0  0  0  0  0  0  0
  -22.7330   -5.7550   21.1040 F   0  0  0  0  0  0  0  0  0  0  0  0
  -21.1090   -5.7090   25.5950 F   0  0  0  0  0  0  0  0  0  0  0  0
  -24.6840  -14.8730   21.0170 C   0  0  0  0  0  0  0  0  0  0  0  0
  -23.8690  -14.2860   21.8850 N   0  0  0  0  0  0  0  0  0  0  0  0
  -24.4020  -15.9610   20.5150 O   0  0  0  0  0  0  0  0  0  0  0  0
  -24.1090  -13.4040   22.3140 H   0  0  0  0  0  0  0  0  0  0  0  0
  -22.9920  -14.7250   22.1280 H   0  0  0  0  0  0  0  0  0  0  0  0
  -27.5470  -16.1310   20.2890 N   0  0  0  0  0  0  0  0  0  0  0  0
  -26.9130  -16.8920   20.4970 H   0  0  0  0  0  0  0  0  0  0  0  0
  -28.5260  -16.4190   20.2620 H   0  0  0  0  0  0  0  0  0  0  0  0
  -27.5250  -25.2670   18.8500 C   0  0  0  0  0  2  0  0  0  0  0  0
  -27.4440  -26.7000   18.7910 O   0  0  0  0  0  0  0  0  0  0  0  0
  -24.1970  -31.4770   22.9020 C   0  0  0  0  0  0  0  0  0  0  0  0
  -26.2590  -27.3670   19.0300 C   0  0  0  0  0  0  0  0  0  0  0  0
  -22.7260  -30.2800   21.3110 C   0  0  0  0  0  3  0  0  0  0  0  0
  -23.9200  -28.8870   19.5380 C   0  0  0  0  0  0  0  0  0  0  0  0
  -25.2040  -30.6330   20.7830 C   0  0  0  0  0  2  0  0  0  0  0  0
  -25.1610  -29.3370   20.0020 C   0  0  0  0  0  0  0  0  0  0  0  0
  -26.3280  -28.5870   19.7400 C   0  0  0  0  0  3  0  0  0  0  0  0
  -24.9940  -26.9220   18.5760 C   0  0  0  0  0  3  0  0  0  0  0  0
  -23.8320  -27.6800   18.8250 C   0  0  0  0  0  3  0  0  0  0  0  0
  -22.7150  -29.7470   19.8520 C   0  0  0  0  0  2  0  0  0  0  0  0
  -24.0690  -30.8040   21.7230 N   0  0  0  0  0  0  0  0  0  0  0  0
  -23.2110  -31.7010   23.6200 O   0  0  0  0  0  0  0  0  0  0  0  0
  -22.1920  -29.1680   22.2420 C   0  0  0  0  0  0  0  0  0  0  0  0
  -20.8710  -28.9320   22.1960 N   0  0  0  0  0  0  0  0  0  0  0  0
  -22.9600  -28.5230   22.9610 O   0  0  0  0  0  0  0  0  0  0  0  0
  -20.3070  -29.5100   21.5880 H   0  0  0  0  0  0  0  0  0  0  0  0
  -17.6270  -27.4280   22.6950 C   0  0  0  0  0  0  0  0  0  0  0  0
  -20.1540  -27.9070   22.9540 C   0  0  0  0  0  3  0  0  0  0  0  0
  -20.3790  -26.5040   22.3450 C   0  0  0  0  0  2  0  0  0  0  0  0
  -19.2990  -26.1060   21.3330 C   0  0  0  0  0  2  0  0  0  0  0  0
  -17.9160  -26.1140   21.9920 C   0  0  0  0  0  2  0  0  0  0  0  0
  -18.6760  -28.2770   23.1340 C   0  0  0  0  0  0  0  0  0  0  0  0
  -18.3500  -29.5040   23.7520 C   0  0  0  0  0  3  0  0  0  0  0  0
  -17.0090  -29.8830   23.9380 C   0  0  0  0  0  3  0  0  0  0  0  0
  -15.9730  -29.0300   23.5180 C   0  0  0  0  0  3  0  0  0  0  0  0
  -16.2830  -27.8040   22.9010 C   0  0  0  0  0  3  0  0  0  0  0  0
  -25.5760  -32.0180   23.3930 C   0  0  0  0  0  3  0  0  0  0  0  0
  -25.3540  -33.3610   23.9460 N   0  0  0  0  0  0  0  0  0  0  0  0
  -25.6760  -34.5010   23.3210 C   0  0  0  0  0  0  0  0  0  0  0  0
  -26.2650  -34.5270   22.2340 O   0  0  0  0  0  0  0  0  0  0  0  0
  -24.8250  -33.4160   24.8040 H   0  0  0  0  0  0  0  0  0  0  0  0
  -24.0160  -36.3900   23.3450 C   0  0  0  0  0  1  0  0  0  0  0  0
  -25.2820  -35.8230   24.0080 C   0  0  0  0  0  3  0  0  0  0  0  0
  -27.5020  -36.4900   24.8180 C   0  0  0  0  0  1  0  0  0  0  0  0
  -26.3550  -36.8390   23.9830 N   0  0  0  0  0  0  0  0  0  0  0  0
  -26.0030  -37.7410   24.2910 H   0  0  0  0  0  0  0  0  0  0  0  0
  -26.2670  -31.0810   24.4590 C   0  0  1  0  0  0  0  0  0  0  0  0
  -25.3520  -30.7140   25.6490 C   0  0  0  0  0  1  0  0  0  0  0  0
  -26.7430  -29.7640   23.8020 C   0  0  0  0  0  1  0  0  0  0  0  0
  -27.5290  -31.7750   25.0250 C   0  0  0  0  0  1  0  0  0  0  0  0
  1  2  2  0
  2 11  1  0
  2  5  1  0
  3  1  1  0
  3  6  2  0
  4  5  2  0
  4 10  1  0
  6  4  1  0
 10  7  1  6
 10  9  1  0
 10  8  1  0
 14 13  1  6
 14 11  1  0
 14 12  1  0
 16 17  2  0
 17 14  1  0
 17 15  1  0
 18 15  2  0
 19 16  1  0
 19 18  1  0
 22 20  1  6
 21 22  1  0
 22 23  1  0
 22 19  1  0
 23 29  1  0
 24 29  1  0
 25 26  1  0
 25 24  1  0
 27 26  1  0
 27 34  1  0
 27 28  1  0
 29 28  1  0
 30 23  2  0
 31 32  2  0
 32 51  1  0
 33 32  1  0
 33 36  1  0
 34 35  1  0
 34 31  1  0
 35 33  2  0
 36 37  1  0
 37 38  2  0
 39 42  1  0
 39 38  1  0
 40 39  2  0
 41 40  1  0
 41 36  2  0
 42 43  1  0
 43 48  2  0
 43 44  1  0
 44 45  2  0
 45 46  1  0
 46 50  1  0
 47 46  2  0
 48 47  1  0
 49 48  1  0
 51 52  1  0
 52 55  1  0
 52 54  1  0
 53 51  2  0
 56 31  1  0
 56 57  1  0
 58 56  1  0
 59  3  1  0
 60 59  1  0
 60 62  1  0
 61 72  2  0
 62 67  1  0
 63 71  1  0
 63 73  1  0
 64 70  1  0
 64 66  1  0
 65 71  1  0
 66 65  1  0
 67 66  2  0
 68 69  1  0
 68 62  2  0
 69 64  2  0
 70 63  1  0
 71 61  1  0
 73 75  2  0
 74 73  1  0
 76 74  1  0
 77 86  2  0
 77 82  1  0
 78 74  1  0
 78 82  1  0
 79 78  1  0
 80 81  1  0
 80 79  1  0
 81 77  1  0
 82 83  2  0
 83 84  1  0
 85 84  2  0
 86 85  1  0
 87 61  1  0
 87 88  1  0
 87 97  1  0
 88 91  1  0
 89 88  1  0
 89 93  1  0
 90 89  2  0
 93 92  1  0
 95 93  1  0
 95 96  1  0
 95 94  1  0
 97100  1  1
 97 98  1  0
 99 97  1  0
M  ISO  4  22 100  23 100  59 101  60 101
M  END
>  <TORSDO>  (48) 
F 22

>  <SCORE>  (48) 
-8.682

>  <name>  (48) 
51

>  <ligand_id>  (48) 
51

>  <original_smiles>  (48) 
[H]c1nn(C(C(=O)N2C([H])([H])C([H])([H])C([H])([H])C([H])(n3nc(-c4c([H])c([H])c(Oc5c([H])c([H])c(F)c([H])c5F)c([H])c4[H])c(C(=O)N([H])[H])c3N([H])[H])C2([H])[H])(C([H])([H])[H])C([H])([H])[H])c([H])c1C(C([H])([H])[H])(C([H])([H])[H])C([H])([H])c1nc(C(C([H])([H])[H])(C([H])([H])[H])C([H])([H])[H])nc(C([H])([H])Oc2c([H])c([H])c3c(c2[H])C([H])([H])N(C(=O)C([H])(N([H])C(=O)C([H])(N([H])C([H])([H])[H])C([H])([H])[H])C(C([H])([H])[H])(C([H])([H])[H])C([H])([H])[H])C([H])(C(=O)N([H])C2([H])c4c([H])c([H])c([H])c([H])c4C([H])([H])C([H])([H])C2([H])[H])C3([H])[H])c1[H]

>  <smiles>  (48) 
[H]c1nn(C(C(=O)N2C([H])([H])C([H])([H])C([H])([H])C([H])(n3nc(-c4c([H])c([H])c(Oc5c([H])c([H])c(F)c([H])c5F)c([H])c4[H])c(C(=O)N([H])[H])c3N([H])[H])C2([H])[H])(C([H])([H])[H])C([H])([H])[H])c([H])c1C(C([H])([H])[H])(C([H])([H])[H])C([H])([H])c1nc(C(C([H])([H])[H])(C([H])([H])[H])C([H])([H])[H])nc(C([H])([H])Oc2c([H])c([H])c3c(c2[H])C([H])([H])N(C(=O)C([H])(N([H])C(=O)C([H])(N([H])C([H])([H])[H])C([H])([H])[H])C(C([H])([H])[H])(C([H])([H])[H])C([H])([H])[H])C([H])(C(=O)N([H])C2([H])c4c([H])c([H])c([H])c([H])c4C([H])([H])C([H])([H])C2([H])[H])C3([H])[H])c1[H]

$$$$
52:0:0
     RDKit          3D

 92100  0  0  1  0  0  0  0  0999 V2000
  -30.3410  -17.8140   21.2980 C   0  0  0  0  0  2  0  0  0  0  0  0
  -29.9280  -16.8840   20.3040 C   0  0  0  0  0  3  0  0  0  0  0  0
  -28.1630  -18.3040   19.7860 C   0  0  0  0  0  0  0  0  0  0  0  0
  -28.6790  -19.2920   20.6640 C   0  0  0  0  0  0  0  0  0  0  0  0
  -26.9650  -18.5730   18.8990 C   0  0  0  0  0  1  0  0  0  0  0  0
  -29.7370  -19.0180   21.4640 N   0  0  0  0  0  0  0  0  0  0  0  0
  -28.7750  -17.1040   19.6130 N   0  0  0  0  0  0  0  0  0  0  0  0
  -32.2740  -16.6830   19.4750 C   0  0  0  0  0  1  0  0  0  0  0  0
  -30.5950  -15.5590   18.2090 C   0  0  0  0  0  1  0  0  0  0  0  0
  -30.9380  -15.8840   19.6880 C   0  0  2  0  0  0  0  0  0  0  0  0
  -31.2620  -14.5840   20.5450 C   0  0  0  0  0  0  0  0  0  0  0  0
  -30.8870  -12.2670   19.8790 C   0  0  0  0  0  2  0  0  0  0  0  0
  -30.0480  -12.1880   18.5930 C   0  0  0  0  0  2  0  0  0  0  0  0
  -28.5420  -12.2050   18.9120 C   0  0  0  0  0  2  0  0  0  0  0  0
  -28.1160  -13.2510   19.9820 C   0  0  0  0  0  3  0  0  0  0  0  0
  -29.1120  -13.3380   21.1550 C   0  0  0  0  0  2  0  0  0  0  0  0
  -30.4660  -13.4760   20.6010 N   0  0  0  0  0  0  0  0  0  0  0  0
  -32.4570  -14.4540   20.7880 O   0  0  0  0  0  0  0  0  0  0  0  0
  -25.7170  -13.9540   20.5520 C   0  0  0  0  0  0  0  0  0  0  0  0
  -24.5980  -13.2300   20.8640 C   0  0  0  0  0  0  0  0  0  0  0  0
  -25.0120  -11.8630   20.9090 C   0  0  0  0  0  0  0  0  0  0  0  0
  -26.7400  -13.0300   20.4200 N   0  0  0  0  0  0  0  0  0  0  0  0
  -26.3180  -11.7700   20.7010 N   0  0  0  0  0  0  0  0  0  0  0  0
  -24.2270  -10.6330   21.0800 C   0  0  0  0  0  0  0  0  0  0  0  0
  -24.5770   -9.6630   22.0440 C   0  0  0  0  0  3  0  0  0  0  0  0
  -23.7980   -8.4970   22.2030 C   0  0  0  0  0  3  0  0  0  0  0  0
  -22.6510   -8.2960   21.3980 C   0  0  0  0  0  0  0  0  0  0  0  0
  -22.3200   -9.2540   20.4240 C   0  0  0  0  0  3  0  0  0  0  0  0
  -23.1010  -10.4100   20.2640 C   0  0  0  0  0  3  0  0  0  0  0  0
  -21.8480   -7.1840   21.4660 O   0  0  0  0  0  0  0  0  0  0  0  0
  -21.7430   -6.4420   22.6150 C   0  0  0  0  0  0  0  0  0  0  0  0
  -21.3240   -7.0130   23.8360 C   0  0  0  0  0  3  0  0  0  0  0  0
  -21.1640   -6.1990   24.9750 C   0  0  0  0  0  3  0  0  0  0  0  0
  -21.4110   -4.8150   24.8930 C   0  0  0  0  0  0  0  0  0  0  0  0
  -21.8240   -4.2450   23.6770 C   0  0  0  0  0  3  0  0  0  0  0  0
  -21.9860   -5.0560   22.5410 C   0  0  0  0  0  0  0  0  0  0  0  0
  -22.3630   -4.4970   21.3660 F   0  0  0  0  0  0  0  0  0  0  0  0
  -21.2500   -4.0320   25.9860 F   0  0  0  0  0  0  0  0  0  0  0  0
  -23.2030  -13.7650   21.0170 C   0  0  0  0  0  0  0  0  0  0  0  0
  -22.3910  -13.1250   21.8510 N   0  0  0  0  0  0  0  0  0  0  0  0
  -22.8410  -14.7870   20.4350 O   0  0  0  0  0  0  0  0  0  0  0  0
  -22.6950  -12.2980   22.3420 H   0  0  0  0  0  0  0  0  0  0  0  0
  -21.4550  -13.4720   22.0060 H   0  0  0  0  0  0  0  0  0  0  0  0
  -25.9470  -15.3110   20.3520 N   0  0  0  0  0  0  0  0  0  0  0  0
  -25.2060  -16.0010   20.4120 H   0  0  0  0  0  0  0  0  0  0  0  0
  -26.8500  -15.7160   20.1230 H   0  0  0  0  0  0  0  0  0  0  0  0
  -28.1530  -20.5740   20.6950 O   0  0  0  0  0  0  0  0  0  0  0  0
  -29.0900  -21.6630   20.7820 C   0  0  0  0  0  2  0  0  0  0  0  0
  -28.3990  -23.0110   21.1100 C   0  0  0  0  0  2  0  0  0  0  0  0
  -28.6680  -24.1790   20.1210 C   0  0  0  0  0  2  0  0  0  0  0  0
  -28.3160  -25.5590   20.7320 C   0  0  0  0  0  2  0  0  0  0  0  0
  -28.3730  -26.6580   19.8050 O   0  0  0  0  0  0  0  0  0  0  0  0
  -24.6090  -31.7460   23.0720 C   0  0  0  0  0  0  0  0  0  0  0  0
  -27.2330  -27.4290   19.8120 C   0  0  0  0  0  0  0  0  0  0  0  0
  -23.3870  -30.3930   21.3990 C   0  0  0  0  0  3  0  0  0  0  0  0
  -24.8340  -28.9140   19.9020 C   0  0  0  0  0  0  0  0  0  0  0  0
  -25.9080  -30.7790   21.1760 C   0  0  0  0  0  2  0  0  0  0  0  0
  -25.9970  -29.4300   20.4890 C   0  0  0  0  0  0  0  0  0  0  0  0
  -27.2040  -28.6960   20.4400 C   0  0  0  0  0  3  0  0  0  0  0  0
  -26.0580  -26.9270   19.2170 C   0  0  0  0  0  3  0  0  0  0  0  0
  -24.8590  -27.6630   19.2620 C   0  0  0  0  0  3  0  0  0  0  0  0
  -23.5840  -29.7610   19.9960 C   0  0  0  0  0  2  0  0  0  0  0  0
  -24.6540  -30.9850   21.9410 N   0  0  0  0  0  0  0  0  0  0  0  0
  -23.5340  -31.9910   23.6350 O   0  0  0  0  0  0  0  0  0  0  0  0
  -22.7550  -29.3350   22.3340 C   0  0  0  0  0  0  0  0  0  0  0  0
  -21.4260  -29.1730   22.2410 N   0  0  0  0  0  0  0  0  0  0  0  0
  -23.4560  -28.6650   23.0960 O   0  0  0  0  0  0  0  0  0  0  0  0
  -20.9210  -29.7680   21.5980 H   0  0  0  0  0  0  0  0  0  0  0  0
  -18.0520  -28.0160   22.8130 C   0  0  0  0  0  0  0  0  0  0  0  0
  -20.6230  -28.2100   22.9940 C   0  0  0  0  0  3  0  0  0  0  0  0
  -20.6720  -26.8110   22.3370 C   0  0  0  0  0  2  0  0  0  0  0  0
  -19.5240  -26.5650   21.3540 C   0  0  0  0  0  2  0  0  0  0  0  0
  -18.1720  -26.7020   22.0610 C   0  0  0  0  0  2  0  0  0  0  0  0
  -19.2020  -28.7320   23.2380 C   0  0  0  0  0  0  0  0  0  0  0  0
  -19.0360  -29.9650   23.9040 C   0  0  0  0  0  3  0  0  0  0  0  0
  -17.7490  -30.4820   24.1500 C   0  0  0  0  0  3  0  0  0  0  0  0
  -16.6130  -29.7620   23.7400 C   0  0  0  0  0  3  0  0  0  0  0  0
  -16.7670  -28.5310   23.0780 C   0  0  0  0  0  3  0  0  0  0  0  0
  -25.9000  -32.3610   23.6970 C   0  0  0  0  0  3  0  0  0  0  0  0
  -25.5890  -33.7440   24.0810 N   0  0  0  0  0  0  0  0  0  0  0  0
  -25.9060  -34.8250   23.3540 C   0  0  0  0  0  0  0  0  0  0  0  0
  -26.5640  -34.7600   22.3120 O   0  0  0  0  0  0  0  0  0  0  0  0
  -25.0010  -33.8660   24.8920 H   0  0  0  0  0  0  0  0  0  0  0  0
  -24.1630  -36.6160   23.0850 C   0  0  0  0  0  1  0  0  0  0  0  0
  -25.4160  -36.1920   23.8660 C   0  0  0  0  0  3  0  0  0  0  0  0
  -27.5570  -37.0620   24.6990 C   0  0  0  0  0  1  0  0  0  0  0  0
  -26.4410  -37.2540   23.7760 N   0  0  0  0  0  0  0  0  0  0  0  0
  -26.0320  -38.1670   23.9590 H   0  0  0  0  0  0  0  0  0  0  0  0
  -26.4440  -31.5460   24.9340 C   0  0  1  0  0  0  0  0  0  0  0  0
  -25.3720  -31.2670   26.0130 C   0  0  0  0  0  1  0  0  0  0  0  0
  -27.0200  -30.1840   24.4780 C   0  0  0  0  0  1  0  0  0  0  0  0
  -27.6070  -32.3170   25.6010 C   0  0  0  0  0  1  0  0  0  0  0  0
  1  6  1  0
  2 10  1  0
  2  1  1  0
  3  4  1  0
  4 47  1  0
  4  6  2  0
  5  3  1  0
  7  3  2  0
  7  2  1  0
 10  8  1  6
  9 10  1  0
 10 11  1  0
 11 17  1  0
 11 18  2  0
 12 17  1  0
 13 14  1  0
 13 12  1  0
 15 14  1  0
 15 22  1  0
 15 16  1  0
 17 16  1  0
 19 20  2  0
 20 21  1  0
 20 39  1  0
 21 24  1  0
 22 19  1  0
 22 23  1  0
 23 21  2  0
 24 25  1  0
 25 26  2  0
 27 30  1  0
 27 26  1  0
 28 27  2  0
 29 28  1  0
 29 24  2  0
 30 31  1  0
 31 32  1  0
 32 33  2  0
 34 33  1  0
 34 38  1  0
 35 34  2  0
 36 31  2  0
 36 35  1  0
 37 36  1  0
 39 40  1  0
 40 43  1  0
 40 42  1  0
 41 39  2  0
 44 45  1  0
 44 19  1  0
 46 44  1  0
 47 48  1  0
 48 49  1  0
 50 51  1  0
 50 49  1  0
 52 54  1  0
 52 51  1  0
 53 64  2  0
 54 59  1  0
 55 63  1  0
 55 65  1  0
 56 62  1  0
 56 58  1  0
 57 63  1  0
 58 57  1  0
 59 58  2  0
 60 61  1  0
 60 54  2  0
 61 56  2  0
 62 55  1  0
 63 53  1  0
 65 67  2  0
 66 65  1  0
 68 66  1  0
 69 78  2  0
 69 74  1  0
 70 66  1  0
 70 74  1  0
 71 70  1  0
 72 73  1  0
 72 71  1  0
 73 69  1  0
 74 75  2  0
 75 76  1  0
 77 76  2  0
 78 77  1  0
 79 53  1  0
 79 80  1  0
 79 89  1  0
 80 83  1  0
 81 85  1  0
 81 80  1  0
 82 81  2  0
 85 84  1  0
 87 85  1  0
 87 88  1  0
 87 86  1  0
 89 92  1  1
 89 90  1  0
 91 89  1  0
M  ISO  4  10 100  11 100  51 101  52 101
M  END
>  <TORSDO>  (49) 
F 22

>  <SCORE>  (49) 
-12.217

>  <name>  (49) 
52

>  <ligand_id>  (49) 
52

>  <original_smiles>  (49) 
[H]c1nc(OC([H])([H])C([H])([H])C([H])([H])C([H])([H])Oc2c([H])c([H])c3c(c2[H])C([H])([H])N(C(=O)C([H])(N([H])C(=O)C([H])(N([H])C([H])([H])[H])C([H])([H])[H])C(C([H])([H])[H])(C([H])([H])[H])C([H])([H])[H])C([H])(C(=O)N([H])C2([H])c4c([H])c([H])c([H])c([H])c4C([H])([H])C([H])([H])C2([H])[H])C3([H])[H])c(C([H])([H])[H])nc1C(C(=O)N1C([H])([H])C([H])([H])C([H])([H])C([H])(n2nc(-c3c([H])c([H])c(Oc4c([H])c([H])c(F)c([H])c4F)c([H])c3[H])c(C(=O)N([H])[H])c2N([H])[H])C1([H])[H])(C([H])([H])[H])C([H])([H])[H]

>  <smiles>  (49) 
[H]c1nc(OC([H])([H])C([H])([H])C([H])([H])C([H])([H])Oc2c([H])c([H])c3c(c2[H])C([H])([H])N(C(=O)C([H])(N([H])C(=O)C([H])(N([H])C([H])([H])[H])C([H])([H])[H])C(C([H])([H])[H])(C([H])([H])[H])C([H])([H])[H])C([H])(C(=O)N([H])C2([H])c4c([H])c([H])c([H])c([H])c4C([H])([H])C([H])([H])C2([H])[H])C3([H])[H])c(C([H])([H])[H])nc1C(C(=O)N1C([H])([H])C([H])([H])C([H])([H])C([H])(n2nc(-c3c([H])c([H])c(Oc4c([H])c([H])c(F)c([H])c4F)c([H])c3[H])c(C(=O)N([H])[H])c2N([H])[H])C1([H])[H])(C([H])([H])[H])C([H])([H])[H]

$$$$
53:0:0
     RDKit          3D

 92100  0  0  1  0  0  0  0  0999 V2000
  -29.9280  -20.4340   20.9850 C   0  0  0  0  0  3  0  0  0  0  0  0
  -29.3260  -21.1490   19.9180 C   0  0  0  0  0  0  0  0  0  0  0  0
  -28.7980  -20.2830   18.9240 C   0  0  0  0  0  0  0  0  0  0  0  0
  -29.5410  -18.3400   20.0230 C   0  0  0  0  0  0  0  0  0  0  0  0
  -30.0130  -19.0720   21.0370 N   0  0  0  0  0  0  0  0  0  0  0  0
  -28.9140  -18.9260   18.9970 N   0  0  0  0  0  0  0  0  0  0  0  0
  -26.5290  -20.6610   17.8350 C   0  0  0  0  0  1  0  0  0  0  0  0
  -28.0570  -20.7900   17.6960 C   0  0  0  0  0  2  0  0  0  0  0  0
  -28.0740  -16.5940   21.0310 C   0  0  0  0  0  1  0  0  0  0  0  0
  -29.3270  -16.7680   20.1600 C   0  0  0  0  0  3  0  0  0  0  0  0
  -30.8530  -14.6680   19.9580 C   0  0  0  0  0  0  0  0  0  0  0  0
  -30.4910  -12.4060   18.9630 C   0  0  0  0  0  2  0  0  0  0  0  0
  -29.5120  -12.5000   17.7730 C   0  0  0  0  0  2  0  0  0  0  0  0
  -28.0550  -12.3800   18.2610 C   0  0  0  0  0  2  0  0  0  0  0  0
  -27.7590  -13.2910   19.4840 C   0  0  0  0  0  3  0  0  0  0  0  0
  -28.8620  -13.1740   20.5630 C   0  0  0  0  0  2  0  0  0  0  0  0
  -30.1440  -13.4850   19.9210 N   0  0  0  0  0  0  0  0  0  0  0  0
  -31.9770  -14.7080   19.4440 O   0  0  0  0  0  0  0  0  0  0  0  0
  -31.3520  -16.3770   21.5670 C   0  0  0  0  0  1  0  0  0  0  0  0
  -30.3890  -15.7830   20.6340 N   0  0  0  0  0  0  0  0  0  0  0  0
  -25.4040  -13.9490   20.2720 C   0  0  0  0  0  0  0  0  0  0  0  0
  -24.3410  -13.2100   20.7090 C   0  0  0  0  0  0  0  0  0  0  0  0
  -24.7690  -11.8480   20.6740 C   0  0  0  0  0  0  0  0  0  0  0  0
  -26.4260  -13.0430   20.0240 N   0  0  0  0  0  0  0  0  0  0  0  0
  -26.0470  -11.7740   20.3190 N   0  0  0  0  0  0  0  0  0  0  0  0
  -24.0150  -10.6080   20.8950 C   0  0  0  0  0  0  0  0  0  0  0  0
  -24.4560   -9.6260   21.8110 C   0  0  0  0  0  3  0  0  0  0  0  0
  -23.6990   -8.4540   22.0200 C   0  0  0  0  0  3  0  0  0  0  0  0
  -22.4870   -8.2550   21.3160 C   0  0  0  0  0  0  0  0  0  0  0  0
  -22.0680   -9.2220   20.3860 C   0  0  0  0  0  3  0  0  0  0  0  0
  -22.8260  -10.3860   20.1740 C   0  0  0  0  0  3  0  0  0  0  0  0
  -21.7000   -7.1350   21.4380 O   0  0  0  0  0  0  0  0  0  0  0  0
  -21.6830   -6.3910   22.5890 C   0  0  0  0  0  0  0  0  0  0  0  0
  -21.3470   -6.9560   23.8390 C   0  0  0  0  0  3  0  0  0  0  0  0
  -21.2760   -6.1370   24.9850 C   0  0  0  0  0  3  0  0  0  0  0  0
  -21.5300   -4.7570   24.8800 C   0  0  0  0  0  0  0  0  0  0  0  0
  -21.8580   -4.1910   23.6360 C   0  0  0  0  0  3  0  0  0  0  0  0
  -21.9320   -5.0070   22.4930 C   0  0  0  0  0  0  0  0  0  0  0  0
  -22.2280   -4.4530   21.2930 F   0  0  0  0  0  0  0  0  0  0  0  0
  -21.4550   -3.9700   25.9800 F   0  0  0  0  0  0  0  0  0  0  0  0
  -22.9700  -13.7290   21.0330 C   0  0  0  0  0  0  0  0  0  0  0  0
  -22.2610  -13.0660   21.9400 N   0  0  0  0  0  0  0  0  0  0  0  0
  -22.5370  -14.7600   20.5190 O   0  0  0  0  0  0  0  0  0  0  0  0
  -22.6240  -12.2320   22.3760 H   0  0  0  0  0  0  0  0  0  0  0  0
  -21.3430  -13.3960   22.2010 H   0  0  0  0  0  0  0  0  0  0  0  0
  -25.5690  -15.3060   20.0280 N   0  0  0  0  0  0  0  0  0  0  0  0
  -24.7860  -15.9480   20.0890 H   0  0  0  0  0  0  0  0  0  0  0  0
  -26.3580  -15.6980   19.5340 H   0  0  0  0  0  0  0  0  0  0  0  0
  -29.4880  -22.7240   19.7680 C   0  0  0  0  0  3  0  0  0  0  0  0
  -28.3910  -23.8200   20.1730 C   0  0  0  0  0  3  0  0  0  0  0  0
  -28.6040  -25.2900   19.5620 C   0  0  0  0  0  2  0  0  0  0  0  0
  -28.3670  -26.5350   20.3300 O   0  0  0  0  0  0  0  0  0  0  0  0
  -24.5800  -31.9100   23.2440 C   0  0  0  0  0  0  0  0  0  0  0  0
  -27.2150  -27.3290   20.2390 C   0  0  0  0  0  0  0  0  0  0  0  0
  -23.3800  -30.4950   21.6110 C   0  0  0  0  0  3  0  0  0  0  0  0
  -24.8370  -28.9220   20.2080 C   0  0  0  0  0  0  0  0  0  0  0  0
  -25.9150  -30.8180   21.4260 C   0  0  0  0  0  2  0  0  0  0  0  0
  -25.9980  -29.4290   20.8010 C   0  0  0  0  0  0  0  0  0  0  0  0
  -27.1860  -28.6410   20.8110 C   0  0  0  0  0  3  0  0  0  0  0  0
  -26.0310  -26.8650   19.6280 C   0  0  0  0  0  3  0  0  0  0  0  0
  -24.8550  -27.6460   19.6180 C   0  0  0  0  0  3  0  0  0  0  0  0
  -23.5970  -29.7940   20.2410 C   0  0  0  0  0  2  0  0  0  0  0  0
  -24.6440  -31.0920   22.1520 N   0  0  0  0  0  0  0  0  0  0  0  0
  -23.4960  -32.1940   23.7730 O   0  0  0  0  0  0  0  0  0  0  0  0
  -22.7100  -29.4960   22.5840 C   0  0  0  0  0  0  0  0  0  0  0  0
  -21.3830  -29.3280   22.4610 N   0  0  0  0  0  0  0  0  0  0  0  0
  -23.3830  -28.8730   23.4090 O   0  0  0  0  0  0  0  0  0  0  0  0
  -20.9000  -29.8780   21.7660 H   0  0  0  0  0  0  0  0  0  0  0  0
  -17.9970  -28.1680   22.9700 C   0  0  0  0  0  0  0  0  0  0  0  0
  -20.5570  -28.4030   23.2370 C   0  0  0  0  0  3  0  0  0  0  0  0
  -20.6470  -26.9670   22.6700 C   0  0  0  0  0  2  0  0  0  0  0  0
  -19.5410  -26.6520   21.6580 C   0  0  0  0  0  2  0  0  0  0  0  0
  -18.1580  -26.8150   22.2980 C   0  0  0  0  0  2  0  0  0  0  0  0
  -19.1230  -28.9210   23.3960 C   0  0  0  0  0  0  0  0  0  0  0  0
  -18.9160  -30.1890   23.9810 C   0  0  0  0  0  3  0  0  0  0  0  0
  -17.6160  -30.7010   24.1500 C   0  0  0  0  0  3  0  0  0  0  0  0
  -16.5050  -29.9430   23.7420 C   0  0  0  0  0  3  0  0  0  0  0  0
  -16.6960  -28.6810   23.1540 C   0  0  0  0  0  3  0  0  0  0  0  0
  -25.8640  -32.5450   23.8680 C   0  0  0  0  0  3  0  0  0  0  0  0
  -25.5570  -33.9470   24.1840 N   0  0  0  0  0  0  0  0  0  0  0  0
  -25.8960  -34.9940   23.4190 C   0  0  0  0  0  0  0  0  0  0  0  0
  -26.5730  -34.8810   22.3930 O   0  0  0  0  0  0  0  0  0  0  0  0
  -24.9690  -34.1110   24.9870 H   0  0  0  0  0  0  0  0  0  0  0  0
  -24.1770  -36.7900   23.0400 C   0  0  0  0  0  1  0  0  0  0  0  0
  -25.4090  -36.3850   23.8640 C   0  0  0  0  0  3  0  0  0  0  0  0
  -27.5400  -37.2690   24.7070 C   0  0  0  0  0  1  0  0  0  0  0  0
  -26.4430  -37.4360   23.7560 N   0  0  0  0  0  0  0  0  0  0  0  0
  -26.0360  -38.3560   23.9010 H   0  0  0  0  0  0  0  0  0  0  0  0
  -26.3700  -31.7860   25.1560 C   0  0  1  0  0  0  0  0  0  0  0  0
  -25.2720  -31.5670   26.2220 C   0  0  0  0  0  1  0  0  0  0  0  0
  -26.9470  -30.4010   24.7820 C   0  0  0  0  0  1  0  0  0  0  0  0
  -27.5220  -32.5810   25.8150 C   0  0  0  0  0  1  0  0  0  0  0  0
  1  5  1  0
  2  1  2  0
  3  6  2  0
  3  2  1  0
  4 10  1  0
  4  5  2  0
  6  4  1  0
  8  7  1  0
  8  3  1  0
 10 20  1  0
 10  9  1  0
 11 20  1  0
 12 17  1  0
 13 14  1  0
 13 12  1  0
 15 14  1  0
 15 24  1  0
 15 16  1  0
 17 11  1  0
 17 16  1  0
 18 11  2  0
 20 19  1  0
 21 22  2  0
 22 41  1  0
 23 22  1  0
 23 26  1  0
 24 21  1  0
 24 25  1  0
 25 23  2  0
 26 27  1  0
 27 28  2  0
 29 32  1  0
 29 28  1  0
 30 29  2  0
 31 30  1  0
 31 26  2  0
 32 33  1  0
 33 34  1  0
 34 35  2  0
 36 35  1  0
 36 40  1  0
 37 36  2  0
 38 33  2  0
 38 37  1  0
 39 38  1  0
 41 42  1  0
 42 45  1  0
 42 44  1  0
 43 41  2  0
 46 47  1  0
 46 21  1  0
 48 46  1  0
 49  2  1  0
 49 50  2  0
 51 50  1  0
 51 52  1  0
 53 64  2  0
 54 52  1  0
 54 59  1  0
 55 63  1  0
 55 65  1  0
 56 62  1  0
 56 58  1  0
 57 63  1  0
 58 59  2  0
 58 57  1  0
 60 54  2  0
 61 60  1  0
 61 56  2  0
 62 55  1  0
 63 53  1  0
 65 67  2  0
 66 65  1  0
 68 66  1  0
 69 78  2  0
 69 74  1  0
 70 66  1  0
 70 74  1  0
 71 70  1  0
 72 73  1  0
 72 71  1  0
 73 69  1  0
 74 75  2  0
 75 76  1  0
 77 76  2  0
 78 77  1  0
 79 53  1  0
 79 80  1  0
 79 89  1  0
 80 83  1  0
 81 85  1  0
 81 80  1  0
 82 81  2  0
 85 84  1  0
 87 85  1  0
 87 88  1  0
 87 86  1  0
 89 92  1  1
 89 90  1  0
 91 89  1  0
M  ISO  4  11 100  20 100  51 101  52 101
M  END
>  <TORSDO>  (50) 
F 21

>  <SCORE>  (50) 
-13.214

>  <name>  (50) 
53

>  <ligand_id>  (50) 
53

>  <original_smiles>  (50) 
[H]c1nc(C([H])(N(C(=O)N2C([H])([H])C([H])([H])C([H])([H])C([H])(n3nc(-c4c([H])c([H])c(Oc5c([H])c([H])c(F)c([H])c5F)c([H])c4[H])c(C(=O)N([H])[H])c3N([H])[H])C2([H])[H])C([H])([H])[H])C([H])([H])[H])nc(C([H])([H])C([H])([H])[H])c1C([H])([H])C([H])([H])C([H])([H])Oc1c([H])c([H])c2c(c1[H])C([H])([H])N(C(=O)C([H])(N([H])C(=O)C([H])(N([H])C([H])([H])[H])C([H])([H])[H])C(C([H])([H])[H])(C([H])([H])[H])C([H])([H])[H])C([H])(C(=O)N([H])C1([H])c3c([H])c([H])c([H])c([H])c3C([H])([H])C([H])([H])C1([H])[H])C2([H])[H]

>  <smiles>  (50) 
[H]c1nc(C([H])(N(C(=O)N2C([H])([H])C([H])([H])C([H])([H])C([H])(n3nc(-c4c([H])c([H])c(Oc5c([H])c([H])c(F)c([H])c5F)c([H])c4[H])c(C(=O)N([H])[H])c3N([H])[H])C2([H])[H])C([H])([H])[H])C([H])([H])[H])nc(C([H])([H])C([H])([H])[H])c1C([H])([H])C([H])([H])C([H])([H])Oc1c([H])c([H])c2c(c1[H])C([H])([H])N(C(=O)C([H])(N([H])C(=O)C([H])(N([H])C([H])([H])[H])C([H])([H])[H])C(C([H])([H])[H])(C([H])([H])[H])C([H])([H])[H])C([H])(C(=O)N([H])C1([H])c3c([H])c([H])c([H])c([H])c3C([H])([H])C([H])([H])C1([H])[H])C2([H])[H]

$$$$
54:0:0
     RDKit          3D

 93101  0  0  1  0  0  0  0  0999 V2000
  -29.0070  -20.3590   20.4770 C   0  0  0  0  0  3  0  0  0  0  0  0
  -30.1240  -19.4950   20.6970 C   0  0  0  0  0  0  0  0  0  0  0  0
  -29.5340  -21.5440   20.0380 C   0  0  0  0  0  0  0  0  0  0  0  0
  -31.2510  -20.1660   20.4510 N   0  0  0  0  0  0  0  0  0  0  0  0
  -30.8880  -21.4530   20.0270 O   0  0  0  0  0  0  0  0  0  0  0  0
  -31.2160  -17.7610   22.1770 C   0  0  0  0  0  1  0  0  0  0  0  0
  -28.7920  -17.6780   21.8000 C   0  0  0  0  0  1  0  0  0  0  0  0
  -30.1350  -17.9940   21.0920 C   0  0  1  0  0  0  0  0  0  0  0  0
  -29.2730  -17.2190   18.7760 C   0  0  0  0  0  1  0  0  0  0  0  0
  -31.7030  -17.3110   19.1390 C   0  0  0  0  0  1  0  0  0  0  0  0
  -30.3580  -17.0040   19.8600 C   0  0  1  0  0  0  0  0  0  0  0  0
  -30.9320  -14.4700   19.9330 C   0  0  0  0  0  0  0  0  0  0  0  0
  -30.5040  -12.3340   18.8000 C   0  0  0  0  0  2  0  0  0  0  0  0
  -29.5220  -12.6060   17.6420 C   0  0  0  0  0  2  0  0  0  0  0  0
  -28.0650  -12.5020   18.1350 C   0  0  0  0  0  2  0  0  0  0  0  0
  -27.8090  -13.3130   19.4330 C   0  0  0  0  0  3  0  0  0  0  0  0
  -28.9120  -13.0560   20.4870 C   0  0  0  0  0  2  0  0  0  0  0  0
  -30.2160  -13.3160   19.8570 N   0  0  0  0  0  0  0  0  0  0  0  0
  -32.0810  -14.5480   19.4960 O   0  0  0  0  0  0  0  0  0  0  0  0
  -30.2170  -15.5690   20.2710 N   0  0  0  0  0  0  0  0  0  0  0  0
  -29.3200  -15.3430   20.6740 H   0  0  0  0  0  0  0  0  0  0  0  0
  -25.4530  -13.9530   20.2410 C   0  0  0  0  0  0  0  0  0  0  0  0
  -24.3900  -13.1980   20.6580 C   0  0  0  0  0  0  0  0  0  0  0  0
  -24.8320  -11.8410   20.6150 C   0  0  0  0  0  0  0  0  0  0  0  0
  -26.4750  -13.0570   19.9700 N   0  0  0  0  0  0  0  0  0  0  0  0
  -26.1080  -11.7820   20.2540 N   0  0  0  0  0  0  0  0  0  0  0  0
  -24.0960  -10.5890   20.8410 C   0  0  0  0  0  0  0  0  0  0  0  0
  -24.5110   -9.6540   21.8140 C   0  0  0  0  0  3  0  0  0  0  0  0
  -23.7770   -8.4670   22.0260 C   0  0  0  0  0  3  0  0  0  0  0  0
  -22.6130   -8.2070   21.2630 C   0  0  0  0  0  0  0  0  0  0  0  0
  -22.2170   -9.1320   20.2800 C   0  0  0  0  0  3  0  0  0  0  0  0
  -22.9510  -10.3100   20.0680 C   0  0  0  0  0  3  0  0  0  0  0  0
  -21.8500   -7.0710   21.3820 O   0  0  0  0  0  0  0  0  0  0  0  0
  -21.7200   -6.4150   22.5800 C   0  0  0  0  0  0  0  0  0  0  0  0
  -21.2070   -7.0550   23.7290 C   0  0  0  0  0  3  0  0  0  0  0  0
  -21.0250   -6.3250   24.9210 C   0  0  0  0  0  3  0  0  0  0  0  0
  -21.3450   -4.9550   24.9630 C   0  0  0  0  0  0  0  0  0  0  0  0
  -21.8490   -4.3140   23.8180 C   0  0  0  0  0  3  0  0  0  0  0  0
  -22.0340   -5.0420   22.6290 C   0  0  0  0  0  0  0  0  0  0  0  0
  -22.5020   -4.4140   21.5230 F   0  0  0  0  0  0  0  0  0  0  0  0
  -21.1630   -4.2500   26.1040 F   0  0  0  0  0  0  0  0  0  0  0  0
  -23.0120  -13.6970   20.9850 C   0  0  0  0  0  0  0  0  0  0  0  0
  -22.3160  -13.0230   21.8930 N   0  0  0  0  0  0  0  0  0  0  0  0
  -22.5640  -14.7210   20.4700 O   0  0  0  0  0  0  0  0  0  0  0  0
  -22.6930  -12.1970   22.3320 H   0  0  0  0  0  0  0  0  0  0  0  0
  -21.3920  -13.3390   22.1560 H   0  0  0  0  0  0  0  0  0  0  0  0
  -25.6290  -15.3200   20.0480 N   0  0  0  0  0  0  0  0  0  0  0  0
  -24.8690  -15.9800   20.1750 H   0  0  0  0  0  0  0  0  0  0  0  0
  -26.4590  -15.7440   19.6590 H   0  0  0  0  0  0  0  0  0  0  0  0
  -28.8970  -22.7840   19.4630 C   0  0  0  0  0  2  0  0  0  0  0  0
  -29.1880  -24.1610   20.1250 C   0  0  0  0  0  2  0  0  0  0  0  0
  -28.1430  -25.1990   19.6460 C   0  0  0  0  0  2  0  0  0  0  0  0
  -28.2970  -26.5740   20.0690 O   0  0  0  0  0  0  0  0  0  0  0  0
  -24.5970  -31.8200   23.2150 C   0  0  0  0  0  0  0  0  0  0  0  0
  -27.1510  -27.3630   20.0410 C   0  0  0  0  0  0  0  0  0  0  0  0
  -23.3600  -30.4510   21.5740 C   0  0  0  0  0  3  0  0  0  0  0  0
  -24.7780  -28.9290   20.1060 C   0  0  0  0  0  0  0  0  0  0  0  0
  -25.8930  -30.7760   21.3560 C   0  0  0  0  0  2  0  0  0  0  0  0
  -25.9540  -29.4130   20.6930 C   0  0  0  0  0  0  0  0  0  0  0  0
  -27.1400  -28.6380   20.6640 C   0  0  0  0  0  3  0  0  0  0  0  0
  -25.9550  -26.9250   19.4160 C   0  0  0  0  0  3  0  0  0  0  0  0
  -24.7750  -27.6830   19.4660 C   0  0  0  0  0  3  0  0  0  0  0  0
  -23.5460  -29.7980   20.1820 C   0  0  0  0  0  2  0  0  0  0  0  0
  -24.6370  -31.0290   22.1060 N   0  0  0  0  0  0  0  0  0  0  0  0
  -23.5240  -32.0950   23.7690 O   0  0  0  0  0  0  0  0  0  0  0  0
  -22.7120  -29.4180   22.5260 C   0  0  0  0  0  0  0  0  0  0  0  0
  -21.3900  -29.2240   22.3910 N   0  0  0  0  0  0  0  0  0  0  0  0
  -23.3970  -28.7970   23.3440 O   0  0  0  0  0  0  0  0  0  0  0  0
  -20.9000  -29.7770   21.7020 H   0  0  0  0  0  0  0  0  0  0  0  0
  -18.0270  -27.9860   22.8530 C   0  0  0  0  0  0  0  0  0  0  0  0
  -20.5770  -28.2790   23.1550 C   0  0  0  0  0  3  0  0  0  0  0  0
  -20.7060  -26.8470   22.5890 C   0  0  0  0  0  2  0  0  0  0  0  0
  -19.6210  -26.5040   21.5620 C   0  0  0  0  0  2  0  0  0  0  0  0
  -18.2290  -26.6350   22.1880 C   0  0  0  0  0  2  0  0  0  0  0  0
  -19.1290  -28.7640   23.2930 C   0  0  0  0  0  0  0  0  0  0  0  0
  -18.8850  -30.0290   23.8720 C   0  0  0  0  0  3  0  0  0  0  0  0
  -17.5720  -30.5150   24.0160 C   0  0  0  0  0  3  0  0  0  0  0  0
  -16.4850  -29.7320   23.5920 C   0  0  0  0  0  3  0  0  0  0  0  0
  -16.7120  -28.4710   23.0160 C   0  0  0  0  0  3  0  0  0  0  0  0
  -25.8960  -32.4320   23.8250 C   0  0  0  0  0  3  0  0  0  0  0  0
  -25.5960  -33.8220   24.1960 N   0  0  0  0  0  0  0  0  0  0  0  0
  -25.9050  -34.8900   23.4500 C   0  0  0  0  0  0  0  0  0  0  0  0
  -26.5460  -34.8100   22.3970 O   0  0  0  0  0  0  0  0  0  0  0  0
  -25.0220  -33.9560   25.0150 H   0  0  0  0  0  0  0  0  0  0  0  0
  -24.1610  -36.6820   23.1860 C   0  0  0  0  0  1  0  0  0  0  0  0
  -25.4280  -36.2670   23.9500 C   0  0  0  0  0  3  0  0  0  0  0  0
  -27.5830  -37.1420   24.7350 C   0  0  0  0  0  1  0  0  0  0  0  0
  -26.4540  -37.3250   23.8260 N   0  0  0  0  0  0  0  0  0  0  0  0
  -26.0510  -38.2410   24.0020 H   0  0  0  0  0  0  0  0  0  0  0  0
  -26.4370  -31.6260   25.0690 C   0  0  1  0  0  0  0  0  0  0  0  0
  -25.3630  -31.3540   26.1470 C   0  0  0  0  0  1  0  0  0  0  0  0
  -27.0180  -30.2620   24.6270 C   0  0  0  0  0  1  0  0  0  0  0  0
  -27.5950  -32.4070   25.7340 C   0  0  0  0  0  1  0  0  0  0  0  0
  1  2  1  0
  2  8  1  0
  3  1  2  0
  4  2  2  0
  5  3  1  0
  5  4  1  0
  8  7  1  1
  8  6  1  0
 11  9  1  6
 10 11  1  0
 11 20  1  0
 11  8  1  0
 12 20  1  0
 13 18  1  0
 14 15  1  0
 14 13  1  0
 16 15  1  0
 16 25  1  0
 16 17  1  0
 18 12  1  0
 18 17  1  0
 19 12  2  0
 20 21  1  0
 22 23  2  0
 23 42  1  0
 24 23  1  0
 24 27  1  0
 25 22  1  0
 25 26  1  0
 26 24  2  0
 27 28  1  0
 28 29  2  0
 30 33  1  0
 30 29  1  0
 31 30  2  0
 32 31  1  0
 32 27  2  0
 33 34  1  0
 34 39  2  0
 34 35  1  0
 35 36  2  0
 36 37  1  0
 37 41  1  0
 38 37  2  0
 39 38  1  0
 40 39  1  0
 42 43  1  0
 43 46  1  0
 43 45  1  0
 44 42  2  0
 47 48  1  0
 47 22  1  0
 49 47  1  0
 50  3  1  0
 50 51  1  0
 52 53  1  0
 52 51  1  0
 54 65  2  0
 55 53  1  0
 55 60  1  0
 56 64  1  0
 56 66  1  0
 57 63  1  0
 57 59  1  0
 58 64  1  0
 59 58  1  0
 60 59  2  0
 61 62  1  0
 61 55  2  0
 62 57  2  0
 63 56  1  0
 64 54  1  0
 66 68  2  0
 67 66  1  0
 69 67  1  0
 70 79  2  0
 70 75  1  0
 71 67  1  0
 71 75  1  0
 72 71  1  0
 73 74  1  0
 73 72  1  0
 74 70  1  0
 75 76  2  0
 76 77  1  0
 78 77  2  0
 79 78  1  0
 80 54  1  0
 80 81  1  0
 80 90  1  0
 81 84  1  0
 82 86  1  0
 82 81  1  0
 83 82  2  0
 86 85  1  0
 88 86  1  0
 88 89  1  0
 88 87  1  0
 90 93  1  1
 90 91  1  0
 92 90  1  0
M  ISO  4  12 100  20 100  52 101  53 101
M  END
>  <TORSDO>  (51) 
F 21

>  <SCORE>  (51) 
-11.815

>  <name>  (51) 
54

>  <ligand_id>  (51) 
54

>  <original_smiles>  (51) 
[H]c1c(C(C([H])([H])[H])(C([H])([H])[H])C(N([H])C(=O)N2C([H])([H])C([H])([H])C([H])([H])C([H])(n3nc(-c4c([H])c([H])c(Oc5c([H])c([H])c(F)c([H])c5F)c([H])c4[H])c(C(=O)N([H])[H])c3N([H])[H])C2([H])[H])(C([H])([H])[H])C([H])([H])[H])noc1C([H])([H])C([H])([H])C([H])([H])Oc1c([H])c([H])c2c(c1[H])C([H])([H])N(C(=O)C([H])(N([H])C(=O)C([H])(N([H])C([H])([H])[H])C([H])([H])[H])C(C([H])([H])[H])(C([H])([H])[H])C([H])([H])[H])C([H])(C(=O)N([H])C1([H])c3c([H])c([H])c([H])c([H])c3C([H])([H])C([H])([H])C1([H])[H])C2([H])[H]

>  <smiles>  (51) 
[H]c1c(C(C([H])([H])[H])(C([H])([H])[H])C(N([H])C(=O)N2C([H])([H])C([H])([H])C([H])([H])C([H])(n3nc(-c4c([H])c([H])c(Oc5c([H])c([H])c(F)c([H])c5F)c([H])c4[H])c(C(=O)N([H])[H])c3N([H])[H])C2([H])[H])(C([H])([H])[H])C([H])([H])[H])noc1C([H])([H])C([H])([H])C([H])([H])Oc1c([H])c([H])c2c(c1[H])C([H])([H])N(C(=O)C([H])(N([H])C(=O)C([H])(N([H])C([H])([H])[H])C([H])([H])[H])C(C([H])([H])[H])(C([H])([H])[H])C([H])([H])[H])C([H])(C(=O)N([H])C1([H])c3c([H])c([H])c([H])c([H])c3C([H])([H])C([H])([H])C1([H])[H])C2([H])[H]

$$$$
55:0:0
     RDKit          3D

 97105  0  0  1  0  0  0  0  0999 V2000
  -29.8050  -22.0260   20.6420 C   0  0  0  0  0  2  0  0  0  0  0  0
  -30.5290  -23.3220   20.6820 N   0  0  0  0  0  4  0  0  0  0  0  0
  -30.6760  -23.5990   19.7240 H   0  0  0  0  0  0  0  0  0  0  0  0
  -31.4420  -23.1950   21.0920 H   0  0  0  0  0  0  0  0  0  0  0  0
  -29.7850  -24.2780   22.8680 C   0  0  0  0  0  1  0  0  0  0  0  0
  -29.8090  -24.4430   21.3360 C   0  0  0  0  0  3  0  0  0  0  0  0
  -30.4080  -25.8070   20.9100 C   0  0  0  0  0  2  0  0  0  0  0  0
  -29.4160  -26.9790   21.0260 C   0  0  0  0  0  2  0  0  0  0  0  0
  -28.3420  -26.7110   20.1330 O   0  0  0  0  0  0  0  0  0  0  0  0
  -24.5500  -31.9280   23.2370 C   0  0  0  0  0  0  0  0  0  0  0  0
  -27.2090  -27.4870   20.2010 C   0  0  0  0  0  0  0  0  0  0  0  0
  -23.3420  -30.5120   21.6050 C   0  0  0  0  0  3  0  0  0  0  0  0
  -24.7980  -28.9590   20.2020 C   0  0  0  0  0  0  0  0  0  0  0  0
  -25.8630  -30.8770   21.4040 C   0  0  0  0  0  2  0  0  0  0  0  0
  -25.9510  -29.4990   20.7880 C   0  0  0  0  0  0  0  0  0  0  0  0
  -27.1580  -28.7710   20.7940 C   0  0  0  0  0  3  0  0  0  0  0  0
  -26.0420  -26.9550   19.6160 C   0  0  0  0  0  3  0  0  0  0  0  0
  -24.8350  -27.6800   19.6190 C   0  0  0  0  0  3  0  0  0  0  0  0
  -23.5520  -29.8140   20.2340 C   0  0  0  0  0  2  0  0  0  0  0  0
  -24.6030  -31.1200   22.1410 N   0  0  0  0  0  0  0  0  0  0  0  0
  -23.4710  -32.2070   23.7760 O   0  0  0  0  0  0  0  0  0  0  0  0
  -22.6890  -29.5020   22.5750 C   0  0  0  0  0  0  0  0  0  0  0  0
  -21.3640  -29.3280   22.4520 N   0  0  0  0  0  0  0  0  0  0  0  0
  -23.3710  -28.8780   23.3910 O   0  0  0  0  0  0  0  0  0  0  0  0
  -20.8750  -29.8830   21.7630 H   0  0  0  0  0  0  0  0  0  0  0  0
  -17.9810  -28.1690   22.9680 C   0  0  0  0  0  0  0  0  0  0  0  0
  -20.5420  -28.4020   23.2320 C   0  0  0  0  0  3  0  0  0  0  0  0
  -20.6290  -26.9670   22.6610 C   0  0  0  0  0  2  0  0  0  0  0  0
  -19.5210  -26.6510   21.6520 C   0  0  0  0  0  2  0  0  0  0  0  0
  -18.1430  -26.8140   22.2990 C   0  0  0  0  0  2  0  0  0  0  0  0
  -19.1090  -28.9220   23.3900 C   0  0  0  0  0  0  0  0  0  0  0  0
  -18.9050  -30.1910   23.9740 C   0  0  0  0  0  3  0  0  0  0  0  0
  -17.6070  -30.7080   24.1390 C   0  0  0  0  0  3  0  0  0  0  0  0
  -16.4930  -29.9520   23.7330 C   0  0  0  0  0  3  0  0  0  0  0  0
  -16.6810  -28.6840   23.1530 C   0  0  0  0  0  3  0  0  0  0  0  0
  -25.8400  -32.5590   23.8510 C   0  0  0  0  0  3  0  0  0  0  0  0
  -25.5350  -33.9580   24.1770 N   0  0  0  0  0  0  0  0  0  0  0  0
  -25.8740  -35.0060   23.4140 C   0  0  0  0  0  0  0  0  0  0  0  0
  -26.5480  -34.8970   22.3860 O   0  0  0  0  0  0  0  0  0  0  0  0
  -24.9370  -34.1170   24.9750 H   0  0  0  0  0  0  0  0  0  0  0  0
  -24.1530  -36.8010   23.0410 C   0  0  0  0  0  1  0  0  0  0  0  0
  -25.3870  -36.3960   23.8630 C   0  0  0  0  0  3  0  0  0  0  0  0
  -27.5220  -37.2750   24.7010 C   0  0  0  0  0  1  0  0  0  0  0  0
  -26.4230  -37.4460   23.7530 N   0  0  0  0  0  0  0  0  0  0  0  0
  -26.0200  -38.3670   23.8990 H   0  0  0  0  0  0  0  0  0  0  0  0
  -26.3650  -31.7880   25.1240 C   0  0  1  0  0  0  0  0  0  0  0  0
  -25.2780  -31.5510   26.1990 C   0  0  0  0  0  1  0  0  0  0  0  0
  -26.9450  -30.4100   24.7270 C   0  0  0  0  0  1  0  0  0  0  0  0
  -27.5200  -32.5830   25.7790 C   0  0  0  0  0  1  0  0  0  0  0  0
  -29.9810  -21.3420   19.2680 C   0  0  0  0  0  2  0  0  0  0  0  0
  -27.6000  -20.5240   19.0590 C   0  0  0  0  0  1  0  0  0  0  0  0
  -29.3680  -19.6860   17.4930 C   0  0  0  0  0  1  0  0  0  0  0  0
  -29.0890  -20.0990   18.9540 C   0  0  1  0  0  0  0  0  0  0  0  0
  -28.7840  -16.7500   20.4280 C   0  0  0  0  0  3  0  0  0  0  0  0
  -30.1150  -16.4920   20.8150 C   0  0  0  0  0  0  0  0  0  0  0  0
  -29.3800  -18.8830   19.8590 C   0  0  0  0  0  0  0  0  0  0  0  0
  -28.4220  -17.9500   19.9300 N   0  0  0  0  0  0  0  0  0  0  0  0
  -31.0160  -17.5100   20.7610 N   0  0  0  0  0  0  0  0  0  0  0  0
  -30.6550  -18.6980   20.2540 N   0  0  0  0  0  0  0  0  0  0  0  0
  -30.7830  -14.3600   20.1160 C   0  0  0  0  0  0  0  0  0  0  0  0
  -30.2380  -12.3430   18.8020 C   0  0  0  0  0  2  0  0  0  0  0  0
  -29.2200  -12.6370   17.6870 C   0  0  0  0  0  2  0  0  0  0  0  0
  -27.7840  -12.4890   18.2220 C   0  0  0  0  0  2  0  0  0  0  0  0
  -27.5610  -13.2810   19.5350 C   0  0  0  0  0  3  0  0  0  0  0  0
  -28.6880  -13.0050   20.5590 C   0  0  0  0  0  2  0  0  0  0  0  0
  -29.9860  -13.2740   19.9150 N   0  0  0  0  0  0  0  0  0  0  0  0
  -31.7760  -14.5910   19.4200 O   0  0  0  0  0  0  0  0  0  0  0  0
  -31.3050  -14.9980   22.3540 C   0  0  0  0  0  1  0  0  0  0  0  0
  -30.4800  -15.1640   21.1560 N   0  0  0  0  0  0  0  0  0  0  0  0
  -25.2250  -13.9090   20.4190 C   0  0  0  0  0  0  0  0  0  0  0  0
  -24.1770  -13.1430   20.8530 C   0  0  0  0  0  0  0  0  0  0  0  0
  -24.6160  -11.7860   20.7640 C   0  0  0  0  0  0  0  0  0  0  0  0
  -26.2400  -13.0190   20.1000 N   0  0  0  0  0  0  0  0  0  0  0  0
  -25.8810  -11.7380   20.3660 N   0  0  0  0  0  0  0  0  0  0  0  0
  -23.8870  -10.5300   20.9780 C   0  0  0  0  0  0  0  0  0  0  0  0
  -24.3600   -9.5470   21.8750 C   0  0  0  0  0  3  0  0  0  0  0  0
  -23.6320   -8.3560   22.0780 C   0  0  0  0  0  3  0  0  0  0  0  0
  -22.4180   -8.1380   21.3850 C   0  0  0  0  0  0  0  0  0  0  0  0
  -21.9640   -9.1090   20.4760 C   0  0  0  0  0  3  0  0  0  0  0  0
  -22.6920  -10.2940   20.2710 C   0  0  0  0  0  3  0  0  0  0  0  0
  -21.6580   -7.0000   21.5000 O   0  0  0  0  0  0  0  0  0  0  0  0
  -21.6530   -6.2500   22.6490 C   0  0  0  0  0  0  0  0  0  0  0  0
  -21.3090   -6.8070   23.9010 C   0  0  0  0  0  3  0  0  0  0  0  0
  -21.2500   -5.9860   25.0440 C   0  0  0  0  0  3  0  0  0  0  0  0
  -21.5240   -4.6090   24.9380 C   0  0  0  0  0  0  0  0  0  0  0  0
  -21.8600   -4.0520   23.6920 C   0  0  0  0  0  3  0  0  0  0  0  0
  -21.9210   -4.8710   22.5510 C   0  0  0  0  0  0  0  0  0  0  0  0
  -22.2260   -4.3250   21.3490 F   0  0  0  0  0  0  0  0  0  0  0  0
  -21.4590   -3.8180   26.0350 F   0  0  0  0  0  0  0  0  0  0  0  0
  -22.8090  -13.6330   21.2290 C   0  0  0  0  0  0  0  0  0  0  0  0
  -22.1370  -12.9360   22.1390 N   0  0  0  0  0  0  0  0  0  0  0  0
  -22.3450  -14.6680   20.7520 O   0  0  0  0  0  0  0  0  0  0  0  0
  -22.5240  -12.0980   22.5470 H   0  0  0  0  0  0  0  0  0  0  0  0
  -21.2200  -13.2440   22.4330 H   0  0  0  0  0  0  0  0  0  0  0  0
  -25.3850  -15.2800   20.2450 N   0  0  0  0  0  0  0  0  0  0  0  0
  -24.6050  -15.9130   20.3890 H   0  0  0  0  0  0  0  0  0  0  0  0
  -26.1360  -15.7060   19.7200 H   0  0  0  0  0  0  0  0  0  0  0  0
  1  2  1  0
  2  4  1  0
  2  6  1  0
  3  2  1  0
  6  5  1  0
  7  8  1  0
  7  6  1  0
  9 11  1  0
  9  8  1  0
 10 21  2  0
 11 16  1  0
 12 20  1  0
 12 22  1  0
 13 19  1  0
 13 15  1  0
 14 20  1  0
 15 16  2  0
 15 14  1  0
 17 18  1  0
 17 11  2  0
 18 13  2  0
 19 12  1  0
 20 10  1  0
 22 24  2  0
 23 22  1  0
 25 23  1  0
 26 35  2  0
 26 31  1  0
 27 23  1  0
 27 31  1  0
 28 27  1  0
 29 30  1  0
 29 28  1  0
 30 26  1  0
 31 32  2  0
 32 33  1  0
 34 33  2  0
 35 34  1  0
 36 10  1  0
 36 37  1  0
 36 46  1  0
 37 40  1  0
 38 42  1  0
 38 37  1  0
 39 38  2  0
 42 41  1  0
 44 42  1  0
 44 45  1  0
 44 43  1  0
 46 49  1  1
 46 47  1  0
 48 46  1  0
 50  1  1  0
 53 52  1  6
 53 51  1  0
 53 50  1  0
 53 56  1  0
 54 55  2  0
 55 69  1  0
 56 57  2  0
 56 59  1  0
 57 54  1  0
 58 55  1  0
 59 58  2  0
 60 69  1  0
 61 66  1  0
 62 63  1  0
 62 61  1  0
 64 63  1  0
 64 73  1  0
 64 65  1  0
 66 60  1  0
 66 65  1  0
 67 60  2  0
 69 68  1  0
 70 71  2  0
 71 90  1  0
 72 71  1  0
 72 75  1  0
 73 74  1  0
 73 70  1  0
 74 72  2  0
 75 76  1  0
 76 77  2  0
 78 81  1  0
 78 77  1  0
 79 78  2  0
 80 79  1  0
 80 75  2  0
 81 82  1  0
 82 83  1  0
 83 84  2  0
 85 84  1  0
 85 89  1  0
 86 85  2  0
 87 82  2  0
 87 86  1  0
 88 87  1  0
 90 91  1  0
 91 94  1  0
 91 93  1  0
 92 90  2  0
 95 96  1  0
 95 70  1  0
 97 95  1  0
M  ISO  4   8 101   9 101  60 100  69 100
M  END
>  <TORSDO>  (52) 
F 23

>  <SCORE>  (52) 
-12.297

>  <name>  (52) 
55

>  <ligand_id>  (52) 
55

>  <original_smiles>  (52) 
[H]c1nc(C(C([H])([H])[H])(C([H])([H])[H])C([H])([H])C([H])([H])[N+]([H])([H])C([H])(C([H])([H])[H])C([H])([H])C([H])([H])Oc2c([H])c([H])c3c(c2[H])C([H])([H])N(C(=O)C([H])(N([H])C(=O)C([H])(N([H])C([H])([H])[H])C([H])([H])[H])C(C([H])([H])[H])(C([H])([H])[H])C([H])([H])[H])C([H])(C(=O)N([H])C2([H])c4c([H])c([H])c([H])c([H])c4C([H])([H])C([H])([H])C2([H])[H])C3([H])[H])nnc1N(C(=O)N1C([H])([H])C([H])([H])C([H])([H])C([H])(n2nc(-c3c([H])c([H])c(Oc4c([H])c([H])c(F)c([H])c4F)c([H])c3[H])c(C(=O)N([H])[H])c2N([H])[H])C1([H])[H])C([H])([H])[H]

>  <smiles>  (52) 
[H]c1nc(C(C([H])([H])[H])(C([H])([H])[H])C([H])([H])C([H])([H])[N+]([H])([H])C([H])(C([H])([H])[H])C([H])([H])C([H])([H])Oc2c([H])c([H])c3c(c2[H])C([H])([H])N(C(=O)C([H])(N([H])C(=O)C([H])(N([H])C([H])([H])[H])C([H])([H])[H])C(C([H])([H])[H])(C([H])([H])[H])C([H])([H])[H])C([H])(C(=O)N([H])C2([H])c4c([H])c([H])c([H])c([H])c4C([H])([H])C([H])([H])C2([H])[H])C3([H])[H])nnc1N(C(=O)N1C([H])([H])C([H])([H])C([H])([H])C([H])(n2nc(-c3c([H])c([H])c(Oc4c([H])c([H])c(F)c([H])c4F)c([H])c3[H])c(C(=O)N([H])[H])c2N([H])[H])C1([H])[H])C([H])([H])[H]

$$$$
56:0:0
     RDKit          3D

 99107  0  0  1  0  0  0  0  0999 V2000
  -29.6520  -23.3310   23.0550 C   0  0  0  0  0  3  0  0  0  0  0  0
  -28.9210  -23.6850   21.9510 C   0  0  0  0  0  0  0  0  0  0  0  0
  -29.5190  -21.5110   21.7960 C   0  0  0  0  0  3  0  0  0  0  0  0
  -29.9940  -22.0020   22.9700 N   0  0  0  0  0  0  0  0  0  0  0  0
  -28.8940  -22.5390   21.1820 N   0  0  0  0  0  0  0  0  0  0  0  0
  -28.4160  -22.4530   20.2930 H   0  0  0  0  0  0  0  0  0  0  0  0
  -31.2390  -22.2010   25.1510 C   0  0  0  0  0  1  0  0  0  0  0  0
  -31.8580  -20.4010   23.5930 C   0  0  0  0  0  1  0  0  0  0  0  0
  -29.6260  -20.3490   24.8010 C   0  0  0  0  0  1  0  0  0  0  0  0
  -30.6610  -21.2400   24.0820 C   0  0  2  0  0  0  0  0  0  0  0  0
  -28.6010  -26.0190   22.7550 C   0  0  0  0  0  1  0  0  0  0  0  0
  -26.6770  -24.7040   21.8460 C   0  0  0  0  0  1  0  0  0  0  0  0
  -28.1800  -24.9930   21.6750 C   0  0  2  0  0  0  0  0  0  0  0  0
  -28.4860  -25.5710   20.2490 C   0  0  0  0  0  2  0  0  0  0  0  0
  -28.4750  -27.0130   20.1310 O   0  0  0  0  0  0  0  0  0  0  0  0
  -24.5840  -32.0090   23.3330 C   0  0  0  0  0  0  0  0  0  0  0  0
  -27.2790  -27.6990   20.1180 C   0  0  0  0  0  0  0  0  0  0  0  0
  -23.3880  -30.6320   21.6590 C   0  0  0  0  0  3  0  0  0  0  0  0
  -24.8560  -29.1610   20.1780 C   0  0  0  0  0  0  0  0  0  0  0  0
  -25.9040  -31.0440   21.4480 C   0  0  0  0  0  2  0  0  0  0  0  0
  -26.0080  -29.6950   20.7670 C   0  0  0  0  0  0  0  0  0  0  0  0
  -27.2220  -28.9740   20.7250 C   0  0  0  0  0  3  0  0  0  0  0  0
  -26.1140  -27.1810   19.5110 C   0  0  0  0  0  3  0  0  0  0  0  0
  -24.9040  -27.9050   19.5430 C   0  0  0  0  0  3  0  0  0  0  0  0
  -23.5970  -29.9940   20.2590 C   0  0  0  0  0  2  0  0  0  0  0  0
  -24.6440  -31.2420   22.2060 N   0  0  0  0  0  0  0  0  0  0  0  0
  -23.5040  -32.2460   23.8890 O   0  0  0  0  0  0  0  0  0  0  0  0
  -22.7640  -29.5740   22.5960 C   0  0  0  0  0  0  0  0  0  0  0  0
  -21.4510  -29.3390   22.4410 N   0  0  0  0  0  0  0  0  0  0  0  0
  -23.4580  -28.9670   23.4160 O   0  0  0  0  0  0  0  0  0  0  0  0
  -20.9510  -29.8830   21.7520 H   0  0  0  0  0  0  0  0  0  0  0  0
  -18.1340  -27.9590   22.8120 C   0  0  0  0  0  0  0  0  0  0  0  0
  -20.6600  -28.3590   23.1840 C   0  0  0  0  0  3  0  0  0  0  0  0
  -20.8650  -26.9350   22.6170 C   0  0  0  0  0  2  0  0  0  0  0  0
  -19.8240  -26.5500   21.5620 C   0  0  0  0  0  2  0  0  0  0  0  0
  -18.4110  -26.6190   22.1510 C   0  0  0  0  0  2  0  0  0  0  0  0
  -19.1900  -28.7830   23.2830 C   0  0  0  0  0  0  0  0  0  0  0  0
  -18.8800  -30.0330   23.8590 C   0  0  0  0  0  3  0  0  0  0  0  0
  -17.5440  -30.4620   23.9710 C   0  0  0  0  0  3  0  0  0  0  0  0
  -16.5010  -29.6360   23.5190 C   0  0  0  0  0  3  0  0  0  0  0  0
  -16.7960  -28.3870   22.9440 C   0  0  0  0  0  3  0  0  0  0  0  0
  -25.8650  -32.6430   23.9600 C   0  0  0  0  0  3  0  0  0  0  0  0
  -25.5610  -34.0480   24.2620 N   0  0  0  0  0  0  0  0  0  0  0  0
  -25.9090  -35.0850   23.4890 C   0  0  0  0  0  0  0  0  0  0  0  0
  -26.5910  -34.9590   22.4680 O   0  0  0  0  0  0  0  0  0  0  0  0
  -24.9580  -34.2190   25.0530 H   0  0  0  0  0  0  0  0  0  0  0  0
  -24.1900  -36.8750   23.0820 C   0  0  0  0  0  1  0  0  0  0  0  0
  -25.4210  -36.4820   23.9140 C   0  0  0  0  0  3  0  0  0  0  0  0
  -27.5530  -37.3730   24.7460 C   0  0  0  0  0  1  0  0  0  0  0  0
  -26.4590  -37.5300   23.7920 N   0  0  0  0  0  0  0  0  0  0  0  0
  -26.0560  -38.4540   23.9220 H   0  0  0  0  0  0  0  0  0  0  0  0
  -26.3640  -31.8890   25.2530 C   0  0  1  0  0  0  0  0  0  0  0  0
  -25.2520  -31.6510   26.3010 C   0  0  0  0  0  1  0  0  0  0  0  0
  -26.9670  -30.5130   24.8830 C   0  0  0  0  0  1  0  0  0  0  0  0
  -27.4930  -32.7000   25.9320 C   0  0  0  0  0  1  0  0  0  0  0  0
  -29.5790  -20.0900   21.2500 C   0  0  0  0  0  2  0  0  0  0  0  0
  -30.8110  -19.7540   20.3710 C   0  0  0  0  0  2  0  0  0  0  0  0
  -31.4500  -18.3430   20.5910 C   0  0  0  0  0  3  0  0  0  0  0  0
  -33.1320  -18.6610   18.6400 C   0  0  0  0  0  1  0  0  0  0  0  0
  -32.9240  -18.3380   20.1280 C   0  0  0  0  0  2  0  0  0  0  0  0
  -30.6230  -17.1440   20.0310 C   0  0  0  0  0  2  0  0  0  0  0  0
  -31.4630  -14.7900   19.9390 C   0  0  0  0  0  0  0  0  0  0  0  0
  -31.0820  -12.5430   18.9710 C   0  0  0  0  0  2  0  0  0  0  0  0
  -30.1250  -12.6330   17.7650 C   0  0  0  0  0  2  0  0  0  0  0  0
  -28.6560  -12.5610   18.2250 C   0  0  0  0  0  2  0  0  0  0  0  0
  -28.3550  -13.5420   19.3880 C   0  0  0  0  0  3  0  0  0  0  0  0
  -29.4120  -13.4080   20.5010 C   0  0  0  0  0  2  0  0  0  0  0  0
  -30.7460  -13.6290   19.9100 N   0  0  0  0  0  0  0  0  0  0  0  0
  -32.4800  -14.9460   19.2560 O   0  0  0  0  0  0  0  0  0  0  0  0
  -30.9280  -15.7930   22.1070 C   0  0  0  0  0  1  0  0  0  0  0  0
  -30.9180  -15.8200   20.6380 N   0  0  0  0  0  0  0  0  0  0  0  0
  -26.0260  -14.3010   20.1850 C   0  0  0  0  0  0  0  0  0  0  0  0
  -24.9270  -13.5990   20.5990 C   0  0  0  0  0  0  0  0  0  0  0  0
  -25.3010  -12.2200   20.5560 C   0  0  0  0  0  0  0  0  0  0  0  0
  -27.0030  -13.3550   19.9140 N   0  0  0  0  0  0  0  0  0  0  0  0
  -26.5720  -12.0990   20.1940 N   0  0  0  0  0  0  0  0  0  0  0  0
  -24.5060  -11.0060   20.7800 C   0  0  0  0  0  0  0  0  0  0  0  0
  -24.8710  -10.0540   21.7570 C   0  0  0  0  0  3  0  0  0  0  0  0
  -24.0800   -8.9040   21.9670 C   0  0  0  0  0  3  0  0  0  0  0  0
  -22.9100   -8.6980   21.1980 C   0  0  0  0  0  0  0  0  0  0  0  0
  -22.5650   -9.6370   20.2110 C   0  0  0  0  0  3  0  0  0  0  0  0
  -23.3550  -10.7790   20.0000 C   0  0  0  0  0  3  0  0  0  0  0  0
  -22.0950   -7.5970   21.3130 O   0  0  0  0  0  0  0  0  0  0  0  0
  -21.9270   -6.9480   22.5100 C   0  0  0  0  0  0  0  0  0  0  0  0
  -21.4610   -7.6190   23.6610 C   0  0  0  0  0  3  0  0  0  0  0  0
  -21.2360   -6.8990   24.8530 C   0  0  0  0  0  3  0  0  0  0  0  0
  -21.4670   -5.5110   24.8910 C   0  0  0  0  0  0  0  0  0  0  0  0
  -21.9260   -4.8400   23.7440 C   0  0  0  0  0  3  0  0  0  0  0  0
  -22.1530   -5.5580   22.5560 C   0  0  0  0  0  0  0  0  0  0  0  0
  -22.5750   -4.9040   21.4470 F   0  0  0  0  0  0  0  0  0  0  0  0
  -21.2440   -4.8180   26.0320 F   0  0  0  0  0  0  0  0  0  0  0  0
  -23.5740  -14.1630   20.9250 C   0  0  0  0  0  0  0  0  0  0  0  0
  -22.8500  -13.5290   21.8400 N   0  0  0  0  0  0  0  0  0  0  0  0
  -23.1720  -15.2010   20.4030 O   0  0  0  0  0  0  0  0  0  0  0  0
  -23.1880  -12.6890   22.2850 H   0  0  0  0  0  0  0  0  0  0  0  0
  -21.9430  -13.8890   22.0990 H   0  0  0  0  0  0  0  0  0  0  0  0
  -26.2710  -15.6590   19.9980 N   0  0  0  0  0  0  0  0  0  0  0  0
  -25.5550  -16.3630   20.1400 H   0  0  0  0  0  0  0  0  0  0  0  0
  -27.1420  -16.0430   19.6530 H   0  0  0  0  0  0  0  0  0  0  0  0
  2  1  2  0
  3 56  1  0
  3  4  1  0
  4  1  1  0
  4 10  1  0
  5  3  1  0
  5  2  1  0
  6  5  1  0
 10  8  1  6
 10  9  1  0
 10  7  1  0
 13 12  1  6
 13  2  1  0
 13 11  1  0
 14 13  1  0
 15 14  1  0
 16 27  2  0
 17 15  1  0
 17 22  1  0
 18 26  1  0
 18 28  1  0
 19 25  1  0
 19 21  1  0
 20 26  1  0
 21 20  1  0
 22 21  2  0
 23 24  1  0
 23 17  2  0
 24 19  2  0
 25 18  1  0
 26 16  1  0
 28 30  2  0
 29 28  1  0
 31 29  1  0
 32 41  2  0
 32 37  1  0
 33 29  1  0
 33 37  1  0
 34 33  1  0
 35 36  1  0
 35 34  1  0
 36 32  1  0
 37 38  2  0
 38 39  1  0
 40 39  2  0
 41 40  1  0
 42 16  1  0
 42 43  1  0
 42 52  1  0
 43 46  1  0
 44 48  1  0
 44 43  1  0
 45 44  2  0
 48 47  1  0
 50 48  1  0
 50 51  1  0
 50 49  1  0
 52 55  1  1
 52 53  1  0
 54 52  1  0
 57 58  1  0
 57 56  1  0
 58 61  1  0
 59 60  1  0
 60 58  1  0
 61 71  1  0
 62 71  1  0
 63 68  1  0
 64 65  1  0
 64 63  1  0
 66 65  1  0
 66 75  1  0
 66 67  1  0
 68 62  1  0
 68 67  1  0
 69 62  2  0
 71 70  1  0
 72 73  2  0
 73 92  1  0
 74 73  1  0
 74 77  1  0
 75 72  1  0
 75 76  1  0
 76 74  2  0
 77 78  1  0
 78 79  2  0
 80 83  1  0
 80 79  1  0
 81 80  2  0
 82 81  1  0
 82 77  2  0
 83 84  1  0
 84 89  2  0
 84 85  1  0
 85 86  2  0
 86 87  1  0
 87 91  1  0
 88 87  2  0
 89 88  1  0
 90 89  1  0
 92 93  1  0
 93 96  1  0
 93 95  1  0
 94 92  2  0
 97 98  1  0
 97 72  1  0
 99 97  1  0
M  ISO  4  14 101  15 101  62 100  71 100
M  END
>  <TORSDO>  (53) 
F 24

>  <SCORE>  (53) 
-11.231

>  <name>  (53) 
56

>  <ligand_id>  (53) 
56

>  <original_smiles>  (53) 
[H]c1c([H])c([H])c2c(c1[H])C([H])([H])C([H])([H])C([H])([H])C2([H])N([H])C(=O)C1([H])N(C(=O)C([H])(N([H])C(=O)C([H])(N([H])C([H])([H])[H])C([H])([H])[H])C(C([H])([H])[H])(C([H])([H])[H])C([H])([H])[H])C([H])([H])c2c([H])c(OC([H])([H])C(c3c([H])n(C(C([H])([H])[H])(C([H])([H])[H])C([H])([H])[H])c(C([H])([H])C([H])([H])C([H])(C([H])([H])N(C(=O)N4C([H])([H])C([H])([H])C([H])([H])C([H])(n5nc(-c6c([H])c([H])c(Oc7c([H])c([H])c(F)c([H])c7F)c([H])c6[H])c(C(=O)N([H])[H])c5N([H])[H])C4([H])[H])C([H])([H])[H])C([H])([H])C([H])([H])[H])[n+]3[H])(C([H])([H])[H])C([H])([H])[H])c([H])c([H])c2C1([H])[H]

>  <smiles>  (53) 
[H]c1c([H])c([H])c2c(c1[H])C([H])([H])C([H])([H])C([H])([H])C2([H])N([H])C(=O)C1([H])N(C(=O)C([H])(N([H])C(=O)C([H])(N([H])C([H])([H])[H])C([H])([H])[H])C(C([H])([H])[H])(C([H])([H])[H])C([H])([H])[H])C([H])([H])c2c([H])c(OC([H])([H])C(c3c([H])n(C(C([H])([H])[H])(C([H])([H])[H])C([H])([H])[H])c(C([H])([H])C([H])([H])C([H])(C([H])([H])N(C(=O)N4C([H])([H])C([H])([H])C([H])([H])C([H])(n5nc(-c6c([H])c([H])c(Oc7c([H])c([H])c(F)c([H])c7F)c([H])c6[H])c(C(=O)N([H])[H])c5N([H])[H])C4([H])[H])C([H])([H])[H])C([H])([H])C([H])([H])[H])[n+]3[H])(C([H])([H])[H])C([H])([H])[H])c([H])c([H])c2C1([H])[H]

$$$$
57:0:0
     RDKit          3D

102110  0  0  1  0  0  0  0  0999 V2000
  -29.5280  -19.4370   19.1200 C   0  0  0  0  0  3  0  0  0  0  0  0
  -28.7830  -20.5760   18.9040 C   0  0  0  0  0  0  0  0  0  0  0  0
  -27.3750  -18.8830   19.2990 C   0  0  0  0  0  3  0  0  0  0  0  0
  -28.6460  -18.4100   19.4160 N   0  0  0  0  0  0  0  0  0  0  0  0
  -27.4990  -20.1830   19.1060 N   0  0  0  0  0  0  0  0  0  0  0  0
  -26.7070  -20.8070   19.0270 H   0  0  0  0  0  0  0  0  0  0  0  0
  -27.7760  -22.4180   17.6650 C   0  0  0  0  0  1  0  0  0  0  0  0
  -29.0130  -22.7630   19.8870 C   0  0  0  0  0  1  0  0  0  0  0  0
  -29.0010  -22.0260   18.5330 C   0  0  1  0  0  0  0  0  0  0  0  0
  -30.3310  -22.2030   17.7220 C   0  0  0  0  0  2  0  0  0  0  0  0
  -29.8380  -24.3110   16.1880 C   0  0  0  0  0  1  0  0  0  0  0  0
  -31.9250  -23.1310   16.0590 C   0  0  0  0  0  1  0  0  0  0  0  0
  -30.8470  -23.5680   17.0920 C   0  0  2  0  0  0  0  0  0  0  0  0
  -31.6200  -24.5570   18.0320 C   0  0  0  0  0  2  0  0  0  0  0  0
  -30.9920  -25.4040   19.1730 C   0  0  0  0  0  2  0  0  0  0  0  0
  -29.6220  -26.0830   18.9630 C   0  0  0  0  0  2  0  0  0  0  0  0
  -29.2220  -26.6870   20.1950 O   0  0  0  0  0  0  0  0  0  0  0  0
  -25.1430  -31.6130   23.3120 C   0  0  0  0  0  0  0  0  0  0  0  0
  -27.9870  -27.2930   20.2230 C   0  0  0  0  0  0  0  0  0  0  0  0
  -24.0000  -30.1560   21.6710 C   0  0  0  0  0  3  0  0  0  0  0  0
  -25.5140  -28.6580   20.2680 C   0  0  0  0  0  0  0  0  0  0  0  0
  -26.5070  -30.6030   21.4890 C   0  0  0  0  0  2  0  0  0  0  0  0
  -26.6410  -29.2320   20.8650 C   0  0  0  0  0  0  0  0  0  0  0  0
  -27.8740  -28.5450   20.8620 C   0  0  0  0  0  3  0  0  0  0  0  0
  -26.8330  -26.7140   19.6460 C   0  0  0  0  0  3  0  0  0  0  0  0
  -25.6000  -27.3930   19.6680 C   0  0  0  0  0  3  0  0  0  0  0  0
  -24.2370  -29.4650   20.2990 C   0  0  0  0  0  2  0  0  0  0  0  0
  -25.2340  -30.8080   22.2150 N   0  0  0  0  0  0  0  0  0  0  0  0
  -24.0490  -31.8520   23.8420 O   0  0  0  0  0  0  0  0  0  0  0  0
  -23.3800  -29.1190   22.6330 C   0  0  0  0  0  0  0  0  0  0  0  0
  -22.0870  -28.8260   22.4320 N   0  0  0  0  0  0  0  0  0  0  0  0
  -24.0600  -28.5760   23.5090 O   0  0  0  0  0  0  0  0  0  0  0  0
  -21.6040  -29.3110   21.6880 H   0  0  0  0  0  0  0  0  0  0  0  0
  -18.8180  -27.3310   22.7380 C   0  0  0  0  0  0  0  0  0  0  0  0
  -21.3050  -27.8510   23.1890 C   0  0  0  0  0  3  0  0  0  0  0  0
  -21.5930  -26.4120   22.7000 C   0  0  0  0  0  2  0  0  0  0  0  0
  -20.6100  -25.9270   21.6290 C   0  0  0  0  0  2  0  0  0  0  0  0
  -19.1820  -25.9650   22.1780 C   0  0  0  0  0  2  0  0  0  0  0  0
  -19.8180  -28.2220   23.2060 C   0  0  0  0  0  0  0  0  0  0  0  0
  -19.4360  -29.4870   23.7010 C   0  0  0  0  0  3  0  0  0  0  0  0
  -18.0800  -29.8610   23.7440 C   0  0  0  0  0  3  0  0  0  0  0  0
  -17.0930  -28.9680   23.2930 C   0  0  0  0  0  3  0  0  0  0  0  0
  -17.4590  -27.7050   22.7920 C   0  0  0  0  0  3  0  0  0  0  0  0
  -26.4030  -32.2910   23.9400 C   0  0  0  0  0  3  0  0  0  0  0  0
  -27.0300  -31.4640   25.1290 C   0  0  1  0  0  0  0  0  0  0  0  0
  -25.9940  -30.9910   26.1750 C   0  0  0  0  0  1  0  0  0  0  0  0
  -27.7610  -30.2120   24.5910 C   0  0  0  0  0  1  0  0  0  0  0  0
  -28.0940  -32.3170   25.8600 C   0  0  0  0  0  1  0  0  0  0  0  0
  -26.0070  -33.6330   24.3920 N   0  0  0  0  0  0  0  0  0  0  0  0
  -26.2360  -34.7630   23.7090 C   0  0  0  0  0  0  0  0  0  0  0  0
  -26.8740  -34.7910   22.6530 O   0  0  0  0  0  0  0  0  0  0  0  0
  -25.4370  -33.6800   25.2220 H   0  0  0  0  0  0  0  0  0  0  0  0
  -24.3630  -36.4310   23.5640 C   0  0  0  0  0  1  0  0  0  0  0  0
  -25.6670  -36.0710   24.2930 C   0  0  0  0  0  3  0  0  0  0  0  0
  -27.7650  -37.0530   25.1030 C   0  0  0  0  0  1  0  0  0  0  0  0
  -26.6120  -37.2060   24.2200 N   0  0  0  0  0  0  0  0  0  0  0  0
  -26.1480  -38.0790   24.4550 H   0  0  0  0  0  0  0  0  0  0  0  0
  -25.6230  -17.4060   20.3960 C   0  0  0  0  0  1  0  0  0  0  0  0
  -26.1200  -17.3930   17.8530 C   0  0  0  0  0  1  0  0  0  0  0  0
  -26.0070  -18.2310   19.1410 C   0  0  2  0  0  0  0  0  0  0  0  0
  -23.4550  -18.8660   18.5500 C   0  0  0  0  0  1  0  0  0  0  0  0
  -24.8960  -19.3160   18.8830 C   0  0  0  0  0  2  0  0  0  0  0  0
  -28.9970  -16.9940   19.7010 C   0  0  0  0  0  2  0  0  0  0  0  0
  -30.4940  -16.6920   19.9900 C   0  0  0  0  0  2  0  0  0  0  0  0
  -31.3510  -14.3880   20.3020 C   0  0  0  0  0  0  0  0  0  0  0  0
  -31.0390  -12.1310   19.3450 C   0  0  0  0  0  2  0  0  0  0  0  0
  -30.0790  -12.2090   18.1390 C   0  0  0  0  0  2  0  0  0  0  0  0
  -28.6050  -12.1460   18.5910 C   0  0  0  0  0  2  0  0  0  0  0  0
  -28.2990  -13.0980   19.7770 C   0  0  0  0  0  3  0  0  0  0  0  0
  -29.3590  -12.9520   20.8900 C   0  0  0  0  0  2  0  0  0  0  0  0
  -30.6750  -13.2070   20.2820 N   0  0  0  0  0  0  0  0  0  0  0  0
  -32.4420  -14.5370   19.7360 O   0  0  0  0  0  0  0  0  0  0  0  0
  -30.8260  -15.7380   22.2280 C   0  0  0  0  0  1  0  0  0  0  0  0
  -30.6700  -15.4540   20.7950 N   0  0  0  0  0  0  0  0  0  0  0  0
  -26.0080  -13.8440   20.6650 C   0  0  0  0  0  0  0  0  0  0  0  0
  -24.8910  -13.1640   21.0390 C   0  0  0  0  0  0  0  0  0  0  0  0
  -25.2090  -11.7840   20.8530 C   0  0  0  0  0  0  0  0  0  0  0  0
  -26.9460  -12.9030   20.2950 N   0  0  0  0  0  0  0  0  0  0  0  0
  -26.4710  -11.6450   20.4610 N   0  0  0  0  0  0  0  0  0  0  0  0
  -24.3700  -10.5890   20.9610 C   0  0  0  0  0  0  0  0  0  0  0  0
  -24.7120   -9.5290   21.8240 C   0  0  0  0  0  3  0  0  0  0  0  0
  -23.8850   -8.3920   21.9240 C   0  0  0  0  0  3  0  0  0  0  0  0
  -22.7000   -8.3080   21.1570 C   0  0  0  0  0  0  0  0  0  0  0  0
  -22.3660   -9.3660   20.2900 C   0  0  0  0  0  3  0  0  0  0  0  0
  -23.1980  -10.4930   20.1890 C   0  0  0  0  0  3  0  0  0  0  0  0
  -21.8470   -7.2350   21.1650 O   0  0  0  0  0  0  0  0  0  0  0  0
  -21.6760   -6.4650   22.2850 C   0  0  0  0  0  0  0  0  0  0  0  0
  -21.2290   -7.0130   23.5050 C   0  0  0  0  0  3  0  0  0  0  0  0
  -20.9960   -6.1700   24.6100 C   0  0  0  0  0  3  0  0  0  0  0  0
  -21.2090   -4.7830   24.4960 C   0  0  0  0  0  0  0  0  0  0  0  0
  -21.6520   -4.2360   23.2790 C   0  0  0  0  0  3  0  0  0  0  0  0
  -21.8790   -5.0740   22.1740 C   0  0  0  0  0  0  0  0  0  0  0  0
  -22.2820   -4.5400   20.9980 F   0  0  0  0  0  0  0  0  0  0  0  0
  -20.9760   -3.9740   25.5560 F   0  0  0  0  0  0  0  0  0  0  0  0
  -23.5630  -13.7480   21.4370 C   0  0  0  0  0  0  0  0  0  0  0  0
  -22.8150  -13.0530   22.2800 N   0  0  0  0  0  0  0  0  0  0  0  0
  -23.2080  -14.8580   21.0290 O   0  0  0  0  0  0  0  0  0  0  0  0
  -23.1300  -12.1570   22.6270 H   0  0  0  0  0  0  0  0  0  0  0  0
  -21.9120  -13.4070   22.5680 H   0  0  0  0  0  0  0  0  0  0  0  0
  -26.3010  -15.1830   20.5600 N   0  0  0  0  0  0  0  0  0  0  0  0
  -25.5350  -15.8400   20.6560 H   0  0  0  0  0  0  0  0  0  0  0  0
  -26.9450  -15.4460   19.8260 H   0  0  0  0  0  0  0  0  0  0  0  0
  1  4  1  0
  2  5  1  0
  2  1  2  0
  3 60  1  0
  3  4  1  0
  4 63  1  0
  5  3  1  0
  6  5  1  0
  9  7  1  6
  9  2  1  0
  9  8  1  0
 10  9  1  0
 13 11  1  6
 12 13  1  0
 13 10  1  0
 13 14  1  0
 14 15  1  0
 16 15  1  0
 16 17  1  0
 17 19  1  0
 18 29  2  0
 19 24  1  0
 20 28  1  0
 20 30  1  0
 21 27  1  0
 21 23  1  0
 22 28  1  0
 23 22  1  0
 24 23  2  0
 25 26  1  0
 25 19  2  0
 26 21  2  0
 27 20  1  0
 28 18  1  0
 30 32  2  0
 31 30  1  0
 33 31  1  0
 34 43  2  0
 34 39  1  0
 35 31  1  0
 35 39  1  0
 36 35  1  0
 37 38  1  0
 37 36  1  0
 38 34  1  0
 39 40  2  0
 40 41  1  0
 42 41  2  0
 43 42  1  0
 44 18  1  0
 44 49  1  0
 44 45  1  0
 45 48  1  1
 45 46  1  0
 47 45  1  0
 49 52  1  0
 50 54  1  0
 50 49  1  0
 51 50  2  0
 54 53  1  0
 56 54  1  0
 56 57  1  0
 56 55  1  0
 60 59  1  6
 60 58  1  0
 61 62  1  0
 62 60  1  0
 63 64  1  0
 64 74  1  0
 65 74  1  0
 66 71  1  0
 67 68  1  0
 67 66  1  0
 69 68  1  0
 69 78  1  0
 69 70  1  0
 71 65  1  0
 71 70  1  0
 72 65  2  0
 74 73  1  0
 75 76  2  0
 76 95  1  0
 77 80  1  0
 77 76  1  0
 78 79  1  0
 78 75  1  0
 79 77  2  0
 80 81  1  0
 81 82  2  0
 83 86  1  0
 83 82  1  0
 84 83  2  0
 85 84  1  0
 85 80  2  0
 86 87  1  0
 87 88  1  0
 88 89  2  0
 90 89  1  0
 90 94  1  0
 91 90  2  0
 92 87  2  0
 92 91  1  0
 93 92  1  0
 95 96  1  0
 96 99  1  0
 96 98  1  0
 97 95  2  0
100101  1  0
100 75  1  0
102100  1  0
M  ISO  4  16 101  17 101  65 100  74 100
M  END
>  <TORSDO>  (54) 
F 26

>  <SCORE>  (54) 
-3.994

>  <name>  (54) 
57

>  <ligand_id>  (54) 
57

>  <original_smiles>  (54) 
[H]c1c([H])c([H])c2c(c1[H])C([H])([H])C([H])([H])C([H])([H])C2([H])N([H])C(=O)C1([H])N(C(=O)C([H])(N([H])C(=O)C([H])(N([H])C([H])([H])[H])C([H])([H])[H])C(C([H])([H])[H])(C([H])([H])[H])C([H])([H])[H])C([H])([H])c2c([H])c(OC([H])([H])C([H])([H])C([H])([H])C(C([H])([H])[H])(C([H])([H])[H])C([H])([H])C(c3c([H])n(C([H])([H])C([H])([H])N(C(=O)N4C([H])([H])C([H])([H])C([H])([H])C([H])(n5nc(-c6c([H])c([H])c(Oc7c([H])c([H])c(F)c([H])c7F)c([H])c6[H])c(C(=O)N([H])[H])c5N([H])[H])C4([H])[H])C([H])([H])[H])c(C(C([H])([H])[H])(C([H])([H])[H])C([H])([H])C([H])([H])[H])[n+]3[H])(C([H])([H])[H])C([H])([H])[H])c([H])c([H])c2C1([H])[H]

>  <smiles>  (54) 
[H]c1c([H])c([H])c2c(c1[H])C([H])([H])C([H])([H])C([H])([H])C2([H])N([H])C(=O)C1([H])N(C(=O)C([H])(N([H])C(=O)C([H])(N([H])C([H])([H])[H])C([H])([H])[H])C(C([H])([H])[H])(C([H])([H])[H])C([H])([H])[H])C([H])([H])c2c([H])c(OC([H])([H])C([H])([H])C([H])([H])C(C([H])([H])[H])(C([H])([H])[H])C([H])([H])C(c3c([H])n(C([H])([H])C([H])([H])N(C(=O)N4C([H])([H])C([H])([H])C([H])([H])C([H])(n5nc(-c6c([H])c([H])c(Oc7c([H])c([H])c(F)c([H])c7F)c([H])c6[H])c(C(=O)N([H])[H])c5N([H])[H])C4([H])[H])C([H])([H])[H])c(C(C([H])([H])[H])(C([H])([H])[H])C([H])([H])C([H])([H])[H])[n+]3[H])(C([H])([H])[H])C([H])([H])[H])c([H])c([H])c2C1([H])[H]

$$$$
58:0:0
     RDKit          3D

110118  0  0  1  0  0  0  0  0999 V2000
  -28.0270  -15.7920   18.5100 C   0  0  0  0  0  2  0  0  0  0  0  0
  -27.0660  -16.7440   18.9160 C   0  0  0  0  0  0  0  0  0  0  0  0
  -29.2780  -16.3060   18.7670 C   0  0  0  0  0  3  0  0  0  0  0  0
  -27.6870  -17.8570   19.2410 N   0  0  0  0  0  2  0  0  0  0  0  0
  -29.0200  -17.6980   18.9720 N   0  0  0  0  0  0  0  0  0  0  0  0
  -31.2050  -18.6530   18.2380 C   0  0  0  0  0  1  0  0  0  0  0  0
  -29.8130  -18.9950   18.8180 C   0  0  2  0  0  0  0  0  0  0  0  0
  -28.5870  -20.1460   20.8030 C   0  0  0  0  0  1  0  0  0  0  0  0
  -30.8190  -19.2230   21.2130 C   0  0  0  0  0  1  0  0  0  0  0  0
  -29.9720  -19.9210   20.1380 C   0  0  1  0  0  0  0  0  0  0  0  0
  -30.6520  -21.3330   19.8070 C   0  0  0  0  0  2  0  0  0  0  0  0
  -30.6850  -22.4550   20.8880 C   0  0  0  0  0  2  0  0  0  0  0  0
  -31.1290  -23.8220   20.2840 C   0  0  0  0  0  2  0  0  0  0  0  0
  -31.1020  -25.0380   21.2440 C   0  0  0  0  0  2  0  0  0  0  0  0
  -31.1660  -26.3130   20.5590 O   0  0  0  0  0  0  0  0  0  0  0  0
  -26.3910  -30.4500   23.8320 C   0  0  0  0  0  0  0  0  0  0  0  0
  -29.9560  -26.9610   20.4580 C   0  0  0  0  0  0  0  0  0  0  0  0
  -25.5880  -29.2030   21.8580 C   0  0  0  0  0  3  0  0  0  0  0  0
  -27.3890  -28.1460   20.3920 C   0  0  0  0  0  0  0  0  0  0  0  0
  -28.0490  -29.9110   22.0350 C   0  0  0  0  0  2  0  0  0  0  0  0
  -28.3980  -28.6990   21.1920 C   0  0  0  0  0  0  0  0  0  0  0  0
  -29.6910  -28.1250   21.2180 C   0  0  0  0  0  3  0  0  0  0  0  0
  -28.9390  -26.4380   19.6310 C   0  0  0  0  0  3  0  0  0  0  0  0
  -27.6670  -27.0270   19.5920 C   0  0  0  0  0  3  0  0  0  0  0  0
  -26.0300  -28.8070   20.4240 C   0  0  0  0  0  2  0  0  0  0  0  0
  -26.6890  -29.8610   22.6360 N   0  0  0  0  0  0  0  0  0  0  0  0
  -25.2300  -30.4910   24.2630 O   0  0  0  0  0  0  0  0  0  0  0  0
  -25.0070  -27.9540   22.5560 C   0  0  0  0  0  0  0  0  0  0  0  0
  -23.7790  -27.5710   22.1700 N   0  0  0  0  0  0  0  0  0  0  0  0
  -25.6660  -27.3360   23.3950 O   0  0  0  0  0  0  0  0  0  0  0  0
  -23.3110  -28.1350   21.4750 H   0  0  0  0  0  0  0  0  0  0  0  0
  -20.6710  -25.7480   21.8680 C   0  0  0  0  0  0  0  0  0  0  0  0
  -23.0420  -26.4070   22.6620 C   0  0  0  0  0  3  0  0  0  0  0  0
  -23.5220  -25.1110   21.9690 C   0  0  0  0  0  2  0  0  0  0  0  0
  -22.6950  -24.7450   20.7310 C   0  0  0  0  0  2  0  0  0  0  0  0
  -21.2230  -24.5570   21.1040 C   0  0  0  0  0  2  0  0  0  0  0  0
  -21.5260  -26.6260   22.5860 C   0  0  0  0  0  0  0  0  0  0  0  0
  -20.9650  -27.7390   23.2500 C   0  0  0  0  0  3  0  0  0  0  0  0
  -19.5790  -27.9770   23.2090 C   0  0  0  0  0  3  0  0  0  0  0  0
  -18.7360  -27.0970   22.5090 C   0  0  0  0  0  3  0  0  0  0  0  0
  -19.2800  -25.9840   21.8460 C   0  0  0  0  0  3  0  0  0  0  0  0
  -27.4980  -31.1260   24.7000 C   0  0  0  0  0  3  0  0  0  0  0  0
  -26.9360  -32.3740   25.2380 N   0  0  0  0  0  0  0  0  0  0  0  0
  -27.1600  -33.5900   24.7240 C   0  0  0  0  0  0  0  0  0  0  0  0
  -27.9380  -33.7890   23.7860 O   0  0  0  0  0  0  0  0  0  0  0  0
  -26.2430  -32.2840   25.9680 H   0  0  0  0  0  0  0  0  0  0  0  0
  -25.1880  -35.1310   24.4950 C   0  0  0  0  0  1  0  0  0  0  0  0
  -26.4090  -34.7770   25.3560 C   0  0  0  0  0  3  0  0  0  0  0  0
  -28.2910  -35.8030   26.5540 C   0  0  0  0  0  1  0  0  0  0  0  0
  -27.2550  -35.9780   25.5390 N   0  0  0  0  0  0  0  0  0  0  0  0
  -26.6890  -36.7820   25.7970 H   0  0  0  0  0  0  0  0  0  0  0  0
  -28.0230  -30.2030   25.8660 C   0  0  1  0  0  0  0  0  0  0  0  0
  -26.8990  -29.6090   26.7480 C   0  0  0  0  0  1  0  0  0  0  0  0
  -28.8500  -29.0270   25.2970 C   0  0  0  0  0  1  0  0  0  0  0  0
  -28.9760  -31.0120   26.7810 C   0  0  0  0  0  1  0  0  0  0  0  0
  -29.0630  -19.3650   16.2490 C   0  0  0  0  0  1  0  0  0  0  0  0
  -29.0860  -19.8770   17.7130 C   0  0  0  0  0  2  0  0  0  0  0  0
  -25.5920  -16.4750   19.2230 C   0  0  0  0  0  3  0  0  0  0  0  0
  -24.6480  -17.5980   19.7590 C   0  0  2  0  0  0  0  0  0  0  0  0
  -23.1690  -17.1340   19.6500 C   0  0  2  0  0  0  0  0  0  0  0  0
  -23.0640  -15.9100   20.1550 F   0  0  0  0  0  0  0  0  0  0  0  0
  -22.7340  -17.1060   18.3900 F   0  0  0  0  0  0  0  0  0  0  0  0
  -22.3440  -17.9140   20.3520 F   0  0  0  0  0  0  0  0  0  0  0  0
  -24.8630  -18.9380   19.0080 C   0  0  2  0  0  0  0  0  0  0  0  0
  -24.6240  -18.7930   17.7020 F   0  0  0  0  0  0  0  0  0  0  0  0
  -26.1040  -19.4080   19.1490 F   0  0  0  0  0  0  0  0  0  0  0  0
  -24.0340  -19.8780   19.4620 F   0  0  0  0  0  0  0  0  0  0  0  0
  -24.8160  -17.7600   21.1750 O   0  0  0  0  0  0  0  0  0  0  0  0
  -24.3150  -17.0510   21.5710 H   0  0  0  0  0  0  0  0  0  0  0  0
  -30.5790  -15.4680   18.6480 C   0  0  0  0  0  2  0  0  0  0  0  0
  -31.5790  -13.2850   19.5840 C   0  0  0  0  0  0  0  0  0  0  0  0
  -30.8750  -11.3390   18.3210 C   0  0  0  0  0  2  0  0  0  0  0  0
  -29.7770  -11.8630   17.3790 C   0  0  0  0  0  2  0  0  0  0  0  0
  -28.3960  -11.8570   18.0740 C   0  0  0  0  0  2  0  0  0  0  0  0
  -28.4040  -12.4490   19.5190 C   0  0  0  0  0  3  0  0  0  0  0  0
  -29.5890  -11.8970   20.3210 C   0  0  0  0  0  2  0  0  0  0  0  0
  -30.8000  -12.1730   19.5350 N   0  0  0  0  0  0  0  0  0  0  0  0
  -32.7510  -13.2490   19.1930 O   0  0  0  0  0  0  0  0  0  0  0  0
  -30.9220  -14.4870   19.7690 N   0  0  0  0  0  0  0  0  0  0  0  0
  -26.2310  -13.2410   20.6700 C   0  0  0  0  0  0  0  0  0  0  0  0
  -25.1270  -12.5600   21.0800 C   0  0  0  0  0  0  0  0  0  0  0  0
  -25.4190  -11.1790   20.8770 C   0  0  0  0  0  0  0  0  0  0  0  0
  -27.1100  -12.2890   20.1760 N   0  0  0  0  0  0  0  0  0  0  0  0
  -26.6370  -11.0350   20.3840 N   0  0  0  0  0  0  0  0  0  0  0  0
  -24.5930   -9.9860   21.0770 C   0  0  0  0  0  0  0  0  0  0  0  0
  -24.9550   -8.9960   22.0160 C   0  0  0  0  0  3  0  0  0  0  0  0
  -24.1400   -7.8630   22.2120 C   0  0  0  0  0  3  0  0  0  0  0  0
  -22.9570   -7.6920   21.4520 C   0  0  0  0  0  0  0  0  0  0  0  0
  -22.6180   -8.6620   20.4910 C   0  0  0  0  0  3  0  0  0  0  0  0
  -23.4260   -9.7970   20.3110 C   0  0  0  0  0  3  0  0  0  0  0  0
  -22.1300   -6.6000   21.5440 O   0  0  0  0  0  0  0  0  0  0  0  0
  -21.8920   -5.9840   22.7470 C   0  0  0  0  0  0  0  0  0  0  0  0
  -21.2880   -6.6590   23.8310 C   0  0  0  0  0  3  0  0  0  0  0  0
  -21.0230   -5.9710   25.0300 C   0  0  0  0  0  3  0  0  0  0  0  0
  -21.3500   -4.6030   25.1510 C   0  0  0  0  0  0  0  0  0  0  0  0
  -21.9350   -3.9320   24.0610 C   0  0  0  0  0  3  0  0  0  0  0  0
  -22.2060   -4.6190   22.8710 C   0  0  0  0  0  0  0  0  0  0  0  0
  -22.7700   -3.9660   21.8230 F   0  0  0  0  0  0  0  0  0  0  0  0
  -21.0790   -3.9380   26.2960 F   0  0  0  0  0  0  0  0  0  0  0  0
  -23.8340  -13.1590   21.5470 C   0  0  0  0  0  0  0  0  0  0  0  0
  -22.9940  -12.3980   22.2300 N   0  0  0  0  0  0  0  0  0  0  0  0
  -23.5940  -14.3590   21.3630 O   0  0  0  0  0  0  0  0  0  0  0  0
  -23.1920  -11.4350   22.4540 H   0  0  0  0  0  0  0  0  0  0  0  0
  -22.1910  -12.8360   22.6600 H   0  0  0  0  0  0  0  0  0  0  0  0
  -26.5440  -14.5930   20.6830 N   0  0  0  0  0  0  0  0  0  0  0  0
  -25.9580  -15.2550   21.1710 H   0  0  0  0  0  0  0  0  0  0  0  0
  -27.1790  -15.0570   20.0530 H   0  0  0  0  0  0  0  0  0  0  0  0
  -31.1120  -14.4980   22.2940 C   0  0  0  0  0  1  0  0  0  0  0  0
  -32.5720  -16.0580   20.8550 C   0  0  0  0  0  1  0  0  0  0  0  0
  -31.2490  -15.2730   20.9750 C   0  0  0  0  0  3  0  0  0  0  0  0
  1  3  1  0
  1  2  1  0
  2 58  2  0
  2  4  1  0
  3 70  1  0
  3  5  1  0
  5  4  1  0
  7  6  1  6
  7  5  1  0
  7 10  1  0
 10  8  1  1
 10  9  1  0
 11 10  1  0
 11 12  1  0
 13 12  1  0
 13 14  1  0
 15 14  1  0
 16 27  2  0
 17 15  1  0
 17 22  1  0
 18 28  1  0
 18 26  1  0
 19 25  1  0
 19 21  1  0
 20 26  1  0
 21 22  2  0
 21 20  1  0
 23 17  2  0
 24 23  1  0
 24 19  2  0
 25 18  1  0
 26 16  1  0
 28 30  2  0
 29 28  1  0
 31 29  1  0
 32 37  1  0
 33 29  1  0
 34 33  1  0
 35 36  1  0
 35 34  1  0
 36 32  1  0
 37 33  1  0
 37 38  2  0
 39 38  1  0
 40 39  2  0
 41 32  2  0
 41 40  1  0
 42 16  1  0
 42 43  1  0
 42 52  1  0
 43 46  1  0
 44 43  1  0
 44 48  1  0
 45 44  2  0
 48 47  1  0
 48 50  1  0
 50 51  1  0
 50 49  1  0
 52 53  1  1
 52 55  1  0
 54 52  1  0
 56 57  1  0
 57  7  1  0
 58 59  1  0
 59 68  1  1
 60 59  1  0
 60 61  1  1
 60 63  1  0
 62 60  1  0
 64 66  1  6
 64 67  1  0
 64 59  1  0
 65 64  1  0
 68 69  1  0
 70 79  1  0
 71 79  1  0
 72 77  1  0
 73 74  1  0
 73 72  1  0
 75 74  1  0
 75 83  1  0
 75 76  1  0
 77 71  1  0
 77 76  1  0
 78 71  2  0
 79110  1  0
 80105  1  0
 80 81  2  0
 81100  1  0
 82 85  1  0
 82 81  1  0
 83 84  1  0
 83 80  1  0
 84 82  2  0
 85 86  1  0
 86 87  2  0
 88 91  1  0
 88 87  1  0
 89 88  2  0
 90 89  1  0
 90 85  2  0
 91 92  1  0
 92 97  2  0
 92 93  1  0
 93 94  2  0
 94 95  1  0
 95 99  1  0
 96 95  2  0
 97 96  1  0
 98 97  1  0
100101  1  0
101103  1  0
101104  1  0
102100  2  0
105106  1  0
107105  1  0
109110  1  0
110108  1  0
M  ISO  4  14 101  15 101  71 100  79 100
M  END
>  <TORSDO>  (55) 
F 30

>  <SCORE>  (55) 
3.252

>  <name>  (55) 
58

>  <ligand_id>  (55) 
58

>  <original_smiles>  (55) 
[H]OC(C(F)(F)F)(C(F)(F)F)C([H])([H])c1nn(C(C([H])([H])[H])(C([H])([H])C([H])([H])[H])C(C([H])([H])[H])(C([H])([H])[H])C([H])([H])C([H])([H])C([H])([H])C([H])([H])Oc2c([H])c([H])c3c(c2[H])C([H])([H])N(C(=O)C([H])(N([H])C(=O)C([H])(N([H])C([H])([H])[H])C([H])([H])[H])C(C([H])([H])[H])(C([H])([H])[H])C([H])([H])[H])C([H])(C(=O)N([H])C2([H])c4c([H])c([H])c([H])c([H])c4C([H])([H])C([H])([H])C2([H])[H])C3([H])[H])c(C([H])([H])N(C(=O)N2C([H])([H])C([H])([H])C([H])([H])C([H])(n3nc(-c4c([H])c([H])c(Oc5c([H])c([H])c(F)c([H])c5F)c([H])c4[H])c(C(=O)N([H])[H])c3N([H])[H])C2([H])[H])C([H])(C([H])([H])[H])C([H])([H])[H])c1[H]

>  <smiles>  (55) 
[H]OC(C(F)(F)F)(C(F)(F)F)C([H])([H])c1nn(C(C([H])([H])[H])(C([H])([H])C([H])([H])[H])C(C([H])([H])[H])(C([H])([H])[H])C([H])([H])C([H])([H])C([H])([H])C([H])([H])Oc2c([H])c([H])c3c(c2[H])C([H])([H])N(C(=O)C([H])(N([H])C(=O)C([H])(N([H])C([H])([H])[H])C([H])([H])[H])C(C([H])([H])[H])(C([H])([H])[H])C([H])([H])[H])C([H])(C(=O)N([H])C2([H])c4c([H])c([H])c([H])c([H])c4C([H])([H])C([H])([H])C2([H])[H])C3([H])[H])c(C([H])([H])N(C(=O)N2C([H])([H])C([H])([H])C([H])([H])C([H])(n3nc(-c4c([H])c([H])c(Oc5c([H])c([H])c(F)c([H])c5F)c([H])c4[H])c(C(=O)N([H])[H])c3N([H])[H])C2([H])[H])C([H])(C([H])([H])[H])C([H])([H])[H])c1[H]

$$$$
59:0:0
     RDKit          3D

 96104  0  0  1  0  0  0  0  0999 V2000
  -29.3650  -19.9870   19.0920 C   0  0  0  0  0  3  0  0  0  0  0  0
  -29.7510  -19.1730   20.2160 C   0  0  0  0  0  0  0  0  0  0  0  0
  -30.0200  -20.0640   21.3200 C   0  0  0  0  0  0  0  0  0  0  0  0
  -29.4460  -22.0880   20.1730 C   0  0  0  0  0  0  0  0  0  0  0  0
  -30.6130  -19.6120   22.6450 C   0  0  0  0  0  1  0  0  0  0  0  0
  -29.2150  -21.3550   19.0770 N   0  0  0  0  0  0  0  0  0  0  0  0
  -29.8690  -21.4410   21.2740 N   0  0  0  0  0  0  0  0  0  0  0  0
  -28.5270  -17.0620   21.0870 C   0  0  0  0  0  1  0  0  0  0  0  0
  -29.2060  -17.1160   18.7760 C   0  0  0  0  0  1  0  0  0  0  0  0
  -29.7200  -17.4970   20.1840 C   0  0  1  0  0  0  0  0  0  0  0  0
  -31.2930  -16.2560   21.9960 C   0  0  0  0  0  1  0  0  0  0  0  0
  -31.0530  -16.4620   20.4580 C   0  0  1  0  0  0  0  0  0  0  0  0
  -31.2600  -14.9340   19.7440 C   0  0  0  0  0  0  0  0  0  0  0  0
  -30.8080  -12.6250   18.7850 C   0  0  0  0  0  2  0  0  0  0  0  0
  -29.8200  -12.7070   17.6030 C   0  0  0  0  0  2  0  0  0  0  0  0
  -28.3830  -12.5500   18.1170 C   0  0  0  0  0  2  0  0  0  0  0  0
  -28.1080  -13.4500   19.3490 C   0  0  0  0  0  3  0  0  0  0  0  0
  -29.2430  -13.4220   20.4050 C   0  0  0  0  0  2  0  0  0  0  0  0
  -30.5060  -13.7520   19.7310 N   0  0  0  0  0  0  0  0  0  0  0  0
  -32.3140  -14.8070   19.1160 O   0  0  0  0  0  0  0  0  0  0  0  0
  -25.8050  -14.1040   20.2300 C   0  0  0  0  0  0  0  0  0  0  0  0
  -24.7430  -13.3630   20.6640 C   0  0  0  0  0  0  0  0  0  0  0  0
  -25.1520  -11.9990   20.5710 C   0  0  0  0  0  0  0  0  0  0  0  0
  -26.8000  -13.1930   19.9230 N   0  0  0  0  0  0  0  0  0  0  0  0
  -26.4170  -11.9180   20.1820 N   0  0  0  0  0  0  0  0  0  0  0  0
  -24.3860  -10.7660   20.7830 C   0  0  0  0  0  0  0  0  0  0  0  0
  -24.7910   -9.8010   21.7310 C   0  0  0  0  0  3  0  0  0  0  0  0
  -24.0250   -8.6310   21.9270 C   0  0  0  0  0  3  0  0  0  0  0  0
  -22.8430   -8.4210   21.1770 C   0  0  0  0  0  0  0  0  0  0  0  0
  -22.4580   -9.3790   20.2220 C   0  0  0  0  0  3  0  0  0  0  0  0
  -23.2230  -10.5380   20.0210 C   0  0  0  0  0  3  0  0  0  0  0  0
  -22.0480   -7.3070   21.2840 O   0  0  0  0  0  0  0  0  0  0  0  0
  -21.9080   -6.6420   22.4750 C   0  0  0  0  0  0  0  0  0  0  0  0
  -21.4240   -7.2840   23.6350 C   0  0  0  0  0  3  0  0  0  0  0  0
  -21.2290   -6.5430   24.8180 C   0  0  0  0  0  3  0  0  0  0  0  0
  -21.5100   -5.1640   24.8400 C   0  0  0  0  0  0  0  0  0  0  0  0
  -21.9880   -4.5220   23.6840 C   0  0  0  0  0  3  0  0  0  0  0  0
  -22.1850   -5.2610   22.5030 C   0  0  0  0  0  0  0  0  0  0  0  0
  -22.6270   -4.6340   21.3860 F   0  0  0  0  0  0  0  0  0  0  0  0
  -21.3140   -4.4500   25.9740 F   0  0  0  0  0  0  0  0  0  0  0  0
  -23.3960  -13.8960   21.0490 C   0  0  0  0  0  0  0  0  0  0  0  0
  -22.7150  -13.2140   21.9640 N   0  0  0  0  0  0  0  0  0  0  0  0
  -22.9610  -14.9450   20.5790 O   0  0  0  0  0  0  0  0  0  0  0  0
  -23.0860  -12.3590   22.3490 H   0  0  0  0  0  0  0  0  0  0  0  0
  -21.8230  -13.5580   22.2880 H   0  0  0  0  0  0  0  0  0  0  0  0
  -25.9750  -15.4700   20.0550 N   0  0  0  0  0  0  0  0  0  0  0  0
  -25.2240  -16.1240   20.2460 H   0  0  0  0  0  0  0  0  0  0  0  0
  -26.8010  -15.9250   19.6900 H   0  0  0  0  0  0  0  0  0  0  0  0
  -32.3200  -17.3030   20.0050 C   0  0  2  0  0  0  0  0  0  0  0  0
  -32.2680  -17.6050   18.7060 F   0  0  0  0  0  0  0  0  0  0  0  0
  -33.4800  -16.6720   20.2310 F   0  0  0  0  0  0  0  0  0  0  0  0
  -32.4320  -18.4620   20.6560 F   0  0  0  0  0  0  0  0  0  0  0  0
  -29.5550  -23.7090   20.0380 C   0  0  0  0  0  2  0  0  0  0  0  0
  -28.3120  -24.8350   22.0020 C   0  0  0  0  0  1  0  0  0  0  0  0
  -28.4500  -24.8480   20.4650 C   0  0  0  0  0  3  0  0  0  0  0  0
  -28.6670  -26.3290   20.1240 O   0  0  0  0  0  0  0  0  0  0  0  0
  -24.7520  -31.7320   23.0460 C   0  0  0  0  0  0  0  0  0  0  0  0
  -27.5610  -27.2230   20.0360 C   0  0  0  0  0  0  0  0  0  0  0  0
  -23.6320  -30.3180   21.3620 C   0  0  0  0  0  3  0  0  0  0  0  0
  -25.1640  -28.8240   19.9480 C   0  0  0  0  0  0  0  0  0  0  0  0
  -26.1700  -30.7020   21.2440 C   0  0  0  0  0  2  0  0  0  0  0  0
  -26.3080  -29.3280   20.5820 C   0  0  0  0  0  0  0  0  0  0  0  0
  -27.5110  -28.5420   20.6120 C   0  0  0  0  0  3  0  0  0  0  0  0
  -26.4030  -26.8050   19.3430 C   0  0  0  0  0  3  0  0  0  0  0  0
  -25.2210  -27.5730   19.3120 C   0  0  0  0  0  3  0  0  0  0  0  0
  -23.8980  -29.6640   19.9820 C   0  0  0  0  0  2  0  0  0  0  0  0
  -24.8660  -30.9390   21.9390 N   0  0  0  0  0  0  0  0  0  0  0  0
  -23.6490  -31.9730   23.5580 O   0  0  0  0  0  0  0  0  0  0  0  0
  -22.9780  -29.2730   22.3010 C   0  0  0  0  0  0  0  0  0  0  0  0
  -21.6530  -29.0840   22.1760 N   0  0  0  0  0  0  0  0  0  0  0  0
  -23.6650  -28.6330   23.1000 O   0  0  0  0  0  0  0  0  0  0  0  0
  -21.1600  -29.6420   21.4930 H   0  0  0  0  0  0  0  0  0  0  0  0
  -18.2870  -27.8590   22.6870 C   0  0  0  0  0  0  0  0  0  0  0  0
  -20.8480  -28.1180   22.9270 C   0  0  0  0  0  3  0  0  0  0  0  0
  -20.9500  -26.7110   22.3000 C   0  0  0  0  0  2  0  0  0  0  0  0
  -19.8320  -26.4190   21.2950 C   0  0  0  0  0  2  0  0  0  0  0  0
  -18.4570  -26.5360   21.9620 C   0  0  0  0  0  2  0  0  0  0  0  0
  -19.4080  -28.6100   23.1260 C   0  0  0  0  0  0  0  0  0  0  0  0
  -19.1950  -29.8470   23.7720 C   0  0  0  0  0  3  0  0  0  0  0  0
  -17.8900  -30.3350   23.9780 C   0  0  0  0  0  3  0  0  0  0  0  0
  -16.7830  -29.5820   23.5560 C   0  0  0  0  0  3  0  0  0  0  0  0
  -16.9820  -28.3450   22.9150 C   0  0  0  0  0  3  0  0  0  0  0  0
  -25.9970  -32.4030   23.7020 C   0  0  0  0  0  3  0  0  0  0  0  0
  -25.6220  -33.7780   24.0630 N   0  0  0  0  0  0  0  0  0  0  0  0
  -25.9200  -34.8670   23.3410 C   0  0  0  0  0  0  0  0  0  0  0  0
  -26.6080  -34.8210   22.3170 O   0  0  0  0  0  0  0  0  0  0  0  0
  -25.0020  -33.8790   24.8530 H   0  0  0  0  0  0  0  0  0  0  0  0
  -24.1190  -36.5920   23.0230 C   0  0  0  0  0  1  0  0  0  0  0  0
  -25.3720  -36.2210   23.8300 C   0  0  0  0  0  3  0  0  0  0  0  0
  -27.4630  -37.1750   24.6950 C   0  0  0  0  0  1  0  0  0  0  0  0
  -26.3600  -37.3180   23.7480 N   0  0  0  0  0  0  0  0  0  0  0  0
  -25.9170  -38.2170   23.9110 H   0  0  0  0  0  0  0  0  0  0  0  0
  -26.5220  -31.6210   24.9680 C   0  0  1  0  0  0  0  0  0  0  0  0
  -25.4220  -31.3120   26.0130 C   0  0  0  0  0  1  0  0  0  0  0  0
  -27.1700  -30.2770   24.5580 C   0  0  0  0  0  1  0  0  0  0  0  0
  -27.6300  -32.4490   25.6630 C   0  0  0  0  0  1  0  0  0  0  0  0
  1  2  2  0
  2  3  1  0
  3  5  1  0
  4  7  1  0
  6  1  1  0
  6  4  2  0
  7  3  2  0
 10  9  1  6
 10  2  1  0
 10 12  1  0
 10  8  1  0
 12 11  1  1
 13 12  1  0
 14 19  1  0
 15 16  1  0
 15 14  1  0
 17 16  1  0
 17 24  1  0
 17 18  1  0
 19 13  1  0
 19 18  1  0
 20 13  2  0
 21 22  2  0
 22 41  1  0
 23 22  1  0
 23 26  1  0
 24 25  1  0
 24 21  1  0
 25 23  2  0
 26 27  1  0
 27 28  2  0
 29 32  1  0
 29 28  1  0
 30 29  2  0
 31 30  1  0
 31 26  2  0
 32 33  1  0
 33 38  2  0
 33 34  1  0
 34 35  2  0
 35 36  1  0
 36 40  1  0
 37 36  2  0
 38 37  1  0
 39 38  1  0
 41 42  1  0
 42 45  1  0
 42 44  1  0
 43 41  2  0
 46 21  1  0
 46 47  1  0
 48 46  1  0
 49 51  1  6
 49 12  1  0
 49 52  1  0
 50 49  1  0
 53  4  1  0
 53 55  1  0
 55 54  1  0
 56 55  1  0
 57 68  2  0
 58 56  1  0
 58 63  1  0
 59 67  1  0
 59 69  1  0
 60 66  1  0
 60 62  1  0
 61 67  1  0
 62 63  2  0
 62 61  1  0
 64 58  2  0
 65 64  1  0
 65 60  2  0
 66 59  1  0
 67 57  1  0
 69 71  2  0
 70 69  1  0
 72 70  1  0
 73 82  2  0
 73 78  1  0
 74 70  1  0
 74 78  1  0
 75 74  1  0
 76 77  1  0
 76 75  1  0
 77 73  1  0
 78 79  2  0
 79 80  1  0
 81 80  2  0
 82 81  1  0
 83 57  1  0
 83 84  1  0
 83 93  1  0
 84 87  1  0
 85 89  1  0
 85 84  1  0
 86 85  2  0
 89 88  1  0
 91 89  1  0
 91 92  1  0
 91 90  1  0
 93 96  1  1
 93 94  1  0
 95 93  1  0
M  ISO  4  12 100  13 100  55 101  56 101
M  END
>  <TORSDO>  (56) 
F 21

>  <SCORE>  (56) 
-12.812

>  <name>  (56) 
59

>  <ligand_id>  (56) 
59

>  <original_smiles>  (56) 
[H]c1nc(C([H])([H])C([H])(Oc2c([H])c([H])c3c(c2[H])C([H])([H])N(C(=O)C([H])(N([H])C(=O)C([H])(N([H])C([H])([H])[H])C([H])([H])[H])C(C([H])([H])[H])(C([H])([H])[H])C([H])([H])[H])C([H])(C(=O)N([H])C2([H])c4c([H])c([H])c([H])c([H])c4C([H])([H])C([H])([H])C2([H])[H])C3([H])[H])C([H])([H])[H])nc(C([H])([H])[H])c1C(C([H])([H])[H])(C([H])([H])[H])C(C(=O)N1C([H])([H])C([H])([H])C([H])([H])C([H])(n2nc(-c3c([H])c([H])c(Oc4c([H])c([H])c(F)c([H])c4F)c([H])c3[H])c(C(=O)N([H])[H])c2N([H])[H])C1([H])[H])(C([H])([H])[H])C(F)(F)F

>  <smiles>  (56) 
[H]c1nc(C([H])([H])C([H])(Oc2c([H])c([H])c3c(c2[H])C([H])([H])N(C(=O)C([H])(N([H])C(=O)C([H])(N([H])C([H])([H])[H])C([H])([H])[H])C(C([H])([H])[H])(C([H])([H])[H])C([H])([H])[H])C([H])(C(=O)N([H])C2([H])c4c([H])c([H])c([H])c([H])c4C([H])([H])C([H])([H])C2([H])[H])C3([H])[H])C([H])([H])[H])nc(C([H])([H])[H])c1C(C([H])([H])[H])(C([H])([H])[H])C(C(=O)N1C([H])([H])C([H])([H])C([H])([H])C([H])(n2nc(-c3c([H])c([H])c(Oc4c([H])c([H])c(F)c([H])c4F)c([H])c3[H])c(C(=O)N([H])[H])c2N([H])[H])C1([H])[H])(C([H])([H])[H])C(F)(F)F

$$$$
60:0:0
     RDKit          3D

 96104  0  0  1  0  0  0  0  0999 V2000
  -28.5450  -23.1630   20.1310 C   0  0  0  0  0  0  0  0  0  0  0  0
  -28.9570  -20.8850   19.7330 C   0  0  0  0  0  0  0  0  0  0  0  0
  -27.8020  -22.7660   19.1000 N   0  0  0  0  0  0  0  0  0  0  0  0
  -28.0230  -21.4010   18.8920 N   0  0  0  0  0  0  0  0  0  0  0  0
  -29.3020  -22.0050   20.5770 N   0  0  0  0  0  0  0  0  0  0  0  0
  -29.4410  -22.3460   23.0390 C   0  0  0  0  0  1  0  0  0  0  0  0
  -31.3590  -23.0320   21.5160 C   0  0  0  0  0  1  0  0  0  0  0  0
  -30.8830  -20.6520   22.0080 C   0  0  0  0  0  1  0  0  0  0  0  0
  -30.2200  -22.0140   21.7450 C   0  0  2  0  0  0  0  0  0  0  0  0
  -28.1520  -18.6470   18.7640 C   0  0  0  0  0  1  0  0  0  0  0  0
  -29.4510  -19.2490   19.3830 C   0  0  1  0  0  0  0  0  0  0  0  0
  -30.3960  -20.4360   17.1840 C   0  0  0  0  0  1  0  0  0  0  0  0
  -30.7280  -18.0110   17.4180 C   0  0  0  0  0  1  0  0  0  0  0  0
  -31.9800  -19.6120   18.8510 C   0  0  0  0  0  1  0  0  0  0  0  0
  -30.5910  -19.3180   18.2430 C   0  0  2  0  0  0  0  0  0  0  0  0
  -29.8600  -17.8830   20.3910 C   0  0  0  0  0  2  0  0  0  0  0  0
  -30.5110  -15.0890   19.9500 C   0  0  0  0  0  0  0  0  0  0  0  0
  -30.3750  -12.7200   18.9850 C   0  0  0  0  0  2  0  0  0  0  0  0
  -29.3720  -12.6290   17.8100 C   0  0  0  0  0  2  0  0  0  0  0  0
  -27.9390  -12.3990   18.3280 C   0  0  0  0  0  2  0  0  0  0  0  0
  -27.5860  -13.3240   19.5200 C   0  0  0  0  0  3  0  0  0  0  0  0
  -28.7050  -13.3640   20.5820 C   0  0  0  0  0  2  0  0  0  0  0  0
  -29.9210  -13.8180   19.8920 N   0  0  0  0  0  0  0  0  0  0  0  0
  -31.7200  -15.1330   19.6960 O   0  0  0  0  0  0  0  0  0  0  0  0
  -29.7130  -16.2860   20.0900 N   0  0  0  0  0  0  0  0  0  0  0  0
  -28.7420  -16.0200   20.1280 H   0  0  0  0  0  0  0  0  0  0  0  0
  -25.2610  -13.8930   20.4150 C   0  0  0  0  0  0  0  0  0  0  0  0
  -24.2160  -13.1160   20.8300 C   0  0  0  0  0  0  0  0  0  0  0  0
  -24.6710  -11.7640   20.7480 C   0  0  0  0  0  0  0  0  0  0  0  0
  -26.2830  -13.0170   20.0970 N   0  0  0  0  0  0  0  0  0  0  0  0
  -25.9440  -11.7290   20.3650 N   0  0  0  0  0  0  0  0  0  0  0  0
  -23.9490  -10.5020   20.9550 C   0  0  0  0  0  0  0  0  0  0  0  0
  -24.4090   -9.5280   21.8680 C   0  0  0  0  0  3  0  0  0  0  0  0
  -23.6840   -8.3330   22.0630 C   0  0  0  0  0  3  0  0  0  0  0  0
  -22.4850   -8.1030   21.3460 C   0  0  0  0  0  0  0  0  0  0  0  0
  -22.0450   -9.0670   20.4220 C   0  0  0  0  0  3  0  0  0  0  0  0
  -22.7700  -10.2530   20.2240 C   0  0  0  0  0  3  0  0  0  0  0  0
  -21.7280   -6.9620   21.4530 O   0  0  0  0  0  0  0  0  0  0  0  0
  -21.6980   -6.2240   22.6090 C   0  0  0  0  0  0  0  0  0  0  0  0
  -21.2800   -6.7800   23.8370 C   0  0  0  0  0  3  0  0  0  0  0  0
  -21.1980   -5.9670   24.9870 C   0  0  0  0  0  3  0  0  0  0  0  0
  -21.5250   -4.6000   24.9080 C   0  0  0  0  0  0  0  0  0  0  0  0
  -21.9380   -4.0450   23.6840 C   0  0  0  0  0  3  0  0  0  0  0  0
  -22.0210   -4.8540   22.5370 C   0  0  0  0  0  0  0  0  0  0  0  0
  -22.3980   -4.3080   21.3560 F   0  0  0  0  0  0  0  0  0  0  0  0
  -21.4420   -3.8180   26.0090 F   0  0  0  0  0  0  0  0  0  0  0  0
  -22.8390  -13.5950   21.1840 C   0  0  0  0  0  0  0  0  0  0  0  0
  -22.1530  -12.8860   22.0730 N   0  0  0  0  0  0  0  0  0  0  0  0
  -22.3810  -14.6320   20.7060 O   0  0  0  0  0  0  0  0  0  0  0  0
  -22.5360  -12.0460   22.4820 H   0  0  0  0  0  0  0  0  0  0  0  0
  -21.2300  -13.1880   22.3530 H   0  0  0  0  0  0  0  0  0  0  0  0
  -25.4150  -15.2670   20.2500 N   0  0  0  0  0  0  0  0  0  0  0  0
  -24.6480  -15.9100   20.4180 H   0  0  0  0  0  0  0  0  0  0  0  0
  -26.2180  -15.7140   19.8290 H   0  0  0  0  0  0  0  0  0  0  0  0
  -28.2770  -24.6840   20.8100 C   0  0  0  0  0  2  0  0  0  0  0  0
  -28.3850  -26.0920   20.1000 O   0  0  0  0  0  0  0  0  0  0  0  0
  -24.6640  -31.7820   23.1880 C   0  0  0  0  0  0  0  0  0  0  0  0
  -27.3260  -27.0900   20.1400 C   0  0  0  0  0  0  0  0  0  0  0  0
  -23.4960  -30.3870   21.5260 C   0  0  0  0  0  3  0  0  0  0  0  0
  -24.9790  -28.8350   20.1020 C   0  0  0  0  0  0  0  0  0  0  0  0
  -26.0510  -30.6780   21.3830 C   0  0  0  0  0  2  0  0  0  0  0  0
  -26.1520  -29.2860   20.7220 C   0  0  0  0  0  0  0  0  0  0  0  0
  -27.3290  -28.4350   20.7150 C   0  0  0  0  0  3  0  0  0  0  0  0
  -26.1220  -26.7500   19.4910 C   0  0  0  0  0  3  0  0  0  0  0  0
  -24.9800  -27.5840   19.4670 C   0  0  0  0  0  3  0  0  0  0  0  0
  -23.7400  -29.7220   20.1450 C   0  0  0  0  0  2  0  0  0  0  0  0
  -24.7570  -30.9730   22.0870 N   0  0  0  0  0  0  0  0  0  0  0  0
  -23.5690  -32.0460   23.7100 O   0  0  0  0  0  0  0  0  0  0  0  0
  -22.8200  -29.3650   22.4740 C   0  0  0  0  0  0  0  0  0  0  0  0
  -21.4990  -29.1610   22.3230 N   0  0  0  0  0  0  0  0  0  0  0  0
  -23.4900  -28.7540   23.3120 O   0  0  0  0  0  0  0  0  0  0  0  0
  -21.0110  -29.7050   21.6250 H   0  0  0  0  0  0  0  0  0  0  0  0
  -18.1490  -27.8410   22.7370 C   0  0  0  0  0  0  0  0  0  0  0  0
  -20.6870  -28.2000   23.0770 C   0  0  0  0  0  3  0  0  0  0  0  0
  -20.8570  -26.7680   22.5190 C   0  0  0  0  0  2  0  0  0  0  0  0
  -19.7990  -26.3980   21.4740 C   0  0  0  0  0  2  0  0  0  0  0  0
  -18.3950  -26.4950   22.0750 C   0  0  0  0  0  2  0  0  0  0  0  0
  -19.2240  -28.6490   23.1930 C   0  0  0  0  0  0  0  0  0  0  0  0
  -18.9380  -29.9040   23.7720 C   0  0  0  0  0  3  0  0  0  0  0  0
  -17.6100  -30.3540   23.8980 C   0  0  0  0  0  3  0  0  0  0  0  0
  -16.5490  -29.5450   23.4570 C   0  0  0  0  0  3  0  0  0  0  0  0
  -16.8190  -28.2900   22.8830 C   0  0  0  0  0  3  0  0  0  0  0  0
  -25.9260  -32.4320   23.8320 C   0  0  0  0  0  3  0  0  0  0  0  0
  -25.5980  -33.8290   24.1600 N   0  0  0  0  0  0  0  0  0  0  0  0
  -25.9290  -34.8900   23.4110 C   0  0  0  0  0  0  0  0  0  0  0  0
  -26.6110  -34.7950   22.3860 O   0  0  0  0  0  0  0  0  0  0  0  0
  -24.9980  -33.9750   24.9580 H   0  0  0  0  0  0  0  0  0  0  0  0
  -24.1920  -36.6750   23.0510 C   0  0  0  0  0  1  0  0  0  0  0  0
  -25.4300  -36.2740   23.8700 C   0  0  0  0  0  3  0  0  0  0  0  0
  -27.5490  -37.1750   24.7240 C   0  0  0  0  0  1  0  0  0  0  0  0
  -26.4560  -37.3350   23.7690 N   0  0  0  0  0  0  0  0  0  0  0  0
  -26.0400  -38.2510   23.9150 H   0  0  0  0  0  0  0  0  0  0  0  0
  -26.4240  -31.6710   25.1220 C   0  0  1  0  0  0  0  0  0  0  0  0
  -25.3140  -31.4320   26.1720 C   0  0  0  0  0  1  0  0  0  0  0  0
  -27.0230  -30.2940   24.7540 C   0  0  0  0  0  1  0  0  0  0  0  0
  -27.5580  -32.4770   25.8000 C   0  0  0  0  0  1  0  0  0  0  0  0
  1  5  1  0
  1 55  1  0
  2  5  1  0
  3  1  2  0
  4  3  1  0
  4  2  2  0
  5  9  1  0
  9  7  1  6
  9  8  1  0
  9  6  1  0
 11 10  1  6
 11  2  1  0
 11 16  1  0
 15 12  1  6
 13 15  1  0
 15 14  1  0
 15 11  1  0
 17 25  1  0
 18 23  1  0
 19 20  1  0
 19 18  1  0
 21 20  1  0
 21 30  1  0
 21 22  1  0
 23 17  1  0
 23 22  1  0
 24 17  2  0
 25 26  1  0
 25 16  1  0
 27 28  2  0
 28 47  1  0
 29 28  1  0
 29 32  1  0
 30 31  1  0
 30 27  1  0
 31 29  2  0
 32 33  1  0
 33 34  2  0
 35 38  1  0
 35 34  1  0
 36 35  2  0
 37 36  1  0
 37 32  2  0
 38 39  1  0
 39 40  1  0
 40 41  2  0
 42 41  1  0
 42 46  1  0
 43 42  2  0
 44 39  2  0
 44 43  1  0
 45 44  1  0
 47 48  1  0
 48 51  1  0
 48 50  1  0
 49 47  2  0
 52 27  1  0
 52 53  1  0
 54 52  1  0
 56 58  1  0
 56 55  1  0
 57 68  2  0
 58 63  1  0
 59 67  1  0
 59 69  1  0
 60 66  1  0
 60 62  1  0
 61 67  1  0
 62 61  1  0
 63 62  2  0
 64 58  2  0
 65 64  1  0
 65 60  2  0
 66 59  1  0
 67 57  1  0
 69 71  2  0
 70 69  1  0
 72 70  1  0
 73 82  2  0
 73 78  1  0
 74 70  1  0
 74 78  1  0
 75 74  1  0
 76 77  1  0
 76 75  1  0
 77 73  1  0
 78 79  2  0
 79 80  1  0
 81 80  2  0
 82 81  1  0
 83 57  1  0
 83 84  1  0
 83 93  1  0
 84 87  1  0
 85 89  1  0
 85 84  1  0
 86 85  2  0
 89 88  1  0
 91 89  1  0
 91 92  1  0
 91 90  1  0
 93 96  1  1
 93 94  1  0
 95 93  1  0
M  ISO  4  17 100  25 100  55 101  56 101
M  END
>  <TORSDO>  (57) 
F 21

>  <SCORE>  (57) 
-14.501

>  <name>  (57) 
60

>  <ligand_id>  (57) 
60

>  <original_smiles>  (57) 
[H]c1c([H])c([H])c2c(c1[H])C([H])([H])C([H])([H])C([H])([H])C2([H])N([H])C(=O)C1([H])N(C(=O)C([H])(N([H])C(=O)C([H])(N([H])C([H])([H])[H])C([H])([H])[H])C(C([H])([H])[H])(C([H])([H])[H])C([H])([H])[H])C([H])([H])c2c([H])c(OC([H])([H])c3nnc(C(C([H])([H])[H])(C([H])([H])N([H])C(=O)N4C([H])([H])C([H])([H])C([H])([H])C([H])(n5nc(-c6c([H])c([H])c(Oc7c([H])c([H])c(F)c([H])c7F)c([H])c6[H])c(C(=O)N([H])[H])c5N([H])[H])C4([H])[H])C(C([H])([H])[H])(C([H])([H])[H])C([H])([H])[H])n3C(C([H])([H])[H])(C([H])([H])[H])C([H])([H])[H])c([H])c([H])c2C1([H])[H]

>  <smiles>  (57) 
[H]c1c([H])c([H])c2c(c1[H])C([H])([H])C([H])([H])C([H])([H])C2([H])N([H])C(=O)C1([H])N(C(=O)C([H])(N([H])C(=O)C([H])(N([H])C([H])([H])[H])C([H])([H])[H])C(C([H])([H])[H])(C([H])([H])[H])C([H])([H])[H])C([H])([H])c2c([H])c(OC([H])([H])c3nnc(C(C([H])([H])[H])(C([H])([H])N([H])C(=O)N4C([H])([H])C([H])([H])C([H])([H])C([H])(n5nc(-c6c([H])c([H])c(Oc7c([H])c([H])c(F)c([H])c7F)c([H])c6[H])c(C(=O)N([H])[H])c5N([H])[H])C4([H])[H])C(C([H])([H])[H])(C([H])([H])[H])C([H])([H])[H])n3C(C([H])([H])[H])(C([H])([H])[H])C([H])([H])[H])c([H])c([H])c2C1([H])[H]

$$$$
61:0:0
     RDKit          3D

 95103  0  0  1  0  0  0  0  0999 V2000
  -28.3050  -20.2070   20.6370 C   0  0  0  0  0  3  0  0  0  0  0  0
  -30.4070  -20.9000   19.8050 C   0  0  0  0  0  3  0  0  0  0  0  0
  -29.1900  -21.2830   20.3990 C   0  0  0  0  0  0  0  0  0  0  0  0
  -29.7830  -18.6530   19.7460 C   0  0  0  0  0  0  0  0  0  0  0  0
  -28.5980  -18.9240   20.3000 N   0  0  0  0  0  0  0  0  0  0  0  0
  -30.6930  -19.6060   19.5030 N   0  0  0  0  0  0  0  0  0  0  0  0
  -30.0590  -17.2010   19.1890 C   0  0  2  0  0  0  0  0  0  0  0  0
  -30.9130  -17.3600   18.1700 F   0  0  0  0  0  0  0  0  0  0  0  0
  -28.9230  -16.7690   18.6310 F   0  0  0  0  0  0  0  0  0  0  0  0
  -32.0290  -16.4480   20.6280 C   0  0  0  0  0  1  0  0  0  0  0  0
  -30.6100  -16.0310   20.1410 C   0  0  2  0  0  0  0  0  0  0  0  0
  -30.8310  -14.6570   19.3120 C   0  0  0  0  0  0  0  0  0  0  0  0
  -30.2260  -12.5240   18.1580 C   0  0  0  0  0  2  0  0  0  0  0  0
  -29.0970  -12.8010   17.1400 C   0  0  0  0  0  2  0  0  0  0  0  0
  -27.7130  -12.6730   17.8000 C   0  0  0  0  0  2  0  0  0  0  0  0
  -27.6420  -13.4280   19.1470 C   0  0  0  0  0  3  0  0  0  0  0  0
  -28.8690  -13.1010   20.0260 C   0  0  0  0  0  2  0  0  0  0  0  0
  -30.0770  -13.4940   19.2770 N   0  0  0  0  0  0  0  0  0  0  0  0
  -31.8150  -14.6870   18.5640 O   0  0  0  0  0  0  0  0  0  0  0  0
  -25.4530  -14.0800   20.3280 C   0  0  0  0  0  0  0  0  0  0  0  0
  -24.4190  -13.3350   20.8160 C   0  0  0  0  0  0  0  0  0  0  0  0
  -24.7650  -11.9700   20.5740 C   0  0  0  0  0  0  0  0  0  0  0  0
  -26.3800  -13.1750   19.8380 N   0  0  0  0  0  0  0  0  0  0  0  0
  -25.9760  -11.8920   20.0350 N   0  0  0  0  0  0  0  0  0  0  0  0
  -23.9910  -10.7370   20.7800 C   0  0  0  0  0  0  0  0  0  0  0  0
  -24.4400   -9.7160   21.6470 C   0  0  0  0  0  3  0  0  0  0  0  0
  -23.6680   -8.5510   21.8410 C   0  0  0  0  0  3  0  0  0  0  0  0
  -22.4320   -8.3960   21.1670 C   0  0  0  0  0  0  0  0  0  0  0  0
  -21.9980   -9.4080   20.2910 C   0  0  0  0  0  3  0  0  0  0  0  0
  -22.7690  -10.5650   20.0970 C   0  0  0  0  0  3  0  0  0  0  0  0
  -21.6310   -7.2830   21.2730 O   0  0  0  0  0  0  0  0  0  0  0  0
  -21.5450   -6.5710   22.4440 C   0  0  0  0  0  0  0  0  0  0  0  0
  -21.1330   -7.1750   23.6520 C   0  0  0  0  0  3  0  0  0  0  0  0
  -20.9910   -6.3910   24.8170 C   0  0  0  0  0  3  0  0  0  0  0  0
  -21.2480   -5.0080   24.7700 C   0  0  0  0  0  0  0  0  0  0  0  0
  -21.6540   -4.4040   23.5690 C   0  0  0  0  0  3  0  0  0  0  0  0
  -21.8000   -5.1840   22.4060 C   0  0  0  0  0  0  0  0  0  0  0  0
  -22.1710   -4.5940   21.2430 F   0  0  0  0  0  0  0  0  0  0  0  0
  -21.0990   -4.2570   25.8870 F   0  0  0  0  0  0  0  0  0  0  0  0
  -23.1340  -13.8590   21.3960 C   0  0  0  0  0  0  0  0  0  0  0  0
  -22.5620  -13.1400   22.3530 N   0  0  0  0  0  0  0  0  0  0  0  0
  -22.6610  -14.9350   21.0340 O   0  0  0  0  0  0  0  0  0  0  0  0
  -22.9590  -12.2610   22.6480 H   0  0  0  0  0  0  0  0  0  0  0  0
  -21.7190  -13.4710   22.7990 H   0  0  0  0  0  0  0  0  0  0  0  0
  -25.6750  -15.4510   20.2430 N   0  0  0  0  0  0  0  0  0  0  0  0
  -25.0070  -16.1270   20.5930 H   0  0  0  0  0  0  0  0  0  0  0  0
  -26.5440  -15.8690   19.9310 H   0  0  0  0  0  0  0  0  0  0  0  0
  -29.7470  -15.9530   21.4340 C   0  0  1  0  0  0  0  0  0  0  0  0
  -30.0770  -14.8870   22.1690 F   0  0  0  0  0  0  0  0  0  0  0  0
  -29.9410  -17.0010   22.2340 F   0  0  0  0  0  0  0  0  0  0  0  0
  -28.4500  -15.9100   21.1390 F   0  0  0  0  0  0  0  0  0  0  0  0
  -28.9140  -22.7230   20.9290 C   0  0  0  0  0  2  0  0  0  0  0  0
  -28.9510  -23.9820   19.9740 C   0  0  0  0  0  2  0  0  0  0  0  0
  -28.3220  -25.2750   20.6330 C   0  0  0  0  0  2  0  0  0  0  0  0
  -28.5010  -26.5790   20.0000 O   0  0  0  0  0  0  0  0  0  0  0  0
  -24.5710  -31.8030   22.9920 C   0  0  0  0  0  0  0  0  0  0  0  0
  -27.3600  -27.3730   19.9690 C   0  0  0  0  0  0  0  0  0  0  0  0
  -23.4260  -30.3670   21.3390 C   0  0  0  0  0  3  0  0  0  0  0  0
  -24.9390  -28.8630   19.9310 C   0  0  0  0  0  0  0  0  0  0  0  0
  -25.9480  -30.7790   21.1750 C   0  0  0  0  0  2  0  0  0  0  0  0
  -26.0810  -29.4060   20.5360 C   0  0  0  0  0  0  0  0  0  0  0  0
  -27.2980  -28.6710   20.5450 C   0  0  0  0  0  3  0  0  0  0  0  0
  -26.2010  -26.8670   19.3440 C   0  0  0  0  0  3  0  0  0  0  0  0
  -24.9950  -27.5950   19.3300 C   0  0  0  0  0  3  0  0  0  0  0  0
  -23.6740  -29.6960   19.9630 C   0  0  0  0  0  2  0  0  0  0  0  0
  -24.6660  -31.0000   21.8930 N   0  0  0  0  0  0  0  0  0  0  0  0
  -23.4750  -32.0480   23.5140 O   0  0  0  0  0  0  0  0  0  0  0  0
  -22.7820  -29.3310   22.2900 C   0  0  0  0  0  0  0  0  0  0  0  0
  -21.4610  -29.1320   22.1560 N   0  0  0  0  0  0  0  0  0  0  0  0
  -23.4710  -28.7090   23.1030 O   0  0  0  0  0  0  0  0  0  0  0  0
  -20.9640  -29.6890   21.4760 H   0  0  0  0  0  0  0  0  0  0  0  0
  -18.0960  -27.8960   22.6450 C   0  0  0  0  0  0  0  0  0  0  0  0
  -20.6520  -28.1790   22.9180 C   0  0  0  0  0  3  0  0  0  0  0  0
  -20.7690  -26.7540   22.3280 C   0  0  0  0  0  2  0  0  0  0  0  0
  -19.6690  -26.4300   21.3110 C   0  0  0  0  0  2  0  0  0  0  0  0
  -18.2840  -26.5550   21.9540 C   0  0  0  0  0  2  0  0  0  0  0  0
  -19.2070  -28.6660   23.0810 C   0  0  0  0  0  0  0  0  0  0  0  0
  -18.9750  -29.9230   23.6790 C   0  0  0  0  0  3  0  0  0  0  0  0
  -17.6650  -30.4100   23.8500 C   0  0  0  0  0  3  0  0  0  0  0  0
  -16.5680  -29.6350   23.4290 C   0  0  0  0  0  3  0  0  0  0  0  0
  -16.7850  -28.3800   22.8340 C   0  0  0  0  0  3  0  0  0  0  0  0
  -25.8280  -32.4690   23.6300 C   0  0  0  0  0  3  0  0  0  0  0  0
  -25.4490  -33.8280   24.0390 N   0  0  0  0  0  0  0  0  0  0  0  0
  -25.7060  -34.9350   23.3310 C   0  0  0  0  0  0  0  0  0  0  0  0
  -26.3600  -34.9240   22.2840 O   0  0  0  0  0  0  0  0  0  0  0  0
  -24.8570  -33.9040   24.8540 H   0  0  0  0  0  0  0  0  0  0  0  0
  -23.8770  -36.6480   23.0990 C   0  0  0  0  0  1  0  0  0  0  0  0
  -25.1500  -36.2680   23.8700 C   0  0  0  0  0  3  0  0  0  0  0  0
  -27.2480  -37.2210   24.7170 C   0  0  0  0  0  1  0  0  0  0  0  0
  -26.1220  -37.3800   23.8010 N   0  0  0  0  0  0  0  0  0  0  0  0
  -25.6720  -38.2670   24.0050 H   0  0  0  0  0  0  0  0  0  0  0  0
  -26.4060  -31.6590   24.8540 C   0  0  1  0  0  0  0  0  0  0  0  0
  -25.3350  -31.2700   25.9010 C   0  0  0  0  0  1  0  0  0  0  0  0
  -27.0920  -30.3580   24.3740 C   0  0  0  0  0  1  0  0  0  0  0  0
  -27.4960  -32.4910   25.5710 C   0  0  0  0  0  1  0  0  0  0  0  0
  2  3  1  0
  3  1  2  0
  3 52  1  0
  4  5  2  0
  5  1  1  0
  6  4  1  0
  6  2  2  0
  7  4  1  0
  7 11  1  0
  7  8  1  6
  9  7  1  0
 11 10  1  1
 11 48  1  0
 12 11  1  0
 13 18  1  0
 14 15  1  0
 14 13  1  0
 16 15  1  0
 16 23  1  0
 16 17  1  0
 18 12  1  0
 18 17  1  0
 19 12  2  0
 20 21  2  0
 21 40  1  0
 22 25  1  0
 22 21  1  0
 23 24  1  0
 23 20  1  0
 24 22  2  0
 25 26  1  0
 26 27  2  0
 28 31  1  0
 28 27  1  0
 29 28  2  0
 30 29  1  0
 30 25  2  0
 31 32  1  0
 32 33  1  0
 33 34  2  0
 35 34  1  0
 35 39  1  0
 36 35  2  0
 37 32  2  0
 37 36  1  0
 38 37  1  0
 40 41  1  0
 41 43  1  0
 41 44  1  0
 42 40  2  0
 45 20  1  0
 45 46  1  0
 47 45  1  0
 48 49  1  1
 48 50  1  0
 51 48  1  0
 53 54  1  0
 53 52  1  0
 55 54  1  0
 56 67  2  0
 57 55  1  0
 57 62  1  0
 58 66  1  0
 58 68  1  0
 59 65  1  0
 59 61  1  0
 60 66  1  0
 61 62  2  0
 61 60  1  0
 63 57  2  0
 64 63  1  0
 64 59  2  0
 65 58  1  0
 66 56  1  0
 68 70  2  0
 69 68  1  0
 71 69  1  0
 72 81  2  0
 72 77  1  0
 73 69  1  0
 73 77  1  0
 74 73  1  0
 75 76  1  0
 75 74  1  0
 76 72  1  0
 77 78  2  0
 78 79  1  0
 80 79  2  0
 81 80  1  0
 82 56  1  0
 82 83  1  0
 82 92  1  0
 83 86  1  0
 84 88  1  0
 84 83  1  0
 85 84  2  0
 88 87  1  0
 90 88  1  0
 90 91  1  0
 90 89  1  0
 92 95  1  1
 92 93  1  0
 94 92  1  0
M  ISO  4  11 100  12 100  54 101  55 101
M  END
>  <TORSDO>  (58) 
F 22

>  <SCORE>  (58) 
-11.181

>  <name>  (58) 
61

>  <ligand_id>  (58) 
61

>  <original_smiles>  (58) 
[H]c1nc(C(F)(F)C(C(=O)N2C([H])([H])C([H])([H])C([H])([H])C([H])(n3nc(-c4c([H])c([H])c(Oc5c([H])c([H])c(F)c([H])c5F)c([H])c4[H])c(C(=O)N([H])[H])c3N([H])[H])C2([H])[H])(C([H])([H])[H])C(F)(F)F)nc([H])c1C([H])([H])C([H])([H])C([H])([H])Oc1c([H])c([H])c2c(c1[H])C([H])([H])N(C(=O)C([H])(N([H])C(=O)C([H])(N([H])C([H])([H])[H])C([H])([H])[H])C(C([H])([H])[H])(C([H])([H])[H])C([H])([H])[H])C([H])(C(=O)N([H])C1([H])c3c([H])c([H])c([H])c([H])c3C([H])([H])C([H])([H])C1([H])[H])C2([H])[H]

>  <smiles>  (58) 
[H]c1nc(C(F)(F)C(C(=O)N2C([H])([H])C([H])([H])C([H])([H])C([H])(n3nc(-c4c([H])c([H])c(Oc5c([H])c([H])c(F)c([H])c5F)c([H])c4[H])c(C(=O)N([H])[H])c3N([H])[H])C2([H])[H])(C([H])([H])[H])C(F)(F)F)nc([H])c1C([H])([H])C([H])([H])C([H])([H])Oc1c([H])c([H])c2c(c1[H])C([H])([H])N(C(=O)C([H])(N([H])C(=O)C([H])(N([H])C([H])([H])[H])C([H])([H])[H])C(C([H])([H])[H])(C([H])([H])[H])C([H])([H])[H])C([H])(C(=O)N([H])C1([H])c3c([H])c([H])c([H])c([H])c3C([H])([H])C([H])([H])C1([H])[H])C2([H])[H]

$$$$
62:0:0
     RDKit          3D

 95103  0  0  1  0  0  0  0  0999 V2000
  -27.6390  -18.5520   20.3580 C   0  0  0  0  0  0  0  0  0  0  0  0
  -29.3750  -19.4520   19.5950 C   0  0  0  0  0  3  0  0  0  0  0  0
  -26.2840  -18.3810   20.9680 C   0  0  0  0  0  1  0  0  0  0  0  0
  -28.2260  -19.7600   20.2080 N   0  0  0  0  0  0  0  0  0  0  0  0
  -28.3510  -17.5260   19.9230 N   0  0  0  0  0  2  0  0  0  0  0  0
  -29.5430  -18.0640   19.5250 N   0  0  0  0  0  0  0  0  0  0  0  0
  -29.8450  -16.4110   17.7440 C   0  0  0  0  0  1  0  0  0  0  0  0
  -31.8340  -17.7100   18.5040 C   0  0  0  0  0  1  0  0  0  0  0  0
  -30.5290  -17.0250   18.9860 C   0  0  1  0  0  0  0  0  0  0  0  0
  -30.8760  -15.8130   20.0590 C   0  0  0  0  0  3  0  0  0  0  0  0
  -31.4980  -14.4030   19.6080 C   0  0  0  0  0  0  0  0  0  0  0  0
  -31.1940  -11.9950   18.9750 C   0  0  0  0  0  2  0  0  0  0  0  0
  -30.2280  -11.9060   17.7730 C   0  0  0  0  0  2  0  0  0  0  0  0
  -28.7740  -11.7910   18.2670 C   0  0  0  0  0  2  0  0  0  0  0  0
  -28.4390  -12.8870   19.3150 C   0  0  0  0  0  3  0  0  0  0  0  0
  -29.5320  -12.9840   20.4050 C   0  0  0  0  0  2  0  0  0  0  0  0
  -30.8310  -13.2020   19.7470 N   0  0  0  0  0  0  0  0  0  0  0  0
  -32.6020  -14.4010   19.0490 O   0  0  0  0  0  0  0  0  0  0  0  0
  -26.1550  -13.7020   20.1750 C   0  0  0  0  0  0  0  0  0  0  0  0
  -25.0480  -13.0390   20.6100 C   0  0  0  0  0  0  0  0  0  0  0  0
  -25.3770  -11.6480   20.5520 C   0  0  0  0  0  0  0  0  0  0  0  0
  -27.1000  -12.7280   19.8790 N   0  0  0  0  0  0  0  0  0  0  0  0
  -26.6360  -11.4840   20.1610 N   0  0  0  0  0  0  0  0  0  0  0  0
  -24.5500  -10.4650   20.8020 C   0  0  0  0  0  0  0  0  0  0  0  0
  -24.7830   -9.6380   21.9220 C   0  0  0  0  0  3  0  0  0  0  0  0
  -23.9670   -8.5130   22.1630 C   0  0  0  0  0  3  0  0  0  0  0  0
  -22.8960   -8.2150   21.2830 C   0  0  0  0  0  0  0  0  0  0  0  0
  -22.6850   -9.0290   20.1560 C   0  0  0  0  0  3  0  0  0  0  0  0
  -23.5040  -10.1450   19.9150 C   0  0  0  0  0  3  0  0  0  0  0  0
  -22.0660   -7.1270   21.4070 O   0  0  0  0  0  0  0  0  0  0  0  0
  -21.5780   -6.7310   22.6240 C   0  0  0  0  0  0  0  0  0  0  0  0
  -20.8010   -7.5860   23.4340 C   0  0  0  0  0  3  0  0  0  0  0  0
  -20.2790   -7.1150   24.6550 C   0  0  0  0  0  3  0  0  0  0  0  0
  -20.5120   -5.7830   25.0520 C   0  0  0  0  0  0  0  0  0  0  0  0
  -21.2710   -4.9250   24.2360 C   0  0  0  0  0  3  0  0  0  0  0  0
  -21.8050   -5.4000   23.0270 C   0  0  0  0  0  0  0  0  0  0  0  0
  -22.5250   -4.5670   22.2370 F   0  0  0  0  0  0  0  0  0  0  0  0
  -19.9970   -5.3250   26.2170 F   0  0  0  0  0  0  0  0  0  0  0  0
  -23.7170  -13.6470   20.9630 C   0  0  0  0  0  0  0  0  0  0  0  0
  -22.9960  -13.0560   21.9050 N   0  0  0  0  0  0  0  0  0  0  0  0
  -23.3400  -14.6960   20.4360 O   0  0  0  0  0  0  0  0  0  0  0  0
  -23.3320  -12.2270   22.3670 H   0  0  0  0  0  0  0  0  0  0  0  0
  -22.1040  -13.4430   22.1790 H   0  0  0  0  0  0  0  0  0  0  0  0
  -26.4250  -15.0590   19.9940 N   0  0  0  0  0  0  0  0  0  0  0  0
  -25.7380  -15.7590   20.2490 H   0  0  0  0  0  0  0  0  0  0  0  0
  -27.2750  -15.4570   19.6210 H   0  0  0  0  0  0  0  0  0  0  0  0
  -31.6440  -16.3260   21.3340 C   0  0  1  0  0  0  0  0  0  0  0  0
  -32.9000  -16.6990   21.0710 F   0  0  0  0  0  0  0  0  0  0  0  0
  -31.0250  -17.3550   21.9150 F   0  0  0  0  0  0  0  0  0  0  0  0
  -31.7300  -15.3710   22.2590 F   0  0  0  0  0  0  0  0  0  0  0  0
  -30.2620  -20.6690   19.1930 C   0  0  0  0  0  2  0  0  0  0  0  0
  -29.5110  -22.0980   19.1620 C   0  0  0  0  0  2  0  0  0  0  0  0
  -30.2660  -23.4760   19.4340 C   0  0  0  0  0  3  0  0  0  0  0  0
  -29.3840  -24.7830   19.2330 C   0  0  0  0  0  3  0  0  0  0  0  0
  -29.8260  -26.1190   19.6850 O   0  0  0  0  0  0  0  0  0  0  0  0
  -26.5360  -30.3540   24.4790 C   0  0  0  0  0  0  0  0  0  0  0  0
  -28.8090  -27.0530   19.9390 C   0  0  0  0  0  0  0  0  0  0  0  0
  -25.2650  -29.8060   22.4330 C   0  0  0  0  0  3  0  0  0  0  0  0
  -26.6150  -28.7790   20.5280 C   0  0  0  0  0  0  0  0  0  0  0  0
  -27.8250  -29.9240   22.3770 C   0  0  0  0  0  2  0  0  0  0  0  0
  -27.7980  -28.8830   21.2670 C   0  0  0  0  0  0  0  0  0  0  0  0
  -28.9000  -28.0270   20.9760 C   0  0  0  0  0  3  0  0  0  0  0  0
  -27.6130  -27.0240   19.1830 C   0  0  0  0  0  3  0  0  0  0  0  0
  -26.5210  -27.8550   19.4790 C   0  0  0  0  0  3  0  0  0  0  0  0
  -25.4670  -29.6930   20.8990 C   0  0  0  0  0  2  0  0  0  0  0  0
  -26.5590  -30.0200   23.1580 N   0  0  0  0  0  0  0  0  0  0  0  0
  -25.4640  -30.5130   25.0820 O   0  0  0  0  0  0  0  0  0  0  0  0
  -24.4790  -28.5720   22.9350 C   0  0  0  0  0  0  0  0  0  0  0  0
  -23.1820  -28.5010   22.5930 N   0  0  0  0  0  0  0  0  0  0  0  0
  -25.0400  -27.6930   23.5950 O   0  0  0  0  0  0  0  0  0  0  0  0
  -22.7860  -29.2670   22.0640 H   0  0  0  0  0  0  0  0  0  0  0  0
  -19.8180  -27.2740   22.1040 C   0  0  0  0  0  0  0  0  0  0  0  0
  -22.2630  -27.4120   22.9280 C   0  0  0  0  0  3  0  0  0  0  0  0
  -22.5240  -26.1740   22.0400 C   0  0  0  0  0  2  0  0  0  0  0  0
  -21.6450  -26.1280   20.7840 C   0  0  0  0  0  2  0  0  0  0  0  0
  -20.1640  -26.1360   21.1590 C   0  0  0  0  0  2  0  0  0  0  0  0
  -20.8030  -27.8830   22.9240 C   0  0  0  0  0  0  0  0  0  0  0  0
  -20.4260  -28.9550   23.7620 C   0  0  0  0  0  3  0  0  0  0  0  0
  -19.0970  -29.4180   23.7850 C   0  0  0  0  0  3  0  0  0  0  0  0
  -18.1230  -28.8040   22.9810 C   0  0  0  0  0  3  0  0  0  0  0  0
  -18.4850  -27.7340   22.1440 C   0  0  0  0  0  3  0  0  0  0  0  0
  -27.8480  -30.5720   25.2930 C   0  0  0  0  0  3  0  0  0  0  0  0
  -28.1780  -29.3770   26.2680 C   0  0  1  0  0  0  0  0  0  0  0  0
  -26.9980  -28.9770   27.1850 C   0  0  0  0  0  1  0  0  0  0  0  0
  -28.6000  -28.1210   25.4700 C   0  0  0  0  0  1  0  0  0  0  0  0
  -29.3760  -29.7520   27.1710 C   0  0  0  0  0  1  0  0  0  0  0  0
  -27.7040  -31.8290   26.0410 N   0  0  0  0  0  0  0  0  0  0  0  0
  -28.2630  -32.9930   25.6860 C   0  0  0  0  0  0  0  0  0  0  0  0
  -29.0210  -33.1050   24.7190 O   0  0  0  0  0  0  0  0  0  0  0  0
  -27.0490  -31.8240   26.8110 H   0  0  0  0  0  0  0  0  0  0  0  0
  -26.8710  -35.0890   25.8180 C   0  0  0  0  0  1  0  0  0  0  0  0
  -27.9270  -34.2340   26.5380 C   0  0  0  0  0  3  0  0  0  0  0  0
  -30.0470  -34.4260   27.7660 C   0  0  0  0  0  1  0  0  0  0  0  0
  -29.1070  -35.0700   26.8510 N   0  0  0  0  0  0  0  0  0  0  0  0
  -28.8210  -35.9570   27.2600 H   0  0  0  0  0  0  0  0  0  0  0  0
  1  3  1  0
  2 51  1  0
  2  4  1  0
  4  1  2  0
  5  1  1  0
  6  2  1  0
  6  5  1  0
  9  7  1  6
  8  9  1  0
  9  6  1  0
  9 10  1  0
 10 11  1  0
 10 47  1  0
 11 17  1  0
 12 17  1  0
 13 14  1  0
 13 12  1  0
 15 14  1  0
 15 22  1  0
 15 16  1  0
 17 16  1  0
 18 11  2  0
 19 20  2  0
 20 39  1  0
 21 20  1  0
 21 24  1  0
 22 23  1  0
 22 19  1  0
 23 21  2  0
 24 25  1  0
 25 26  2  0
 27 30  1  0
 27 26  1  0
 28 27  2  0
 29 28  1  0
 29 24  2  0
 30 31  1  0
 31 36  2  0
 31 32  1  0
 32 33  2  0
 33 34  1  0
 34 38  1  0
 35 34  2  0
 36 35  1  0
 37 36  1  0
 39 40  1  0
 40 43  1  0
 40 42  1  0
 41 39  2  0
 44 19  1  0
 44 45  1  0
 46 44  1  0
 47 49  1  1
 47 50  1  0
 48 47  1  0
 52 51  1  0
 52 53  1  0
 54 53  2  0
 54 55  1  0
 55 57  1  0
 56 67  2  0
 57 62  1  0
 58 68  1  0
 58 66  1  0
 59 65  1  0
 59 61  1  0
 60 66  1  0
 61 60  1  0
 62 61  2  0
 63 64  1  0
 63 57  2  0
 64 59  2  0
 65 58  1  0
 66 56  1  0
 68 70  2  0
 69 68  1  0
 71 69  1  0
 72 81  2  0
 72 77  1  0
 73 69  1  0
 74 73  1  0
 75 76  1  0
 75 74  1  0
 76 72  1  0
 77 73  1  0
 77 78  2  0
 78 79  1  0
 80 79  2  0
 81 80  1  0
 82 56  1  0
 82 87  1  0
 82 83  1  0
 83 86  1  1
 83 84  1  0
 85 83  1  0
 87 90  1  0
 88 87  1  0
 88 92  1  0
 89 88  2  0
 92 91  1  0
 92 94  1  0
 94 95  1  0
 94 93  1  0
M  ISO  4  10 100  11 100  54 101  55 101
M  END
>  <TORSDO>  (59) 
F 23

>  <SCORE>  (59) 
-5.494

>  <name>  (59) 
62

>  <ligand_id>  (59) 
62

>  <original_smiles>  (59) 
[H]c1c([H])c([H])c2c(c1[H])C([H])([H])C([H])([H])C([H])([H])C2([H])N([H])C(=O)C1([H])N(C(=O)C([H])(N([H])C(=O)C([H])(N([H])C([H])([H])[H])C([H])([H])[H])C(C([H])([H])[H])(C([H])([H])[H])C([H])([H])[H])C([H])([H])c2c([H])c(OC([H])([H])C([H])([H])C([H])([H])C([H])([H])c3nc(C([H])([H])[H])nn3C(C([H])([H])[H])(C([H])([H])[H])C([H])(C(=O)N3C([H])([H])C([H])([H])C([H])([H])C([H])(n4nc(-c5c([H])c([H])c(Oc6c([H])c([H])c(F)c([H])c6F)c([H])c5[H])c(C(=O)N([H])[H])c4N([H])[H])C3([H])[H])C(F)(F)F)c([H])c([H])c2C1([H])[H]

>  <smiles>  (59) 
[H]c1c([H])c([H])c2c(c1[H])C([H])([H])C([H])([H])C([H])([H])C2([H])N([H])C(=O)C1([H])N(C(=O)C([H])(N([H])C(=O)C([H])(N([H])C([H])([H])[H])C([H])([H])[H])C(C([H])([H])[H])(C([H])([H])[H])C([H])([H])[H])C([H])([H])c2c([H])c(OC([H])([H])C([H])([H])C([H])([H])C([H])([H])c3nc(C([H])([H])[H])nn3C(C([H])([H])[H])(C([H])([H])[H])C([H])(C(=O)N3C([H])([H])C([H])([H])C([H])([H])C([H])(n4nc(-c5c([H])c([H])c(Oc6c([H])c([H])c(F)c([H])c6F)c([H])c5[H])c(C(=O)N([H])[H])c4N([H])[H])C3([H])[H])C(F)(F)F)c([H])c([H])c2C1([H])[H]

$$$$
63:0:0
     RDKit          3D

105112  0  0  1  0  0  0  0  0999 V2000
  -29.8140  -20.4670   21.4900 C   0  0  1  0  0  0  0  0  0  0  0  0
  -30.7470  -21.1230   22.1780 F   0  0  0  0  0  0  0  0  0  0  0  0
  -28.8710  -20.1360   22.3760 F   0  0  0  0  0  0  0  0  0  0  0  0
  -29.0240  -21.5540   20.6200 C   0  0  0  0  0  3  0  0  0  0  0  0
  -27.7460  -21.1690   20.5380 F   0  0  0  0  0  0  0  0  0  0  0  0
  -30.6170  -23.5140   20.9220 C   0  0  0  0  0  1  0  0  0  0  0  0
  -29.1440  -23.0650   21.0990 C   0  0  2  0  0  0  0  0  0  0  0  0
  -28.8640  -23.0840   22.4040 F   0  0  0  0  0  0  0  0  0  0  0  0
  -28.2130  -24.1540   20.4060 C   0  0  1  0  0  0  0  0  0  0  0  0
  -28.3500  -24.0200   19.0840 F   0  0  0  0  0  0  0  0  0  0  0  0
  -26.9360  -23.8890   20.6860 F   0  0  0  0  0  0  0  0  0  0  0  0
  -28.5460  -25.6720   20.7520 C   0  0  0  0  0  3  0  0  0  0  0  0
  -26.7940  -25.9330   22.7170 C   0  0  0  0  0  1  0  0  0  0  0  0
  -28.2340  -26.1420   22.2040 C   0  0  0  0  0  2  0  0  0  0  0  0
  -28.2990  -26.6760   19.7270 O   0  0  0  0  0  0  0  0  0  0  0  0
  -24.6680  -31.8100   23.1220 C   0  0  0  0  0  0  0  0  0  0  0  0
  -27.1540  -27.4390   19.8040 C   0  0  0  0  0  0  0  0  0  0  0  0
  -23.3880  -30.4430   21.5070 C   0  0  0  0  0  3  0  0  0  0  0  0
  -24.7730  -28.9550   19.9590 C   0  0  0  0  0  0  0  0  0  0  0  0
  -25.9010  -30.8130   21.1940 C   0  0  0  0  0  2  0  0  0  0  0  0
  -25.9580  -29.4610   20.5080 C   0  0  0  0  0  0  0  0  0  0  0  0
  -27.1570  -28.7120   20.4230 C   0  0  0  0  0  3  0  0  0  0  0  0
  -25.9630  -26.9560   19.2300 C   0  0  0  0  0  3  0  0  0  0  0  0
  -24.7720  -27.7060   19.3080 C   0  0  0  0  0  3  0  0  0  0  0  0
  -23.5290  -29.8050   20.0980 C   0  0  0  0  0  2  0  0  0  0  0  0
  -24.6730  -31.0380   21.9970 N   0  0  0  0  0  0  0  0  0  0  0  0
  -23.6150  -32.0660   23.7200 O   0  0  0  0  0  0  0  0  0  0  0  0
  -22.7960  -29.3910   22.4730 C   0  0  0  0  0  0  0  0  0  0  0  0
  -21.4880  -29.1200   22.3320 N   0  0  0  0  0  0  0  0  0  0  0  0
  -23.5080  -28.8250   23.3060 O   0  0  0  0  0  0  0  0  0  0  0  0
  -20.9710  -29.6320   21.6310 H   0  0  0  0  0  0  0  0  0  0  0  0
  -18.2130  -27.6510   22.7490 C   0  0  0  0  0  0  0  0  0  0  0  0
  -20.7270  -28.1380   23.1030 C   0  0  0  0  0  3  0  0  0  0  0  0
  -20.9750  -26.7060   22.5730 C   0  0  0  0  0  2  0  0  0  0  0  0
  -19.9410  -26.2610   21.5320 C   0  0  0  0  0  2  0  0  0  0  0  0
  -18.5280  -26.3050   22.1210 C   0  0  0  0  0  2  0  0  0  0  0  0
  -19.2450  -28.5180   23.1950 C   0  0  0  0  0  0  0  0  0  0  0  0
  -18.8970  -29.7760   23.7350 C   0  0  0  0  0  3  0  0  0  0  0  0
  -17.5490  -30.1670   23.8380 C   0  0  0  0  0  3  0  0  0  0  0  0
  -16.5300  -29.2970   23.4110 C   0  0  0  0  0  3  0  0  0  0  0  0
  -16.8630  -28.0420   22.8700 C   0  0  0  0  0  3  0  0  0  0  0  0
  -25.9820  -32.4320   23.6930 C   0  0  0  0  0  3  0  0  0  0  0  0
  -26.5750  -31.6210   24.9110 C   0  0  1  0  0  0  0  0  0  0  0  0
  -25.5400  -31.3130   26.0200 C   0  0  0  0  0  1  0  0  0  0  0  0
  -27.1730  -30.2760   24.4350 C   0  0  0  0  0  1  0  0  0  0  0  0
  -27.7390  -32.4170   25.5460 C   0  0  0  0  0  1  0  0  0  0  0  0
  -25.6770  -33.8130   24.0910 N   0  0  0  0  0  0  0  0  0  0  0  0
  -25.9740  -34.8970   23.3610 C   0  0  0  0  0  0  0  0  0  0  0  0
  -26.6080  -34.8380   22.3040 O   0  0  0  0  0  0  0  0  0  0  0  0
  -25.1070  -33.9330   24.9150 H   0  0  0  0  0  0  0  0  0  0  0  0
  -24.2240  -36.6850   23.1380 C   0  0  0  0  0  1  0  0  0  0  0  0
  -25.4950  -36.2620   23.8890 C   0  0  0  0  0  3  0  0  0  0  0  0
  -27.6510  -37.1260   24.6800 C   0  0  0  0  0  1  0  0  0  0  0  0
  -26.5160  -37.3250   23.7830 N   0  0  0  0  0  0  0  0  0  0  0  0
  -26.1110  -38.2360   23.9820 H   0  0  0  0  0  0  0  0  0  0  0  0
  -30.4700  -19.0810   20.9390 C   0  0  0  0  0  3  0  0  0  0  0  0
  -32.8460  -17.8420   21.4290 C   0  0  0  0  0  1  0  0  0  0  0  0
  -30.9480  -17.5120   22.9250 C   0  0  0  0  0  1  0  0  0  0  0  0
  -32.2390  -19.6520   22.8840 C   0  0  0  0  0  1  0  0  0  0  0  0
  -31.5980  -18.5560   21.9880 C   0  0  2  0  0  0  0  0  0  0  0  0
  -31.9280  -20.0950   19.1260 C   0  0  0  0  0  1  0  0  0  0  0  0
  -29.5140  -19.5290   18.6050 C   0  0  0  0  0  1  0  0  0  0  0  0
  -30.7990  -19.0430   19.3490 C   0  0  2  0  0  0  0  0  0  0  0  0
  -31.2920  -17.7000   18.5690 C   0  0  0  0  0  3  0  0  0  0  0  0
  -31.1010  -15.2540   19.1140 C   0  0  0  0  0  0  0  0  0  0  0  0
  -30.8860  -12.8260   18.8380 C   0  0  0  0  0  2  0  0  0  0  0  0
  -29.9120  -12.4350   17.7180 C   0  0  0  0  0  2  0  0  0  0  0  0
  -28.4940  -12.2750   18.2940 C   0  0  0  0  0  2  0  0  0  0  0  0
  -28.0580  -13.4740   19.1770 C   0  0  0  0  0  3  0  0  0  0  0  0
  -29.1680  -13.9330   20.1520 C   0  0  0  0  0  2  0  0  0  0  0  0
  -30.3990  -14.1090   19.3720 N   0  0  0  0  0  0  0  0  0  0  0  0
  -32.3160  -15.1910   19.0990 O   0  0  0  0  0  0  0  0  0  0  0  0
  -29.2390  -16.3500   17.9090 C   0  0  0  0  0  1  0  0  0  0  0  0
  -30.5000  -16.4050   18.6450 N   0  0  0  0  0  0  0  0  0  0  0  0
  -25.8490  -14.1570   20.2760 C   0  0  0  0  0  0  0  0  0  0  0  0
  -24.7900  -13.4190   20.7310 C   0  0  0  0  0  0  0  0  0  0  0  0
  -25.1560  -12.0520   20.5530 C   0  0  0  0  0  0  0  0  0  0  0  0
  -26.7880  -13.2350   19.8450 N   0  0  0  0  0  0  0  0  0  0  0  0
  -26.3910  -11.9600   20.0760 N   0  0  0  0  0  0  0  0  0  0  0  0
  -24.3800  -10.8210   20.7500 C   0  0  0  0  0  0  0  0  0  0  0  0
  -24.7910   -9.8310   21.6680 C   0  0  0  0  0  3  0  0  0  0  0  0
  -24.0190   -8.6650   21.8530 C   0  0  0  0  0  3  0  0  0  0  0  0
  -22.8230   -8.4810   21.1210 C   0  0  0  0  0  0  0  0  0  0  0  0
  -22.4320   -9.4600   20.1890 C   0  0  0  0  0  3  0  0  0  0  0  0
  -23.2040  -10.6170   20.0010 C   0  0  0  0  0  3  0  0  0  0  0  0
  -22.0210   -7.3710   21.2180 O   0  0  0  0  0  0  0  0  0  0  0  0
  -21.8580   -6.7060   22.4070 C   0  0  0  0  0  0  0  0  0  0  0  0
  -21.3650   -7.3500   23.5620 C   0  0  0  0  0  3  0  0  0  0  0  0
  -21.1480   -6.6120   24.7430 C   0  0  0  0  0  3  0  0  0  0  0  0
  -21.4140   -5.2310   24.7690 C   0  0  0  0  0  0  0  0  0  0  0  0
  -21.9010   -4.5850   23.6190 C   0  0  0  0  0  3  0  0  0  0  0  0
  -22.1190   -5.3200   22.4410 C   0  0  0  0  0  0  0  0  0  0  0  0
  -22.5690   -4.6900   21.3290 F   0  0  0  0  0  0  0  0  0  0  0  0
  -21.1980   -4.5200   25.9000 F   0  0  0  0  0  0  0  0  0  0  0  0
  -23.4720  -13.9550   21.2090 C   0  0  0  0  0  0  0  0  0  0  0  0
  -22.8310  -13.2580   22.1430 N   0  0  0  0  0  0  0  0  0  0  0  0
  -23.0240  -15.0210   20.7910 O   0  0  0  0  0  0  0  0  0  0  0  0
  -23.2090  -12.3940   22.5040 H   0  0  0  0  0  0  0  0  0  0  0  0
  -21.9480  -13.5940   22.5020 H   0  0  0  0  0  0  0  0  0  0  0  0
  -26.0750  -15.5250   20.1630 N   0  0  0  0  0  0  0  0  0  0  0  0
  -25.3710  -16.2080   20.4220 H   0  0  0  0  0  0  0  0  0  0  0  0
  -26.8960  -15.9390   19.7460 H   0  0  0  0  0  0  0  0  0  0  0  0
  -31.0980  -17.4680   15.8850 C   0  0  0  0  0  1  0  0  0  0  0  0
  -33.3950  -17.8640   16.9850 C   0  0  0  0  0  1  0  0  0  0  0  0
  -31.8580  -18.0380   17.1090 C   0  0  0  0  0  3  0  0  0  0  0  0
  1  2  1  1
  1  3  1  0
  4  5  1  0
  4  7  1  0
  4  1  1  0
  7  6  1  1
  7  8  1  0
  9 11  1  6
  9 12  1  0
  9  7  1  0
 10  9  1  0
 12 14  1  0
 14 13  1  0
 15 17  1  0
 15 12  1  0
 16 27  2  0
 17 22  1  0
 18 26  1  0
 18 28  1  0
 19 25  1  0
 19 21  1  0
 20 26  1  0
 21 20  1  0
 22 21  2  0
 23 24  1  0
 23 17  2  0
 24 19  2  0
 25 18  1  0
 26 16  1  0
 28 30  2  0
 29 28  1  0
 31 29  1  0
 32 41  2  0
 32 37  1  0
 33 29  1  0
 33 37  1  0
 34 33  1  0
 35 36  1  0
 35 34  1  0
 36 32  1  0
 37 38  2  0
 38 39  1  0
 40 39  2  0
 41 40  1  0
 42 16  1  0
 42 47  1  0
 42 43  1  0
 43 46  1  1
 43 44  1  0
 45 43  1  0
 47 50  1  0
 48 52  1  0
 48 47  1  0
 49 48  2  0
 52 51  1  0
 54 52  1  0
 54 55  1  0
 54 53  1  0
 56 63  1  0
 56  1  1  0
 56 60  1  0
 60 57  1  6
 60 59  1  0
 60 58  1  0
 63 61  1  1
 62 63  1  0
 64105  1  0
 64 74  1  0
 64 63  1  0
 65 71  1  0
 66 71  1  0
 67 68  1  0
 67 66  1  0
 69 68  1  0
 69 78  1  0
 69 70  1  0
 71 70  1  0
 72 65  2  0
 73 74  1  0
 74 65  1  0
 75 76  2  0
 76 95  1  0
 77 76  1  0
 77 80  1  0
 78 79  1  0
 78 75  1  0
 79 77  2  0
 80 81  1  0
 81 82  2  0
 83 86  1  0
 83 82  1  0
 84 83  2  0
 85 84  1  0
 85 80  2  0
 86 87  1  0
 87 92  2  0
 87 88  1  0
 88 89  2  0
 89 90  1  0
 90 94  1  0
 91 90  2  0
 92 91  1  0
 93 92  1  0
 95 96  1  0
 96 99  1  0
 96 98  1  0
 97 95  2  0
100 75  1  0
100101  1  0
102100  1  0
103105  1  0
104105  1  0
M  ISO  4  12 101  15 101  65 100  74 100
M  END
>  <TORSDO>  (60) 
F 26

>  <SCORE>  (60) 
-8.844

>  <name>  (60) 
63

>  <ligand_id>  (60) 
63

>  <original_smiles>  (60) 
[H]c1c([H])c([H])c2c(c1[H])C([H])([H])C([H])([H])C([H])([H])C2([H])N([H])C(=O)C1([H])N(C(=O)C([H])(N([H])C(=O)C([H])(N([H])C([H])([H])[H])C([H])([H])[H])C(C([H])([H])[H])(C([H])([H])[H])C([H])([H])[H])C([H])([H])c2c([H])c(OC([H])(C([H])([H])C([H])([H])[H])C(F)(F)C(F)(C([H])([H])[H])C([H])(F)C(F)(F)C([H])(C(C([H])([H])[H])(C([H])([H])[H])C([H])([H])[H])C(C([H])([H])[H])(C([H])([H])[H])C([H])(N(C(=O)N3C([H])([H])C([H])([H])C([H])([H])C([H])(n4nc(-c5c([H])c([H])c(Oc6c([H])c([H])c(F)c([H])c6F)c([H])c5[H])c(C(=O)N([H])[H])c4N([H])[H])C3([H])[H])C([H])([H])[H])C([H])(C([H])([H])[H])C([H])([H])[H])c([H])c([H])c2C1([H])[H]

>  <smiles>  (60) 
[H]c1c([H])c([H])c2c(c1[H])C([H])([H])C([H])([H])C([H])([H])C2([H])N([H])C(=O)C1([H])N(C(=O)C([H])(N([H])C(=O)C([H])(N([H])C([H])([H])[H])C([H])([H])[H])C(C([H])([H])[H])(C([H])([H])[H])C([H])([H])[H])C([H])([H])c2c([H])c(OC([H])(C([H])([H])C([H])([H])[H])C(F)(F)C(F)(C([H])([H])[H])C([H])(F)C(F)(F)C([H])(C(C([H])([H])[H])(C([H])([H])[H])C([H])([H])[H])C(C([H])([H])[H])(C([H])([H])[H])C([H])(N(C(=O)N3C([H])([H])C([H])([H])C([H])([H])C([H])(n4nc(-c5c([H])c([H])c(Oc6c([H])c([H])c(F)c([H])c6F)c([H])c5[H])c(C(=O)N([H])[H])c4N([H])[H])C3([H])[H])C([H])([H])[H])C([H])(C([H])([H])[H])C([H])([H])[H])c([H])c([H])c2C1([H])[H]

$$$$
64:0:0
     RDKit          3D

 97105  0  0  1  0  0  0  0  0999 V2000
  -28.9970  -21.7270   24.1550 C   0  0  0  0  0  1  0  0  0  0  0  0
  -28.7570  -20.8630   21.8230 C   0  0  0  0  0  1  0  0  0  0  0  0
  -29.7350  -21.5200   22.8110 C   0  0  2  0  0  0  0  0  0  0  0  0
  -30.8860  -20.5090   23.1280 C   0  0  0  0  0  2  0  0  0  0  0  0
  -31.5160  -19.7060   21.9650 C   0  0  0  0  0  2  0  0  0  0  0  0
  -30.9170  -18.0300   19.8910 C   0  0  0  0  0  3  0  0  0  0  0  0
  -29.9740  -18.4640   20.5830 N   0  0  0  0  0  2  0  0  0  0  0  0
  -31.6490  -17.4890   20.9260 N   0  0  0  0  0  0  0  0  0  0  0  0
  -30.8400  -18.4210   21.6430 N   0  0  0  0  0  0  0  0  0  0  0  0
  -32.6760  -19.0470   18.4290 C   0  0  0  0  0  1  0  0  0  0  0  0
  -30.2620  -19.2320   17.7790 C   0  0  0  0  0  1  0  0  0  0  0  0
  -31.4460  -17.0360   17.6180 C   0  0  0  0  0  1  0  0  0  0  0  0
  -31.3180  -18.3210   18.4400 C   0  0  2  0  0  0  0  0  0  0  0  0
  -31.4770  -16.1330   21.4780 C   0  0  0  0  0  2  0  0  0  0  0  0
  -32.0020  -14.9780   20.5920 C   0  0  0  0  0  0  0  0  0  0  0  0
  -31.6210  -12.8660   19.3620 C   0  0  0  0  0  2  0  0  0  0  0  0
  -30.7600  -13.1300   18.1090 C   0  0  0  0  0  2  0  0  0  0  0  0
  -29.2540  -13.1720   18.4430 C   0  0  0  0  0  2  0  0  0  0  0  0
  -28.9260  -14.0030   19.7150 C   0  0  0  0  0  3  0  0  0  0  0  0
  -29.8810  -13.6190   20.8610 C   0  0  0  0  0  2  0  0  0  0  0  0
  -31.2540  -13.8560   20.3860 N   0  0  0  0  0  0  0  0  0  0  0  0
  -33.1230  -15.1150   20.0860 O   0  0  0  0  0  0  0  0  0  0  0  0
  -26.5400  -14.8470   20.2030 C   0  0  0  0  0  0  0  0  0  0  0  0
  -25.3860  -14.1820   20.5160 C   0  0  0  0  0  0  0  0  0  0  0  0
  -25.7300  -12.7970   20.5720 C   0  0  0  0  0  0  0  0  0  0  0  0
  -27.5220  -13.8720   20.0940 N   0  0  0  0  0  0  0  0  0  0  0  0
  -27.0310  -12.6360   20.3670 N   0  0  0  0  0  0  0  0  0  0  0  0
  -24.8900  -11.6100   20.7550 C   0  0  0  0  0  0  0  0  0  0  0  0
  -25.1870  -10.6420   21.7390 C   0  0  0  0  0  3  0  0  0  0  0  0
  -24.3540   -9.5150   21.9090 C   0  0  0  0  0  3  0  0  0  0  0  0
  -23.2100   -9.3490   21.0940 C   0  0  0  0  0  0  0  0  0  0  0  0
  -22.9300  -10.3050   20.1010 C   0  0  0  0  0  3  0  0  0  0  0  0
  -23.7630  -11.4230   19.9290 C   0  0  0  0  0  3  0  0  0  0  0  0
  -22.3590   -8.2730   21.1720 O   0  0  0  0  0  0  0  0  0  0  0  0
  -22.1180   -7.6310   22.3600 C   0  0  0  0  0  0  0  0  0  0  0  0
  -21.6400   -8.3180   23.4960 C   0  0  0  0  0  3  0  0  0  0  0  0
  -21.3400   -7.6070   24.6770 C   0  0  0  0  0  3  0  0  0  0  0  0
  -21.5080   -6.2100   24.7180 C   0  0  0  0  0  0  0  0  0  0  0  0
  -21.9780   -5.5220   23.5850 C   0  0  0  0  0  3  0  0  0  0  0  0
  -22.2810   -6.2320   22.4100 C   0  0  0  0  0  0  0  0  0  0  0  0
  -22.7150   -5.5610   21.3150 F   0  0  0  0  0  0  0  0  0  0  0  0
  -21.2150   -5.5250   25.8480 F   0  0  0  0  0  0  0  0  0  0  0  0
  -24.0190  -14.7860   20.6670 C   0  0  0  0  0  0  0  0  0  0  0  0
  -23.1880  -14.2130   21.5300 N   0  0  0  0  0  0  0  0  0  0  0  0
  -23.6980  -15.8040   20.0570 O   0  0  0  0  0  0  0  0  0  0  0  0
  -23.4550  -13.3910   22.0490 H   0  0  0  0  0  0  0  0  0  0  0  0
  -22.2700  -14.6100   21.6740 H   0  0  0  0  0  0  0  0  0  0  0  0
  -26.8340  -16.1910   19.9830 N   0  0  0  0  0  0  0  0  0  0  0  0
  -26.1170  -16.9080   19.9960 H   0  0  0  0  0  0  0  0  0  0  0  0
  -27.7470  -16.5510   19.7450 H   0  0  0  0  0  0  0  0  0  0  0  0
  -30.3480  -22.8820   22.2940 C   0  0  0  0  0  2  0  0  0  0  0  0
  -28.2140  -24.3570   22.1820 C   0  0  0  0  0  1  0  0  0  0  0  0
  -29.1760  -23.4470   20.0750 C   0  0  0  0  0  1  0  0  0  0  0  0
  -29.5370  -23.9700   21.4860 C   0  0  2  0  0  0  0  0  0  0  0  0
  -30.4830  -25.2170   21.2620 C   0  0  0  0  0  2  0  0  0  0  0  0
  -30.0840  -26.6280   21.7820 C   0  0  0  0  0  2  0  0  0  0  0  0
  -29.9300  -27.5400   20.6880 O   0  0  0  0  0  0  0  0  0  0  0  0
  -24.8560  -31.7670   23.3230 C   0  0  0  0  0  0  0  0  0  0  0  0
  -28.6590  -28.0380   20.5570 C   0  0  0  0  0  0  0  0  0  0  0  0
  -24.1470  -30.2170   21.5280 C   0  0  0  0  0  3  0  0  0  0  0  0
  -26.0330  -29.0300   20.2810 C   0  0  0  0  0  0  0  0  0  0  0  0
  -26.5540  -31.0630   21.6450 C   0  0  0  0  0  2  0  0  0  0  0  0
  -26.9830  -29.7560   21.0140 C   0  0  0  0  0  0  0  0  0  0  0  0
  -28.2990  -29.2640   21.1520 C   0  0  0  0  0  3  0  0  0  0  0  0
  -27.7020  -27.3150   19.8160 C   0  0  0  0  0  3  0  0  0  0  0  0
  -26.3870  -27.8060   19.6820 C   0  0  0  0  0  3  0  0  0  0  0  0
  -24.6490  -29.6290   20.1810 C   0  0  0  0  0  2  0  0  0  0  0  0
  -25.1920  -31.0320   22.2250 N   0  0  0  0  0  0  0  0  0  0  0  0
  -23.6870  -31.8110   23.7300 O   0  0  0  0  0  0  0  0  0  0  0  0
  -23.5920  -29.0610   22.3940 C   0  0  0  0  0  0  0  0  0  0  0  0
  -22.3200  -28.7000   22.1620 N   0  0  0  0  0  0  0  0  0  0  0  0
  -24.3050  -28.4970   23.2280 O   0  0  0  0  0  0  0  0  0  0  0  0
  -21.8010  -29.2190   21.4690 H   0  0  0  0  0  0  0  0  0  0  0  0
  -19.1110  -27.0550   22.4250 C   0  0  0  0  0  0  0  0  0  0  0  0
  -21.6060  -27.6080   22.8180 C   0  0  0  0  0  3  0  0  0  0  0  0
  -21.9140  -26.2590   22.1320 C   0  0  0  0  0  2  0  0  0  0  0  0
  -20.8830  -25.8680   21.0650 C   0  0  0  0  0  2  0  0  0  0  0  0
  -19.4810  -25.7850   21.6790 C   0  0  0  0  0  2  0  0  0  0  0  0
  -20.1090  -27.9190   22.9490 C   0  0  0  0  0  0  0  0  0  0  0  0
  -19.7140  -29.1020   23.6090 C   0  0  0  0  0  3  0  0  0  0  0  0
  -18.3520  -29.4280   23.7500 C   0  0  0  0  0  3  0  0  0  0  0  0
  -17.3680  -28.5620   23.2440 C   0  0  0  0  0  3  0  0  0  0  0  0
  -17.7480  -27.3750   22.5890 C   0  0  0  0  0  3  0  0  0  0  0  0
  -25.9150  -32.6090   24.1010 C   0  0  0  0  0  3  0  0  0  0  0  0
  -26.3230  -31.9670   25.4840 C   0  0  1  0  0  0  0  0  0  0  0  0
  -25.1150  -31.5660   26.3630 C   0  0  0  0  0  1  0  0  0  0  0  0
  -27.1880  -30.7030   25.2630 C   0  0  0  0  0  1  0  0  0  0  0  0
  -27.1920  -32.9620   26.2900 C   0  0  0  0  0  1  0  0  0  0  0  0
  -25.3550  -33.9530   24.2970 N   0  0  0  0  0  0  0  0  0  0  0  0
  -25.6470  -35.0150   23.5360 C   0  0  0  0  0  0  0  0  0  0  0  0
  -26.4830  -34.9790   22.6270 O   0  0  0  0  0  0  0  0  0  0  0  0
  -24.6230  -34.0420   24.9870 H   0  0  0  0  0  0  0  0  0  0  0  0
  -23.7500  -36.4990   22.8110 C   0  0  0  0  0  1  0  0  0  0  0  0
  -24.8940  -36.3270   23.8250 C   0  0  0  0  0  3  0  0  0  0  0  0
  -26.7270  -37.5580   24.8990 C   0  0  0  0  0  1  0  0  0  0  0  0
  -25.7630  -37.5240   23.8020 N   0  0  0  0  0  0  0  0  0  0  0  0
  -25.2080  -38.3740   23.8400 H   0  0  0  0  0  0  0  0  0  0  0  0
  3  2  1  6
  3  4  1  0
  3  1  1  0
  5  4  1  0
  6 13  1  0
  6  7  1  0
  6  8  1  0
  7  9  1  0
  8 14  1  0
  8  9  1  0
  9  5  1  0
 13 10  1  1
 11 13  1  0
 12 13  1  0
 15 14  1  0
 16 21  1  0
 17 18  1  0
 17 16  1  0
 19 18  1  0
 19 26  1  0
 19 20  1  0
 21 15  1  0
 21 20  1  0
 22 15  2  0
 23 24  2  0
 24 25  1  0
 24 43  1  0
 25 28  1  0
 26 23  1  0
 26 27  1  0
 27 25  2  0
 28 29  1  0
 29 30  2  0
 31 34  1  0
 31 30  1  0
 32 31  2  0
 33 32  1  0
 33 28  2  0
 34 35  1  0
 35 40  2  0
 35 36  1  0
 36 37  2  0
 37 38  1  0
 38 42  1  0
 39 38  2  0
 40 39  1  0
 41 40  1  0
 43 44  1  0
 44 47  1  0
 44 46  1  0
 45 43  2  0
 48 49  1  0
 48 23  1  0
 50 48  1  0
 51  3  1  0
 54 53  1  6
 54 52  1  0
 54 51  1  0
 55 54  1  0
 55 56  1  0
 57 56  1  0
 58 69  2  0
 59 57  1  0
 59 64  1  0
 60 68  1  0
 60 70  1  0
 61 63  1  0
 62 68  1  0
 63 64  2  0
 63 62  1  0
 65 59  2  0
 66 65  1  0
 66 61  2  0
 67 61  1  0
 67 60  1  0
 68 58  1  0
 70 72  2  0
 71 70  1  0
 73 71  1  0
 74 83  2  0
 74 79  1  0
 75 71  1  0
 75 79  1  0
 76 75  1  0
 77 78  1  0
 77 76  1  0
 78 74  1  0
 79 80  2  0
 80 81  1  0
 82 81  2  0
 83 82  1  0
 84 58  1  0
 84 89  1  0
 84 85  1  0
 85 88  1  1
 85 86  1  0
 87 85  1  0
 89 92  1  0
 90 94  1  0
 90 89  1  0
 91 90  2  0
 94 93  1  0
 96 94  1  0
 96 97  1  0
 96 95  1  0
M  ISO  4  14 100  15 100  56 101  57 101
M  END
>  <TORSDO>  (61) 
F 25

>  <SCORE>  (61) 
-7.397

>  <name>  (61) 
64

>  <ligand_id>  (61) 
64

>  <original_smiles>  (61) 
[H]c1c([H])c([H])c2c(c1[H])C([H])([H])C([H])([H])C([H])([H])C2([H])N([H])C(=O)C1([H])N(C(=O)C([H])(N([H])C(=O)C([H])(N([H])C([H])([H])[H])C([H])([H])[H])C(C([H])([H])[H])(C([H])([H])[H])C([H])([H])[H])C([H])([H])c2c([H])c(OC([H])([H])C([H])([H])C(C([H])([H])[H])(C([H])([H])[H])C([H])([H])C(C([H])([H])[H])(C([H])([H])[H])C([H])([H])C([H])([H])n3nc(C(C([H])([H])[H])(C([H])([H])[H])C([H])([H])[H])n3C([H])([H])C(=O)N3C([H])([H])C([H])([H])C([H])([H])C([H])(n4nc(-c5c([H])c([H])c(Oc6c([H])c([H])c(F)c([H])c6F)c([H])c5[H])c(C(=O)N([H])[H])c4N([H])[H])C3([H])[H])c([H])c([H])c2C1([H])[H]

>  <smiles>  (61) 
[H]c1c([H])c([H])c2c(c1[H])C([H])([H])C([H])([H])C([H])([H])C2([H])N([H])C(=O)C1([H])N(C(=O)C([H])(N([H])C(=O)C([H])(N([H])C([H])([H])[H])C([H])([H])[H])C(C([H])([H])[H])(C([H])([H])[H])C([H])([H])[H])C([H])([H])c2c([H])c(OC([H])([H])C([H])([H])C(C([H])([H])[H])(C([H])([H])[H])C([H])([H])C(C([H])([H])[H])(C([H])([H])[H])C([H])([H])C([H])([H])n3nc(C(C([H])([H])[H])(C([H])([H])[H])C([H])([H])[H])n3C([H])([H])C(=O)N3C([H])([H])C([H])([H])C([H])([H])C([H])(n4nc(-c5c([H])c([H])c(Oc6c([H])c([H])c(F)c([H])c6F)c([H])c5[H])c(C(=O)N([H])[H])c4N([H])[H])C3([H])[H])c([H])c([H])c2C1([H])[H]

$$$$
65:0:0
     RDKit          3D

101109  0  0  1  0  0  0  0  0999 V2000
  -30.3550  -22.7780   21.7480 C   0  0  0  0  0  3  0  0  0  0  0  0
  -31.5560  -23.3290   21.9490 F   0  0  0  0  0  0  0  0  0  0  0  0
  -30.0070  -22.6740   24.2790 C   0  0  0  0  0  1  0  0  0  0  0  0
  -29.4330  -23.1760   22.9370 C   0  0  0  0  0  3  0  0  0  0  0  0
  -30.1790  -25.6490   22.4800 C   0  0  0  0  0  1  0  0  0  0  0  0
  -29.0920  -24.7030   23.0360 C   0  0  0  0  0  3  0  0  0  0  0  0
  -26.7260  -25.0160   23.8960 C   0  0  0  0  0  1  0  0  0  0  0  0
  -27.6310  -25.0920   22.6390 C   0  0  0  0  0  3  0  0  0  0  0  0
  -25.4890  -24.2630   21.4060 C   0  0  0  0  0  1  0  0  0  0  0  0
  -27.0330  -24.3440   21.3990 C   0  0  0  0  0  3  0  0  0  0  0  0
  -27.5680  -24.8470   20.0220 C   0  0  0  0  0  2  0  0  0  0  0  0
  -27.7020  -26.2680   19.8830 O   0  0  0  0  0  0  0  0  0  0  0  0
  -24.3750  -31.5850   23.1500 C   0  0  0  0  0  0  0  0  0  0  0  0
  -26.5720  -27.0510   19.8880 C   0  0  0  0  0  0  0  0  0  0  0  0
  -23.0100  -30.3220   21.5180 C   0  0  0  0  0  3  0  0  0  0  0  0
  -24.2930  -28.7190   20.0050 C   0  0  0  0  0  0  0  0  0  0  0  0
  -25.5420  -30.5020   21.2360 C   0  0  0  0  0  2  0  0  0  0  0  0
  -25.5030  -29.1460   20.5640 C   0  0  0  0  0  0  0  0  0  0  0  0
  -26.6450  -28.3210   20.5000 C   0  0  0  0  0  3  0  0  0  0  0  0
  -25.3520  -26.6450   19.3020 C   0  0  0  0  0  3  0  0  0  0  0  0
  -24.2120  -27.4670   19.3710 C   0  0  0  0  0  3  0  0  0  0  0  0
  -23.1180  -29.6640   20.1170 C   0  0  0  0  0  2  0  0  0  0  0  0
  -24.3300  -30.8120   22.0280 N   0  0  0  0  0  0  0  0  0  0  0  0
  -23.3370  -31.9260   23.7350 O   0  0  0  0  0  0  0  0  0  0  0  0
  -22.3120  -29.3300   22.4770 C   0  0  0  0  0  0  0  0  0  0  0  0
  -20.9800  -29.2220   22.3580 N   0  0  0  0  0  0  0  0  0  0  0  0
  -22.9660  -28.6630   23.2820 O   0  0  0  0  0  0  0  0  0  0  0  0
  -20.5140  -29.8080   21.6780 H   0  0  0  0  0  0  0  0  0  0  0  0
  -17.5500  -28.2060   22.8640 C   0  0  0  0  0  0  0  0  0  0  0  0
  -20.1190  -28.3240   23.1270 C   0  0  0  0  0  3  0  0  0  0  0  0
  -20.1430  -26.8940   22.5430 C   0  0  0  0  0  2  0  0  0  0  0  0
  -19.0210  -26.6350   21.5320 C   0  0  0  0  0  2  0  0  0  0  0  0
  -17.6510  -26.8520   22.1820 C   0  0  0  0  0  2  0  0  0  0  0  0
  -18.7100  -28.9050   23.2940 C   0  0  0  0  0  0  0  0  0  0  0  0
  -18.5620  -30.1750   23.8900 C   0  0  0  0  0  3  0  0  0  0  0  0
  -17.2870  -30.7460   24.0640 C   0  0  0  0  0  3  0  0  0  0  0  0
  -16.1420  -30.0430   23.6520 C   0  0  0  0  0  3  0  0  0  0  0  0
  -16.2740  -28.7760   23.0570 C   0  0  0  0  0  3  0  0  0  0  0  0
  -25.7270  -32.0980   23.7380 C   0  0  0  0  0  3  0  0  0  0  0  0
  -26.2290  -31.2520   24.9730 C   0  0  1  0  0  0  0  0  0  0  0  0
  -25.1540  -31.0620   26.0700 C   0  0  0  0  0  1  0  0  0  0  0  0
  -26.6950  -29.8490   24.5180 C   0  0  0  0  0  1  0  0  0  0  0  0
  -27.4560  -31.9410   25.6160 C   0  0  0  0  0  1  0  0  0  0  0  0
  -25.5400  -33.5050   24.1130 N   0  0  0  0  0  0  0  0  0  0  0  0
  -25.9200  -34.5490   23.3620 C   0  0  0  0  0  0  0  0  0  0  0  0
  -26.5370  -34.4210   22.3020 O   0  0  0  0  0  0  0  0  0  0  0  0
  -24.9920  -33.6830   24.9410 H   0  0  0  0  0  0  0  0  0  0  0  0
  -24.3160  -36.4700   23.1230 C   0  0  0  0  0  1  0  0  0  0  0  0
  -25.5580  -35.9570   23.8700 C   0  0  0  0  0  3  0  0  0  0  0  0
  -27.7800  -36.6700   24.6290 C   0  0  0  0  0  1  0  0  0  0  0  0
  -26.6600  -36.9350   23.7320 N   0  0  0  0  0  0  0  0  0  0  0  0
  -26.3290  -37.8800   23.9060 H   0  0  0  0  0  0  0  0  0  0  0  0
  -30.5440  -21.2570   21.5300 C   0  0  0  0  0  2  0  0  0  0  0  0
  -31.0360  -20.9070   20.1020 C   0  0  0  0  0  2  0  0  0  0  0  0
  -33.5570  -20.8060   20.6070 C   0  0  0  0  0  1  0  0  0  0  0  0
  -32.6490  -19.9660   18.4470 C   0  0  0  0  0  1  0  0  0  0  0  0
  -32.3560  -20.0810   19.9630 C   0  0  2  0  0  0  0  0  0  0  0  0
  -32.8240  -17.5290   20.1900 C   0  0  0  0  0  2  0  0  0  0  0  0
  -32.2430  -18.6690   20.5520 C   0  0  0  0  0  3  0  0  0  0  0  0
  -30.5940  -18.0440   22.3110 C   0  0  0  0  0  1  0  0  0  0  0  0
  -31.7180  -16.7710   20.5520 N   0  0  0  0  0  0  0  0  0  0  0  0
  -31.0870  -18.0190   20.9370 N   0  0  0  0  0  0  0  0  0  0  0  0
  -29.4490  -16.2120   19.7650 C   0  0  0  0  0  1  0  0  0  0  0  0
  -31.2060  -16.5180   18.1280 C   0  0  0  0  0  1  0  0  0  0  0  0
  -30.9600  -15.9560   19.5680 C   0  0  1  0  0  0  0  0  0  0  0  0
  -31.4480  -14.4420   19.5160 C   0  0  0  0  0  0  0  0  0  0  0  0
  -31.0020  -12.0890   18.9220 C   0  0  0  0  0  2  0  0  0  0  0  0
  -30.0310  -12.0580   17.7270 C   0  0  0  0  0  2  0  0  0  0  0  0
  -28.5770  -12.0120   18.2340 C   0  0  0  0  0  2  0  0  0  0  0  0
  -28.2910  -13.1020   19.2950 C   0  0  0  0  0  3  0  0  0  0  0  0
  -29.3990  -13.1570   20.3770 C   0  0  0  0  0  2  0  0  0  0  0  0
  -30.6940  -13.3100   19.7010 N   0  0  0  0  0  0  0  0  0  0  0  0
  -32.6100  -14.3120   19.1170 O   0  0  0  0  0  0  0  0  0  0  0  0
  -26.0370  -13.9670   20.1710 C   0  0  0  0  0  0  0  0  0  0  0  0
  -24.9190  -13.3130   20.6140 C   0  0  0  0  0  0  0  0  0  0  0  0
  -25.2320  -11.9210   20.5600 C   0  0  0  0  0  0  0  0  0  0  0  0
  -26.9600  -12.9770   19.8740 N   0  0  0  0  0  0  0  0  0  0  0  0
  -26.4860  -11.7420   20.1680 N   0  0  0  0  0  0  0  0  0  0  0  0
  -24.3920  -10.7420   20.8010 C   0  0  0  0  0  0  0  0  0  0  0  0
  -24.6960   -9.8160   21.8220 C   0  0  0  0  0  3  0  0  0  0  0  0
  -23.8650   -8.6970   22.0430 C   0  0  0  0  0  3  0  0  0  0  0  0
  -22.7160   -8.4990   21.2400 C   0  0  0  0  0  0  0  0  0  0  0  0
  -22.4330   -9.4100   20.2070 C   0  0  0  0  0  3  0  0  0  0  0  0
  -23.2630  -10.5200   19.9860 C   0  0  0  0  0  3  0  0  0  0  0  0
  -21.8680   -7.4260   21.3660 O   0  0  0  0  0  0  0  0  0  0  0  0
  -21.5950   -6.8660   22.5870 C   0  0  0  0  0  0  0  0  0  0  0  0
  -21.0300   -7.6150   23.6430 C   0  0  0  0  0  3  0  0  0  0  0  0
  -20.7040   -6.9830   24.8590 C   0  0  0  0  0  3  0  0  0  0  0  0
  -20.9320   -5.6030   25.0190 C   0  0  0  0  0  0  0  0  0  0  0  0
  -21.4890   -4.8540   23.9670 C   0  0  0  0  0  3  0  0  0  0  0  0
  -21.8170   -5.4840   22.7550 C   0  0  0  0  0  0  0  0  0  0  0  0
  -22.3350   -4.7560   21.7370 F   0  0  0  0  0  0  0  0  0  0  0  0
  -20.6110   -4.9920   26.1840 F   0  0  0  0  0  0  0  0  0  0  0  0
  -23.6030  -13.9350   20.9790 C   0  0  0  0  0  0  0  0  0  0  0  0
  -22.8810  -13.3350   21.9210 N   0  0  0  0  0  0  0  0  0  0  0  0
  -23.2250  -14.9870   20.4620 O   0  0  0  0  0  0  0  0  0  0  0  0
  -23.1970  -12.4820   22.3570 H   0  0  0  0  0  0  0  0  0  0  0  0
  -22.0000  -13.7350   22.2110 H   0  0  0  0  0  0  0  0  0  0  0  0
  -26.3340  -15.3130   19.9760 N   0  0  0  0  0  0  0  0  0  0  0  0
  -25.6600  -16.0500   20.1470 H   0  0  0  0  0  0  0  0  0  0  0  0
  -27.2150  -15.6550   19.6140 H   0  0  0  0  0  0  0  0  0  0  0  0
  1  2  1  0
  1  4  1  0
  4  6  1  0
  4  3  1  0
  6  5  1  0
  8  6  1  0
  8  7  1  0
 10  9  1  0
 10  8  1  0
 11 10  1  0
 12 14  1  0
 12 11  1  0
 13 24  2  0
 14 19  1  0
 15 23  1  0
 15 25  1  0
 16 22  1  0
 16 18  1  0
 17 23  1  0
 18 17  1  0
 19 18  2  0
 20 21  1  0
 20 14  2  0
 21 16  2  0
 22 15  1  0
 23 13  1  0
 25 27  2  0
 26 25  1  0
 28 26  1  0
 29 38  2  0
 29 34  1  0
 30 26  1  0
 30 34  1  0
 31 30  1  0
 32 33  1  0
 32 31  1  0
 33 29  1  0
 34 35  2  0
 35 36  1  0
 37 36  2  0
 38 37  1  0
 39 13  1  0
 39 44  1  0
 39 40  1  0
 40 43  1  1
 40 41  1  0
 42 40  1  0
 44 47  1  0
 45 49  1  0
 45 44  1  0
 46 45  2  0
 49 48  1  0
 51 49  1  0
 51 52  1  0
 51 50  1  0
 53  1  1  0
 54 53  1  0
 57 56  1  6
 57 54  1  0
 57 55  1  0
 58 61  1  0
 58 59  1  0
 59 57  1  0
 59 62  1  0
 61 62  1  0
 62 60  1  0
 65 64  1  6
 65 63  1  0
 65 61  1  0
 66 65  1  0
 66 72  1  0
 67 72  1  0
 68 69  1  0
 68 67  1  0
 70 69  1  0
 70 77  1  0
 70 71  1  0
 72 71  1  0
 73 66  2  0
 74 75  2  0
 75 94  1  0
 76 75  1  0
 76 79  1  0
 77 78  1  0
 77 74  1  0
 78 76  2  0
 79 80  1  0
 80 81  2  0
 82 85  1  0
 82 81  1  0
 83 82  2  0
 84 83  1  0
 84 79  2  0
 85 86  1  0
 86 91  2  0
 86 87  1  0
 87 88  2  0
 88 89  1  0
 89 93  1  0
 90 89  2  0
 91 90  1  0
 92 91  1  0
 94 95  1  0
 95 98  1  0
 95 97  1  0
 96 94  2  0
 99100  1  0
 99 74  1  0
101 99  1  0
M  ISO  4  11 101  12 101  65 100  66 100
M  END
>  <TORSDO>  (62) 
F 26

>  <SCORE>  (62) 
-9.544

>  <name>  (62) 
65

>  <ligand_id>  (62) 
65

>  <original_smiles>  (62) 
[H]c1c([H])c([H])c2c(c1[H])C([H])([H])C([H])([H])C([H])([H])C2([H])N([H])C(=O)C1([H])N(C(=O)C([H])(N([H])C(=O)C([H])(N([H])C([H])([H])[H])C([H])([H])[H])C(C([H])([H])[H])(C([H])([H])[H])C([H])([H])[H])C([H])([H])c2c([H])c(OC([H])([H])C([H])(C([H])([H])[H])C([H])(C([H])([H])[H])C([H])(C([H])([H])[H])C([H])(C([H])([H])[H])C([H])(F)C([H])([H])C([H])([H])C(c3c([H])n(C(C(=O)N4C([H])([H])C([H])([H])C([H])([H])C([H])(n5nc(-c6c([H])c([H])c(Oc7c([H])c([H])c(F)c([H])c7F)c([H])c6[H])c(C(=O)N([H])[H])c5N([H])[H])C4([H])[H])(C([H])([H])[H])C([H])([H])[H])n3C([H])([H])[H])(C([H])([H])[H])C([H])([H])[H])c([H])c([H])c2C1([H])[H]

>  <smiles>  (62) 
[H]c1c([H])c([H])c2c(c1[H])C([H])([H])C([H])([H])C([H])([H])C2([H])N([H])C(=O)C1([H])N(C(=O)C([H])(N([H])C(=O)C([H])(N([H])C([H])([H])[H])C([H])([H])[H])C(C([H])([H])[H])(C([H])([H])[H])C([H])([H])[H])C([H])([H])c2c([H])c(OC([H])([H])C([H])(C([H])([H])[H])C([H])(C([H])([H])[H])C([H])(C([H])([H])[H])C([H])(C([H])([H])[H])C([H])(F)C([H])([H])C([H])([H])C(c3c([H])n(C(C(=O)N4C([H])([H])C([H])([H])C([H])([H])C([H])(n5nc(-c6c([H])c([H])c(Oc7c([H])c([H])c(F)c([H])c7F)c([H])c6[H])c(C(=O)N([H])[H])c5N([H])[H])C4([H])[H])(C([H])([H])[H])C([H])([H])[H])n3C([H])([H])[H])(C([H])([H])[H])C([H])([H])[H])c([H])c([H])c2C1([H])[H]

$$$$
66:0:0
     RDKit          3D

 99107  0  0  1  0  0  0  0  0999 V2000
  -30.3160  -19.9060   19.8320 C   0  0  1  0  0  0  0  0  0  0  0  0
  -28.4760  -22.7390   21.5930 C   0  0  0  0  0  2  0  0  0  0  0  0
  -28.6320  -23.8280   20.6940 C   0  0  0  0  0  0  0  0  0  0  0  0
  -29.5040  -21.2690   20.1070 C   0  0  0  0  0  0  0  0  0  0  0  0
  -28.9200  -21.4780   21.3050 N   0  0  0  0  0  0  0  0  0  0  0  0
  -29.2180  -23.5640   19.4990 N   0  0  0  0  0  0  0  0  0  0  0  0
  -29.6540  -22.3060   19.2290 N   0  0  0  0  0  2  0  0  0  0  0  0
  -28.0870  -25.2570   21.0730 C   0  0  0  0  0  2  0  0  0  0  0  0
  -28.3520  -26.4650   20.2640 O   0  0  0  0  0  0  0  0  0  0  0  0
  -24.6000  -31.8820   23.2030 C   0  0  0  0  0  0  0  0  0  0  0  0
  -27.2660  -27.3410   20.2030 C   0  0  0  0  0  0  0  0  0  0  0  0
  -23.4180  -30.4630   21.5630 C   0  0  0  0  0  3  0  0  0  0  0  0
  -24.8930  -28.9180   20.1560 C   0  0  0  0  0  0  0  0  0  0  0  0
  -25.9540  -30.8070   21.3930 C   0  0  0  0  0  2  0  0  0  0  0  0
  -26.0510  -29.4260   20.7590 C   0  0  0  0  0  0  0  0  0  0  0  0
  -27.2460  -28.6480   20.7740 C   0  0  0  0  0  3  0  0  0  0  0  0
  -26.0930  -26.8840   19.5680 C   0  0  0  0  0  3  0  0  0  0  0  0
  -24.9140  -27.6500   19.5500 C   0  0  0  0  0  3  0  0  0  0  0  0
  -23.6470  -29.7790   20.1890 C   0  0  0  0  0  2  0  0  0  0  0  0
  -24.6760  -31.0670   22.1110 N   0  0  0  0  0  0  0  0  0  0  0  0
  -23.5110  -32.1550   23.7280 O   0  0  0  0  0  0  0  0  0  0  0  0
  -22.7560  -29.4470   22.5260 C   0  0  0  0  0  0  0  0  0  0  0  0
  -21.4310  -29.2700   22.3980 N   0  0  0  0  0  0  0  0  0  0  0  0
  -23.4350  -28.8230   23.3450 O   0  0  0  0  0  0  0  0  0  0  0  0
  -20.9430  -29.8270   21.7100 H   0  0  0  0  0  0  0  0  0  0  0  0
  -18.0460  -28.1120   22.9300 C   0  0  0  0  0  0  0  0  0  0  0  0
  -20.6100  -28.3370   23.1710 C   0  0  0  0  0  3  0  0  0  0  0  0
  -20.6860  -26.9090   22.5810 C   0  0  0  0  0  2  0  0  0  0  0  0
  -19.5680  -26.6090   21.5770 C   0  0  0  0  0  2  0  0  0  0  0  0
  -18.1970  -26.7670   22.2390 C   0  0  0  0  0  2  0  0  0  0  0  0
  -19.1790  -28.8560   23.3520 C   0  0  0  0  0  0  0  0  0  0  0  0
  -18.9830  -30.1160   23.9580 C   0  0  0  0  0  3  0  0  0  0  0  0
  -17.6870  -30.6330   24.1440 C   0  0  0  0  0  3  0  0  0  0  0  0
  -16.5680  -29.8860   23.7380 C   0  0  0  0  0  3  0  0  0  0  0  0
  -16.7480  -28.6270   23.1360 C   0  0  0  0  0  3  0  0  0  0  0  0
  -25.8750  -32.5260   23.8300 C   0  0  0  0  0  3  0  0  0  0  0  0
  -25.5500  -33.9200   24.1610 N   0  0  0  0  0  0  0  0  0  0  0  0
  -25.8780  -34.9790   23.4070 C   0  0  0  0  0  0  0  0  0  0  0  0
  -26.5550  -34.8830   22.3800 O   0  0  0  0  0  0  0  0  0  0  0  0
  -24.9480  -34.0680   24.9590 H   0  0  0  0  0  0  0  0  0  0  0  0
  -24.1510  -36.7680   23.0280 C   0  0  0  0  0  1  0  0  0  0  0  0
  -25.3740  -36.3610   23.8640 C   0  0  0  0  0  3  0  0  0  0  0  0
  -27.4820  -37.2510   24.7560 C   0  0  0  0  0  1  0  0  0  0  0  0
  -26.4060  -37.4190   23.7830 N   0  0  0  0  0  0  0  0  0  0  0  0
  -25.9910  -38.3370   23.9240 H   0  0  0  0  0  0  0  0  0  0  0  0
  -26.3950  -31.7580   25.1070 C   0  0  1  0  0  0  0  0  0  0  0  0
  -25.2990  -31.5020   26.1680 C   0  0  0  0  0  1  0  0  0  0  0  0
  -26.9980  -30.3890   24.7140 C   0  0  0  0  0  1  0  0  0  0  0  0
  -27.5310  -32.5650   25.7780 C   0  0  0  0  0  1  0  0  0  0  0  0
  -30.5630  -19.8030   18.2750 C   0  0  1  0  0  0  0  0  0  0  0  0
  -31.4080  -20.7270   17.8110 F   0  0  0  0  0  0  0  0  0  0  0  0
  -31.0920  -18.6390   17.9060 F   0  0  0  0  0  0  0  0  0  0  0  0
  -29.4180  -19.9190   17.5950 F   0  0  0  0  0  0  0  0  0  0  0  0
  -31.6960  -20.0640   20.5500 C   0  0  2  0  0  0  0  0  0  0  0  0
  -31.5660  -19.8920   21.8680 F   0  0  0  0  0  0  0  0  0  0  0  0
  -32.2390  -21.2690   20.3630 F   0  0  0  0  0  0  0  0  0  0  0  0
  -32.5950  -19.1740   20.1260 F   0  0  0  0  0  0  0  0  0  0  0  0
  -29.6340  -18.4830   20.2910 C   0  0  1  0  0  0  0  0  0  0  0  0
  -29.1180  -18.6050   21.5150 F   0  0  0  0  0  0  0  0  0  0  0  0
  -28.6200  -18.1880   19.4760 F   0  0  0  0  0  0  0  0  0  0  0  0
  -30.5720  -17.1760   20.3900 C   0  0  0  0  0  2  0  0  0  0  0  0
  -30.6790  -14.6410   20.2840 C   0  0  0  0  0  0  0  0  0  0  0  0
  -30.3740  -12.4140   19.2380 C   0  0  0  0  0  2  0  0  0  0  0  0
  -29.4160  -12.5480   18.0360 C   0  0  0  0  0  2  0  0  0  0  0  0
  -27.9530  -12.4000   18.4940 C   0  0  0  0  0  2  0  0  0  0  0  0
  -27.6210  -13.2720   19.7350 C   0  0  0  0  0  3  0  0  0  0  0  0
  -28.7020  -13.1460   20.8320 C   0  0  0  0  0  2  0  0  0  0  0  0
  -29.9970  -13.4560   20.2160 N   0  0  0  0  0  0  0  0  0  0  0  0
  -31.8540  -14.7110   19.9130 O   0  0  0  0  0  0  0  0  0  0  0  0
  -29.9850  -15.7940   20.5470 N   0  0  0  0  0  0  0  0  0  0  0  0
  -29.0120  -15.7180   20.8020 H   0  0  0  0  0  0  0  0  0  0  0  0
  -25.2530  -13.8720   20.5210 C   0  0  0  0  0  0  0  0  0  0  0  0
  -24.1890  -13.1000   20.9010 C   0  0  0  0  0  0  0  0  0  0  0  0
  -24.6410  -11.7450   20.8390 C   0  0  0  0  0  0  0  0  0  0  0  0
  -26.2850  -12.9890   20.2490 N   0  0  0  0  0  0  0  0  0  0  0  0
  -25.9240  -11.7040   20.5030 N   0  0  0  0  0  0  0  0  0  0  0  0
  -23.9090  -10.4860   21.0240 C   0  0  0  0  0  0  0  0  0  0  0  0
  -24.3330   -9.5150   21.9580 C   0  0  0  0  0  3  0  0  0  0  0  0
  -23.6010   -8.3200   22.1320 C   0  0  0  0  0  3  0  0  0  0  0  0
  -22.4300   -8.0880   21.3700 C   0  0  0  0  0  0  0  0  0  0  0  0
  -22.0260   -9.0480   20.4250 C   0  0  0  0  0  3  0  0  0  0  0  0
  -22.7590  -10.2340   20.2500 C   0  0  0  0  0  3  0  0  0  0  0  0
  -21.6700   -6.9470   21.4520 O   0  0  0  0  0  0  0  0  0  0  0  0
  -21.5890   -6.2180   22.6110 C   0  0  0  0  0  0  0  0  0  0  0  0
  -21.0990   -6.7770   23.8110 C   0  0  0  0  0  3  0  0  0  0  0  0
  -20.9690   -5.9730   24.9610 C   0  0  0  0  0  3  0  0  0  0  0  0
  -21.3180   -4.6110   24.9130 C   0  0  0  0  0  0  0  0  0  0  0  0
  -21.8010   -4.0500   23.7170 C   0  0  0  0  0  3  0  0  0  0  0  0
  -21.9330   -4.8520   22.5690 C   0  0  0  0  0  0  0  0  0  0  0  0
  -22.3790   -4.3010   21.4140 F   0  0  0  0  0  0  0  0  0  0  0  0
  -21.1850   -3.8360   26.0140 F   0  0  0  0  0  0  0  0  0  0  0  0
  -22.8010  -13.5830   21.2090 C   0  0  0  0  0  0  0  0  0  0  0  0
  -22.0800  -12.8680   22.0660 N   0  0  0  0  0  0  0  0  0  0  0  0
  -22.3660  -14.6280   20.7270 O   0  0  0  0  0  0  0  0  0  0  0  0
  -22.4460  -12.0220   22.4770 H   0  0  0  0  0  0  0  0  0  0  0  0
  -21.1500  -13.1710   22.3150 H   0  0  0  0  0  0  0  0  0  0  0  0
  -25.4230  -15.2440   20.3590 N   0  0  0  0  0  0  0  0  0  0  0  0
  -24.6600  -15.8990   20.4940 H   0  0  0  0  0  0  0  0  0  0  0  0
  -26.2590  -15.6820   19.9980 H   0  0  0  0  0  0  0  0  0  0  0  0
  1  4  1  6
  1 58  1  0
  1 54  1  0
  3  8  1  0
  3  2  1  0
  4  5  2  0
  5  2  1  0
  6  3  2  0
  7  6  1  0
  7  4  1  0
  9  8  1  0
 10 21  2  0
 11  9  1  0
 11 16  1  0
 12 20  1  0
 12 22  1  0
 13 19  1  0
 13 15  1  0
 14 20  1  0
 15 16  2  0
 15 14  1  0
 17 11  2  0
 18 17  1  0
 18 13  2  0
 19 12  1  0
 20 10  1  0
 22 24  2  0
 23 22  1  0
 25 23  1  0
 26 35  2  0
 26 31  1  0
 27 23  1  0
 27 31  1  0
 28 27  1  0
 29 30  1  0
 29 28  1  0
 30 26  1  0
 31 32  2  0
 32 33  1  0
 34 33  2  0
 35 34  1  0
 36 10  1  0
 36 37  1  0
 36 46  1  0
 37 40  1  0
 38 42  1  0
 38 37  1  0
 39 38  2  0
 42 41  1  0
 44 42  1  0
 44 45  1  0
 44 43  1  0
 46 49  1  1
 46 47  1  0
 48 46  1  0
 50  1  1  0
 50 51  1  6
 52 50  1  0
 53 50  1  0
 54 55  1  1
 56 54  1  0
 57 54  1  0
 58 61  1  0
 58 59  1  1
 60 58  1  0
 61 70  1  0
 62 70  1  0
 63 68  1  0
 64 65  1  0
 64 63  1  0
 66 65  1  0
 66 75  1  0
 66 67  1  0
 68 62  1  0
 68 67  1  0
 69 62  2  0
 70 71  1  0
 72 73  2  0
 73 92  1  0
 74 73  1  0
 74 77  1  0
 75 76  1  0
 75 72  1  0
 76 74  2  0
 77 78  1  0
 78 79  2  0
 80 83  1  0
 80 79  1  0
 81 80  2  0
 82 81  1  0
 82 77  2  0
 83 84  1  0
 84 85  1  0
 85 86  2  0
 87 86  1  0
 87 91  1  0
 88 87  2  0
 89 84  2  0
 89 88  1  0
 90 89  1  0
 92 93  1  0
 93 96  1  0
 93 95  1  0
 94 92  2  0
 97 98  1  0
 97 72  1  0
 99 97  1  0
M  ISO  4   8 101   9 101  62 100  70 100
M  END
>  <TORSDO>  (63) 
F 22

>  <SCORE>  (63) 
-13.528

>  <name>  (63) 
66

>  <ligand_id>  (63) 
66

>  <original_smiles>  (63) 
[H]c1nc(C(C(F)(F)F)(C(F)(F)F)C(F)(F)C([H])([H])N([H])C(=O)N2C([H])([H])C([H])([H])C([H])([H])C([H])(n3nc(-c4c([H])c([H])c(Oc5c([H])c([H])c(F)c([H])c5F)c([H])c4[H])c(C(=O)N([H])[H])c3N([H])[H])C2([H])[H])nnc1C([H])([H])Oc1c([H])c([H])c2c(c1[H])C([H])([H])N(C(=O)C([H])(N([H])C(=O)C([H])(N([H])C([H])([H])[H])C([H])([H])[H])C(C([H])([H])[H])(C([H])([H])[H])C([H])([H])[H])C([H])(C(=O)N([H])C1([H])c3c([H])c([H])c([H])c([H])c3C([H])([H])C([H])([H])C1([H])[H])C2([H])[H]

>  <smiles>  (63) 
[H]c1nc(C(C(F)(F)F)(C(F)(F)F)C(F)(F)C([H])([H])N([H])C(=O)N2C([H])([H])C([H])([H])C([H])([H])C([H])(n3nc(-c4c([H])c([H])c(Oc5c([H])c([H])c(F)c([H])c5F)c([H])c4[H])c(C(=O)N([H])[H])c3N([H])[H])C2([H])[H])nnc1C([H])([H])Oc1c([H])c([H])c2c(c1[H])C([H])([H])N(C(=O)C([H])(N([H])C(=O)C([H])(N([H])C([H])([H])[H])C([H])([H])[H])C(C([H])([H])[H])(C([H])([H])[H])C([H])([H])[H])C([H])(C(=O)N([H])C1([H])c3c([H])c([H])c([H])c([H])c3C([H])([H])C([H])([H])C1([H])[H])C2([H])[H]

$$$$
67:0:0
     RDKit          3D

109117  0  0  1  0  0  0  0  0999 V2000
  -26.4360  -23.0690   20.9380 C   0  0  1  0  0  0  0  0  0  0  0  0
  -27.4070  -22.6780   21.7690 F   0  0  0  0  0  0  0  0  0  0  0  0
  -25.3870  -22.3220   21.3060 F   0  0  0  0  0  0  0  0  0  0  0  0
  -24.7250  -24.9020   20.7600 C   0  0  0  0  0  1  0  0  0  0  0  0
  -25.9650  -24.6020   22.8870 C   0  0  0  0  0  1  0  0  0  0  0  0
  -26.1250  -24.5770   21.3450 C   0  0  1  0  0  0  0  0  0  0  0  0
  -27.2660  -25.6100   20.8850 C   0  0  0  0  0  3  0  0  0  0  0  0
  -28.3420  -24.8730   20.6140 F   0  0  0  0  0  0  0  0  0  0  0  0
  -27.8050  -26.8610   21.7250 C   0  0  1  0  0  0  0  0  0  0  0  0
  -27.8850  -26.6250   23.0620 F   0  0  0  0  0  0  0  0  0  0  0  0
  -29.2770  -27.2160   21.3180 C   0  0  2  0  0  0  0  0  0  0  0  0
  -29.3740  -27.3860   19.9960 F   0  0  0  0  0  0  0  0  0  0  0  0
  -30.1610  -26.2860   21.6890 F   0  0  0  0  0  0  0  0  0  0  0  0
  -29.6590  -28.3580   21.8980 F   0  0  0  0  0  0  0  0  0  0  0  0
  -27.2140  -28.0790   21.4880 O   0  0  0  0  0  0  0  0  0  0  0  0
  -28.0680  -32.8430   26.7130 C   0  0  0  0  0  0  0  0  0  0  0  0
  -26.6670  -28.7730   22.5290 C   0  0  0  0  0  0  0  0  0  0  0  0
  -26.0260  -31.4580   26.8050 C   0  0  0  0  0  3  0  0  0  0  0  0
  -25.4930  -30.1220   24.7000 C   0  0  0  0  0  0  0  0  0  0  0  0
  -27.1360  -31.9980   24.5600 C   0  0  0  0  0  2  0  0  0  0  0  0
  -26.6110  -30.6730   24.0570 C   0  0  0  0  0  0  0  0  0  0  0  0
  -27.2140  -29.9950   22.9760 C   0  0  0  0  0  3  0  0  0  0  0  0
  -25.4910  -28.2870   23.1170 C   0  0  0  0  0  3  0  0  0  0  0  0
  -24.9260  -28.9240   24.2350 C   0  0  0  0  0  3  0  0  0  0  0  0
  -24.9260  -30.8840   25.8770 C   0  0  0  0  0  2  0  0  0  0  0  0
  -27.1350  -32.1150   26.0400 N   0  0  0  0  0  0  0  0  0  0  0  0
  -27.9900  -33.0090   27.9370 O   0  0  0  0  0  0  0  0  0  0  0  0
  -26.5100  -30.3370   27.7550 C   0  0  0  0  0  0  0  0  0  0  0  0
  -26.0170  -30.3670   29.0040 N   0  0  0  0  0  0  0  0  0  0  0  0
  -27.2820  -29.4610   27.3610 O   0  0  0  0  0  0  0  0  0  0  0  0
  -25.3970  -31.1230   29.2510 H   0  0  0  0  0  0  0  0  0  0  0  0
  -25.7170  -29.7580   32.5600 C   0  0  0  0  0  0  0  0  0  0  0  0
  -26.3030  -29.4000   30.0660 C   0  0  0  0  0  3  0  0  0  0  0  0
  -25.2470  -28.2700   30.0800 C   0  0  0  0  0  2  0  0  0  0  0  0
  -24.0910  -28.5410   31.0500 C   0  0  0  0  0  2  0  0  0  0  0  0
  -24.6070  -28.7230   32.4800 C   0  0  0  0  0  2  0  0  0  0  0  0
  -26.5020  -30.0860   31.4210 C   0  0  0  0  0  0  0  0  0  0  0  0
  -27.4970  -31.0810   31.5410 C   0  0  0  0  0  3  0  0  0  0  0  0
  -27.7210  -31.7330   32.7690 C   0  0  0  0  0  3  0  0  0  0  0  0
  -26.9480  -31.3960   33.8930 C   0  0  0  0  0  3  0  0  0  0  0  0
  -25.9490  -30.4110   33.7870 C   0  0  0  0  0  3  0  0  0  0  0  0
  -29.2670  -33.5180   25.9750 C   0  0  0  0  0  3  0  0  0  0  0  0
  -30.5860  -32.6530   26.0130 C   0  0  1  0  0  0  0  0  0  0  0  0
  -30.9240  -32.1030   27.4190 C   0  0  0  0  0  1  0  0  0  0  0  0
  -30.4880  -31.4520   25.0440 C   0  0  0  0  0  1  0  0  0  0  0  0
  -31.7770  -33.5110   25.5250 C   0  0  0  0  0  1  0  0  0  0  0  0
  -29.4840  -34.8250   26.6040 N   0  0  0  0  0  0  0  0  0  0  0  0
  -29.0250  -35.9860   26.1220 C   0  0  0  0  0  0  0  0  0  0  0  0
  -28.4270  -36.0750   25.0450 O   0  0  0  0  0  0  0  0  0  0  0  0
  -29.9280  -34.8210   27.5110 H   0  0  0  0  0  0  0  0  0  0  0  0
  -28.0010  -37.5890   27.7650 C   0  0  0  0  0  1  0  0  0  0  0  0
  -29.2690  -37.2510   26.9660 C   0  0  0  0  0  3  0  0  0  0  0  0
  -31.0090  -38.2860   25.5780 C   0  0  0  0  0  1  0  0  0  0  0  0
  -29.6770  -38.4230   26.1620 N   0  0  0  0  0  0  0  0  0  0  0  0
  -29.6600  -39.2710   26.7210 H   0  0  0  0  0  0  0  0  0  0  0  0
  -26.6840  -23.7440   18.3520 C   0  0  0  0  0  1  0  0  0  0  0  0
  -25.8780  -21.5190   18.9020 C   0  0  0  0  0  1  0  0  0  0  0  0
  -26.8080  -22.6410   19.4330 C   0  0  2  0  0  0  0  0  0  0  0  0
  -29.3910  -22.8390   19.2300 C   0  0  0  0  0  3  0  0  0  0  0  0
  -28.2390  -22.1290   19.4160 C   0  0  0  0  0  0  0  0  0  0  0  0
  -28.5930  -20.8360   19.8200 N   0  0  0  0  0  0  0  0  0  0  0  0
  -29.8780  -20.7550   19.9290 N   0  0  0  0  0  0  0  0  0  0  0  0
  -30.3910  -21.9630   19.5870 N   0  0  0  0  0  0  0  0  0  0  0  0
  -32.0810  -22.8380   21.1390 C   0  0  0  0  0  1  0  0  0  0  0  0
  -31.8120  -22.2540   19.7400 C   0  0  0  0  0  3  0  0  0  0  0  0
  -33.1320  -20.1790   20.5630 C   0  0  0  0  0  1  0  0  0  0  0  0
  -32.7190  -21.0410   19.3430 C   0  0  0  0  0  3  0  0  0  0  0  0
  -33.4450  -21.7140   16.9610 C   0  0  0  0  0  1  0  0  0  0  0  0
  -34.7390  -22.6010   18.8760 C   0  0  0  0  0  1  0  0  0  0  0  0
  -33.9280  -21.3790   18.3950 C   0  0  1  0  0  0  0  0  0  0  0  0
  -34.9250  -20.1840   18.3280 C   0  0  0  0  0  2  0  0  0  0  0  0
  -34.1170  -18.2820   16.9360 C   0  0  0  0  0  0  0  0  0  0  0  0
  -34.4870  -16.1130   15.8550 C   0  0  0  0  0  2  0  0  0  0  0  0
  -33.2430  -15.5290   15.1760 C   0  0  0  0  0  2  0  0  0  0  0  0
  -32.4280  -14.7020   16.1830 C   0  0  0  0  0  2  0  0  0  0  0  0
  -32.1390  -15.4800   17.4910 C   0  0  0  0  0  3  0  0  0  0  0  0
  -33.4160  -16.1410   18.0580 C   0  0  0  0  0  2  0  0  0  0  0  0
  -34.0640  -16.9330   16.9980 N   0  0  0  0  0  0  0  0  0  0  0  0
  -34.2420  -18.9060   15.8790 O   0  0  0  0  0  0  0  0  0  0  0  0
  -34.3230  -18.8650   18.1200 N   0  0  0  0  0  0  0  0  0  0  0  0
  -34.2780  -18.2580   18.9230 H   0  0  0  0  0  0  0  0  0  0  0  0
  -30.2900  -14.8050   19.1540 C   0  0  0  0  0  0  0  0  0  0  0  0
  -30.1000  -13.6740   19.9020 C   0  0  0  0  0  0  0  0  0  0  0  0
  -31.2170  -12.8260   19.6270 C   0  0  0  0  0  0  0  0  0  0  0  0
  -31.4860  -14.6180   18.4760 N   0  0  0  0  0  0  0  0  0  0  0  0
  -32.0640  -13.4340   18.8070 N   0  0  0  0  0  0  0  0  0  0  0  0
  -31.4970  -11.4460   20.0490 C   0  0  0  0  0  0  0  0  0  0  0  0
  -32.7880  -11.0490   20.4660 C   0  0  0  0  0  3  0  0  0  0  0  0
  -33.0270   -9.7240   20.8880 C   0  0  0  0  0  3  0  0  0  0  0  0
  -31.9730   -8.7800   20.8980 C   0  0  0  0  0  0  0  0  0  0  0  0
  -30.6970   -9.1740   20.4610 C   0  0  0  0  0  3  0  0  0  0  0  0
  -30.4600  -10.4930   20.0370 C   0  0  0  0  0  3  0  0  0  0  0  0
  -32.1190   -7.4660   21.2660 O   0  0  0  0  0  0  0  0  0  0  0  0
  -33.1830   -7.0430   22.0240 C   0  0  0  0  0  0  0  0  0  0  0  0
  -33.4420   -7.5760   23.3070 C   0  0  0  0  0  3  0  0  0  0  0  0
  -34.5050   -7.0660   24.0790 C   0  0  0  0  0  3  0  0  0  0  0  0
  -35.3000   -6.0170   23.5800 C   0  0  0  0  0  0  0  0  0  0  0  0
  -35.0390   -5.4820   22.3060 C   0  0  0  0  0  3  0  0  0  0  0  0
  -33.9810   -5.9900   21.5330 C   0  0  0  0  0  0  0  0  0  0  0  0
  -33.7220   -5.4580   20.3150 F   0  0  0  0  0  0  0  0  0  0  0  0
  -36.3160   -5.5210   24.3260 F   0  0  0  0  0  0  0  0  0  0  0  0
  -28.9050  -13.3520   20.7530 C   0  0  0  0  0  0  0  0  0  0  0  0
  -29.1010  -12.5840   21.8190 N   0  0  0  0  0  0  0  0  0  0  0  0
  -27.7980  -13.8260   20.5030 O   0  0  0  0  0  0  0  0  0  0  0  0
  -30.0130  -12.2080   22.0320 H   0  0  0  0  0  0  0  0  0  0  0  0
  -28.3260  -12.3640   22.4290 H   0  0  0  0  0  0  0  0  0  0  0  0
  -29.5420  -15.9650   18.9800 N   0  0  0  0  0  0  0  0  0  0  0  0
  -28.6540  -16.1140   19.4440 H   0  0  0  0  0  0  0  0  0  0  0  0
  -29.8060  -16.7330   18.3740 H   0  0  0  0  0  0  0  0  0  0  0  0
  1  3  1  1
  1  6  1  0
  1  2  1  0
  6  4  1  6
  6  5  1  0
  7  8  1  0
  7  6  1  0
  7  9  1  0
  9 10  1  1
 11 13  1  1
 11  9  1  0
 11 14  1  0
 12 11  1  0
 15  9  1  0
 15 17  1  0
 16 27  2  0
 17 22  2  0
 17 23  1  0
 18 28  1  0
 19 25  1  0
 20 26  1  0
 21 20  1  0
 21 19  2  0
 22 21  1  0
 23 24  2  0
 24 19  1  0
 25 18  1  0
 26 16  1  0
 26 18  1  0
 28 29  1  0
 29 31  1  0
 30 28  2  0
 32 41  1  0
 33 29  1  0
 33 34  1  0
 33 37  1  0
 34 35  1  0
 35 36  1  0
 36 32  1  0
 37 38  1  0
 37 32  2  0
 38 39  2  0
 39 40  1  0
 41 40  2  0
 42 43  1  0
 42 47  1  0
 42 16  1  0
 43 44  1  1
 45 43  1  0
 46 43  1  0
 47 50  1  0
 48 47  1  0
 48 52  1  0
 49 48  2  0
 52 51  1  0
 53 54  1  0
 54 55  1  0
 54 52  1  0
 58 56  1  6
 57 58  1  0
 58  1  1  0
 59 60  2  0
 59 63  1  0
 60 58  1  0
 60 61  1  0
 61 62  2  0
 63 65  1  0
 63 62  1  0
 65 64  1  0
 67 65  1  0
 67 66  1  0
 70 68  1  6
 70 69  1  0
 70 67  1  0
 71 70  1  0
 72 78  1  0
 72 80  1  0
 73 78  1  0
 74 73  1  0
 74 75  1  0
 76 75  1  0
 76 77  1  0
 76 85  1  0
 78 77  1  0
 79 72  2  0
 80 71  1  0
 80 81  1  0
 82 83  2  0
 83102  1  0
 84 83  1  0
 84 87  1  0
 85 86  1  0
 85 82  1  0
 86 84  2  0
 87 88  1  0
 88 89  2  0
 89 90  1  0
 90 93  1  0
 91 90  2  0
 92 87  2  0
 92 91  1  0
 93 94  1  0
 94 95  1  0
 95 96  2  0
 97 96  1  0
 97101  1  0
 98 97  2  0
 99 94  2  0
 99 98  1  0
100 99  1  0
102103  1  0
103105  1  0
103106  1  0
104102  2  0
107 82  1  0
107108  1  0
109107  1  0
M  ISO  4   9 101  15 101  72 100  80 100
M  END
>  <TORSDO>  (64) 
F 26

>  <SCORE>  (64) 
-4.213

>  <name>  (64) 
67

>  <ligand_id>  (64) 
67

>  <original_smiles>  (64) 
[H]c1c([H])c([H])c2c(c1[H])C([H])([H])C([H])([H])C([H])([H])C2([H])N([H])C(=O)C1([H])N(C(=O)C([H])(N([H])C(=O)C([H])(N([H])C([H])([H])[H])C([H])([H])[H])C(C([H])([H])[H])(C([H])([H])[H])C([H])([H])[H])C([H])([H])c2c([H])c(OC(F)(C(F)(F)F)C([H])(F)C(C([H])([H])[H])(C([H])([H])[H])C(F)(F)C(c3nnn(C([H])(C([H])([H])[H])C([H])(C([H])([H])[H])C(C([H])([H])[H])(C([H])([H])[H])C([H])([H])N([H])C(=O)N4C([H])([H])C([H])([H])C([H])([H])C([H])(n5nc(-c6c([H])c([H])c(Oc7c([H])c([H])c(F)c([H])c7F)c([H])c6[H])c(C(=O)N([H])[H])c5N([H])[H])C4([H])[H])c3[H])(C([H])([H])[H])C([H])([H])[H])c([H])c([H])c2C1([H])[H]

>  <smiles>  (64) 
[H]c1c([H])c([H])c2c(c1[H])C([H])([H])C([H])([H])C([H])([H])C2([H])N([H])C(=O)C1([H])N(C(=O)C([H])(N([H])C(=O)C([H])(N([H])C([H])([H])[H])C([H])([H])[H])C(C([H])([H])[H])(C([H])([H])[H])C([H])([H])[H])C([H])([H])c2c([H])c(OC(F)(C(F)(F)F)C([H])(F)C(C([H])([H])[H])(C([H])([H])[H])C(F)(F)C(c3nnn(C([H])(C([H])([H])[H])C([H])(C([H])([H])[H])C(C([H])([H])[H])(C([H])([H])[H])C([H])([H])N([H])C(=O)N4C([H])([H])C([H])([H])C([H])([H])C([H])(n5nc(-c6c([H])c([H])c(Oc7c([H])c([H])c(F)c([H])c7F)c([H])c6[H])c(C(=O)N([H])[H])c5N([H])[H])C4([H])[H])c3[H])(C([H])([H])[H])C([H])([H])[H])c([H])c([H])c2C1([H])[H]

$$$$
68:0:0
     RDKit          3D

109117  0  0  1  0  0  0  0  0999 V2000
  -31.9980  -20.8980   18.7510 C   0  0  1  0  0  0  0  0  0  0  0  0
  -33.2100  -21.2700   19.1700 F   0  0  0  0  0  0  0  0  0  0  0  0
  -32.1720  -19.8850   17.8990 F   0  0  0  0  0  0  0  0  0  0  0  0
  -29.8550  -19.7150   19.5860 C   0  0  0  0  0  1  0  0  0  0  0  0
  -31.1930  -20.3780   19.9870 C   0  0  2  0  0  0  0  0  0  0  0  0
  -30.8730  -21.4360   20.7340 F   0  0  0  0  0  0  0  0  0  0  0  0
  -32.0460  -19.4290   20.8940 C   0  0  1  0  0  0  0  0  0  0  0  0
  -32.2370  -18.2830   20.2490 F   0  0  0  0  0  0  0  0  0  0  0  0
  -33.2640  -19.9500   21.0660 F   0  0  0  0  0  0  0  0  0  0  0  0
  -31.3680  -19.9550   24.4610 C   0  0  0  0  0  3  0  0  0  0  0  0
  -30.5840  -18.1160   22.6520 C   0  0  0  0  0  0  0  0  0  0  0  0
  -30.1420  -18.0940   23.9900 C   0  0  0  0  0  0  0  0  0  0  0  0
  -31.4600  -19.1820   22.3010 C   0  0  0  0  0  0  0  0  0  0  0  0
  -29.2020  -17.0250   24.5220 C   0  0  0  0  0  1  0  0  0  0  0  0
  -30.5360  -19.0150   24.8820 N   0  0  0  0  0  0  0  0  0  0  0  0
  -31.8390  -20.0810   23.2330 N   0  0  0  0  0  0  0  0  0  0  0  0
  -30.1200  -17.0230   21.6720 C   0  0  0  0  0  2  0  0  0  0  0  0
  -31.0630  -15.2150   20.3510 C   0  0  0  0  0  0  0  0  0  0  0  0
  -30.8380  -12.9470   19.4440 C   0  0  0  0  0  2  0  0  0  0  0  0
  -29.8980  -12.8930   18.2340 C   0  0  0  0  0  2  0  0  0  0  0  0
  -28.4470  -12.6840   18.6990 C   0  0  0  0  0  2  0  0  0  0  0  0
  -28.0230  -13.7050   19.7840 C   0  0  0  0  0  3  0  0  0  0  0  0
  -29.0730  -13.7770   20.9170 C   0  0  0  0  0  2  0  0  0  0  0  0
  -30.4000  -14.0350   20.3260 N   0  0  0  0  0  0  0  0  0  0  0  0
  -31.9230  -15.5290   19.5220 O   0  0  0  0  0  0  0  0  0  0  0  0
  -32.2180  -15.8150   22.3580 C   0  0  0  0  0  1  0  0  0  0  0  0
  -31.0020  -15.8500   21.5370 N   0  0  0  0  0  0  0  0  0  0  0  0
  -25.6820  -14.2640   20.7050 C   0  0  0  0  0  0  0  0  0  0  0  0
  -24.6140  -13.4700   21.0300 C   0  0  0  0  0  0  0  0  0  0  0  0
  -25.0330  -12.1260   20.7850 C   0  0  0  0  0  0  0  0  0  0  0  0
  -26.6890  -13.4010   20.2990 N   0  0  0  0  0  0  0  0  0  0  0  0
  -26.3000  -12.1030   20.3950 N   0  0  0  0  0  0  0  0  0  0  0  0
  -24.2830  -10.8650   20.8430 C   0  0  0  0  0  0  0  0  0  0  0  0
  -24.6370   -9.8350   21.7420 C   0  0  0  0  0  3  0  0  0  0  0  0
  -23.8900   -8.6390   21.7910 C   0  0  0  0  0  3  0  0  0  0  0  0
  -22.7730   -8.4640   20.9400 C   0  0  0  0  0  0  0  0  0  0  0  0
  -22.4390   -9.4830   20.0310 C   0  0  0  0  0  3  0  0  0  0  0  0
  -23.1870  -10.6700   19.9780 C   0  0  0  0  0  3  0  0  0  0  0  0
  -22.0040   -7.3260   20.9030 O   0  0  0  0  0  0  0  0  0  0  0  0
  -21.7420   -6.5960   22.0350 C   0  0  0  0  0  0  0  0  0  0  0  0
  -21.0870   -7.1610   23.1510 C   0  0  0  0  0  3  0  0  0  0  0  0
  -20.7750   -6.3570   24.2660 C   0  0  0  0  0  3  0  0  0  0  0  0
  -21.1080   -4.9880   24.2630 C   0  0  0  0  0  0  0  0  0  0  0  0
  -21.7560   -4.4240   23.1500 C   0  0  0  0  0  3  0  0  0  0  0  0
  -22.0680   -5.2240   22.0380 C   0  0  0  0  0  0  0  0  0  0  0  0
  -22.6730   -4.6700   20.9600 F   0  0  0  0  0  0  0  0  0  0  0  0
  -20.8020   -4.2130   25.3290 F   0  0  0  0  0  0  0  0  0  0  0  0
  -23.2490  -13.9310   21.4550 C   0  0  0  0  0  0  0  0  0  0  0  0
  -22.5630  -13.1420   22.2720 N   0  0  0  0  0  0  0  0  0  0  0  0
  -22.8030  -15.0230   21.0990 O   0  0  0  0  0  0  0  0  0  0  0  0
  -22.9340  -12.2540   22.5760 H   0  0  0  0  0  0  0  0  0  0  0  0
  -21.6500  -13.4280   22.6010 H   0  0  0  0  0  0  0  0  0  0  0  0
  -25.8790  -15.6410   20.7050 N   0  0  0  0  0  0  0  0  0  0  0  0
  -25.1440  -16.2980   20.9480 H   0  0  0  0  0  0  0  0  0  0  0  0
  -26.7280  -16.0960   20.3910 H   0  0  0  0  0  0  0  0  0  0  0  0
  -31.4190  -22.0790   17.9140 C   0  0  2  0  0  0  0  0  0  0  0  0
  -30.3880  -21.6500   17.1840 F   0  0  0  0  0  0  0  0  0  0  0  0
  -32.3730  -22.4320   17.0500 F   0  0  0  0  0  0  0  0  0  0  0  0
  -30.9940  -23.3410   18.7120 C   0  0  1  0  0  0  0  0  0  0  0  0
  -30.1040  -22.9930   19.6370 F   0  0  0  0  0  0  0  0  0  0  0  0
  -32.0580  -23.8430   19.3390 F   0  0  0  0  0  0  0  0  0  0  0  0
  -30.3120  -24.4640   17.9020 C   0  0  2  0  0  0  0  0  0  0  0  0
  -29.1460  -23.9950   17.4480 F   0  0  0  0  0  0  0  0  0  0  0  0
  -31.0390  -24.7860   16.8300 F   0  0  0  0  0  0  0  0  0  0  0  0
  -30.0760  -25.7490   18.7430 C   0  0  2  0  0  0  0  0  0  0  0  0
  -31.1560  -26.5270   18.6610 F   0  0  0  0  0  0  0  0  0  0  0  0
  -29.8890  -25.4460   20.0280 F   0  0  0  0  0  0  0  0  0  0  0  0
  -28.8320  -26.5240   18.3020 C   0  0  0  0  0  2  0  0  0  0  0  0
  -28.6480  -27.6770   19.1210 O   0  0  0  0  0  0  0  0  0  0  0  0
  -24.4650  -31.8380   23.0650 C   0  0  0  0  0  0  0  0  0  0  0  0
  -27.3820  -28.2080   19.2570 C   0  0  0  0  0  0  0  0  0  0  0  0
  -23.3190  -30.5520   21.2920 C   0  0  0  0  0  3  0  0  0  0  0  0
  -24.8370  -29.3980   19.6070 C   0  0  0  0  0  0  0  0  0  0  0  0
  -25.7750  -31.2170   21.0380 C   0  0  0  0  0  2  0  0  0  0  0  0
  -25.9650  -29.9630   20.2140 C   0  0  0  0  0  0  0  0  0  0  0  0
  -27.2360  -29.3720   20.0430 C   0  0  0  0  0  3  0  0  0  0  0  0
  -26.2270  -27.6520   18.6510 C   0  0  0  0  0  3  0  0  0  0  0  0
  -24.9630  -28.2380   18.8280 C   0  0  0  0  0  3  0  0  0  0  0  0
  -23.5180  -30.0990   19.8230 C   0  0  0  0  0  2  0  0  0  0  0  0
  -24.5410  -31.2090   21.8580 N   0  0  0  0  0  0  0  0  0  0  0  0
  -23.3950  -31.9110   23.6830 O   0  0  0  0  0  0  0  0  0  0  0  0
  -22.8380  -29.3390   22.1190 C   0  0  0  0  0  0  0  0  0  0  0  0
  -21.5320  -29.0360   22.0350 N   0  0  0  0  0  0  0  0  0  0  0  0
  -23.6330  -28.6770   22.7920 O   0  0  0  0  0  0  0  0  0  0  0  0
  -20.9420  -29.6330   21.4720 H   0  0  0  0  0  0  0  0  0  0  0  0
  -18.3320  -27.4390   22.5230 C   0  0  0  0  0  0  0  0  0  0  0  0
  -20.8650  -27.9200   22.7040 C   0  0  0  0  0  3  0  0  0  0  0  0
  -21.0670  -26.6030   21.9200 C   0  0  0  0  0  2  0  0  0  0  0  0
  -19.9400  -26.3120   20.9260 C   0  0  0  0  0  2  0  0  0  0  0  0
  -18.5930  -26.2230   21.6510 C   0  0  0  0  0  2  0  0  0  0  0  0
  -19.3980  -28.2450   23.0040 C   0  0  0  0  0  0  0  0  0  0  0  0
  -19.0940  -29.3850   23.7810 C   0  0  0  0  0  3  0  0  0  0  0  0
  -17.7620  -29.7180   24.0840 C   0  0  0  0  0  3  0  0  0  0  0  0
  -16.7120  -28.9090   23.6160 C   0  0  0  0  0  3  0  0  0  0  0  0
  -16.9980  -27.7720   22.8400 C   0  0  0  0  0  3  0  0  0  0  0  0
  -25.7120  -32.5200   23.7090 C   0  0  0  0  0  3  0  0  0  0  0  0
  -26.2860  -31.7220   24.9430 C   0  0  1  0  0  0  0  0  0  0  0  0
  -25.2190  -31.3680   26.0060 C   0  0  0  0  0  1  0  0  0  0  0  0
  -26.9470  -30.4040   24.4770 C   0  0  0  0  0  1  0  0  0  0  0  0
  -27.3950  -32.5520   25.6350 C   0  0  0  0  0  1  0  0  0  0  0  0
  -25.3190  -33.8780   24.1040 N   0  0  0  0  0  0  0  0  0  0  0  0
  -25.6170  -34.9870   23.4130 C   0  0  0  0  0  0  0  0  0  0  0  0
  -26.3250  -34.9760   22.4020 O   0  0  0  0  0  0  0  0  0  0  0  0
  -24.6970  -33.9570   24.8970 H   0  0  0  0  0  0  0  0  0  0  0  0
  -23.8110  -36.7050   23.0830 C   0  0  0  0  0  1  0  0  0  0  0  0
  -25.0400  -36.3200   23.9240 C   0  0  0  0  0  3  0  0  0  0  0  0
  -27.0910  -37.2640   24.8880 C   0  0  0  0  0  1  0  0  0  0  0  0
  -26.0170  -37.4290   23.9120 N   0  0  0  0  0  0  0  0  0  0  0  0
  -25.5580  -38.3160   24.0970 H   0  0  0  0  0  0  0  0  0  0  0  0
  1  2  1  1
  1  5  1  0
  3  1  1  0
  5  4  1  6
  5  6  1  0
  5  7  1  0
  7  9  1  1
  7 13  1  0
  8  7  1  0
 10 15  1  0
 11 12  1  0
 12 14  1  0
 12 15  2  0
 13 11  2  0
 13 16  1  0
 16 10  2  0
 17 11  1  0
 18 27  1  0
 19 24  1  0
 20 21  1  0
 20 19  1  0
 22 21  1  0
 22 31  1  0
 22 23  1  0
 24 18  1  0
 24 23  1  0
 25 18  2  0
 27 17  1  0
 27 26  1  0
 28 53  1  0
 28 29  2  0
 29 48  1  0
 30 33  1  0
 30 29  1  0
 31 32  1  0
 31 28  1  0
 32 30  2  0
 33 34  1  0
 34 35  2  0
 36 35  1  0
 37 36  2  0
 38 37  1  0
 38 33  2  0
 39 36  1  0
 39 40  1  0
 40 45  2  0
 40 41  1  0
 41 42  2  0
 43 42  1  0
 43 47  1  0
 44 43  2  0
 45 44  1  0
 46 45  1  0
 48 49  1  0
 49 51  1  0
 49 52  1  0
 50 48  2  0
 53 54  1  0
 55 53  1  0
 56 59  1  0
 56  1  1  0
 56 57  1  6
 58 56  1  0
 59 61  1  1
 59 60  1  0
 62 59  1  0
 62 65  1  0
 62 63  1  6
 64 62  1  0
 65 67  1  1
 66 65  1  0
 68 65  1  0
 68 69  1  0
 69 71  1  0
 70 81  2  0
 71 76  1  0
 72 80  1  0
 72 82  1  0
 73 79  1  0
 73 75  1  0
 74 80  1  0
 75 74  1  0
 76 75  2  0
 77 78  1  0
 77 71  2  0
 78 73  2  0
 79 72  1  0
 80 70  1  0
 82 84  2  0
 83 82  1  0
 85 83  1  0
 86 95  2  0
 86 91  1  0
 87 83  1  0
 87 91  1  0
 88 87  1  0
 89 90  1  0
 89 88  1  0
 90 86  1  0
 91 92  2  0
 92 93  1  0
 94 93  2  0
 95 94  1  0
 96 70  1  0
 96101  1  0
 96 97  1  0
 97100  1  1
 97 98  1  0
 99 97  1  0
101104  1  0
102106  1  0
102101  1  0
103102  2  0
106105  1  0
108106  1  0
108109  1  0
108107  1  0
M  ISO  4  18 100  27 100  68 101  69 101
M  END
>  <TORSDO>  (65) 
F 25

>  <SCORE>  (65) 
-0.313

>  <name>  (65) 
68

>  <ligand_id>  (65) 
68

>  <original_smiles>  (65) 
[H]c1nc(C([H])([H])[H])c(C([H])([H])N(C(=O)N2C([H])([H])C([H])([H])C([H])([H])C([H])(n3nc(-c4c([H])c([H])c(Oc5c([H])c([H])c(F)c([H])c5F)c([H])c4[H])c(C(=O)N([H])[H])c3N([H])[H])C2([H])[H])C([H])([H])[H])c(C(F)(F)C(F)(C([H])([H])[H])C(F)(F)C(F)(F)C(F)(F)C(F)(F)C(F)(F)C([H])([H])Oc2c([H])c([H])c3c(c2[H])C([H])([H])N(C(=O)C([H])(N([H])C(=O)C([H])(N([H])C([H])([H])[H])C([H])([H])[H])C(C([H])([H])[H])(C([H])([H])[H])C([H])([H])[H])C([H])(C(=O)N([H])C2([H])c4c([H])c([H])c([H])c([H])c4C([H])([H])C([H])([H])C2([H])[H])C3([H])[H])n1

>  <smiles>  (65) 
[H]c1nc(C([H])([H])[H])c(C([H])([H])N(C(=O)N2C([H])([H])C([H])([H])C([H])([H])C([H])(n3nc(-c4c([H])c([H])c(Oc5c([H])c([H])c(F)c([H])c5F)c([H])c4[H])c(C(=O)N([H])[H])c3N([H])[H])C2([H])[H])C([H])([H])[H])c(C(F)(F)C(F)(C([H])([H])[H])C(F)(F)C(F)(F)C(F)(F)C(F)(F)C(F)(F)C([H])([H])Oc2c([H])c([H])c3c(c2[H])C([H])([H])N(C(=O)C([H])(N([H])C(=O)C([H])(N([H])C([H])([H])[H])C([H])([H])[H])C(C([H])([H])[H])(C([H])([H])[H])C([H])([H])[H])C([H])(C(=O)N([H])C2([H])c4c([H])c([H])c([H])c([H])c4C([H])([H])C([H])([H])C2([H])[H])C3([H])[H])n1

$$$$
69:0:0
     RDKit          3D

 95103  0  0  1  0  0  0  0  0999 V2000
  -28.1900  -20.7500   18.3220 C   0  0  0  0  0  3  0  0  0  0  0  0
  -29.2660  -19.7660   16.1730 C   0  0  0  0  0  1  0  0  0  0  0  0
  -30.7970  -20.6400   17.9710 C   0  0  0  0  0  1  0  0  0  0  0  0
  -29.5660  -22.1470   16.4790 C   0  0  0  0  0  1  0  0  0  0  0  0
  -29.4220  -20.8350   17.2860 C   0  0  2  0  0  0  0  0  0  0  0  0
  -26.7670  -22.7470   17.4660 C   0  0  0  0  0  1  0  0  0  0  0  0
  -26.1740  -21.7420   19.6070 C   0  0  0  0  0  1  0  0  0  0  0  0
  -27.4100  -22.0760   18.7190 C   0  0  1  0  0  0  0  0  0  0  0  0
  -28.3230  -23.0450   19.5360 C   0  0  0  0  0  2  0  0  0  0  0  0
  -27.7880  -24.4830   19.5960 C   0  0  0  0  0  2  0  0  0  0  0  0
  -28.4670  -25.4430   20.5850 C   0  0  0  0  0  2  0  0  0  0  0  0
  -28.4430  -26.8120   20.1630 O   0  0  0  0  0  0  0  0  0  0  0  0
  -24.5830  -31.9070   23.2870 C   0  0  0  0  0  0  0  0  0  0  0  0
  -27.2460  -27.4940   20.2000 C   0  0  0  0  0  0  0  0  0  0  0  0
  -23.3840  -30.5110   21.6370 C   0  0  0  0  0  3  0  0  0  0  0  0
  -24.8450  -28.9900   20.2160 C   0  0  0  0  0  0  0  0  0  0  0  0
  -25.9130  -30.8770   21.4530 C   0  0  0  0  0  2  0  0  0  0  0  0
  -26.0010  -29.5100   20.8120 C   0  0  0  0  0  0  0  0  0  0  0  0
  -27.2040  -28.7700   20.8030 C   0  0  0  0  0  3  0  0  0  0  0  0
  -26.0740  -27.0040   19.5770 C   0  0  0  0  0  3  0  0  0  0  0  0
  -24.8750  -27.7320   19.6000 C   0  0  0  0  0  3  0  0  0  0  0  0
  -23.6000  -29.8430   20.2560 C   0  0  0  0  0  2  0  0  0  0  0  0
  -24.6440  -31.1130   22.1830 N   0  0  0  0  0  0  0  0  0  0  0  0
  -23.5000  -32.1750   23.8250 O   0  0  0  0  0  0  0  0  0  0  0  0
  -22.7380  -29.4790   22.5880 C   0  0  0  0  0  0  0  0  0  0  0  0
  -21.4170  -29.2850   22.4460 N   0  0  0  0  0  0  0  0  0  0  0  0
  -23.4190  -28.8570   23.4080 O   0  0  0  0  0  0  0  0  0  0  0  0
  -20.9300  -29.8370   21.7540 H   0  0  0  0  0  0  0  0  0  0  0  0
  -18.0470  -28.0680   22.9120 C   0  0  0  0  0  0  0  0  0  0  0  0
  -20.6000  -28.3420   23.2090 C   0  0  0  0  0  3  0  0  0  0  0  0
  -20.7180  -26.9120   22.6350 C   0  0  0  0  0  2  0  0  0  0  0  0
  -19.6290  -26.5820   21.6100 C   0  0  0  0  0  2  0  0  0  0  0  0
  -18.2390  -26.7180   22.2390 C   0  0  0  0  0  2  0  0  0  0  0  0
  -19.1560  -28.8380   23.3510 C   0  0  0  0  0  0  0  0  0  0  0  0
  -18.9250  -30.1010   23.9370 C   0  0  0  0  0  3  0  0  0  0  0  0
  -17.6160  -30.5960   24.0880 C   0  0  0  0  0  3  0  0  0  0  0  0
  -16.5200  -29.8240   23.6650 C   0  0  0  0  0  3  0  0  0  0  0  0
  -16.7360  -28.5610   23.0820 C   0  0  0  0  0  3  0  0  0  0  0  0
  -25.8670  -32.5390   23.9100 C   0  0  0  0  0  3  0  0  0  0  0  0
  -25.5640  -33.9430   24.2140 N   0  0  0  0  0  0  0  0  0  0  0  0
  -25.9020  -34.9780   23.4350 C   0  0  0  0  0  0  0  0  0  0  0  0
  -26.5770  -34.8540   22.4090 O   0  0  0  0  0  0  0  0  0  0  0  0
  -24.9670  -34.1150   25.0090 H   0  0  0  0  0  0  0  0  0  0  0  0
  -24.1810  -36.7670   23.0360 C   0  0  0  0  0  1  0  0  0  0  0  0
  -25.4160  -36.3760   23.8630 C   0  0  0  0  0  3  0  0  0  0  0  0
  -27.5470  -37.2700   24.6900 C   0  0  0  0  0  1  0  0  0  0  0  0
  -26.4520  -37.4240   23.7350 N   0  0  0  0  0  0  0  0  0  0  0  0
  -26.0490  -38.3480   23.8620 H   0  0  0  0  0  0  0  0  0  0  0  0
  -26.3680  -31.7820   25.2010 C   0  0  1  0  0  0  0  0  0  0  0  0
  -25.2640  -31.5630   26.2610 C   0  0  0  0  0  1  0  0  0  0  0  0
  -26.9500  -30.3970   24.8330 C   0  0  0  0  0  1  0  0  0  0  0  0
  -27.5160  -32.5820   25.8610 C   0  0  0  0  0  1  0  0  0  0  0  0
  -28.5020  -19.8780   19.5930 C   0  0  0  0  0  2  0  0  0  0  0  0
  -28.6440  -18.3740   19.3130 C   0  0  0  0  0  2  0  0  0  0  0  0
  -30.7250  -14.4700   20.6350 C   0  0  0  0  0  0  0  0  0  0  0  0
  -30.3970  -12.3330   19.4710 C   0  0  0  0  0  2  0  0  0  0  0  0
  -29.5000  -12.5310   18.2340 C   0  0  0  0  0  2  0  0  0  0  0  0
  -28.0160  -12.3750   18.6190 C   0  0  0  0  0  2  0  0  0  0  0  0
  -27.6260  -13.2370   19.8470 C   0  0  0  0  0  3  0  0  0  0  0  0
  -28.6490  -13.0870   20.9940 C   0  0  0  0  0  2  0  0  0  0  0  0
  -29.9960  -13.3370   20.4660 N   0  0  0  0  0  0  0  0  0  0  0  0
  -31.9090  -14.5700   20.2920 O   0  0  0  0  0  0  0  0  0  0  0  0
  -30.7890  -16.7430   21.4500 C   0  0  0  0  0  2  0  0  0  0  0  0
  -29.1840  -17.5430   20.4270 C   0  0  0  0  0  0  0  0  0  0  0  0
  -30.2550  -17.9350   21.1870 N   0  0  0  0  0  0  0  0  0  0  0  0
  -28.9540  -16.2310   20.3840 N   0  0  0  0  0  2  0  0  0  0  0  0
  -30.0830  -15.7290   20.9420 N   0  0  0  0  0  0  0  0  0  0  0  0
  -25.2110  -13.8310   20.4940 C   0  0  0  0  0  0  0  0  0  0  0  0
  -24.1390  -13.0530   20.8370 C   0  0  0  0  0  0  0  0  0  0  0  0
  -24.6160  -11.7070   20.8400 C   0  0  0  0  0  0  0  0  0  0  0  0
  -26.2690  -12.9570   20.3000 N   0  0  0  0  0  0  0  0  0  0  0  0
  -25.9150  -11.6760   20.5720 N   0  0  0  0  0  0  0  0  0  0  0  0
  -23.9000  -10.4390   21.0230 C   0  0  0  0  0  0  0  0  0  0  0  0
  -24.3150   -9.4880   21.9810 C   0  0  0  0  0  3  0  0  0  0  0  0
  -23.5990   -8.2830   22.1490 C   0  0  0  0  0  3  0  0  0  0  0  0
  -22.4550   -8.0200   21.3580 C   0  0  0  0  0  0  0  0  0  0  0  0
  -22.0620   -8.9610   20.3880 C   0  0  0  0  0  3  0  0  0  0  0  0
  -22.7780  -10.1570   20.2180 C   0  0  0  0  0  3  0  0  0  0  0  0
  -21.7130   -6.8670   21.4340 O   0  0  0  0  0  0  0  0  0  0  0  0
  -21.6380   -6.1350   22.5920 C   0  0  0  0  0  0  0  0  0  0  0  0
  -21.1580   -6.6930   23.7960 C   0  0  0  0  0  3  0  0  0  0  0  0
  -21.0310   -5.8860   24.9450 C   0  0  0  0  0  3  0  0  0  0  0  0
  -21.3760   -4.5220   24.8890 C   0  0  0  0  0  0  0  0  0  0  0  0
  -21.8500   -3.9630   23.6890 C   0  0  0  0  0  3  0  0  0  0  0  0
  -21.9780   -4.7680   22.5430 C   0  0  0  0  0  0  0  0  0  0  0  0
  -22.4150   -4.2210   21.3830 F   0  0  0  0  0  0  0  0  0  0  0  0
  -21.2470   -3.7440   25.9890 F   0  0  0  0  0  0  0  0  0  0  0  0
  -22.7290  -13.5170   21.0590 C   0  0  0  0  0  0  0  0  0  0  0  0
  -21.9800  -12.8200   21.9060 N   0  0  0  0  0  0  0  0  0  0  0  0
  -22.2980  -14.5330   20.5160 O   0  0  0  0  0  0  0  0  0  0  0  0
  -22.3430  -12.0010   22.3720 H   0  0  0  0  0  0  0  0  0  0  0  0
  -21.0310  -13.1100   22.0940 H   0  0  0  0  0  0  0  0  0  0  0  0
  -25.3750  -15.2020   20.3100 N   0  0  0  0  0  0  0  0  0  0  0  0
  -24.6080  -15.8610   20.3860 H   0  0  0  0  0  0  0  0  0  0  0  0
  -26.2620  -15.6370   20.0900 H   0  0  0  0  0  0  0  0  0  0  0  0
  1  8  1  0
  1 53  1  0
  5  2  1  6
  4  5  1  0
  5  3  1  0
  5  1  1  0
  8  6  1  6
  8  9  1  0
  8  7  1  0
  9 10  1  0
 10 11  1  0
 12 14  1  0
 12 11  1  0
 13 24  2  0
 14 19  1  0
 15 23  1  0
 15 25  1  0
 16 22  1  0
 16 18  1  0
 17 23  1  0
 18 17  1  0
 19 18  2  0
 20 21  1  0
 20 14  2  0
 21 16  2  0
 22 15  1  0
 23 13  1  0
 25 27  2  0
 26 25  1  0
 28 26  1  0
 29 38  2  0
 29 34  1  0
 30 26  1  0
 30 34  1  0
 31 30  1  0
 32 33  1  0
 32 31  1  0
 33 29  1  0
 34 35  2  0
 35 36  1  0
 37 36  2  0
 38 37  1  0
 39 13  1  0
 39 40  1  0
 39 49  1  0
 40 43  1  0
 41 45  1  0
 41 40  1  0
 42 41  2  0
 45 44  1  0
 47 48  1  0
 47 45  1  0
 47 46  1  0
 49 52  1  1
 49 50  1  0
 51 49  1  0
 54 53  1  0
 54 64  1  0
 55 67  1  0
 56 61  1  0
 57 58  1  0
 57 56  1  0
 59 58  1  0
 59 71  1  0
 59 60  1  0
 61 55  1  0
 61 60  1  0
 62 55  2  0
 64 65  2  0
 65 63  1  0
 66 64  1  0
 66 67  1  0
 67 63  1  0
 68 69  2  0
 69 70  1  0
 69 88  1  0
 70 73  1  0
 71 68  1  0
 71 72  1  0
 72 70  2  0
 73 74  1  0
 74 75  2  0
 76 79  1  0
 76 75  1  0
 77 76  2  0
 78 77  1  0
 78 73  2  0
 79 80  1  0
 80 81  1  0
 81 82  2  0
 83 82  1  0
 83 87  1  0
 84 83  2  0
 85 80  2  0
 85 84  1  0
 86 85  1  0
 88 89  1  0
 89 92  1  0
 89 91  1  0
 90 88  2  0
 93 94  1  0
 93 68  1  0
 95 93  1  0
M  ISO  4  11 101  12 101  55 100  67 100
M  END
>  <TORSDO>  (66) 
F 23

>  <SCORE>  (66) 
-12.515

>  <name>  (66) 
69

>  <ligand_id>  (66) 
69

>  <original_smiles>  (66) 
[H]c1c([H])c([H])c2c(c1[H])C([H])([H])C([H])([H])C([H])([H])C2([H])N([H])C(=O)C1([H])N(C(=O)C([H])(N([H])C(=O)C([H])(N([H])C([H])([H])[H])C([H])([H])[H])C(C([H])([H])[H])(C([H])([H])[H])C([H])([H])[H])C([H])([H])c2c([H])c(OC([H])([H])C([H])([H])C([H])([H])C(C([H])([H])[H])(C([H])([H])[H])C([H])(C([H])([H])C([H])([H])c3nc([H])n(C(=O)N4C([H])([H])C([H])([H])C([H])([H])C([H])(n5nc(-c6c([H])c([H])c(Oc7c([H])c([H])c(F)c([H])c7F)c([H])c6[H])c(C(=O)N([H])[H])c5N([H])[H])C4([H])[H])n3)C(C([H])([H])[H])(C([H])([H])[H])C([H])([H])[H])c([H])c([H])c2C1([H])[H]

>  <smiles>  (66) 
[H]c1c([H])c([H])c2c(c1[H])C([H])([H])C([H])([H])C([H])([H])C2([H])N([H])C(=O)C1([H])N(C(=O)C([H])(N([H])C(=O)C([H])(N([H])C([H])([H])[H])C([H])([H])[H])C(C([H])([H])[H])(C([H])([H])[H])C([H])([H])[H])C([H])([H])c2c([H])c(OC([H])([H])C([H])([H])C([H])([H])C(C([H])([H])[H])(C([H])([H])[H])C([H])(C([H])([H])C([H])([H])c3nc([H])n(C(=O)N4C([H])([H])C([H])([H])C([H])([H])C([H])(n5nc(-c6c([H])c([H])c(Oc7c([H])c([H])c(F)c([H])c7F)c([H])c6[H])c(C(=O)N([H])[H])c5N([H])[H])C4([H])[H])n3)C(C([H])([H])[H])(C([H])([H])[H])C([H])([H])[H])c([H])c([H])c2C1([H])[H]

$$$$
70:0:0
     RDKit          3D

102110  0  0  1  0  0  0  0  0999 V2000
  -33.2750  -17.6590   19.4280 C   0  0  0  0  0  3  0  0  0  0  0  0
  -32.5200  -18.7070   19.9020 C   0  0  0  0  0  0  0  0  0  0  0  0
  -31.7140  -16.7690   20.7300 C   0  0  0  0  0  3  0  0  0  0  0  0
  -31.5570  -18.1160   20.7260 N   0  0  0  0  0  0  0  0  0  0  0  0
  -32.7490  -16.5170   19.9370 N   0  0  0  0  0  0  0  0  0  0  0  0
  -33.0050  -15.5680   19.6660 H   0  0  0  0  0  0  0  0  0  0  0  0
  -33.7410  -20.3500   18.4540 C   0  0  0  0  0  1  0  0  0  0  0  0
  -33.2230  -20.9480   20.8000 C   0  0  0  0  0  1  0  0  0  0  0  0
  -32.6740  -20.1880   19.5660 C   0  0  2  0  0  0  0  0  0  0  0  0
  -30.7780  -20.0590   17.7820 C   0  0  0  0  0  1  0  0  0  0  0  0
  -31.3120  -20.7700   19.0530 C   0  0  0  0  0  3  0  0  0  0  0  0
  -31.3000  -22.3030   18.8480 C   0  0  0  0  0  2  0  0  0  0  0  0
  -29.8850  -22.9000   18.9150 C   0  0  0  0  0  2  0  0  0  0  0  0
  -29.8620  -24.4240   18.7610 C   0  0  0  0  0  2  0  0  0  0  0  0
  -28.4340  -24.9710   18.8750 C   0  0  0  0  0  2  0  0  0  0  0  0
  -28.4850  -26.3910   18.8770 O   0  0  0  0  0  0  0  0  0  0  0  0
  -24.8090  -30.9240   22.9210 C   0  0  0  0  0  0  0  0  0  0  0  0
  -27.2920  -27.0550   19.0530 C   0  0  0  0  0  0  0  0  0  0  0  0
  -23.5240  -29.8080   21.1280 C   0  0  0  0  0  3  0  0  0  0  0  0
  -24.9050  -28.5200   19.4160 C   0  0  0  0  0  0  0  0  0  0  0  0
  -26.0410  -30.1930   20.8830 C   0  0  0  0  0  2  0  0  0  0  0  0
  -26.0890  -28.9460   20.0290 C   0  0  0  0  0  0  0  0  0  0  0  0
  -27.2870  -28.2230   19.8410 C   0  0  0  0  0  3  0  0  0  0  0  0
  -26.0880  -26.6290   18.4460 C   0  0  0  0  0  3  0  0  0  0  0  0
  -24.8980  -27.3590   18.6240 C   0  0  0  0  0  3  0  0  0  0  0  0
  -23.6710  -29.3630   19.6490 C   0  0  0  0  0  2  0  0  0  0  0  0
  -24.8120  -30.3110   21.7050 N   0  0  0  0  0  0  0  0  0  0  0  0
  -23.7540  -31.1090   23.5420 O   0  0  0  0  0  0  0  0  0  0  0  0
  -22.9030  -28.6440   21.9330 C   0  0  0  0  0  0  0  0  0  0  0  0
  -21.5790  -28.4670   21.8010 N   0  0  0  0  0  0  0  0  0  0  0  0
  -23.6080  -27.9120   22.6310 O   0  0  0  0  0  0  0  0  0  0  0  0
  -21.0680  -29.1160   21.2200 H   0  0  0  0  0  0  0  0  0  0  0  0
  -18.2270  -27.1820   22.1780 C   0  0  0  0  0  0  0  0  0  0  0  0
  -20.7870  -27.4180   22.4400 C   0  0  0  0  0  3  0  0  0  0  0  0
  -20.8880  -26.0910   21.6550 C   0  0  0  0  0  2  0  0  0  0  0  0
  -19.7700  -25.9140   20.6220 C   0  0  0  0  0  2  0  0  0  0  0  0
  -18.4000  -25.9490   21.3080 C   0  0  0  0  0  2  0  0  0  0  0  0
  -19.3500  -27.8810   22.6970 C   0  0  0  0  0  0  0  0  0  0  0  0
  -19.1360  -29.0400   23.4720 C   0  0  0  0  0  3  0  0  0  0  0  0
  -17.8340  -29.5030   23.7340 C   0  0  0  0  0  3  0  0  0  0  0  0
  -16.7270  -28.7990   23.2340 C   0  0  0  0  0  3  0  0  0  0  0  0
  -16.9240  -27.6390   22.4610 C   0  0  0  0  0  3  0  0  0  0  0  0
  -26.1270  -31.4420   23.5770 C   0  0  0  0  0  3  0  0  0  0  0  0
  -26.7320  -30.4390   24.6350 C   0  0  1  0  0  0  0  0  0  0  0  0
  -25.7050  -29.9400   25.6760 C   0  0  0  0  0  1  0  0  0  0  0  0
  -27.3270  -29.1980   23.9290 C   0  0  0  0  0  1  0  0  0  0  0  0
  -27.8950  -31.1140   25.4010 C   0  0  0  0  0  1  0  0  0  0  0  0
  -25.8310  -32.7390   24.1990 N   0  0  0  0  0  0  0  0  0  0  0  0
  -26.1370  -33.9260   23.6600 C   0  0  0  0  0  0  0  0  0  0  0  0
  -26.7680  -34.0420   22.6050 O   0  0  0  0  0  0  0  0  0  0  0  0
  -25.2650  -32.7220   25.0340 H   0  0  0  0  0  0  0  0  0  0  0  0
  -24.4000  -35.7440   23.7280 C   0  0  0  0  0  1  0  0  0  0  0  0
  -25.6630  -35.1880   24.4050 C   0  0  0  0  0  3  0  0  0  0  0  0
  -27.8140  -35.8930   25.3570 C   0  0  0  0  0  1  0  0  0  0  0  0
  -26.6950  -36.2450   24.4880 N   0  0  0  0  0  0  0  0  0  0  0  0
  -26.2930  -37.1130   24.8330 H   0  0  0  0  0  0  0  0  0  0  0  0
  -30.4910  -18.7690   21.5200 C   0  0  0  0  0  2  0  0  0  0  0  0
  -29.1530  -20.9490   21.3350 C   0  0  0  0  0  1  0  0  0  0  0  0
  -29.5170  -19.6140   20.6720 C   0  0  0  0  0  2  0  0  0  0  0  0
  -30.9570  -15.6960   21.5070 C   0  0  0  0  0  3  0  0  0  0  0  0
  -30.0390  -14.5580   19.3970 C   0  0  0  0  0  0  0  0  0  0  0  0
  -29.2950  -12.8370   17.7970 C   0  0  0  0  0  2  0  0  0  0  0  0
  -28.0770  -13.2590   16.9590 C   0  0  0  0  0  2  0  0  0  0  0  0
  -26.7680  -12.9570   17.7070 C   0  0  0  0  0  2  0  0  0  0  0  0
  -26.7810  -13.4810   19.1660 C   0  0  0  0  0  3  0  0  0  0  0  0
  -28.0740  -13.0610   19.8980 C   0  0  0  0  0  2  0  0  0  0  0  0
  -29.2270  -13.5170   19.0990 N   0  0  0  0  0  0  0  0  0  0  0  0
  -30.8410  -15.0350   18.5880 O   0  0  0  0  0  0  0  0  0  0  0  0
  -30.0020  -14.9350   20.6820 N   0  0  0  0  0  0  0  0  0  0  0  0
  -29.2910  -14.4560   21.2140 H   0  0  0  0  0  0  0  0  0  0  0  0
  -24.5600  -13.8160   20.4270 C   0  0  0  0  0  0  0  0  0  0  0  0
  -23.6630  -12.9210   20.9440 C   0  0  0  0  0  0  0  0  0  0  0  0
  -24.2050  -11.6230   20.6880 C   0  0  0  0  0  0  0  0  0  0  0  0
  -25.5910  -13.0540   19.8970 N   0  0  0  0  0  0  0  0  0  0  0  0
  -25.3920  -11.7280   20.1060 N   0  0  0  0  0  0  0  0  0  0  0  0
  -23.6350  -10.2890   20.9120 C   0  0  0  0  0  0  0  0  0  0  0  0
  -24.2130   -9.3820   21.8290 C   0  0  0  0  0  3  0  0  0  0  0  0
  -23.6370   -8.1100   22.0390 C   0  0  0  0  0  3  0  0  0  0  0  0
  -22.4720   -7.7330   21.3300 C   0  0  0  0  0  0  0  0  0  0  0  0
  -21.9160   -8.6300   20.4030 C   0  0  0  0  0  3  0  0  0  0  0  0
  -22.4920   -9.8930   20.1900 C   0  0  0  0  0  3  0  0  0  0  0  0
  -21.8530   -6.5110   21.4520 O   0  0  0  0  0  0  0  0  0  0  0  0
  -21.7820   -5.8570   22.6560 C   0  0  0  0  0  0  0  0  0  0  0  0
  -21.2110   -6.4600   23.7980 C   0  0  0  0  0  3  0  0  0  0  0  0
  -21.0970   -5.7270   24.9960 C   0  0  0  0  0  3  0  0  0  0  0  0
  -21.5430   -4.3920   25.0530 C   0  0  0  0  0  0  0  0  0  0  0  0
  -22.1050   -3.7890   23.9150 C   0  0  0  0  0  3  0  0  0  0  0  0
  -22.2230   -4.5190   22.7190 C   0  0  0  0  0  0  0  0  0  0  0  0
  -22.7470   -3.9250   21.6180 F   0  0  0  0  0  0  0  0  0  0  0  0
  -21.4260   -3.6870   26.2030 F   0  0  0  0  0  0  0  0  0  0  0  0
  -22.3310  -13.2420   21.5560 C   0  0  0  0  0  0  0  0  0  0  0  0
  -21.9100  -12.4670   22.5490 N   0  0  0  0  0  0  0  0  0  0  0  0
  -21.6740  -14.2130   21.1820 O   0  0  0  0  0  0  0  0  0  0  0  0
  -22.4550  -11.6790   22.8650 H   0  0  0  0  0  0  0  0  0  0  0  0
  -21.0250  -12.6600   22.9970 H   0  0  0  0  0  0  0  0  0  0  0  0
  -24.5740  -15.2060   20.3460 N   0  0  0  0  0  0  0  0  0  0  0  0
  -23.8070  -15.7800   20.6810 H   0  0  0  0  0  0  0  0  0  0  0  0
  -25.3090  -15.7490   19.9070 H   0  0  0  0  0  0  0  0  0  0  0  0
  -31.0510  -13.4860   22.7570 C   0  0  0  0  0  1  0  0  0  0  0  0
  -32.2100  -15.4750   23.7320 C   0  0  0  0  0  1  0  0  0  0  0  0
  -33.1600  -14.3370   21.7280 C   0  0  0  0  0  1  0  0  0  0  0  0
  -31.8430  -14.7680   22.4100 C   0  0  2  0  0  0  0  0  0  0  0  0
  1  2  2  0
  1  5  1  0
  2  4  1  0
  3 60  1  0
  4  3  1  0
  4 57  1  0
  5  3  1  0
  6  5  1  0
  9  7  1  6
  9  2  1  0
  9  8  1  0
 11 10  1  0
 11  9  1  0
 12 13  1  0
 12 11  1  0
 14 15  1  0
 14 13  1  0
 15 16  1  0
 16 18  1  0
 17 28  2  0
 18 23  1  0
 19 27  1  0
 19 29  1  0
 20 26  1  0
 20 22  1  0
 21 27  1  0
 22 21  1  0
 23 22  2  0
 24 25  1  0
 24 18  2  0
 25 20  2  0
 26 19  1  0
 27 17  1  0
 29 31  2  0
 30 29  1  0
 32 30  1  0
 33 42  2  0
 33 38  1  0
 34 30  1  0
 34 38  1  0
 35 34  1  0
 36 37  1  0
 36 35  1  0
 37 33  1  0
 38 39  2  0
 39 40  1  0
 41 40  2  0
 42 41  1  0
 43 17  1  0
 43 48  1  0
 43 44  1  0
 44 47  1  1
 44 45  1  0
 46 44  1  0
 48 51  1  0
 49 48  1  0
 49 53  1  0
 50 49  2  0
 53 52  1  0
 53 55  1  0
 55 56  1  0
 55 54  1  0
 59 58  1  0
 59 57  1  0
 60 69  1  0
 60102  1  0
 61 69  1  0
 62 67  1  0
 63 64  1  0
 63 62  1  0
 65 64  1  0
 65 74  1  0
 65 66  1  0
 67 61  1  0
 67 66  1  0
 68 61  2  0
 69 70  1  0
 71 72  2  0
 72 91  1  0
 73 76  1  0
 73 72  1  0
 74 75  1  0
 74 71  1  0
 75 73  2  0
 76 77  1  0
 77 78  2  0
 79 82  1  0
 79 78  1  0
 80 79  2  0
 81 80  1  0
 81 76  2  0
 82 83  1  0
 83 88  2  0
 83 84  1  0
 84 85  2  0
 85 86  1  0
 86 90  1  0
 87 86  2  0
 88 87  1  0
 89 88  1  0
 91 92  1  0
 92 94  1  0
 92 95  1  0
 93 91  2  0
 96 71  1  0
 96 97  1  0
 98 96  1  0
102101  1  6
102 99  1  0
102100  1  0
M  ISO  4  15 101  16 101  61 100  69 100
M  END
>  <TORSDO>  (67) 
F 26

>  <SCORE>  (67) 
0.658

>  <name>  (67) 
70

>  <ligand_id>  (67) 
70

>  <original_smiles>  (67) 
[H]c1c([H])c([H])c2c(c1[H])C([H])([H])C([H])([H])C([H])([H])C2([H])N([H])C(=O)C1([H])N(C(=O)C([H])(N([H])C(=O)C([H])(N([H])C([H])([H])[H])C([H])([H])[H])C(C([H])([H])[H])(C([H])([H])[H])C([H])([H])[H])C([H])([H])c2c([H])c(OC([H])([H])C([H])([H])C([H])([H])C([H])([H])C([H])(C([H])([H])[H])C(c3c([H])[n+]([H])c(C([H])(N([H])C(=O)N4C([H])([H])C([H])([H])C([H])([H])C([H])(n5nc(-c6c([H])c([H])c(Oc7c([H])c([H])c(F)c([H])c7F)c([H])c6[H])c(C(=O)N([H])[H])c5N([H])[H])C4([H])[H])C(C([H])([H])[H])(C([H])([H])[H])C([H])([H])[H])n3C([H])([H])C([H])([H])C([H])([H])[H])(C([H])([H])[H])C([H])([H])[H])c([H])c([H])c2C1([H])[H]

>  <smiles>  (67) 
[H]c1c([H])c([H])c2c(c1[H])C([H])([H])C([H])([H])C([H])([H])C2([H])N([H])C(=O)C1([H])N(C(=O)C([H])(N([H])C(=O)C([H])(N([H])C([H])([H])[H])C([H])([H])[H])C(C([H])([H])[H])(C([H])([H])[H])C([H])([H])[H])C([H])([H])c2c([H])c(OC([H])([H])C([H])([H])C([H])([H])C([H])([H])C([H])(C([H])([H])[H])C(c3c([H])[n+]([H])c(C([H])(N([H])C(=O)N4C([H])([H])C([H])([H])C([H])([H])C([H])(n5nc(-c6c([H])c([H])c(Oc7c([H])c([H])c(F)c([H])c7F)c([H])c6[H])c(C(=O)N([H])[H])c5N([H])[H])C4([H])[H])C(C([H])([H])[H])(C([H])([H])[H])C([H])([H])[H])n3C([H])([H])C([H])([H])C([H])([H])[H])(C([H])([H])[H])C([H])([H])[H])c([H])c([H])c2C1([H])[H]

$$$$
71:0:0
     RDKit          3D

110118  0  0  1  0  0  0  0  0999 V2000
  -30.1230  -22.5960   22.8100 C   0  0  0  0  0  3  0  0  0  0  0  0
  -30.0260  -21.9120   23.9540 F   0  0  0  0  0  0  0  0  0  0  0  0
  -28.3690  -21.2280   21.5160 C   0  0  0  0  0  1  0  0  0  0  0  0
  -29.8550  -21.6300   21.5950 C   0  0  1  0  0  0  0  0  0  0  0  0
  -30.1170  -22.4700   20.6350 F   0  0  0  0  0  0  0  0  0  0  0  0
  -32.1430  -20.9370   20.5670 C   0  0  0  0  0  1  0  0  0  0  0  0
  -31.3960  -19.9450   22.6990 C   0  0  0  0  0  1  0  0  0  0  0  0
  -30.8750  -20.4360   21.3110 C   0  0  1  0  0  0  0  0  0  0  0  0
  -30.7080  -17.9220   20.9070 C   0  0  0  0  0  3  0  0  0  0  0  0
  -30.4150  -17.0810   19.8780 C   0  0  0  0  0  0  0  0  0  0  0  0
  -29.7800  -19.1240   19.2460 C   0  0  0  0  0  3  0  0  0  0  0  0
  -30.3660  -19.2240   20.5050 N   0  0  0  0  0  0  0  0  0  0  0  0
  -29.7640  -17.8190   18.9580 N   0  0  0  0  0  0  0  0  0  0  0  0
  -29.4530  -17.4800   18.0590 H   0  0  0  0  0  0  0  0  0  0  0  0
  -31.5500  -14.9320   20.4210 C   0  0  0  0  0  0  0  0  0  0  0  0
  -31.2990  -12.5650   19.8400 C   0  0  0  0  0  2  0  0  0  0  0  0
  -30.4590  -12.4550   18.5430 C   0  0  0  0  0  2  0  0  0  0  0  0
  -28.9520  -12.4860   18.8520 C   0  0  0  0  0  2  0  0  0  0  0  0
  -28.5320  -13.5930   19.8620 C   0  0  0  0  0  3  0  0  0  0  0  0
  -29.4940  -13.6480   21.0700 C   0  0  0  0  0  2  0  0  0  0  0  0
  -30.8610  -13.7700   20.5520 N   0  0  0  0  0  0  0  0  0  0  0  0
  -32.7800  -14.9870   20.4320 O   0  0  0  0  0  0  0  0  0  0  0  0
  -31.3710  -15.6920   18.1640 C   0  0  0  0  0  1  0  0  0  0  0  0
  -30.9220  -15.7800   19.5680 N   0  0  0  0  0  0  0  0  0  0  0  0
  -26.1570  -14.3840   20.4700 C   0  0  0  0  0  0  0  0  0  0  0  0
  -25.0120  -13.6940   20.7630 C   0  0  0  0  0  0  0  0  0  0  0  0
  -25.3640  -12.3120   20.7290 C   0  0  0  0  0  0  0  0  0  0  0  0
  -27.1400  -13.4250   20.2790 N   0  0  0  0  0  0  0  0  0  0  0  0
  -26.6640  -12.1740   20.4990 N   0  0  0  0  0  0  0  0  0  0  0  0
  -24.5300  -11.1110   20.8420 C   0  0  0  0  0  0  0  0  0  0  0  0
  -24.8740  -10.0600   21.7180 C   0  0  0  0  0  3  0  0  0  0  0  0
  -24.0500   -8.9190   21.8280 C   0  0  0  0  0  3  0  0  0  0  0  0
  -22.8630   -8.8280   21.0620 C   0  0  0  0  0  0  0  0  0  0  0  0
  -22.5380   -9.8660   20.1730 C   0  0  0  0  0  3  0  0  0  0  0  0
  -23.3630  -10.9980   20.0610 C   0  0  0  0  0  3  0  0  0  0  0  0
  -22.0140   -7.7470   21.0820 O   0  0  0  0  0  0  0  0  0  0  0  0
  -21.9100   -6.9340   22.1820 C   0  0  0  0  0  0  0  0  0  0  0  0
  -21.5450   -7.4380   23.4500 C   0  0  0  0  0  3  0  0  0  0  0  0
  -21.3860   -6.5560   24.5380 C   0  0  0  0  0  3  0  0  0  0  0  0
  -21.5780   -5.1730   24.3580 C   0  0  0  0  0  0  0  0  0  0  0  0
  -21.9290   -4.6690   23.0940 C   0  0  0  0  0  3  0  0  0  0  0  0
  -22.0910   -5.5480   22.0080 C   0  0  0  0  0  0  0  0  0  0  0  0
  -22.4080   -5.0570   20.7850 F   0  0  0  0  0  0  0  0  0  0  0  0
  -21.4210   -4.3210   25.4000 F   0  0  0  0  0  0  0  0  0  0  0  0
  -23.6440  -14.2820   20.9640 C   0  0  0  0  0  0  0  0  0  0  0  0
  -22.8210  -13.6450   21.7920 N   0  0  0  0  0  0  0  0  0  0  0  0
  -23.3120  -15.3310   20.4180 O   0  0  0  0  0  0  0  0  0  0  0  0
  -23.1000  -12.7910   22.2530 H   0  0  0  0  0  0  0  0  0  0  0  0
  -21.8960  -14.0130   21.9630 H   0  0  0  0  0  0  0  0  0  0  0  0
  -26.4380  -15.7360   20.3310 N   0  0  0  0  0  0  0  0  0  0  0  0
  -25.7180  -16.4450   20.4160 H   0  0  0  0  0  0  0  0  0  0  0  0
  -27.3540  -16.1040   20.1250 H   0  0  0  0  0  0  0  0  0  0  0  0
  -29.7050  -19.4150   16.7280 C   0  0  0  0  0  1  0  0  0  0  0  0
  -29.4330  -21.4810   17.9980 C   0  0  0  0  0  1  0  0  0  0  0  0
  -27.6440  -19.7750   18.0800 C   0  0  0  0  0  1  0  0  0  0  0  0
  -29.1770  -19.9690   18.0860 C   0  0  2  0  0  0  0  0  0  0  0  0
  -29.2130  -23.8670   23.0010 C   0  0  2  0  0  0  0  0  0  0  0  0
  -29.9280  -24.7520   23.6970 F   0  0  0  0  0  0  0  0  0  0  0  0
  -28.1760  -23.5300   23.7710 F   0  0  0  0  0  0  0  0  0  0  0  0
  -28.6020  -24.6270   21.7680 C   0  0  1  0  0  0  0  0  0  0  0  0
  -27.5720  -23.8930   21.3370 F   0  0  0  0  0  0  0  0  0  0  0  0
  -28.0680  -25.7590   22.2320 F   0  0  0  0  0  0  0  0  0  0  0  0
  -29.5240  -24.9930   20.5500 C   0  0  0  0  0  3  0  0  0  0  0  0
  -30.7630  -25.8550   20.9300 C   0  0  1  0  0  0  0  0  0  0  0  0
  -31.4200  -26.2610   19.8430 F   0  0  0  0  0  0  0  0  0  0  0  0
  -30.4280  -26.9320   21.6420 F   0  0  0  0  0  0  0  0  0  0  0  0
  -31.6270  -25.1310   21.6400 F   0  0  0  0  0  0  0  0  0  0  0  0
  -29.3050  -25.3230   17.9700 C   0  0  0  0  0  1  0  0  0  0  0  0
  -28.6910  -25.5780   19.3570 C   0  0  0  0  0  3  0  0  0  0  0  0
  -28.5290  -26.9900   19.4930 O   0  0  0  0  0  0  0  0  0  0  0  0
  -24.5880  -31.7260   22.9570 C   0  0  0  0  0  0  0  0  0  0  0  0
  -27.2860  -27.5840   19.5450 C   0  0  0  0  0  0  0  0  0  0  0  0
  -23.3710  -30.3760   21.2760 C   0  0  0  0  0  3  0  0  0  0  0  0
  -24.8270  -28.9740   19.7210 C   0  0  0  0  0  0  0  0  0  0  0  0
  -25.8710  -30.8460   21.0130 C   0  0  0  0  0  2  0  0  0  0  0  0
  -25.9810  -29.5160   20.2960 C   0  0  0  0  0  0  0  0  0  0  0  0
  -27.2060  -28.8270   20.2060 C   0  0  0  0  0  3  0  0  0  0  0  0
  -26.1140  -27.0510   18.9570 C   0  0  0  0  0  3  0  0  0  0  0  0
  -24.8870  -27.7390   19.0490 C   0  0  0  0  0  3  0  0  0  0  0  0
  -23.5540  -29.7780   19.8550 C   0  0  0  0  0  2  0  0  0  0  0  0
  -24.6300  -30.9940   21.8070 N   0  0  0  0  0  0  0  0  0  0  0  0
  -23.5180  -31.9290   23.5480 O   0  0  0  0  0  0  0  0  0  0  0  0
  -22.7910  -29.2800   22.1990 C   0  0  0  0  0  0  0  0  0  0  0  0
  -21.4680  -29.0680   22.1120 N   0  0  0  0  0  0  0  0  0  0  0  0
  -23.5250  -28.6270   22.9440 O   0  0  0  0  0  0  0  0  0  0  0  0
  -20.9350  -29.6480   21.4800 H   0  0  0  0  0  0  0  0  0  0  0  0
  -18.1500  -27.7560   22.6640 C   0  0  0  0  0  0  0  0  0  0  0  0
  -20.7080  -28.0630   22.8560 C   0  0  0  0  0  3  0  0  0  0  0  0
  -20.8240  -26.6740   22.1880 C   0  0  0  0  0  2  0  0  0  0  0  0
  -19.6900  -26.3850   21.1990 C   0  0  0  0  0  2  0  0  0  0  0  0
  -18.3330  -26.4540   21.9020 C   0  0  0  0  0  2  0  0  0  0  0  0
  -19.2660  -28.5200   23.0980 C   0  0  0  0  0  0  0  0  0  0  0  0
  -19.0400  -29.7390   23.7720 C   0  0  0  0  0  3  0  0  0  0  0  0
  -17.7310  -30.1950   24.0160 C   0  0  0  0  0  3  0  0  0  0  0  0
  -16.6290  -29.4280   23.5990 C   0  0  0  0  0  3  0  0  0  0  0  0
  -16.8410  -28.2100   22.9290 C   0  0  0  0  0  3  0  0  0  0  0  0
  -25.8760  -32.3630   23.5690 C   0  0  0  0  0  3  0  0  0  0  0  0
  -26.4560  -31.5480   24.7890 C   0  0  1  0  0  0  0  0  0  0  0  0
  -25.4090  -31.2430   25.8840 C   0  0  0  0  0  1  0  0  0  0  0  0
  -27.0450  -30.2000   24.3100 C   0  0  0  0  0  1  0  0  0  0  0  0
  -27.6190  -32.3320   25.4380 C   0  0  0  0  0  1  0  0  0  0  0  0
  -25.5410  -33.7350   23.9710 N   0  0  0  0  0  0  0  0  0  0  0  0
  -25.8510  -34.8310   23.2670 C   0  0  0  0  0  0  0  0  0  0  0  0
  -26.5230  -34.7940   22.2310 O   0  0  0  0  0  0  0  0  0  0  0  0
  -24.9450  -33.8370   24.7810 H   0  0  0  0  0  0  0  0  0  0  0  0
  -24.0930  -36.6050   22.9960 C   0  0  0  0  0  1  0  0  0  0  0  0
  -25.3360  -36.1830   23.7950 C   0  0  0  0  0  3  0  0  0  0  0  0
  -27.4470  -37.0610   24.6900 C   0  0  0  0  0  1  0  0  0  0  0  0
  -26.3510  -37.2590   23.7450 N   0  0  0  0  0  0  0  0  0  0  0  0
  -25.9260  -38.1620   23.9370 H   0  0  0  0  0  0  0  0  0  0  0  0
  1 57  1  0
  1  2  1  0
  4  3  1  6
  4  1  1  0
  5  4  1  0
  8  6  1  6
  8  4  1  0
  8  7  1  0
 10  9  2  0
 11 56  1  0
 11 12  1  0
 12  9  1  0
 12  8  1  0
 13 11  1  0
 13 10  1  0
 14 13  1  0
 15 22  2  0
 15 21  1  0
 16 21  1  0
 17 18  1  0
 17 16  1  0
 19 18  1  0
 19 28  1  0
 19 20  1  0
 21 20  1  0
 23 24  1  0
 24 10  1  0
 24 15  1  0
 25 26  2  0
 26 45  1  0
 27 26  1  0
 27 30  1  0
 28 25  1  0
 28 29  1  0
 29 27  2  0
 30 31  1  0
 31 32  2  0
 33 36  1  0
 33 32  1  0
 34 33  2  0
 35 34  1  0
 35 30  2  0
 36 37  1  0
 37 38  1  0
 38 39  2  0
 40 39  1  0
 40 44  1  0
 41 40  2  0
 42 37  2  0
 42 41  1  0
 43 42  1  0
 45 46  1  0
 46 49  1  0
 46 48  1  0
 47 45  2  0
 50 51  1  0
 50 25  1  0
 52 50  1  0
 56 53  1  6
 54 56  1  0
 55 56  1  0
 57 58  1  1
 57 59  1  0
 60 62  1  1
 60 57  1  0
 61 60  1  0
 63 64  1  0
 63 60  1  0
 64 67  1  1
 64 66  1  0
 65 64  1  0
 69 68  1  0
 69 70  1  0
 69 63  1  0
 70 72  1  0
 71 82  2  0
 72 77  1  0
 73 81  1  0
 73 83  1  0
 74 80  1  0
 74 76  1  0
 75 81  1  0
 76 75  1  0
 77 76  2  0
 78 79  1  0
 78 72  2  0
 79 74  2  0
 80 73  1  0
 81 71  1  0
 83 85  2  0
 84 83  1  0
 86 84  1  0
 87 96  2  0
 87 92  1  0
 88 84  1  0
 88 92  1  0
 89 88  1  0
 90 91  1  0
 90 89  1  0
 91 87  1  0
 92 93  2  0
 93 94  1  0
 95 94  2  0
 96 95  1  0
 97 71  1  0
 97102  1  0
 97 98  1  0
 98101  1  1
 98 99  1  0
100 98  1  0
102105  1  0
103107  1  0
103102  1  0
104103  2  0
107106  1  0
109107  1  0
109110  1  0
109108  1  0
M  ISO  4  15 100  24 100  69 101  70 101
M  END
>  <TORSDO>  (68) 
F 25

>  <SCORE>  (68) 
-10.559

>  <name>  (68) 
71

>  <ligand_id>  (68) 
71

>  <original_smiles>  (68) 
[H]c1c([H])c([H])c2c(c1[H])C([H])([H])C([H])([H])C([H])([H])C2([H])N([H])C(=O)C1([H])N(C(=O)C([H])(N([H])C(=O)C([H])(N([H])C([H])([H])[H])C([H])([H])[H])C(C([H])([H])[H])(C([H])([H])[H])C([H])([H])[H])C([H])([H])c2c([H])c(OC([H])(C([H])([H])[H])C([H])(C(F)(F)F)C(F)(F)C(F)(F)C([H])(F)C(F)(C([H])([H])[H])C(n3c([H])c(N(C(=O)N4C([H])([H])C([H])([H])C([H])([H])C([H])(n5nc(-c6c([H])c([H])c(Oc7c([H])c([H])c(F)c([H])c7F)c([H])c6[H])c(C(=O)N([H])[H])c5N([H])[H])C4([H])[H])C([H])([H])[H])[n+]([H])c3C(C([H])([H])[H])(C([H])([H])[H])C([H])([H])[H])(C([H])([H])[H])C([H])([H])[H])c([H])c([H])c2C1([H])[H]

>  <smiles>  (68) 
[H]c1c([H])c([H])c2c(c1[H])C([H])([H])C([H])([H])C([H])([H])C2([H])N([H])C(=O)C1([H])N(C(=O)C([H])(N([H])C(=O)C([H])(N([H])C([H])([H])[H])C([H])([H])[H])C(C([H])([H])[H])(C([H])([H])[H])C([H])([H])[H])C([H])([H])c2c([H])c(OC([H])(C([H])([H])[H])C([H])(C(F)(F)F)C(F)(F)C(F)(F)C([H])(F)C(F)(C([H])([H])[H])C(n3c([H])c(N(C(=O)N4C([H])([H])C([H])([H])C([H])([H])C([H])(n5nc(-c6c([H])c([H])c(Oc7c([H])c([H])c(F)c([H])c7F)c([H])c6[H])c(C(=O)N([H])[H])c5N([H])[H])C4([H])[H])C([H])([H])[H])[n+]([H])c3C(C([H])([H])[H])(C([H])([H])[H])C([H])([H])[H])(C([H])([H])[H])C([H])([H])[H])c([H])c([H])c2C1([H])[H]

$$$$
72:0:0
     RDKit          3D

 98106  0  0  1  0  0  0  0  0999 V2000
  -30.2690  -19.2580   18.6290 C   0  0  0  0  0  3  0  0  0  0  0  0
  -29.2400  -20.1020   19.1160 C   0  0  0  0  0  0  0  0  0  0  0  0
  -28.3140  -19.4180   19.9320 C   0  0  0  0  0  0  0  0  0  0  0  0
  -29.4610  -17.3640   19.7250 C   0  0  0  0  0  0  0  0  0  0  0  0
  -27.0870  -20.0780   20.5240 C   0  0  0  0  0  1  0  0  0  0  0  0
  -30.3750  -17.9360   18.9350 N   0  0  0  0  0  0  0  0  0  0  0  0
  -28.4590  -18.1040   20.2320 N   0  0  0  0  0  0  0  0  0  0  0  0
  -28.4210  -15.6220   21.2220 C   0  0  0  0  0  1  0  0  0  0  0  0
  -29.6880  -15.9080   20.3620 C   0  0  1  0  0  0  0  0  0  0  0  0
  -29.8910  -14.6920   19.2910 C   0  0  0  0  0  0  0  0  0  0  0  0
  -29.5930  -12.4610   18.1780 C   0  0  0  0  0  2  0  0  0  0  0  0
  -28.4080  -12.4610   17.1840 C   0  0  0  0  0  2  0  0  0  0  0  0
  -27.0760  -12.1490   17.8910 C   0  0  0  0  0  2  0  0  0  0  0  0
  -26.9090  -12.9730   19.1930 C   0  0  0  0  0  3  0  0  0  0  0  0
  -28.1830  -12.8500   20.0470 C   0  0  0  0  0  2  0  0  0  0  0  0
  -29.3090  -13.4280   19.2780 N   0  0  0  0  0  0  0  0  0  0  0  0
  -30.7030  -14.9040   18.3860 O   0  0  0  0  0  0  0  0  0  0  0  0
  -24.7120  -13.3620   20.4710 C   0  0  0  0  0  0  0  0  0  0  0  0
  -23.8040  -12.4940   21.0150 C   0  0  0  0  0  0  0  0  0  0  0  0
  -24.3160  -11.1820   20.7720 C   0  0  0  0  0  0  0  0  0  0  0  0
  -25.7200  -12.5720   19.9380 N   0  0  0  0  0  0  0  0  0  0  0  0
  -25.4990  -11.2540   20.1730 N   0  0  0  0  0  0  0  0  0  0  0  0
  -23.7260   -9.8650   21.0220 C   0  0  0  0  0  0  0  0  0  0  0  0
  -24.2870   -8.9700   21.9610 C   0  0  0  0  0  3  0  0  0  0  0  0
  -23.6900   -7.7130   22.1980 C   0  0  0  0  0  3  0  0  0  0  0  0
  -22.5190   -7.3410   21.4970 C   0  0  0  0  0  0  0  0  0  0  0  0
  -21.9790   -8.2250   20.5450 C   0  0  0  0  0  3  0  0  0  0  0  0
  -22.5760   -9.4730   20.3070 C   0  0  0  0  0  3  0  0  0  0  0  0
  -21.8830   -6.1300   21.6410 O   0  0  0  0  0  0  0  0  0  0  0  0
  -21.8000   -5.5030   22.8580 C   0  0  0  0  0  0  0  0  0  0  0  0
  -21.1670   -6.1070   23.9660 C   0  0  0  0  0  3  0  0  0  0  0  0
  -21.0400   -5.3980   25.1770 C   0  0  0  0  0  3  0  0  0  0  0  0
  -21.5380   -4.0850   25.2800 C   0  0  0  0  0  0  0  0  0  0  0  0
  -22.1620   -3.4790   24.1750 C   0  0  0  0  0  3  0  0  0  0  0  0
  -22.2900   -4.1860   22.9670 C   0  0  0  0  0  0  0  0  0  0  0  0
  -22.8750   -3.5910   21.8990 F   0  0  0  0  0  0  0  0  0  0  0  0
  -21.4120   -3.4000   26.4410 F   0  0  0  0  0  0  0  0  0  0  0  0
  -22.4850  -12.8530   21.6360 C   0  0  0  0  0  0  0  0  0  0  0  0
  -22.0230  -12.0570   22.5930 N   0  0  0  0  0  0  0  0  0  0  0  0
  -21.8790  -13.8730   21.3110 O   0  0  0  0  0  0  0  0  0  0  0  0
  -22.5330  -11.2320   22.8740 H   0  0  0  0  0  0  0  0  0  0  0  0
  -21.1480  -12.2730   23.0500 H   0  0  0  0  0  0  0  0  0  0  0  0
  -24.7560  -14.7480   20.3700 N   0  0  0  0  0  0  0  0  0  0  0  0
  -24.0030  -15.3370   20.7090 H   0  0  0  0  0  0  0  0  0  0  0  0
  -25.4750  -15.2660   19.8790 H   0  0  0  0  0  0  0  0  0  0  0  0
  -31.0910  -14.6340   22.1900 C   0  0  0  0  0  1  0  0  0  0  0  0
  -32.3180  -16.2280   20.7240 C   0  0  0  0  0  1  0  0  0  0  0  0
  -30.9390  -15.9750   21.4050 C   0  0  1  0  0  0  0  0  0  0  0  0
  -30.7780  -17.1470   22.4390 C   0  0  0  0  0  2  0  0  0  0  0  0
  -31.6410  -17.0240   23.6340 N   0  0  0  0  0  4  0  0  0  0  0  0
  -31.4680  -16.1520   24.1020 H   0  0  0  0  0  0  0  0  0  0  0  0
  -31.4360  -17.7700   24.2770 H   0  0  0  0  0  0  0  0  0  0  0  0
  -32.6140  -17.0770   23.3920 H   0  0  0  0  0  0  0  0  0  0  0  0
  -29.1440  -21.5970   18.6360 C   0  0  0  0  0  3  0  0  0  0  0  0
  -28.8270  -22.7920   19.6290 C   0  0  0  0  0  3  0  0  0  0  0  0
  -28.8120  -24.2530   19.0020 C   0  0  0  0  0  3  0  0  0  0  0  0
  -28.2100  -25.4320   19.8720 C   0  0  0  0  0  3  0  0  0  0  0  0
  -28.2880  -26.8040   19.3380 O   0  0  0  0  0  0  0  0  0  0  0  0
  -24.6200  -31.8260   22.9650 C   0  0  0  0  0  0  0  0  0  0  0  0
  -27.1480  -27.5990   19.4440 C   0  0  0  0  0  0  0  0  0  0  0  0
  -23.3590  -30.5440   21.2720 C   0  0  0  0  0  3  0  0  0  0  0  0
  -24.7610  -29.1380   19.6640 C   0  0  0  0  0  0  0  0  0  0  0  0
  -25.8750  -30.9300   20.9960 C   0  0  0  0  0  2  0  0  0  0  0  0
  -25.9460  -29.6100   20.2410 C   0  0  0  0  0  0  0  0  0  0  0  0
  -27.1450  -28.8520   20.1210 C   0  0  0  0  0  3  0  0  0  0  0  0
  -25.9430  -27.1680   18.8500 C   0  0  0  0  0  3  0  0  0  0  0  0
  -24.7570  -27.9200   18.9640 C   0  0  0  0  0  3  0  0  0  0  0  0
  -23.5150  -29.9810   19.8350 C   0  0  0  0  0  2  0  0  0  0  0  0
  -24.6400  -31.1120   21.8030 N   0  0  0  0  0  0  0  0  0  0  0  0
  -23.5610  -32.0430   23.5690 O   0  0  0  0  0  0  0  0  0  0  0  0
  -22.7520  -29.4470   22.1770 C   0  0  0  0  0  0  0  0  0  0  0  0
  -21.4200  -29.2780   22.1100 N   0  0  0  0  0  0  0  0  0  0  0  0
  -23.4740  -28.7500   22.8950 O   0  0  0  0  0  0  0  0  0  0  0  0
  -20.8990  -29.8940   21.5020 H   0  0  0  0  0  0  0  0  0  0  0  0
  -18.0680  -28.0610   22.7120 C   0  0  0  0  0  0  0  0  0  0  0  0
  -20.6430  -28.2760   22.8370 C   0  0  0  0  0  3  0  0  0  0  0  0
  -20.6900  -26.9080   22.1200 C   0  0  0  0  0  2  0  0  0  0  0  0
  -19.5210  -26.6910   21.1550 C   0  0  0  0  0  2  0  0  0  0  0  0
  -18.1850  -26.7810   21.8990 C   0  0  0  0  0  2  0  0  0  0  0  0
  -19.2210  -28.7710   23.1360 C   0  0  0  0  0  0  0  0  0  0  0  0
  -19.0580  -29.9720   23.8590 C   0  0  0  0  0  3  0  0  0  0  0  0
  -17.7730  -30.4630   24.1600 C   0  0  0  0  0  3  0  0  0  0  0  0
  -16.6340  -29.7460   23.7500 C   0  0  0  0  0  3  0  0  0  0  0  0
  -16.7830  -28.5480   23.0310 C   0  0  0  0  0  3  0  0  0  0  0  0
  -25.9240  -32.4220   23.5810 C   0  0  0  0  0  3  0  0  0  0  0  0
  -26.5110  -31.5490   24.7570 C   0  0  1  0  0  0  0  0  0  0  0  0
  -25.4730  -31.1920   25.8480 C   0  0  0  0  0  1  0  0  0  0  0  0
  -27.0950  -30.2260   24.2120 C   0  0  0  0  0  1  0  0  0  0  0  0
  -27.6820  -32.3010   25.4340 C   0  0  0  0  0  1  0  0  0  0  0  0
  -25.6130  -33.7790   24.0490 N   0  0  0  0  0  0  0  0  0  0  0  0
  -25.9100  -34.9010   23.3810 C   0  0  0  0  0  0  0  0  0  0  0  0
  -26.5440  -34.9010   22.3210 O   0  0  0  0  0  0  0  0  0  0  0  0
  -25.0450  -33.8520   24.8810 H   0  0  0  0  0  0  0  0  0  0  0  0
  -24.1540  -36.6990   23.2570 C   0  0  0  0  0  1  0  0  0  0  0  0
  -25.4270  -36.2360   23.9810 C   0  0  0  0  0  3  0  0  0  0  0  0
  -27.5820  -37.0660   24.8120 C   0  0  0  0  0  1  0  0  0  0  0  0
  -26.4450  -37.3060   23.9280 N   0  0  0  0  0  0  0  0  0  0  0  0
  -26.0380  -38.2040   24.1760 H   0  0  0  0  0  0  0  0  0  0  0  0
  1  6  1  0
  1  2  2  0
  2  3  1  0
  3  7  2  0
  3  5  1  0
  4  7  1  0
  4  9  1  0
  6  4  2  0
  9  8  1  1
  9 48  1  0
 10  9  1  0
 11 16  1  0
 12 13  1  0
 12 11  1  0
 14 13  1  0
 14 21  1  0
 14 15  1  0
 16 10  1  0
 16 15  1  0
 17 10  2  0
 18 19  2  0
 19 38  1  0
 20 19  1  0
 20 23  1  0
 21 22  1  0
 21 18  1  0
 22 20  2  0
 23 24  1  0
 24 25  2  0
 26 29  1  0
 26 25  1  0
 27 26  2  0
 28 27  1  0
 28 23  2  0
 29 30  1  0
 30 35  2  0
 30 31  1  0
 31 32  2  0
 32 33  1  0
 33 37  1  0
 34 33  2  0
 35 34  1  0
 36 35  1  0
 38 39  1  0
 39 41  1  0
 39 42  1  0
 40 38  2  0
 43 18  1  0
 43 44  1  0
 45 43  1  0
 48 47  1  6
 48 46  1  0
 48 49  1  0
 49 50  1  0
 50 51  1  0
 50 52  1  0
 53 50  1  0
 54  2  1  0
 54 55  2  0
 56 55  1  0
 56 57  2  0
 58 60  1  0
 58 57  1  0
 59 70  2  0
 60 65  1  0
 61 69  1  0
 61 71  1  0
 62 68  1  0
 62 64  1  0
 63 69  1  0
 64 63  1  0
 65 64  2  0
 66 67  1  0
 66 60  2  0
 67 62  2  0
 68 61  1  0
 69 59  1  0
 71 73  2  0
 72 71  1  0
 74 72  1  0
 75 84  2  0
 75 80  1  0
 76 72  1  0
 76 80  1  0
 77 76  1  0
 78 79  1  0
 78 77  1  0
 79 75  1  0
 80 81  2  0
 81 82  1  0
 83 82  2  0
 84 83  1  0
 85 59  1  0
 85 90  1  0
 85 86  1  0
 86 89  1  1
 86 87  1  0
 88 86  1  0
 90 93  1  0
 91 95  1  0
 91 90  1  0
 92 91  2  0
 95 94  1  0
 97 95  1  0
 97 98  1  0
 97 96  1  0
M  ISO  4   9 100  10 100  57 101  58 101
M  END
>  <TORSDO>  (69) 
F 24

>  <SCORE>  (69) 
-7.078

>  <name>  (69) 
72

>  <ligand_id>  (69) 
72

>  <original_smiles>  (69) 
[H]c1nc(C(C(=O)N2C([H])([H])C([H])([H])C([H])([H])C([H])(n3nc(-c4c([H])c([H])c(Oc5c([H])c([H])c(F)c([H])c5F)c([H])c4[H])c(C(=O)N([H])[H])c3N([H])[H])C2([H])[H])(C([H])([H])[H])C(C([H])([H])[H])(C([H])([H])[H])C([H])([H])[N+]([H])([H])[H])nc(C([H])([H])[H])c1C([H])([H])C([H])([H])C([H])([H])C([H])([H])Oc1c([H])c([H])c2c(c1[H])C([H])([H])N(C(=O)C([H])(N([H])C(=O)C([H])(N([H])C([H])([H])[H])C([H])([H])[H])C(C([H])([H])[H])(C([H])([H])[H])C([H])([H])[H])C([H])(C(=O)N([H])C1([H])c3c([H])c([H])c([H])c([H])c3C([H])([H])C([H])([H])C1([H])[H])C2([H])[H]

>  <smiles>  (69) 
[H]c1nc(C(C(=O)N2C([H])([H])C([H])([H])C([H])([H])C([H])(n3nc(-c4c([H])c([H])c(Oc5c([H])c([H])c(F)c([H])c5F)c([H])c4[H])c(C(=O)N([H])[H])c3N([H])[H])C2([H])[H])(C([H])([H])[H])C(C([H])([H])[H])(C([H])([H])[H])C([H])([H])[N+]([H])([H])[H])nc(C([H])([H])[H])c1C([H])([H])C([H])([H])C([H])([H])C([H])([H])Oc1c([H])c([H])c2c(c1[H])C([H])([H])N(C(=O)C([H])(N([H])C(=O)C([H])(N([H])C([H])([H])[H])C([H])([H])[H])C(C([H])([H])[H])(C([H])([H])[H])C([H])([H])[H])C([H])(C(=O)N([H])C1([H])c3c([H])c([H])c([H])c([H])c3C([H])([H])C([H])([H])C1([H])[H])C2([H])[H]

$$$$
74:0:0
     RDKit          3D

 95103  0  0  1  0  0  0  0  0999 V2000
  -31.3660  -21.3440   19.8100 C   0  0  0  0  0  1  0  0  0  0  0  0
  -32.2290  -21.5430   22.1290 C   0  0  0  0  0  1  0  0  0  0  0  0
  -30.9880  -21.1460   21.2930 C   0  0  2  0  0  0  0  0  0  0  0  0
  -30.3450  -18.6740   20.6570 C   0  0  0  0  0  3  0  0  0  0  0  0
  -30.1460  -17.4980   21.4350 C   0  0  0  0  0  0  0  0  0  0  0  0
  -30.6410  -19.6760   21.5510 C   0  0  0  0  0  0  0  0  0  0  0  0
  -30.8730  -19.5800   24.1350 C   0  0  0  0  0  1  0  0  0  0  0  0
  -30.2820  -17.7550   22.7220 N   0  0  0  0  0  0  0  0  0  0  0  0
  -30.5970  -19.0660   22.8050 N   0  0  0  0  0  0  0  0  0  0  0  0
  -29.7700  -16.0920   20.9970 C   0  0  0  0  0  2  0  0  0  0  0  0
  -31.1140  -14.2820   20.0560 C   0  0  0  0  0  0  0  0  0  0  0  0
  -30.5270  -12.2980   18.6960 C   0  0  0  0  0  2  0  0  0  0  0  0
  -29.5110  -12.6510   17.5930 C   0  0  0  0  0  2  0  0  0  0  0  0
  -28.0680  -12.5700   18.1280 C   0  0  0  0  0  2  0  0  0  0  0  0
  -27.8880  -13.3280   19.4700 C   0  0  0  0  0  3  0  0  0  0  0  0
  -29.0030  -12.9390   20.4690 C   0  0  0  0  0  2  0  0  0  0  0  0
  -30.3060  -13.2070   19.8330 N   0  0  0  0  0  0  0  0  0  0  0  0
  -32.1410  -14.4880   19.3990 O   0  0  0  0  0  0  0  0  0  0  0  0
  -31.8450  -15.2440   22.1520 C   0  0  0  0  0  1  0  0  0  0  0  0
  -30.8140  -15.0490   21.1250 N   0  0  0  0  0  0  0  0  0  0  0  0
  -25.5710  -14.0380   20.3380 C   0  0  0  0  0  0  0  0  0  0  0  0
  -24.4960  -13.3110   20.7710 C   0  0  0  0  0  0  0  0  0  0  0  0
  -24.8910  -11.9410   20.6990 C   0  0  0  0  0  0  0  0  0  0  0  0
  -26.5580  -13.1130   20.0330 N   0  0  0  0  0  0  0  0  0  0  0  0
  -26.1550  -11.8460   20.3050 N   0  0  0  0  0  0  0  0  0  0  0  0
  -24.1220  -10.7110   20.9250 C   0  0  0  0  0  0  0  0  0  0  0  0
  -24.5400   -9.7410   21.8610 C   0  0  0  0  0  3  0  0  0  0  0  0
  -23.7730   -8.5740   22.0750 C   0  0  0  0  0  3  0  0  0  0  0  0
  -22.5740   -8.3710   21.3510 C   0  0  0  0  0  0  0  0  0  0  0  0
  -22.1760   -9.3300   20.4020 C   0  0  0  0  0  3  0  0  0  0  0  0
  -22.9430  -10.4870   20.1880 C   0  0  0  0  0  3  0  0  0  0  0  0
  -21.7800   -7.2580   21.4730 O   0  0  0  0  0  0  0  0  0  0  0  0
  -21.6940   -6.5590   22.6510 C   0  0  0  0  0  0  0  0  0  0  0  0
  -21.2920   -7.1760   23.8550 C   0  0  0  0  0  3  0  0  0  0  0  0
  -21.1510   -6.4060   25.0270 C   0  0  0  0  0  3  0  0  0  0  0  0
  -21.4030   -5.0210   24.9950 C   0  0  0  0  0  0  0  0  0  0  0  0
  -21.7990   -4.4050   23.7950 C   0  0  0  0  0  3  0  0  0  0  0  0
  -21.9410   -5.1720   22.6250 C   0  0  0  0  0  0  0  0  0  0  0  0
  -22.3020   -4.5690   21.4670 F   0  0  0  0  0  0  0  0  0  0  0  0
  -21.2600   -4.2790   26.1180 F   0  0  0  0  0  0  0  0  0  0  0  0
  -23.1430  -13.8500   21.1390 C   0  0  0  0  0  0  0  0  0  0  0  0
  -22.4500  -13.1870   22.0590 N   0  0  0  0  0  0  0  0  0  0  0  0
  -22.7100  -14.8890   20.6440 O   0  0  0  0  0  0  0  0  0  0  0  0
  -22.8120  -12.3450   22.4820 H   0  0  0  0  0  0  0  0  0  0  0  0
  -21.5430  -13.5290   22.3460 H   0  0  0  0  0  0  0  0  0  0  0  0
  -25.7850  -15.4020   20.1580 N   0  0  0  0  0  0  0  0  0  0  0  0
  -25.0520  -16.0850   20.3120 H   0  0  0  0  0  0  0  0  0  0  0  0
  -26.6150  -15.8030   19.7410 H   0  0  0  0  0  0  0  0  0  0  0  0
  -29.7710  -22.0800   21.5980 C   0  0  0  0  0  3  0  0  0  0  0  0
  -29.9720  -23.6210   21.4340 C   0  0  0  0  0  3  0  0  0  0  0  0
  -27.4740  -24.0610   21.6450 C   0  0  0  0  0  1  0  0  0  0  0  0
  -28.9690  -24.4280   23.6180 C   0  0  0  0  0  1  0  0  0  0  0  0
  -28.8780  -24.5290   22.0760 C   0  0  1  0  0  0  0  0  0  0  0  0
  -29.1100  -26.0320   21.7030 C   0  0  0  0  0  2  0  0  0  0  0  0
  -28.7210  -26.4050   20.3700 O   0  0  0  0  0  0  0  0  0  0  0  0
  -24.8860  -31.6740   23.2520 C   0  0  0  0  0  0  0  0  0  0  0  0
  -27.5970  -27.1980   20.3020 C   0  0  0  0  0  0  0  0  0  0  0  0
  -23.7230  -30.2680   21.5800 C   0  0  0  0  0  3  0  0  0  0  0  0
  -25.2140  -28.7130   20.2100 C   0  0  0  0  0  0  0  0  0  0  0  0
  -26.2530  -30.6130   21.4600 C   0  0  0  0  0  2  0  0  0  0  0  0
  -26.3500  -29.2360   20.8390 C   0  0  0  0  0  0  0  0  0  0  0  0
  -27.5430  -28.4820   20.8920 C   0  0  0  0  0  3  0  0  0  0  0  0
  -26.4570  -26.7020   19.6370 C   0  0  0  0  0  3  0  0  0  0  0  0
  -25.2610  -27.4420   19.6080 C   0  0  0  0  0  3  0  0  0  0  0  0
  -23.9730  -29.5760   20.2130 C   0  0  0  0  0  2  0  0  0  0  0  0
  -24.9720  -30.8650   22.1590 N   0  0  0  0  0  0  0  0  0  0  0  0
  -23.7910  -31.9590   23.7550 O   0  0  0  0  0  0  0  0  0  0  0  0
  -23.0360  -29.2610   22.5270 C   0  0  0  0  0  0  0  0  0  0  0  0
  -21.7130  -29.0890   22.3600 N   0  0  0  0  0  0  0  0  0  0  0  0
  -23.6870  -28.6340   23.3670 O   0  0  0  0  0  0  0  0  0  0  0  0
  -21.2500  -29.6470   21.6550 H   0  0  0  0  0  0  0  0  0  0  0  0
  -18.3160  -27.9270   22.7480 C   0  0  0  0  0  0  0  0  0  0  0  0
  -20.8650  -28.1660   23.1100 C   0  0  0  0  0  3  0  0  0  0  0  0
  -20.9740  -26.7280   22.5490 C   0  0  0  0  0  2  0  0  0  0  0  0
  -19.9050  -26.4060   21.5010 C   0  0  0  0  0  2  0  0  0  0  0  0
  -18.5030  -26.5690   22.0940 C   0  0  0  0  0  2  0  0  0  0  0  0
  -19.4260  -28.6830   23.2120 C   0  0  0  0  0  0  0  0  0  0  0  0
  -19.1990  -29.9530   23.7830 C   0  0  0  0  0  3  0  0  0  0  0  0
  -17.8940  -30.4690   23.8980 C   0  0  0  0  0  3  0  0  0  0  0  0
  -16.7970  -29.7090   23.4540 C   0  0  0  0  0  3  0  0  0  0  0  0
  -17.0100  -28.4400   22.8840 C   0  0  0  0  0  3  0  0  0  0  0  0
  -26.1590  -32.2990   23.9070 C   0  0  0  0  0  3  0  0  0  0  0  0
  -25.8390  -33.6880   24.2590 N   0  0  0  0  0  0  0  0  0  0  0  0
  -26.1750  -34.7560   23.5240 C   0  0  0  0  0  0  0  0  0  0  0  0
  -26.8590  -34.6740   22.4990 O   0  0  0  0  0  0  0  0  0  0  0  0
  -25.2340  -33.8240   25.0560 H   0  0  0  0  0  0  0  0  0  0  0  0
  -24.4310  -36.5350   23.1840 C   0  0  0  0  0  1  0  0  0  0  0  0
  -25.6700  -36.1310   23.9980 C   0  0  0  0  0  3  0  0  0  0  0  0
  -27.7900  -37.0230   24.8540 C   0  0  0  0  0  1  0  0  0  0  0  0
  -26.6920  -37.1970   23.9080 N   0  0  0  0  0  0  0  0  0  0  0  0
  -26.2770  -38.1100   24.0680 H   0  0  0  0  0  0  0  0  0  0  0  0
  -26.6620  -31.5020   25.1730 C   0  0  1  0  0  0  0  0  0  0  0  0
  -25.5530  -31.2340   26.2180 C   0  0  0  0  0  1  0  0  0  0  0  0
  -27.2600  -30.1390   24.7540 C   0  0  0  0  0  1  0  0  0  0  0  0
  -27.7970  -32.2880   25.8700 C   0  0  0  0  0  1  0  0  0  0  0  0
  3  1  1  6
  3  6  1  0
  3 49  1  0
  3  2  1  0
  4  5  1  0
  4  6  2  0
  5  8  2  0
  6  9  1  0
  8  9  1  0
  9  7  1  0
 10 20  1  0
 10  5  1  0
 11 20  1  0
 12 17  1  0
 13 14  1  0
 13 12  1  0
 15 14  1  0
 15 24  1  0
 15 16  1  0
 17 11  1  0
 17 16  1  0
 18 11  2  0
 20 19  1  0
 21 22  2  0
 22 41  1  0
 23 22  1  0
 23 26  1  0
 24 25  1  0
 24 21  1  0
 25 23  2  0
 26 27  1  0
 27 28  2  0
 29 32  1  0
 29 28  1  0
 30 29  2  0
 31 30  1  0
 31 26  2  0
 32 33  1  0
 33 34  1  0
 34 35  2  0
 36 35  1  0
 36 40  1  0
 37 36  2  0
 38 33  2  0
 38 37  1  0
 39 38  1  0
 41 42  1  0
 42 45  1  0
 42 44  1  0
 43 41  2  0
 46 47  1  0
 46 21  1  0
 48 46  1  0
 50 49  2  0
 50 53  1  0
 53 51  1  6
 53 52  1  0
 54 53  1  0
 55 54  1  0
 56 67  2  0
 57 55  1  0
 57 62  1  0
 58 66  1  0
 58 68  1  0
 59 65  1  0
 59 61  1  0
 60 66  1  0
 61 62  2  0
 61 60  1  0
 63 57  2  0
 64 63  1  0
 64 59  2  0
 65 58  1  0
 66 56  1  0
 68 70  2  0
 69 68  1  0
 71 69  1  0
 72 81  2  0
 72 77  1  0
 73 69  1  0
 73 77  1  0
 74 73  1  0
 75 76  1  0
 75 74  1  0
 76 72  1  0
 77 78  2  0
 78 79  1  0
 80 79  2  0
 81 80  1  0
 82 56  1  0
 82 83  1  0
 82 92  1  0
 83 86  1  0
 84 88  1  0
 84 83  1  0
 85 84  2  0
 88 87  1  0
 90 88  1  0
 90 91  1  0
 90 89  1  0
 92 95  1  1
 92 93  1  0
 94 92  1  0
M  ISO  4  11 100  20 100  54 101  55 101
M  END
>  <TORSDO>  (70) 
F 22

>  <SCORE>  (70) 
-10.600

>  <name>  (70) 
74

>  <ligand_id>  (70) 
74

>  <original_smiles>  (70) 
[H]c1c([H])c([H])c2c(c1[H])C([H])([H])C([H])([H])C([H])([H])C2([H])N([H])C(=O)C1([H])N(C(=O)C([H])(N([H])C(=O)C([H])(N([H])C([H])([H])[H])C([H])([H])[H])C(C([H])([H])[H])(C([H])([H])[H])C([H])([H])[H])C([H])([H])c2c([H])c(OC([H])([H])C(C([H])([H])[H])(C([H])([H])[H])C([H])([H])C([H])([H])C(c3c([H])c(C([H])([H])N(C(=O)N4C([H])([H])C([H])([H])C([H])([H])C([H])(n5nc(-c6c([H])c([H])c(Oc7c([H])c([H])c(F)c([H])c7F)c([H])c6[H])c(C(=O)N([H])[H])c5N([H])[H])C4([H])[H])C([H])([H])[H])nn3C([H])([H])[H])(C([H])([H])[H])C([H])([H])[H])c([H])c([H])c2C1([H])[H]

>  <smiles>  (70) 
[H]c1c([H])c([H])c2c(c1[H])C([H])([H])C([H])([H])C([H])([H])C2([H])N([H])C(=O)C1([H])N(C(=O)C([H])(N([H])C(=O)C([H])(N([H])C([H])([H])[H])C([H])([H])[H])C(C([H])([H])[H])(C([H])([H])[H])C([H])([H])[H])C([H])([H])c2c([H])c(OC([H])([H])C(C([H])([H])[H])(C([H])([H])[H])C([H])([H])C([H])([H])C(c3c([H])c(C([H])([H])N(C(=O)N4C([H])([H])C([H])([H])C([H])([H])C([H])(n5nc(-c6c([H])c([H])c(Oc7c([H])c([H])c(F)c([H])c7F)c([H])c6[H])c(C(=O)N([H])[H])c5N([H])[H])C4([H])[H])C([H])([H])[H])nn3C([H])([H])[H])(C([H])([H])[H])C([H])([H])[H])c([H])c([H])c2C1([H])[H]

$$$$
75:0:0
     RDKit          3D

 97105  0  0  1  0  0  0  0  0999 V2000
  -30.7180  -18.4370   19.9630 C   0  0  0  0  0  0  0  0  0  0  0  0
  -30.9610  -20.5510   20.2310 C   0  0  0  0  0  3  0  0  0  0  0  0
  -30.5360  -19.4470   20.8860 N   0  0  0  0  0  0  0  0  0  0  0  0
  -31.4070  -18.8360   18.8980 N   0  0  0  0  0  2  0  0  0  0  0  0
  -31.4810  -20.1940   19.0340 N   0  0  0  0  0  0  0  0  0  0  0  0
  -30.4020  -21.9220   22.2640 C   0  0  0  0  0  1  0  0  0  0  0  0
  -32.2040  -22.7270   20.7950 C   0  0  0  0  0  1  0  0  0  0  0  0
  -30.8240  -22.0140   20.7780 C   0  0  1  0  0  0  0  0  0  0  0  0
  -29.7390  -22.9190   20.0410 C   0  0  0  0  0  3  0  0  0  0  0  0
  -29.6010  -24.4450   20.4710 C   0  0  0  0  0  3  0  0  0  0  0  0
  -28.4040  -25.2770   19.8770 C   0  0  0  0  0  2  0  0  0  0  0  0
  -28.3980  -26.6920   20.2490 O   0  0  0  0  0  0  0  0  0  0  0  0
  -24.5670  -31.9630   23.2550 C   0  0  0  0  0  0  0  0  0  0  0  0
  -27.2200  -27.4440   20.2030 C   0  0  0  0  0  0  0  0  0  0  0  0
  -23.3630  -30.5510   21.6230 C   0  0  0  0  0  3  0  0  0  0  0  0
  -24.8200  -28.9940   20.2090 C   0  0  0  0  0  0  0  0  0  0  0  0
  -25.8980  -30.8870   21.4310 C   0  0  0  0  0  2  0  0  0  0  0  0
  -25.9830  -29.5070   20.7960 C   0  0  0  0  0  0  0  0  0  0  0  0
  -27.1790  -28.7420   20.7890 C   0  0  0  0  0  3  0  0  0  0  0  0
  -26.0330  -26.9660   19.5980 C   0  0  0  0  0  3  0  0  0  0  0  0
  -24.8430  -27.7230   19.6090 C   0  0  0  0  0  3  0  0  0  0  0  0
  -23.5780  -29.8590   20.2500 C   0  0  0  0  0  2  0  0  0  0  0  0
  -24.6280  -31.1500   22.1600 N   0  0  0  0  0  0  0  0  0  0  0  0
  -23.4840  -32.2420   23.7880 O   0  0  0  0  0  0  0  0  0  0  0  0
  -22.7040  -29.5410   22.5900 C   0  0  0  0  0  0  0  0  0  0  0  0
  -21.3830  -29.3400   22.4460 N   0  0  0  0  0  0  0  0  0  0  0  0
  -23.3790  -28.9370   23.4280 O   0  0  0  0  0  0  0  0  0  0  0  0
  -20.8980  -29.8790   21.7440 H   0  0  0  0  0  0  0  0  0  0  0  0
  -18.0180  -28.0950   22.9000 C   0  0  0  0  0  0  0  0  0  0  0  0
  -20.5670  -28.4040   23.2180 C   0  0  0  0  0  3  0  0  0  0  0  0
  -20.7020  -26.9620   22.6720 C   0  0  0  0  0  2  0  0  0  0  0  0
  -19.6270  -26.6020   21.6430 C   0  0  0  0  0  2  0  0  0  0  0  0
  -18.2300  -26.7360   22.2550 C   0  0  0  0  0  2  0  0  0  0  0  0
  -19.1150  -28.8850   23.3370 C   0  0  0  0  0  0  0  0  0  0  0  0
  -18.8620  -30.1580   23.8950 C   0  0  0  0  0  3  0  0  0  0  0  0
  -17.5450  -30.6390   24.0230 C   0  0  0  0  0  3  0  0  0  0  0  0
  -16.4630  -29.8460   23.6030 C   0  0  0  0  0  3  0  0  0  0  0  0
  -16.6990  -28.5770   23.0450 C   0  0  0  0  0  3  0  0  0  0  0  0
  -25.8510  -32.5970   23.8750 C   0  0  0  0  0  3  0  0  0  0  0  0
  -25.5420  -33.9980   24.1970 N   0  0  0  0  0  0  0  0  0  0  0  0
  -25.8790  -35.0470   23.4320 C   0  0  0  0  0  0  0  0  0  0  0  0
  -26.5550  -34.9370   22.4060 O   0  0  0  0  0  0  0  0  0  0  0  0
  -24.9460  -34.1570   24.9950 H   0  0  0  0  0  0  0  0  0  0  0  0
  -24.1650  -36.8470   23.0490 C   0  0  0  0  0  1  0  0  0  0  0  0
  -25.3930  -36.4390   23.8800 C   0  0  0  0  0  3  0  0  0  0  0  0
  -27.5170  -37.3190   24.7430 C   0  0  0  0  0  1  0  0  0  0  0  0
  -26.4330  -37.4870   23.7780 N   0  0  0  0  0  0  0  0  0  0  0  0
  -26.0300  -38.4110   23.9100 H   0  0  0  0  0  0  0  0  0  0  0  0
  -26.3670  -31.8340   25.1560 C   0  0  1  0  0  0  0  0  0  0  0  0
  -25.2740  -31.5930   26.2220 C   0  0  0  0  0  1  0  0  0  0  0  0
  -26.9620  -30.4590   24.7690 C   0  0  0  0  0  1  0  0  0  0  0  0
  -27.5110  -32.6390   25.8180 C   0  0  0  0  0  1  0  0  0  0  0  0
  -33.1760  -20.4010   17.1960 C   0  0  0  0  0  1  0  0  0  0  0  0
  -31.9170  -20.9680   17.8780 C   0  0  0  0  0  2  0  0  0  0  0  0
  -29.8010  -17.1900   19.8940 C   0  0  0  0  0  3  0  0  0  0  0  0
  -30.7280  -14.7610   20.2990 C   0  0  0  0  0  0  0  0  0  0  0  0
  -30.3770  -12.5580   19.2580 C   0  0  0  0  0  2  0  0  0  0  0  0
  -29.3810  -12.6550   18.0880 C   0  0  0  0  0  2  0  0  0  0  0  0
  -27.9410  -12.4540   18.5860 C   0  0  0  0  0  2  0  0  0  0  0  0
  -27.6090  -13.2960   19.8440 C   0  0  0  0  0  3  0  0  0  0  0  0
  -28.7310  -13.2560   20.9030 C   0  0  0  0  0  2  0  0  0  0  0  0
  -29.9830  -13.6100   20.2060 N   0  0  0  0  0  0  0  0  0  0  0  0
  -31.9370  -14.6570   20.4930 O   0  0  0  0  0  0  0  0  0  0  0  0
  -31.2130  -15.9250   18.2650 C   0  0  0  0  0  1  0  0  0  0  0  0
  -30.3590  -15.8220   19.4710 N   0  0  0  0  0  0  0  0  0  0  0  0
  -25.2130  -13.8900   20.5920 C   0  0  0  0  0  0  0  0  0  0  0  0
  -24.1540  -13.1070   20.9440 C   0  0  0  0  0  0  0  0  0  0  0  0
  -24.6390  -11.7680   20.9170 C   0  0  0  0  0  0  0  0  0  0  0  0
  -26.2750  -13.0250   20.3600 N   0  0  0  0  0  0  0  0  0  0  0  0
  -25.9300  -11.7410   20.6210 N   0  0  0  0  0  0  0  0  0  0  0  0
  -23.9330  -10.5000   21.0970 C   0  0  0  0  0  0  0  0  0  0  0  0
  -24.3560   -9.5540   22.0550 C   0  0  0  0  0  3  0  0  0  0  0  0
  -23.6430   -8.3500   22.2280 C   0  0  0  0  0  3  0  0  0  0  0  0
  -22.4970   -8.0880   21.4390 C   0  0  0  0  0  0  0  0  0  0  0  0
  -22.0960   -9.0230   20.4680 C   0  0  0  0  0  3  0  0  0  0  0  0
  -22.8100  -10.2190   20.2950 C   0  0  0  0  0  3  0  0  0  0  0  0
  -21.7570   -6.9360   21.5230 O   0  0  0  0  0  0  0  0  0  0  0  0
  -21.6700   -6.2260   22.6910 C   0  0  0  0  0  0  0  0  0  0  0  0
  -21.1500   -6.7960   23.8740 C   0  0  0  0  0  3  0  0  0  0  0  0
  -21.0160   -6.0080   25.0350 C   0  0  0  0  0  3  0  0  0  0  0  0
  -21.3930   -4.6520   25.0120 C   0  0  0  0  0  0  0  0  0  0  0  0
  -21.9080   -4.0820   23.8350 C   0  0  0  0  0  3  0  0  0  0  0  0
  -22.0440   -4.8670   22.6760 C   0  0  0  0  0  0  0  0  0  0  0  0
  -22.5230   -4.3100   21.5390 F   0  0  0  0  0  0  0  0  0  0  0  0
  -21.2530   -3.8900   26.1230 F   0  0  0  0  0  0  0  0  0  0  0  0
  -22.7510  -13.5770   21.1910 C   0  0  0  0  0  0  0  0  0  0  0  0
  -22.0190  -12.8770   22.0520 N   0  0  0  0  0  0  0  0  0  0  0  0
  -22.3120  -14.5950   20.6590 O   0  0  0  0  0  0  0  0  0  0  0  0
  -22.3870  -12.0530   22.5030 H   0  0  0  0  0  0  0  0  0  0  0  0
  -21.0770  -13.1710   22.2670 H   0  0  0  0  0  0  0  0  0  0  0  0
  -25.3080  -15.2610   20.4340 N   0  0  0  0  0  0  0  0  0  0  0  0
  -24.4950  -15.8600   20.5210 H   0  0  0  0  0  0  0  0  0  0  0  0
  -26.1150  -15.7370   20.0580 H   0  0  0  0  0  0  0  0  0  0  0  0
  -27.7100  -18.7740   19.9460 C   0  0  0  0  0  1  0  0  0  0  0  0
  -27.4770  -16.4840   19.1510 C   0  0  0  0  0  1  0  0  0  0  0  0
  -28.5210  -18.1150   17.6960 C   0  0  0  0  0  1  0  0  0  0  0  0
  -28.4340  -17.6420   19.1700 C   0  0  2  0  0  0  0  0  0  0  0  0
  1  3  2  0
  2  8  1  0
  2  3  1  0
  4  5  1  0
  4  1  1  0
  5  2  1  0
  8  7  1  1
  8  6  1  0
  9 10  2  0
  9  8  1  0
 11 12  1  0
 11 10  1  0
 13 24  2  0
 14 12  1  0
 14 19  1  0
 15 23  1  0
 15 25  1  0
 16 22  1  0
 16 18  1  0
 17 23  1  0
 18 17  1  0
 19 18  2  0
 20 21  1  0
 20 14  2  0
 21 16  2  0
 22 15  1  0
 23 13  1  0
 25 27  2  0
 26 25  1  0
 28 26  1  0
 29 38  2  0
 29 34  1  0
 30 26  1  0
 30 34  1  0
 31 30  1  0
 32 33  1  0
 32 31  1  0
 33 29  1  0
 34 35  2  0
 35 36  1  0
 37 36  2  0
 38 37  1  0
 39 13  1  0
 39 40  1  0
 39 49  1  0
 40 43  1  0
 41 45  1  0
 41 40  1  0
 42 41  2  0
 45 44  1  0
 47 45  1  0
 47 48  1  0
 47 46  1  0
 49 52  1  1
 49 50  1  0
 51 49  1  0
 53 54  1  0
 54  5  1  0
 55 97  1  0
 55  1  1  0
 56 63  2  0
 57 62  1  0
 58 59  1  0
 58 57  1  0
 60 59  1  0
 60 69  1  0
 60 61  1  0
 62 56  1  0
 62 61  1  0
 64 65  1  0
 65 55  1  0
 65 56  1  0
 66 67  2  0
 67 86  1  0
 68 67  1  0
 68 71  1  0
 69 66  1  0
 69 70  1  0
 70 68  2  0
 71 72  1  0
 72 73  2  0
 74 77  1  0
 74 73  1  0
 75 74  2  0
 76 75  1  0
 76 71  2  0
 77 78  1  0
 78 79  1  0
 79 80  2  0
 81 80  1  0
 81 85  1  0
 82 81  2  0
 83 78  2  0
 83 82  1  0
 84 83  1  0
 86 87  1  0
 87 90  1  0
 87 89  1  0
 88 86  2  0
 91 92  1  0
 91 66  1  0
 93 91  1  0
 97 95  1  6
 96 97  1  0
 97 94  1  0
M  ISO  4  11 101  12 101  56 100  65 100
M  END
>  <TORSDO>  (71) 
F 23

>  <SCORE>  (71) 
-13.257

>  <name>  (71) 
75

>  <ligand_id>  (71) 
75

>  <original_smiles>  (71) 
[H]c1c([H])c([H])c2c(c1[H])C([H])([H])C([H])([H])C([H])([H])C2([H])N([H])C(=O)C1([H])N(C(=O)C([H])(N([H])C(=O)C([H])(N([H])C([H])([H])[H])C([H])([H])[H])C(C([H])([H])[H])(C([H])([H])[H])C([H])([H])[H])C([H])([H])c2c([H])c(OC([H])([H])C([H])([H])C([H])([H])C(c3nc(C([H])(N(C(=O)N4C([H])([H])C([H])([H])C([H])([H])C([H])(n5nc(-c6c([H])c([H])c(Oc7c([H])c([H])c(F)c([H])c7F)c([H])c6[H])c(C(=O)N([H])[H])c5N([H])[H])C4([H])[H])C([H])([H])[H])C(C([H])([H])[H])(C([H])([H])[H])C([H])([H])[H])nn3C([H])([H])C([H])([H])[H])(C([H])([H])[H])C([H])([H])[H])c([H])c([H])c2C1([H])[H]

>  <smiles>  (71) 
[H]c1c([H])c([H])c2c(c1[H])C([H])([H])C([H])([H])C([H])([H])C2([H])N([H])C(=O)C1([H])N(C(=O)C([H])(N([H])C(=O)C([H])(N([H])C([H])([H])[H])C([H])([H])[H])C(C([H])([H])[H])(C([H])([H])[H])C([H])([H])[H])C([H])([H])c2c([H])c(OC([H])([H])C([H])([H])C([H])([H])C(c3nc(C([H])(N(C(=O)N4C([H])([H])C([H])([H])C([H])([H])C([H])(n5nc(-c6c([H])c([H])c(Oc7c([H])c([H])c(F)c([H])c7F)c([H])c6[H])c(C(=O)N([H])[H])c5N([H])[H])C4([H])[H])C([H])([H])[H])C(C([H])([H])[H])(C([H])([H])[H])C([H])([H])[H])nn3C([H])([H])C([H])([H])[H])(C([H])([H])[H])C([H])([H])[H])c([H])c([H])c2C1([H])[H]

$$$$
76:0:0
     RDKit          3D

 92100  0  0  1  0  0  0  0  0999 V2000
  -26.7400  -22.6440   19.2590 C   0  0  0  0  0  1  0  0  0  0  0  0
  -28.0360  -23.0210   20.0030 C   0  0  0  0  0  3  0  0  0  0  0  0
  -29.5040  -19.3800   20.0820 C   0  0  0  0  0  0  0  0  0  0  0  0
  -29.3940  -21.1430   21.3470 C   0  0  0  0  0  3  0  0  0  0  0  0
  -29.4390  -22.0050   22.5690 C   0  0  0  0  0  1  0  0  0  0  0  0
  -29.8120  -19.8450   21.3400 N   0  0  0  0  0  0  0  0  0  0  0  0
  -28.9330  -20.4390   19.3610 N   0  0  0  0  0  2  0  0  0  0  0  0
  -28.8570  -21.6180   20.1980 N   0  0  0  0  0  0  0  0  0  0  0  0
  -31.4820  -18.1240   19.0230 C   0  0  0  0  0  1  0  0  0  0  0  0
  -30.0290  -17.8960   19.4830 C   0  0  0  0  0  0  0  0  0  0  0  0
  -30.5940  -15.1320   19.9530 C   0  0  0  0  0  0  0  0  0  0  0  0
  -30.4740  -12.6910   19.1970 C   0  0  0  0  0  2  0  0  0  0  0  0
  -29.5290  -12.5670   17.9830 C   0  0  0  0  0  2  0  0  0  0  0  0
  -28.0840  -12.3320   18.4560 C   0  0  0  0  0  2  0  0  0  0  0  0
  -27.6840  -13.3110   19.5920 C   0  0  0  0  0  3  0  0  0  0  0  0
  -28.7630  -13.4380   20.6890 C   0  0  0  0  0  2  0  0  0  0  0  0
  -30.0050  -13.8530   20.0240 N   0  0  0  0  0  0  0  0  0  0  0  0
  -31.7790  -15.1180   19.6050 O   0  0  0  0  0  0  0  0  0  0  0  0
  -29.8560  -16.3810   20.0580 N   0  0  0  0  0  4  0  0  0  0  0  0
  -28.9390  -16.2570   20.4560 H   0  0  0  0  0  0  0  0  0  0  0  0
  -25.3460  -13.8930   20.4450 C   0  0  0  0  0  0  0  0  0  0  0  0
  -24.2920  -13.1240   20.8450 C   0  0  0  0  0  0  0  0  0  0  0  0
  -24.7380  -11.7690   20.7710 C   0  0  0  0  0  0  0  0  0  0  0  0
  -26.3680  -13.0110   20.1440 N   0  0  0  0  0  0  0  0  0  0  0  0
  -26.0150  -11.7260   20.4050 N   0  0  0  0  0  0  0  0  0  0  0  0
  -24.0030  -10.5140   20.9610 C   0  0  0  0  0  0  0  0  0  0  0  0
  -24.4240   -9.5410   21.8930 C   0  0  0  0  0  3  0  0  0  0  0  0
  -23.6820   -8.3550   22.0740 C   0  0  0  0  0  3  0  0  0  0  0  0
  -22.5040   -8.1320   21.3240 C   0  0  0  0  0  0  0  0  0  0  0  0
  -22.1040   -9.0920   20.3780 C   0  0  0  0  0  3  0  0  0  0  0  0
  -22.8470  -10.2700   20.1940 C   0  0  0  0  0  3  0  0  0  0  0  0
  -21.7330   -6.9970   21.4160 O   0  0  0  0  0  0  0  0  0  0  0  0
  -21.6340   -6.2860   22.5850 C   0  0  0  0  0  0  0  0  0  0  0  0
  -21.1590   -6.8730   23.7770 C   0  0  0  0  0  3  0  0  0  0  0  0
  -21.0050   -6.0880   24.9370 C   0  0  0  0  0  3  0  0  0  0  0  0
  -21.3190   -4.7160   24.9080 C   0  0  0  0  0  0  0  0  0  0  0  0
  -21.7880   -4.1280   23.7200 C   0  0  0  0  0  3  0  0  0  0  0  0
  -21.9430   -4.9110   22.5610 C   0  0  0  0  0  0  0  0  0  0  0  0
  -22.3740   -4.3330   21.4150 F   0  0  0  0  0  0  0  0  0  0  0  0
  -21.1670   -3.9610   26.0200 F   0  0  0  0  0  0  0  0  0  0  0  0
  -22.9140  -13.6150   21.1840 C   0  0  0  0  0  0  0  0  0  0  0  0
  -22.2180  -12.9220   22.0750 N   0  0  0  0  0  0  0  0  0  0  0  0
  -22.4690  -14.6520   20.6880 O   0  0  0  0  0  0  0  0  0  0  0  0
  -22.5910  -12.0830   22.4970 H   0  0  0  0  0  0  0  0  0  0  0  0
  -21.2940  -13.2330   22.3420 H   0  0  0  0  0  0  0  0  0  0  0  0
  -25.5160  -15.2680   20.2850 N   0  0  0  0  0  0  0  0  0  0  0  0
  -24.7450  -15.9160   20.4130 H   0  0  0  0  0  0  0  0  0  0  0  0
  -26.3530  -15.7200   19.9420 H   0  0  0  0  0  0  0  0  0  0  0  0
  -30.0810  -24.5070   19.9780 C   0  0  0  0  0  1  0  0  0  0  0  0
  -28.5410  -24.7270   18.0170 C   0  0  0  0  0  1  0  0  0  0  0  0
  -28.6030  -24.6010   19.5530 C   0  0  1  0  0  0  0  0  0  0  0  0
  -28.3260  -26.1100   20.0320 O   0  0  0  0  0  0  0  0  0  0  0  0
  -24.6410  -31.7650   23.0380 C   0  0  0  0  0  0  0  0  0  0  0  0
  -27.2510  -27.0890   19.9030 C   0  0  0  0  0  0  0  0  0  0  0  0
  -23.4500  -30.3930   21.3710 C   0  0  0  0  0  3  0  0  0  0  0  0
  -24.9050  -28.8480   19.9050 C   0  0  0  0  0  0  0  0  0  0  0  0
  -25.9980  -30.6820   21.1910 C   0  0  0  0  0  2  0  0  0  0  0  0
  -26.0840  -29.2930   20.5130 C   0  0  0  0  0  0  0  0  0  0  0  0
  -27.2500  -28.4290   20.4970 C   0  0  0  0  0  3  0  0  0  0  0  0
  -26.0400  -26.7540   19.2650 C   0  0  0  0  0  3  0  0  0  0  0  0
  -24.8960  -27.5890   19.2770 C   0  0  0  0  0  3  0  0  0  0  0  0
  -23.6750  -29.7460   19.9750 C   0  0  0  0  0  2  0  0  0  0  0  0
  -24.7180  -30.9690   21.9250 N   0  0  0  0  0  0  0  0  0  0  0  0
  -23.5540  -32.0220   23.5800 O   0  0  0  0  0  0  0  0  0  0  0  0
  -22.7910  -29.3570   22.3150 C   0  0  0  0  0  0  0  0  0  0  0  0
  -21.4620  -29.1870   22.2020 N   0  0  0  0  0  0  0  0  0  0  0  0
  -23.4760  -28.7100   23.1120 O   0  0  0  0  0  0  0  0  0  0  0  0
  -20.9680  -29.7640   21.5360 H   0  0  0  0  0  0  0  0  0  0  0  0
  -18.0950  -27.9350   22.6970 C   0  0  0  0  0  0  0  0  0  0  0  0
  -20.6540  -28.2210   22.9520 C   0  0  0  0  0  3  0  0  0  0  0  0
  -20.7680  -26.8080   22.3360 C   0  0  0  0  0  2  0  0  0  0  0  0
  -19.6620  -26.5010   21.3220 C   0  0  0  0  0  2  0  0  0  0  0  0
  -18.2830  -26.6090   21.9800 C   0  0  0  0  0  2  0  0  0  0  0  0
  -19.2090  -28.7000   23.1390 C   0  0  0  0  0  0  0  0  0  0  0  0
  -18.9800  -29.9410   23.7720 C   0  0  0  0  0  3  0  0  0  0  0  0
  -17.6720  -30.4160   23.9740 C   0  0  0  0  0  3  0  0  0  0  0  0
  -16.5730  -29.6500   23.5480 C   0  0  0  0  0  3  0  0  0  0  0  0
  -16.7850  -28.4130   22.9120 C   0  0  0  0  0  3  0  0  0  0  0  0
  -25.9140  -32.4040   23.6770 C   0  0  0  0  0  3  0  0  0  0  0  0
  -26.4360  -31.6090   24.9370 C   0  0  1  0  0  0  0  0  0  0  0  0
  -25.3440  -31.3500   26.0060 C   0  0  0  0  0  1  0  0  0  0  0  0
  -27.0220  -30.2430   24.5110 C   0  0  0  0  0  1  0  0  0  0  0  0
  -27.5950  -32.3850   25.6050 C   0  0  0  0  0  1  0  0  0  0  0  0
  -25.5890  -33.7910   24.0510 N   0  0  0  0  0  0  0  0  0  0  0  0
  -25.9110  -34.8740   23.3300 C   0  0  0  0  0  0  0  0  0  0  0  0
  -26.5850  -34.8110   22.3000 O   0  0  0  0  0  0  0  0  0  0  0  0
  -25.0120  -33.9170   24.8690 H   0  0  0  0  0  0  0  0  0  0  0  0
  -24.1720  -36.6660   23.0200 C   0  0  0  0  0  1  0  0  0  0  0  0
  -25.4070  -36.2440   23.8310 C   0  0  0  0  0  3  0  0  0  0  0  0
  -27.5210  -37.1200   24.7240 C   0  0  0  0  0  1  0  0  0  0  0  0
  -26.4310  -37.3110   23.7680 N   0  0  0  0  0  0  0  0  0  0  0  0
  -26.0140  -38.2190   23.9440 H   0  0  0  0  0  0  0  0  0  0  0  0
  2  1  1  0
  2  8  1  0
  3  6  2  0
  4  5  1  0
  6  4  1  0
  7  3  1  0
  7  8  1  0
  8  4  1  0
  9 10  1  0
 10 19  2  0
 10  3  1  0
 11 17  1  0
 11 19  1  0
 12 17  1  0
 13 14  1  0
 13 12  1  0
 15 14  1  0
 15 24  1  0
 15 16  1  0
 17 16  1  0
 18 11  2  0
 19 20  1  0
 21 22  2  0
 22 41  1  0
 23 22  1  0
 23 26  1  0
 24 25  1  0
 24 21  1  0
 25 23  2  0
 26 27  1  0
 27 28  2  0
 29 32  1  0
 29 28  1  0
 30 29  2  0
 31 30  1  0
 31 26  2  0
 32 33  1  0
 33 34  1  0
 34 35  2  0
 36 35  1  0
 36 40  1  0
 37 36  2  0
 38 33  2  0
 38 37  1  0
 39 38  1  0
 41 42  1  0
 42 45  1  0
 42 44  1  0
 43 41  2  0
 46 47  1  0
 46 21  1  0
 48 46  1  0
 51 50  1  6
 51 49  1  0
 51  2  1  0
 51 52  1  0
 53 64  2  0
 54 52  1  0
 54 59  1  0
 55 63  1  0
 55 65  1  0
 56 62  1  0
 56 58  1  0
 57 63  1  0
 58 57  1  0
 59 58  2  0
 60 61  1  0
 60 54  2  0
 61 56  2  0
 62 55  1  0
 63 53  1  0
 65 67  2  0
 66 65  1  0
 68 66  1  0
 69 78  2  0
 69 74  1  0
 70 66  1  0
 70 74  1  0
 71 70  1  0
 72 73  1  0
 72 71  1  0
 73 69  1  0
 74 75  2  0
 75 76  1  0
 77 76  2  0
 78 77  1  0
 79 53  1  0
 79 84  1  0
 79 80  1  0
 80 83  1  1
 80 81  1  0
 82 80  1  0
 84 87  1  0
 85 89  1  0
 85 84  1  0
 86 85  2  0
 89 88  1  0
 91 89  1  0
 91 92  1  0
 91 90  1  0
M  ISO  4  11 100  19 100  51 101  52 101
M  END
>  <TORSDO>  (72) 
F 19

>  <SCORE>  (72) 
-14.621

>  <name>  (72) 
76

>  <ligand_id>  (72) 
76

>  <original_smiles>  (72) 
[H]c1c([H])c([H])c2c(c1[H])C([H])([H])C([H])([H])C([H])([H])C2([H])N([H])C(=O)C1([H])N(C(=O)C([H])(N([H])C(=O)C([H])(N([H])C([H])([H])[H])C([H])([H])[H])C(C([H])([H])[H])(C([H])([H])[H])C([H])([H])[H])C([H])([H])c2c([H])c(OC(C([H])([H])[H])(C([H])([H])[H])C([H])(n3nc(C([H])(N([H])C(=O)N4C([H])([H])C([H])([H])C([H])([H])C([H])(n5nc(-c6c([H])c([H])c(Oc7c([H])c([H])c(F)c([H])c7F)c([H])c6[H])c(C(=O)N([H])[H])c5N([H])[H])C4([H])[H])C([H])([H])[H])nc3C([H])([H])[H])C([H])([H])[H])c([H])c([H])c2C1([H])[H]

>  <smiles>  (72) 
[H]c1c([H])c([H])c2c(c1[H])C([H])([H])C([H])([H])C([H])([H])C2([H])N([H])C(=O)C1([H])N(C(=O)C([H])(N([H])C(=O)C([H])(N([H])C([H])([H])[H])C([H])([H])[H])C(C([H])([H])[H])(C([H])([H])[H])C([H])([H])[H])C([H])([H])c2c([H])c(OC(C([H])([H])[H])(C([H])([H])[H])C([H])(n3nc(C([H])(N([H])C(=O)N4C([H])([H])C([H])([H])C([H])([H])C([H])(n5nc(-c6c([H])c([H])c(Oc7c([H])c([H])c(F)c([H])c7F)c([H])c6[H])c(C(=O)N([H])[H])c5N([H])[H])C4([H])[H])C([H])([H])[H])nc3C([H])([H])[H])C([H])([H])[H])c([H])c([H])c2C1([H])[H]

$$$$
77:0:0
     RDKit          3D

100108  0  0  1  0  0  0  0  0999 V2000
  -28.1660  -20.5780   20.7140 C   0  0  0  0  0  2  0  0  0  0  0  0
  -29.1540  -18.9780   19.8140 C   0  0  0  0  0  0  0  0  0  0  0  0
  -28.0290  -19.2570   20.5470 N   0  0  0  0  0  0  0  0  0  0  0  0
  -29.8830  -20.0510   19.4900 N   0  0  0  0  0  2  0  0  0  0  0  0
  -29.2610  -21.0770   20.1340 N   0  0  0  0  0  0  0  0  0  0  0  0
  -29.6010  -17.5650   19.4640 C   0  0  0  0  0  2  0  0  0  0  0  0
  -31.2040  -17.9380   21.4290 C   0  0  0  0  0  1  0  0  0  0  0  0
  -30.8790  -16.9980   20.2140 C   0  0  2  0  0  0  0  0  0  0  0  0
  -32.0990  -17.2280   19.2270 C   0  0  1  0  0  0  0  0  0  0  0  0
  -33.2290  -16.7040   19.7000 F   0  0  0  0  0  0  0  0  0  0  0  0
  -31.9150  -16.7890   17.9870 F   0  0  0  0  0  0  0  0  0  0  0  0
  -32.3540  -18.5260   19.0730 F   0  0  0  0  0  0  0  0  0  0  0  0
  -31.8420  -14.9730   21.6400 C   0  0  0  0  0  1  0  0  0  0  0  0
  -29.4440  -15.4510   21.7380 C   0  0  0  0  0  1  0  0  0  0  0  0
  -30.6540  -15.4580   20.7500 C   0  0  1  0  0  0  0  0  0  0  0  0
  -30.6290  -14.3550   19.5950 C   0  0  0  0  0  0  0  0  0  0  0  0
  -30.0890  -12.2030   18.4580 C   0  0  0  0  0  2  0  0  0  0  0  0
  -29.0160  -12.3340   17.3560 C   0  0  0  0  0  2  0  0  0  0  0  0
  -27.6060  -12.1850   17.9510 C   0  0  0  0  0  2  0  0  0  0  0  0
  -27.4140  -13.0800   19.2000 C   0  0  0  0  0  3  0  0  0  0  0  0
  -28.5790  -12.8800   20.1850 C   0  0  0  0  0  2  0  0  0  0  0  0
  -29.8420  -13.2280   19.5070 N   0  0  0  0  0  0  0  0  0  0  0  0
  -31.5150  -14.4860   18.7520 O   0  0  0  0  0  0  0  0  0  0  0  0
  -25.1570  -13.7260   20.2500 C   0  0  0  0  0  0  0  0  0  0  0  0
  -24.1420  -12.9710   20.7650 C   0  0  0  0  0  0  0  0  0  0  0  0
  -24.5720  -11.6100   20.6630 C   0  0  0  0  0  0  0  0  0  0  0  0
  -26.1370  -12.8290   19.8580 N   0  0  0  0  0  0  0  0  0  0  0  0
  -25.7980  -11.5510   20.1670 N   0  0  0  0  0  0  0  0  0  0  0  0
  -23.8660  -10.3580   20.9520 C   0  0  0  0  0  0  0  0  0  0  0  0
  -24.3620   -9.4250   21.8880 C   0  0  0  0  0  3  0  0  0  0  0  0
  -23.6540   -8.2340   22.1550 C   0  0  0  0  0  3  0  0  0  0  0  0
  -22.4310   -7.9710   21.4910 C   0  0  0  0  0  0  0  0  0  0  0  0
  -21.9540   -8.8950   20.5440 C   0  0  0  0  0  3  0  0  0  0  0  0
  -22.6650  -10.0760   20.2750 C   0  0  0  0  0  3  0  0  0  0  0  0
  -21.6850   -6.8320   21.6690 O   0  0  0  0  0  0  0  0  0  0  0  0
  -21.6740   -6.1630   22.8670 C   0  0  0  0  0  0  0  0  0  0  0  0
  -21.2860   -6.7910   24.0710 C   0  0  0  0  0  3  0  0  0  0  0  0
  -21.2200   -6.0440   25.2650 C   0  0  0  0  0  3  0  0  0  0  0  0
  -21.5330   -4.6710   25.2530 C   0  0  0  0  0  0  0  0  0  0  0  0
  -21.9170   -4.0450   24.0540 C   0  0  0  0  0  3  0  0  0  0  0  0
  -21.9840   -4.7880   22.8640 C   0  0  0  0  0  0  0  0  0  0  0  0
  -22.3290   -4.1740   21.7070 F   0  0  0  0  0  0  0  0  0  0  0  0
  -21.4620   -3.9500   26.3960 F   0  0  0  0  0  0  0  0  0  0  0  0
  -22.8050  -13.4660   21.2320 C   0  0  0  0  0  0  0  0  0  0  0  0
  -22.2040  -12.7950   22.2050 N   0  0  0  0  0  0  0  0  0  0  0  0
  -22.3060  -14.4890   20.7630 O   0  0  0  0  0  0  0  0  0  0  0  0
  -22.6200  -11.9630   22.6010 H   0  0  0  0  0  0  0  0  0  0  0  0
  -21.3120  -13.1140   22.5530 H   0  0  0  0  0  0  0  0  0  0  0  0
  -25.3270  -15.0960   20.0600 N   0  0  0  0  0  0  0  0  0  0  0  0
  -24.6110  -15.7680   20.3120 H   0  0  0  0  0  0  0  0  0  0  0  0
  -26.1260  -15.5210   19.6050 H   0  0  0  0  0  0  0  0  0  0  0  0
  -29.9100  -22.3880   20.2470 C   0  0  0  0  0  3  0  0  0  0  0  0
  -29.1560  -23.6020   19.6200 C   0  0  0  0  0  3  0  0  0  0  0  0
  -31.0660  -24.5470   18.2680 C   0  0  0  0  0  1  0  0  0  0  0  0
  -30.8160  -25.2420   20.6400 C   0  0  0  0  0  1  0  0  0  0  0  0
  -30.0170  -24.9010   19.3580 C   0  0  2  0  0  0  0  0  0  0  0  0
  -29.9780  -27.3830   18.4920 C   0  0  0  0  0  1  0  0  0  0  0  0
  -28.2540  -25.7840   17.6890 C   0  0  0  0  0  1  0  0  0  0  0  0
  -29.1300  -26.1580   18.9070 C   0  0  1  0  0  0  0  0  0  0  0  0
  -28.3910  -26.6320   20.0660 O   0  0  0  0  0  0  0  0  0  0  0  0
  -24.5780  -31.8170   23.1520 C   0  0  0  0  0  0  0  0  0  0  0  0
  -27.2490  -27.4210   19.9870 C   0  0  0  0  0  0  0  0  0  0  0  0
  -23.3810  -30.4360   21.4890 C   0  0  0  0  0  3  0  0  0  0  0  0
  -24.8460  -28.9340   20.0360 C   0  0  0  0  0  0  0  0  0  0  0  0
  -25.9100  -30.8040   21.3030 C   0  0  0  0  0  2  0  0  0  0  0  0
  -26.0050  -29.4450   20.6350 C   0  0  0  0  0  0  0  0  0  0  0  0
  -27.2080  -28.6920   20.6130 C   0  0  0  0  0  3  0  0  0  0  0  0
  -26.0510  -26.9120   19.4430 C   0  0  0  0  0  3  0  0  0  0  0  0
  -24.8640  -27.6660   19.4380 C   0  0  0  0  0  3  0  0  0  0  0  0
  -23.5980  -29.7860   20.0970 C   0  0  0  0  0  2  0  0  0  0  0  0
  -24.6410  -31.0320   22.0400 N   0  0  0  0  0  0  0  0  0  0  0  0
  -23.4960  -32.0720   23.6970 O   0  0  0  0  0  0  0  0  0  0  0  0
  -22.7370  -29.3940   22.4320 C   0  0  0  0  0  0  0  0  0  0  0  0
  -21.4130  -29.1990   22.2950 N   0  0  0  0  0  0  0  0  0  0  0  0
  -23.4230  -28.7680   23.2430 O   0  0  0  0  0  0  0  0  0  0  0  0
  -20.9200  -29.7640   21.6190 H   0  0  0  0  0  0  0  0  0  0  0  0
  -18.0490  -27.9550   22.7440 C   0  0  0  0  0  0  0  0  0  0  0  0
  -20.5990  -28.2430   23.0500 C   0  0  0  0  0  3  0  0  0  0  0  0
  -20.7280  -26.8170   22.4650 C   0  0  0  0  0  2  0  0  0  0  0  0
  -19.6440  -26.4880   21.4360 C   0  0  0  0  0  2  0  0  0  0  0  0
  -18.2530  -26.6120   22.0650 C   0  0  0  0  0  2  0  0  0  0  0  0
  -19.1530  -28.7270   23.1950 C   0  0  0  0  0  0  0  0  0  0  0  0
  -18.9110  -29.9840   23.7890 C   0  0  0  0  0  3  0  0  0  0  0  0
  -17.6000  -30.4690   23.9400 C   0  0  0  0  0  3  0  0  0  0  0  0
  -16.5090  -29.6910   23.5120 C   0  0  0  0  0  3  0  0  0  0  0  0
  -16.7350  -28.4370   22.9180 C   0  0  0  0  0  3  0  0  0  0  0  0
  -25.8610  -32.4460   23.7800 C   0  0  0  0  0  3  0  0  0  0  0  0
  -26.3830  -31.6620   25.0460 C   0  0  1  0  0  0  0  0  0  0  0  0
  -25.2920  -31.4020   26.1100 C   0  0  0  0  0  1  0  0  0  0  0  0
  -26.9750  -30.2940   24.6320 C   0  0  0  0  0  1  0  0  0  0  0  0
  -27.5260  -32.4560   25.7200 C   0  0  0  0  0  1  0  0  0  0  0  0
  -25.5450  -33.8380   24.1240 N   0  0  0  0  0  0  0  0  0  0  0  0
  -25.8810  -34.8990   23.3790 C   0  0  0  0  0  0  0  0  0  0  0  0
  -26.5610  -34.8110   22.3540 O   0  0  0  0  0  0  0  0  0  0  0  0
  -24.9400  -33.9800   24.9190 H   0  0  0  0  0  0  0  0  0  0  0  0
  -24.1540  -36.6890   23.0330 C   0  0  0  0  0  1  0  0  0  0  0  0
  -25.3870  -36.2790   23.8530 C   0  0  0  0  0  3  0  0  0  0  0  0
  -27.5120  -37.1510   24.7180 C   0  0  0  0  0  1  0  0  0  0  0  0
  -26.4190  -37.3350   23.7680 N   0  0  0  0  0  0  0  0  0  0  0  0
  -26.0090  -38.2500   23.9320 H   0  0  0  0  0  0  0  0  0  0  0  0
  2  3  2  0
  3  1  1  0
  4  2  1  0
  4  5  1  0
  5 52  1  0
  5  1  1  0
  6  2  1  0
  6  8  1  0
  8 15  1  0
  8  7  1  1
  9 10  1  1
  9  8  1  0
 11  9  1  0
 12  9  1  0
 15 13  1  1
 15 14  1  0
 16 15  1  0
 17 22  1  0
 18 19  1  0
 18 17  1  0
 20 19  1  0
 20 27  1  0
 20 21  1  0
 22 16  1  0
 22 21  1  0
 23 16  2  0
 24 25  2  0
 25 44  1  0
 26 25  1  0
 26 29  1  0
 27 28  1  0
 27 24  1  0
 28 26  2  0
 29 30  1  0
 30 31  2  0
 32 35  1  0
 32 31  1  0
 33 32  2  0
 34 33  1  0
 34 29  2  0
 35 36  1  0
 36 37  1  0
 37 38  2  0
 39 38  1  0
 39 43  1  0
 40 39  2  0
 41 36  2  0
 41 40  1  0
 42 41  1  0
 44 45  1  0
 45 48  1  0
 45 47  1  0
 46 44  2  0
 49 24  1  0
 49 50  1  0
 51 49  1  0
 53 52  2  0
 56 54  1  6
 56 53  1  0
 56 55  1  0
 59 57  1  6
 58 59  1  0
 59 56  1  0
 59 60  1  0
 61 72  2  0
 62 60  1  0
 62 67  1  0
 63 71  1  0
 63 73  1  0
 64 70  1  0
 64 66  1  0
 65 71  1  0
 66 65  1  0
 67 66  2  0
 68 62  2  0
 69 68  1  0
 69 64  2  0
 70 63  1  0
 71 61  1  0
 73 75  2  0
 74 73  1  0
 76 74  1  0
 77 86  2  0
 77 82  1  0
 78 74  1  0
 78 82  1  0
 79 78  1  0
 80 81  1  0
 80 79  1  0
 81 77  1  0
 82 83  2  0
 83 84  1  0
 85 84  2  0
 86 85  1  0
 87 61  1  0
 87 92  1  0
 87 88  1  0
 88 91  1  1
 88 89  1  0
 90 88  1  0
 92 95  1  0
 93 97  1  0
 93 92  1  0
 94 93  2  0
 97 96  1  0
 99 97  1  0
 99100  1  0
 99 98  1  0
M  ISO  4  15 100  16 100  59 101  60 101
M  END
>  <TORSDO>  (73) 
F 24

>  <SCORE>  (73) 
-11.300

>  <name>  (73) 
77

>  <ligand_id>  (73) 
77

>  <original_smiles>  (73) 
[H]c1c([H])c([H])c2c(c1[H])C([H])([H])C([H])([H])C([H])([H])C2([H])N([H])C(=O)C1([H])N(C(=O)C([H])(N([H])C(=O)C([H])(N([H])C([H])([H])[H])C([H])([H])[H])C(C([H])([H])[H])(C([H])([H])[H])C([H])([H])[H])C([H])([H])c2c([H])c(OC(C([H])([H])[H])(C([H])([H])[H])C(C([H])([H])[H])(C([H])([H])[H])C([H])([H])C([H])([H])n3nc(C([H])([H])C(C([H])([H])[H])(C(F)(F)F)C(C(=O)N4C([H])([H])C([H])([H])C([H])([H])C([H])(n5nc(-c6c([H])c([H])c(Oc7c([H])c([H])c(F)c([H])c7F)c([H])c6[H])c(C(=O)N([H])[H])c5N([H])[H])C4([H])[H])(C([H])([H])[H])C([H])([H])[H])nc3[H])c([H])c([H])c2C1([H])[H]

>  <smiles>  (73) 
[H]c1c([H])c([H])c2c(c1[H])C([H])([H])C([H])([H])C([H])([H])C2([H])N([H])C(=O)C1([H])N(C(=O)C([H])(N([H])C(=O)C([H])(N([H])C([H])([H])[H])C([H])([H])[H])C(C([H])([H])[H])(C([H])([H])[H])C([H])([H])[H])C([H])([H])c2c([H])c(OC(C([H])([H])[H])(C([H])([H])[H])C(C([H])([H])[H])(C([H])([H])[H])C([H])([H])C([H])([H])n3nc(C([H])([H])C(C([H])([H])[H])(C(F)(F)F)C(C(=O)N4C([H])([H])C([H])([H])C([H])([H])C([H])(n5nc(-c6c([H])c([H])c(Oc7c([H])c([H])c(F)c([H])c7F)c([H])c6[H])c(C(=O)N([H])[H])c5N([H])[H])C4([H])[H])(C([H])([H])[H])C([H])([H])[H])nc3[H])c([H])c([H])c2C1([H])[H]

$$$$
78:0:0
     RDKit          3D

 97105  0  0  1  0  0  0  0  0999 V2000
  -29.1810  -18.5140   21.7550 C   0  0  0  0  0  3  0  0  0  0  0  0
  -31.4430  -19.9310   21.3580 C   0  0  0  0  0  3  0  0  0  0  0  0
  -30.4270  -17.8550   21.5670 C   0  0  0  0  0  0  0  0  0  0  0  0
  -30.1840  -20.5760   21.4050 C   0  0  0  0  0  0  0  0  0  0  0  0
  -31.5660  -18.5800   21.4130 N   0  0  0  0  0  0  0  0  0  0  0  0
  -29.0470  -19.8610   21.6270 N   0  0  0  0  0  0  0  0  0  0  0  0
  -31.6900  -15.6930   22.0780 C   0  0  0  0  0  1  0  0  0  0  0  0
  -30.5060  -16.3270   21.3090 C   0  0  0  0  0  3  0  0  0  0  0  0
  -31.3710  -16.9210   18.9540 C   0  0  0  0  0  1  0  0  0  0  0  0
  -30.4360  -15.9470   19.7640 C   0  0  1  0  0  0  0  0  0  0  0  0
  -30.9180  -14.4730   19.3890 C   0  0  0  0  0  0  0  0  0  0  0  0
  -30.4120  -12.2230   18.4930 C   0  0  0  0  0  2  0  0  0  0  0  0
  -29.3510  -12.3220   17.3790 C   0  0  0  0  0  2  0  0  0  0  0  0
  -27.9420  -12.1770   17.9820 C   0  0  0  0  0  2  0  0  0  0  0  0
  -27.7260  -13.1020   19.2050 C   0  0  0  0  0  3  0  0  0  0  0  0
  -28.9220  -13.0830   20.1920 C   0  0  0  0  0  2  0  0  0  0  0  0
  -30.1630  -13.3290   19.4460 N   0  0  0  0  0  0  0  0  0  0  0  0
  -32.0130  -14.4110   18.8260 O   0  0  0  0  0  0  0  0  0  0  0  0
  -25.4960  -13.7520   20.2960 C   0  0  0  0  0  0  0  0  0  0  0  0
  -24.4750  -12.9970   20.8090 C   0  0  0  0  0  0  0  0  0  0  0  0
  -24.8830  -11.6370   20.6690 C   0  0  0  0  0  0  0  0  0  0  0  0
  -26.4600  -12.8480   19.8790 N   0  0  0  0  0  0  0  0  0  0  0  0
  -26.1080  -11.5710   20.1640 N   0  0  0  0  0  0  0  0  0  0  0  0
  -24.1530  -10.3900   20.9230 C   0  0  0  0  0  0  0  0  0  0  0  0
  -24.6170   -9.4420   21.8620 C   0  0  0  0  0  3  0  0  0  0  0  0
  -23.8870   -8.2580   22.1020 C   0  0  0  0  0  3  0  0  0  0  0  0
  -22.6820   -8.0130   21.4030 C   0  0  0  0  0  0  0  0  0  0  0  0
  -22.2370   -8.9500   20.4520 C   0  0  0  0  0  3  0  0  0  0  0  0
  -22.9670  -10.1260   20.2100 C   0  0  0  0  0  3  0  0  0  0  0  0
  -21.9210   -6.8790   21.5520 O   0  0  0  0  0  0  0  0  0  0  0  0
  -21.8110   -6.2430   22.7610 C   0  0  0  0  0  0  0  0  0  0  0  0
  -21.3100   -6.9000   23.9080 C   0  0  0  0  0  3  0  0  0  0  0  0
  -21.1510   -6.1890   25.1140 C   0  0  0  0  0  3  0  0  0  0  0  0
  -21.4810   -4.8210   25.1740 C   0  0  0  0  0  0  0  0  0  0  0  0
  -21.9740   -4.1650   24.0330 C   0  0  0  0  0  3  0  0  0  0  0  0
  -22.1360   -4.8740   22.8290 C   0  0  0  0  0  0  0  0  0  0  0  0
  -22.5920   -4.2330   21.7270 F   0  0  0  0  0  0  0  0  0  0  0  0
  -21.3210   -4.1340   26.3280 F   0  0  0  0  0  0  0  0  0  0  0  0
  -23.1490  -13.5080   21.2930 C   0  0  0  0  0  0  0  0  0  0  0  0
  -22.5430  -12.8210   22.2560 N   0  0  0  0  0  0  0  0  0  0  0  0
  -22.6670  -14.5490   20.8510 O   0  0  0  0  0  0  0  0  0  0  0  0
  -22.9510  -11.9780   22.6300 H   0  0  0  0  0  0  0  0  0  0  0  0
  -21.6600  -13.1490   22.6220 H   0  0  0  0  0  0  0  0  0  0  0  0
  -25.6670  -15.1200   20.1160 N   0  0  0  0  0  0  0  0  0  0  0  0
  -24.8240  -15.6650   20.2730 H   0  0  0  0  0  0  0  0  0  0  0  0
  -26.1050  -15.3880   19.2460 H   0  0  0  0  0  0  0  0  0  0  0  0
  -28.9800  -16.1450   19.2150 C   0  0  0  0  0  2  0  0  0  0  0  0
  -28.6320  -17.4990   18.7180 N   0  0  0  0  0  4  0  0  0  0  0  0
  -28.6950  -18.1920   19.4430 H   0  0  0  0  0  0  0  0  0  0  0  0
  -27.6850  -17.5050   18.3750 H   0  0  0  0  0  0  0  0  0  0  0  0
  -29.2340  -17.7670   17.9580 H   0  0  0  0  0  0  0  0  0  0  0  0
  -30.1010  -21.9440   21.1760 O   0  0  0  0  0  0  0  0  0  0  0  0
  -28.9300  -22.4760   20.5360 C   0  0  0  0  0  2  0  0  0  0  0  0
  -29.2340  -23.8390   19.8490 C   0  0  0  0  0  2  0  0  0  0  0  0
  -28.9520  -25.1070   20.6930 C   0  0  0  0  0  2  0  0  0  0  0  0
  -29.4350  -26.4370   20.0550 C   0  0  0  0  0  2  0  0  0  0  0  0
  -28.6820  -26.8210   18.8950 O   0  0  0  0  0  0  0  0  0  0  0  0
  -24.8060  -31.2350   22.9710 C   0  0  0  0  0  0  0  0  0  0  0  0
  -27.5130  -27.5170   19.1070 C   0  0  0  0  0  0  0  0  0  0  0  0
  -23.5950  -30.0750   21.1510 C   0  0  0  0  0  3  0  0  0  0  0  0
  -25.0580  -28.8780   19.4350 C   0  0  0  0  0  0  0  0  0  0  0  0
  -26.0860  -30.5980   20.9310 C   0  0  0  0  0  2  0  0  0  0  0  0
  -26.2100  -29.3530   20.0730 C   0  0  0  0  0  0  0  0  0  0  0  0
  -27.4420  -28.6780   19.9130 C   0  0  0  0  0  3  0  0  0  0  0  0
  -26.3510  -27.0660   18.4500 C   0  0  0  0  0  3  0  0  0  0  0  0
  -25.1210  -27.7360   18.6170 C   0  0  0  0  0  3  0  0  0  0  0  0
  -23.7770  -29.6510   19.6670 C   0  0  0  0  0  2  0  0  0  0  0  0
  -24.8500  -30.6400   21.7440 N   0  0  0  0  0  0  0  0  0  0  0  0
  -23.7390  -31.3540   23.5880 O   0  0  0  0  0  0  0  0  0  0  0  0
  -23.0290  -28.8740   21.9410 C   0  0  0  0  0  0  0  0  0  0  0  0
  -21.7170  -28.6230   21.7920 N   0  0  0  0  0  0  0  0  0  0  0  0
  -23.7640  -28.1760   22.6450 O   0  0  0  0  0  0  0  0  0  0  0  0
  -21.1820  -29.2460   21.2030 H   0  0  0  0  0  0  0  0  0  0  0  0
  -18.4490  -27.1050   22.0530 C   0  0  0  0  0  0  0  0  0  0  0  0
  -20.9760  -27.5220   22.4060 C   0  0  0  0  0  3  0  0  0  0  0  0
  -21.1950  -26.1990   21.6330 C   0  0  0  0  0  2  0  0  0  0  0  0
  -20.1290  -25.9390   20.5640 C   0  0  0  0  0  2  0  0  0  0  0  0
  -18.7370  -25.8840   21.1980 C   0  0  0  0  0  2  0  0  0  0  0  0
  -19.4990  -27.8840   22.6070 C   0  0  0  0  0  0  0  0  0  0  0  0
  -19.1750  -29.0310   23.3630 C   0  0  0  0  0  3  0  0  0  0  0  0
  -17.8320  -29.4000   23.5730 C   0  0  0  0  0  3  0  0  0  0  0  0
  -16.7960  -28.6140   23.0370 C   0  0  0  0  0  3  0  0  0  0  0  0
  -17.1060  -27.4690   22.2830 C   0  0  0  0  0  3  0  0  0  0  0  0
  -26.0900  -31.8120   23.6470 C   0  0  0  0  0  3  0  0  0  0  0  0
  -26.6840  -30.8660   24.7630 C   0  0  1  0  0  0  0  0  0  0  0  0
  -25.6410  -30.4090   25.8090 C   0  0  0  0  0  1  0  0  0  0  0  0
  -27.3000  -29.5990   24.1260 C   0  0  0  0  0  1  0  0  0  0  0  0
  -27.8280  -31.5900   25.5090 C   0  0  0  0  0  1  0  0  0  0  0  0
  -25.7420  -33.1260   24.2040 N   0  0  0  0  0  0  0  0  0  0  0  0
  -26.0310  -34.3000   23.6260 C   0  0  0  0  0  0  0  0  0  0  0  0
  -26.6890  -34.3900   22.5850 O   0  0  0  0  0  0  0  0  0  0  0  0
  -25.1610  -33.1250   25.0300 H   0  0  0  0  0  0  0  0  0  0  0  0
  -24.2460  -36.0700   23.5700 C   0  0  0  0  0  1  0  0  0  0  0  0
  -25.5040  -35.5770   24.3050 C   0  0  0  0  0  3  0  0  0  0  0  0
  -27.6160  -36.3780   25.2690 C   0  0  0  0  0  1  0  0  0  0  0  0
  -26.5030  -36.6660   24.3690 N   0  0  0  0  0  0  0  0  0  0  0  0
  -26.0700  -37.5370   24.6710 H   0  0  0  0  0  0  0  0  0  0  0  0
  2  4  1  0
  2  5  2  0
  3  1  2  0
  4  6  2  0
  5  3  1  0
  6  1  1  0
  8  3  1  0
  8  7  1  0
 10  9  1  6
 10  8  1  0
 11 17  1  0
 11 10  1  0
 12 17  1  0
 13 14  1  0
 13 12  1  0
 15 14  1  0
 15 22  1  0
 15 16  1  0
 17 16  1  0
 18 11  2  0
 19 20  2  0
 20 39  1  0
 21 20  1  0
 21 24  1  0
 22 23  1  0
 22 19  1  0
 23 21  2  0
 24 25  1  0
 25 26  2  0
 27 30  1  0
 27 26  1  0
 28 27  2  0
 29 28  1  0
 29 24  2  0
 30 31  1  0
 31 36  2  0
 31 32  1  0
 32 33  2  0
 33 34  1  0
 34 38  1  0
 35 34  2  0
 36 35  1  0
 37 36  1  0
 39 40  1  0
 40 43  1  0
 40 42  1  0
 41 39  2  0
 44 45  1  0
 44 19  1  0
 46 44  1  0
 47 10  1  0
 48 47  1  0
 48 49  1  0
 50 48  1  0
 51 48  1  0
 52  4  1  0
 53 52  1  0
 54 53  1  0
 54 55  1  0
 56 55  1  0
 57 59  1  0
 57 56  1  0
 58 69  2  0
 59 64  1  0
 60 68  1  0
 60 70  1  0
 61 67  1  0
 61 63  1  0
 62 68  1  0
 63 62  1  0
 64 63  2  0
 65 66  1  0
 65 59  2  0
 66 61  2  0
 67 60  1  0
 68 58  1  0
 70 72  2  0
 71 70  1  0
 73 71  1  0
 74 83  2  0
 74 79  1  0
 75 71  1  0
 75 79  1  0
 76 75  1  0
 77 78  1  0
 77 76  1  0
 78 74  1  0
 79 80  2  0
 80 81  1  0
 82 81  2  0
 83 82  1  0
 84 58  1  0
 84 89  1  0
 84 85  1  0
 85 88  1  1
 85 86  1  0
 87 85  1  0
 89 92  1  0
 90 89  1  0
 90 94  1  0
 91 90  2  0
 94 93  1  0
 94 96  1  0
 96 97  1  0
 96 95  1  0
M  ISO  4  10 100  11 100  56 101  57 101
M  END
>  <TORSDO>  (74) 
F 25

>  <SCORE>  (74) 
-8.007

>  <name>  (74) 
78

>  <ligand_id>  (74) 
78

>  <original_smiles>  (74) 
[H]c1nc(C([H])(C([H])([H])[H])C(C(=O)N2C([H])([H])C([H])([H])C([H])([H])C([H])(n3nc(-c4c([H])c([H])c(Oc5c([H])c([H])c(F)c([H])c5F)c([H])c4[H])c(C(=O)N([H])[H])c3N([H])[H])C2([H])[H])(C([H])([H])[H])C([H])([H])[N+]([H])([H])[H])c([H])nc1OC([H])([H])C([H])([H])C([H])([H])C([H])([H])Oc1c([H])c([H])c2c(c1[H])C([H])([H])N(C(=O)C([H])(N([H])C(=O)C([H])(N([H])C([H])([H])[H])C([H])([H])[H])C(C([H])([H])[H])(C([H])([H])[H])C([H])([H])[H])C([H])(C(=O)N([H])C1([H])c3c([H])c([H])c([H])c([H])c3C([H])([H])C([H])([H])C1([H])[H])C2([H])[H]

>  <smiles>  (74) 
[H]c1nc(C([H])(C([H])([H])[H])C(C(=O)N2C([H])([H])C([H])([H])C([H])([H])C([H])(n3nc(-c4c([H])c([H])c(Oc5c([H])c([H])c(F)c([H])c5F)c([H])c4[H])c(C(=O)N([H])[H])c3N([H])[H])C2([H])[H])(C([H])([H])[H])C([H])([H])[N+]([H])([H])[H])c([H])nc1OC([H])([H])C([H])([H])C([H])([H])C([H])([H])Oc1c([H])c([H])c2c(c1[H])C([H])([H])N(C(=O)C([H])(N([H])C(=O)C([H])(N([H])C([H])([H])[H])C([H])([H])[H])C(C([H])([H])[H])(C([H])([H])[H])C([H])([H])[H])C([H])(C(=O)N([H])C1([H])c3c([H])c([H])c([H])c([H])c3C([H])([H])C([H])([H])C1([H])[H])C2([H])[H]

$$$$
79:0:0
     RDKit          3D

 93101  0  0  1  0  0  0  0  0999 V2000
  -26.1170  -22.0470   21.1800 C   0  0  0  0  0  1  0  0  0  0  0  0
  -25.9230  -21.2010   18.8930 C   0  0  0  0  0  1  0  0  0  0  0  0
  -26.9290  -21.8210   19.8820 C   0  0  2  0  0  0  0  0  0  0  0  0
  -28.1570  -20.8690   20.1810 C   0  0  0  0  0  2  0  0  0  0  0  0
  -28.3430  -19.5350   19.3820 C   0  0  0  0  0  2  0  0  0  0  0  0
  -29.6420  -18.4680   21.4380 C   0  0  0  0  0  3  0  0  0  0  0  0
  -29.7750  -17.3460   19.5590 C   0  0  0  0  0  3  0  0  0  0  0  0
  -29.2250  -18.4980   20.0770 C   0  0  0  0  0  0  0  0  0  0  0  0
  -30.3130  -17.3760   21.7380 N   0  0  0  0  0  0  0  0  0  0  0  0
  -30.3720  -16.6410   20.6020 N   0  0  0  0  0  0  0  0  0  0  0  0
  -32.6630  -15.8640   20.6070 C   0  0  0  0  0  1  0  0  0  0  0  0
  -31.0450  -14.6800   22.0040 C   0  0  0  0  0  1  0  0  0  0  0  0
  -31.1720  -15.3980   20.6300 C   0  0  1  0  0  0  0  0  0  0  0  0
  -30.9240  -14.4640   19.3820 C   0  0  0  0  0  0  0  0  0  0  0  0
  -30.1980  -12.3910   18.2250 C   0  0  0  0  0  2  0  0  0  0  0  0
  -29.0720  -12.6280   17.2090 C   0  0  0  0  0  2  0  0  0  0  0  0
  -27.7140  -12.4810   17.9040 C   0  0  0  0  0  2  0  0  0  0  0  0
  -27.6140  -13.3000   19.2200 C   0  0  0  0  0  3  0  0  0  0  0  0
  -28.8610  -13.1510   20.1230 C   0  0  0  0  0  2  0  0  0  0  0  0
  -30.0810  -13.3810   19.3250 N   0  0  0  0  0  0  0  0  0  0  0  0
  -31.6360  -14.7170   18.4100 O   0  0  0  0  0  0  0  0  0  0  0  0
  -25.5010  -13.8470   20.5760 C   0  0  0  0  0  0  0  0  0  0  0  0
  -24.4860  -13.0660   21.0480 C   0  0  0  0  0  0  0  0  0  0  0  0
  -24.8280  -11.7180   20.7060 C   0  0  0  0  0  0  0  0  0  0  0  0
  -26.3960  -12.9880   19.9590 N   0  0  0  0  0  0  0  0  0  0  0  0
  -26.0010  -11.6900   20.0860 N   0  0  0  0  0  0  0  0  0  0  0  0
  -24.0670  -10.4720   20.8670 C   0  0  0  0  0  0  0  0  0  0  0  0
  -24.5460   -9.4120   21.6690 C   0  0  0  0  0  3  0  0  0  0  0  0
  -23.7890   -8.2330   21.8280 C   0  0  0  0  0  3  0  0  0  0  0  0
  -22.5370   -8.1020   21.1800 C   0  0  0  0  0  0  0  0  0  0  0  0
  -22.0720   -9.1520   20.3690 C   0  0  0  0  0  3  0  0  0  0  0  0
  -22.8330  -10.3210   20.2070 C   0  0  0  0  0  3  0  0  0  0  0  0
  -21.7510   -6.9780   21.2490 O   0  0  0  0  0  0  0  0  0  0  0  0
  -21.6840   -6.2090   22.3840 C   0  0  0  0  0  0  0  0  0  0  0  0
  -21.2870   -6.7500   23.6260 C   0  0  0  0  0  3  0  0  0  0  0  0
  -21.1640   -5.9120   24.7540 C   0  0  0  0  0  3  0  0  0  0  0  0
  -21.4280   -4.5350   24.6400 C   0  0  0  0  0  0  0  0  0  0  0  0
  -21.8220   -3.9910   23.4040 C   0  0  0  0  0  3  0  0  0  0  0  0
  -21.9440   -4.8260   22.2800 C   0  0  0  0  0  0  0  0  0  0  0  0
  -22.2970   -4.2970   21.0830 F   0  0  0  0  0  0  0  0  0  0  0  0
  -21.3070   -3.7270   25.7190 F   0  0  0  0  0  0  0  0  0  0  0  0
  -23.2250  -13.5360   21.7130 C   0  0  0  0  0  0  0  0  0  0  0  0
  -22.6950  -12.7590   22.6460 N   0  0  0  0  0  0  0  0  0  0  0  0
  -22.7370  -14.6350   21.4410 O   0  0  0  0  0  0  0  0  0  0  0  0
  -23.1230  -11.8740   22.8760 H   0  0  0  0  0  0  0  0  0  0  0  0
  -21.8480  -13.0380   23.1260 H   0  0  0  0  0  0  0  0  0  0  0  0
  -25.7440  -15.2220   20.6090 N   0  0  0  0  0  0  0  0  0  0  0  0
  -25.0830  -15.8810   21.0070 H   0  0  0  0  0  0  0  0  0  0  0  0
  -26.6190  -15.6520   20.3350 H   0  0  0  0  0  0  0  0  0  0  0  0
  -27.4080  -23.1640   19.2420 C   0  0  0  0  0  2  0  0  0  0  0  0
  -27.6670  -24.3920   20.1490 C   0  0  0  0  0  2  0  0  0  0  0  0
  -28.5020  -25.4830   19.4020 C   0  0  0  0  0  2  0  0  0  0  0  0
  -28.4260  -26.8260   19.9180 O   0  0  0  0  0  0  0  0  0  0  0  0
  -24.4880  -31.7580   23.1700 C   0  0  0  0  0  0  0  0  0  0  0  0
  -27.2270  -27.5170   19.8870 C   0  0  0  0  0  0  0  0  0  0  0  0
  -23.3080  -30.3460   21.5190 C   0  0  0  0  0  3  0  0  0  0  0  0
  -24.7830  -28.9280   20.0000 C   0  0  0  0  0  0  0  0  0  0  0  0
  -25.8040  -30.8200   21.2710 C   0  0  0  0  0  2  0  0  0  0  0  0
  -25.9280  -29.4710   20.5960 C   0  0  0  0  0  0  0  0  0  0  0  0
  -27.1510  -28.7600   20.5380 C   0  0  0  0  0  3  0  0  0  0  0  0
  -26.0800  -27.0300   19.2230 C   0  0  0  0  0  3  0  0  0  0  0  0
  -24.8550  -27.7130   19.3050 C   0  0  0  0  0  3  0  0  0  0  0  0
  -23.5030  -29.7170   20.1150 C   0  0  0  0  0  2  0  0  0  0  0  0
  -24.5520  -30.9910   22.0460 N   0  0  0  0  0  0  0  0  0  0  0  0
  -23.4090  -31.9680   23.7410 O   0  0  0  0  0  0  0  0  0  0  0  0
  -22.7340  -29.2640   22.4670 C   0  0  0  0  0  0  0  0  0  0  0  0
  -21.4280  -28.9900   22.3360 N   0  0  0  0  0  0  0  0  0  0  0  0
  -23.4580  -28.6770   23.2730 O   0  0  0  0  0  0  0  0  0  0  0  0
  -20.9130  -29.5350   21.6650 H   0  0  0  0  0  0  0  0  0  0  0  0
  -18.1490  -27.5380   22.7630 C   0  0  0  0  0  0  0  0  0  0  0  0
  -20.6720  -27.9890   23.0880 C   0  0  0  0  0  3  0  0  0  0  0  0
  -20.8960  -26.5770   22.5090 C   0  0  0  0  0  2  0  0  0  0  0  0
  -19.8430  -26.1750   21.4720 C   0  0  0  0  0  2  0  0  0  0  0  0
  -18.4420  -26.2070   22.0890 C   0  0  0  0  0  2  0  0  0  0  0  0
  -19.1980  -28.3850   23.2140 C   0  0  0  0  0  0  0  0  0  0  0  0
  -18.8710  -29.6280   23.7940 C   0  0  0  0  0  3  0  0  0  0  0  0
  -17.5270  -30.0300   23.9300 C   0  0  0  0  0  3  0  0  0  0  0  0
  -16.4940  -29.1810   23.4960 C   0  0  0  0  0  3  0  0  0  0  0  0
  -16.8060  -27.9350   22.9170 C   0  0  0  0  0  3  0  0  0  0  0  0
  -25.7630  -32.4360   23.7740 C   0  0  0  0  0  3  0  0  0  0  0  0
  -25.4070  -33.8160   24.1370 N   0  0  0  0  0  0  0  0  0  0  0  0
  -25.6780  -34.8870   23.3810 C   0  0  0  0  0  0  0  0  0  0  0  0
  -26.3290  -34.8270   22.3330 O   0  0  0  0  0  0  0  0  0  0  0  0
  -24.8160  -33.9350   24.9480 H   0  0  0  0  0  0  0  0  0  0  0  0
  -23.8730  -36.6070   23.0770 C   0  0  0  0  0  1  0  0  0  0  0  0
  -25.1400  -36.2470   23.8640 C   0  0  0  0  0  3  0  0  0  0  0  0
  -27.2510  -37.2060   24.6800 C   0  0  0  0  0  1  0  0  0  0  0  0
  -26.1280  -37.3440   23.7580 N   0  0  0  0  0  0  0  0  0  0  0  0
  -25.6890  -38.2490   23.9180 H   0  0  0  0  0  0  0  0  0  0  0  0
  -26.3450  -31.6570   25.0120 C   0  0  1  0  0  0  0  0  0  0  0  0
  -25.2910  -31.3370   26.0940 C   0  0  0  0  0  1  0  0  0  0  0  0
  -26.9670  -30.3150   24.5640 C   0  0  0  0  0  1  0  0  0  0  0  0
  -27.4780  -32.4760   25.6700 C   0  0  0  0  0  1  0  0  0  0  0  0
  3  2  1  6
  3  4  1  0
  3  1  1  0
  5  8  1  0
  5  4  1  0
  6  9  2  0
  7  8  2  0
  7 10  1  0
  8  6  1  0
 10 13  1  0
 10  9  1  0
 13 11  1  6
 13 12  1  0
 14 13  1  0
 15 20  1  0
 16 17  1  0
 16 15  1  0
 18 17  1  0
 18 25  1  0
 18 19  1  0
 20 14  1  0
 20 19  1  0
 21 14  2  0
 22 47  1  0
 22 23  2  0
 23 42  1  0
 24 27  1  0
 24 23  1  0
 25 26  1  0
 25 22  1  0
 26 24  2  0
 27 28  1  0
 28 29  2  0
 30 33  1  0
 30 29  1  0
 31 30  2  0
 32 31  1  0
 32 27  2  0
 33 34  1  0
 34 35  1  0
 35 36  2  0
 37 36  1  0
 37 41  1  0
 38 37  2  0
 39 34  2  0
 39 38  1  0
 40 39  1  0
 42 43  1  0
 43 45  1  0
 43 46  1  0
 44 42  2  0
 47 48  1  0
 49 47  1  0
 50  3  1  0
 50 51  1  0
 52 53  1  0
 52 51  1  0
 54 65  2  0
 55 53  1  0
 55 60  1  0
 56 64  1  0
 56 66  1  0
 57 63  1  0
 57 59  1  0
 58 64  1  0
 59 58  1  0
 60 59  2  0
 61 62  1  0
 61 55  2  0
 62 57  2  0
 63 56  1  0
 64 54  1  0
 66 68  2  0
 67 66  1  0
 69 67  1  0
 70 79  2  0
 70 75  1  0
 71 67  1  0
 71 75  1  0
 72 71  1  0
 73 74  1  0
 73 72  1  0
 74 70  1  0
 75 76  2  0
 76 77  1  0
 78 77  2  0
 79 78  1  0
 80 54  1  0
 80 81  1  0
 80 90  1  0
 81 84  1  0
 82 86  1  0
 82 81  1  0
 83 82  2  0
 86 85  1  0
 88 86  1  0
 88 89  1  0
 88 87  1  0
 90 93  1  1
 90 91  1  0
 92 90  1  0
M  ISO  4  13 100  14 100  52 101  53 101
M  END
>  <TORSDO>  (75) 
F 23

>  <SCORE>  (75) 
-8.273

>  <name>  (75) 
79

>  <ligand_id>  (75) 
79

>  <original_smiles>  (75) 
[H]c1nn(C(C(=O)N2C([H])([H])C([H])([H])C([H])([H])C([H])(n3nc(-c4c([H])c([H])c(Oc5c([H])c([H])c(F)c([H])c5F)c([H])c4[H])c(C(=O)N([H])[H])c3N([H])[H])C2([H])[H])(C([H])([H])[H])C([H])([H])[H])c([H])c1C([H])([H])C([H])([H])C(C([H])([H])[H])(C([H])([H])[H])C([H])([H])C([H])([H])C([H])([H])Oc1c([H])c([H])c2c(c1[H])C([H])([H])N(C(=O)C([H])(N([H])C(=O)C([H])(N([H])C([H])([H])[H])C([H])([H])[H])C(C([H])([H])[H])(C([H])([H])[H])C([H])([H])[H])C([H])(C(=O)N([H])C1([H])c3c([H])c([H])c([H])c([H])c3C([H])([H])C([H])([H])C1([H])[H])C2([H])[H]

>  <smiles>  (75) 
[H]c1nn(C(C(=O)N2C([H])([H])C([H])([H])C([H])([H])C([H])(n3nc(-c4c([H])c([H])c(Oc5c([H])c([H])c(F)c([H])c5F)c([H])c4[H])c(C(=O)N([H])[H])c3N([H])[H])C2([H])[H])(C([H])([H])[H])C([H])([H])[H])c([H])c1C([H])([H])C([H])([H])C(C([H])([H])[H])(C([H])([H])[H])C([H])([H])C([H])([H])C([H])([H])Oc1c([H])c([H])c2c(c1[H])C([H])([H])N(C(=O)C([H])(N([H])C(=O)C([H])(N([H])C([H])([H])[H])C([H])([H])[H])C(C([H])([H])[H])(C([H])([H])[H])C([H])([H])[H])C([H])(C(=O)N([H])C1([H])c3c([H])c([H])c([H])c([H])c3C([H])([H])C([H])([H])C1([H])[H])C2([H])[H]

$$$$
80:0:0
     RDKit          3D

 97105  0  0  1  0  0  0  0  0999 V2000
  -31.9480  -22.1530   19.6880 C   0  0  0  0  0  1  0  0  0  0  0  0
  -30.4630  -22.0120   20.1030 C   0  0  0  0  0  3  0  0  0  0  0  0
  -30.0750  -20.5480   19.8540 C   0  0  0  0  0  3  0  0  0  0  0  0
  -30.4400  -18.4520   19.8470 C   0  0  0  0  0  3  0  0  0  0  0  0
  -29.6510  -20.0990   18.6680 N   0  0  0  0  0  2  0  0  0  0  0  0
  -29.8320  -18.7360   18.6850 N   0  0  0  0  0  2  0  0  0  0  0  0
  -30.4290  -19.5360   20.6970 N   0  0  0  0  0  0  0  0  0  0  0  0
  -32.2650  -17.0910   21.1460 C   0  0  0  0  0  1  0  0  0  0  0  0
  -32.1180  -17.1410   18.6790 C   0  0  0  0  0  1  0  0  0  0  0  0
  -31.2420  -17.1250   19.9850 C   0  0  2  0  0  0  0  0  0  0  0  0
  -30.8380  -14.5990   19.9180 C   0  0  0  0  0  0  0  0  0  0  0  0
  -30.3810  -12.3940   18.8820 C   0  0  0  0  0  2  0  0  0  0  0  0
  -29.3830  -12.5080   17.7170 C   0  0  0  0  0  2  0  0  0  0  0  0
  -27.9410  -12.3680   18.2320 C   0  0  0  0  0  2  0  0  0  0  0  0
  -27.6650  -13.2470   19.4800 C   0  0  0  0  0  3  0  0  0  0  0  0
  -28.7890  -13.1060   20.5230 C   0  0  0  0  0  2  0  0  0  0  0  0
  -30.0460  -13.4710   19.8490 N   0  0  0  0  0  0  0  0  0  0  0  0
  -31.9910  -14.4760   19.5190 O   0  0  0  0  0  0  0  0  0  0  0  0
  -29.1830  -16.1650   21.0060 C   0  0  0  0  0  1  0  0  0  0  0  0
  -30.3600  -15.8820   20.1600 N   0  0  0  0  0  0  0  0  0  0  0  0
  -25.3390  -13.8580   20.3680 C   0  0  0  0  0  0  0  0  0  0  0  0
  -24.2870  -13.0930   20.7740 C   0  0  0  0  0  0  0  0  0  0  0  0
  -24.7210  -11.7340   20.6720 C   0  0  0  0  0  0  0  0  0  0  0  0
  -26.3520  -12.9710   20.0430 N   0  0  0  0  0  0  0  0  0  0  0  0
  -25.9870  -11.6840   20.2810 N   0  0  0  0  0  0  0  0  0  0  0  0
  -23.9840  -10.4790   20.8670 C   0  0  0  0  0  0  0  0  0  0  0  0
  -24.4130   -9.5040   21.7940 C   0  0  0  0  0  3  0  0  0  0  0  0
  -23.6760   -8.3150   21.9730 C   0  0  0  0  0  3  0  0  0  0  0  0
  -22.4930   -8.0930   21.2270 C   0  0  0  0  0  0  0  0  0  0  0  0
  -22.0820   -9.0570   20.2870 C   0  0  0  0  0  3  0  0  0  0  0  0
  -22.8210  -10.2380   20.1070 C   0  0  0  0  0  3  0  0  0  0  0  0
  -21.7250   -6.9590   21.3200 O   0  0  0  0  0  0  0  0  0  0  0  0
  -21.6410   -6.2390   22.4850 C   0  0  0  0  0  0  0  0  0  0  0  0
  -21.1530   -6.8130   23.6800 C   0  0  0  0  0  3  0  0  0  0  0  0
  -21.0170   -6.0210   24.8390 C   0  0  0  0  0  3  0  0  0  0  0  0
  -21.3570   -4.6560   24.8010 C   0  0  0  0  0  0  0  0  0  0  0  0
  -21.8390   -4.0810   23.6130 C   0  0  0  0  0  3  0  0  0  0  0  0
  -21.9760   -4.8700   22.4560 C   0  0  0  0  0  0  0  0  0  0  0  0
  -22.4210   -4.3060   21.3060 F   0  0  0  0  0  0  0  0  0  0  0  0
  -21.2210   -3.8940   25.9110 F   0  0  0  0  0  0  0  0  0  0  0  0
  -22.9180  -13.5840   21.1510 C   0  0  0  0  0  0  0  0  0  0  0  0
  -22.2300  -12.8650   22.0280 N   0  0  0  0  0  0  0  0  0  0  0  0
  -22.4720  -14.6420   20.7040 O   0  0  0  0  0  0  0  0  0  0  0  0
  -22.6020  -12.0050   22.4040 H   0  0  0  0  0  0  0  0  0  0  0  0
  -21.3210  -13.1780   22.3350 H   0  0  0  0  0  0  0  0  0  0  0  0
  -25.5150  -15.2330   20.2270 N   0  0  0  0  0  0  0  0  0  0  0  0
  -24.7740  -15.8980   20.4240 H   0  0  0  0  0  0  0  0  0  0  0  0
  -26.3670  -15.6700   19.9040 H   0  0  0  0  0  0  0  0  0  0  0  0
  -32.0950  -20.2480   22.4900 C   0  0  0  0  0  1  0  0  0  0  0  0
  -30.7110  -19.6700   22.1310 C   0  0  0  0  0  2  0  0  0  0  0  0
  -29.9660  -23.4110   18.0160 C   0  0  0  0  0  1  0  0  0  0  0  0
  -29.5460  -23.1250   19.4790 C   0  0  0  0  0  3  0  0  0  0  0  0
  -28.6020  -24.1020   21.6640 C   0  0  0  0  0  1  0  0  0  0  0  0
  -30.6690  -25.1760   20.6800 C   0  0  0  0  0  1  0  0  0  0  0  0
  -29.3430  -24.4510   20.3440 C   0  0  1  0  0  0  0  0  0  0  0  0
  -28.4320  -25.4620   19.5790 C   0  0  0  0  0  2  0  0  0  0  0  0
  -28.3450  -26.7580   20.1990 O   0  0  0  0  0  0  0  0  0  0  0  0
  -24.5130  -31.9080   23.2070 C   0  0  0  0  0  0  0  0  0  0  0  0
  -27.1600  -27.4770   20.1320 C   0  0  0  0  0  0  0  0  0  0  0  0
  -23.3000  -30.5120   21.5600 C   0  0  0  0  0  3  0  0  0  0  0  0
  -24.7580  -28.9930   20.1180 C   0  0  0  0  0  0  0  0  0  0  0  0
  -25.8250  -30.8770   21.3630 C   0  0  0  0  0  2  0  0  0  0  0  0
  -25.9070  -29.5040   20.7320 C   0  0  0  0  0  0  0  0  0  0  0  0
  -27.1030  -28.7460   20.7520 C   0  0  0  0  0  3  0  0  0  0  0  0
  -26.0010  -27.0040   19.4730 C   0  0  0  0  0  3  0  0  0  0  0  0
  -24.8050  -27.7460   19.4740 C   0  0  0  0  0  3  0  0  0  0  0  0
  -23.5010  -29.8360   20.1760 C   0  0  0  0  0  2  0  0  0  0  0  0
  -24.5610  -31.1220   22.0970 N   0  0  0  0  0  0  0  0  0  0  0  0
  -23.4340  -32.1710   23.7570 O   0  0  0  0  0  0  0  0  0  0  0  0
  -22.6590  -29.4820   22.5170 C   0  0  0  0  0  0  0  0  0  0  0  0
  -21.3340  -29.3040   22.4000 N   0  0  0  0  0  0  0  0  0  0  0  0
  -23.3530  -28.8450   23.3150 O   0  0  0  0  0  0  0  0  0  0  0  0
  -20.8360  -29.8710   21.7280 H   0  0  0  0  0  0  0  0  0  0  0  0
  -17.9590  -28.1360   22.9360 C   0  0  0  0  0  0  0  0  0  0  0  0
  -20.5220  -28.3640   23.1750 C   0  0  0  0  0  3  0  0  0  0  0  0
  -20.5990  -26.9380   22.5850 C   0  0  0  0  0  2  0  0  0  0  0  0
  -19.4790  -26.6400   21.5830 C   0  0  0  0  0  2  0  0  0  0  0  0
  -18.1070  -26.7920   22.2450 C   0  0  0  0  0  2  0  0  0  0  0  0
  -19.0920  -28.8810   23.3590 C   0  0  0  0  0  0  0  0  0  0  0  0
  -18.8970  -30.1410   23.9620 C   0  0  0  0  0  3  0  0  0  0  0  0
  -17.6000  -30.6540   24.1540 C   0  0  0  0  0  3  0  0  0  0  0  0
  -16.4820  -29.9070   23.7400 C   0  0  0  0  0  3  0  0  0  0  0  0
  -16.6620  -28.6510   23.1370 C   0  0  0  0  0  3  0  0  0  0  0  0
  -25.8050  -32.5350   23.8270 C   0  0  0  0  0  3  0  0  0  0  0  0
  -25.4990  -33.9350   24.1600 N   0  0  0  0  0  0  0  0  0  0  0  0
  -25.8090  -34.9850   23.3880 C   0  0  0  0  0  0  0  0  0  0  0  0
  -26.4610  -34.8800   22.3450 O   0  0  0  0  0  0  0  0  0  0  0  0
  -24.9190  -34.0970   24.9700 H   0  0  0  0  0  0  0  0  0  0  0  0
  -24.0620  -36.7640   23.0540 C   0  0  0  0  0  1  0  0  0  0  0  0
  -25.3190  -36.3720   23.8470 C   0  0  0  0  0  3  0  0  0  0  0  0
  -27.4530  -37.2750   24.6480 C   0  0  0  0  0  1  0  0  0  0  0  0
  -26.3400  -37.4330   23.7170 N   0  0  0  0  0  0  0  0  0  0  0  0
  -25.9270  -38.3490   23.8680 H   0  0  0  0  0  0  0  0  0  0  0  0
  -26.3260  -31.7570   25.0970 C   0  0  1  0  0  0  0  0  0  0  0  0
  -25.2310  -31.5150   26.1600 C   0  0  0  0  0  1  0  0  0  0  0  0
  -26.9120  -30.3790   24.7040 C   0  0  0  0  0  1  0  0  0  0  0  0
  -27.4780  -32.5480   25.7610 C   0  0  0  0  0  1  0  0  0  0  0  0
  2  1  1  0
  3  2  1  0
  3  7  1  0
  4 10  1  0
  4  7  1  0
  5  6  1  0
  5  3  1  0
  6  4  1  0
  7 50  1  0
 10  9  1  6
 10 20  1  0
 10  8  1  0
 11 20  1  0
 12 17  1  0
 13 14  1  0
 13 12  1  0
 15 14  1  0
 15 24  1  0
 15 16  1  0
 17 11  1  0
 17 16  1  0
 18 11  2  0
 20 19  1  0
 21 22  2  0
 22 41  1  0
 23 22  1  0
 23 26  1  0
 24 25  1  0
 24 21  1  0
 25 23  2  0
 26 27  1  0
 27 28  2  0
 29 32  1  0
 29 28  1  0
 30 29  2  0
 31 30  1  0
 31 26  2  0
 32 33  1  0
 33 34  1  0
 34 35  2  0
 36 35  1  0
 36 40  1  0
 37 36  2  0
 38 33  2  0
 38 37  1  0
 39 38  1  0
 41 42  1  0
 42 45  1  0
 42 44  1  0
 43 41  2  0
 46 21  1  0
 46 47  1  0
 48 46  1  0
 50 49  1  0
 52 51  1  0
 52  2  1  0
 52 55  1  0
 55 54  1  1
 55 53  1  0
 56 57  1  0
 56 55  1  0
 58 69  2  0
 59 57  1  0
 59 64  1  0
 60 68  1  0
 60 70  1  0
 61 67  1  0
 61 63  1  0
 62 68  1  0
 63 64  2  0
 63 62  1  0
 65 66  1  0
 65 59  2  0
 66 61  2  0
 67 60  1  0
 68 58  1  0
 70 72  2  0
 71 70  1  0
 73 71  1  0
 74 83  2  0
 74 79  1  0
 75 71  1  0
 75 79  1  0
 76 75  1  0
 77 78  1  0
 77 76  1  0
 78 74  1  0
 79 80  2  0
 80 81  1  0
 82 81  2  0
 83 82  1  0
 84 58  1  0
 84 85  1  0
 84 94  1  0
 85 88  1  0
 86 90  1  0
 86 85  1  0
 87 86  2  0
 90 89  1  0
 92 90  1  0
 92 93  1  0
 92 91  1  0
 94 97  1  1
 94 95  1  0
 96 94  1  0
M  ISO  4  11 100  20 100  56 101  57 101
M  END
>  <TORSDO>  (76) 
F 22

>  <SCORE>  (76) 
-12.920

>  <name>  (76) 
80

>  <ligand_id>  (76) 
80

>  <original_smiles>  (76) 
[H]c1c([H])c([H])c2c(c1[H])C([H])([H])C([H])([H])C([H])([H])C2([H])N([H])C(=O)C1([H])N(C(=O)C([H])(N([H])C(=O)C([H])(N([H])C([H])([H])[H])C([H])([H])[H])C(C([H])([H])[H])(C([H])([H])[H])C([H])([H])[H])C([H])([H])c2c([H])c(OC([H])([H])C(C([H])([H])[H])(C([H])([H])[H])C([H])(C([H])([H])[H])C([H])(c3nnc(C(N(C(=O)N4C([H])([H])C([H])([H])C([H])([H])C([H])(n5nc(-c6c([H])c([H])c(Oc7c([H])c([H])c(F)c([H])c7F)c([H])c6[H])c(C(=O)N([H])[H])c5N([H])[H])C4([H])[H])C([H])([H])[H])(C([H])([H])[H])C([H])([H])[H])n3C([H])([H])C([H])([H])[H])C([H])([H])[H])c([H])c([H])c2C1([H])[H]

>  <smiles>  (76) 
[H]c1c([H])c([H])c2c(c1[H])C([H])([H])C([H])([H])C([H])([H])C2([H])N([H])C(=O)C1([H])N(C(=O)C([H])(N([H])C(=O)C([H])(N([H])C([H])([H])[H])C([H])([H])[H])C(C([H])([H])[H])(C([H])([H])[H])C([H])([H])[H])C([H])([H])c2c([H])c(OC([H])([H])C(C([H])([H])[H])(C([H])([H])[H])C([H])(C([H])([H])[H])C([H])(c3nnc(C(N(C(=O)N4C([H])([H])C([H])([H])C([H])([H])C([H])(n5nc(-c6c([H])c([H])c(Oc7c([H])c([H])c(F)c([H])c7F)c([H])c6[H])c(C(=O)N([H])[H])c5N([H])[H])C4([H])[H])C([H])([H])[H])(C([H])([H])[H])C([H])([H])[H])n3C([H])([H])C([H])([H])[H])C([H])([H])[H])c([H])c([H])c2C1([H])[H]

$$$$
81:0:0
     RDKit          3D

101110  0  0  1  0  0  0  0  0999 V2000
  -29.1500  -19.3450   19.2970 C   0  0  0  0  0  3  0  0  0  0  0  0
  -27.9390  -19.9940   18.9550 C   0  0  0  0  0  0  0  0  0  0  0  0
  -28.8190  -18.2030   19.9980 C   0  0  0  0  0  0  0  0  0  0  0  0
  -26.9400  -19.3500   19.4970 N   0  0  0  0  0  0  0  0  0  0  0  0
  -27.3830  -18.1800   20.0240 N   0  0  0  0  0  0  0  0  0  0  0  0
  -29.9970  -17.2300   22.1000 C   0  0  0  0  0  1  0  0  0  0  0  0
  -31.3250  -17.7100   20.0900 C   0  0  0  0  0  1  0  0  0  0  0  0
  -29.9100  -17.2360   20.5560 C   0  0  2  0  0  0  0  0  0  0  0  0
  -29.7600  -15.7650   20.0340 C   0  0  0  0  0  2  0  0  0  0  0  0
  -31.3310  -13.8620   19.7910 C   0  0  0  0  0  0  0  0  0  0  0  0
  -30.9360  -11.5870   18.9060 C   0  0  0  0  0  2  0  0  0  0  0  0
  -29.8980  -11.6200   17.7660 C   0  0  0  0  0  2  0  0  0  0  0  0
  -28.4610  -11.5570   18.3230 C   0  0  0  0  0  2  0  0  0  0  0  0
  -28.2230  -12.5750   19.4670 C   0  0  0  0  0  3  0  0  0  0  0  0
  -29.3500  -12.4760   20.5180 C   0  0  0  0  0  2  0  0  0  0  0  0
  -30.6330  -12.6950   19.8270 N   0  0  0  0  0  0  0  0  0  0  0  0
  -32.3870  -14.0010   19.1710 O   0  0  0  0  0  0  0  0  0  0  0  0
  -30.8390  -14.8800   20.5130 N   0  0  0  0  0  0  0  0  0  0  0  0
  -31.5930  -15.4500   20.8610 H   0  0  0  0  0  0  0  0  0  0  0  0
  -25.9900  -13.3550   20.4660 C   0  0  0  0  0  0  0  0  0  0  0  0
  -24.9010  -12.6700   20.9280 C   0  0  0  0  0  0  0  0  0  0  0  0
  -25.2210  -11.2840   20.7770 C   0  0  0  0  0  0  0  0  0  0  0  0
  -26.9140  -12.3990   20.0840 N   0  0  0  0  0  0  0  0  0  0  0  0
  -26.4600  -11.1440   20.3240 N   0  0  0  0  0  0  0  0  0  0  0  0
  -24.4040  -10.0840   20.9820 C   0  0  0  0  0  0  0  0  0  0  0  0
  -24.8280   -9.0420   21.8350 C   0  0  0  0  0  3  0  0  0  0  0  0
  -24.0210   -7.9010   22.0270 C   0  0  0  0  0  3  0  0  0  0  0  0
  -22.7740   -7.7960   21.3670 C   0  0  0  0  0  0  0  0  0  0  0  0
  -22.3690   -8.8250   20.4990 C   0  0  0  0  0  3  0  0  0  0  0  0
  -23.1750   -9.9560   20.3030 C   0  0  0  0  0  3  0  0  0  0  0  0
  -21.9380   -6.7090   21.4740 O   0  0  0  0  0  0  0  0  0  0  0  0
  -21.8790   -5.9570   22.6190 C   0  0  0  0  0  0  0  0  0  0  0  0
  -21.5370   -6.5230   23.8680 C   0  0  0  0  0  3  0  0  0  0  0  0
  -21.4140   -5.6990   25.0030 C   0  0  0  0  0  3  0  0  0  0  0  0
  -21.6320   -4.3110   24.8950 C   0  0  0  0  0  0  0  0  0  0  0  0
  -21.9680   -3.7470   23.6510 C   0  0  0  0  0  3  0  0  0  0  0  0
  -22.0890   -4.5670   22.5160 C   0  0  0  0  0  0  0  0  0  0  0  0
  -22.3910   -4.0160   21.3170 F   0  0  0  0  0  0  0  0  0  0  0  0
  -21.5080   -3.5160   25.9830 F   0  0  0  0  0  0  0  0  0  0  0  0
  -23.5850  -13.2520   21.3710 C   0  0  0  0  0  0  0  0  0  0  0  0
  -22.8930  -12.5930   22.2930 N   0  0  0  0  0  0  0  0  0  0  0  0
  -23.1830  -14.3270   20.9280 O   0  0  0  0  0  0  0  0  0  0  0  0
  -23.2190  -11.7180   22.6800 H   0  0  0  0  0  0  0  0  0  0  0  0
  -22.0190  -12.9740   22.6280 H   0  0  0  0  0  0  0  0  0  0  0  0
  -26.2780  -14.7020   20.2920 N   0  0  0  0  0  4  0  0  0  0  0  0
  -25.5780  -15.4190   20.4390 H   0  0  0  0  0  0  0  0  0  0  0  0
  -27.0700  -15.0220   19.7560 H   0  0  0  0  0  0  0  0  0  0  0  0
  -26.7650  -15.9620   21.1400 C   0  0  0  0  0  2  0  0  0  0  0  0
  -26.2830  -17.3370   20.6330 C   0  0  0  0  0  3  0  0  0  0  0  0
  -24.2280  -18.4710   19.2900 C   0  0  0  0  0  1  0  0  0  0  0  0
  -23.7740  -16.6200   20.7710 C   0  0  0  0  0  1  0  0  0  0  0  0
  -25.0680  -16.2740   18.6080 C   0  0  0  0  0  1  0  0  0  0  0  0
  -24.8880  -17.1820   19.8370 C   0  0  2  0  0  0  0  0  0  0  0  0
  -27.6340  -21.0120   17.8650 C   0  0  0  0  0  2  0  0  0  0  0  0
  -29.1060  -22.7830   16.8830 C   0  0  0  0  0  1  0  0  0  0  0  0
  -26.7150  -23.2880   17.3730 C   0  0  0  0  0  1  0  0  0  0  0  0
  -27.9760  -22.5620   17.9150 C   0  0  1  0  0  0  0  0  0  0  0  0
  -28.3840  -23.2350   19.2840 C   0  0  0  0  0  2  0  0  0  0  0  0
  -28.8440  -24.7330   19.1150 C   0  0  0  0  0  2  0  0  0  0  0  0
  -29.3280  -25.5800   20.3190 C   0  0  0  0  0  2  0  0  0  0  0  0
  -28.4340  -26.0130   21.3490 O   0  0  0  0  0  0  0  0  0  0  0  0
  -24.6360  -31.6060   23.5160 C   0  0  0  0  0  0  0  0  0  0  0  0
  -27.3590  -26.8280   21.0620 C   0  0  0  0  0  0  0  0  0  0  0  0
  -23.5360  -30.1330   21.8630 C   0  0  0  0  0  3  0  0  0  0  0  0
  -25.0560  -28.4360   20.7090 C   0  0  0  0  0  0  0  0  0  0  0  0
  -26.0880  -30.3700   21.9140 C   0  0  0  0  0  2  0  0  0  0  0  0
  -26.1720  -28.9550   21.3780 C   0  0  0  0  0  0  0  0  0  0  0  0
  -27.3230  -28.1540   21.5560 C   0  0  0  0  0  3  0  0  0  0  0  0
  -26.2170  -26.3210   20.4080 C   0  0  0  0  0  3  0  0  0  0  0  0
  -25.0730  -27.1180   20.2230 C   0  0  0  0  0  3  0  0  0  0  0  0
  -23.8520  -29.3400   20.5690 C   0  0  0  0  0  2  0  0  0  0  0  0
  -24.7650  -30.7210   22.4900 N   0  0  0  0  0  0  0  0  0  0  0  0
  -23.5170  -31.9620   23.9160 O   0  0  0  0  0  0  0  0  0  0  0  0
  -22.7470  -29.2100   22.8210 C   0  0  0  0  0  0  0  0  0  0  0  0
  -21.4290  -29.0920   22.5880 N   0  0  0  0  0  0  0  0  0  0  0  0
  -23.3140  -28.6010   23.7330 O   0  0  0  0  0  0  0  0  0  0  0  0
  -21.0380  -29.6170   21.8170 H   0  0  0  0  0  0  0  0  0  0  0  0
  -17.9520  -28.1850   22.9100 C   0  0  0  0  0  0  0  0  0  0  0  0
  -20.4970  -28.2500   23.3400 C   0  0  0  0  0  3  0  0  0  0  0  0
  -20.5200  -26.7970   22.8200 C   0  0  0  0  0  2  0  0  0  0  0  0
  -19.4650  -26.5270   21.7430 C   0  0  0  0  0  2  0  0  0  0  0  0
  -18.0580  -26.8050   22.2780 C   0  0  0  0  0  2  0  0  0  0  0  0
  -19.0970  -28.8690   23.3920 C   0  0  0  0  0  0  0  0  0  0  0  0
  -18.9440  -30.1680   23.9220 C   0  0  0  0  0  3  0  0  0  0  0  0
  -17.6780  -30.7830   23.9780 C   0  0  0  0  0  3  0  0  0  0  0  0
  -16.5440  -30.0920   23.5160 C   0  0  0  0  0  3  0  0  0  0  0  0
  -16.6830  -28.7960   22.9910 C   0  0  0  0  0  3  0  0  0  0  0  0
  -25.8810  -32.2290   24.2220 C   0  0  0  0  0  3  0  0  0  0  0  0
  -26.2220  -31.5470   25.6040 C   0  0  1  0  0  0  0  0  0  0  0  0
  -25.0080  -31.4260   26.5540 C   0  0  0  0  0  1  0  0  0  0  0  0
  -26.7960  -30.1260   25.3890 C   0  0  0  0  0  1  0  0  0  0  0  0
  -27.3170  -32.3590   26.3340 C   0  0  0  0  0  1  0  0  0  0  0  0
  -25.6110  -33.6610   24.4050 N   0  0  0  0  0  0  0  0  0  0  0  0
  -26.0770  -34.6280   23.6060 C   0  0  0  0  0  0  0  0  0  0  0  0
  -26.8490  -34.4090   22.6690 O   0  0  0  0  0  0  0  0  0  0  0  0
  -24.9400  -33.9060   25.1160 H   0  0  0  0  0  0  0  0  0  0  0  0
  -24.4950  -36.4530   22.9190 C   0  0  0  0  0  1  0  0  0  0  0  0
  -25.6170  -36.0680   23.8960 C   0  0  0  0  0  3  0  0  0  0  0  0
  -27.6940  -36.9200   24.8850 C   0  0  0  0  0  1  0  0  0  0  0  0
  -26.7080  -37.0620   23.8180 N   0  0  0  0  0  0  0  0  0  0  0  0
  -26.3370  -38.0090   23.8500 H   0  0  0  0  0  0  0  0  0  0  0  0
  1  3  2  0
  2  1  1  0
  2  4  2  0
  3  5  1  0
  3  8  1  0
  4  5  1  0
  5 49  1  0
  8  7  1  6
  8  6  1  0
  9 18  1  0
  9  8  1  0
 10 16  1  0
 10 18  1  0
 11 16  1  0
 12 13  1  0
 12 11  1  0
 14 13  1  0
 14 23  1  0
 14 15  1  0
 16 15  1  0
 17 10  2  0
 18 19  1  0
 20 21  2  0
 21 40  1  0
 22 21  1  0
 22 25  1  0
 23 24  1  0
 23 20  1  0
 24 22  2  0
 25 26  1  0
 26 27  2  0
 28 31  1  0
 28 27  1  0
 29 28  2  0
 30 29  1  0
 30 25  2  0
 31 32  1  0
 32 33  1  0
 33 34  2  0
 35 34  1  0
 35 39  1  0
 36 35  2  0
 37 32  2  0
 37 36  1  0
 38 37  1  0
 40 41  1  0
 41 44  1  0
 41 43  1  0
 42 40  2  0
 45 46  1  0
 45 20  1  0
 45 48  1  0
 47 45  1  0
 49 53  1  0
 49 48  1  0
 53 50  1  6
 52 53  1  0
 53 51  1  0
 54 57  1  0
 54  2  1  0
 57 55  1  6
 56 57  1  0
 57 58  1  0
 59 58  1  0
 59 60  1  0
 60 61  1  0
 62 73  2  0
 63 61  1  0
 63 68  1  0
 64 72  1  0
 64 74  1  0
 65 67  1  0
 66 72  1  0
 67 68  2  0
 67 66  1  0
 69 63  2  0
 70 69  1  0
 70 65  2  0
 71 65  1  0
 71 64  1  0
 72 62  1  0
 74 76  2  0
 75 74  1  0
 77 75  1  0
 78 87  2  0
 78 83  1  0
 79 75  1  0
 79 83  1  0
 80 79  1  0
 81 82  1  0
 81 80  1  0
 82 78  1  0
 83 84  2  0
 84 85  1  0
 86 85  2  0
 87 86  1  0
 88 62  1  0
 88 93  1  0
 88 89  1  0
 89 92  1  1
 89 90  1  0
 91 89  1  0
 93 96  1  0
 94 98  1  0
 94 93  1  0
 95 94  2  0
 98 97  1  0
100101  1  0
100 98  1  0
100 99  1  0
M  ISO  4  10 100  18 100  60 101  61 101
M  END
>  <TORSDO>  (77) 
F 25

>  <SCORE>  (77) 
-3.775

>  <name>  (77) 
81

>  <ligand_id>  (77) 
81

>  <original_smiles>  (77) 
[H]c1c([H])c([H])c2c(c1[H])C([H])([H])C([H])([H])C([H])([H])C2([H])N([H])C(=O)C1([H])N(C(=O)C([H])(N([H])C(=O)C([H])(N([H])C([H])([H])[H])C([H])([H])[H])C(C([H])([H])[H])(C([H])([H])[H])C([H])([H])[H])C([H])([H])c2c([H])c(OC([H])([H])C([H])([H])C([H])([H])C(C([H])([H])[H])(C([H])([H])[H])C([H])([H])c3nn(C([H])(C([H])([H])[H])C(C([H])([H])[H])(C([H])([H])[H])C([H])([H])[H])c(C(C([H])([H])[H])(C([H])([H])[H])C([H])([H])N([H])C(=O)N4C([H])([H])C([H])([H])C([H])([H])C([H])(n5nc(-c6c([H])c([H])c(Oc7c([H])c([H])c(F)c([H])c7F)c([H])c6[H])c(C(=O)N([H])[H])c5N([H])[H])C4([H])[H])c3[H])c([H])c([H])c2C1([H])[H]

>  <smiles>  (77) 
[H]c1c([H])c([H])c2c(c1[H])C([H])([H])C([H])([H])C([H])([H])C2([H])N([H])C(=O)C1([H])N(C(=O)C([H])(N([H])C(=O)C([H])(N([H])C([H])([H])[H])C([H])([H])[H])C(C([H])([H])[H])(C([H])([H])[H])C([H])([H])[H])C([H])([H])c2c([H])c(OC([H])([H])C([H])([H])C([H])([H])C(C([H])([H])[H])(C([H])([H])[H])C([H])([H])c3nn(C([H])(C([H])([H])[H])C(C([H])([H])[H])(C([H])([H])[H])C([H])([H])[H])c(C(C([H])([H])[H])(C([H])([H])[H])C([H])([H])N([H])C(=O)N4C([H])([H])C([H])([H])C([H])([H])C([H])(n5nc(-c6c([H])c([H])c(Oc7c([H])c([H])c(F)c([H])c7F)c([H])c6[H])c(C(=O)N([H])[H])c5N([H])[H])C4([H])[H])c3[H])c([H])c([H])c2C1([H])[H]

$$$$
82:0:0
     RDKit          3D

100108  0  0  1  0  0  0  0  0999 V2000
  -30.1830  -20.5220   21.6130 C   0  0  0  0  0  0  0  0  0  0  0  0
  -31.2350  -21.2730   21.0220 C   0  0  0  0  0  0  0  0  0  0  0  0
  -31.3790  -18.5470   21.2700 C   0  0  0  0  0  0  0  0  0  0  0  0
  -32.4400  -19.3030   20.6940 C   0  0  0  0  0  0  0  0  0  0  0  0
  -30.2670  -19.1720   21.7430 N   0  0  0  0  0  0  0  0  0  0  0  0
  -32.3500  -20.6550   20.5650 N   0  0  0  0  0  0  0  0  0  0  0  0
  -33.7540  -18.6650   20.2270 C   0  0  1  0  0  0  0  0  0  0  0  0
  -33.5200  -17.7820   19.2590 F   0  0  0  0  0  0  0  0  0  0  0  0
  -34.6080  -19.5790   19.7570 F   0  0  0  0  0  0  0  0  0  0  0  0
  -34.3510  -18.0470   21.2490 F   0  0  0  0  0  0  0  0  0  0  0  0
  -28.8990  -21.1490   22.1470 C   0  0  0  0  0  2  0  0  0  0  0  0
  -27.1350  -22.9240   21.5720 C   0  0  0  0  0  1  0  0  0  0  0  0
  -28.0770  -21.8330   21.0410 C   0  0  0  0  0  2  0  0  0  0  0  0
  -31.2420  -22.8010   20.8970 C   0  0  0  0  0  2  0  0  0  0  0  0
  -30.3360  -23.3750   19.7780 C   0  0  0  0  0  2  0  0  0  0  0  0
  -30.5440  -24.8930   19.5130 C   0  0  0  0  0  2  0  0  0  0  0  0
  -30.3070  -27.2820   20.2790 C   0  0  0  0  0  1  0  0  0  0  0  0
  -29.4700  -25.4830   21.7550 C   0  0  0  0  0  1  0  0  0  0  0  0
  -29.6230  -25.8930   20.2750 C   0  0  2  0  0  0  0  0  0  0  0  0
  -28.2170  -25.9750   19.5970 C   0  0  0  0  0  2  0  0  0  0  0  0
  -28.0280  -27.2140   18.9030 O   0  0  0  0  0  0  0  0  0  0  0  0
  -24.3750  -31.6860   23.0380 C   0  0  0  0  0  0  0  0  0  0  0  0
  -26.8290  -27.8450   19.1390 C   0  0  0  0  0  0  0  0  0  0  0  0
  -23.0420  -30.4270   21.3740 C   0  0  0  0  0  3  0  0  0  0  0  0
  -24.3820  -29.1700   19.6060 C   0  0  0  0  0  0  0  0  0  0  0  0
  -25.5000  -30.9750   20.9320 C   0  0  0  0  0  2  0  0  0  0  0  0
  -25.5730  -29.6990   20.1180 C   0  0  0  0  0  0  0  0  0  0  0  0
  -26.8020  -29.0470   19.8740 C   0  0  0  0  0  3  0  0  0  0  0  0
  -25.6250  -27.3150   18.6310 C   0  0  0  0  0  3  0  0  0  0  0  0
  -24.4010  -27.9780   18.8600 C   0  0  0  0  0  3  0  0  0  0  0  0
  -23.1100  -29.9310   19.9050 C   0  0  0  0  0  2  0  0  0  0  0  0
  -24.3300  -31.0390   21.8390 N   0  0  0  0  0  0  0  0  0  0  0  0
  -23.3560  -31.8250   23.7290 O   0  0  0  0  0  0  0  0  0  0  0  0
  -22.5570  -29.2600   22.2640 C   0  0  0  0  0  0  0  0  0  0  0  0
  -21.2510  -28.9620   22.1970 N   0  0  0  0  0  0  0  0  0  0  0  0
  -23.3500  -28.6320   22.9690 O   0  0  0  0  0  0  0  0  0  0  0  0
  -20.6680  -29.5310   21.5990 H   0  0  0  0  0  0  0  0  0  0  0  0
  -18.0670  -27.3180   22.6550 C   0  0  0  0  0  0  0  0  0  0  0  0
  -20.5780  -27.8800   22.9110 C   0  0  0  0  0  3  0  0  0  0  0  0
  -20.8460  -26.5160   22.2350 C   0  0  0  0  0  2  0  0  0  0  0  0
  -19.7710  -26.1250   21.2160 C   0  0  0  0  0  2  0  0  0  0  0  0
  -18.3960  -26.0500   21.8870 C   0  0  0  0  0  2  0  0  0  0  0  0
  -19.0910  -28.1850   23.1220 C   0  0  0  0  0  0  0  0  0  0  0  0
  -18.7270  -29.3680   23.8020 C   0  0  0  0  0  3  0  0  0  0  0  0
  -17.3750  -29.6890   24.0190 C   0  0  0  0  0  3  0  0  0  0  0  0
  -16.3660  -28.8190   23.5700 C   0  0  0  0  0  3  0  0  0  0  0  0
  -16.7130  -27.6350   22.8940 C   0  0  0  0  0  3  0  0  0  0  0  0
  -25.6970  -32.3090   23.5870 C   0  0  0  0  0  3  0  0  0  0  0  0
  -26.3360  -31.4770   24.7690 C   0  0  1  0  0  0  0  0  0  0  0  0
  -25.3360  -31.1550   25.9040 C   0  0  0  0  0  1  0  0  0  0  0  0
  -26.9070  -30.1390   24.2450 C   0  0  0  0  0  1  0  0  0  0  0  0
  -27.5240  -32.2590   25.3790 C   0  0  0  0  0  1  0  0  0  0  0  0
  -25.3980  -33.6810   24.0180 N   0  0  0  0  0  0  0  0  0  0  0  0
  -25.7170  -34.7810   23.3230 C   0  0  0  0  0  0  0  0  0  0  0  0
  -26.3640  -34.7480   22.2740 O   0  0  0  0  0  0  0  0  0  0  0  0
  -24.8180  -33.7810   24.8380 H   0  0  0  0  0  0  0  0  0  0  0  0
  -23.9930  -36.6010   23.1160 C   0  0  0  0  0  1  0  0  0  0  0  0
  -25.2410  -36.1350   23.8850 C   0  0  0  0  0  3  0  0  0  0  0  0
  -27.3900  -36.9450   24.7520 C   0  0  0  0  0  1  0  0  0  0  0  0
  -26.2770  -37.1890   23.8360 N   0  0  0  0  0  0  0  0  0  0  0  0
  -25.8800  -38.0980   24.0560 H   0  0  0  0  0  0  0  0  0  0  0  0
  -31.3970  -17.0110   21.4050 C   0  0  0  0  0  2  0  0  0  0  0  0
  -31.2760  -15.1450   19.8030 C   0  0  0  0  0  0  0  0  0  0  0  0
  -30.9380  -12.8730   18.8860 C   0  0  0  0  0  2  0  0  0  0  0  0
  -29.9080  -12.9200   17.7400 C   0  0  0  0  0  2  0  0  0  0  0  0
  -28.4810  -12.7480   18.2990 C   0  0  0  0  0  2  0  0  0  0  0  0
  -28.1940  -13.7000   19.4890 C   0  0  0  0  0  3  0  0  0  0  0  0
  -29.3400  -13.6820   20.5280 C   0  0  0  0  0  2  0  0  0  0  0  0
  -30.6020  -13.9570   19.8240 N   0  0  0  0  0  0  0  0  0  0  0  0
  -32.3590  -15.2750   19.2330 O   0  0  0  0  0  0  0  0  0  0  0  0
  -29.6430  -16.9290   19.6030 C   0  0  0  0  0  1  0  0  0  0  0  0
  -30.6740  -16.2160   20.3790 N   0  0  0  0  0  0  0  0  0  0  0  0
  -25.9390  -14.3240   20.5470 C   0  0  0  0  0  0  0  0  0  0  0  0
  -24.8820  -13.5610   20.9670 C   0  0  0  0  0  0  0  0  0  0  0  0
  -25.2660  -12.2040   20.7460 C   0  0  0  0  0  0  0  0  0  0  0  0
  -26.9000  -13.4290   20.1060 N   0  0  0  0  0  0  0  0  0  0  0  0
  -26.5100  -12.1430   20.2860 N   0  0  0  0  0  0  0  0  0  0  0  0
  -24.5030  -10.9590   20.8940 C   0  0  0  0  0  0  0  0  0  0  0  0
  -24.9130   -9.9500   21.7930 C   0  0  0  0  0  3  0  0  0  0  0  0
  -24.1520   -8.7690   21.9370 C   0  0  0  0  0  3  0  0  0  0  0  0
  -22.9700   -8.5910   21.1810 C   0  0  0  0  0  0  0  0  0  0  0  0
  -22.5800   -9.5880   20.2680 C   0  0  0  0  0  3  0  0  0  0  0  0
  -23.3410  -10.7610   20.1220 C   0  0  0  0  0  3  0  0  0  0  0  0
  -22.1860   -7.4650   21.2310 O   0  0  0  0  0  0  0  0  0  0  0  0
  -21.9740   -6.7850   22.4050 C   0  0  0  0  0  0  0  0  0  0  0  0
  -21.4030   -7.4100   23.5350 C   0  0  0  0  0  3  0  0  0  0  0  0
  -21.1400   -6.6600   24.6990 C   0  0  0  0  0  3  0  0  0  0  0  0
  -21.4360   -5.2850   24.7320 C   0  0  0  0  0  0  0  0  0  0  0  0
  -21.9950   -4.6570   23.6050 C   0  0  0  0  0  3  0  0  0  0  0  0
  -22.2600   -5.4050   22.4440 C   0  0  0  0  0  0  0  0  0  0  0  0
  -22.7830   -4.7910   21.3530 F   0  0  0  0  0  0  0  0  0  0  0  0
  -21.1750   -4.5620   25.8440 F   0  0  0  0  0  0  0  0  0  0  0  0
  -23.5510  -14.0650   21.4470 C   0  0  0  0  0  0  0  0  0  0  0  0
  -22.9070  -13.3280   22.3460 N   0  0  0  0  0  0  0  0  0  0  0  0
  -23.0980  -15.1420   21.0660 O   0  0  0  0  0  0  0  0  0  0  0  0
  -23.2870  -12.4530   22.6720 H   0  0  0  0  0  0  0  0  0  0  0  0
  -22.0170  -13.6430   22.7070 H   0  0  0  0  0  0  0  0  0  0  0  0
  -26.1480  -15.6980   20.4820 N   0  0  0  0  0  0  0  0  0  0  0  0
  -25.4340  -16.3670   20.7480 H   0  0  0  0  0  0  0  0  0  0  0  0
  -26.9830  -16.1380   20.1140 H   0  0  0  0  0  0  0  0  0  0  0  0
  1  5  1  0
  1 11  1  0
  2  1  2  0
  3 62  1  0
  3  5  2  0
  4  3  1  0
  6  4  2  0
  6  2  1  0
  7  4  1  0
  7 10  1  1
  8  7  1  0
  9  7  1  0
 13 12  1  0
 13 11  1  0
 14  2  1  0
 15 14  1  0
 16 15  1  0
 16 19  1  0
 19 17  1  1
 19 18  1  0
 20 19  1  0
 21 23  1  0
 21 20  1  0
 22 33  2  0
 23 28  1  0
 24 32  1  0
 24 34  1  0
 25 31  1  0
 25 27  1  0
 26 32  1  0
 27 26  1  0
 28 27  2  0
 29 30  1  0
 29 23  2  0
 30 25  2  0
 31 24  1  0
 32 22  1  0
 34 36  2  0
 35 34  1  0
 37 35  1  0
 38 47  2  0
 38 43  1  0
 39 35  1  0
 39 43  1  0
 40 39  1  0
 41 42  1  0
 41 40  1  0
 42 38  1  0
 43 44  2  0
 44 45  1  0
 46 45  2  0
 47 46  1  0
 48 22  1  0
 48 53  1  0
 48 49  1  0
 49 52  1  1
 49 50  1  0
 51 49  1  0
 53 56  1  0
 54 58  1  0
 54 53  1  0
 55 54  2  0
 58 57  1  0
 60 58  1  0
 60 61  1  0
 60 59  1  0
 63 69  1  0
 63 72  1  0
 64 69  1  0
 65 66  1  0
 65 64  1  0
 67 66  1  0
 67 76  1  0
 67 68  1  0
 69 68  1  0
 70 63  2  0
 71 72  1  0
 72 62  1  0
 73 74  2  0
 74 93  1  0
 75 78  1  0
 75 74  1  0
 76 77  1  0
 76 73  1  0
 77 75  2  0
 78 79  1  0
 79 80  2  0
 81 84  1  0
 81 80  1  0
 82 81  2  0
 83 82  1  0
 83 78  2  0
 84 85  1  0
 85 90  2  0
 85 86  1  0
 86 87  2  0
 87 88  1  0
 88 92  1  0
 89 88  2  0
 90 89  1  0
 91 90  1  0
 93 94  1  0
 94 96  1  0
 94 97  1  0
 95 93  2  0
 98 73  1  0
 98 99  1  0
100 98  1  0
M  ISO  4  20 101  21 101  63 100  72 100
M  END
>  <TORSDO>  (78) 
F 25

>  <SCORE>  (78) 
-9.640

>  <name>  (78) 
82

>  <ligand_id>  (78) 
82

>  <original_smiles>  (78) 
[H]c1c([H])c([H])c2c(c1[H])C([H])([H])C([H])([H])C([H])([H])C2([H])N([H])C(=O)C1([H])N(C(=O)C([H])(N([H])C(=O)C([H])(N([H])C([H])([H])[H])C([H])([H])[H])C(C([H])([H])[H])(C([H])([H])[H])C([H])([H])[H])C([H])([H])c2c([H])c(OC([H])([H])C(C([H])([H])[H])(C([H])([H])[H])C([H])([H])C([H])([H])C([H])([H])c3nc(C(F)(F)F)c(C([H])([H])N(C(=O)N4C([H])([H])C([H])([H])C([H])([H])C([H])(n5nc(-c6c([H])c([H])c(Oc7c([H])c([H])c(F)c([H])c7F)c([H])c6[H])c(C(=O)N([H])[H])c5N([H])[H])C4([H])[H])C([H])([H])[H])nc3C([H])([H])C([H])([H])C([H])([H])[H])c([H])c([H])c2C1([H])[H]

>  <smiles>  (78) 
[H]c1c([H])c([H])c2c(c1[H])C([H])([H])C([H])([H])C([H])([H])C2([H])N([H])C(=O)C1([H])N(C(=O)C([H])(N([H])C(=O)C([H])(N([H])C([H])([H])[H])C([H])([H])[H])C(C([H])([H])[H])(C([H])([H])[H])C([H])([H])[H])C([H])([H])c2c([H])c(OC([H])([H])C(C([H])([H])[H])(C([H])([H])[H])C([H])([H])C([H])([H])C([H])([H])c3nc(C(F)(F)F)c(C([H])([H])N(C(=O)N4C([H])([H])C([H])([H])C([H])([H])C([H])(n5nc(-c6c([H])c([H])c(Oc7c([H])c([H])c(F)c([H])c7F)c([H])c6[H])c(C(=O)N([H])[H])c5N([H])[H])C4([H])[H])C([H])([H])[H])nc3C([H])([H])C([H])([H])C([H])([H])[H])c([H])c([H])c2C1([H])[H]

$$$$
83:0:0
     RDKit          3D

 94102  0  0  1  0  0  0  0  0999 V2000
  -28.9120  -21.6520   21.3370 C   0  0  0  0  0  2  0  0  0  0  0  0
  -31.0330  -20.4160   20.5890 C   0  0  0  0  0  2  0  0  0  0  0  0
  -30.4430  -18.4480   21.0050 C   0  0  0  0  0  0  0  0  0  0  0  0
  -31.5230  -19.1750   20.5520 N   0  0  0  0  0  0  0  0  0  0  0  0
  -29.3760  -19.2140   21.2990 N   0  0  0  0  0  2  0  0  0  0  0  0
  -29.7750  -20.4930   21.0270 N   0  0  0  0  0  0  0  0  0  0  0  0
  -31.5510  -16.5030   22.1830 C   0  0  0  0  0  1  0  0  0  0  0  0
  -29.1290  -16.4730   21.8920 C   0  0  0  0  0  1  0  0  0  0  0  0
  -30.4470  -16.8990   21.1680 C   0  0  1  0  0  0  0  0  0  0  0  0
  -30.5880  -16.1630   19.7550 C   0  0  2  0  0  0  0  0  0  0  0  0
  -31.3330  -16.9300   18.9530 F   0  0  0  0  0  0  0  0  0  0  0  0
  -29.3960  -16.1780   19.1720 F   0  0  0  0  0  0  0  0  0  0  0  0
  -31.2430  -14.7270   19.6330 C   0  0  0  0  0  0  0  0  0  0  0  0
  -30.7760  -12.5020   18.6660 C   0  0  0  0  0  2  0  0  0  0  0  0
  -29.7630  -12.6520   17.5100 C   0  0  0  0  0  2  0  0  0  0  0  0
  -28.3340  -12.5070   18.0590 C   0  0  0  0  0  2  0  0  0  0  0  0
  -28.0790  -13.4510   19.2560 C   0  0  0  0  0  3  0  0  0  0  0  0
  -29.2150  -13.4040   20.3050 C   0  0  0  0  0  2  0  0  0  0  0  0
  -30.5050  -13.5790   19.6370 N   0  0  0  0  0  0  0  0  0  0  0  0
  -32.4120  -14.7020   19.2330 O   0  0  0  0  0  0  0  0  0  0  0  0
  -25.8370  -14.1850   20.2590 C   0  0  0  0  0  0  0  0  0  0  0  0
  -24.7580  -13.4770   20.6950 C   0  0  0  0  0  0  0  0  0  0  0  0
  -25.1180  -12.0970   20.5610 C   0  0  0  0  0  0  0  0  0  0  0  0
  -26.7790  -13.2450   19.8750 N   0  0  0  0  0  0  0  0  0  0  0  0
  -26.3630  -11.9820   20.1280 N   0  0  0  0  0  0  0  0  0  0  0  0
  -24.3340  -10.8770   20.7630 C   0  0  0  0  0  0  0  0  0  0  0  0
  -24.7460   -9.8790   21.6710 C   0  0  0  0  0  3  0  0  0  0  0  0
  -23.9650   -8.7190   21.8630 C   0  0  0  0  0  3  0  0  0  0  0  0
  -22.7580   -8.5500   21.1410 C   0  0  0  0  0  0  0  0  0  0  0  0
  -22.3680   -9.5350   20.2190 C   0  0  0  0  0  3  0  0  0  0  0  0
  -23.1490  -10.6870   20.0260 C   0  0  0  0  0  3  0  0  0  0  0  0
  -21.9510   -7.4400   21.2340 O   0  0  0  0  0  0  0  0  0  0  0  0
  -21.8240   -6.7370   22.4020 C   0  0  0  0  0  0  0  0  0  0  0  0
  -21.4030   -7.3530   23.6010 C   0  0  0  0  0  3  0  0  0  0  0  0
  -21.2190   -6.5790   24.7630 C   0  0  0  0  0  3  0  0  0  0  0  0
  -21.4520   -5.1910   24.7310 C   0  0  0  0  0  0  0  0  0  0  0  0
  -21.8630   -4.5740   23.5340 C   0  0  0  0  0  3  0  0  0  0  0  0
  -22.0480   -5.3440   22.3750 C   0  0  0  0  0  0  0  0  0  0  0  0
  -22.4270   -4.7430   21.2200 F   0  0  0  0  0  0  0  0  0  0  0  0
  -21.2670   -4.4470   25.8440 F   0  0  0  0  0  0  0  0  0  0  0  0
  -23.4300  -14.0320   21.1200 C   0  0  0  0  0  0  0  0  0  0  0  0
  -22.7480  -13.3470   22.0320 N   0  0  0  0  0  0  0  0  0  0  0  0
  -23.0130  -15.1040   20.6800 O   0  0  0  0  0  0  0  0  0  0  0  0
  -23.1060  -12.4760   22.3980 H   0  0  0  0  0  0  0  0  0  0  0  0
  -21.8690  -13.6970   22.3800 H   0  0  0  0  0  0  0  0  0  0  0  0
  -26.1000  -15.5470   20.1310 N   0  0  0  0  0  0  0  0  0  0  0  0
  -25.4210  -16.2660   20.3530 H   0  0  0  0  0  0  0  0  0  0  0  0
  -26.9660  -15.9140   19.7630 H   0  0  0  0  0  0  0  0  0  0  0  0
  -29.0680  -22.8710   20.3660 C   0  0  0  0  0  2  0  0  0  0  0  0
  -27.5220  -24.1040   18.7550 C   0  0  0  0  0  1  0  0  0  0  0  0
  -26.6630  -23.5480   21.0240 C   0  0  0  0  0  1  0  0  0  0  0  0
  -27.9310  -23.9940   20.2540 C   0  0  1  0  0  0  0  0  0  0  0  0
  -28.3870  -25.4070   20.8420 C   0  0  0  0  0  2  0  0  0  0  0  0
  -28.3000  -26.6220   20.0510 O   0  0  0  0  0  0  0  0  0  0  0  0
  -24.6850  -31.9070   23.2460 C   0  0  0  0  0  0  0  0  0  0  0  0
  -27.1570  -27.3960   20.1330 C   0  0  0  0  0  0  0  0  0  0  0  0
  -23.4110  -30.5370   21.6290 C   0  0  0  0  0  3  0  0  0  0  0  0
  -24.8020  -28.9730   20.1770 C   0  0  0  0  0  0  0  0  0  0  0  0
  -25.9430  -30.8510   21.3760 C   0  0  0  0  0  2  0  0  0  0  0  0
  -25.9920  -29.4810   20.7200 C   0  0  0  0  0  0  0  0  0  0  0  0
  -27.1720  -28.7020   20.6860 C   0  0  0  0  0  3  0  0  0  0  0  0
  -25.9410  -26.9030   19.6220 C   0  0  0  0  0  3  0  0  0  0  0  0
  -24.7690  -27.6780   19.6340 C   0  0  0  0  0  3  0  0  0  0  0  0
  -23.5780  -29.8580   20.2470 C   0  0  0  0  0  2  0  0  0  0  0  0
  -24.7010  -31.1080   22.1430 N   0  0  0  0  0  0  0  0  0  0  0  0
  -23.6210  -32.1990   23.8170 O   0  0  0  0  0  0  0  0  0  0  0  0
  -22.7690  -29.5190   22.6000 C   0  0  0  0  0  0  0  0  0  0  0  0
  -21.4510  -29.3060   22.4550 N   0  0  0  0  0  0  0  0  0  0  0  0
  -23.4540  -28.9240   23.4370 O   0  0  0  0  0  0  0  0  0  0  0  0
  -20.9590  -29.8400   21.7500 H   0  0  0  0  0  0  0  0  0  0  0  0
  -18.1100  -28.0140   22.9040 C   0  0  0  0  0  0  0  0  0  0  0  0
  -20.6460  -28.3660   23.2350 C   0  0  0  0  0  3  0  0  0  0  0  0
  -20.8100  -26.9190   22.7160 C   0  0  0  0  0  2  0  0  0  0  0  0
  -19.7500  -26.5230   21.6820 C   0  0  0  0  0  2  0  0  0  0  0  0
  -18.3490  -26.6470   22.2840 C   0  0  0  0  0  2  0  0  0  0  0  0
  -19.1900  -28.8260   23.3400 C   0  0  0  0  0  0  0  0  0  0  0  0
  -18.9180  -30.1020   23.8820 C   0  0  0  0  0  3  0  0  0  0  0  0
  -17.5960  -30.5690   23.9910 C   0  0  0  0  0  3  0  0  0  0  0  0
  -16.5260  -29.7550   23.5770 C   0  0  0  0  0  3  0  0  0  0  0  0
  -16.7850  -28.4780   23.0410 C   0  0  0  0  0  3  0  0  0  0  0  0
  -25.9970  -32.5150   23.8330 C   0  0  0  0  0  3  0  0  0  0  0  0
  -25.7140  -33.9120   24.1900 N   0  0  0  0  0  0  0  0  0  0  0  0
  -26.0420  -34.9680   23.4350 C   0  0  0  0  0  0  0  0  0  0  0  0
  -26.6830  -34.8680   22.3870 O   0  0  0  0  0  0  0  0  0  0  0  0
  -25.1300  -34.0650   24.9980 H   0  0  0  0  0  0  0  0  0  0  0  0
  -24.3210  -36.7740   23.1410 C   0  0  0  0  0  1  0  0  0  0  0  0
  -25.5780  -36.3560   23.9180 C   0  0  0  0  0  3  0  0  0  0  0  0
  -27.7430  -37.1990   24.7040 C   0  0  0  0  0  1  0  0  0  0  0  0
  -26.6200  -37.3980   23.7920 N   0  0  0  0  0  0  0  0  0  0  0  0
  -26.2310  -38.3220   23.9610 H   0  0  0  0  0  0  0  0  0  0  0  0
  -26.5520  -31.7180   25.0770 C   0  0  1  0  0  0  0  0  0  0  0  0
  -25.4820  -31.4470   26.1600 C   0  0  0  0  0  1  0  0  0  0  0  0
  -27.1340  -30.3490   24.6490 C   0  0  0  0  0  1  0  0  0  0  0  0
  -27.7220  -32.5020   25.7200 C   0  0  0  0  0  1  0  0  0  0  0  0
  2  6  1  0
  3  9  1  0
  3  5  1  0
  4  2  1  0
  4  3  2  0
  6  5  1  0
  6  1  1  0
  9  8  1  1
  9  7  1  0
 10  9  1  0
 10 11  1  6
 12 10  1  0
 13 19  1  0
 13 10  1  0
 14 19  1  0
 15 16  1  0
 15 14  1  0
 17 16  1  0
 17 24  1  0
 17 18  1  0
 19 18  1  0
 20 13  2  0
 21 22  2  0
 22 41  1  0
 23 22  1  0
 23 26  1  0
 24 25  1  0
 24 21  1  0
 25 23  2  0
 26 27  1  0
 27 28  2  0
 29 32  1  0
 29 28  1  0
 30 29  2  0
 31 30  1  0
 31 26  2  0
 32 33  1  0
 33 34  1  0
 34 35  2  0
 36 35  1  0
 36 40  1  0
 37 36  2  0
 38 33  2  0
 38 37  1  0
 39 38  1  0
 41 42  1  0
 42 45  1  0
 42 44  1  0
 43 41  2  0
 46 21  1  0
 46 47  1  0
 48 46  1  0
 49  1  1  0
 52 50  1  6
 52 49  1  0
 52 53  1  0
 52 51  1  0
 54 56  1  0
 54 53  1  0
 55 66  2  0
 56 61  1  0
 57 65  1  0
 57 67  1  0
 58 64  1  0
 58 60  1  0
 59 65  1  0
 60 59  1  0
 61 60  2  0
 62 63  1  0
 62 56  2  0
 63 58  2  0
 64 57  1  0
 65 55  1  0
 67 69  2  0
 68 67  1  0
 70 68  1  0
 71 80  2  0
 71 76  1  0
 72 68  1  0
 72 76  1  0
 73 72  1  0
 74 75  1  0
 74 73  1  0
 75 71  1  0
 76 77  2  0
 77 78  1  0
 79 78  2  0
 80 79  1  0
 81 55  1  0
 81 82  1  0
 81 91  1  0
 82 85  1  0
 83 87  1  0
 83 82  1  0
 84 83  2  0
 87 86  1  0
 89 87  1  0
 89 90  1  0
 89 88  1  0
 91 94  1  1
 91 92  1  0
 93 91  1  0
M  ISO  4  10 100  13 100  53 101  54 101
M  END
>  <TORSDO>  (79) 
F 22

>  <SCORE>  (79) 
-11.278

>  <name>  (79) 
83

>  <ligand_id>  (79) 
83

>  <original_smiles>  (79) 
[H]c1c([H])c([H])c2c(c1[H])C([H])([H])C([H])([H])C([H])([H])C2([H])N([H])C(=O)C1([H])N(C(=O)C([H])(N([H])C(=O)C([H])(N([H])C([H])([H])[H])C([H])([H])[H])C(C([H])([H])[H])(C([H])([H])[H])C([H])([H])[H])C([H])([H])c2c([H])c(OC([H])([H])C(C([H])([H])[H])(C([H])([H])[H])C([H])([H])C([H])([H])n3nc(C(C([H])([H])[H])(C([H])([H])[H])C(F)(F)C(=O)N4C([H])([H])C([H])([H])C([H])([H])C([H])(n5nc(-c6c([H])c([H])c(Oc7c([H])c([H])c(F)c([H])c7F)c([H])c6[H])c(C(=O)N([H])[H])c5N([H])[H])C4([H])[H])nc3[H])c([H])c([H])c2C1([H])[H]

>  <smiles>  (79) 
[H]c1c([H])c([H])c2c(c1[H])C([H])([H])C([H])([H])C([H])([H])C2([H])N([H])C(=O)C1([H])N(C(=O)C([H])(N([H])C(=O)C([H])(N([H])C([H])([H])[H])C([H])([H])[H])C(C([H])([H])[H])(C([H])([H])[H])C([H])([H])[H])C([H])([H])c2c([H])c(OC([H])([H])C(C([H])([H])[H])(C([H])([H])[H])C([H])([H])C([H])([H])n3nc(C(C([H])([H])[H])(C([H])([H])[H])C(F)(F)C(=O)N4C([H])([H])C([H])([H])C([H])([H])C([H])(n5nc(-c6c([H])c([H])c(Oc7c([H])c([H])c(F)c([H])c7F)c([H])c6[H])c(C(=O)N([H])[H])c5N([H])[H])C4([H])[H])nc3[H])c([H])c([H])c2C1([H])[H]

$$$$
84:0:0
     RDKit          3D

102110  0  0  1  0  0  0  0  0999 V2000
  -30.3150  -20.7280   23.6940 C   0  0  0  0  0  1  0  0  0  0  0  0
  -32.7650  -20.2760   23.5980 C   0  0  0  0  0  1  0  0  0  0  0  0
  -31.4130  -19.9910   22.8950 C   0  0  1  0  0  0  0  0  0  0  0  0
  -31.2620  -18.4220   22.9230 C   0  0  0  0  0  2  0  0  0  0  0  0
  -29.5900  -18.1850   20.9730 C   0  0  0  0  0  3  0  0  0  0  0  0
  -30.9730  -16.2990   21.5240 C   0  0  0  0  0  3  0  0  0  0  0  0
  -30.6230  -17.6460   21.7620 C   0  0  0  0  0  0  0  0  0  0  0  0
  -28.9950  -17.4010   19.9720 C   0  0  0  0  0  0  0  0  0  0  0  0
  -30.2910  -15.5400   20.5450 C   0  0  0  0  0  0  0  0  0  0  0  0
  -29.3310  -16.0980   19.7790 N   0  0  0  0  0  0  0  0  0  0  0  0
  -31.3890  -13.4260   21.1160 C   0  0  0  0  0  0  0  0  0  0  0  0
  -31.1040  -11.0310   21.6060 C   0  0  0  0  0  2  0  0  0  0  0  0
  -30.5410  -10.3480   20.3450 C   0  0  0  0  0  2  0  0  0  0  0  0
  -28.9960  -10.4070   20.3400 C   0  0  0  0  0  2  0  0  0  0  0  0
  -28.4450  -11.8270   20.6410 C   0  0  0  0  0  3  0  0  0  0  0  0
  -29.1620  -12.4680   21.8530 C   0  0  0  0  0  2  0  0  0  0  0  0
  -30.6080  -12.4170   21.6020 N   0  0  0  0  0  0  0  0  0  0  0  0
  -32.6210  -13.3540   21.1260 O   0  0  0  0  0  0  0  0  0  0  0  0
  -31.2070  -14.0940   18.8180 C   0  0  0  0  0  1  0  0  0  0  0  0
  -30.7830  -14.2470   20.2170 N   0  0  0  0  0  0  0  0  0  0  0  0
  -26.0970  -12.8740   20.7530 C   0  0  0  0  0  0  0  0  0  0  0  0
  -24.8520  -12.3200   20.9000 C   0  0  0  0  0  0  0  0  0  0  0  0
  -25.0600  -10.9120   21.0370 C   0  0  0  0  0  0  0  0  0  0  0  0
  -26.9940  -11.8180   20.8130 N   0  0  0  0  0  0  0  0  0  0  0  0
  -26.3590  -10.6370   21.0390 N   0  0  0  0  0  0  0  0  0  0  0  0
  -24.0960   -9.8050   21.1160 C   0  0  0  0  0  0  0  0  0  0  0  0
  -24.1830   -8.8210   22.1250 C   0  0  0  0  0  3  0  0  0  0  0  0
  -23.2330   -7.7780   22.1910 C   0  0  0  0  0  3  0  0  0  0  0  0
  -22.1770   -7.7120   21.2530 C   0  0  0  0  0  0  0  0  0  0  0  0
  -22.1030   -8.6870   20.2440 C   0  0  0  0  0  3  0  0  0  0  0  0
  -23.0510   -9.7200   20.1730 C   0  0  0  0  0  3  0  0  0  0  0  0
  -21.2290   -6.7180   21.2230 O   0  0  0  0  0  0  0  0  0  0  0  0
  -20.8090   -6.0920   22.3700 C   0  0  0  0  0  0  0  0  0  0  0  0
  -20.2940   -6.8110   23.4710 C   0  0  0  0  0  3  0  0  0  0  0  0
  -19.8130   -6.1180   24.6010 C   0  0  0  0  0  3  0  0  0  0  0  0
  -19.8370   -4.7100   24.6280 C   0  0  0  0  0  0  0  0  0  0  0  0
  -20.3420   -3.9930   23.5310 C   0  0  0  0  0  3  0  0  0  0  0  0
  -20.8230   -4.6830   22.4050 C   0  0  0  0  0  0  0  0  0  0  0  0
  -21.2940   -3.9850   21.3420 F   0  0  0  0  0  0  0  0  0  0  0  0
  -19.3630   -4.0460   25.7100 F   0  0  0  0  0  0  0  0  0  0  0  0
  -23.5380  -13.0420   20.8190 C   0  0  0  0  0  0  0  0  0  0  0  0
  -22.5290  -12.5710   21.5460 N   0  0  0  0  0  0  0  0  0  0  0  0
  -23.4100  -14.0630   20.1470 O   0  0  0  0  0  0  0  0  0  0  0  0
  -22.6320  -11.7510   22.1260 H   0  0  0  0  0  0  0  0  0  0  0  0
  -21.6350  -13.0380   21.5140 H   0  0  0  0  0  0  0  0  0  0  0  0
  -26.5430  -14.1760   20.5570 N   0  0  0  0  0  0  0  0  0  0  0  0
  -25.9080  -14.9680   20.5560 H   0  0  0  0  0  0  0  0  0  0  0  0
  -27.5190  -14.4450   20.6290 H   0  0  0  0  0  0  0  0  0  0  0  0
  -27.9500  -18.0030   19.0260 C   0  0  1  0  0  0  0  0  0  0  0  0
  -27.7790  -19.3130   19.2440 F   0  0  0  0  0  0  0  0  0  0  0  0
  -28.3500  -17.8520   17.7600 F   0  0  0  0  0  0  0  0  0  0  0  0
  -26.7750  -17.3890   19.1840 F   0  0  0  0  0  0  0  0  0  0  0  0
  -31.4510  -20.5370   21.4320 C   0  0  0  0  0  3  0  0  0  0  0  0
  -31.9470  -22.0070   21.2810 C   0  0  0  0  0  3  0  0  0  0  0  0
  -32.3760  -22.4540   19.8630 C   0  0  0  0  0  2  0  0  0  0  0  0
  -31.7330  -23.1580   17.6220 C   0  0  0  0  0  1  0  0  0  0  0  0
  -31.3230  -23.1360   19.0510 N   0  0  2  0  0  4  0  0  0  0  0  0
  -30.5030  -22.5510   19.1040 H   0  0  0  0  0  0  0  0  0  0  0  0
  -30.9550  -24.4960   19.5610 C   0  0  0  0  0  2  0  0  0  0  0  0
  -29.7290  -25.1130   18.8440 C   0  0  0  0  0  2  0  0  0  0  0  0
  -29.1060  -26.3690   19.5000 C   0  0  0  0  0  2  0  0  0  0  0  0
  -27.9600  -26.6230   18.7000 O   0  0  0  0  0  0  0  0  0  0  0  0
  -24.9840  -31.1860   23.4000 C   0  0  0  0  0  0  0  0  0  0  0  0
  -26.9110  -27.3760   19.1680 C   0  0  0  0  0  0  0  0  0  0  0  0
  -23.4760  -30.1690   21.7240 C   0  0  0  0  0  3  0  0  0  0  0  0
  -24.6260  -28.8940   19.8400 C   0  0  0  0  0  0  0  0  0  0  0  0
  -25.9650  -30.4840   21.2240 C   0  0  0  0  0  2  0  0  0  0  0  0
  -25.8850  -29.2560   20.3430 C   0  0  0  0  0  0  0  0  0  0  0  0
  -27.0340  -28.4970   20.0200 C   0  0  0  0  0  3  0  0  0  0  0  0
  -25.6410  -27.0260   18.6700 C   0  0  0  0  0  3  0  0  0  0  0  0
  -24.4970  -27.7700   19.0080 C   0  0  0  0  0  3  0  0  0  0  0  0
  -23.4500  -29.7640   20.2270 C   0  0  0  0  0  2  0  0  0  0  0  0
  -24.8330  -30.6160   22.1720 N   0  0  0  0  0  0  0  0  0  0  0  0
  -24.0090  -31.3810   24.1400 O   0  0  0  0  0  0  0  0  0  0  0  0
  -22.9090  -29.0000   22.5610 C   0  0  0  0  0  0  0  0  0  0  0  0
  -21.6240  -28.6740   22.3420 N   0  0  0  0  0  0  0  0  0  0  0  0
  -23.6240  -28.3920   23.3620 O   0  0  0  0  0  0  0  0  0  0  0  0
  -21.1030  -29.2230   21.6730 H   0  0  0  0  0  0  0  0  0  0  0  0
  -18.5280  -26.8110   22.2800 C   0  0  0  0  0  0  0  0  0  0  0  0
  -20.8910  -27.5840   22.9860 C   0  0  0  0  0  3  0  0  0  0  0  0
  -21.3820  -26.2070   22.4790 C   0  0  0  0  0  2  0  0  0  0  0  0
  -20.5650  -25.6730   21.2990 C   0  0  0  0  0  2  0  0  0  0  0  0
  -19.0900  -25.5290   21.6860 C   0  0  0  0  0  2  0  0  0  0  0  0
  -19.3750  -27.7830   22.8750 C   0  0  0  0  0  0  0  0  0  0  0  0
  -18.8050  -28.9730   23.3790 C   0  0  0  0  0  3  0  0  0  0  0  0
  -17.4190  -29.1980   23.2980 C   0  0  0  0  0  3  0  0  0  0  0  0
  -16.5820  -28.2260   22.7230 C   0  0  0  0  0  3  0  0  0  0  0  0
  -17.1360  -27.0360   22.2190 C   0  0  0  0  0  3  0  0  0  0  0  0
  -26.3820  -31.6430   23.9240 C   0  0  0  0  0  3  0  0  0  0  0  0
  -26.9890  -30.6670   25.0060 C   0  0  1  0  0  0  0  0  0  0  0  0
  -26.0240  -30.3580   26.1740 C   0  0  0  0  0  1  0  0  0  0  0  0
  -27.3940  -29.3200   24.3620 C   0  0  0  0  0  1  0  0  0  0  0  0
  -28.2790  -31.2820   25.5980 C   0  0  0  0  0  1  0  0  0  0  0  0
  -26.2300  -32.9980   24.4690 N   0  0  0  0  0  0  0  0  0  0  0  0
  -26.6290  -34.1150   23.8480 C   0  0  0  0  0  0  0  0  0  0  0  0
  -27.2390  -34.1040   22.7750 O   0  0  0  0  0  0  0  0  0  0  0  0
  -25.6910  -33.0870   25.3200 H   0  0  0  0  0  0  0  0  0  0  0  0
  -25.1030  -36.1120   23.8190 C   0  0  0  0  0  1  0  0  0  0  0  0
  -26.3020  -35.4590   24.5250 C   0  0  0  0  0  3  0  0  0  0  0  0
  -28.5300  -35.9740   25.4210 C   0  0  0  0  0  1  0  0  0  0  0  0
  -27.4420  -36.4020   24.5460 N   0  0  0  0  0  0  0  0  0  0  0  0
  -27.1410  -37.3260   24.8430 H   0  0  0  0  0  0  0  0  0  0  0  0
  3  4  1  0
  3  2  1  1
  3  1  1  0
  5  7  1  0
  6  7  2  0
  7  4  1  0
  8  5  2  0
  9  6  1  0
 10  8  1  0
 10  9  2  0
 11 18  2  0
 11 17  1  0
 13 12  1  0
 14 13  1  0
 15 14  1  0
 15 24  1  0
 15 16  1  0
 17 12  1  0
 17 16  1  0
 19 20  1  0
 20  9  1  0
 20 11  1  0
 21 24  1  0
 21 22  2  0
 22 23  1  0
 23 25  2  0
 23 26  1  0
 24 25  1  0
 26 27  1  0
 27 28  2  0
 29 28  1  0
 30 29  2  0
 31 30  1  0
 31 26  2  0
 32 29  1  0
 32 33  1  0
 33 38  2  0
 33 34  1  0
 34 35  2  0
 35 36  1  0
 36 40  1  0
 37 36  2  0
 38 37  1  0
 39 38  1  0
 41 22  1  0
 41 42  1  0
 42 44  1  0
 43 41  2  0
 45 42  1  0
 46 48  1  0
 46 21  1  0
 47 46  1  0
 49 52  1  6
 49 50  1  0
 49  8  1  0
 51 49  1  0
 53  3  1  0
 54 53  2  0
 55 54  1  0
 56 57  1  0
 57 58  1  6
 57 59  1  0
 57 55  1  0
 60 61  1  0
 60 59  1  0
 62 64  1  0
 62 61  1  0
 63 74  2  0
 64 69  1  0
 65 73  1  0
 65 75  1  0
 66 72  1  0
 66 68  1  0
 67 73  1  0
 68 67  1  0
 69 68  2  0
 70 71  1  0
 70 64  2  0
 71 66  2  0
 72 65  1  0
 73 63  1  0
 75 77  2  0
 76 75  1  0
 78 76  1  0
 79 84  1  0
 80 76  1  0
 81 80  1  0
 82 83  1  0
 82 81  1  0
 83 79  1  0
 84 80  1  0
 84 85  2  0
 86 85  1  0
 87 86  2  0
 88 79  2  0
 88 87  1  0
 89 63  1  0
 89 94  1  0
 89 90  1  0
 90 93  1  1
 90 91  1  0
 92 90  1  0
 94 97  1  0
 95 94  1  0
 95 99  1  0
 96 95  2  0
 99 98  1  0
 99101  1  0
101102  1  0
101100  1  0
M  ISO  4  11 100  20 100  61 101  62 101
M  END
>  <TORSDO>  (80) 
F 26

>  <SCORE>  (80) 
-9.174

>  <name>  (80) 
84

>  <ligand_id>  (80) 
84

>  <original_smiles>  (80) 
[H]c1c([H])c([H])c2c(c1[H])C([H])([H])C([H])([H])C([H])([H])C2([H])N([H])C(=O)C1([H])N(C(=O)C([H])(N([H])C(=O)C([H])(N([H])C([H])([H])[H])C([H])([H])[H])C(C([H])([H])[H])(C([H])([H])[H])C([H])([H])[H])C([H])([H])c2c([H])c(OC([H])([H])C([H])([H])C([H])([H])[N+]([H])(C([H])([H])[H])C([H])([H])C([H])([H])C([H])([H])C(C([H])([H])[H])(C([H])([H])[H])C([H])([H])c3c([H])c(N(C(=O)N4C([H])([H])C([H])([H])C([H])([H])C([H])(n5nc(-c6c([H])c([H])c(Oc7c([H])c([H])c(F)c([H])c7F)c([H])c6[H])c(C(=O)N([H])[H])c5N([H])[H])C4([H])[H])C([H])([H])[H])nc(C(F)(F)F)c3[H])c([H])c([H])c2C1([H])[H]

>  <smiles>  (80) 
[H]c1c([H])c([H])c2c(c1[H])C([H])([H])C([H])([H])C([H])([H])C2([H])N([H])C(=O)C1([H])N(C(=O)C([H])(N([H])C(=O)C([H])(N([H])C([H])([H])[H])C([H])([H])[H])C(C([H])([H])[H])(C([H])([H])[H])C([H])([H])[H])C([H])([H])c2c([H])c(OC([H])([H])C([H])([H])C([H])([H])[N+]([H])(C([H])([H])[H])C([H])([H])C([H])([H])C([H])([H])C(C([H])([H])[H])(C([H])([H])[H])C([H])([H])c3c([H])c(N(C(=O)N4C([H])([H])C([H])([H])C([H])([H])C([H])(n5nc(-c6c([H])c([H])c(Oc7c([H])c([H])c(F)c([H])c7F)c([H])c6[H])c(C(=O)N([H])[H])c5N([H])[H])C4([H])[H])C([H])([H])[H])nc(C(F)(F)F)c3[H])c([H])c([H])c2C1([H])[H]

$$$$
85:0:0
     RDKit          3D

 90 98  0  0  1  0  0  0  0  0999 V2000
  -29.6680  -20.0740   21.3750 C   0  0  0  0  0  3  0  0  0  0  0  0
  -29.5010  -20.7310   20.1270 C   0  0  0  0  0  0  0  0  0  0  0  0
  -29.7850  -19.8160   19.0650 C   0  0  0  0  0  0  0  0  0  0  0  0
  -30.0560  -17.8950   20.4630 C   0  0  0  0  0  0  0  0  0  0  0  0
  -29.8220  -20.3170   17.6290 C   0  0  0  0  0  1  0  0  0  0  0  0
  -29.9310  -18.7340   21.5190 N   0  0  0  0  0  0  0  0  0  0  0  0
  -30.0120  -18.4610   19.2310 N   0  0  0  0  0  0  0  0  0  0  0  0
  -29.7880  -16.2920   20.7430 C   0  0  1  0  0  0  0  0  0  0  0  0
  -29.8260  -16.1600   22.0740 F   0  0  0  0  0  0  0  0  0  0  0  0
  -28.5060  -16.1650   20.3940 F   0  0  0  0  0  0  0  0  0  0  0  0
  -30.5800  -14.9570   20.1770 C   0  0  0  0  0  0  0  0  0  0  0  0
  -30.3780  -12.6570   19.1260 C   0  0  0  0  0  2  0  0  0  0  0  0
  -29.3940  -12.6990   17.9310 C   0  0  0  0  0  2  0  0  0  0  0  0
  -27.9480  -12.4790   18.4100 C   0  0  0  0  0  2  0  0  0  0  0  0
  -27.5980  -13.3600   19.6340 C   0  0  0  0  0  3  0  0  0  0  0  0
  -28.6990  -13.3160   20.7230 C   0  0  0  0  0  2  0  0  0  0  0  0
  -29.9750  -13.7050   20.1010 N   0  0  0  0  0  0  0  0  0  0  0  0
  -31.7420  -15.0440   19.7590 O   0  0  0  0  0  0  0  0  0  0  0  0
  -25.2430  -13.9360   20.4630 C   0  0  0  0  0  0  0  0  0  0  0  0
  -24.1930  -13.1560   20.8650 C   0  0  0  0  0  0  0  0  0  0  0  0
  -24.6590  -11.8070   20.8050 C   0  0  0  0  0  0  0  0  0  0  0  0
  -26.2800  -13.0620   20.1790 N   0  0  0  0  0  0  0  0  0  0  0  0
  -25.9380  -11.7770   20.4530 N   0  0  0  0  0  0  0  0  0  0  0  0
  -23.9400  -10.5400   21.0010 C   0  0  0  0  0  0  0  0  0  0  0  0
  -24.3930   -9.5700   21.9230 C   0  0  0  0  0  3  0  0  0  0  0  0
  -23.6770   -8.3680   22.1070 C   0  0  0  0  0  3  0  0  0  0  0  0
  -22.4920   -8.1280   21.3680 C   0  0  0  0  0  0  0  0  0  0  0  0
  -22.0580   -9.0880   20.4360 C   0  0  0  0  0  3  0  0  0  0  0  0
  -22.7760  -10.2810   20.2510 C   0  0  0  0  0  3  0  0  0  0  0  0
  -21.7410   -6.9810   21.4640 O   0  0  0  0  0  0  0  0  0  0  0  0
  -21.6970   -6.2500   22.6240 C   0  0  0  0  0  0  0  0  0  0  0  0
  -21.2700   -6.8140   23.8460 C   0  0  0  0  0  3  0  0  0  0  0  0
  -21.1700   -6.0050   24.9970 C   0  0  0  0  0  3  0  0  0  0  0  0
  -21.4870   -4.6350   24.9230 C   0  0  0  0  0  0  0  0  0  0  0  0
  -21.9110   -4.0720   23.7060 C   0  0  0  0  0  3  0  0  0  0  0  0
  -22.0110   -4.8780   22.5600 C   0  0  0  0  0  0  0  0  0  0  0  0
  -22.3970   -4.3270   21.3830 F   0  0  0  0  0  0  0  0  0  0  0  0
  -21.3850   -3.8560   26.0240 F   0  0  0  0  0  0  0  0  0  0  0  0
  -22.8050  -13.6290   21.1860 C   0  0  0  0  0  0  0  0  0  0  0  0
  -22.1020  -12.9250   22.0670 N   0  0  0  0  0  0  0  0  0  0  0  0
  -22.3520  -14.6580   20.6880 O   0  0  0  0  0  0  0  0  0  0  0  0
  -22.4740  -12.0890   22.4940 H   0  0  0  0  0  0  0  0  0  0  0  0
  -21.1770  -13.2370   22.3270 H   0  0  0  0  0  0  0  0  0  0  0  0
  -25.3950  -15.3080   20.2900 N   0  0  0  0  0  0  0  0  0  0  0  0
  -24.6260  -15.9550   20.4260 H   0  0  0  0  0  0  0  0  0  0  0  0
  -26.2310  -15.7540   19.9310 H   0  0  0  0  0  0  0  0  0  0  0  0
  -28.7560  -22.1690   19.9330 C   0  0  0  0  0  2  0  0  0  0  0  0
  -29.2410  -23.7030   20.2590 C   0  0  0  0  0  3  0  0  0  0  0  0
  -28.1520  -24.9170   20.0050 C   0  0  0  0  0  3  0  0  0  0  0  0
  -28.3390  -26.4060   20.2570 O   0  0  0  0  0  0  0  0  0  0  0  0
  -24.6270  -31.9370   23.2720 C   0  0  0  0  0  0  0  0  0  0  0  0
  -27.2240  -27.2990   20.2160 C   0  0  0  0  0  0  0  0  0  0  0  0
  -23.4130  -30.5350   21.6430 C   0  0  0  0  0  3  0  0  0  0  0  0
  -24.8570  -28.9660   20.2140 C   0  0  0  0  0  0  0  0  0  0  0  0
  -25.9630  -30.8230   21.4580 C   0  0  0  0  0  2  0  0  0  0  0  0
  -26.0350  -29.4390   20.8050 C   0  0  0  0  0  0  0  0  0  0  0  0
  -27.2170  -28.6210   20.7880 C   0  0  0  0  0  3  0  0  0  0  0  0
  -26.0110  -26.8970   19.6040 C   0  0  0  0  0  3  0  0  0  0  0  0
  -24.8510  -27.7020   19.6030 C   0  0  0  0  0  3  0  0  0  0  0  0
  -23.6230  -29.8490   20.2670 C   0  0  0  0  0  2  0  0  0  0  0  0
  -24.6880  -31.1170   22.1790 N   0  0  0  0  0  0  0  0  0  0  0  0
  -23.5450  -32.2230   23.8060 O   0  0  0  0  0  0  0  0  0  0  0  0
  -22.7440  -29.5300   22.6110 C   0  0  0  0  0  0  0  0  0  0  0  0
  -21.4170  -29.3510   22.4810 N   0  0  0  0  0  0  0  0  0  0  0  0
  -23.4190  -28.9130   23.4400 O   0  0  0  0  0  0  0  0  0  0  0  0
  -20.9350  -29.8990   21.7820 H   0  0  0  0  0  0  0  0  0  0  0  0
  -18.0410  -28.1410   22.9670 C   0  0  0  0  0  0  0  0  0  0  0  0
  -20.5950  -28.4190   23.2560 C   0  0  0  0  0  3  0  0  0  0  0  0
  -20.7120  -26.9820   22.6970 C   0  0  0  0  0  2  0  0  0  0  0  0
  -19.6210  -26.6390   21.6800 C   0  0  0  0  0  2  0  0  0  0  0  0
  -18.2320  -26.7850   22.3100 C   0  0  0  0  0  2  0  0  0  0  0  0
  -19.1510  -28.9150   23.3970 C   0  0  0  0  0  0  0  0  0  0  0  0
  -18.9180  -30.1830   23.9720 C   0  0  0  0  0  3  0  0  0  0  0  0
  -17.6090  -30.6760   24.1260 C   0  0  0  0  0  3  0  0  0  0  0  0
  -16.5130  -29.8980   23.7150 C   0  0  0  0  0  3  0  0  0  0  0  0
  -16.7300  -28.6330   23.1400 C   0  0  0  0  0  3  0  0  0  0  0  0
  -25.9110  -32.5670   23.8900 C   0  0  0  0  0  3  0  0  0  0  0  0
  -26.4260  -31.7970   25.1690 C   0  0  1  0  0  0  0  0  0  0  0  0
  -25.3340  -31.5670   26.2400 C   0  0  0  0  0  1  0  0  0  0  0  0
  -27.0070  -30.4190   24.7810 C   0  0  0  0  0  1  0  0  0  0  0  0
  -27.5810  -32.5900   25.8230 C   0  0  0  0  0  1  0  0  0  0  0  0
  -25.6080  -33.9670   24.2230 N   0  0  0  0  0  0  0  0  0  0  0  0
  -25.9240  -35.0200   23.4570 C   0  0  0  0  0  0  0  0  0  0  0  0
  -26.5690  -34.9140   22.4110 O   0  0  0  0  0  0  0  0  0  0  0  0
  -25.0330  -34.1230   25.0390 H   0  0  0  0  0  0  0  0  0  0  0  0
  -24.1770  -36.8040   23.1550 C   0  0  0  0  0  1  0  0  0  0  0  0
  -25.4470  -36.4090   23.9270 C   0  0  0  0  0  3  0  0  0  0  0  0
  -27.6070  -37.3010   24.6760 C   0  0  0  0  0  1  0  0  0  0  0  0
  -26.4690  -37.4660   23.7730 N   0  0  0  0  0  0  0  0  0  0  0  0
  -26.0680  -38.3840   23.9380 H   0  0  0  0  0  0  0  0  0  0  0  0
  1  6  1  0
  2  1  2  0
  3  7  2  0
  3  2  1  0
  4  8  1  0
  4  6  2  0
  5  3  1  0
  7  4  1  0
  8  9  1  1
 10  8  1  0
 11  8  1  0
 12 17  1  0
 13 14  1  0
 13 12  1  0
 15 14  1  0
 15 22  1  0
 15 16  1  0
 17 11  1  0
 17 16  1  0
 18 11  2  0
 19 20  2  0
 20 39  1  0
 21 20  1  0
 21 24  1  0
 22 23  1  0
 22 19  1  0
 23 21  2  0
 24 25  1  0
 25 26  2  0
 27 30  1  0
 27 26  1  0
 28 27  2  0
 29 28  1  0
 29 24  2  0
 30 31  1  0
 31 32  1  0
 32 33  2  0
 34 33  1  0
 34 38  1  0
 35 34  2  0
 36 31  2  0
 36 35  1  0
 37 36  1  0
 39 40  1  0
 40 43  1  0
 40 42  1  0
 41 39  2  0
 44 45  1  0
 44 19  1  0
 46 44  1  0
 47  2  1  0
 47 48  1  0
 49 50  1  0
 49 48  2  0
 51 62  2  0
 52 50  1  0
 52 57  1  0
 53 61  1  0
 53 63  1  0
 54 60  1  0
 54 56  1  0
 55 61  1  0
 56 55  1  0
 57 56  2  0
 58 52  2  0
 59 58  1  0
 59 54  2  0
 60 53  1  0
 61 51  1  0
 63 65  2  0
 64 63  1  0
 66 64  1  0
 67 76  2  0
 67 72  1  0
 68 64  1  0
 68 72  1  0
 69 68  1  0
 70 71  1  0
 70 69  1  0
 71 67  1  0
 72 73  2  0
 73 74  1  0
 75 74  2  0
 76 75  1  0
 77 51  1  0
 77 82  1  0
 77 78  1  0
 78 81  1  1
 78 79  1  0
 80 78  1  0
 82 85  1  0
 83 87  1  0
 83 82  1  0
 84 83  2  0
 87 86  1  0
 89 87  1  0
 89 90  1  0
 89 88  1  0
M  ISO  4   8 100  11 100  49 101  50 101
M  END
>  <TORSDO>  (81) 
F 20

>  <SCORE>  (81) 
-13.699

>  <name>  (81) 
85

>  <ligand_id>  (81) 
85

>  <original_smiles>  (81) 
[H]c1nc(C(F)(F)C(=O)N2C([H])([H])C([H])([H])C([H])([H])C([H])(n3nc(-c4c([H])c([H])c(Oc5c([H])c([H])c(F)c([H])c5F)c([H])c4[H])c(C(=O)N([H])[H])c3N([H])[H])C2([H])[H])nc(C([H])([H])[H])c1C([H])([H])C([H])([H])C([H])([H])Oc1c([H])c([H])c2c(c1[H])C([H])([H])N(C(=O)C([H])(N([H])C(=O)C([H])(N([H])C([H])([H])[H])C([H])([H])[H])C(C([H])([H])[H])(C([H])([H])[H])C([H])([H])[H])C([H])(C(=O)N([H])C1([H])c3c([H])c([H])c([H])c([H])c3C([H])([H])C([H])([H])C1([H])[H])C2([H])[H]

>  <smiles>  (81) 
[H]c1nc(C(F)(F)C(=O)N2C([H])([H])C([H])([H])C([H])([H])C([H])(n3nc(-c4c([H])c([H])c(Oc5c([H])c([H])c(F)c([H])c5F)c([H])c4[H])c(C(=O)N([H])[H])c3N([H])[H])C2([H])[H])nc(C([H])([H])[H])c1C([H])([H])C([H])([H])C([H])([H])Oc1c([H])c([H])c2c(c1[H])C([H])([H])N(C(=O)C([H])(N([H])C(=O)C([H])(N([H])C([H])([H])[H])C([H])([H])[H])C(C([H])([H])[H])(C([H])([H])[H])C([H])([H])[H])C([H])(C(=O)N([H])C1([H])c3c([H])c([H])c([H])c([H])c3C([H])([H])C([H])([H])C1([H])[H])C2([H])[H]

$$$$
86:0:0
     RDKit          3D

 98106  0  0  1  0  0  0  0  0999 V2000
  -30.3560  -20.5350   21.3150 C   0  0  0  0  0  3  0  0  0  0  0  0
  -29.6140  -19.3990   20.9450 C   0  0  0  0  0  0  0  0  0  0  0  0
  -29.9510  -21.7700   20.7660 C   0  0  0  0  0  0  0  0  0  0  0  0
  -28.2980  -20.6980   19.5990 C   0  0  0  0  0  0  0  0  0  0  0  0
  -28.5990  -19.4950   20.0690 N   0  0  0  0  0  0  0  0  0  0  0  0
  -28.8950  -21.8320   19.9370 N   0  0  0  0  0  0  0  0  0  0  0  0
  -27.4650  -21.1550   17.2400 C   0  0  0  0  0  1  0  0  0  0  0  0
  -26.0080  -21.7210   19.2770 C   0  0  0  0  0  1  0  0  0  0  0  0
  -27.0830  -20.7950   18.6850 C   0  0  0  0  0  3  0  0  0  0  0  0
  -29.8270  -18.0070   21.5400 C   0  0  0  0  0  2  0  0  0  0  0  0
  -30.3380  -16.9760   20.5070 C   0  0  0  0  0  2  0  0  0  0  0  0
  -30.9570  -14.5580   20.4680 C   0  0  0  0  0  0  0  0  0  0  0  0
  -30.6910  -12.3090   19.5020 C   0  0  0  0  0  2  0  0  0  0  0  0
  -29.7420  -12.4170   18.2900 C   0  0  0  0  0  2  0  0  0  0  0  0
  -28.2630  -12.3150   18.7260 C   0  0  0  0  0  2  0  0  0  0  0  0
  -27.9270  -13.2390   19.9260 C   0  0  0  0  0  3  0  0  0  0  0  0
  -28.9870  -13.0910   21.0430 C   0  0  0  0  0  2  0  0  0  0  0  0
  -30.3140  -13.3610   20.4580 N   0  0  0  0  0  0  0  0  0  0  0  0
  -32.0440  -14.7520   19.9200 O   0  0  0  0  0  0  0  0  0  0  0  0
  -30.2340  -15.5750   20.9580 N   0  0  0  0  0  0  0  0  0  0  0  0
  -29.3690  -15.3090   21.4020 H   0  0  0  0  0  0  0  0  0  0  0  0
  -25.5700  -13.9110   20.7360 C   0  0  0  0  0  0  0  0  0  0  0  0
  -24.4820  -13.1650   21.1060 C   0  0  0  0  0  0  0  0  0  0  0  0
  -24.8880  -11.8000   21.0040 C   0  0  0  0  0  0  0  0  0  0  0  0
  -26.5730  -13.0020   20.4330 N   0  0  0  0  0  0  0  0  0  0  0  0
  -26.1640  -11.7250   20.6480 N   0  0  0  0  0  0  0  0  0  0  0  0
  -24.1180  -10.5610   21.1660 C   0  0  0  0  0  0  0  0  0  0  0  0
  -24.5490   -9.5320   22.0330 C   0  0  0  0  0  3  0  0  0  0  0  0
  -23.7850   -8.3560   22.1870 C   0  0  0  0  0  3  0  0  0  0  0  0
  -22.5710   -8.2020   21.4760 C   0  0  0  0  0  0  0  0  0  0  0  0
  -22.1580   -9.2180   20.5960 C   0  0  0  0  0  3  0  0  0  0  0  0
  -22.9240  -10.3850   20.4400 C   0  0  0  0  0  3  0  0  0  0  0  0
  -21.7740   -7.0850   21.5440 O   0  0  0  0  0  0  0  0  0  0  0  0
  -21.7510   -6.2810   22.6550 C   0  0  0  0  0  0  0  0  0  0  0  0
  -21.4140   -6.7830   23.9310 C   0  0  0  0  0  3  0  0  0  0  0  0
  -21.3350   -5.9080   25.0330 C   0  0  0  0  0  3  0  0  0  0  0  0
  -21.5810   -4.5330   24.8610 C   0  0  0  0  0  0  0  0  0  0  0  0
  -21.9080   -4.0290   23.5910 C   0  0  0  0  0  3  0  0  0  0  0  0
  -21.9890   -4.9010   22.4880 C   0  0  0  0  0  0  0  0  0  0  0  0
  -22.2860   -4.4070   21.2630 F   0  0  0  0  0  0  0  0  0  0  0  0
  -21.4980   -3.6900   25.9180 F   0  0  0  0  0  0  0  0  0  0  0  0
  -23.1140  -13.6850   21.4430 C   0  0  0  0  0  0  0  0  0  0  0  0
  -22.3900  -12.9940   22.3170 N   0  0  0  0  0  0  0  0  0  0  0  0
  -22.6920  -14.7370   20.9650 O   0  0  0  0  0  0  0  0  0  0  0  0
  -22.7450  -12.1470   22.7350 H   0  0  0  0  0  0  0  0  0  0  0  0
  -21.4680  -13.3240   22.5730 H   0  0  0  0  0  0  0  0  0  0  0  0
  -25.7840  -15.2820   20.6140 N   0  0  0  0  0  0  0  0  0  0  0  0
  -25.0490  -15.9630   20.7770 H   0  0  0  0  0  0  0  0  0  0  0  0
  -26.6530  -15.7040   20.3090 H   0  0  0  0  0  0  0  0  0  0  0  0
  -30.5160  -23.1140   21.2310 C   0  0  0  0  0  2  0  0  0  0  0  0
  -32.2030  -23.3250   19.3460 C   0  0  0  0  0  1  0  0  0  0  0  0
  -32.0420  -25.0540   21.1200 C   0  0  0  0  0  1  0  0  0  0  0  0
  -31.1910  -24.1200   20.2140 C   0  0  2  0  0  0  0  0  0  0  0  0
  -30.9930  -26.1840   18.6250 C   0  0  0  0  0  1  0  0  0  0  0  0
  -29.6070  -24.2330   18.1120 C   0  0  0  0  0  1  0  0  0  0  0  0
  -30.2090  -25.0230   19.3070 C   0  0  1  0  0  0  0  0  0  0  0  0
  -29.0100  -25.6510   20.1190 C   0  0  0  0  0  2  0  0  0  0  0  0
  -28.8970  -27.0800   19.9890 O   0  0  0  0  0  0  0  0  0  0  0  0
  -24.5640  -31.7510   23.1730 C   0  0  0  0  0  0  0  0  0  0  0  0
  -27.6500  -27.6690   20.0080 C   0  0  0  0  0  0  0  0  0  0  0  0
  -23.5290  -30.3560   21.4140 C   0  0  0  0  0  3  0  0  0  0  0  0
  -25.1470  -28.9950   19.9840 C   0  0  0  0  0  0  0  0  0  0  0  0
  -26.0290  -30.8990   21.3470 C   0  0  0  0  0  2  0  0  0  0  0  0
  -26.2380  -29.5730   20.6450 C   0  0  0  0  0  0  0  0  0  0  0  0
  -27.4910  -28.9200   20.6480 C   0  0  0  0  0  3  0  0  0  0  0  0
  -26.5370  -27.0970   19.3510 C   0  0  0  0  0  3  0  0  0  0  0  0
  -25.2910  -27.7550   19.3360 C   0  0  0  0  0  3  0  0  0  0  0  0
  -23.8420  -29.7600   20.0150 C   0  0  0  0  0  2  0  0  0  0  0  0
  -24.7220  -31.0150   22.0370 N   0  0  0  0  0  0  0  0  0  0  0  0
  -23.4440  -31.9210   23.6750 O   0  0  0  0  0  0  0  0  0  0  0  0
  -22.9130  -29.2450   22.2910 C   0  0  0  0  0  0  0  0  0  0  0  0
  -21.6010  -29.0050   22.1210 N   0  0  0  0  0  0  0  0  0  0  0  0
  -23.6110  -28.6020   23.0810 O   0  0  0  0  0  0  0  0  0  0  0  0
  -21.0970  -29.5770   21.4570 H   0  0  0  0  0  0  0  0  0  0  0  0
  -18.2800  -27.6310   22.4660 C   0  0  0  0  0  0  0  0  0  0  0  0
  -20.8170  -27.9820   22.8100 C   0  0  0  0  0  3  0  0  0  0  0  0
  -20.9970  -26.6010   22.1370 C   0  0  0  0  0  2  0  0  0  0  0  0
  -19.9280  -26.3000   21.0820 C   0  0  0  0  0  2  0  0  0  0  0  0
  -18.5290  -26.3410   21.7040 C   0  0  0  0  0  2  0  0  0  0  0  0
  -19.3530  -28.4100   22.9710 C   0  0  0  0  0  0  0  0  0  0  0  0
  -19.0670  -29.6210   23.6380 C   0  0  0  0  0  3  0  0  0  0  0  0
  -17.7380  -30.0490   23.8130 C   0  0  0  0  0  3  0  0  0  0  0  0
  -16.6760  -29.2640   23.3300 C   0  0  0  0  0  3  0  0  0  0  0  0
  -16.9490  -28.0580   22.6570 C   0  0  0  0  0  3  0  0  0  0  0  0
  -25.7750  -32.4330   23.8840 C   0  0  0  0  0  3  0  0  0  0  0  0
  -25.3740  -33.8050   24.2190 N   0  0  0  0  0  0  0  0  0  0  0  0
  -25.7020  -34.8890   23.5060 C   0  0  0  0  0  0  0  0  0  0  0  0
  -26.4430  -34.8460   22.5190 O   0  0  0  0  0  0  0  0  0  0  0  0
  -24.7220  -33.9110   24.9820 H   0  0  0  0  0  0  0  0  0  0  0  0
  -23.9040  -36.5940   23.0780 C   0  0  0  0  0  1  0  0  0  0  0  0
  -25.1140  -36.2410   23.9570 C   0  0  0  0  0  3  0  0  0  0  0  0
  -27.1490  -37.2160   24.9260 C   0  0  0  0  0  1  0  0  0  0  0  0
  -26.0940  -37.3490   23.9240 N   0  0  0  0  0  0  0  0  0  0  0  0
  -25.6310  -38.2430   24.0660 H   0  0  0  0  0  0  0  0  0  0  0  0
  -26.2560  -31.6590   25.1730 C   0  0  1  0  0  0  0  0  0  0  0  0
  -25.1160  -31.3510   26.1720 C   0  0  0  0  0  1  0  0  0  0  0  0
  -26.9230  -30.3180   24.7890 C   0  0  0  0  0  1  0  0  0  0  0  0
  -27.3280  -32.4930   25.9130 C   0  0  0  0  0  1  0  0  0  0  0  0
  2  1  2  0
  2 10  1  0
  3 50  1  0
  3  1  1  0
  4  6  1  0
  4  5  2  0
  5  2  1  0
  6  3  2  0
  7  9  1  0
  9  8  1  0
  9  4  1  0
 11 20  1  0
 11 10  1  0
 12 20  1  0
 13 18  1  0
 14 15  1  0
 14 13  1  0
 16 15  1  0
 16 25  1  0
 16 17  1  0
 18 12  1  0
 18 17  1  0
 19 12  2  0
 20 21  1  0
 22 23  2  0
 23 42  1  0
 24 23  1  0
 24 27  1  0
 25 26  1  0
 25 22  1  0
 26 24  2  0
 27 28  1  0
 28 29  2  0
 30 33  1  0
 30 29  1  0
 31 30  2  0
 32 31  1  0
 32 27  2  0
 33 34  1  0
 34 35  1  0
 35 36  2  0
 37 36  1  0
 37 41  1  0
 38 37  2  0
 39 34  2  0
 39 38  1  0
 40 39  1  0
 42 43  1  0
 43 46  1  0
 43 45  1  0
 44 42  2  0
 47 22  1  0
 47 48  1  0
 49 47  1  0
 53 51  1  6
 53 52  1  0
 53 50  1  0
 56 54  1  6
 55 56  1  0
 56 57  1  0
 56 53  1  0
 58 60  1  0
 58 57  1  0
 59 70  2  0
 60 65  1  0
 61 69  1  0
 61 71  1  0
 62 68  1  0
 62 64  1  0
 63 69  1  0
 64 65  2  0
 64 63  1  0
 66 60  2  0
 67 66  1  0
 67 62  2  0
 68 61  1  0
 69 59  1  0
 71 73  2  0
 72 71  1  0
 74 72  1  0
 75 84  2  0
 75 80  1  0
 76 72  1  0
 76 80  1  0
 77 76  1  0
 78 79  1  0
 78 77  1  0
 79 75  1  0
 80 81  2  0
 81 82  1  0
 83 82  2  0
 84 83  1  0
 85 59  1  0
 85 86  1  0
 85 95  1  0
 86 89  1  0
 87 91  1  0
 87 86  1  0
 88 87  2  0
 91 90  1  0
 93 91  1  0
 93 94  1  0
 93 92  1  0
 95 98  1  1
 95 96  1  0
 97 95  1  0
M  ISO  4  12 100  20 100  57 101  58 101
M  END
>  <TORSDO>  (82) 
F 23

>  <SCORE>  (82) 
-11.158

>  <name>  (82) 
86

>  <ligand_id>  (82) 
86

>  <original_smiles>  (82) 
[H]c1c(C([H])([H])C([H])([H])N([H])C(=O)N2C([H])([H])C([H])([H])C([H])([H])C([H])(n3nc(-c4c([H])c([H])c(Oc5c([H])c([H])c(F)c([H])c5F)c([H])c4[H])c(C(=O)N([H])[H])c3N([H])[H])C2([H])[H])nc(C([H])(C([H])([H])[H])C([H])([H])[H])nc1C([H])([H])C(C([H])([H])[H])(C([H])([H])[H])C(C([H])([H])[H])(C([H])([H])[H])C([H])([H])Oc1c([H])c([H])c2c(c1[H])C([H])([H])N(C(=O)C([H])(N([H])C(=O)C([H])(N([H])C([H])([H])[H])C([H])([H])[H])C(C([H])([H])[H])(C([H])([H])[H])C([H])([H])[H])C([H])(C(=O)N([H])C1([H])c3c([H])c([H])c([H])c([H])c3C([H])([H])C([H])([H])C1([H])[H])C2([H])[H]

>  <smiles>  (82) 
[H]c1c(C([H])([H])C([H])([H])N([H])C(=O)N2C([H])([H])C([H])([H])C([H])([H])C([H])(n3nc(-c4c([H])c([H])c(Oc5c([H])c([H])c(F)c([H])c5F)c([H])c4[H])c(C(=O)N([H])[H])c3N([H])[H])C2([H])[H])nc(C([H])(C([H])([H])[H])C([H])([H])[H])nc1C([H])([H])C(C([H])([H])[H])(C([H])([H])[H])C(C([H])([H])[H])(C([H])([H])[H])C([H])([H])Oc1c([H])c([H])c2c(c1[H])C([H])([H])N(C(=O)C([H])(N([H])C(=O)C([H])(N([H])C([H])([H])[H])C([H])([H])[H])C(C([H])([H])[H])(C([H])([H])[H])C([H])([H])[H])C([H])(C(=O)N([H])C1([H])c3c([H])c([H])c([H])c([H])c3C([H])([H])C([H])([H])C1([H])[H])C2([H])[H]

$$$$
87:0:0
     RDKit          3D

 97105  0  0  1  0  0  0  0  0999 V2000
  -30.2770  -21.6330   20.2760 C   0  0  0  0  0  0  0  0  0  0  0  0
  -31.1690  -21.3970   19.2400 C   0  0  0  0  0  0  0  0  0  0  0  0
  -30.8460  -19.4700   20.2720 C   0  0  0  0  0  3  0  0  0  0  0  0
  -31.9780  -22.3270   18.3830 C   0  0  0  0  0  1  0  0  0  0  0  0
  -31.9030  -19.3210   17.9830 C   0  0  0  0  0  1  0  0  0  0  0  0
  -30.1030  -20.3930   20.9140 N   0  0  0  0  0  2  0  0  0  0  0  0
  -31.3040  -20.0040   19.1180 N   0  0  0  0  0  0  0  0  0  0  0  0
  -32.5470  -17.5200   20.3100 C   0  0  0  0  0  1  0  0  0  0  0  0
  -31.5740  -18.3430   22.3150 C   0  0  0  0  0  1  0  0  0  0  0  0
  -31.1960  -18.0420   20.8350 C   0  0  1  0  0  0  0  0  0  0  0  0
  -29.5910  -16.4270   22.1900 C   0  0  0  0  0  1  0  0  0  0  0  0
  -28.7760  -17.5120   20.1340 C   0  0  0  0  0  1  0  0  0  0  0  0
  -30.0360  -16.9000   20.7780 C   0  0  1  0  0  0  0  0  0  0  0  0
  -31.0730  -14.5470   19.9300 C   0  0  0  0  0  0  0  0  0  0  0  0
  -30.7840  -12.2990   18.9150 C   0  0  0  0  0  2  0  0  0  0  0  0
  -29.7770  -12.4340   17.7530 C   0  0  0  0  0  2  0  0  0  0  0  0
  -28.3200  -12.3160   18.2550 C   0  0  0  0  0  2  0  0  0  0  0  0
  -28.0430  -13.2110   19.4930 C   0  0  0  0  0  3  0  0  0  0  0  0
  -29.1560  -13.0330   20.5500 C   0  0  0  0  0  2  0  0  0  0  0  0
  -30.4380  -13.3400   19.8950 N   0  0  0  0  0  0  0  0  0  0  0  0
  -32.2500  -14.6720   19.5880 O   0  0  0  0  0  0  0  0  0  0  0  0
  -30.2060  -15.5920   20.0490 N   0  0  0  0  0  0  0  0  0  0  0  0
  -29.2950  -15.2120   19.8700 H   0  0  0  0  0  0  0  0  0  0  0  0
  -25.7290  -13.9000   20.3730 C   0  0  0  0  0  0  0  0  0  0  0  0
  -24.6510  -13.1670   20.7850 C   0  0  0  0  0  0  0  0  0  0  0  0
  -25.0440  -11.7990   20.6820 C   0  0  0  0  0  0  0  0  0  0  0  0
  -26.7150  -12.9780   20.0500 N   0  0  0  0  0  0  0  0  0  0  0  0
  -26.3090  -11.7050   20.2900 N   0  0  0  0  0  0  0  0  0  0  0  0
  -24.2670  -10.5690   20.8750 C   0  0  0  0  0  0  0  0  0  0  0  0
  -24.6430   -9.6030   21.8330 C   0  0  0  0  0  3  0  0  0  0  0  0
  -23.8710   -8.4350   22.0130 C   0  0  0  0  0  3  0  0  0  0  0  0
  -22.7090   -8.2300   21.2340 C   0  0  0  0  0  0  0  0  0  0  0  0
  -22.3490   -9.1840   20.2670 C   0  0  0  0  0  3  0  0  0  0  0  0
  -23.1210  -10.3420   20.0860 C   0  0  0  0  0  3  0  0  0  0  0  0
  -21.9130   -7.1140   21.3210 O   0  0  0  0  0  0  0  0  0  0  0  0
  -21.7260   -6.4530   22.5090 C   0  0  0  0  0  0  0  0  0  0  0  0
  -21.1840   -7.1000   23.6410 C   0  0  0  0  0  3  0  0  0  0  0  0
  -20.9420   -6.3660   24.8210 C   0  0  0  0  0  3  0  0  0  0  0  0
  -21.2340   -4.9900   24.8660 C   0  0  0  0  0  0  0  0  0  0  0  0
  -21.7730   -4.3450   23.7390 C   0  0  0  0  0  3  0  0  0  0  0  0
  -22.0130   -5.0750   22.5620 C   0  0  0  0  0  0  0  0  0  0  0  0
  -22.5100   -4.4460   21.4700 F   0  0  0  0  0  0  0  0  0  0  0  0
  -20.9960   -4.2840   25.9960 F   0  0  0  0  0  0  0  0  0  0  0  0
  -23.3010  -13.7050   21.1570 C   0  0  0  0  0  0  0  0  0  0  0  0
  -22.5990  -13.0210   22.0550 N   0  0  0  0  0  0  0  0  0  0  0  0
  -22.8800  -14.7630   20.6940 O   0  0  0  0  0  0  0  0  0  0  0  0
  -22.9590  -12.1670   22.4510 H   0  0  0  0  0  0  0  0  0  0  0  0
  -21.6930  -13.3580   22.3490 H   0  0  0  0  0  0  0  0  0  0  0  0
  -25.9340  -15.2630   20.2260 N   0  0  0  0  0  0  0  0  0  0  0  0
  -25.1800  -15.9230   20.3810 H   0  0  0  0  0  0  0  0  0  0  0  0
  -26.7510  -15.6840   19.8020 H   0  0  0  0  0  0  0  0  0  0  0  0
  -29.6490  -22.9000   20.9240 C   0  0  0  0  0  2  0  0  0  0  0  0
  -31.0580  -24.9760   20.3850 C   0  0  0  0  0  1  0  0  0  0  0  0
  -29.2340  -24.2220   18.7710 C   0  0  0  0  0  1  0  0  0  0  0  0
  -29.6510  -24.3400   20.2480 C   0  0  1  0  0  0  0  0  0  0  0  0
  -28.6110  -25.3170   20.9410 C   0  0  0  0  0  2  0  0  0  0  0  0
  -28.7070  -26.7240   20.5510 O   0  0  0  0  0  0  0  0  0  0  0  0
  -24.7290  -31.9340   23.4490 C   0  0  0  0  0  0  0  0  0  0  0  0
  -27.5360  -27.4690   20.5120 C   0  0  0  0  0  0  0  0  0  0  0  0
  -23.5990  -30.5140   21.7680 C   0  0  0  0  0  3  0  0  0  0  0  0
  -25.1260  -28.9690   20.4130 C   0  0  0  0  0  0  0  0  0  0  0  0
  -26.1320  -30.8900   21.6640 C   0  0  0  0  0  2  0  0  0  0  0  0
  -26.2580  -29.5130   21.0330 C   0  0  0  0  0  0  0  0  0  0  0  0
  -27.4710  -28.7750   21.0660 C   0  0  0  0  0  3  0  0  0  0  0  0
  -26.3880  -26.9540   19.8740 C   0  0  0  0  0  3  0  0  0  0  0  0
  -25.1870  -27.6920   19.8290 C   0  0  0  0  0  3  0  0  0  0  0  0
  -23.8700  -29.8170   20.4080 C   0  0  0  0  0  2  0  0  0  0  0  0
  -24.8350  -31.1290   22.3520 N   0  0  0  0  0  0  0  0  0  0  0  0
  -23.6260  -32.1960   23.9480 O   0  0  0  0  0  0  0  0  0  0  0  0
  -22.9190  -29.4940   22.7150 C   0  0  0  0  0  0  0  0  0  0  0  0
  -21.6020  -29.2950   22.5430 N   0  0  0  0  0  0  0  0  0  0  0  0
  -23.5810  -28.8790   23.5550 O   0  0  0  0  0  0  0  0  0  0  0  0
  -21.1250  -29.8470   21.8430 H   0  0  0  0  0  0  0  0  0  0  0  0
  -18.2360  -28.0340   22.9200 C   0  0  0  0  0  0  0  0  0  0  0  0
  -20.7750  -28.3470   23.2890 C   0  0  0  0  0  3  0  0  0  0  0  0
  -20.9260  -26.9100   22.7360 C   0  0  0  0  0  2  0  0  0  0  0  0
  -19.8750  -26.5570   21.6790 C   0  0  0  0  0  2  0  0  0  0  0  0
  -18.4650  -26.6810   22.2660 C   0  0  0  0  0  2  0  0  0  0  0  0
  -19.3200  -28.8220   23.3870 C   0  0  0  0  0  0  0  0  0  0  0  0
  -19.0540  -30.0860   23.9560 C   0  0  0  0  0  3  0  0  0  0  0  0
  -17.7360  -30.5650   24.0600 C   0  0  0  0  0  3  0  0  0  0  0  0
  -16.6640  -29.7750   23.6090 C   0  0  0  0  0  3  0  0  0  0  0  0
  -16.9150  -28.5100   23.0470 C   0  0  0  0  0  3  0  0  0  0  0  0
  -25.9820  -32.5850   24.1090 C   0  0  0  0  0  3  0  0  0  0  0  0
  -25.6520  -33.9870   24.4050 N   0  0  0  0  0  0  0  0  0  0  0  0
  -26.0150  -35.0290   23.6460 C   0  0  0  0  0  0  0  0  0  0  0  0
  -26.7330  -34.9150   22.6490 O   0  0  0  0  0  0  0  0  0  0  0  0
  -25.0190  -34.1500   25.1740 H   0  0  0  0  0  0  0  0  0  0  0  0
  -24.2990  -36.8100   23.1850 C   0  0  0  0  0  1  0  0  0  0  0  0
  -25.5030  -36.4230   24.0610 C   0  0  0  0  0  3  0  0  0  0  0  0
  -27.5890  -37.3360   24.9790 C   0  0  0  0  0  1  0  0  0  0  0  0
  -26.5370  -37.4770   23.9760 N   0  0  0  0  0  0  0  0  0  0  0  0
  -26.1210  -38.3990   24.0770 H   0  0  0  0  0  0  0  0  0  0  0  0
  -26.4550  -31.8380   25.4160 C   0  0  1  0  0  0  0  0  0  0  0  0
  -25.3170  -31.5780   26.4310 C   0  0  0  0  0  1  0  0  0  0  0  0
  -27.0960  -30.4760   25.0660 C   0  0  0  0  0  1  0  0  0  0  0  0
  -27.5480  -32.6710   26.1300 C   0  0  0  0  0  1  0  0  0  0  0  0
  1  6  1  0
  1 52  1  0
  2  1  2  0
  3 10  1  0
  3  6  1  0
  4  2  1  0
  5  7  1  0
  7  2  1  0
  7  3  1  0
 10  8  1  6
 10  9  1  0
 13 12  1  6
 13 10  1  0
 13 11  1  0
 14 22  1  0
 15 20  1  0
 16 17  1  0
 16 15  1  0
 18 17  1  0
 18 27  1  0
 18 19  1  0
 20 14  1  0
 20 19  1  0
 21 14  2  0
 22 13  1  0
 23 22  1  0
 24 25  2  0
 25 44  1  0
 26 25  1  0
 26 29  1  0
 27 28  1  0
 27 24  1  0
 28 26  2  0
 29 30  1  0
 30 31  2  0
 32 35  1  0
 32 31  1  0
 33 32  2  0
 34 33  1  0
 34 29  2  0
 35 36  1  0
 36 41  2  0
 36 37  1  0
 37 38  2  0
 38 39  1  0
 39 43  1  0
 40 39  2  0
 41 40  1  0
 42 41  1  0
 44 45  1  0
 45 48  1  0
 45 47  1  0
 46 44  2  0
 49 24  1  0
 49 50  1  0
 51 49  1  0
 55 54  1  6
 55 53  1  0
 55 52  1  0
 55 56  1  0
 57 56  1  0
 58 69  2  0
 59 57  1  0
 59 64  1  0
 60 68  1  0
 60 70  1  0
 61 63  1  0
 62 68  1  0
 63 64  2  0
 63 62  1  0
 65 59  2  0
 66 65  1  0
 66 61  2  0
 67 61  1  0
 67 60  1  0
 68 58  1  0
 70 72  2  0
 71 70  1  0
 73 71  1  0
 74 83  2  0
 74 79  1  0
 75 71  1  0
 75 79  1  0
 76 75  1  0
 77 78  1  0
 77 76  1  0
 78 74  1  0
 79 80  2  0
 80 81  1  0
 82 81  2  0
 83 82  1  0
 84 58  1  0
 84 85  1  0
 84 94  1  0
 85 88  1  0
 86 90  1  0
 86 85  1  0
 87 86  2  0
 90 89  1  0
 92 90  1  0
 92 93  1  0
 92 91  1  0
 94 97  1  1
 94 95  1  0
 96 94  1  0
M  ISO  4  14 100  22 100  56 101  57 101
M  END
>  <TORSDO>  (83) 
F 21

>  <SCORE>  (83) 
-12.548

>  <name>  (83) 
87

>  <ligand_id>  (83) 
87

>  <original_smiles>  (83) 
[H]c1c([H])c([H])c2c(c1[H])C([H])([H])C([H])([H])C([H])([H])C2([H])N([H])C(=O)C1([H])N(C(=O)C([H])(N([H])C(=O)C([H])(N([H])C([H])([H])[H])C([H])([H])[H])C(C([H])([H])[H])(C([H])([H])[H])C([H])([H])[H])C([H])([H])c2c([H])c(OC([H])([H])C(C([H])([H])[H])(C([H])([H])[H])C([H])([H])c3nc(C(C([H])([H])[H])(C([H])([H])[H])C(N([H])C(=O)N4C([H])([H])C([H])([H])C([H])([H])C([H])(n5nc(-c6c([H])c([H])c(Oc7c([H])c([H])c(F)c([H])c7F)c([H])c6[H])c(C(=O)N([H])[H])c5N([H])[H])C4([H])[H])(C([H])([H])[H])C([H])([H])[H])n(C([H])([H])[H])c3C([H])([H])[H])c([H])c([H])c2C1([H])[H]

>  <smiles>  (83) 
[H]c1c([H])c([H])c2c(c1[H])C([H])([H])C([H])([H])C([H])([H])C2([H])N([H])C(=O)C1([H])N(C(=O)C([H])(N([H])C(=O)C([H])(N([H])C([H])([H])[H])C([H])([H])[H])C(C([H])([H])[H])(C([H])([H])[H])C([H])([H])[H])C([H])([H])c2c([H])c(OC([H])([H])C(C([H])([H])[H])(C([H])([H])[H])C([H])([H])c3nc(C(C([H])([H])[H])(C([H])([H])[H])C(N([H])C(=O)N4C([H])([H])C([H])([H])C([H])([H])C([H])(n5nc(-c6c([H])c([H])c(Oc7c([H])c([H])c(F)c([H])c7F)c([H])c6[H])c(C(=O)N([H])[H])c5N([H])[H])C4([H])[H])(C([H])([H])[H])C([H])([H])[H])n(C([H])([H])[H])c3C([H])([H])[H])c([H])c([H])c2C1([H])[H]

$$$$
88:0:0
     RDKit          3D

102110  0  0  1  0  0  0  0  0999 V2000
  -30.5560  -22.1430   19.9670 N   0  0  0  0  0  0  0  0  0  0  0  0
  -32.0180  -20.2440   20.5010 C   0  0  0  0  0  3  0  0  0  0  0  0
  -32.2850  -18.8680   20.3890 C   0  0  0  0  0  3  0  0  0  0  0  0
  -29.9220  -19.8240   19.3890 C   0  0  0  0  0  3  0  0  0  0  0  0
  -30.8220  -20.7580   19.9580 C   0  0  0  0  0  0  0  0  0  0  0  0
  -31.3390  -18.0290   19.7640 C   0  0  0  0  0  0  0  0  0  0  0  0
  -30.1500  -18.4960   19.3250 N   0  0  0  0  0  0  0  0  0  0  0  0
  -31.6330  -16.5410   19.5580 C   0  0  0  0  0  3  0  0  0  0  0  0
  -31.2830  -16.0630   18.1120 C   0  0  1  0  0  0  0  0  0  0  0  0
  -31.9890  -15.0000   17.7310 F   0  0  0  0  0  0  0  0  0  0  0  0
  -29.9930  -15.7380   18.0120 F   0  0  0  0  0  0  0  0  0  0  0  0
  -31.5520  -17.0250   17.2270 F   0  0  0  0  0  0  0  0  0  0  0  0
  -31.3890  -16.1840   22.1250 C   0  0  0  0  0  1  0  0  0  0  0  0
  -31.1150  -15.6110   20.7150 C   0  0  0  0  0  3  0  0  0  0  0  0
  -31.7730  -14.2220   20.6040 C   0  0  0  0  0  0  0  0  0  0  0  0
  -31.4930  -11.8700   19.9620 C   0  0  0  0  0  2  0  0  0  0  0  0
  -30.6890  -11.7990   18.6460 C   0  0  0  0  0  2  0  0  0  0  0  0
  -29.1760  -11.7820   18.9320 C   0  0  0  0  0  2  0  0  0  0  0  0
  -28.7330  -12.8840   19.9310 C   0  0  0  0  0  3  0  0  0  0  0  0
  -29.6700  -12.9450   21.1570 C   0  0  0  0  0  2  0  0  0  0  0  0
  -31.0510  -13.0730   20.6760 N   0  0  0  0  0  0  0  0  0  0  0  0
  -32.9690  -14.2090   20.3090 O   0  0  0  0  0  0  0  0  0  0  0  0
  -26.3330  -13.6620   20.4280 C   0  0  0  0  0  0  0  0  0  0  0  0
  -25.1970  -12.9740   20.7520 C   0  0  0  0  0  0  0  0  0  0  0  0
  -25.5740  -11.5970   20.8270 C   0  0  0  0  0  0  0  0  0  0  0  0
  -27.3360  -12.7120   20.3250 N   0  0  0  0  0  0  0  0  0  0  0  0
  -26.8800  -11.4680   20.6250 N   0  0  0  0  0  0  0  0  0  0  0  0
  -24.7570  -10.3930   21.0240 C   0  0  0  0  0  0  0  0  0  0  0  0
  -24.9070   -9.5770   22.1670 C   0  0  0  0  0  3  0  0  0  0  0  0
  -24.0960   -8.4350   22.3440 C   0  0  0  0  0  3  0  0  0  0  0  0
  -23.1210   -8.1010   21.3730 C   0  0  0  0  0  0  0  0  0  0  0  0
  -22.9940   -8.9020   20.2250 C   0  0  0  0  0  3  0  0  0  0  0  0
  -23.8040  -10.0350   20.0490 C   0  0  0  0  0  3  0  0  0  0  0  0
  -22.3070   -6.9980   21.4490 O   0  0  0  0  0  0  0  0  0  0  0  0
  -21.7650   -6.5800   22.6390 C   0  0  0  0  0  0  0  0  0  0  0  0
  -20.8660   -7.3860   23.3700 C   0  0  0  0  0  3  0  0  0  0  0  0
  -20.2790   -6.8920   24.5510 C   0  0  0  0  0  3  0  0  0  0  0  0
  -20.5820   -5.5910   24.9980 C   0  0  0  0  0  0  0  0  0  0  0  0
  -21.4740   -4.7850   24.2690 C   0  0  0  0  0  3  0  0  0  0  0  0
  -22.0620   -5.2790   23.0900 C   0  0  0  0  0  0  0  0  0  0  0  0
  -22.9040   -4.4910   22.3800 F   0  0  0  0  0  0  0  0  0  0  0  0
  -20.0120   -5.1120   26.1290 F   0  0  0  0  0  0  0  0  0  0  0  0
  -23.8130  -13.5440   20.8930 C   0  0  0  0  0  0  0  0  0  0  0  0
  -22.9890  -12.9430   21.7430 N   0  0  0  0  0  0  0  0  0  0  0  0
  -23.4740  -14.5570   20.2840 O   0  0  0  0  0  0  0  0  0  0  0  0
  -23.2790  -12.1230   22.2550 H   0  0  0  0  0  0  0  0  0  0  0  0
  -22.0570  -13.3080   21.8850 H   0  0  0  0  0  0  0  0  0  0  0  0
  -26.5930  -15.0090   20.1880 N   0  0  0  0  0  0  0  0  0  0  0  0
  -25.8550  -15.7060   20.1950 H   0  0  0  0  0  0  0  0  0  0  0  0
  -27.4830  -15.3790   19.8860 H   0  0  0  0  0  0  0  0  0  0  0  0
  -29.8610  -22.6710   18.7870 C   0  0  0  0  0  2  0  0  0  0  0  0
  -29.9730  -24.1970   18.6080 C   0  0  0  0  0  2  0  0  0  0  0  0
  -28.8700  -24.7100   17.6780 C   0  0  0  0  0  2  0  0  0  0  0  0
  -28.8100  -26.1420   17.6570 O   0  0  0  0  0  0  0  0  0  0  0  0
  -24.8410  -29.7880   22.2760 C   0  0  0  0  0  0  0  0  0  0  0  0
  -27.5770  -26.7180   17.8950 C   0  0  0  0  0  0  0  0  0  0  0  0
  -23.6220  -28.7650   20.3860 C   0  0  0  0  0  3  0  0  0  0  0  0
  -25.0660  -27.8740   18.4890 C   0  0  0  0  0  0  0  0  0  0  0  0
  -26.0710  -29.4620   20.1350 C   0  0  0  0  0  2  0  0  0  0  0  0
  -26.2220  -28.3440   19.1240 C   0  0  0  0  0  0  0  0  0  0  0  0
  -27.4800  -27.7720   18.8290 C   0  0  0  0  0  3  0  0  0  0  0  0
  -26.3990  -26.2830   17.2370 C   0  0  0  0  0  3  0  0  0  0  0  0
  -25.1490  -26.8420   17.5430 C   0  0  0  0  0  3  0  0  0  0  0  0
  -23.7600  -28.5310   18.8590 C   0  0  0  0  0  2  0  0  0  0  0  0
  -24.8670  -29.3390   20.9900 N   0  0  0  0  0  0  0  0  0  0  0  0
  -23.7960  -29.7710   22.9410 O   0  0  0  0  0  0  0  0  0  0  0  0
  -23.1690  -27.4440   21.0510 C   0  0  0  0  0  0  0  0  0  0  0  0
  -21.8570  -27.1630   20.9850 N   0  0  0  0  0  0  0  0  0  0  0  0
  -23.9870  -26.6910   21.5860 O   0  0  0  0  0  0  0  0  0  0  0  0
  -21.2510  -27.8370   20.5400 H   0  0  0  0  0  0  0  0  0  0  0  0
  -18.6630  -25.5260   21.4020 C   0  0  0  0  0  0  0  0  0  0  0  0
  -21.2080  -25.9600   21.5090 C   0  0  0  0  0  3  0  0  0  0  0  0
  -21.3490  -24.7760   20.5270 C   0  0  0  0  0  2  0  0  0  0  0  0
  -20.1640  -24.6450   19.5640 C   0  0  0  0  0  2  0  0  0  0  0  0
  -18.8590  -24.4530   20.3430 C   0  0  0  0  0  2  0  0  0  0  0  0
  -19.7640  -26.2440   21.9370 C   0  0  0  0  0  0  0  0  0  0  0  0
  -19.5250  -27.2540   22.8940 C   0  0  0  0  0  3  0  0  0  0  0  0
  -18.2150  -27.5520   23.3160 C   0  0  0  0  0  3  0  0  0  0  0  0
  -17.1290  -26.8280   22.7940 C   0  0  0  0  0  3  0  0  0  0  0  0
  -17.3540  -25.8140   21.8450 C   0  0  0  0  0  3  0  0  0  0  0  0
  -26.1160  -30.3710   22.9630 C   0  0  0  0  0  3  0  0  0  0  0  0
  -26.8260  -29.3430   23.9270 C   0  0  1  0  0  0  0  0  0  0  0  0
  -25.8720  -28.6900   24.9530 C   0  0  0  0  0  1  0  0  0  0  0  0
  -27.4940  -28.2070   23.1180 C   0  0  0  0  0  1  0  0  0  0  0  0
  -27.9570  -30.0520   24.7080 C   0  0  0  0  0  1  0  0  0  0  0  0
  -25.7100  -31.5800   23.6940 N   0  0  0  0  0  0  0  0  0  0  0  0
  -25.9790  -32.8320   23.3000 C   0  0  0  0  0  0  0  0  0  0  0  0
  -26.6680  -33.0890   22.3080 O   0  0  0  0  0  0  0  0  0  0  0  0
  -25.0920  -31.4470   24.4800 H   0  0  0  0  0  0  0  0  0  0  0  0
  -24.1680  -34.5740   23.4230 C   0  0  0  0  0  1  0  0  0  0  0  0
  -25.3910  -33.9820   24.1410 C   0  0  0  0  0  3  0  0  0  0  0  0
  -27.4150  -34.6470   25.3600 C   0  0  0  0  0  1  0  0  0  0  0  0
  -26.3660  -35.0550   24.4310 N   0  0  0  0  0  0  0  0  0  0  0  0
  -25.8990  -35.8720   24.8150 H   0  0  0  0  0  0  0  0  0  0  0  0
  -30.5680  -22.8480   21.2630 C   0  0  0  0  0  2  0  0  0  0  0  0
  -28.0860  -22.1340   21.3770 C   0  0  0  0  0  1  0  0  0  0  0  0
  -29.4570  -22.2890   23.4490 C   0  0  0  0  0  1  0  0  0  0  0  0
  -29.2140  -22.9440   22.0650 C   0  0  1  0  0  0  0  0  0  0  0  0
  -27.2370  -24.6150   22.4740 C   0  0  0  0  0  1  0  0  0  0  0  0
  -29.4520  -25.1550   23.4330 C   0  0  0  0  0  1  0  0  0  0  0  0
  -29.0820  -25.3040   20.9700 C   0  0  0  0  0  1  0  0  0  0  0  0
  -28.7610  -24.4640   22.2330 C   0  0  1  0  0  0  0  0  0  0  0  0
  1 95  1  0
  3  2  1  0
  4  5  1  0
  5  1  1  0
  5  2  2  0
  6  3  2  0
  7  4  2  0
  7  6  1  0
  8  9  1  0
  8  6  1  0
  8 14  1  0
  9 10  1  6
 11  9  1  0
 12  9  1  0
 14 13  1  0
 15 21  1  0
 15 14  1  0
 16 21  1  0
 17 18  1  0
 17 16  1  0
 19 18  1  0
 19 26  1  0
 19 20  1  0
 21 20  1  0
 22 15  2  0
 23 24  2  0
 24 25  1  0
 24 43  1  0
 25 28  1  0
 26 23  1  0
 26 27  1  0
 27 25  2  0
 28 29  1  0
 29 30  2  0
 31 34  1  0
 31 30  1  0
 32 31  2  0
 33 32  1  0
 33 28  2  0
 34 35  1  0
 35 40  2  0
 35 36  1  0
 36 37  2  0
 37 38  1  0
 38 42  1  0
 39 38  2  0
 40 39  1  0
 41 40  1  0
 43 44  1  0
 44 47  1  0
 44 46  1  0
 45 43  2  0
 48 49  1  0
 48 23  1  0
 50 48  1  0
 51  1  1  0
 52 51  1  0
 53 52  1  0
 54 53  1  0
 54 56  1  0
 55 66  2  0
 56 61  1  0
 57 65  1  0
 57 67  1  0
 58 64  1  0
 58 60  1  0
 59 65  1  0
 60 59  1  0
 61 60  2  0
 62 63  1  0
 62 56  2  0
 63 58  2  0
 64 57  1  0
 65 55  1  0
 67 69  2  0
 68 67  1  0
 70 68  1  0
 71 80  2  0
 71 76  1  0
 72 68  1  0
 72 76  1  0
 73 72  1  0
 74 75  1  0
 74 73  1  0
 75 71  1  0
 76 77  2  0
 77 78  1  0
 79 78  2  0
 80 79  1  0
 81 55  1  0
 81 86  1  0
 81 82  1  0
 82 85  1  1
 82 83  1  0
 84 82  1  0
 86 89  1  0
 87 86  1  0
 87 91  1  0
 88 87  2  0
 91 90  1  0
 91 93  1  0
 93 94  1  0
 93 92  1  0
 95 98  1  0
 98 96  1  6
 98102  1  0
 98 97  1  0
102101  1  6
102 99  1  0
102100  1  0
M  ISO  4  14 100  15 100  53 101  54 101
M  END
>  <TORSDO>  (84) 
F 26

>  <SCORE>  (84) 
-6.871

>  <name>  (84) 
88

>  <ligand_id>  (84) 
88

>  <original_smiles>  (84) 
[H]c1nc(C([H])(C(F)(F)F)C([H])(C(=O)N2C([H])([H])C([H])([H])C([H])([H])C([H])(n3nc(-c4c([H])c([H])c(Oc5c([H])c([H])c(F)c([H])c5F)c([H])c4[H])c(C(=O)N([H])[H])c3N([H])[H])C2([H])[H])C([H])([H])[H])c([H])c([H])c1N(C([H])([H])C([H])([H])C([H])([H])Oc1c([H])c([H])c2c(c1[H])C([H])([H])N(C(=O)C([H])(N([H])C(=O)C([H])(N([H])C([H])([H])[H])C([H])([H])[H])C(C([H])([H])[H])(C([H])([H])[H])C([H])([H])[H])C([H])(C(=O)N([H])C1([H])c3c([H])c([H])c([H])c([H])c3C([H])([H])C([H])([H])C1([H])[H])C2([H])[H])C([H])([H])C(C([H])([H])[H])(C([H])([H])[H])C(C([H])([H])[H])(C([H])([H])[H])C([H])([H])[H]

>  <smiles>  (84) 
[H]c1nc(C([H])(C(F)(F)F)C([H])(C(=O)N2C([H])([H])C([H])([H])C([H])([H])C([H])(n3nc(-c4c([H])c([H])c(Oc5c([H])c([H])c(F)c([H])c5F)c([H])c4[H])c(C(=O)N([H])[H])c3N([H])[H])C2([H])[H])C([H])([H])[H])c([H])c([H])c1N(C([H])([H])C([H])([H])C([H])([H])Oc1c([H])c([H])c2c(c1[H])C([H])([H])N(C(=O)C([H])(N([H])C(=O)C([H])(N([H])C([H])([H])[H])C([H])([H])[H])C(C([H])([H])[H])(C([H])([H])[H])C([H])([H])[H])C([H])(C(=O)N([H])C1([H])c3c([H])c([H])c([H])c([H])c3C([H])([H])C([H])([H])C1([H])[H])C2([H])[H])C([H])([H])C(C([H])([H])[H])(C([H])([H])[H])C(C([H])([H])[H])(C([H])([H])[H])C([H])([H])[H]

$$$$
89:0:0
     RDKit          3D

 92100  0  0  1  0  0  0  0  0999 V2000
  -27.7670  -20.6820   20.4580 C   0  0  0  0  0  3  0  0  0  0  0  0
  -27.5860  -22.9870   20.3580 C   0  0  0  0  0  3  0  0  0  0  0  0
  -29.1370  -20.7640   20.1160 C   0  0  0  0  0  0  0  0  0  0  0  0
  -28.9500  -23.1010   19.9830 C   0  0  0  0  0  0  0  0  0  0  0  0
  -26.9940  -21.7890   20.5880 N   0  0  0  0  0  0  0  0  0  0  0  0
  -29.7230  -21.9750   19.8980 N   0  0  0  0  0  0  0  0  0  0  0  0
  -30.8040  -24.3290   18.7570 C   0  0  0  0  0  1  0  0  0  0  0  0
  -30.2610  -24.9070   21.1300 C   0  0  0  0  0  1  0  0  0  0  0  0
  -29.6520  -24.4770   19.7810 C   0  0  2  0  0  0  0  0  0  0  0  0
  -28.7020  -25.6080   19.2180 C   0  0  0  0  0  2  0  0  0  0  0  0
  -28.4760  -26.7330   20.1020 O   0  0  0  0  0  0  0  0  0  0  0  0
  -24.6470  -31.8650   23.2440 C   0  0  0  0  0  0  0  0  0  0  0  0
  -27.2910  -27.4530   20.0730 C   0  0  0  0  0  0  0  0  0  0  0  0
  -23.4370  -30.4730   21.5990 C   0  0  0  0  0  3  0  0  0  0  0  0
  -24.8870  -28.9670   20.1390 C   0  0  0  0  0  0  0  0  0  0  0  0
  -25.9630  -30.8460   21.3850 C   0  0  0  0  0  2  0  0  0  0  0  0
  -26.0500  -29.4810   20.7240 C   0  0  0  0  0  0  0  0  0  0  0  0
  -27.2490  -28.7280   20.6940 C   0  0  0  0  0  3  0  0  0  0  0  0
  -26.0980  -26.9610   19.4910 C   0  0  0  0  0  3  0  0  0  0  0  0
  -24.9070  -27.7070   19.5240 C   0  0  0  0  0  3  0  0  0  0  0  0
  -23.6380  -29.8180   20.2090 C   0  0  0  0  0  2  0  0  0  0  0  0
  -24.7010  -31.0750   22.1340 N   0  0  0  0  0  0  0  0  0  0  0  0
  -23.5690  -32.1220   23.7970 O   0  0  0  0  0  0  0  0  0  0  0  0
  -22.8050  -29.4330   22.5530 C   0  0  0  0  0  0  0  0  0  0  0  0
  -21.4830  -29.2290   22.4270 N   0  0  0  0  0  0  0  0  0  0  0  0
  -23.5000  -28.8140   23.3630 O   0  0  0  0  0  0  0  0  0  0  0  0
  -20.9810  -29.7840   21.7480 H   0  0  0  0  0  0  0  0  0  0  0  0
  -18.1330  -27.9640   22.9130 C   0  0  0  0  0  0  0  0  0  0  0  0
  -20.6840  -28.2730   23.1940 C   0  0  0  0  0  3  0  0  0  0  0  0
  -20.8180  -26.8450   22.6160 C   0  0  0  0  0  2  0  0  0  0  0  0
  -19.7250  -26.5010   21.5970 C   0  0  0  0  0  2  0  0  0  0  0  0
  -18.3390  -26.6190   22.2370 C   0  0  0  0  0  2  0  0  0  0  0  0
  -19.2350  -28.7470   23.3490 C   0  0  0  0  0  0  0  0  0  0  0  0
  -18.9900  -30.0050   23.9400 C   0  0  0  0  0  3  0  0  0  0  0  0
  -17.6740  -30.4800   24.1010 C   0  0  0  0  0  3  0  0  0  0  0  0
  -16.5870  -29.6950   23.6820 C   0  0  0  0  0  3  0  0  0  0  0  0
  -16.8180  -28.4380   23.0950 C   0  0  0  0  0  3  0  0  0  0  0  0
  -25.9340  -32.5020   23.8580 C   0  0  0  0  0  3  0  0  0  0  0  0
  -25.6190  -33.8970   24.1940 N   0  0  0  0  0  0  0  0  0  0  0  0
  -25.9380  -34.9520   23.4340 C   0  0  0  0  0  0  0  0  0  0  0  0
  -26.5990  -34.8560   22.3970 O   0  0  0  0  0  0  0  0  0  0  0  0
  -25.0290  -34.0450   25.0000 H   0  0  0  0  0  0  0  0  0  0  0  0
  -24.1930  -36.7330   23.0970 C   0  0  0  0  0  1  0  0  0  0  0  0
  -25.4450  -36.3360   23.8980 C   0  0  0  0  0  3  0  0  0  0  0  0
  -27.5810  -37.2330   24.7120 C   0  0  0  0  0  1  0  0  0  0  0  0
  -26.4690  -37.3960   23.7780 N   0  0  0  0  0  0  0  0  0  0  0  0
  -26.0580  -38.3140   23.9320 H   0  0  0  0  0  0  0  0  0  0  0  0
  -26.4660  -31.7280   25.1260 C   0  0  1  0  0  0  0  0  0  0  0  0
  -25.3850  -31.4790   26.2030 C   0  0  0  0  0  1  0  0  0  0  0  0
  -27.0550  -30.3570   24.7220 C   0  0  0  0  0  1  0  0  0  0  0  0
  -27.6180  -32.5270   25.7820 C   0  0  0  0  0  1  0  0  0  0  0  0
  -30.0350  -19.5270   19.9320 C   0  0  0  0  0  2  0  0  0  0  0  0
  -29.4800  -18.1310   20.3540 C   0  0  0  0  0  2  0  0  0  0  0  0
  -30.5220  -16.9900   20.1240 C   0  0  0  0  0  2  0  0  0  0  0  0
  -30.7940  -14.5440   20.0860 C   0  0  0  0  0  0  0  0  0  0  0  0
  -30.4060  -12.3970   18.9150 C   0  0  0  0  0  2  0  0  0  0  0  0
  -29.4070  -12.6010   17.7570 C   0  0  0  0  0  2  0  0  0  0  0  0
  -27.9560  -12.4560   18.2580 C   0  0  0  0  0  2  0  0  0  0  0  0
  -27.6830  -13.2750   19.5470 C   0  0  0  0  0  3  0  0  0  0  0  0
  -28.7920  -13.0410   20.5900 C   0  0  0  0  0  2  0  0  0  0  0  0
  -30.0830  -13.3800   19.9680 N   0  0  0  0  0  0  0  0  0  0  0  0
  -31.8740  -14.6920   19.5000 O   0  0  0  0  0  0  0  0  0  0  0  0
  -29.9190  -15.6520   22.0850 C   0  0  0  0  0  1  0  0  0  0  0  0
  -30.1760  -15.6330   20.6390 N   0  0  0  0  0  0  0  0  0  0  0  0
  -25.3280  -13.8620   20.3980 C   0  0  0  0  0  0  0  0  0  0  0  0
  -24.2830  -13.0820   20.8150 C   0  0  0  0  0  0  0  0  0  0  0  0
  -24.7450  -11.7320   20.7390 C   0  0  0  0  0  0  0  0  0  0  0  0
  -26.3590  -12.9880   20.0970 N   0  0  0  0  0  0  0  0  0  0  0  0
  -26.0160  -11.7000   20.3580 N   0  0  0  0  0  0  0  0  0  0  0  0
  -24.0340  -10.4660   20.9550 C   0  0  0  0  0  0  0  0  0  0  0  0
  -24.4890   -9.5120   21.8920 C   0  0  0  0  0  3  0  0  0  0  0  0
  -23.7770   -8.3110   22.0940 C   0  0  0  0  0  3  0  0  0  0  0  0
  -22.5970   -8.0530   21.3580 C   0  0  0  0  0  0  0  0  0  0  0  0
  -22.1610   -8.9940   20.4090 C   0  0  0  0  0  3  0  0  0  0  0  0
  -22.8730  -10.1880   20.2070 C   0  0  0  0  0  3  0  0  0  0  0  0
  -21.8560   -6.9000   21.4660 O   0  0  0  0  0  0  0  0  0  0  0  0
  -21.7900   -6.1940   22.6410 C   0  0  0  0  0  0  0  0  0  0  0  0
  -21.3360   -6.7860   23.8390 C   0  0  0  0  0  3  0  0  0  0  0  0
  -21.2160   -6.0080   25.0070 C   0  0  0  0  0  3  0  0  0  0  0  0
  -21.5400   -4.6380   24.9780 C   0  0  0  0  0  0  0  0  0  0  0  0
  -21.9870   -4.0450   23.7850 C   0  0  0  0  0  3  0  0  0  0  0  0
  -22.1080   -4.8210   22.6190 C   0  0  0  0  0  0  0  0  0  0  0  0
  -22.5190   -4.2400   21.4660 F   0  0  0  0  0  0  0  0  0  0  0  0
  -21.4190   -3.8890   26.0990 F   0  0  0  0  0  0  0  0  0  0  0  0
  -22.9020  -13.5510   21.1710 C   0  0  0  0  0  0  0  0  0  0  0  0
  -22.2300  -12.8480   22.0750 N   0  0  0  0  0  0  0  0  0  0  0  0
  -22.4280  -14.5760   20.6810 O   0  0  0  0  0  0  0  0  0  0  0  0
  -22.6270  -12.0200   22.4950 H   0  0  0  0  0  0  0  0  0  0  0  0
  -21.3050  -13.1440   22.3550 H   0  0  0  0  0  0  0  0  0  0  0  0
  -25.4810  -15.2360   20.2310 N   0  0  0  0  0  0  0  0  0  0  0  0
  -24.7250  -15.8920   20.3990 H   0  0  0  0  0  0  0  0  0  0  0  0
  -26.3210  -15.6790   19.8820 H   0  0  0  0  0  0  0  0  0  0  0  0
  1  5  1  0
  2  5  2  0
  3  1  2  0
  4  2  1  0
  6  4  2  0
  6  3  1  0
  9  7  1  6
  9  4  1  0
  9  8  1  0
 10  9  1  0
 10 11  1  0
 12 23  2  0
 13 11  1  0
 13 18  1  0
 14 22  1  0
 14 24  1  0
 15 21  1  0
 15 17  1  0
 16 22  1  0
 17 16  1  0
 18 17  2  0
 19 20  1  0
 19 13  2  0
 20 15  2  0
 21 14  1  0
 22 12  1  0
 24 26  2  0
 25 24  1  0
 27 25  1  0
 28 37  2  0
 28 33  1  0
 29 25  1  0
 29 33  1  0
 30 29  1  0
 31 32  1  0
 31 30  1  0
 32 28  1  0
 33 34  2  0
 34 35  1  0
 36 35  2  0
 37 36  1  0
 38 12  1  0
 38 39  1  0
 38 48  1  0
 39 42  1  0
 40 44  1  0
 40 39  1  0
 41 40  2  0
 44 43  1  0
 46 44  1  0
 46 47  1  0
 46 45  1  0
 48 51  1  1
 48 49  1  0
 50 48  1  0
 52  3  1  0
 52 53  1  0
 54 53  1  0
 54 64  1  0
 55 64  1  0
 56 61  1  0
 57 58  1  0
 57 56  1  0
 59 58  1  0
 59 68  1  0
 59 60  1  0
 61 55  1  0
 61 60  1  0
 62 55  2  0
 64 63  1  0
 65 66  2  0
 66 85  1  0
 67 66  1  0
 67 70  1  0
 68 69  1  0
 68 65  1  0
 69 67  2  0
 70 71  1  0
 71 72  2  0
 73 76  1  0
 73 72  1  0
 74 73  2  0
 75 74  1  0
 75 70  2  0
 76 77  1  0
 77 78  1  0
 78 79  2  0
 80 79  1  0
 80 84  1  0
 81 80  2  0
 82 77  2  0
 82 81  1  0
 83 82  1  0
 85 86  1  0
 86 89  1  0
 86 88  1  0
 87 85  2  0
 90 65  1  0
 90 91  1  0
 92 90  1  0
M  ISO  4  10 101  11 101  55 100  64 100
M  END
>  <TORSDO>  (85) 
F 21

>  <SCORE>  (85) 
-12.344

>  <name>  (85) 
89

>  <ligand_id>  (85) 
89

>  <original_smiles>  (85) 
[H]c1nc([H])c(C(C([H])([H])[H])(C([H])([H])[H])C([H])([H])Oc2c([H])c([H])c3c(c2[H])C([H])([H])N(C(=O)C([H])(N([H])C(=O)C([H])(N([H])C([H])([H])[H])C([H])([H])[H])C(C([H])([H])[H])(C([H])([H])[H])C([H])([H])[H])C([H])(C(=O)N([H])C2([H])c4c([H])c([H])c([H])c([H])c4C([H])([H])C([H])([H])C2([H])[H])C3([H])[H])nc1C([H])([H])C([H])([H])C([H])([H])N(C(=O)N1C([H])([H])C([H])([H])C([H])([H])C([H])(n2nc(-c3c([H])c([H])c(Oc4c([H])c([H])c(F)c([H])c4F)c([H])c3[H])c(C(=O)N([H])[H])c2N([H])[H])C1([H])[H])C([H])([H])[H]

>  <smiles>  (85) 
[H]c1nc([H])c(C(C([H])([H])[H])(C([H])([H])[H])C([H])([H])Oc2c([H])c([H])c3c(c2[H])C([H])([H])N(C(=O)C([H])(N([H])C(=O)C([H])(N([H])C([H])([H])[H])C([H])([H])[H])C(C([H])([H])[H])(C([H])([H])[H])C([H])([H])[H])C([H])(C(=O)N([H])C2([H])c4c([H])c([H])c([H])c([H])c4C([H])([H])C([H])([H])C2([H])[H])C3([H])[H])nc1C([H])([H])C([H])([H])C([H])([H])N(C(=O)N1C([H])([H])C([H])([H])C([H])([H])C([H])(n2nc(-c3c([H])c([H])c(Oc4c([H])c([H])c(F)c([H])c4F)c([H])c3[H])c(C(=O)N([H])[H])c2N([H])[H])C1([H])[H])C([H])([H])[H]

$$$$
90:0:0
     RDKit          3D

101109  0  0  1  0  0  0  0  0999 V2000
  -29.2830  -19.7880   20.7270 C   0  0  0  0  0  3  0  0  0  0  0  0
  -30.0250  -18.7270   20.1910 C   0  0  0  0  0  0  0  0  0  0  0  0
  -29.8980  -20.4900   18.7390 C   0  0  0  0  0  3  0  0  0  0  0  0
  -29.2080  -20.9090   19.8520 N   0  0  0  0  0  0  0  0  0  0  0  0
  -30.3210  -19.2170   18.9600 N   0  0  0  0  0  0  0  0  0  0  0  0
  -30.8380  -18.6830   18.2730 H   0  0  0  0  0  0  0  0  0  0  0  0
  -29.9640  -22.5380   17.1190 C   0  0  0  0  0  1  0  0  0  0  0  0
  -29.3260  -20.2920   16.3330 C   0  0  0  0  0  1  0  0  0  0  0  0
  -31.7110  -20.8000   17.0470 C   0  0  0  0  0  1  0  0  0  0  0  0
  -30.2080  -21.0460   17.3500 C   0  0  2  0  0  0  0  0  0  0  0  0
  -30.1210  -17.3010   22.2320 C   0  0  0  0  0  1  0  0  0  0  0  0
  -32.1760  -17.6650   20.8430 C   0  0  0  0  0  1  0  0  0  0  0  0
  -30.6600  -17.3940   20.7860 C   0  0  2  0  0  0  0  0  0  0  0  0
  -31.2010  -14.8930   19.8610 C   0  0  0  0  0  0  0  0  0  0  0  0
  -30.9950  -12.5500   18.9420 C   0  0  0  0  0  2  0  0  0  0  0  0
  -29.9950  -12.5390   17.7590 C   0  0  0  0  0  2  0  0  0  0  0  0
  -28.5540  -12.3810   18.2840 C   0  0  0  0  0  2  0  0  0  0  0  0
  -28.2310  -13.3860   19.4210 C   0  0  0  0  0  3  0  0  0  0  0  0
  -29.3300  -13.3210   20.5030 C   0  0  0  0  0  2  0  0  0  0  0  0
  -30.5920  -13.6590   19.8430 N   0  0  0  0  0  0  0  0  0  0  0  0
  -32.3650  -14.9980   19.4630 O   0  0  0  0  0  0  0  0  0  0  0  0
  -30.4100  -15.9900   20.2070 N   0  0  0  0  0  0  0  0  0  0  0  0
  -29.4580  -15.7060   20.3890 H   0  0  0  0  0  0  0  0  0  0  0  0
  -25.9370  -14.1040   20.3350 C   0  0  0  0  0  0  0  0  0  0  0  0
  -24.8530  -13.3820   20.7460 C   0  0  0  0  0  0  0  0  0  0  0  0
  -25.2230  -12.0070   20.6190 C   0  0  0  0  0  0  0  0  0  0  0  0
  -26.9030  -13.1720   19.9820 N   0  0  0  0  0  0  0  0  0  0  0  0
  -26.4830  -11.9050   20.2230 N   0  0  0  0  0  0  0  0  0  0  0  0
  -24.4310  -10.7840   20.8040 C   0  0  0  0  0  0  0  0  0  0  0  0
  -24.7800   -9.8210   21.7800 C   0  0  0  0  0  3  0  0  0  0  0  0
  -23.9910   -8.6620   21.9470 C   0  0  0  0  0  3  0  0  0  0  0  0
  -22.8440   -8.4580   21.1420 C   0  0  0  0  0  0  0  0  0  0  0  0
  -22.5200   -9.4070   20.1570 C   0  0  0  0  0  3  0  0  0  0  0  0
  -23.3070  -10.5580   19.9860 C   0  0  0  0  0  3  0  0  0  0  0  0
  -22.0380   -7.3500   21.2190 O   0  0  0  0  0  0  0  0  0  0  0  0
  -21.7870   -6.7260   22.4180 C   0  0  0  0  0  0  0  0  0  0  0  0
  -21.1590   -7.3950   23.4910 C   0  0  0  0  0  3  0  0  0  0  0  0
  -20.8530   -6.6960   24.6760 C   0  0  0  0  0  3  0  0  0  0  0  0
  -21.1730   -5.3280   24.7910 C   0  0  0  0  0  0  0  0  0  0  0  0
  -21.7940   -4.6600   23.7220 C   0  0  0  0  0  3  0  0  0  0  0  0
  -22.0970   -5.3560   22.5370 C   0  0  0  0  0  0  0  0  0  0  0  0
  -22.6710   -4.7000   21.4990 F   0  0  0  0  0  0  0  0  0  0  0  0
  -20.8780   -4.6530   25.9270 F   0  0  0  0  0  0  0  0  0  0  0  0
  -23.5110  -13.9270   21.1370 C   0  0  0  0  0  0  0  0  0  0  0  0
  -22.8050  -13.2500   22.0360 N   0  0  0  0  0  0  0  0  0  0  0  0
  -23.0990  -14.9910   20.6730 O   0  0  0  0  0  0  0  0  0  0  0  0
  -23.1540  -12.3920   22.4360 H   0  0  0  0  0  0  0  0  0  0  0  0
  -21.9050  -13.5990   22.3350 H   0  0  0  0  0  0  0  0  0  0  0  0
  -26.1680  -15.4740   20.2120 N   0  0  0  0  0  0  0  0  0  0  0  0
  -25.4580  -16.1440   20.4860 H   0  0  0  0  0  0  0  0  0  0  0  0
  -26.9640  -15.9030   19.7590 H   0  0  0  0  0  0  0  0  0  0  0  0
  -27.0570  -22.0770   19.2620 C   0  0  0  0  0  1  0  0  0  0  0  0
  -27.8260  -22.1140   21.5960 C   0  0  0  0  0  1  0  0  0  0  0  0
  -28.3250  -22.2200   20.1320 C   0  0  1  0  0  0  0  0  0  0  0  0
  -28.8640  -23.7820   19.9020 C   0  0  0  0  0  2  0  0  0  0  0  0
  -28.2020  -25.1620   20.5310 C   0  0  0  0  0  3  0  0  0  0  0  0
  -29.5330  -24.4950   22.7210 C   0  0  0  0  0  1  0  0  0  0  0  0
  -27.7950  -26.2020   22.8520 C   0  0  0  0  0  1  0  0  0  0  0  0
  -29.9680  -26.6670   21.6620 C   0  0  0  0  0  1  0  0  0  0  0  0
  -28.8620  -25.6140   21.9030 C   0  0  2  0  0  0  0  0  0  0  0  0
  -28.2140  -26.4360   19.7100 O   0  0  0  0  0  0  0  0  0  0  0  0
  -24.6490  -31.7720   23.1090 C   0  0  0  0  0  0  0  0  0  0  0  0
  -27.1240  -27.3340   19.7600 C   0  0  0  0  0  0  0  0  0  0  0  0
  -23.3830  -30.4540   21.4510 C   0  0  0  0  0  3  0  0  0  0  0  0
  -24.7740  -28.9770   19.8910 C   0  0  0  0  0  0  0  0  0  0  0  0
  -25.9160  -30.7810   21.1830 C   0  0  0  0  0  2  0  0  0  0  0  0
  -25.9700  -29.4390   20.4540 C   0  0  0  0  0  0  0  0  0  0  0  0
  -27.1530  -28.6420   20.3510 C   0  0  0  0  0  3  0  0  0  0  0  0
  -25.9080  -26.9320   19.1730 C   0  0  0  0  0  3  0  0  0  0  0  0
  -24.7490  -27.7360   19.2290 C   0  0  0  0  0  3  0  0  0  0  0  0
  -23.5390  -29.8450   20.0340 C   0  0  0  0  0  2  0  0  0  0  0  0
  -24.6710  -31.0180   21.9680 N   0  0  0  0  0  0  0  0  0  0  0  0
  -23.5860  -32.0240   23.6990 O   0  0  0  0  0  0  0  0  0  0  0  0
  -22.7590  -29.3910   22.3890 C   0  0  0  0  0  0  0  0  0  0  0  0
  -21.4330  -29.1910   22.2800 N   0  0  0  0  0  0  0  0  0  0  0  0
  -23.4630  -28.7520   23.1770 O   0  0  0  0  0  0  0  0  0  0  0  0
  -20.9220  -29.7580   21.6190 H   0  0  0  0  0  0  0  0  0  0  0  0
  -18.0940  -27.8820   22.7750 C   0  0  0  0  0  0  0  0  0  0  0  0
  -20.6470  -28.2100   23.0320 C   0  0  0  0  0  3  0  0  0  0  0  0
  -20.7860  -26.7980   22.4180 C   0  0  0  0  0  2  0  0  0  0  0  0
  -19.6860  -26.4690   21.4050 C   0  0  0  0  0  2  0  0  0  0  0  0
  -18.3050  -26.5560   22.0620 C   0  0  0  0  0  2  0  0  0  0  0  0
  -19.1930  -28.6660   23.2160 C   0  0  0  0  0  0  0  0  0  0  0  0
  -18.9420  -29.9050   23.8430 C   0  0  0  0  0  3  0  0  0  0  0  0
  -17.6230  -30.3610   24.0310 C   0  0  0  0  0  3  0  0  0  0  0  0
  -16.5390  -29.5730   23.6080 C   0  0  0  0  0  3  0  0  0  0  0  0
  -16.7750  -28.3350   22.9850 C   0  0  0  0  0  3  0  0  0  0  0  0
  -25.9540  -32.3800   23.7120 C   0  0  0  0  0  3  0  0  0  0  0  0
  -25.6550  -33.7590   24.1280 N   0  0  0  0  0  0  0  0  0  0  0  0
  -25.9620  -34.8520   23.4170 C   0  0  0  0  0  0  0  0  0  0  0  0
  -26.5970  -34.8050   22.3600 O   0  0  0  0  0  0  0  0  0  0  0  0
  -25.0910  -33.8690   24.9580 H   0  0  0  0  0  0  0  0  0  0  0  0
  -24.2320  -36.6650   23.2130 C   0  0  0  0  0  1  0  0  0  0  0  0
  -25.4930  -36.2130   23.9680 C   0  0  0  0  0  3  0  0  0  0  0  0
  -27.6470  -37.0460   24.8010 C   0  0  0  0  0  1  0  0  0  0  0  0
  -26.5260  -37.2680   23.8900 N   0  0  0  0  0  0  0  0  0  0  0  0
  -26.1270  -38.1800   24.0930 H   0  0  0  0  0  0  0  0  0  0  0  0
  -26.5230  -31.5470   24.9260 C   0  0  1  0  0  0  0  0  0  0  0  0
  -25.4710  -31.2330   26.0150 C   0  0  0  0  0  1  0  0  0  0  0  0
  -27.1140  -30.2020   24.4440 C   0  0  0  0  0  1  0  0  0  0  0  0
  -27.6840  -32.3220   25.5920 C   0  0  0  0  0  1  0  0  0  0  0  0
  2  1  2  0
  2 13  1  0
  3 10  1  0
  3  5  1  0
  3  4  1  0
  4 54  1  0
  4  1  1  0
  5  2  1  0
  6  5  1  0
 10  7  1  1
  8 10  1  0
  9 10  1  0
 13 12  1  1
 13 11  1  0
 14 22  1  0
 15 20  1  0
 16 17  1  0
 16 15  1  0
 18 17  1  0
 18 27  1  0
 18 19  1  0
 20 14  1  0
 20 19  1  0
 21 14  2  0
 22 23  1  0
 22 13  1  0
 24 25  2  0
 25 44  1  0
 26 25  1  0
 26 29  1  0
 27 28  1  0
 27 24  1  0
 28 26  2  0
 29 30  1  0
 30 31  2  0
 32 35  1  0
 32 31  1  0
 33 32  2  0
 34 33  1  0
 34 29  2  0
 35 36  1  0
 36 41  2  0
 36 37  1  0
 37 38  2  0
 38 39  1  0
 39 43  1  0
 40 39  2  0
 41 40  1  0
 42 41  1  0
 44 45  1  0
 45 48  1  0
 45 47  1  0
 46 44  2  0
 49 24  1  0
 49 50  1  0
 51 49  1  0
 54 52  1  6
 54 53  1  0
 55 54  1  0
 56 55  1  0
 56 60  1  0
 60 59  1  6
 60 57  1  0
 60 58  1  0
 61 63  1  0
 61 56  1  0
 62 73  2  0
 63 68  1  0
 64 72  1  0
 64 74  1  0
 65 71  1  0
 65 67  1  0
 66 72  1  0
 67 66  1  0
 68 67  2  0
 69 70  1  0
 69 63  2  0
 70 65  2  0
 71 64  1  0
 72 62  1  0
 74 76  2  0
 75 74  1  0
 77 75  1  0
 78 87  2  0
 78 83  1  0
 79 75  1  0
 79 83  1  0
 80 79  1  0
 81 82  1  0
 81 80  1  0
 82 78  1  0
 83 84  2  0
 84 85  1  0
 86 85  2  0
 87 86  1  0
 88 62  1  0
 88 89  1  0
 88 98  1  0
 89 92  1  0
 90 94  1  0
 90 89  1  0
 91 90  2  0
 94 93  1  0
 96 94  1  0
 96 97  1  0
 96 95  1  0
 98101  1  1
 98 99  1  0
100 98  1  0
M  ISO  4  14 100  22 100  56 101  61 101
M  END
>  <TORSDO>  (86) 
F 22

>  <SCORE>  (86) 
-12.584

>  <name>  (86) 
90

>  <ligand_id>  (86) 
90

>  <original_smiles>  (86) 
[H]c1c([H])c([H])c2c(c1[H])C([H])([H])C([H])([H])C([H])([H])C2([H])N([H])C(=O)C1([H])N(C(=O)C([H])(N([H])C(=O)C([H])(N([H])C([H])([H])[H])C([H])([H])[H])C(C([H])([H])[H])(C([H])([H])[H])C([H])([H])[H])C([H])([H])c2c([H])c(OC([H])(C([H])([H])C(n3c([H])c(C(N([H])C(=O)N4C([H])([H])C([H])([H])C([H])([H])C([H])(n5nc(-c6c([H])c([H])c(Oc7c([H])c([H])c(F)c([H])c7F)c([H])c6[H])c(C(=O)N([H])[H])c5N([H])[H])C4([H])[H])(C([H])([H])[H])C([H])([H])[H])[n+]([H])c3C(C([H])([H])[H])(C([H])([H])[H])C([H])([H])[H])(C([H])([H])[H])C([H])([H])[H])C(C([H])([H])[H])(C([H])([H])[H])C([H])([H])[H])c([H])c([H])c2C1([H])[H]

>  <smiles>  (86) 
[H]c1c([H])c([H])c2c(c1[H])C([H])([H])C([H])([H])C([H])([H])C2([H])N([H])C(=O)C1([H])N(C(=O)C([H])(N([H])C(=O)C([H])(N([H])C([H])([H])[H])C([H])([H])[H])C(C([H])([H])[H])(C([H])([H])[H])C([H])([H])[H])C([H])([H])c2c([H])c(OC([H])(C([H])([H])C(n3c([H])c(C(N([H])C(=O)N4C([H])([H])C([H])([H])C([H])([H])C([H])(n5nc(-c6c([H])c([H])c(Oc7c([H])c([H])c(F)c([H])c7F)c([H])c6[H])c(C(=O)N([H])[H])c5N([H])[H])C4([H])[H])(C([H])([H])[H])C([H])([H])[H])[n+]([H])c3C(C([H])([H])[H])(C([H])([H])[H])C([H])([H])[H])(C([H])([H])[H])C([H])([H])[H])C(C([H])([H])[H])(C([H])([H])[H])C([H])([H])[H])c([H])c([H])c2C1([H])[H]

$$$$
91:0:0
     RDKit          3D

108116  0  0  1  0  0  0  0  0999 V2000
  -28.6290  -20.6500   22.1580 C   0  0  0  0  0  2  0  0  0  0  0  0
  -29.8830  -20.3750   21.6590 C   0  0  0  0  0  3  0  0  0  0  0  0
  -28.5380  -20.6720   19.9500 C   0  0  0  0  0  3  0  0  0  0  0  0
  -29.6130  -19.9090   20.3580 N   0  0  0  0  0  0  0  0  0  0  0  0
  -27.8560  -20.8990   21.0730 N   0  0  0  0  0  0  0  0  0  0  0  0
  -26.9390  -21.3310   21.1020 H   0  0  0  0  0  0  0  0  0  0  0  0
  -26.5440  -21.5220   18.6380 C   0  0  0  0  0  1  0  0  0  0  0  0
  -28.0870  -21.4070   18.6530 C   0  0  2  0  0  0  0  0  0  0  0  0
  -27.8620  -19.2220   17.2050 C   0  0  0  0  0  1  0  0  0  0  0  0
  -28.4700  -20.6280   17.3640 C   0  0  0  0  0  2  0  0  0  0  0  0
  -28.6850  -22.8980   18.5290 C   0  0  0  0  0  2  0  0  0  0  0  0
  -28.0450  -24.2150   19.1780 C   0  0  0  0  0  2  0  0  0  0  0  0
  -28.5180  -25.5820   18.5110 C   0  0  0  0  0  2  0  0  0  0  0  0
  -28.4140  -26.8920   19.1760 O   0  0  0  0  0  0  0  0  0  0  0  0
  -24.5780  -31.5410   23.0670 C   0  0  0  0  0  0  0  0  0  0  0  0
  -27.2300  -27.6260   19.2730 C   0  0  0  0  0  0  0  0  0  0  0  0
  -23.3460  -30.2990   21.3240 C   0  0  0  0  0  3  0  0  0  0  0  0
  -24.7800  -29.0480   19.6120 C   0  0  0  0  0  0  0  0  0  0  0  0
  -25.8410  -30.8070   21.0330 C   0  0  0  0  0  2  0  0  0  0  0  0
  -25.9500  -29.5340   20.2060 C   0  0  0  0  0  0  0  0  0  0  0  0
  -27.1750  -28.8350   20.0320 C   0  0  0  0  0  3  0  0  0  0  0  0
  -26.0380  -27.1800   18.6630 C   0  0  0  0  0  3  0  0  0  0  0  0
  -24.8250  -27.8770   18.8330 C   0  0  0  0  0  3  0  0  0  0  0  0
  -23.5030  -29.8220   19.8540 C   0  0  0  0  0  2  0  0  0  0  0  0
  -24.6110  -30.8940   21.8660 N   0  0  0  0  0  0  0  0  0  0  0  0
  -23.5210  -31.6710   23.6980 O   0  0  0  0  0  0  0  0  0  0  0  0
  -22.8110  -29.1250   22.1750 C   0  0  0  0  0  0  0  0  0  0  0  0
  -21.5160  -28.8030   22.0070 N   0  0  0  0  0  0  0  0  0  0  0  0
  -23.5580  -28.5140   22.9420 O   0  0  0  0  0  0  0  0  0  0  0  0
  -20.9710  -29.3640   21.3680 H   0  0  0  0  0  0  0  0  0  0  0  0
  -18.3500  -27.0780   22.2370 C   0  0  0  0  0  0  0  0  0  0  0  0
  -20.8180  -27.7060   22.6770 C   0  0  0  0  0  3  0  0  0  0  0  0
  -21.1710  -26.3470   22.0310 C   0  0  0  0  0  2  0  0  0  0  0  0
  -20.1880  -25.9260   20.9350 C   0  0  0  0  0  2  0  0  0  0  0  0
  -18.7700  -25.8180   21.5010 C   0  0  0  0  0  2  0  0  0  0  0  0
  -19.3120  -27.9730   22.7770 C   0  0  0  0  0  0  0  0  0  0  0  0
  -18.8690  -29.1470   23.4230 C   0  0  0  0  0  3  0  0  0  0  0  0
  -17.4950  -29.4340   23.5340 C   0  0  0  0  0  3  0  0  0  0  0  0
  -16.5470  -28.5370   23.0120 C   0  0  0  0  0  3  0  0  0  0  0  0
  -16.9730  -27.3610   22.3700 C   0  0  0  0  0  3  0  0  0  0  0  0
  -25.8630  -32.1720   23.6890 C   0  0  0  0  0  3  0  0  0  0  0  0
  -26.4310  -31.3490   24.9090 C   0  0  1  0  0  0  0  0  0  0  0  0
  -25.3740  -31.0060   25.9820 C   0  0  0  0  0  1  0  0  0  0  0  0
  -27.0550  -30.0200   24.4310 C   0  0  0  0  0  1  0  0  0  0  0  0
  -27.5720  -32.1430   25.5850 C   0  0  0  0  0  1  0  0  0  0  0  0
  -25.5300  -33.5430   24.1050 N   0  0  0  0  0  0  0  0  0  0  0  0
  -25.8300  -34.6410   23.4010 C   0  0  0  0  0  0  0  0  0  0  0  0
  -26.4900  -34.6080   22.3590 O   0  0  0  0  0  0  0  0  0  0  0  0
  -24.9380  -33.6300   24.9170 H   0  0  0  0  0  0  0  0  0  0  0  0
  -24.0670  -36.4200   23.1660 C   0  0  0  0  0  1  0  0  0  0  0  0
  -25.3200  -35.9910   23.9440 C   0  0  0  0  0  3  0  0  0  0  0  0
  -27.4470  -36.8730   24.8020 C   0  0  0  0  0  1  0  0  0  0  0  0
  -26.3340  -37.0650   23.8770 N   0  0  0  0  0  0  0  0  0  0  0  0
  -25.9170  -37.9700   24.0700 H   0  0  0  0  0  0  0  0  0  0  0  0
  -30.3180  -18.7830   19.5660 C   0  0  0  0  0  2  0  0  0  0  0  0
  -29.7960  -17.2720   19.7840 C   0  0  0  0  0  2  0  0  0  0  0  0
  -31.2320  -15.0890   19.7370 C   0  0  0  0  0  0  0  0  0  0  0  0
  -30.9580  -12.7250   18.9830 C   0  0  0  0  0  2  0  0  0  0  0  0
  -29.9570  -12.6610   17.8110 C   0  0  0  0  0  2  0  0  0  0  0  0
  -28.5160  -12.5460   18.3400 C   0  0  0  0  0  2  0  0  0  0  0  0
  -28.2080  -13.5790   19.4590 C   0  0  0  0  0  3  0  0  0  0  0  0
  -29.3220  -13.6160   20.5260 C   0  0  0  0  0  2  0  0  0  0  0  0
  -30.5950  -13.8780   19.8370 N   0  0  0  0  0  0  0  0  0  0  0  0
  -32.2950  -15.1910   19.1170 O   0  0  0  0  0  0  0  0  0  0  0  0
  -31.2350  -16.5080   21.6780 C   0  0  0  0  0  1  0  0  0  0  0  0
  -30.6860  -16.1880   20.3640 N   0  0  0  0  0  0  0  0  0  0  0  0
  -25.9490  -14.2830   20.4540 C   0  0  0  0  0  0  0  0  0  0  0  0
  -24.8650  -13.5560   20.8690 C   0  0  0  0  0  0  0  0  0  0  0  0
  -25.2140  -12.1840   20.6860 C   0  0  0  0  0  0  0  0  0  0  0  0
  -26.8940  -13.3530   20.0470 N   0  0  0  0  0  0  0  0  0  0  0  0
  -26.4600  -12.0800   20.2440 N   0  0  0  0  0  0  0  0  0  0  0  0
  -24.4120  -10.9650   20.8490 C   0  0  0  0  0  0  0  0  0  0  0  0
  -24.8040   -9.9320   21.7280 C   0  0  0  0  0  3  0  0  0  0  0  0
  -24.0040   -8.7780   21.8840 C   0  0  0  0  0  3  0  0  0  0  0  0
  -22.7970   -8.6520   21.1580 C   0  0  0  0  0  0  0  0  0  0  0  0
  -22.4200   -9.6720   20.2680 C   0  0  0  0  0  3  0  0  0  0  0  0
  -23.2200  -10.8160   20.1100 C   0  0  0  0  0  3  0  0  0  0  0  0
  -21.9690   -7.5550   21.2270 O   0  0  0  0  0  0  0  0  0  0  0  0
  -21.8200   -6.8350   22.3840 C   0  0  0  0  0  0  0  0  0  0  0  0
  -21.3670   -7.4320   23.5810 C   0  0  0  0  0  3  0  0  0  0  0  0
  -21.1650   -6.6410   24.7290 C   0  0  0  0  0  3  0  0  0  0  0  0
  -21.4040   -5.2530   24.6810 C   0  0  0  0  0  0  0  0  0  0  0  0
  -21.8500   -4.6570   23.4880 C   0  0  0  0  0  3  0  0  0  0  0  0
  -22.0540   -5.4460   22.3430 C   0  0  0  0  0  0  0  0  0  0  0  0
  -22.4640   -4.8610   21.1910 F   0  0  0  0  0  0  0  0  0  0  0  0
  -21.2020   -4.4920   25.7820 F   0  0  0  0  0  0  0  0  0  0  0  0
  -23.5420  -14.1060   21.3170 C   0  0  0  0  0  0  0  0  0  0  0  0
  -22.8660  -13.4090   22.2250 N   0  0  0  0  0  0  0  0  0  0  0  0
  -23.1250  -15.1870   20.9050 O   0  0  0  0  0  0  0  0  0  0  0  0
  -23.2190  -12.5310   22.5800 H   0  0  0  0  0  0  0  0  0  0  0  0
  -21.9800  -13.7550   22.5660 H   0  0  0  0  0  0  0  0  0  0  0  0
  -26.2040  -15.6480   20.3630 N   0  0  0  0  0  0  0  0  0  0  0  0
  -25.5010  -16.3450   20.5840 H   0  0  0  0  0  0  0  0  0  0  0  0
  -27.0470  -16.0440   19.9720 H   0  0  0  0  0  0  0  0  0  0  0  0
  -31.2120  -20.7880   22.3440 C   0  0  2  0  0  0  0  0  0  0  0  0
  -31.3940  -19.9740   23.6730 C   0  0  2  0  0  0  0  0  0  0  0  0
  -31.5070  -18.6690   23.4270 F   0  0  0  0  0  0  0  0  0  0  0  0
  -30.3550  -20.1300   24.4930 F   0  0  0  0  0  0  0  0  0  0  0  0
  -32.4750  -20.3520   24.3510 F   0  0  0  0  0  0  0  0  0  0  0  0
  -31.0370  -22.3120   22.7230 C   0  0  1  0  0  0  0  0  0  0  0  0
  -32.0440  -22.7860   23.4540 F   0  0  0  0  0  0  0  0  0  0  0  0
  -30.9360  -23.0600   21.6220 F   0  0  0  0  0  0  0  0  0  0  0  0
  -29.9360  -22.5550   23.4380 F   0  0  0  0  0  0  0  0  0  0  0  0
  -32.4650  -20.6480   21.3990 C   0  0  2  0  0  0  0  0  0  0  0  0
  -32.2070  -21.2540   20.2360 F   0  0  0  0  0  0  0  0  0  0  0  0
  -32.6960  -19.3500   21.2060 F   0  0  0  0  0  0  0  0  0  0  0  0
  -33.8180  -21.2620   21.8360 C   0  0  0  0  0  2  0  0  0  0  0  0
  -34.7630  -20.9140   20.9610 F   0  0  0  0  0  0  0  0  0  0  0  0
  2  1  1  0
 95  2  1  6
  3  8  1  0
  3  4  1  0
  3  5  1  0
  4  2  1  0
  5  6  1  0
  5  1  1  0
  8  7  1  1
  9 10  1  0
 10  8  1  0
 11  8  1  0
 11 12  1  0
 13 14  1  0
 13 12  1  0
 14 16  1  0
 15 26  2  0
 16 21  1  0
 17 25  1  0
 17 27  1  0
 18 24  1  0
 18 20  1  0
 19 25  1  0
 20 19  1  0
 21 20  2  0
 22 23  1  0
 22 16  2  0
 23 18  2  0
 24 17  1  0
 25 15  1  0
 27 29  2  0
 28 27  1  0
 30 28  1  0
 31 40  2  0
 31 36  1  0
 32 28  1  0
 32 36  1  0
 33 32  1  0
 34 35  1  0
 34 33  1  0
 35 31  1  0
 36 37  2  0
 37 38  1  0
 39 38  2  0
 40 39  1  0
 41 15  1  0
 41 46  1  0
 41 42  1  0
 42 45  1  1
 42 43  1  0
 44 42  1  0
 46 49  1  0
 47 51  1  0
 47 46  1  0
 48 47  2  0
 51 50  1  0
 53 51  1  0
 53 54  1  0
 53 52  1  0
 55 56  1  0
 55  4  1  0
 56 66  1  0
 57 63  1  0
 57 66  1  0
 58 63  1  0
 59 60  1  0
 59 58  1  0
 61 60  1  0
 61 70  1  0
 61 62  1  0
 63 62  1  0
 64 57  2  0
 66 65  1  0
 67 68  2  0
 68 87  1  0
 69 72  1  0
 69 68  1  0
 70 71  1  0
 70 67  1  0
 71 69  2  0
 72 73  1  0
 73 74  2  0
 75 78  1  0
 75 74  1  0
 76 75  2  0
 77 76  1  0
 77 72  2  0
 78 79  1  0
 79 80  1  0
 80 81  2  0
 82 81  1  0
 82 86  1  0
 83 82  2  0
 84 79  2  0
 84 83  1  0
 85 84  1  0
 87 88  1  0
 88 91  1  0
 88 90  1  0
 89 87  2  0
 92 67  1  0
 92 93  1  0
 94 92  1  0
 95100  1  0
 95 96  1  0
 96 99  1  1
 96 98  1  0
 97 96  1  0
100103  1  1
100101  1  0
102100  1  0
104107  1  0
104 95  1  0
104105  1  6
106104  1  0
108107  1  0
M  ISO  4  13 101  14 101  57 100  66 100
M  END
>  <TORSDO>  (87) 
F 28

>  <SCORE>  (87) 
-8.583

>  <name>  (87) 
91

>  <ligand_id>  (87) 
91

>  <original_smiles>  (87) 
[H]c1c([H])c([H])c2c(c1[H])C([H])([H])C([H])([H])C([H])([H])C2([H])N([H])C(=O)C1([H])N(C(=O)C([H])(N([H])C(=O)C([H])(N([H])C([H])([H])[H])C([H])([H])[H])C(C([H])([H])[H])(C([H])([H])[H])C([H])([H])[H])C([H])([H])c2c([H])c(OC([H])([H])C([H])([H])C([H])([H])C(c3n(C([H])([H])C([H])([H])N(C(=O)N4C([H])([H])C([H])([H])C([H])([H])C([H])(n5nc(-c6c([H])c([H])c(Oc7c([H])c([H])c(F)c([H])c7F)c([H])c6[H])c(C(=O)N([H])[H])c5N([H])[H])C4([H])[H])C([H])([H])[H])c(C(C(F)(F)F)(C(F)(F)F)C(F)(F)C([H])([H])F)c([H])[n+]3[H])(C([H])([H])[H])C([H])([H])C([H])([H])[H])c([H])c([H])c2C1([H])[H]

>  <smiles>  (87) 
[H]c1c([H])c([H])c2c(c1[H])C([H])([H])C([H])([H])C([H])([H])C2([H])N([H])C(=O)C1([H])N(C(=O)C([H])(N([H])C(=O)C([H])(N([H])C([H])([H])[H])C([H])([H])[H])C(C([H])([H])[H])(C([H])([H])[H])C([H])([H])[H])C([H])([H])c2c([H])c(OC([H])([H])C([H])([H])C([H])([H])C(c3n(C([H])([H])C([H])([H])N(C(=O)N4C([H])([H])C([H])([H])C([H])([H])C([H])(n5nc(-c6c([H])c([H])c(Oc7c([H])c([H])c(F)c([H])c7F)c([H])c6[H])c(C(=O)N([H])[H])c5N([H])[H])C4([H])[H])C([H])([H])[H])c(C(C(F)(F)F)(C(F)(F)F)C(F)(F)C([H])([H])F)c([H])[n+]3[H])(C([H])([H])[H])C([H])([H])C([H])([H])[H])c([H])c([H])c2C1([H])[H]

$$$$
92:0:0
     RDKit          3D

 92100  0  0  1  0  0  0  0  0999 V2000
  -30.0480  -19.4200   22.3370 C   0  0  0  0  0  3  0  0  0  0  0  0
  -30.1930  -18.8730   20.2090 C   0  0  0  0  0  3  0  0  0  0  0  0
  -30.1130  -19.9710   21.0260 C   0  0  0  0  0  0  0  0  0  0  0  0
  -30.0340  -18.0950   22.3240 N   0  0  0  0  0  0  0  0  0  0  0  0
  -30.1140  -17.7480   21.0130 N   0  0  0  0  0  0  0  0  0  0  0  0
  -28.7600  -15.7700   21.3500 C   0  0  0  0  0  1  0  0  0  0  0  0
  -30.0020  -16.3350   20.6080 C   0  0  0  0  0  3  0  0  0  0  0  0
  -31.5910  -14.8240   22.0850 C   0  0  0  0  0  1  0  0  0  0  0  0
  -32.6010  -16.4000   20.5310 C   0  0  0  0  0  1  0  0  0  0  0  0
  -31.3510  -15.4750   20.6900 C   0  0  2  0  0  0  0  0  0  0  0  0
  -31.4530  -14.3810   19.5490 C   0  0  0  0  0  0  0  0  0  0  0  0
  -30.9050  -12.1780   18.5280 C   0  0  0  0  0  2  0  0  0  0  0  0
  -29.8780  -12.2820   17.3840 C   0  0  0  0  0  2  0  0  0  0  0  0
  -28.4360  -12.2660   17.9280 C   0  0  0  0  0  2  0  0  0  0  0  0
  -28.2440  -13.2620   19.0980 C   0  0  0  0  0  3  0  0  0  0  0  0
  -29.3620  -13.0660   20.1440 C   0  0  0  0  0  2  0  0  0  0  0  0
  -30.6610  -13.2680   19.4940 N   0  0  0  0  0  0  0  0  0  0  0  0
  -32.3560  -14.5160   18.7120 O   0  0  0  0  0  0  0  0  0  0  0  0
  -25.9970  -14.1270   20.0180 C   0  0  0  0  0  0  0  0  0  0  0  0
  -24.8930  -13.4730   20.4940 C   0  0  0  0  0  0  0  0  0  0  0  0
  -25.2020  -12.0800   20.4290 C   0  0  0  0  0  0  0  0  0  0  0  0
  -26.9180  -13.1390   19.6990 N   0  0  0  0  0  0  0  0  0  0  0  0
  -26.4450  -11.9020   20.0000 N   0  0  0  0  0  0  0  0  0  0  0  0
  -24.3660  -10.9020   20.6950 C   0  0  0  0  0  0  0  0  0  0  0  0
  -24.7520   -9.9210   21.6350 C   0  0  0  0  0  3  0  0  0  0  0  0
  -23.9240   -8.8070   21.8860 C   0  0  0  0  0  3  0  0  0  0  0  0
  -22.6950   -8.6650   21.2000 C   0  0  0  0  0  0  0  0  0  0  0  0
  -22.3260   -9.6330   20.2490 C   0  0  0  0  0  3  0  0  0  0  0  0
  -23.1540  -10.7390   19.9950 C   0  0  0  0  0  3  0  0  0  0  0  0
  -21.8390   -7.6030   21.3600 O   0  0  0  0  0  0  0  0  0  0  0  0
  -21.7400   -6.9320   22.5520 C   0  0  0  0  0  0  0  0  0  0  0  0
  -21.4130   -7.5940   23.7550 C   0  0  0  0  0  3  0  0  0  0  0  0
  -21.2540   -6.8560   24.9460 C   0  0  0  0  0  3  0  0  0  0  0  0
  -21.4130   -5.4570   24.9330 C   0  0  0  0  0  0  0  0  0  0  0  0
  -21.7320   -4.7950   23.7340 C   0  0  0  0  0  3  0  0  0  0  0  0
  -21.8930   -5.5310   22.5470 C   0  0  0  0  0  0  0  0  0  0  0  0
  -22.1800   -4.8850   21.3910 F   0  0  0  0  0  0  0  0  0  0  0  0
  -21.2520   -4.7460   26.0720 F   0  0  0  0  0  0  0  0  0  0  0  0
  -23.5860  -14.0960   20.8940 C   0  0  0  0  0  0  0  0  0  0  0  0
  -22.8920  -13.5000   21.8580 N   0  0  0  0  0  0  0  0  0  0  0  0
  -23.1930  -15.1440   20.3840 O   0  0  0  0  0  0  0  0  0  0  0  0
  -23.2240  -12.6510   22.2900 H   0  0  0  0  0  0  0  0  0  0  0  0
  -22.0180  -13.9010   22.1680 H   0  0  0  0  0  0  0  0  0  0  0  0
  -26.2880  -15.4720   19.8120 N   0  0  0  0  0  0  0  0  0  0  0  0
  -25.6080  -16.2030   19.9920 H   0  0  0  0  0  0  0  0  0  0  0  0
  -27.1400  -15.8190   19.3950 H   0  0  0  0  0  0  0  0  0  0  0  0
  -30.0910  -21.3000   20.6790 O   0  0  0  0  0  0  0  0  0  0  0  0
  -28.8740  -21.9680   21.0190 C   0  0  0  0  0  2  0  0  0  0  0  0
  -29.1400  -23.3960   21.5380 C   0  0  0  0  0  2  0  0  0  0  0  0
  -28.6680  -24.5010   20.5710 C   0  0  0  0  0  2  0  0  0  0  0  0
  -28.9860  -25.9210   21.0690 C   0  0  0  0  0  2  0  0  0  0  0  0
  -28.7550  -26.8840   20.0430 O   0  0  0  0  0  0  0  0  0  0  0  0
  -24.6910  -31.7770   23.2380 C   0  0  0  0  0  0  0  0  0  0  0  0
  -27.5480  -27.5330   20.1040 C   0  0  0  0  0  0  0  0  0  0  0  0
  -23.5580  -30.3600   21.5540 C   0  0  0  0  0  3  0  0  0  0  0  0
  -25.0890  -28.9080   20.1220 C   0  0  0  0  0  0  0  0  0  0  0  0
  -26.0630  -30.8350   21.3850 C   0  0  0  0  0  2  0  0  0  0  0  0
  -26.2150  -29.4790   20.7310 C   0  0  0  0  0  0  0  0  0  0  0  0
  -27.4490  -28.7950   20.7230 C   0  0  0  0  0  3  0  0  0  0  0  0
  -26.4130  -26.9650   19.4930 C   0  0  0  0  0  3  0  0  0  0  0  0
  -25.1790  -27.6470   19.5020 C   0  0  0  0  0  3  0  0  0  0  0  0
  -23.8100  -29.7130   20.1650 C   0  0  0  0  0  2  0  0  0  0  0  0
  -24.7880  -31.0040   22.1200 N   0  0  0  0  0  0  0  0  0  0  0  0
  -23.5950  -31.9910   23.7760 O   0  0  0  0  0  0  0  0  0  0  0  0
  -22.9430  -29.2930   22.4890 C   0  0  0  0  0  0  0  0  0  0  0  0
  -21.6390  -29.0260   22.3130 N   0  0  0  0  0  0  0  0  0  0  0  0
  -23.6360  -28.7100   23.3260 O   0  0  0  0  0  0  0  0  0  0  0  0
  -21.1370  -29.5540   21.6120 H   0  0  0  0  0  0  0  0  0  0  0  0
  -18.3430  -27.5900   22.6510 C   0  0  0  0  0  0  0  0  0  0  0  0
  -20.8580  -28.0320   23.0480 C   0  0  0  0  0  3  0  0  0  0  0  0
  -21.0930  -26.6110   22.4860 C   0  0  0  0  0  2  0  0  0  0  0  0
  -20.0680  -26.2080   21.4210 C   0  0  0  0  0  2  0  0  0  0  0  0
  -18.6500  -26.2550   21.9950 C   0  0  0  0  0  2  0  0  0  0  0  0
  -19.3810  -28.4320   23.1320 C   0  0  0  0  0  0  0  0  0  0  0  0
  -19.0420  -29.6790   23.7010 C   0  0  0  0  0  3  0  0  0  0  0  0
  -17.6980  -30.0850   23.7980 C   0  0  0  0  0  3  0  0  0  0  0  0
  -16.6730  -29.2410   23.3340 C   0  0  0  0  0  3  0  0  0  0  0  0
  -16.9970  -27.9960   22.7670 C   0  0  0  0  0  3  0  0  0  0  0  0
  -25.9450  -32.4450   23.8840 C   0  0  0  0  0  3  0  0  0  0  0  0
  -25.5900  -33.8340   24.2090 N   0  0  0  0  0  0  0  0  0  0  0  0
  -25.9140  -34.8960   23.4600 C   0  0  0  0  0  0  0  0  0  0  0  0
  -26.6130  -34.8140   22.4460 O   0  0  0  0  0  0  0  0  0  0  0  0
  -24.9730  -33.9710   24.9960 H   0  0  0  0  0  0  0  0  0  0  0  0
  -24.1440  -36.6360   23.0580 C   0  0  0  0  0  1  0  0  0  0  0  0
  -25.3740  -36.2690   23.9040 C   0  0  0  0  0  3  0  0  0  0  0  0
  -27.4650  -37.2080   24.7870 C   0  0  0  0  0  1  0  0  0  0  0  0
  -26.3790  -37.3510   23.8200 N   0  0  0  0  0  0  0  0  0  0  0  0
  -25.9440  -38.2580   23.9650 H   0  0  0  0  0  0  0  0  0  0  0  0
  -26.4660  -31.6880   25.1650 C   0  0  1  0  0  0  0  0  0  0  0  0
  -25.3600  -31.3860   26.2020 C   0  0  0  0  0  1  0  0  0  0  0  0
  -27.1220  -30.3440   24.7700 C   0  0  0  0  0  1  0  0  0  0  0  0
  -27.5580  -32.5290   25.8670 C   0  0  0  0  0  1  0  0  0  0  0  0
  2  5  1  0
  2  3  2  0
  3  1  1  0
  4  1  2  0
  5  4  1  0
  7 10  1  0
  7  5  1  0
  7  6  1  0
 10  9  1  6
 10  8  1  0
 11 10  1  0
 12 17  1  0
 13 14  1  0
 13 12  1  0
 15 14  1  0
 15 22  1  0
 15 16  1  0
 17 11  1  0
 17 16  1  0
 18 11  2  0
 19 20  2  0
 20 39  1  0
 21 20  1  0
 21 24  1  0
 22 23  1  0
 22 19  1  0
 23 21  2  0
 24 25  1  0
 25 26  2  0
 27 30  1  0
 27 26  1  0
 28 27  2  0
 29 28  1  0
 29 24  2  0
 30 31  1  0
 31 32  1  0
 32 33  2  0
 34 33  1  0
 34 38  1  0
 35 34  2  0
 36 31  2  0
 36 35  1  0
 37 36  1  0
 39 40  1  0
 40 43  1  0
 40 42  1  0
 41 39  2  0
 44 45  1  0
 44 19  1  0
 46 44  1  0
 47 48  1  0
 47  3  1  0
 48 49  1  0
 50 51  1  0
 50 49  1  0
 52 54  1  0
 52 51  1  0
 53 64  2  0
 54 59  1  0
 55 63  1  0
 55 65  1  0
 56 62  1  0
 56 58  1  0
 57 63  1  0
 58 57  1  0
 59 58  2  0
 60 61  1  0
 60 54  2  0
 61 56  2  0
 62 55  1  0
 63 53  1  0
 65 67  2  0
 66 65  1  0
 68 66  1  0
 69 78  2  0
 69 74  1  0
 70 66  1  0
 70 74  1  0
 71 70  1  0
 72 73  1  0
 72 71  1  0
 73 69  1  0
 74 75  2  0
 75 76  1  0
 77 76  2  0
 78 77  1  0
 79 53  1  0
 79 80  1  0
 79 89  1  0
 80 83  1  0
 81 85  1  0
 81 80  1  0
 82 81  2  0
 85 84  1  0
 87 85  1  0
 87 88  1  0
 87 86  1  0
 89 92  1  1
 89 90  1  0
 91 89  1  0
M  ISO  4  10 100  11 100  51 101  52 101
M  END
>  <TORSDO>  (88) 
F 23

>  <SCORE>  (88) 
-9.502

>  <name>  (88) 
92

>  <ligand_id>  (88) 
92

>  <original_smiles>  (88) 
[H]c1nn(C([H])(C([H])([H])[H])C(C(=O)N2C([H])([H])C([H])([H])C([H])([H])C([H])(n3nc(-c4c([H])c([H])c(Oc5c([H])c([H])c(F)c([H])c5F)c([H])c4[H])c(C(=O)N([H])[H])c3N([H])[H])C2([H])[H])(C([H])([H])[H])C([H])([H])[H])c([H])c1OC([H])([H])C([H])([H])C([H])([H])C([H])([H])Oc1c([H])c([H])c2c(c1[H])C([H])([H])N(C(=O)C([H])(N([H])C(=O)C([H])(N([H])C([H])([H])[H])C([H])([H])[H])C(C([H])([H])[H])(C([H])([H])[H])C([H])([H])[H])C([H])(C(=O)N([H])C1([H])c3c([H])c([H])c([H])c([H])c3C([H])([H])C([H])([H])C1([H])[H])C2([H])[H]

>  <smiles>  (88) 
[H]c1nn(C([H])(C([H])([H])[H])C(C(=O)N2C([H])([H])C([H])([H])C([H])([H])C([H])(n3nc(-c4c([H])c([H])c(Oc5c([H])c([H])c(F)c([H])c5F)c([H])c4[H])c(C(=O)N([H])[H])c3N([H])[H])C2([H])[H])(C([H])([H])[H])C([H])([H])[H])c([H])c1OC([H])([H])C([H])([H])C([H])([H])C([H])([H])Oc1c([H])c([H])c2c(c1[H])C([H])([H])N(C(=O)C([H])(N([H])C(=O)C([H])(N([H])C([H])([H])[H])C([H])([H])[H])C(C([H])([H])[H])(C([H])([H])[H])C([H])([H])[H])C([H])(C(=O)N([H])C1([H])c3c([H])c([H])c([H])c([H])c3C([H])([H])C([H])([H])C1([H])[H])C2([H])[H]

$$$$
93:0:0
     RDKit          3D

 97105  0  0  1  0  0  0  0  0999 V2000
  -30.1760  -20.2480   22.7490 C   0  0  0  0  0  3  0  0  0  0  0  0
  -30.0940  -21.5160   22.1180 C   0  0  0  0  0  0  0  0  0  0  0  0
  -30.4110  -21.4970   20.6990 C   0  0  0  0  0  0  0  0  0  0  0  0
  -30.7960  -19.1020   20.8960 C   0  0  0  0  0  0  0  0  0  0  0  0
  -30.5460  -19.0990   22.1830 N   0  0  0  0  0  0  0  0  0  0  0  0
  -30.7280  -20.2420   20.1620 N   0  0  0  0  0  0  0  0  0  0  0  0
  -31.5920  -22.5500   18.6860 C   0  0  0  0  0  1  0  0  0  0  0  0
  -29.1370  -22.2430   18.6200 C   0  0  0  0  0  1  0  0  0  0  0  0
  -30.2980  -22.6550   19.5540 C   0  0  1  0  0  0  0  0  0  0  0  0
  -30.2270  -24.2740   19.8250 C   0  0  0  0  0  3  0  0  0  0  0  0
  -28.8950  -25.1580   19.6210 C   0  0  0  0  0  3  0  0  0  0  0  0
  -28.9130  -26.6160   19.9240 O   0  0  0  0  0  0  0  0  0  0  0  0
  -24.6430  -31.5820   23.0160 C   0  0  0  0  0  0  0  0  0  0  0  0
  -27.7080  -27.3520   19.8850 C   0  0  0  0  0  0  0  0  0  0  0  0
  -23.5950  -30.1410   21.3090 C   0  0  0  0  0  3  0  0  0  0  0  0
  -25.2050  -28.7610   19.8730 C   0  0  0  0  0  0  0  0  0  0  0  0
  -26.1040  -30.6750   21.1950 C   0  0  0  0  0  2  0  0  0  0  0  0
  -26.3170  -29.3280   20.5100 C   0  0  0  0  0  0  0  0  0  0  0  0
  -27.5670  -28.6360   20.5050 C   0  0  0  0  0  3  0  0  0  0  0  0
  -26.5630  -26.8350   19.2360 C   0  0  0  0  0  3  0  0  0  0  0  0
  -25.3320  -27.5200   19.2300 C   0  0  0  0  0  3  0  0  0  0  0  0
  -23.8960  -29.5250   19.9170 C   0  0  0  0  0  2  0  0  0  0  0  0
  -24.7960  -30.8160   21.8980 N   0  0  0  0  0  0  0  0  0  0  0  0
  -23.5280  -31.7530   23.5320 O   0  0  0  0  0  0  0  0  0  0  0  0
  -22.9990  -29.0420   22.2220 C   0  0  0  0  0  0  0  0  0  0  0  0
  -21.6860  -28.7890   22.0830 N   0  0  0  0  0  0  0  0  0  0  0  0
  -23.7160  -28.4240   23.0120 O   0  0  0  0  0  0  0  0  0  0  0  0
  -21.1610  -29.3440   21.4220 H   0  0  0  0  0  0  0  0  0  0  0  0
  -18.3870  -27.3800   22.5350 C   0  0  0  0  0  0  0  0  0  0  0  0
  -20.9280  -27.7710   22.8130 C   0  0  0  0  0  3  0  0  0  0  0  0
  -21.1080  -26.3760   22.1690 C   0  0  0  0  0  2  0  0  0  0  0  0
  -20.0220  -26.0400   21.1410 C   0  0  0  0  0  2  0  0  0  0  0  0
  -18.6370  -26.0760   21.7930 C   0  0  0  0  0  2  0  0  0  0  0  0
  -19.4620  -28.1830   23.0000 C   0  0  0  0  0  0  0  0  0  0  0  0
  -19.1730  -29.4020   23.6510 C   0  0  0  0  0  3  0  0  0  0  0  0
  -17.8420  -29.8180   23.8450 C   0  0  0  0  0  3  0  0  0  0  0  0
  -16.7830  -29.0100   23.3990 C   0  0  0  0  0  3  0  0  0  0  0  0
  -17.0550  -27.7930   22.7490 C   0  0  0  0  0  3  0  0  0  0  0  0
  -25.8530  -32.2990   23.6890 C   0  0  0  0  0  3  0  0  0  0  0  0
  -25.4340  -33.6670   24.0240 N   0  0  0  0  0  0  0  0  0  0  0  0
  -25.7140  -34.7520   23.2880 C   0  0  0  0  0  0  0  0  0  0  0  0
  -26.4210  -34.7100   22.2780 O   0  0  0  0  0  0  0  0  0  0  0  0
  -24.8080  -33.7690   24.8090 H   0  0  0  0  0  0  0  0  0  0  0  0
  -23.8660  -36.4140   22.9020 C   0  0  0  0  0  1  0  0  0  0  0  0
  -25.1130  -36.0950   23.7440 C   0  0  0  0  0  3  0  0  0  0  0  0
  -27.1500  -37.1260   24.6450 C   0  0  0  0  0  1  0  0  0  0  0  0
  -26.0660  -37.2220   23.6710 N   0  0  0  0  0  0  0  0  0  0  0  0
  -25.5910  -38.1090   23.8150 H   0  0  0  0  0  0  0  0  0  0  0  0
  -26.3820  -31.5510   24.9730 C   0  0  1  0  0  0  0  0  0  0  0  0
  -25.2740  -31.2370   26.0070 C   0  0  0  0  0  1  0  0  0  0  0  0
  -27.0600  -30.2160   24.5890 C   0  0  0  0  0  1  0  0  0  0  0  0
  -27.4610  -32.4080   25.6740 C   0  0  0  0  0  1  0  0  0  0  0  0
  -30.1440  -24.0470   22.9980 C   0  0  0  0  0  1  0  0  0  0  0  0
  -29.9430  -22.2850   24.5820 C   0  0  0  0  0  1  0  0  0  0  0  0
  -29.5760  -22.6310   23.1040 C   0  0  2  0  0  0  0  0  0  0  0  0
  -27.5030  -23.0540   21.5940 C   0  0  0  0  0  1  0  0  0  0  0  0
  -28.0320  -22.7280   22.9990 C   0  0  0  0  0  2  0  0  0  0  0  0
  -31.2970  -17.6970   20.3430 C   0  0  0  0  0  2  0  0  0  0  0  0
  -29.6760  -16.7850   18.7040 C   0  0  0  0  0  1  0  0  0  0  0  0
  -29.2140  -16.4130   21.1740 C   0  0  0  0  0  1  0  0  0  0  0  0
  -30.3080  -16.4310   20.0790 C   0  0  2  0  0  0  0  0  0  0  0  0
  -31.0230  -14.9750   19.9330 C   0  0  0  0  0  0  0  0  0  0  0  0
  -30.7280  -12.7160   18.9100 C   0  0  0  0  0  2  0  0  0  0  0  0
  -29.7130  -12.8390   17.7490 C   0  0  0  0  0  2  0  0  0  0  0  0
  -28.2580  -12.6840   18.2530 C   0  0  0  0  0  2  0  0  0  0  0  0
  -27.9760  -13.5100   19.5330 C   0  0  0  0  0  3  0  0  0  0  0  0
  -29.1130  -13.3420   20.5640 C   0  0  0  0  0  2  0  0  0  0  0  0
  -30.3730  -13.7470   19.9160 N   0  0  0  0  0  0  0  0  0  0  0  0
  -32.2060  -14.9960   19.5860 O   0  0  0  0  0  0  0  0  0  0  0  0
  -25.6680  -14.1780   20.4380 C   0  0  0  0  0  0  0  0  0  0  0  0
  -24.5870  -13.4320   20.8200 C   0  0  0  0  0  0  0  0  0  0  0  0
  -24.9800  -12.0670   20.6710 C   0  0  0  0  0  0  0  0  0  0  0  0
  -26.6510  -13.2640   20.0860 N   0  0  0  0  0  0  0  0  0  0  0  0
  -26.2460  -11.9870   20.2790 N   0  0  0  0  0  0  0  0  0  0  0  0
  -24.2070  -10.8310   20.8230 C   0  0  0  0  0  0  0  0  0  0  0  0
  -24.6500   -9.7800   21.6560 C   0  0  0  0  0  3  0  0  0  0  0  0
  -23.8790   -8.6070   21.7950 C   0  0  0  0  0  3  0  0  0  0  0  0
  -22.6510   -8.4790   21.1040 C   0  0  0  0  0  0  0  0  0  0  0  0
  -22.2250   -9.5190   20.2590 C   0  0  0  0  0  3  0  0  0  0  0  0
  -22.9970  -10.6840   20.1170 C   0  0  0  0  0  3  0  0  0  0  0  0
  -21.8470   -7.3660   21.1620 O   0  0  0  0  0  0  0  0  0  0  0  0
  -21.8270   -6.5510   22.2640 C   0  0  0  0  0  0  0  0  0  0  0  0
  -21.5100   -7.0440   23.5490 C   0  0  0  0  0  3  0  0  0  0  0  0
  -21.4360   -6.1580   24.6420 C   0  0  0  0  0  3  0  0  0  0  0  0
  -21.6690   -4.7820   24.4530 C   0  0  0  0  0  0  0  0  0  0  0  0
  -21.9830   -4.2900   23.1740 C   0  0  0  0  0  3  0  0  0  0  0  0
  -22.0600   -5.1730   22.0820 C   0  0  0  0  0  0  0  0  0  0  0  0
  -22.3430   -4.6910   20.8470 F   0  0  0  0  0  0  0  0  0  0  0  0
  -21.5890   -3.9320   25.5020 F   0  0  0  0  0  0  0  0  0  0  0  0
  -23.2350  -13.9550   21.2080 C   0  0  0  0  0  0  0  0  0  0  0  0
  -22.5400  -13.2500   22.0960 N   0  0  0  0  0  0  0  0  0  0  0  0
  -22.8080  -15.0180   20.7630 O   0  0  0  0  0  0  0  0  0  0  0  0
  -22.9030  -12.3930   22.4820 H   0  0  0  0  0  0  0  0  0  0  0  0
  -21.6320  -13.5740   22.3920 H   0  0  0  0  0  0  0  0  0  0  0  0
  -25.8800  -15.5500   20.3420 N   0  0  0  0  0  0  0  0  0  0  0  0
  -25.1600  -16.2200   20.5860 H   0  0  0  0  0  0  0  0  0  0  0  0
  -26.7390  -15.9810   20.0290 H   0  0  0  0  0  0  0  0  0  0  0  0
  2  1  2  0
  2 55  1  0
  3  2  1  0
  4  5  2  0
  5  1  1  0
  6  3  2  0
  6  4  1  0
  9  7  1  6
  8  9  1  0
  9 10  1  0
  9  3  1  0
 11 10  2  0
 11 12  1  0
 13 24  2  0
 14 12  1  0
 14 19  1  0
 15 23  1  0
 15 25  1  0
 16 22  1  0
 16 18  1  0
 17 23  1  0
 18 17  1  0
 19 18  2  0
 20 14  2  0
 21 20  1  0
 21 16  2  0
 22 15  1  0
 23 13  1  0
 25 27  2  0
 26 25  1  0
 28 26  1  0
 29 38  2  0
 29 34  1  0
 30 26  1  0
 30 34  1  0
 31 30  1  0
 32 33  1  0
 32 31  1  0
 33 29  1  0
 34 35  2  0
 35 36  1  0
 37 36  2  0
 38 37  1  0
 39 13  1  0
 39 40  1  0
 39 49  1  0
 40 43  1  0
 41 45  1  0
 41 40  1  0
 42 41  2  0
 45 44  1  0
 47 45  1  0
 47 48  1  0
 47 46  1  0
 49 52  1  1
 49 50  1  0
 51 49  1  0
 55 53  1  6
 55 54  1  0
 56 57  1  0
 57 55  1  0
 58  4  1  0
 61 59  1  6
 61 58  1  0
 61 60  1  0
 62 61  1  0
 63 68  1  0
 64 65  1  0
 64 63  1  0
 66 65  1  0
 66 73  1  0
 66 67  1  0
 68 62  1  0
 68 67  1  0
 69 62  2  0
 70 71  2  0
 71 90  1  0
 72 71  1  0
 72 75  1  0
 73 74  1  0
 73 70  1  0
 74 72  2  0
 75 76  1  0
 76 77  2  0
 78 81  1  0
 78 77  1  0
 79 78  2  0
 80 79  1  0
 80 75  2  0
 81 82  1  0
 82 83  1  0
 83 84  2  0
 85 84  1  0
 85 89  1  0
 86 85  2  0
 87 82  2  0
 87 86  1  0
 88 87  1  0
 90 91  1  0
 91 94  1  0
 91 93  1  0
 92 90  2  0
 95 70  1  0
 95 96  1  0
 97 95  1  0
M  ISO  4  11 101  12 101  61 100  62 100
M  END
>  <TORSDO>  (89) 
F 23

>  <SCORE>  (89) 
-9.939

>  <name>  (89) 
93

>  <ligand_id>  (89) 
93

>  <original_smiles>  (89) 
[H]c1nc(C([H])([H])C(C(=O)N2C([H])([H])C([H])([H])C([H])([H])C([H])(n3nc(-c4c([H])c([H])c(Oc5c([H])c([H])c(F)c([H])c5F)c([H])c4[H])c(C(=O)N([H])[H])c3N([H])[H])C2([H])[H])(C([H])([H])[H])C([H])([H])[H])nc(C(C([H])([H])[H])(C([H])([H])[H])C([H])([H])C([H])([H])Oc2c([H])c([H])c3c(c2[H])C([H])([H])N(C(=O)C([H])(N([H])C(=O)C([H])(N([H])C([H])([H])[H])C([H])([H])[H])C(C([H])([H])[H])(C([H])([H])[H])C([H])([H])[H])C([H])(C(=O)N([H])C2([H])c4c([H])c([H])c([H])c([H])c4C([H])([H])C([H])([H])C2([H])[H])C3([H])[H])c1C(C([H])([H])[H])(C([H])([H])[H])C([H])([H])C([H])([H])[H]

>  <smiles>  (89) 
[H]c1nc(C([H])([H])C(C(=O)N2C([H])([H])C([H])([H])C([H])([H])C([H])(n3nc(-c4c([H])c([H])c(Oc5c([H])c([H])c(F)c([H])c5F)c([H])c4[H])c(C(=O)N([H])[H])c3N([H])[H])C2([H])[H])(C([H])([H])[H])C([H])([H])[H])nc(C(C([H])([H])[H])(C([H])([H])[H])C([H])([H])C([H])([H])Oc2c([H])c([H])c3c(c2[H])C([H])([H])N(C(=O)C([H])(N([H])C(=O)C([H])(N([H])C([H])([H])[H])C([H])([H])[H])C(C([H])([H])[H])(C([H])([H])[H])C([H])([H])[H])C([H])(C(=O)N([H])C2([H])c4c([H])c([H])c([H])c([H])c4C([H])([H])C([H])([H])C2([H])[H])C3([H])[H])c1C(C([H])([H])[H])(C([H])([H])[H])C([H])([H])C([H])([H])[H]

$$$$
