0:0:0
     RDKit          3D

 98106  0  0  1  0  0  0  0  0999 V2000
  -31.9000  -19.7990   21.0700 C   0  0  0  0  0  3  0  0  0  0  0  0
  -31.9700  -20.8130   22.0240 C   0  0  0  0  0  0  0  0  0  0  0  0
  -31.2000  -18.6370   21.4210 C   0  0  0  0  0  0  0  0  0  0  0  0
  -30.8060  -19.5220   23.5120 C   0  0  0  0  0  0  0  0  0  0  0  0
  -31.4380  -20.6640   23.2490 N   0  0  0  0  0  0  0  0  0  0  0  0
  -30.6820  -18.5160   22.6570 N   0  0  0  0  0  0  0  0  0  0  0  0
  -29.9800  -20.5610   25.6800 C   0  0  0  0  0  1  0  0  0  0  0  0
  -31.5570  -18.5880   25.7160 C   0  0  0  0  0  1  0  0  0  0  0  0
  -29.1450  -18.3290   25.0360 C   0  0  0  0  0  1  0  0  0  0  0  0
  -30.3860  -19.2510   24.9690 C   0  0  2  0  0  0  0  0  0  0  0  0
  -31.4780  -17.8590   19.0180 C   0  0  0  0  0  1  0  0  0  0  0  0
  -29.3250  -17.6350   20.1740 C   0  0  0  0  0  1  0  0  0  0  0  0
  -30.8470  -17.5290   20.4060 C   0  0  2  0  0  0  0  0  0  0  0  0
  -31.6350  -15.1720   20.0580 C   0  0  0  0  0  0  0  0  0  0  0  0
  -31.1570  -13.0780   18.8440 C   0  0  0  0  0  2  0  0  0  0  0  0
  -30.1910  -13.3170   17.6690 C   0  0  0  0  0  2  0  0  0  0  0  0
  -28.7320  -13.1920   18.1420 C   0  0  0  0  0  2  0  0  0  0  0  0
  -28.4490  -14.0510   19.3990 C   0  0  0  0  0  3  0  0  0  0  0  0
  -29.5250  -13.8270   20.4850 C   0  0  0  0  0  2  0  0  0  0  0  0
  -30.8530  -14.0690   19.8900 N   0  0  0  0  0  0  0  0  0  0  0  0
  -32.6940  -15.3240   19.4460 O   0  0  0  0  0  0  0  0  0  0  0  0
  -31.3990  -15.8700   22.3120 C   0  0  0  0  0  1  0  0  0  0  0  0
  -31.1570  -16.1320   20.8800 N   0  0  0  0  0  0  0  0  0  0  0  0
  -26.0670  -14.7310   20.1030 C   0  0  0  0  0  0  0  0  0  0  0  0
  -24.9980  -13.9900   20.5250 C   0  0  0  0  0  0  0  0  0  0  0  0
  -25.4470  -12.6350   20.5580 C   0  0  0  0  0  0  0  0  0  0  0  0
  -27.1020  -13.8280   19.9100 N   0  0  0  0  0  0  0  0  0  0  0  0
  -26.7310  -12.5650   20.2370 N   0  0  0  0  0  0  0  0  0  0  0  0
  -24.7120  -11.3920   20.8140 C   0  0  0  0  0  0  0  0  0  0  0  0
  -25.0750  -10.5290   21.8700 C   0  0  0  0  0  3  0  0  0  0  0  0
  -24.3450   -9.3450   22.1090 C   0  0  0  0  0  3  0  0  0  0  0  0
  -23.2370   -9.0190   21.2910 C   0  0  0  0  0  0  0  0  0  0  0  0
  -22.8940   -9.8720   20.2260 C   0  0  0  0  0  3  0  0  0  0  0  0
  -23.6260  -11.0470   19.9880 C   0  0  0  0  0  3  0  0  0  0  0  0
  -22.4810   -7.8810   21.4350 O   0  0  0  0  0  0  0  0  0  0  0  0
  -22.2520   -7.3230   22.6670 C   0  0  0  0  0  0  0  0  0  0  0  0
  -21.6060   -8.0350   23.7010 C   0  0  0  0  0  3  0  0  0  0  0  0
  -21.3250   -7.3970   24.9270 C   0  0  0  0  0  3  0  0  0  0  0  0
  -21.6820   -6.0480   25.1150 C   0  0  0  0  0  0  0  0  0  0  0  0
  -22.3230   -5.3370   24.0860 C   0  0  0  0  0  3  0  0  0  0  0  0
  -22.6020   -5.9720   22.8630 C   0  0  0  0  0  0  0  0  0  0  0  0
  -23.1980   -5.2760   21.8650 F   0  0  0  0  0  0  0  0  0  0  0  0
  -21.4090   -5.4300   26.2890 F   0  0  0  0  0  0  0  0  0  0  0  0
  -23.6090  -14.4950   20.7910 C   0  0  0  0  0  0  0  0  0  0  0  0
  -22.9140  -13.8910   21.7490 N   0  0  0  0  0  0  0  0  0  0  0  0
  -23.1520  -15.4640   20.1870 O   0  0  0  0  0  0  0  0  0  0  0  0
  -23.2890  -13.1020   22.2530 H   0  0  0  0  0  0  0  0  0  0  0  0
  -21.9880  -14.2230   21.9770 H   0  0  0  0  0  0  0  0  0  0  0  0
  -26.2300  -16.0890   19.8470 N   0  0  0  0  0  0  0  0  0  0  0  0
  -25.4600  -16.7420   19.9360 H   0  0  0  0  0  0  0  0  0  0  0  0
  -27.0770  -16.5160   19.4940 H   0  0  0  0  0  0  0  0  0  0  0  0
  -32.4970  -22.1800   21.6400 C   0  0  0  0  0  2  0  0  0  0  0  0
  -31.4990  -22.8930   20.7060 C   0  0  0  0  0  2  0  0  0  0  0  0
  -31.8220  -24.3750   20.4360 C   0  0  0  0  0  2  0  0  0  0  0  0
  -30.6160  -25.2990   20.6660 C   0  0  0  0  0  2  0  0  0  0  0  0
  -30.9250  -26.7600   20.3060 C   0  0  0  0  0  2  0  0  0  0  0  0
  -29.7240  -27.6920   20.4890 C   0  0  0  0  0  2  0  0  0  0  0  0
  -28.6890  -27.2940   19.5970 O   0  0  0  0  0  0  0  0  0  0  0  0
  -24.5400  -31.9310   23.0750 C   0  0  0  0  0  0  0  0  0  0  0  0
  -27.4860  -27.9490   19.7080 C   0  0  0  0  0  0  0  0  0  0  0  0
  -23.4110  -30.5120   21.3880 C   0  0  0  0  0  3  0  0  0  0  0  0
  -24.9520  -29.1880   19.8480 C   0  0  0  0  0  0  0  0  0  0  0  0
  -25.8750  -31.1220   21.1410 C   0  0  0  0  0  2  0  0  0  0  0  0
  -26.0640  -29.7990   20.4370 C   0  0  0  0  0  0  0  0  0  0  0  0
  -27.3290  -29.1870   20.3760 C   0  0  0  0  0  3  0  0  0  0  0  0
  -26.3610  -27.3480   19.1090 C   0  0  0  0  0  3  0  0  0  0  0  0
  -25.0920  -27.9570   19.1800 C   0  0  0  0  0  3  0  0  0  0  0  0
  -23.6350  -29.9170   19.9700 C   0  0  0  0  0  2  0  0  0  0  0  0
  -24.6270  -31.2000   21.9280 N   0  0  0  0  0  0  0  0  0  0  0  0
  -23.4580  -32.0770   23.6570 O   0  0  0  0  0  0  0  0  0  0  0  0
  -22.8820  -29.3900   22.3080 C   0  0  0  0  0  0  0  0  0  0  0  0
  -21.5760  -29.1010   22.2020 N   0  0  0  0  0  0  0  0  0  0  0  0
  -23.6410  -28.7860   23.0710 O   0  0  0  0  0  0  0  0  0  0  0  0
  -21.0210  -29.6450   21.5580 H   0  0  0  0  0  0  0  0  0  0  0  0
  -18.3290  -27.6100   22.7230 C   0  0  0  0  0  0  0  0  0  0  0  0
  -20.8650  -28.0580   22.9400 C   0  0  0  0  0  3  0  0  0  0  0  0
  -21.0630  -26.6740   22.2780 C   0  0  0  0  0  2  0  0  0  0  0  0
  -19.9580  -26.3210   21.2780 C   0  0  0  0  0  2  0  0  0  0  0  0
  -18.5900  -26.3190   21.9660 C   0  0  0  0  0  2  0  0  0  0  0  0
  -19.3970  -28.4340   23.1660 C   0  0  0  0  0  0  0  0  0  0  0  0
  -19.0980  -29.6430   23.8330 C   0  0  0  0  0  3  0  0  0  0  0  0
  -17.7640  -30.0270   24.0620 C   0  0  0  0  0  3  0  0  0  0  0  0
  -16.7110  -29.1980   23.6380 C   0  0  0  0  0  3  0  0  0  0  0  0
  -16.9940  -27.9920   22.9740 C   0  0  0  0  0  3  0  0  0  0  0  0
  -25.7870  -32.6370   23.6960 C   0  0  0  0  0  3  0  0  0  0  0  0
  -25.4030  -34.0190   24.0070 N   0  0  0  0  0  0  0  0  0  0  0  0
  -25.6910  -35.0780   23.2390 C   0  0  0  0  0  0  0  0  0  0  0  0
  -26.3800  -34.9990   22.2190 O   0  0  0  0  0  0  0  0  0  0  0  0
  -24.7900  -34.1520   24.7990 H   0  0  0  0  0  0  0  0  0  0  0  0
  -23.8860  -36.7780   22.8200 C   0  0  0  0  0  1  0  0  0  0  0  0
  -25.1210  -36.4430   23.6710 C   0  0  0  0  0  3  0  0  0  0  0  0
  -27.1740  -37.4480   24.5690 C   0  0  0  0  0  1  0  0  0  0  0  0
  -26.1030  -37.5460   23.5800 N   0  0  0  0  0  0  0  0  0  0  0  0
  -25.6450  -38.4470   23.6960 H   0  0  0  0  0  0  0  0  0  0  0  0
  -26.3420  -31.9050   24.9790 C   0  0  1  0  0  0  0  0  0  0  0  0
  -25.2620  -31.6160   26.0460 C   0  0  0  0  0  1  0  0  0  0  0  0
  -27.0020  -30.5580   24.5960 C   0  0  0  0  0  1  0  0  0  0  0  0
  -27.4490  -32.7660   25.6340 C   0  0  0  0  0  1  0  0  0  0  0  0
  1  3  1  0
  1  2  2  0
  2  5  1  0
  3  6  2  0
  4 10  1  0
  5  4  2  0
  6  4  1  0
 10  9  1  6
 10  7  1  0
 10  8  1  0
 13 11  1  6
 12 13  1  0
 13 23  1  0
 13  3  1  0
 14 23  1  0
 15 20  1  0
 16 17  1  0
 16 15  1  0
 18 17  1  0
 18 27  1  0
 18 19  1  0
 20 14  1  0
 20 19  1  0
 21 14  2  0
 23 22  1  0
 24 25  2  0
 25 26  1  0
 25 44  1  0
 26 29  1  0
 27 24  1  0
 27 28  1  0
 28 26  2  0
 29 30  1  0
 30 31  2  0
 32 35  1  0
 32 31  1  0
 33 32  2  0
 34 33  1  0
 34 29  2  0
 35 36  1  0
 36 41  2  0
 36 37  1  0
 37 38  2  0
 38 39  1  0
 39 43  1  0
 40 39  2  0
 41 40  1  0
 42 41  1  0
 44 45  1  0
 45 48  1  0
 45 47  1  0
 46 44  2  0
 49 50  1  0
 49 24  1  0
 51 49  1  0
 52  2  1  0
 53 52  1  0
 54 55  1  0
 54 53  1  0
 56 57  1  0
 56 55  1  0
 58 60  1  0
 58 57  1  0
 59 70  2  0
 60 65  1  0
 61 69  1  0
 61 71  1  0
 62 68  1  0
 62 64  1  0
 63 69  1  0
 64 63  1  0
 65 64  2  0
 66 67  1  0
 66 60  2  0
 67 62  2  0
 68 61  1  0
 69 59  1  0
 71 73  2  0
 72 71  1  0
 74 72  1  0
 75 84  2  0
 75 80  1  0
 76 72  1  0
 76 80  1  0
 77 76  1  0
 78 79  1  0
 78 77  1  0
 79 75  1  0
 80 81  2  0
 81 82  1  0
 83 82  2  0
 84 83  1  0
 85 59  1  0
 85 86  1  0
 85 95  1  0
 86 89  1  0
 87 91  1  0
 87 86  1  0
 88 87  2  0
 91 90  1  0
 93 91  1  0
 93 94  1  0
 93 92  1  0
 95 98  1  1
 95 96  1  0
 97 95  1  0
M  ISO  4  14 100  23 100  57 101  58 101
M  END
>  <TORSDO>  (1) 
F 24

>  <SCORE>  (1) 
1.676

>  <name>  (1) 
0

>  <ligand_id>  (1) 
0

>  <original_smiles>  (1) 
[H]c1c(C([H])([H])C([H])([H])C([H])([H])C([H])([H])C([H])([H])C([H])([H])Oc2c([H])c([H])c3c(c2[H])C([H])([H])N(C(=O)C([H])(N([H])C(=O)C([H])(N([H])C([H])([H])[H])C([H])([H])[H])C(C([H])([H])[H])(C([H])([H])[H])C([H])([H])[H])C([H])(C(=O)N([H])C2([H])c4c([H])c([H])c([H])c([H])c4C([H])([H])C([H])([H])C2([H])[H])C3([H])[H])nc(C(C([H])([H])[H])(C([H])([H])[H])C([H])([H])[H])nc1C(N(C(=O)N1C([H])([H])C([H])([H])C([H])([H])C([H])(n2nc(-c3c([H])c([H])c(Oc4c([H])c([H])c(F)c([H])c4F)c([H])c3[H])c(C(=O)N([H])[H])c2N([H])[H])C1([H])[H])C([H])([H])[H])(C([H])([H])[H])C([H])([H])[H]

>  <smiles>  (1) 
[H]c1c(C([H])([H])C([H])([H])C([H])([H])C([H])([H])C([H])([H])C([H])([H])Oc2c([H])c([H])c3c(c2[H])C([H])([H])N(C(=O)C([H])(N([H])C(=O)C([H])(N([H])C([H])([H])[H])C([H])([H])[H])C(C([H])([H])[H])(C([H])([H])[H])C([H])([H])[H])C([H])(C(=O)N([H])C2([H])c4c([H])c([H])c([H])c([H])c4C([H])([H])C([H])([H])C2([H])[H])C3([H])[H])nc(C(C([H])([H])[H])(C([H])([H])[H])C([H])([H])[H])nc1C(N(C(=O)N1C([H])([H])C([H])([H])C([H])([H])C([H])(n2nc(-c3c([H])c([H])c(Oc4c([H])c([H])c(F)c([H])c4F)c([H])c3[H])c(C(=O)N([H])[H])c2N([H])[H])C1([H])[H])C([H])([H])[H])(C([H])([H])[H])C([H])([H])[H]

$$$$
1:0:0
     RDKit          3D

 98107  0  0  1  0  0  0  0  0999 V2000
  -29.2080  -22.0030   22.5380 C   0  0  0  0  0  2  0  0  0  0  0  0
  -30.9210  -23.1690   23.7070 C   0  0  0  0  0  3  0  0  0  0  0  0
  -29.6360  -23.1940   23.1460 C   0  0  0  0  0  0  0  0  0  0  0  0
  -31.1820  -20.9910   23.0910 C   0  0  0  0  0  0  0  0  0  0  0  0
  -29.9840  -20.9010   22.5150 N   0  0  0  0  0  0  0  0  0  0  0  0
  -31.6890  -22.0640   23.6770 N   0  0  0  0  0  0  0  0  0  0  0  0
  -28.7260  -24.4180   23.2910 C   0  0  0  0  0  2  0  0  0  0  0  0
  -28.1070  -25.0150   21.9960 C   0  0  0  0  0  2  0  0  0  0  0  0
  -29.6970  -27.0460   21.9000 C   0  0  0  0  0  1  0  0  0  0  0  0
  -30.0870  -25.0920   20.3970 C   0  0  0  0  0  1  0  0  0  0  0  0
  -29.0020  -25.9240   21.1030 C   0  0  1  0  0  0  0  0  0  0  0  0
  -28.2370  -26.4100   19.9800 O   0  0  0  0  0  0  0  0  0  0  0  0
  -24.4600  -31.6200   23.1450 C   0  0  0  0  0  0  0  0  0  0  0  0
  -27.0860  -27.1660   20.1050 C   0  0  0  0  0  0  0  0  0  0  0  0
  -23.2440  -30.2520   21.4750 C   0  0  0  0  0  3  0  0  0  0  0  0
  -24.6920  -28.6860   20.0730 C   0  0  0  0  0  0  0  0  0  0  0  0
  -25.7710  -30.5750   21.3040 C   0  0  0  0  0  2  0  0  0  0  0  0
  -25.8440  -29.1970   20.6820 C   0  0  0  0  0  0  0  0  0  0  0  0
  -27.0400  -28.4510   20.6920 C   0  0  0  0  0  3  0  0  0  0  0  0
  -25.9190  -26.6690   19.4850 C   0  0  0  0  0  3  0  0  0  0  0  0
  -24.7210  -27.4160   19.4700 C   0  0  0  0  0  3  0  0  0  0  0  0
  -23.4610  -29.5630   20.0990 C   0  0  0  0  0  2  0  0  0  0  0  0
  -24.5100  -30.8300   22.0360 N   0  0  0  0  0  0  0  0  0  0  0  0
  -23.3800  -31.9120   23.6750 O   0  0  0  0  0  0  0  0  0  0  0  0
  -22.5600  -29.2450   22.4250 C   0  0  0  0  0  0  0  0  0  0  0  0
  -21.2330  -29.0930   22.2780 N   0  0  0  0  0  0  0  0  0  0  0  0
  -23.2190  -28.5990   23.2450 O   0  0  0  0  0  0  0  0  0  0  0  0
  -20.7660  -29.6610   21.5840 H   0  0  0  0  0  0  0  0  0  0  0  0
  -17.8210  -28.0130   22.7490 C   0  0  0  0  0  0  0  0  0  0  0  0
  -20.3840  -28.1730   23.0320 C   0  0  0  0  0  3  0  0  0  0  0  0
  -20.4390  -26.7490   22.4290 C   0  0  0  0  0  2  0  0  0  0  0  0
  -19.3280  -26.4850   21.4080 C   0  0  0  0  0  2  0  0  0  0  0  0
  -17.9510  -26.6680   22.0530 C   0  0  0  0  0  2  0  0  0  0  0  0
  -18.9650  -28.7250   23.1960 C   0  0  0  0  0  0  0  0  0  0  0  0
  -18.7910  -29.9870   23.8060 C   0  0  0  0  0  3  0  0  0  0  0  0
  -17.5040  -30.5320   23.9780 C   0  0  0  0  0  3  0  0  0  0  0  0
  -16.3750  -29.8130   23.5510 C   0  0  0  0  0  3  0  0  0  0  0  0
  -16.5340  -28.5570   22.9400 C   0  0  0  0  0  3  0  0  0  0  0  0
  -25.7520  -32.2200   23.7820 C   0  0  0  0  0  3  0  0  0  0  0  0
  -25.4690  -33.6210   24.1220 N   0  0  0  0  0  0  0  0  0  0  0  0
  -25.8470  -34.6740   23.3850 C   0  0  0  0  0  0  0  0  0  0  0  0
  -26.5370  -34.5670   22.3680 O   0  0  0  0  0  0  0  0  0  0  0  0
  -24.8560  -33.7820   24.9100 H   0  0  0  0  0  0  0  0  0  0  0  0
  -24.1760  -36.5120   23.0070 C   0  0  0  0  0  1  0  0  0  0  0  0
  -25.3820  -36.0670   23.8480 C   0  0  0  0  0  3  0  0  0  0  0  0
  -27.5090  -36.8880   24.7590 C   0  0  0  0  0  1  0  0  0  0  0  0
  -26.4440  -37.0930   23.7810 N   0  0  0  0  0  0  0  0  0  0  0  0
  -26.0580  -38.0230   23.9220 H   0  0  0  0  0  0  0  0  0  0  0  0
  -26.2530  -31.4250   25.0480 C   0  0  1  0  0  0  0  0  0  0  0  0
  -25.1440  -31.1550   26.0910 C   0  0  0  0  0  1  0  0  0  0  0  0
  -26.8570  -30.0640   24.6280 C   0  0  0  0  0  1  0  0  0  0  0  0
  -27.3840  -32.2140   25.7480 C   0  0  0  0  0  1  0  0  0  0  0  0
  -31.9950  -19.9040   23.1350 O   0  0  0  0  0  0  0  0  0  0  0  0
  -32.0300  -18.7090   21.0400 C   0  0  0  0  0  3  0  0  0  0  0  0
  -31.5280  -17.6490   20.2680 C   0  0  0  0  0  3  0  0  0  0  0  0
  -30.8520  -17.7790   22.9210 C   0  0  0  0  0  3  0  0  0  0  0  0
  -31.6410  -18.8090   22.3830 C   0  0  0  0  0  0  0  0  0  0  0  0
  -30.6510  -16.7010   20.8520 C   0  0  0  0  0  0  0  0  0  0  0  0
  -30.3900  -16.7410   22.1850 N   0  0  0  0  0  0  0  0  0  0  0  0
  -28.3780  -15.7020   20.6350 C   0  0  0  0  0  1  0  0  0  0  0  0
  -29.6120  -16.3600   18.5770 C   0  0  0  0  0  1  0  0  0  0  0  0
  -29.7880  -15.7260   19.9880 C   0  0  1  0  0  0  0  0  0  0  0  0
  -30.5170  -14.3360   19.7580 C   0  0  0  0  0  0  0  0  0  0  0  0
  -30.2110  -12.0770   18.8010 C   0  0  0  0  0  2  0  0  0  0  0  0
  -29.1510  -12.1510   17.6800 C   0  0  0  0  0  2  0  0  0  0  0  0
  -27.7250  -11.9790   18.2430 C   0  0  0  0  0  2  0  0  0  0  0  0
  -27.4670  -12.8680   19.4830 C   0  0  0  0  0  3  0  0  0  0  0  0
  -28.6400  -12.7470   20.4860 C   0  0  0  0  0  2  0  0  0  0  0  0
  -29.8810  -13.1190   19.7930 N   0  0  0  0  0  0  0  0  0  0  0  0
  -31.6510  -14.4080   19.2730 O   0  0  0  0  0  0  0  0  0  0  0  0
  -25.1730  -13.4930   20.4760 C   0  0  0  0  0  0  0  0  0  0  0  0
  -24.1470  -12.7210   20.9490 C   0  0  0  0  0  0  0  0  0  0  0  0
  -24.5870  -11.3680   20.8300 C   0  0  0  0  0  0  0  0  0  0  0  0
  -26.1770  -12.6050   20.1090 N   0  0  0  0  0  0  0  0  0  0  0  0
  -25.8320  -11.3220   20.3750 N   0  0  0  0  0  0  0  0  0  0  0  0
  -23.8740  -10.1100   21.0620 C   0  0  0  0  0  0  0  0  0  0  0  0
  -24.3540   -9.1560   21.9850 C   0  0  0  0  0  3  0  0  0  0  0  0
  -23.6470   -7.9570   22.2050 C   0  0  0  0  0  3  0  0  0  0  0  0
  -22.4450   -7.7030   21.5020 C   0  0  0  0  0  0  0  0  0  0  0  0
  -21.9840   -8.6460   20.5670 C   0  0  0  0  0  3  0  0  0  0  0  0
  -22.6920   -9.8390   20.3450 C   0  0  0  0  0  3  0  0  0  0  0  0
  -21.7010   -6.5570   21.6350 O   0  0  0  0  0  0  0  0  0  0  0  0
  -21.6620   -5.8590   22.8140 C   0  0  0  0  0  0  0  0  0  0  0  0
  -21.1990   -6.4460   24.0120 C   0  0  0  0  0  3  0  0  0  0  0  0
  -21.1040   -5.6690   25.1850 C   0  0  0  0  0  3  0  0  0  0  0  0
  -21.4660   -4.3090   25.1590 C   0  0  0  0  0  0  0  0  0  0  0  0
  -21.9230   -3.7230   23.9650 C   0  0  0  0  0  3  0  0  0  0  0  0
  -22.0180   -4.4970   22.7960 C   0  0  0  0  0  0  0  0  0  0  0  0
  -22.4380   -3.9230   21.6430 F   0  0  0  0  0  0  0  0  0  0  0  0
  -21.3690   -3.5620   26.2820 F   0  0  0  0  0  0  0  0  0  0  0  0
  -22.7950  -13.2050   21.3900 C   0  0  0  0  0  0  0  0  0  0  0  0
  -22.1570  -12.4920   22.3130 N   0  0  0  0  0  0  0  0  0  0  0  0
  -22.3140  -14.2500   20.9530 O   0  0  0  0  0  0  0  0  0  0  0  0
  -22.5600  -11.6490   22.6930 H   0  0  0  0  0  0  0  0  0  0  0  0
  -21.2500  -12.7940   22.6410 H   0  0  0  0  0  0  0  0  0  0  0  0
  -25.3120  -14.8650   20.3080 N   0  0  0  0  0  0  0  0  0  0  0  0
  -24.5560  -15.5040   20.5320 H   0  0  0  0  0  0  0  0  0  0  0  0
  -26.1080  -15.3260   19.8890 H   0  0  0  0  0  0  0  0  0  0  0  0
  1  3  1  0
  3  7  1  0
  3  2  2  0
  4 53  1  0
  4  6  2  0
  5  1  1  0
  5  4  2  0
  6  2  1  0
  8  7  1  0
 11 10  1  6
 11  9  1  0
 11  8  1  0
 12 14  1  0
 12 11  1  0
 13 24  2  0
 14 19  1  0
 15 23  1  0
 15 25  1  0
 16 22  1  0
 16 18  1  0
 17 23  1  0
 18 19  2  0
 18 17  1  0
 20 14  2  0
 21 20  1  0
 21 16  2  0
 22 15  1  0
 23 13  1  0
 25 27  2  0
 26 25  1  0
 28 26  1  0
 29 38  2  0
 29 34  1  0
 30 26  1  0
 30 34  1  0
 31 30  1  0
 32 33  1  0
 32 31  1  0
 33 29  1  0
 34 35  2  0
 35 36  1  0
 37 36  2  0
 38 37  1  0
 39 13  1  0
 39 40  1  0
 39 49  1  0
 40 43  1  0
 41 45  1  0
 41 40  1  0
 42 41  2  0
 45 44  1  0
 47 45  1  0
 47 48  1  0
 47 46  1  0
 49 52  1  1
 49 50  1  0
 51 49  1  0
 54 57  1  0
 55 58  1  0
 55 54  2  0
 57 56  2  0
 57 53  1  0
 58 59  2  0
 59 56  1  0
 62 61  1  6
 62 60  1  0
 62 58  1  0
 63 69  1  0
 63 62  1  0
 64 69  1  0
 65 66  1  0
 65 64  1  0
 67 66  1  0
 67 74  1  0
 67 68  1  0
 69 68  1  0
 70 63  2  0
 71 72  2  0
 72 91  1  0
 73 72  1  0
 73 76  1  0
 74 75  1  0
 74 71  1  0
 75 73  2  0
 76 77  1  0
 77 78  2  0
 79 82  1  0
 79 78  1  0
 80 79  2  0
 81 80  1  0
 81 76  2  0
 82 83  1  0
 83 84  1  0
 84 85  2  0
 86 85  1  0
 86 90  1  0
 87 86  2  0
 88 83  2  0
 88 87  1  0
 89 88  1  0
 91 92  1  0
 92 95  1  0
 92 94  1  0
 93 91  2  0
 96 71  1  0
 96 97  1  0
 98 96  1  0
M  ISO  4  11 101  12 101  62 100  63 100
M  END
>  <TORSDO>  (2) 
F 22

>  <SCORE>  (2) 
-10.705

>  <name>  (2) 
1

>  <ligand_id>  (2) 
1

>  <original_smiles>  (2) 
[H]c1nc(C(C(=O)N2C([H])([H])C([H])([H])C([H])([H])C([H])(n3nc(-c4c([H])c([H])c(Oc5c([H])c([H])c(F)c([H])c5F)c([H])c4[H])c(C(=O)N([H])[H])c3N([H])[H])C2([H])[H])(C([H])([H])[H])C([H])([H])[H])c([H])c([H])c1Oc1nc([H])c(C([H])([H])C([H])([H])C(Oc2c([H])c([H])c3c(c2[H])C([H])([H])N(C(=O)C([H])(N([H])C(=O)C([H])(N([H])C([H])([H])[H])C([H])([H])[H])C(C([H])([H])[H])(C([H])([H])[H])C([H])([H])[H])C([H])(C(=O)N([H])C2([H])c4c([H])c([H])c([H])c([H])c4C([H])([H])C([H])([H])C2([H])[H])C3([H])[H])(C([H])([H])[H])C([H])([H])[H])c([H])n1

>  <smiles>  (2) 
[H]c1nc(C(C(=O)N2C([H])([H])C([H])([H])C([H])([H])C([H])(n3nc(-c4c([H])c([H])c(Oc5c([H])c([H])c(F)c([H])c5F)c([H])c4[H])c(C(=O)N([H])[H])c3N([H])[H])C2([H])[H])(C([H])([H])[H])C([H])([H])[H])c([H])c([H])c1Oc1nc([H])c(C([H])([H])C([H])([H])C(Oc2c([H])c([H])c3c(c2[H])C([H])([H])N(C(=O)C([H])(N([H])C(=O)C([H])(N([H])C([H])([H])[H])C([H])([H])[H])C(C([H])([H])[H])(C([H])([H])[H])C([H])([H])[H])C([H])(C(=O)N([H])C2([H])c4c([H])c([H])c([H])c([H])c4C([H])([H])C([H])([H])C2([H])[H])C3([H])[H])(C([H])([H])[H])C([H])([H])[H])c([H])n1

$$$$
2:0:0
     RDKit          3D

 98106  0  0  1  0  0  0  0  0999 V2000
  -29.3740  -20.0890   19.5170 C   0  0  0  0  0  0  0  0  0  0  0  0
  -28.6550  -19.0110   18.9140 C   0  0  0  0  0  0  0  0  0  0  0  0
  -30.6560  -18.4690   20.6620 C   0  0  0  0  0  0  0  0  0  0  0  0
  -29.8760  -17.3830   20.1360 C   0  0  0  0  0  0  0  0  0  0  0  0
  -30.3570  -19.7810   20.3990 N   0  0  0  0  0  0  0  0  0  0  0  0
  -28.8730  -17.7080   19.2670 N   0  0  0  0  0  0  0  0  0  0  0  0
  -33.0410  -19.2230   21.2160 C   0  0  0  0  0  1  0  0  0  0  0  0
  -31.8650  -18.2940   21.5720 C   0  0  0  0  0  2  0  0  0  0  0  0
  -29.2990  -21.5930   19.0680 C   0  0  0  0  0  3  0  0  0  0  0  0
  -28.7820  -22.7170   20.0480 C   0  0  0  0  0  3  0  0  0  0  0  0
  -28.7760  -24.1950   19.4680 C   0  0  0  0  0  3  0  0  0  0  0  0
  -28.1780  -25.3190   20.3960 C   0  0  0  0  0  3  0  0  0  0  0  0
  -28.3590  -26.7150   19.9880 O   0  0  0  0  0  0  0  0  0  0  0  0
  -24.5840  -31.9190   23.2120 C   0  0  0  0  0  0  0  0  0  0  0  0
  -27.2270  -27.5200   20.0060 C   0  0  0  0  0  0  0  0  0  0  0  0
  -23.3890  -30.5580   21.5330 C   0  0  0  0  0  3  0  0  0  0  0  0
  -24.8460  -29.0690   20.0580 C   0  0  0  0  0  0  0  0  0  0  0  0
  -25.9180  -30.9190   21.3470 C   0  0  0  0  0  2  0  0  0  0  0  0
  -26.0080  -29.5650   20.6610 C   0  0  0  0  0  0  0  0  0  0  0  0
  -27.2080  -28.8030   20.6250 C   0  0  0  0  0  3  0  0  0  0  0  0
  -26.0480  -27.0620   19.3830 C   0  0  0  0  0  3  0  0  0  0  0  0
  -24.8640  -27.8210   19.4150 C   0  0  0  0  0  3  0  0  0  0  0  0
  -23.6010  -29.9280   20.1320 C   0  0  0  0  0  2  0  0  0  0  0  0
  -24.6490  -31.1450   22.0910 N   0  0  0  0  0  0  0  0  0  0  0  0
  -23.5010  -32.1690   23.7580 O   0  0  0  0  0  0  0  0  0  0  0  0
  -22.7460  -29.5020   22.4640 C   0  0  0  0  0  0  0  0  0  0  0  0
  -21.4180  -29.3280   22.3460 N   0  0  0  0  0  0  0  0  0  0  0  0
  -23.4370  -28.8460   23.2480 O   0  0  0  0  0  0  0  0  0  0  0  0
  -20.9240  -29.9240   21.6980 H   0  0  0  0  0  0  0  0  0  0  0  0
  -18.0440  -28.1300   22.8440 C   0  0  0  0  0  0  0  0  0  0  0  0
  -20.6090  -28.3600   23.0850 C   0  0  0  0  0  3  0  0  0  0  0  0
  -20.6900  -26.9520   22.4470 C   0  0  0  0  0  2  0  0  0  0  0  0
  -19.5690  -26.6810   21.4400 C   0  0  0  0  0  2  0  0  0  0  0  0
  -18.2000  -26.8080   22.1110 C   0  0  0  0  0  2  0  0  0  0  0  0
  -19.1760  -28.8640   23.2870 C   0  0  0  0  0  0  0  0  0  0  0  0
  -18.9770  -30.1030   23.9330 C   0  0  0  0  0  3  0  0  0  0  0  0
  -17.6790  -30.6060   24.1400 C   0  0  0  0  0  3  0  0  0  0  0  0
  -16.5620  -29.8670   23.7100 C   0  0  0  0  0  3  0  0  0  0  0  0
  -16.7450  -28.6290   23.0720 C   0  0  0  0  0  3  0  0  0  0  0  0
  -25.8650  -32.5410   23.8490 C   0  0  0  0  0  3  0  0  0  0  0  0
  -26.3620  -31.7630   25.1290 C   0  0  1  0  0  0  0  0  0  0  0  0
  -25.2530  -31.5240   26.1800 C   0  0  0  0  0  1  0  0  0  0  0  0
  -26.9460  -30.3850   24.7400 C   0  0  0  0  0  1  0  0  0  0  0  0
  -27.5070  -32.5490   25.8090 C   0  0  0  0  0  1  0  0  0  0  0  0
  -25.5620  -33.9390   24.1810 N   0  0  0  0  0  0  0  0  0  0  0  0
  -25.9090  -34.9910   23.4270 C   0  0  0  0  0  0  0  0  0  0  0  0
  -26.5880  -34.8850   22.4020 O   0  0  0  0  0  0  0  0  0  0  0  0
  -24.9590  -34.0930   24.9760 H   0  0  0  0  0  0  0  0  0  0  0  0
  -24.1890  -36.7920   23.0580 C   0  0  0  0  0  1  0  0  0  0  0  0
  -25.4220  -36.3800   23.8800 C   0  0  0  0  0  3  0  0  0  0  0  0
  -27.5510  -37.2580   24.7370 C   0  0  0  0  0  1  0  0  0  0  0  0
  -26.4610  -37.4300   23.7780 N   0  0  0  0  0  0  0  0  0  0  0  0
  -26.0570  -38.3530   23.9200 H   0  0  0  0  0  0  0  0  0  0  0  0
  -27.6640  -19.1740   17.7660 C   0  0  0  0  0  2  0  0  0  0  0  0
  -26.2720  -21.2960   18.1820 C   0  0  0  0  0  1  0  0  0  0  0  0
  -26.3040  -19.7640   18.1740 C   0  0  0  0  0  2  0  0  0  0  0  0
  -29.8660  -15.8650   20.6090 C   0  0  0  0  0  3  0  0  0  0  0  0
  -30.4430  -14.7130   19.6820 C   0  0  0  0  0  0  0  0  0  0  0  0
  -30.1170  -12.5220   18.5160 C   0  0  0  0  0  2  0  0  0  0  0  0
  -28.9980  -12.6640   17.4600 C   0  0  0  0  0  2  0  0  0  0  0  0
  -27.6080  -12.4430   18.0890 C   0  0  0  0  0  2  0  0  0  0  0  0
  -27.4200  -13.2560   19.3950 C   0  0  0  0  0  3  0  0  0  0  0  0
  -28.6270  -13.0580   20.3350 C   0  0  0  0  0  2  0  0  0  0  0  0
  -29.8310  -13.4850   19.6000 N   0  0  0  0  0  0  0  0  0  0  0  0
  -31.4670  -14.9380   19.0280 O   0  0  0  0  0  0  0  0  0  0  0  0
  -25.1680  -13.7950   20.5100 C   0  0  0  0  0  0  0  0  0  0  0  0
  -24.1660  -12.9920   20.9770 C   0  0  0  0  0  0  0  0  0  0  0  0
  -24.6060  -11.6460   20.7690 C   0  0  0  0  0  0  0  0  0  0  0  0
  -26.1580  -12.9390   20.0550 N   0  0  0  0  0  0  0  0  0  0  0  0
  -25.8340  -11.6380   20.2690 N   0  0  0  0  0  0  0  0  0  0  0  0
  -23.9090  -10.3680   20.9640 C   0  0  0  0  0  0  0  0  0  0  0  0
  -24.4190   -9.3740   21.8280 C   0  0  0  0  0  3  0  0  0  0  0  0
  -23.7200   -8.1630   22.0160 C   0  0  0  0  0  3  0  0  0  0  0  0
  -22.4980   -7.9360   21.3400 C   0  0  0  0  0  0  0  0  0  0  0  0
  -22.0060   -8.9200   20.4650 C   0  0  0  0  0  3  0  0  0  0  0  0
  -22.7040  -10.1230   20.2750 C   0  0  0  0  0  3  0  0  0  0  0  0
  -21.7610   -6.7820   21.4420 O   0  0  0  0  0  0  0  0  0  0  0  0
  -21.7320   -6.0480   22.5990 C   0  0  0  0  0  0  0  0  0  0  0  0
  -21.2840   -6.5980   23.8200 C   0  0  0  0  0  3  0  0  0  0  0  0
  -21.2080   -5.7860   24.9690 C   0  0  0  0  0  3  0  0  0  0  0  0
  -21.5670   -4.4260   24.8960 C   0  0  0  0  0  0  0  0  0  0  0  0
  -22.0070   -3.8790   23.6790 C   0  0  0  0  0  3  0  0  0  0  0  0
  -22.0860   -4.6860   22.5320 C   0  0  0  0  0  0  0  0  0  0  0  0
  -22.4910   -4.1490   21.3570 F   0  0  0  0  0  0  0  0  0  0  0  0
  -21.4860   -3.6430   26.0000 F   0  0  0  0  0  0  0  0  0  0  0  0
  -22.8320  -13.4370   21.5000 C   0  0  0  0  0  0  0  0  0  0  0  0
  -22.2550  -12.6790   22.4240 N   0  0  0  0  0  0  0  0  0  0  0  0
  -22.3160  -14.4940   21.1300 O   0  0  0  0  0  0  0  0  0  0  0  0
  -22.6900  -11.8290   22.7550 H   0  0  0  0  0  0  0  0  0  0  0  0
  -21.3650  -12.9580   22.8090 H   0  0  0  0  0  0  0  0  0  0  0  0
  -25.3020  -15.1750   20.4100 N   0  0  0  0  0  0  0  0  0  0  0  0
  -24.5240  -15.7930   20.6160 H   0  0  0  0  0  0  0  0  0  0  0  0
  -26.1030  -15.6610   20.0280 H   0  0  0  0  0  0  0  0  0  0  0  0
  -30.1980  -15.6380   22.1150 C   0  0  0  0  0  2  0  0  0  0  0  0
  -31.6270  -15.4710   22.4650 N   0  0  0  0  0  4  0  0  0  0  0  0
  -32.0330  -14.6730   22.0120 H   0  0  0  0  0  0  0  0  0  0  0  0
  -31.7120  -15.3220   23.4580 H   0  0  0  0  0  0  0  0  0  0  0  0
  -32.1710  -16.2840   22.2370 H   0  0  0  0  0  0  0  0  0  0  0  0
  1  5  1  0
  2  6  1  0
  2  1  2  0
  3  8  1  0
  4 57  1  0
  4  3  1  0
  5  3  2  0
  6  4  2  0
  7  8  1  0
  9  1  1  0
  9 10  2  0
 11 10  1  0
 11 12  2  0
 13 15  1  0
 13 12  1  0
 14 25  2  0
 15 20  1  0
 16 24  1  0
 16 26  1  0
 17 23  1  0
 17 19  1  0
 18 24  1  0
 19 18  1  0
 20 19  2  0
 21 22  1  0
 21 15  2  0
 22 17  2  0
 23 16  1  0
 24 14  1  0
 26 28  2  0
 27 26  1  0
 29 27  1  0
 30 39  2  0
 30 35  1  0
 31 27  1  0
 31 35  1  0
 32 31  1  0
 33 34  1  0
 33 32  1  0
 34 30  1  0
 35 36  2  0
 36 37  1  0
 38 37  2  0
 39 38  1  0
 40 14  1  0
 40 45  1  0
 40 41  1  0
 41 44  1  1
 41 42  1  0
 43 41  1  0
 45 48  1  0
 46 50  1  0
 46 45  1  0
 47 46  2  0
 50 49  1  0
 52 50  1  0
 52 53  1  0
 52 51  1  0
 54 56  1  0
 54  2  1  0
 56 55  1  0
 57 94  1  0
 58 57  1  0
 59 64  1  0
 60 61  1  0
 60 59  1  0
 62 61  1  0
 62 69  1  0
 62 63  1  0
 64 58  1  0
 64 63  1  0
 65 58  2  0
 66 67  2  0
 67 86  1  0
 68 71  1  0
 68 67  1  0
 69 70  1  0
 69 66  1  0
 70 68  2  0
 71 72  1  0
 72 73  2  0
 74 77  1  0
 74 73  1  0
 75 74  2  0
 76 75  1  0
 76 71  2  0
 77 78  1  0
 78 79  1  0
 79 80  2  0
 81 80  1  0
 81 85  1  0
 82 81  2  0
 83 78  2  0
 83 82  1  0
 84 83  1  0
 86 87  1  0
 87 89  1  0
 87 90  1  0
 88 86  2  0
 91 66  1  0
 91 92  1  0
 93 91  1  0
 94 95  1  0
 95 97  1  0
 96 95  1  0
 98 95  1  0
M  ISO  4  12 101  13 101  57 100  58 100
M  END
>  <TORSDO>  (3) 
F 26

>  <SCORE>  (3) 
-10.691

>  <name>  (3) 
2

>  <ligand_id>  (3) 
2

>  <original_smiles>  (3) 
[H]c1c([H])c([H])c2c(c1[H])C([H])([H])C([H])([H])C([H])([H])C2([H])N([H])C(=O)C1([H])N(C(=O)C([H])(N([H])C(=O)C([H])(N([H])C([H])([H])[H])C([H])([H])[H])C(C([H])([H])[H])(C([H])([H])[H])C([H])([H])[H])C([H])([H])c2c([H])c(OC([H])([H])C([H])([H])C([H])([H])C([H])([H])c3nc(C([H])([H])C([H])([H])[H])c(C([H])(C(=O)N4C([H])([H])C([H])([H])C([H])([H])C([H])(n5nc(-c6c([H])c([H])c(Oc7c([H])c([H])c(F)c([H])c7F)c([H])c6[H])c(C(=O)N([H])[H])c5N([H])[H])C4([H])[H])C([H])([H])[N+]([H])([H])[H])nc3C([H])([H])C([H])([H])C([H])([H])[H])c([H])c([H])c2C1([H])[H]

>  <smiles>  (3) 
[H]c1c([H])c([H])c2c(c1[H])C([H])([H])C([H])([H])C([H])([H])C2([H])N([H])C(=O)C1([H])N(C(=O)C([H])(N([H])C(=O)C([H])(N([H])C([H])([H])[H])C([H])([H])[H])C(C([H])([H])[H])(C([H])([H])[H])C([H])([H])[H])C([H])([H])c2c([H])c(OC([H])([H])C([H])([H])C([H])([H])C([H])([H])c3nc(C([H])([H])C([H])([H])[H])c(C([H])(C(=O)N4C([H])([H])C([H])([H])C([H])([H])C([H])(n5nc(-c6c([H])c([H])c(Oc7c([H])c([H])c(F)c([H])c7F)c([H])c6[H])c(C(=O)N([H])[H])c5N([H])[H])C4([H])[H])C([H])([H])[N+]([H])([H])[H])nc3C([H])([H])C([H])([H])C([H])([H])[H])c([H])c([H])c2C1([H])[H]

$$$$
3:0:0
     RDKit          3D

 89 97  0  0  1  0  0  0  0  0999 V2000
  -28.8830  -21.1150   20.1550 C   0  0  0  0  0  2  0  0  0  0  0  0
  -30.6760  -18.1610   19.1960 C   0  0  0  0  0  3  0  0  0  0  0  0
  -29.9960  -17.6190   20.3300 C   0  0  0  0  0  0  0  0  0  0  0  0
  -30.4740  -19.4660   19.0610 N   0  0  0  0  0  0  0  0  0  0  0  0
  -29.3940  -18.6850   20.8880 N   0  0  0  0  0  0  0  0  0  0  0  0
  -29.6680  -19.8010   20.1070 N   0  0  0  0  0  0  0  0  0  0  0  0
  -28.5420  -15.9800   21.5460 C   0  0  0  0  0  1  0  0  0  0  0  0
  -30.9310  -16.2200   22.1860 C   0  0  0  0  0  1  0  0  0  0  0  0
  -29.9740  -16.1410   20.9740 C   0  0  2  0  0  0  0  0  0  0  0  0
  -30.5080  -14.8190   20.1260 C   0  0  0  0  0  0  0  0  0  0  0  0
  -30.2950  -12.6030   18.9230 C   0  0  0  0  0  2  0  0  0  0  0  0
  -29.2740  -12.6950   17.7660 C   0  0  0  0  0  2  0  0  0  0  0  0
  -27.8340  -12.4510   18.2580 C   0  0  0  0  0  2  0  0  0  0  0  0
  -27.5290  -13.2550   19.5520 C   0  0  0  0  0  3  0  0  0  0  0  0
  -28.6580  -13.0530   20.5900 C   0  0  0  0  0  2  0  0  0  0  0  0
  -29.8990  -13.5710   19.9870 N   0  0  0  0  0  0  0  0  0  0  0  0
  -31.5990  -14.9510   19.5550 O   0  0  0  0  0  0  0  0  0  0  0  0
  -25.1900  -13.8540   20.4410 C   0  0  0  0  0  0  0  0  0  0  0  0
  -24.1470  -13.0810   20.8710 C   0  0  0  0  0  0  0  0  0  0  0  0
  -24.5980  -11.7310   20.7770 C   0  0  0  0  0  0  0  0  0  0  0  0
  -26.2100  -12.9730   20.1130 N   0  0  0  0  0  0  0  0  0  0  0  0
  -25.8620  -11.6880   20.3670 N   0  0  0  0  0  0  0  0  0  0  0  0
  -23.8790  -10.4710   20.9870 C   0  0  0  0  0  0  0  0  0  0  0  0
  -24.3580   -9.4850   21.8750 C   0  0  0  0  0  3  0  0  0  0  0  0
  -23.6390   -8.2850   22.0630 C   0  0  0  0  0  3  0  0  0  0  0  0
  -22.4250   -8.0700   21.3660 C   0  0  0  0  0  0  0  0  0  0  0  0
  -21.9660   -9.0480   20.4630 C   0  0  0  0  0  3  0  0  0  0  0  0
  -22.6890  -10.2380   20.2730 C   0  0  0  0  0  3  0  0  0  0  0  0
  -21.6710   -6.9260   21.4720 O   0  0  0  0  0  0  0  0  0  0  0  0
  -21.6670   -6.1640   22.6140 C   0  0  0  0  0  0  0  0  0  0  0  0
  -21.3120   -6.7050   23.8700 C   0  0  0  0  0  3  0  0  0  0  0  0
  -21.2580   -5.8730   25.0050 C   0  0  0  0  0  3  0  0  0  0  0  0
  -21.5450   -4.5000   24.8860 C   0  0  0  0  0  0  0  0  0  0  0  0
  -21.8890   -3.9570   23.6360 C   0  0  0  0  0  3  0  0  0  0  0  0
  -21.9490   -4.7860   22.5030 C   0  0  0  0  0  0  0  0  0  0  0  0
  -22.2640   -4.2560   21.2980 F   0  0  0  0  0  0  0  0  0  0  0  0
  -21.4840   -3.6990   25.9760 F   0  0  0  0  0  0  0  0  0  0  0  0
  -22.7760  -13.5700   21.2420 C   0  0  0  0  0  0  0  0  0  0  0  0
  -22.0960  -12.8690   22.1400 N   0  0  0  0  0  0  0  0  0  0  0  0
  -22.3180  -14.6100   20.7720 O   0  0  0  0  0  0  0  0  0  0  0  0
  -22.4810  -12.0400   22.5660 H   0  0  0  0  0  0  0  0  0  0  0  0
  -21.1660  -13.1720   22.3970 H   0  0  0  0  0  0  0  0  0  0  0  0
  -25.3300  -15.2270   20.2810 N   0  0  0  0  0  0  0  0  0  0  0  0
  -24.5620  -15.8620   20.4700 H   0  0  0  0  0  0  0  0  0  0  0  0
  -26.1470  -15.6930   19.9130 H   0  0  0  0  0  0  0  0  0  0  0  0
  -29.5650  -22.5380   20.4980 C   0  0  0  0  0  2  0  0  0  0  0  0
  -29.0420  -23.9360   19.8440 C   0  0  0  0  0  2  0  0  0  0  0  0
  -28.3440  -25.1150   20.6790 C   0  0  0  0  0  2  0  0  0  0  0  0
  -28.4250  -26.5150   20.1770 O   0  0  0  0  0  0  0  0  0  0  0  0
  -24.6260  -31.8820   23.2000 C   0  0  0  0  0  0  0  0  0  0  0  0
  -27.2810  -27.3300   20.1790 C   0  0  0  0  0  0  0  0  0  0  0  0
  -23.4290  -30.4600   21.5740 C   0  0  0  0  0  3  0  0  0  0  0  0
  -24.8920  -28.9130   20.1490 C   0  0  0  0  0  0  0  0  0  0  0  0
  -25.9590  -30.8090   21.3700 C   0  0  0  0  0  2  0  0  0  0  0  0
  -26.0560  -29.4220   20.7410 C   0  0  0  0  0  0  0  0  0  0  0  0
  -27.2540  -28.6440   20.7400 C   0  0  0  0  0  3  0  0  0  0  0  0
  -26.0990  -26.8700   19.5600 C   0  0  0  0  0  3  0  0  0  0  0  0
  -24.9170  -27.6430   19.5450 C   0  0  0  0  0  3  0  0  0  0  0  0
  -23.6460  -29.7800   20.1940 C   0  0  0  0  0  2  0  0  0  0  0  0
  -24.6910  -31.0660   22.1060 N   0  0  0  0  0  0  0  0  0  0  0  0
  -23.5430  -32.1540   23.7370 O   0  0  0  0  0  0  0  0  0  0  0  0
  -22.7800  -29.4420   22.5390 C   0  0  0  0  0  0  0  0  0  0  0  0
  -21.4530  -29.2630   22.4260 N   0  0  0  0  0  0  0  0  0  0  0  0
  -23.4680  -28.8180   23.3510 O   0  0  0  0  0  0  0  0  0  0  0  0
  -20.9550  -29.8240   21.7520 H   0  0  0  0  0  0  0  0  0  0  0  0
  -18.0800  -28.0720   22.9620 C   0  0  0  0  0  0  0  0  0  0  0  0
  -20.6420  -28.3260   23.2060 C   0  0  0  0  0  3  0  0  0  0  0  0
  -20.7330  -26.8930   22.6290 C   0  0  0  0  0  2  0  0  0  0  0  0
  -19.6200  -26.5720   21.6280 C   0  0  0  0  0  2  0  0  0  0  0  0
  -18.2450  -26.7230   22.2830 C   0  0  0  0  0  2  0  0  0  0  0  0
  -19.2050  -28.8330   23.3780 C   0  0  0  0  0  0  0  0  0  0  0  0
  -18.9940  -30.0980   23.9700 C   0  0  0  0  0  3  0  0  0  0  0  0
  -17.6920  -30.6010   24.1480 C   0  0  0  0  0  3  0  0  0  0  0  0
  -16.5810  -29.8360   23.7480 C   0  0  0  0  0  3  0  0  0  0  0  0
  -16.7770  -28.5740   23.1610 C   0  0  0  0  0  3  0  0  0  0  0  0
  -25.9070  -32.5300   23.8130 C   0  0  0  0  0  3  0  0  0  0  0  0
  -25.5870  -33.9260   24.1480 N   0  0  0  0  0  0  0  0  0  0  0  0
  -25.8950  -34.9810   23.3800 C   0  0  0  0  0  0  0  0  0  0  0  0
  -26.5510  -34.8840   22.3390 O   0  0  0  0  0  0  0  0  0  0  0  0
  -25.0170  -34.0780   24.9690 H   0  0  0  0  0  0  0  0  0  0  0  0
  -24.1380  -36.7490   23.0450 C   0  0  0  0  0  1  0  0  0  0  0  0
  -25.3960  -36.3650   23.8400 C   0  0  0  0  0  3  0  0  0  0  0  0
  -27.5330  -37.2750   24.6370 C   0  0  0  0  0  1  0  0  0  0  0  0
  -26.4120  -37.4310   23.7120 N   0  0  0  0  0  0  0  0  0  0  0  0
  -25.9970  -38.3470   23.8690 H   0  0  0  0  0  0  0  0  0  0  0  0
  -26.4410  -31.7640   25.0860 C   0  0  1  0  0  0  0  0  0  0  0  0
  -25.3620  -31.5140   26.1630 C   0  0  0  0  0  1  0  0  0  0  0  0
  -27.0340  -30.3960   24.6840 C   0  0  0  0  0  1  0  0  0  0  0  0
  -27.5880  -32.5690   25.7440 C   0  0  0  0  0  1  0  0  0  0  0  0
  1 46  1  0
  2  3  1  0
  3  5  2  0
  3  9  1  0
  4  2  2  0
  4  6  1  0
  6  1  1  0
  6  5  1  0
  9  7  1  1
  9  8  1  0
 10  9  1  0
 11 16  1  0
 12 13  1  0
 12 11  1  0
 14 13  1  0
 14 21  1  0
 14 15  1  0
 16 10  1  0
 16 15  1  0
 17 10  2  0
 18 19  2  0
 19 38  1  0
 20 19  1  0
 20 23  1  0
 21 22  1  0
 21 18  1  0
 22 20  2  0
 23 24  1  0
 24 25  2  0
 26 29  1  0
 26 25  1  0
 27 26  2  0
 28 27  1  0
 28 23  2  0
 29 30  1  0
 30 31  1  0
 31 32  2  0
 33 32  1  0
 33 37  1  0
 34 33  2  0
 35 30  2  0
 35 34  1  0
 36 35  1  0
 38 39  1  0
 39 42  1  0
 39 41  1  0
 40 38  2  0
 43 18  1  0
 43 44  1  0
 45 43  1  0
 47 46  1  0
 47 48  1  0
 49 51  1  0
 49 48  1  0
 50 61  2  0
 51 56  1  0
 52 60  1  0
 52 62  1  0
 53 59  1  0
 53 55  1  0
 54 60  1  0
 55 54  1  0
 56 55  2  0
 57 51  2  0
 58 57  1  0
 58 53  2  0
 59 52  1  0
 60 50  1  0
 62 64  2  0
 63 62  1  0
 65 63  1  0
 66 75  2  0
 66 71  1  0
 67 63  1  0
 67 71  1  0
 68 67  1  0
 69 70  1  0
 69 68  1  0
 70 66  1  0
 71 72  2  0
 72 73  1  0
 74 73  2  0
 75 74  1  0
 76 50  1  0
 76 77  1  0
 76 86  1  0
 77 80  1  0
 78 82  1  0
 78 77  1  0
 79 78  2  0
 82 81  1  0
 84 82  1  0
 84 85  1  0
 84 83  1  0
 86 89  1  1
 86 87  1  0
 88 86  1  0
M  ISO  4   9 100  10 100  48 101  49 101
M  END
>  <TORSDO>  (4) 
F 21

>  <SCORE>  (4) 
-12.466

>  <name>  (4) 
3

>  <ligand_id>  (4) 
3

>  <original_smiles>  (4) 
[H]c1nn(C([H])([H])C([H])([H])C([H])([H])C([H])([H])Oc2c([H])c([H])c3c(c2[H])C([H])([H])N(C(=O)C([H])(N([H])C(=O)C([H])(N([H])C([H])([H])[H])C([H])([H])[H])C(C([H])([H])[H])(C([H])([H])[H])C([H])([H])[H])C([H])(C(=O)N([H])C2([H])c4c([H])c([H])c([H])c([H])c4C([H])([H])C([H])([H])C2([H])[H])C3([H])[H])nc1C(C(=O)N1C([H])([H])C([H])([H])C([H])([H])C([H])(n2nc(-c3c([H])c([H])c(Oc4c([H])c([H])c(F)c([H])c4F)c([H])c3[H])c(C(=O)N([H])[H])c2N([H])[H])C1([H])[H])(C([H])([H])[H])C([H])([H])[H]

>  <smiles>  (4) 
[H]c1nn(C([H])([H])C([H])([H])C([H])([H])C([H])([H])Oc2c([H])c([H])c3c(c2[H])C([H])([H])N(C(=O)C([H])(N([H])C(=O)C([H])(N([H])C([H])([H])[H])C([H])([H])[H])C(C([H])([H])[H])(C([H])([H])[H])C([H])([H])[H])C([H])(C(=O)N([H])C2([H])c4c([H])c([H])c([H])c([H])c4C([H])([H])C([H])([H])C2([H])[H])C3([H])[H])nc1C(C(=O)N1C([H])([H])C([H])([H])C([H])([H])C([H])(n2nc(-c3c([H])c([H])c(Oc4c([H])c([H])c(F)c([H])c4F)c([H])c3[H])c(C(=O)N([H])[H])c2N([H])[H])C1([H])[H])(C([H])([H])[H])C([H])([H])[H]

$$$$
4:0:0
     RDKit          3D

 97105  0  0  1  0  0  0  0  0999 V2000
  -30.1660  -19.8530   19.1200 C   0  0  0  0  0  3  0  0  0  0  0  0
  -30.0690  -21.2490   18.9100 C   0  0  0  0  0  0  0  0  0  0  0  0
  -31.3480  -19.6820   19.7840 C   0  0  0  0  0  0  0  0  0  0  0  0
  -31.1480  -21.8860   19.3230 N   0  0  0  0  0  0  0  0  0  0  0  0
  -31.9420  -20.9420   19.8910 N   0  0  0  0  0  0  0  0  0  0  0  0
  -34.4290  -20.9220   19.9340 C   0  0  0  0  0  1  0  0  0  0  0  0
  -33.2510  -22.9060   20.7410 C   0  0  0  0  0  1  0  0  0  0  0  0
  -33.1350  -21.3600   20.6640 C   0  0  1  0  0  0  0  0  0  0  0  0
  -34.3480  -20.6330   22.8710 C   0  0  0  0  0  1  0  0  0  0  0  0
  -31.9120  -21.4110   22.9720 C   0  0  0  0  0  1  0  0  0  0  0  0
  -33.0100  -20.7600   22.1130 C   0  0  0  0  0  3  0  0  0  0  0  0
  -28.8890  -22.0150   18.3840 C   0  0  0  0  0  2  0  0  0  0  0  0
  -28.2760  -22.8830   19.5000 C   0  0  0  0  0  2  0  0  0  0  0  0
  -28.5240  -24.3870   19.2970 C   0  0  0  0  0  2  0  0  0  0  0  0
  -28.4740  -25.1710   20.6190 C   0  0  0  0  0  2  0  0  0  0  0  0
  -28.5990  -26.5770   20.4070 O   0  0  0  0  0  0  0  0  0  0  0  0
  -24.7970  -31.8100   23.3210 C   0  0  0  0  0  0  0  0  0  0  0  0
  -27.4250  -27.2930   20.3630 C   0  0  0  0  0  0  0  0  0  0  0  0
  -23.5930  -30.3960   21.6890 C   0  0  0  0  0  3  0  0  0  0  0  0
  -25.0420  -28.8150   20.3150 C   0  0  0  0  0  0  0  0  0  0  0  0
  -26.1250  -30.7270   21.5110 C   0  0  0  0  0  2  0  0  0  0  0  0
  -26.2000  -29.3410   20.9020 C   0  0  0  0  0  0  0  0  0  0  0  0
  -27.3930  -28.5880   20.9230 C   0  0  0  0  0  3  0  0  0  0  0  0
  -26.2460  -26.7740   19.7800 C   0  0  0  0  0  3  0  0  0  0  0  0
  -25.0570  -27.5250   19.7560 C   0  0  0  0  0  3  0  0  0  0  0  0
  -23.8110  -29.6930   20.3240 C   0  0  0  0  0  2  0  0  0  0  0  0
  -24.8580  -30.9920   22.2350 N   0  0  0  0  0  0  0  0  0  0  0  0
  -23.7130  -32.1020   23.8400 O   0  0  0  0  0  0  0  0  0  0  0  0
  -22.9220  -29.3920   22.6520 C   0  0  0  0  0  0  0  0  0  0  0  0
  -21.5970  -29.2230   22.5100 N   0  0  0  0  0  0  0  0  0  0  0  0
  -23.5910  -28.7720   23.4850 O   0  0  0  0  0  0  0  0  0  0  0  0
  -21.1220  -29.7780   21.8120 H   0  0  0  0  0  0  0  0  0  0  0  0
  -18.1990  -28.1100   22.9920 C   0  0  0  0  0  0  0  0  0  0  0  0
  -20.7570  -28.3060   23.2840 C   0  0  0  0  0  3  0  0  0  0  0  0
  -20.8340  -26.8690   22.7190 C   0  0  0  0  0  2  0  0  0  0  0  0
  -19.7320  -26.5650   21.6990 C   0  0  0  0  0  2  0  0  0  0  0  0
  -18.3500  -26.7500   22.3320 C   0  0  0  0  0  2  0  0  0  0  0  0
  -19.3310  -28.8470   23.4250 C   0  0  0  0  0  0  0  0  0  0  0  0
  -19.1400  -30.1240   23.9960 C   0  0  0  0  0  3  0  0  0  0  0  0
  -17.8460  -30.6600   24.1430 C   0  0  0  0  0  3  0  0  0  0  0  0
  -16.7280  -29.9150   23.7320 C   0  0  0  0  0  3  0  0  0  0  0  0
  -16.9050  -28.6430   23.1600 C   0  0  0  0  0  3  0  0  0  0  0  0
  -26.0830  -32.4350   23.9460 C   0  0  0  0  0  3  0  0  0  0  0  0
  -26.6180  -31.6370   25.1980 C   0  0  1  0  0  0  0  0  0  0  0  0
  -25.5380  -31.3470   26.2620 C   0  0  0  0  0  1  0  0  0  0  0  0
  -27.2170  -30.2820   24.7550 C   0  0  0  0  0  1  0  0  0  0  0  0
  -27.7560  -32.4290   25.8810 C   0  0  0  0  0  1  0  0  0  0  0  0
  -25.7690  -33.8230   24.3080 N   0  0  0  0  0  0  0  0  0  0  0  0
  -26.0820  -34.8930   23.5650 C   0  0  0  0  0  0  0  0  0  0  0  0
  -26.7400  -34.8170   22.5250 O   0  0  0  0  0  0  0  0  0  0  0  0
  -25.1860  -33.9560   25.1200 H   0  0  0  0  0  0  0  0  0  0  0  0
  -24.3300  -36.6680   23.2640 C   0  0  0  0  0  1  0  0  0  0  0  0
  -25.5840  -36.2650   24.0550 C   0  0  0  0  0  3  0  0  0  0  0  0
  -27.7160  -37.1540   24.8840 C   0  0  0  0  0  1  0  0  0  0  0  0
  -26.6020  -37.3320   23.9540 N   0  0  0  0  0  0  0  0  0  0  0  0
  -26.1880  -38.2430   24.1310 H   0  0  0  0  0  0  0  0  0  0  0  0
  -31.9590  -18.4250   20.3390 C   0  0  0  0  0  2  0  0  0  0  0  0
  -31.0080  -17.3490   20.8890 C   0  0  0  0  0  2  0  0  0  0  0  0
  -30.4220  -16.3560   19.8600 C   0  0  0  0  0  2  0  0  0  0  0  0
  -30.8160  -13.9050   19.9870 C   0  0  0  0  0  0  0  0  0  0  0  0
  -30.4120  -11.7600   18.8160 C   0  0  0  0  0  2  0  0  0  0  0  0
  -29.3640  -11.9740   17.7010 C   0  0  0  0  0  2  0  0  0  0  0  0
  -27.9180  -11.8870   18.2380 C   0  0  0  0  0  2  0  0  0  0  0  0
  -27.7150  -12.7000   19.5420 C   0  0  0  0  0  3  0  0  0  0  0  0
  -28.8470  -12.3500   20.5290 C   0  0  0  0  0  2  0  0  0  0  0  0
  -30.1180  -12.7280   19.8890 N   0  0  0  0  0  0  0  0  0  0  0  0
  -31.9060  -14.0350   19.4170 O   0  0  0  0  0  0  0  0  0  0  0  0
  -29.2910  -15.0860   21.6260 C   0  0  0  0  0  1  0  0  0  0  0  0
  -30.1470  -15.0170   20.4340 N   0  0  0  0  0  0  0  0  0  0  0  0
  -25.3900  -13.3720   20.4200 C   0  0  0  0  0  0  0  0  0  0  0  0
  -24.3320  -12.6270   20.8740 C   0  0  0  0  0  0  0  0  0  0  0  0
  -24.7580  -11.2660   20.8220 C   0  0  0  0  0  0  0  0  0  0  0  0
  -26.3930  -12.4630   20.1210 N   0  0  0  0  0  0  0  0  0  0  0  0
  -26.0190  -11.1910   20.4110 N   0  0  0  0  0  0  0  0  0  0  0  0
  -24.0200  -10.0240   21.0820 C   0  0  0  0  0  0  0  0  0  0  0  0
  -24.4630   -9.0910   22.0440 C   0  0  0  0  0  3  0  0  0  0  0  0
  -23.7300   -7.9100   22.2880 C   0  0  0  0  0  3  0  0  0  0  0  0
  -22.5380   -7.6550   21.5680 C   0  0  0  0  0  0  0  0  0  0  0  0
  -22.1120   -8.5780   20.5960 C   0  0  0  0  0  3  0  0  0  0  0  0
  -22.8470   -9.7510   20.3510 C   0  0  0  0  0  3  0  0  0  0  0  0
  -21.7700   -6.5260   21.7210 O   0  0  0  0  0  0  0  0  0  0  0  0
  -21.7070   -5.8530   22.9170 C   0  0  0  0  0  0  0  0  0  0  0  0
  -21.2480   -6.4760   24.0950 C   0  0  0  0  0  3  0  0  0  0  0  0
  -21.1320   -5.7310   25.2850 C   0  0  0  0  0  3  0  0  0  0  0  0
  -21.4680   -4.3650   25.2970 C   0  0  0  0  0  0  0  0  0  0  0  0
  -21.9230   -3.7400   24.1230 C   0  0  0  0  0  3  0  0  0  0  0  0
  -22.0390   -4.4830   22.9330 C   0  0  0  0  0  0  0  0  0  0  0  0
  -22.4580   -3.8750   21.7980 F   0  0  0  0  0  0  0  0  0  0  0  0
  -21.3490   -3.6440   26.4360 F   0  0  0  0  0  0  0  0  0  0  0  0
  -22.9760  -13.1460   21.2560 C   0  0  0  0  0  0  0  0  0  0  0  0
  -22.3040  -12.4710   22.1850 N   0  0  0  0  0  0  0  0  0  0  0  0
  -22.5200  -14.1780   20.7680 O   0  0  0  0  0  0  0  0  0  0  0  0
  -22.6820  -11.6330   22.5990 H   0  0  0  0  0  0  0  0  0  0  0  0
  -21.4000  -12.8050   22.4870 H   0  0  0  0  0  0  0  0  0  0  0  0
  -25.5700  -14.7350   20.2170 N   0  0  0  0  0  0  0  0  0  0  0  0
  -24.8430  -15.4220   20.3870 H   0  0  0  0  0  0  0  0  0  0  0  0
  -26.4130  -15.1370   19.8300 H   0  0  0  0  0  0  0  0  0  0  0  0
  1  3  2  0
  2  1  1  0
  2  4  2  0
  3  5  1  0
  3 57  1  0
  4  5  1  0
  5  8  1  0
  8  6  1  6
  8  7  1  0
  8 11  1  0
 11  9  1  0
 11 10  1  0
 12  2  1  0
 12 13  1  0
 14 13  1  0
 14 15  1  0
 16 15  1  0
 17 28  2  0
 18 16  1  0
 18 23  1  0
 19 27  1  0
 19 29  1  0
 20 26  1  0
 20 22  1  0
 21 27  1  0
 22 23  2  0
 22 21  1  0
 24 18  2  0
 25 24  1  0
 25 20  2  0
 26 19  1  0
 27 17  1  0
 29 31  2  0
 30 29  1  0
 32 30  1  0
 33 42  2  0
 33 38  1  0
 34 30  1  0
 34 38  1  0
 35 34  1  0
 36 37  1  0
 36 35  1  0
 37 33  1  0
 38 39  2  0
 39 40  1  0
 41 40  2  0
 42 41  1  0
 43 17  1  0
 43 48  1  0
 43 44  1  0
 44 47  1  1
 44 45  1  0
 46 44  1  0
 48 51  1  0
 49 53  1  0
 49 48  1  0
 50 49  2  0
 53 52  1  0
 55 53  1  0
 55 56  1  0
 55 54  1  0
 57 58  1  0
 59 69  1  0
 59 58  1  0
 60 69  1  0
 61 66  1  0
 62 63  1  0
 62 61  1  0
 64 63  1  0
 64 73  1  0
 64 65  1  0
 66 60  1  0
 66 65  1  0
 67 60  2  0
 69 68  1  0
 70 71  2  0
 71 90  1  0
 72 71  1  0
 72 75  1  0
 73 74  1  0
 73 70  1  0
 74 72  2  0
 75 76  1  0
 76 77  2  0
 78 81  1  0
 78 77  1  0
 79 78  2  0
 80 79  1  0
 80 75  2  0
 81 82  1  0
 82 87  2  0
 82 83  1  0
 83 84  2  0
 84 85  1  0
 85 89  1  0
 86 85  2  0
 87 86  1  0
 88 87  1  0
 90 91  1  0
 91 94  1  0
 91 93  1  0
 92 90  2  0
 95 96  1  0
 95 70  1  0
 97 95  1  0
M  ISO  4  15 101  16 101  60 100  69 100
M  END
>  <TORSDO>  (5) 
F 25

>  <SCORE>  (5) 
-10.832

>  <name>  (5) 
4

>  <ligand_id>  (5) 
4

>  <original_smiles>  (5) 
[H]c1c([H])c([H])c2c(c1[H])C([H])([H])C([H])([H])C([H])([H])C2([H])N([H])C(=O)C1([H])N(C(=O)C([H])(N([H])C(=O)C([H])(N([H])C([H])([H])[H])C([H])([H])[H])C(C([H])([H])[H])(C([H])([H])[H])C([H])([H])[H])C([H])([H])c2c([H])c(OC([H])([H])C([H])([H])C([H])([H])C([H])([H])c3nn(C(C([H])([H])[H])(C([H])([H])[H])C([H])(C([H])([H])[H])C([H])([H])[H])c(C([H])([H])C([H])([H])C([H])([H])N(C(=O)N4C([H])([H])C([H])([H])C([H])([H])C([H])(n5nc(-c6c([H])c([H])c(Oc7c([H])c([H])c(F)c([H])c7F)c([H])c6[H])c(C(=O)N([H])[H])c5N([H])[H])C4([H])[H])C([H])([H])[H])c3[H])c([H])c([H])c2C1([H])[H]

>  <smiles>  (5) 
[H]c1c([H])c([H])c2c(c1[H])C([H])([H])C([H])([H])C([H])([H])C2([H])N([H])C(=O)C1([H])N(C(=O)C([H])(N([H])C(=O)C([H])(N([H])C([H])([H])[H])C([H])([H])[H])C(C([H])([H])[H])(C([H])([H])[H])C([H])([H])[H])C([H])([H])c2c([H])c(OC([H])([H])C([H])([H])C([H])([H])C([H])([H])c3nn(C(C([H])([H])[H])(C([H])([H])[H])C([H])(C([H])([H])[H])C([H])([H])[H])c(C([H])([H])C([H])([H])C([H])([H])N(C(=O)N4C([H])([H])C([H])([H])C([H])([H])C([H])(n5nc(-c6c([H])c([H])c(Oc7c([H])c([H])c(F)c([H])c7F)c([H])c6[H])c(C(=O)N([H])[H])c5N([H])[H])C4([H])[H])C([H])([H])[H])c3[H])c([H])c([H])c2C1([H])[H]

$$$$
5:0:0
     RDKit          3D

 90 98  0  0  1  0  0  0  0  0999 V2000
  -30.9710  -20.9410   21.8070 C   0  0  0  0  0  2  0  0  0  0  0  0
  -32.1060  -18.9820   20.3790 C   0  0  0  0  0  3  0  0  0  0  0  0
  -30.2470  -18.4690   21.3700 C   0  0  0  0  0  3  0  0  0  0  0  0
  -31.0860  -19.5410   21.1980 C   0  0  0  0  0  0  0  0  0  0  0  0
  -31.8690  -17.7160   20.0410 N   0  0  0  0  0  0  0  0  0  0  0  0
  -30.7000  -17.3580   20.6430 N   0  0  0  0  0  0  0  0  0  0  0  0
  -29.4770  -16.4660   18.7870 C   0  0  0  0  0  1  0  0  0  0  0  0
  -28.6810  -16.0630   21.1670 C   0  0  0  0  0  1  0  0  0  0  0  0
  -29.9240  -16.1230   20.2340 C   0  0  2  0  0  0  0  0  0  0  0  0
  -30.7150  -14.7170   20.1370 C   0  0  0  0  0  0  0  0  0  0  0  0
  -30.4830  -12.4680   19.1090 C   0  0  0  0  0  2  0  0  0  0  0  0
  -29.5040  -12.5690   17.9140 C   0  0  0  0  0  2  0  0  0  0  0  0
  -28.0330  -12.4170   18.3640 C   0  0  0  0  0  2  0  0  0  0  0  0
  -27.7000  -13.2610   19.6190 C   0  0  0  0  0  3  0  0  0  0  0  0
  -28.8010  -13.0800   20.6950 C   0  0  0  0  0  2  0  0  0  0  0  0
  -30.0860  -13.4880   20.1030 N   0  0  0  0  0  0  0  0  0  0  0  0
  -31.9050  -14.7660   19.8150 O   0  0  0  0  0  0  0  0  0  0  0  0
  -25.3210  -13.9000   20.3700 C   0  0  0  0  0  0  0  0  0  0  0  0
  -24.2610  -13.1360   20.7740 C   0  0  0  0  0  0  0  0  0  0  0  0
  -24.7170  -11.7830   20.7440 C   0  0  0  0  0  0  0  0  0  0  0  0
  -26.3600  -13.0070   20.1340 N   0  0  0  0  0  0  0  0  0  0  0  0
  -26.0020  -11.7310   20.4120 N   0  0  0  0  0  0  0  0  0  0  0  0
  -23.9940  -10.5260   20.9550 C   0  0  0  0  0  0  0  0  0  0  0  0
  -24.4440   -9.5620   21.8850 C   0  0  0  0  0  3  0  0  0  0  0  0
  -23.7200   -8.3680   22.0790 C   0  0  0  0  0  3  0  0  0  0  0  0
  -22.5330   -8.1300   21.3470 C   0  0  0  0  0  0  0  0  0  0  0  0
  -22.1040   -9.0820   20.4060 C   0  0  0  0  0  3  0  0  0  0  0  0
  -22.8290  -10.2680   20.2070 C   0  0  0  0  0  3  0  0  0  0  0  0
  -21.7800   -6.9870   21.4540 O   0  0  0  0  0  0  0  0  0  0  0  0
  -21.7480   -6.2540   22.6130 C   0  0  0  0  0  0  0  0  0  0  0  0
  -21.3450   -6.8200   23.8420 C   0  0  0  0  0  3  0  0  0  0  0  0
  -21.2600   -6.0140   24.9940 C   0  0  0  0  0  3  0  0  0  0  0  0
  -21.5680   -4.6430   24.9180 C   0  0  0  0  0  0  0  0  0  0  0  0
  -21.9660   -4.0760   23.6940 C   0  0  0  0  0  3  0  0  0  0  0  0
  -22.0520   -4.8790   22.5440 C   0  0  0  0  0  0  0  0  0  0  0  0
  -22.4170   -4.3250   21.3630 F   0  0  0  0  0  0  0  0  0  0  0  0
  -21.4770   -3.8660   26.0230 F   0  0  0  0  0  0  0  0  0  0  0  0
  -22.8710  -13.6220   21.0730 C   0  0  0  0  0  0  0  0  0  0  0  0
  -22.1610  -12.9370   21.9610 N   0  0  0  0  0  0  0  0  0  0  0  0
  -22.4250  -14.6460   20.5540 O   0  0  0  0  0  0  0  0  0  0  0  0
  -22.5320  -12.1080   22.4010 H   0  0  0  0  0  0  0  0  0  0  0  0
  -21.2320  -13.2450   22.2080 H   0  0  0  0  0  0  0  0  0  0  0  0
  -25.4700  -15.2690   20.1680 N   0  0  0  0  0  0  0  0  0  0  0  0
  -24.6940  -15.9120   20.2860 H   0  0  0  0  0  0  0  0  0  0  0  0
  -26.3090  -15.7210   19.8280 H   0  0  0  0  0  0  0  0  0  0  0  0
  -30.8880  -22.1640   20.8310 C   0  0  0  0  0  2  0  0  0  0  0  0
  -29.5330  -22.9490   20.7710 C   0  0  0  0  0  3  0  0  0  0  0  0
  -29.6580  -24.4820   20.4590 C   0  0  0  0  0  3  0  0  0  0  0  0
  -28.3120  -25.2310   20.2070 C   0  0  0  0  0  2  0  0  0  0  0  0
  -28.4230  -26.6780   20.2060 O   0  0  0  0  0  0  0  0  0  0  0  0
  -24.5430  -31.8900   23.2050 C   0  0  0  0  0  0  0  0  0  0  0  0
  -27.2450  -27.4180   20.1720 C   0  0  0  0  0  0  0  0  0  0  0  0
  -23.3630  -30.4770   21.5560 C   0  0  0  0  0  3  0  0  0  0  0  0
  -24.8410  -28.9390   20.1510 C   0  0  0  0  0  0  0  0  0  0  0  0
  -25.8930  -30.8370   21.3890 C   0  0  0  0  0  2  0  0  0  0  0  0
  -25.9920  -29.4630   20.7500 C   0  0  0  0  0  0  0  0  0  0  0  0
  -27.1960  -28.7140   20.7500 C   0  0  0  0  0  3  0  0  0  0  0  0
  -26.0680  -26.9190   19.5640 C   0  0  0  0  0  3  0  0  0  0  0  0
  -24.8750  -27.6680   19.5520 C   0  0  0  0  0  3  0  0  0  0  0  0
  -23.5920  -29.7940   20.1820 C   0  0  0  0  0  2  0  0  0  0  0  0
  -24.6170  -31.0850   22.1070 N   0  0  0  0  0  0  0  0  0  0  0  0
  -23.4540  -32.1590   23.7320 O   0  0  0  0  0  0  0  0  0  0  0  0
  -22.7030  -29.4570   22.5130 C   0  0  0  0  0  0  0  0  0  0  0  0
  -21.3800  -29.2730   22.3750 N   0  0  0  0  0  0  0  0  0  0  0  0
  -23.3790  -28.8360   23.3360 O   0  0  0  0  0  0  0  0  0  0  0  0
  -20.8960  -29.8280   21.6840 H   0  0  0  0  0  0  0  0  0  0  0  0
  -18.0030  -28.0750   22.8500 C   0  0  0  0  0  0  0  0  0  0  0  0
  -20.5590  -28.3320   23.1360 C   0  0  0  0  0  3  0  0  0  0  0  0
  -20.6660  -26.9020   22.5570 C   0  0  0  0  0  2  0  0  0  0  0  0
  -19.5670  -26.5830   21.5360 C   0  0  0  0  0  2  0  0  0  0  0  0
  -18.1830  -26.7250   22.1750 C   0  0  0  0  0  2  0  0  0  0  0  0
  -19.1200  -28.8360   23.2870 C   0  0  0  0  0  0  0  0  0  0  0  0
  -18.8990  -30.0980   23.8800 C   0  0  0  0  0  3  0  0  0  0  0  0
  -17.5930  -30.5990   24.0410 C   0  0  0  0  0  3  0  0  0  0  0  0
  -16.4910  -29.8360   23.6170 C   0  0  0  0  0  3  0  0  0  0  0  0
  -16.6970  -28.5740   23.0290 C   0  0  0  0  0  3  0  0  0  0  0  0
  -25.8180  -32.5300   23.8380 C   0  0  0  0  0  3  0  0  0  0  0  0
  -25.4960  -33.9260   24.1640 N   0  0  0  0  0  0  0  0  0  0  0  0
  -25.8330  -34.9800   23.4090 C   0  0  0  0  0  0  0  0  0  0  0  0
  -26.5170  -34.8820   22.3870 O   0  0  0  0  0  0  0  0  0  0  0  0
  -24.8930  -34.0770   24.9590 H   0  0  0  0  0  0  0  0  0  0  0  0
  -24.1040  -36.7670   23.0240 C   0  0  0  0  0  1  0  0  0  0  0  0
  -25.3310  -36.3660   23.8600 C   0  0  0  0  0  3  0  0  0  0  0  0
  -27.4460  -37.2590   24.7320 C   0  0  0  0  0  1  0  0  0  0  0  0
  -26.3610  -37.4240   23.7680 N   0  0  0  0  0  0  0  0  0  0  0  0
  -25.9480  -38.3420   23.9080 H   0  0  0  0  0  0  0  0  0  0  0  0
  -26.3300  -31.7620   25.1180 C   0  0  1  0  0  0  0  0  0  0  0  0
  -25.2290  -31.5150   26.1750 C   0  0  0  0  0  1  0  0  0  0  0  0
  -26.9280  -30.3890   24.7300 C   0  0  0  0  0  1  0  0  0  0  0  0
  -27.4680  -32.5650   25.7890 C   0  0  0  0  0  1  0  0  0  0  0  0
  2  4  1  0
  4  3  2  0
  4  1  1  0
  5  2  2  0
  5  6  1  0
  6  3  1  0
  9  7  1  6
  9  6  1  0
  9  8  1  0
 10  9  1  0
 11 16  1  0
 12 13  1  0
 12 11  1  0
 14 13  1  0
 14 21  1  0
 14 15  1  0
 16 10  1  0
 16 15  1  0
 17 10  2  0
 18 19  2  0
 19 38  1  0
 20 19  1  0
 20 23  1  0
 21 18  1  0
 21 22  1  0
 22 20  2  0
 23 24  1  0
 24 25  2  0
 26 29  1  0
 26 25  1  0
 27 26  2  0
 28 27  1  0
 28 23  2  0
 29 30  1  0
 30 31  1  0
 31 32  2  0
 33 32  1  0
 33 37  1  0
 34 33  2  0
 35 30  2  0
 35 34  1  0
 36 35  1  0
 38 39  1  0
 39 42  1  0
 39 41  1  0
 40 38  2  0
 43 44  1  0
 43 18  1  0
 45 43  1  0
 46  1  1  0
 47 46  1  0
 48 47  2  0
 49 48  1  0
 50 49  1  0
 51 62  2  0
 52 50  1  0
 52 57  1  0
 53 61  1  0
 53 63  1  0
 54 60  1  0
 54 56  1  0
 55 61  1  0
 56 57  2  0
 56 55  1  0
 58 52  2  0
 59 58  1  0
 59 54  2  0
 60 53  1  0
 61 51  1  0
 63 65  2  0
 64 63  1  0
 66 64  1  0
 67 76  2  0
 67 72  1  0
 68 64  1  0
 68 72  1  0
 69 68  1  0
 70 71  1  0
 70 69  1  0
 71 67  1  0
 72 73  2  0
 73 74  1  0
 75 74  2  0
 76 75  1  0
 77 51  1  0
 77 78  1  0
 77 87  1  0
 78 81  1  0
 79 83  1  0
 79 78  1  0
 80 79  2  0
 83 82  1  0
 85 83  1  0
 85 86  1  0
 85 84  1  0
 87 90  1  1
 87 88  1  0
 89 87  1  0
M  ISO  4   9 100  10 100  49 101  50 101
M  END
>  <TORSDO>  (6) 
F 22

>  <SCORE>  (6) 
-12.719

>  <name>  (6) 
5

>  <ligand_id>  (6) 
5

>  <original_smiles>  (6) 
[H]c1nn(C(C(=O)N2C([H])([H])C([H])([H])C([H])([H])C([H])(n3nc(-c4c([H])c([H])c(Oc5c([H])c([H])c(F)c([H])c5F)c([H])c4[H])c(C(=O)N([H])[H])c3N([H])[H])C2([H])[H])(C([H])([H])[H])C([H])([H])[H])c([H])c1C([H])([H])C([H])([H])C([H])([H])C([H])([H])C([H])([H])Oc1c([H])c([H])c2c(c1[H])C([H])([H])N(C(=O)C([H])(N([H])C(=O)C([H])(N([H])C([H])([H])[H])C([H])([H])[H])C(C([H])([H])[H])(C([H])([H])[H])C([H])([H])[H])C([H])(C(=O)N([H])C1([H])c3c([H])c([H])c([H])c([H])c3C([H])([H])C([H])([H])C1([H])[H])C2([H])[H]

>  <smiles>  (6) 
[H]c1nn(C(C(=O)N2C([H])([H])C([H])([H])C([H])([H])C([H])(n3nc(-c4c([H])c([H])c(Oc5c([H])c([H])c(F)c([H])c5F)c([H])c4[H])c(C(=O)N([H])[H])c3N([H])[H])C2([H])[H])(C([H])([H])[H])C([H])([H])[H])c([H])c1C([H])([H])C([H])([H])C([H])([H])C([H])([H])C([H])([H])Oc1c([H])c([H])c2c(c1[H])C([H])([H])N(C(=O)C([H])(N([H])C(=O)C([H])(N([H])C([H])([H])[H])C([H])([H])[H])C(C([H])([H])[H])(C([H])([H])[H])C([H])([H])[H])C([H])(C(=O)N([H])C1([H])c3c([H])c([H])c([H])c([H])c3C([H])([H])C([H])([H])C1([H])[H])C2([H])[H]

$$$$
7:0:0
     RDKit          3D

100108  0  0  1  0  0  0  0  0999 V2000
  -31.5400  -20.4780   22.0300 C   0  0  0  0  0  2  0  0  0  0  0  0
  -30.6240  -19.5930   19.8580 C   0  0  0  0  0  2  0  0  0  0  0  0
  -31.1210  -19.3780   21.0900 C   0  0  0  0  0  3  0  0  0  0  0  0
  -30.6140  -17.3730   20.1540 C   0  0  0  0  0  3  0  0  0  0  0  0
  -30.1400  -18.4170   19.3690 N   0  0  0  0  0  0  0  0  0  0  0  0
  -31.1930  -17.9980   21.2170 N   0  0  0  0  0  0  0  0  0  0  0  0
  -31.6160  -17.5260   22.0130 H   0  0  0  0  0  0  0  0  0  0  0  0
  -30.0760  -18.7930   16.8950 C   0  0  0  0  0  1  0  0  0  0  0  0
  -28.2990  -19.8060   18.4240 C   0  0  0  0  0  1  0  0  0  0  0  0
  -28.1810  -17.4640   17.7950 C   0  0  0  0  0  1  0  0  0  0  0  0
  -29.2070  -18.5650   18.1580 C   0  0  2  0  0  0  0  0  0  0  0  0
  -28.8310  -15.9200   20.6320 C   0  0  0  0  0  1  0  0  0  0  0  0
  -30.5210  -15.5940   18.4690 C   0  0  0  0  0  1  0  0  0  0  0  0
  -30.2520  -15.8660   19.9890 C   0  0  1  0  0  0  0  0  0  0  0  0
  -31.0850  -14.6290   20.6050 C   0  0  0  0  0  0  0  0  0  0  0  0
  -31.0030  -12.1830   20.0860 C   0  0  0  0  0  2  0  0  0  0  0  0
  -30.1810  -11.9330   18.7980 C   0  0  0  0  0  2  0  0  0  0  0  0
  -28.6660  -11.8460   19.0790 C   0  0  0  0  0  2  0  0  0  0  0  0
  -28.1670  -12.9460   20.0370 C   0  0  0  0  0  3  0  0  0  0  0  0
  -29.1160  -13.0820   21.2540 C   0  0  0  0  0  2  0  0  0  0  0  0
  -30.4760  -13.3910   20.7620 N   0  0  0  0  0  0  0  0  0  0  0  0
  -32.3140  -14.6930   20.5180 O   0  0  0  0  0  0  0  0  0  0  0  0
  -25.7530  -13.7330   20.4600 C   0  0  0  0  0  0  0  0  0  0  0  0
  -24.6200  -13.0570   20.8020 C   0  0  0  0  0  0  0  0  0  0  0  0
  -25.0070  -11.6830   20.9100 C   0  0  0  0  0  0  0  0  0  0  0  0
  -26.7670  -12.7870   20.4080 N   0  0  0  0  0  0  0  0  0  0  0  0
  -26.3140  -11.5560   20.7330 N   0  0  0  0  0  0  0  0  0  0  0  0
  -24.2000  -10.4790   21.1100 C   0  0  0  0  0  0  0  0  0  0  0  0
  -24.5650   -9.5000   22.0600 C   0  0  0  0  0  3  0  0  0  0  0  0
  -23.7660   -8.3530   22.2460 C   0  0  0  0  0  3  0  0  0  0  0  0
  -22.5880   -8.1780   21.4810 C   0  0  0  0  0  0  0  0  0  0  0  0
  -22.2400   -9.1440   20.5180 C   0  0  0  0  0  3  0  0  0  0  0  0
  -23.0410  -10.2840   20.3320 C   0  0  0  0  0  3  0  0  0  0  0  0
  -21.7690   -7.0790   21.5740 O   0  0  0  0  0  0  0  0  0  0  0  0
  -21.7180   -6.3190   22.7130 C   0  0  0  0  0  0  0  0  0  0  0  0
  -21.2610   -6.8430   23.9400 C   0  0  0  0  0  3  0  0  0  0  0  0
  -21.1710   -6.0090   25.0740 C   0  0  0  0  0  3  0  0  0  0  0  0
  -21.5230   -4.6510   24.9780 C   0  0  0  0  0  0  0  0  0  0  0  0
  -21.9670   -4.1220   23.7520 C   0  0  0  0  0  3  0  0  0  0  0  0
  -22.0610   -4.9540   22.6220 C   0  0  0  0  0  0  0  0  0  0  0  0
  -22.4780   -4.4400   21.4390 F   0  0  0  0  0  0  0  0  0  0  0  0
  -21.4190   -3.8430   26.0600 F   0  0  0  0  0  0  0  0  0  0  0  0
  -23.2330  -13.6220   20.9180 C   0  0  0  0  0  0  0  0  0  0  0  0
  -22.4080  -13.0510   21.7880 N   0  0  0  0  0  0  0  0  0  0  0  0
  -22.8890  -14.6070   20.2610 O   0  0  0  0  0  0  0  0  0  0  0  0
  -22.6990  -12.2540   22.3350 H   0  0  0  0  0  0  0  0  0  0  0  0
  -21.4780  -13.4160   21.9350 H   0  0  0  0  0  0  0  0  0  0  0  0
  -25.9980  -15.0730   20.1650 N   0  0  0  0  0  0  0  0  0  0  0  0
  -25.2700  -15.7780   20.1160 H   0  0  0  0  0  0  0  0  0  0  0  0
  -26.8790  -15.3680   19.7690 H   0  0  0  0  0  0  0  0  0  0  0  0
  -30.8270  -22.0550   23.7890 C   0  0  0  0  0  1  0  0  0  0  0  0
  -29.0220  -21.1380   22.4280 C   0  0  0  0  0  1  0  0  0  0  0  0
  -30.4840  -21.6710   22.3180 C   0  0  2  0  0  0  0  0  0  0  0  0
  -31.5560  -22.8350   20.2180 C   0  0  0  0  0  1  0  0  0  0  0  0
  -30.9330  -24.2770   22.1140 C   0  0  0  0  0  1  0  0  0  0  0  0
  -30.5100  -22.9930   21.3410 C   0  0  2  0  0  0  0  0  0  0  0  0
  -29.1140  -23.3310   20.6410 C   0  0  0  0  0  2  0  0  0  0  0  0
  -28.9610  -24.6210   19.7560 C   0  0  0  0  0  2  0  0  0  0  0  0
  -27.5200  -25.2010   19.7270 C   0  0  0  0  0  2  0  0  0  0  0  0
  -27.5310  -26.5600   19.2720 O   0  0  0  0  0  0  0  0  0  0  0  0
  -24.4510  -31.7530   23.0360 C   0  0  0  0  0  0  0  0  0  0  0  0
  -26.3880  -27.3150   19.4610 C   0  0  0  0  0  0  0  0  0  0  0  0
  -22.9550  -30.5320   21.4870 C   0  0  0  0  0  3  0  0  0  0  0  0
  -24.1080  -28.9650   19.8330 C   0  0  0  0  0  0  0  0  0  0  0  0
  -25.4550  -30.7220   21.0040 C   0  0  0  0  0  2  0  0  0  0  0  0
  -25.3610  -29.3870   20.2960 C   0  0  0  0  0  0  0  0  0  0  0  0
  -26.4970  -28.5680   20.1030 C   0  0  0  0  0  3  0  0  0  0  0  0
  -25.1140  -26.9010   19.0070 C   0  0  0  0  0  3  0  0  0  0  0  0
  -23.9790  -27.7250   19.1850 C   0  0  0  0  0  3  0  0  0  0  0  0
  -22.9460  -29.9070   20.0670 C   0  0  0  0  0  2  0  0  0  0  0  0
  -24.3130  -31.0110   21.9040 N   0  0  0  0  0  0  0  0  0  0  0  0
  -23.4680  -32.0740   23.7170 O   0  0  0  0  0  0  0  0  0  0  0  0
  -22.3440  -29.5130   22.4740 C   0  0  0  0  0  0  0  0  0  0  0  0
  -21.0090  -29.3760   22.4330 N   0  0  0  0  0  0  0  0  0  0  0  0
  -23.0620  -28.8540   23.2280 O   0  0  0  0  0  0  0  0  0  0  0  0
  -20.4950  -29.9530   21.7820 H   0  0  0  0  0  0  0  0  0  0  0  0
  -17.6580  -28.1480   23.0000 C   0  0  0  0  0  0  0  0  0  0  0  0
  -20.2160  -28.4450   23.2370 C   0  0  0  0  0  3  0  0  0  0  0  0
  -20.3310  -27.0060   22.6870 C   0  0  0  0  0  2  0  0  0  0  0  0
  -19.2190  -26.6430   21.6970 C   0  0  0  0  0  2  0  0  0  0  0  0
  -17.8420  -26.7860   22.3550 C   0  0  0  0  0  2  0  0  0  0  0  0
  -18.7710  -28.9340   23.3980 C   0  0  0  0  0  0  0  0  0  0  0  0
  -18.5460  -30.2100   23.9590 C   0  0  0  0  0  3  0  0  0  0  0  0
  -17.2380  -30.7000   24.1290 C   0  0  0  0  0  3  0  0  0  0  0  0
  -16.1380  -29.9100   23.7520 C   0  0  0  0  0  3  0  0  0  0  0  0
  -16.3470  -28.6370   23.1910 C   0  0  0  0  0  3  0  0  0  0  0  0
  -25.8500  -32.2430   23.5280 C   0  0  0  0  0  3  0  0  0  0  0  0
  -25.6860  -33.6060   24.0520 N   0  0  0  0  0  0  0  0  0  0  0  0
  -26.0130  -34.7180   23.3820 C   0  0  0  0  0  0  0  0  0  0  0  0
  -26.5590  -34.7010   22.2750 O   0  0  0  0  0  0  0  0  0  0  0  0
  -25.1840  -33.6980   24.9210 H   0  0  0  0  0  0  0  0  0  0  0  0
  -24.3800  -36.6210   23.4440 C   0  0  0  0  0  1  0  0  0  0  0  0
  -25.6800  -36.0660   24.0460 C   0  0  0  0  0  3  0  0  0  0  0  0
  -27.9370  -36.7400   24.7300 C   0  0  0  0  0  1  0  0  0  0  0  0
  -26.7640  -37.0670   23.9240 N   0  0  0  0  0  0  0  0  0  0  0  0
  -26.4400  -37.9900   24.2000 H   0  0  0  0  0  0  0  0  0  0  0  0
  -26.4890  -31.2950   24.6130 C   0  0  1  0  0  0  0  0  0  0  0  0
  -25.5440  -30.9910   25.8000 C   0  0  0  0  0  1  0  0  0  0  0  0
  -26.9040  -29.9460   23.9780 C   0  0  0  0  0  1  0  0  0  0  0  0
  -27.7740  -31.9360   25.1830 C   0  0  0  0  0  1  0  0  0  0  0  0
  1 53  1  0
  2  3  1  0
  3  6  1  0
  3  1  1  0
  4 14  1  0
  4  6  1  0
  5  2  1  0
  5  4  1  0
  6  7  1  0
 11  8  1  6
 10 11  1  0
 11  9  1  0
 11  5  1  0
 14 13  1  6
 14 15  1  0
 14 12  1  0
 15 21  1  0
 16 21  1  0
 17 18  1  0
 17 16  1  0
 19 18  1  0
 19 26  1  0
 19 20  1  0
 21 20  1  0
 22 15  2  0
 23 24  2  0
 24 25  1  0
 24 43  1  0
 25 28  1  0
 26 23  1  0
 26 27  1  0
 27 25  2  0
 28 29  1  0
 29 30  2  0
 31 34  1  0
 31 30  1  0
 32 31  2  0
 33 32  1  0
 33 28  2  0
 34 35  1  0
 35 36  1  0
 36 37  2  0
 38 37  1  0
 38 42  1  0
 39 38  2  0
 40 35  2  0
 40 39  1  0
 41 40  1  0
 43 44  1  0
 44 47  1  0
 44 46  1  0
 45 43  2  0
 48 23  1  0
 49 48  1  0
 50 48  1  0
 53 52  1  1
 53 51  1  0
 56 54  1  6
 56 55  1  0
 56 53  1  0
 57 56  1  0
 58 57  1  0
 59 58  1  0
 60 62  1  0
 60 59  1  0
 61 72  2  0
 62 67  1  0
 63 71  1  0
 63 73  1  0
 64 70  1  0
 64 66  1  0
 65 71  1  0
 66 65  1  0
 67 66  2  0
 68 69  1  0
 68 62  2  0
 69 64  2  0
 70 63  1  0
 71 61  1  0
 73 75  2  0
 74 73  1  0
 76 74  1  0
 77 86  2  0
 77 82  1  0
 78 74  1  0
 78 82  1  0
 79 78  1  0
 80 81  1  0
 80 79  1  0
 81 77  1  0
 82 83  2  0
 83 84  1  0
 85 84  2  0
 86 85  1  0
 87 61  1  0
 87 88  1  0
 87 97  1  0
 88 91  1  0
 89 93  1  0
 89 88  1  0
 90 89  2  0
 93 92  1  0
 95 93  1  0
 95 96  1  0
 95 94  1  0
 97100  1  1
 97 98  1  0
 99 97  1  0
M  ISO  4  14 100  15 100  59 101  60 101
M  END
>  <TORSDO>  (7) 
F 24

>  <SCORE>  (7) 
-10.656

>  <name>  (7) 
7

>  <ligand_id>  (7) 
7

>  <original_smiles>  (7) 
[H]c1c([H])c([H])c2c(c1[H])C([H])([H])C([H])([H])C([H])([H])C2([H])N([H])C(=O)C1([H])N(C(=O)C([H])(N([H])C(=O)C([H])(N([H])C([H])([H])[H])C([H])([H])[H])C(C([H])([H])[H])(C([H])([H])[H])C([H])([H])[H])C([H])([H])c2c([H])c(OC([H])([H])C([H])([H])C([H])([H])C(C([H])([H])[H])(C([H])([H])[H])C(C([H])([H])[H])(C([H])([H])[H])C([H])([H])c3c([H])n(C(C([H])([H])[H])(C([H])([H])[H])C([H])([H])[H])c(C(C(=O)N4C([H])([H])C([H])([H])C([H])([H])C([H])(n5nc(-c6c([H])c([H])c(Oc7c([H])c([H])c(F)c([H])c7F)c([H])c6[H])c(C(=O)N([H])[H])c5N([H])[H])C4([H])[H])(C([H])([H])[H])C([H])([H])[H])[n+]3[H])c([H])c([H])c2C1([H])[H]

>  <smiles>  (7) 
[H]c1c([H])c([H])c2c(c1[H])C([H])([H])C([H])([H])C([H])([H])C2([H])N([H])C(=O)C1([H])N(C(=O)C([H])(N([H])C(=O)C([H])(N([H])C([H])([H])[H])C([H])([H])[H])C(C([H])([H])[H])(C([H])([H])[H])C([H])([H])[H])C([H])([H])c2c([H])c(OC([H])([H])C([H])([H])C([H])([H])C(C([H])([H])[H])(C([H])([H])[H])C(C([H])([H])[H])(C([H])([H])[H])C([H])([H])c3c([H])n(C(C([H])([H])[H])(C([H])([H])[H])C([H])([H])[H])c(C(C(=O)N4C([H])([H])C([H])([H])C([H])([H])C([H])(n5nc(-c6c([H])c([H])c(Oc7c([H])c([H])c(F)c([H])c7F)c([H])c6[H])c(C(=O)N([H])[H])c5N([H])[H])C4([H])[H])(C([H])([H])[H])C([H])([H])[H])[n+]3[H])c([H])c([H])c2C1([H])[H]

$$$$
8:0:0
     RDKit          3D

 90 98  0  0  1  0  0  0  0  0999 V2000
  -28.8910  -21.2050   22.1150 C   0  0  0  0  0  1  0  0  0  0  0  0
  -27.5600  -21.0830   20.0160 C   0  0  0  0  0  1  0  0  0  0  0  0
  -28.9960  -21.1850   20.5700 C   0  0  2  0  0  0  0  0  0  0  0  0
  -30.0850  -19.2300   18.9040 C   0  0  0  0  0  3  0  0  0  0  0  0
  -30.0230  -18.7610   20.9980 C   0  0  0  0  0  3  0  0  0  0  0  0
  -29.7130  -19.8220   20.1630 C   0  0  0  0  0  0  0  0  0  0  0  0
  -30.4480  -17.9280   18.9860 N   0  0  0  0  0  0  0  0  0  0  0  0
  -30.4050  -17.6030   20.3050 N   0  0  0  0  0  0  0  0  0  0  0  0
  -29.3850  -15.9770   21.8490 C   0  0  0  0  0  1  0  0  0  0  0  0
  -30.5810  -16.2190   20.9190 C   0  0  0  0  0  3  0  0  0  0  0  0
  -31.1130  -14.9210   20.1160 C   0  0  0  0  0  0  0  0  0  0  0  0
  -30.8420  -12.7320   18.9420 C   0  0  0  0  0  2  0  0  0  0  0  0
  -29.8330  -12.8990   17.7770 C   0  0  0  0  0  2  0  0  0  0  0  0
  -28.3680  -12.7800   18.2470 C   0  0  0  0  0  2  0  0  0  0  0  0
  -28.1000  -13.5560   19.5590 C   0  0  0  0  0  3  0  0  0  0  0  0
  -29.2010  -13.2230   20.5900 C   0  0  0  0  0  2  0  0  0  0  0  0
  -30.4740  -13.6940   20.0080 N   0  0  0  0  0  0  0  0  0  0  0  0
  -32.2100  -15.0450   19.5580 O   0  0  0  0  0  0  0  0  0  0  0  0
  -25.7440  -14.2240   20.3250 C   0  0  0  0  0  0  0  0  0  0  0  0
  -24.6610  -13.4790   20.7110 C   0  0  0  0  0  0  0  0  0  0  0  0
  -25.0760  -12.1150   20.6380 C   0  0  0  0  0  0  0  0  0  0  0  0
  -26.7530  -13.3110   20.0600 N   0  0  0  0  0  0  0  0  0  0  0  0
  -26.3550  -12.0350   20.2940 N   0  0  0  0  0  0  0  0  0  0  0  0
  -24.3140  -10.8740   20.8250 C   0  0  0  0  0  0  0  0  0  0  0  0
  -24.7080   -9.8980   21.7640 C   0  0  0  0  0  3  0  0  0  0  0  0
  -23.9460   -8.7210   21.9340 C   0  0  0  0  0  3  0  0  0  0  0  0
  -22.7780   -8.5130   21.1620 C   0  0  0  0  0  0  0  0  0  0  0  0
  -22.4060   -9.4800   20.2120 C   0  0  0  0  0  3  0  0  0  0  0  0
  -23.1670  -10.6470   20.0420 C   0  0  0  0  0  3  0  0  0  0  0  0
  -21.9890   -7.3900   21.2450 O   0  0  0  0  0  0  0  0  0  0  0  0
  -21.8490   -6.6920   22.4170 C   0  0  0  0  0  0  0  0  0  0  0  0
  -21.3660   -7.3050   23.5950 C   0  0  0  0  0  3  0  0  0  0  0  0
  -21.1730   -6.5360   24.7590 C   0  0  0  0  0  3  0  0  0  0  0  0
  -21.4480   -5.1550   24.7480 C   0  0  0  0  0  0  0  0  0  0  0  0
  -21.9200   -4.5440   23.5740 C   0  0  0  0  0  3  0  0  0  0  0  0
  -22.1170   -5.3090   22.4120 C   0  0  0  0  0  0  0  0  0  0  0  0
  -22.5520   -4.7090   21.2780 F   0  0  0  0  0  0  0  0  0  0  0  0
  -21.2550   -4.4160   25.8650 F   0  0  0  0  0  0  0  0  0  0  0  0
  -23.2900  -14.0020   21.0270 C   0  0  0  0  0  0  0  0  0  0  0  0
  -22.5660  -13.3240   21.9130 N   0  0  0  0  0  0  0  0  0  0  0  0
  -22.8740  -15.0480   20.5320 O   0  0  0  0  0  0  0  0  0  0  0  0
  -22.9190  -12.4860   22.3470 H   0  0  0  0  0  0  0  0  0  0  0  0
  -21.6440  -13.6570   22.1560 H   0  0  0  0  0  0  0  0  0  0  0  0
  -25.9350  -15.5920   20.1600 N   0  0  0  0  0  0  0  0  0  0  0  0
  -25.1900  -16.2570   20.3360 H   0  0  0  0  0  0  0  0  0  0  0  0
  -26.7880  -16.0310   19.8330 H   0  0  0  0  0  0  0  0  0  0  0  0
  -29.5860  -22.5990   20.0630 C   0  0  0  0  0  2  0  0  0  0  0  0
  -29.0090  -23.9920   20.6620 C   0  0  0  0  0  3  0  0  0  0  0  0
  -28.9940  -25.3000   19.7330 C   0  0  0  0  0  3  0  0  0  0  0  0
  -28.8160  -26.6740   20.2950 O   0  0  0  0  0  0  0  0  0  0  0  0
  -24.6720  -31.8160   23.1960 C   0  0  0  0  0  0  0  0  0  0  0  0
  -27.6370  -27.4390   20.1790 C   0  0  0  0  0  0  0  0  0  0  0  0
  -23.6060  -30.3740   21.5030 C   0  0  0  0  0  3  0  0  0  0  0  0
  -25.1870  -28.9310   20.1040 C   0  0  0  0  0  0  0  0  0  0  0  0
  -26.1280  -30.8370   21.4070 C   0  0  0  0  0  2  0  0  0  0  0  0
  -26.3060  -29.4750   20.7440 C   0  0  0  0  0  0  0  0  0  0  0  0
  -27.5310  -28.7390   20.7720 C   0  0  0  0  0  3  0  0  0  0  0  0
  -26.4870  -26.9530   19.5140 C   0  0  0  0  0  3  0  0  0  0  0  0
  -25.2810  -27.6780   19.4800 C   0  0  0  0  0  3  0  0  0  0  0  0
  -23.9020  -29.7350   20.1210 C   0  0  0  0  0  2  0  0  0  0  0  0
  -24.8180  -31.0260   22.0940 N   0  0  0  0  0  0  0  0  0  0  0  0
  -23.5570  -32.0200   23.7000 O   0  0  0  0  0  0  0  0  0  0  0  0
  -22.9750  -29.3040   22.4290 C   0  0  0  0  0  0  0  0  0  0  0  0
  -21.6640  -29.0590   22.2630 N   0  0  0  0  0  0  0  0  0  0  0  0
  -23.6660  -28.7010   23.2530 O   0  0  0  0  0  0  0  0  0  0  0  0
  -21.1600  -29.6070   21.5800 H   0  0  0  0  0  0  0  0  0  0  0  0
  -18.3390  -27.6950   22.6810 C   0  0  0  0  0  0  0  0  0  0  0  0
  -20.8780  -28.0630   22.9970 C   0  0  0  0  0  3  0  0  0  0  0  0
  -21.0550  -26.6530   22.3850 C   0  0  0  0  0  2  0  0  0  0  0  0
  -19.9830  -26.3060   21.3470 C   0  0  0  0  0  2  0  0  0  0  0  0
  -18.5890  -26.3700   21.9790 C   0  0  0  0  0  2  0  0  0  0  0  0
  -19.4150  -28.4960   23.1470 C   0  0  0  0  0  0  0  0  0  0  0  0
  -19.1340  -29.7320   23.7660 C   0  0  0  0  0  3  0  0  0  0  0  0
  -17.8060  -30.1750   23.9220 C   0  0  0  0  0  3  0  0  0  0  0  0
  -16.7430  -29.3710   23.4720 C   0  0  0  0  0  3  0  0  0  0  0  0
  -17.0090  -28.1340   22.8570 C   0  0  0  0  0  3  0  0  0  0  0  0
  -25.8940  -32.5160   23.8650 C   0  0  0  0  0  3  0  0  0  0  0  0
  -25.5050  -33.9010   24.1670 N   0  0  0  0  0  0  0  0  0  0  0  0
  -25.8210  -34.9620   23.4130 C   0  0  0  0  0  0  0  0  0  0  0  0
  -26.5400  -34.8820   22.4130 O   0  0  0  0  0  0  0  0  0  0  0  0
  -24.8670  -34.0340   24.9380 H   0  0  0  0  0  0  0  0  0  0  0  0
  -24.0260  -36.6670   22.9670 C   0  0  0  0  0  1  0  0  0  0  0  0
  -25.2480  -36.3290   23.8360 C   0  0  0  0  0  3  0  0  0  0  0  0
  -27.2940  -37.3210   24.7550 C   0  0  0  0  0  1  0  0  0  0  0  0
  -26.2310  -37.4310   23.7610 N   0  0  0  0  0  0  0  0  0  0  0  0
  -25.7740  -38.3300   23.8860 H   0  0  0  0  0  0  0  0  0  0  0  0
  -26.3900  -31.7840   25.1710 C   0  0  1  0  0  0  0  0  0  0  0  0
  -25.2590  -31.4830   26.1840 C   0  0  0  0  0  1  0  0  0  0  0  0
  -27.0700  -30.4420   24.8210 C   0  0  0  0  0  1  0  0  0  0  0  0
  -27.4550  -32.6460   25.8850 C   0  0  0  0  0  1  0  0  0  0  0  0
  3  2  1  6
  3  1  1  0
  4  7  2  0
  4  6  1  0
  6  3  1  0
  6  5  2  0
  7  8  1  0
  8 10  1  0
  8  5  1  0
 10  9  1  0
 11 10  1  0
 12 17  1  0
 13 14  1  0
 13 12  1  0
 15 14  1  0
 15 22  1  0
 15 16  1  0
 17 11  1  0
 17 16  1  0
 18 11  2  0
 19 20  2  0
 20 39  1  0
 21 20  1  0
 21 24  1  0
 22 23  1  0
 22 19  1  0
 23 21  2  0
 24 25  1  0
 25 26  2  0
 27 30  1  0
 27 26  1  0
 28 27  2  0
 29 28  1  0
 29 24  2  0
 30 31  1  0
 31 32  1  0
 32 33  2  0
 34 33  1  0
 34 38  1  0
 35 34  2  0
 36 31  2  0
 36 35  1  0
 37 36  1  0
 39 40  1  0
 40 43  1  0
 40 42  1  0
 41 39  2  0
 44 19  1  0
 44 45  1  0
 46 44  1  0
 47  3  1  0
 47 48  1  0
 49 50  1  0
 49 48  2  0
 51 62  2  0
 52 50  1  0
 52 57  1  0
 53 61  1  0
 53 63  1  0
 54 60  1  0
 54 56  1  0
 55 61  1  0
 56 57  2  0
 56 55  1  0
 58 52  2  0
 59 58  1  0
 59 54  2  0
 60 53  1  0
 61 51  1  0
 63 65  2  0
 64 63  1  0
 66 64  1  0
 67 76  2  0
 67 72  1  0
 68 64  1  0
 68 72  1  0
 69 68  1  0
 70 71  1  0
 70 69  1  0
 71 67  1  0
 72 73  2  0
 73 74  1  0
 75 74  2  0
 76 75  1  0
 77 51  1  0
 77 78  1  0
 77 87  1  0
 78 81  1  0
 79 83  1  0
 79 78  1  0
 80 79  2  0
 83 82  1  0
 85 83  1  0
 85 86  1  0
 85 84  1  0
 87 90  1  1
 87 88  1  0
 89 87  1  0
M  ISO  4  10 100  11 100  49 101  50 101
M  END
>  <TORSDO>  (8) 
F 21

>  <SCORE>  (8) 
-11.934

>  <name>  (8) 
8

>  <ligand_id>  (8) 
8

>  <original_smiles>  (8) 
[H]c1nn(C([H])(C(=O)N2C([H])([H])C([H])([H])C([H])([H])C([H])(n3nc(-c4c([H])c([H])c(Oc5c([H])c([H])c(F)c([H])c5F)c([H])c4[H])c(C(=O)N([H])[H])c3N([H])[H])C2([H])[H])C([H])([H])[H])c([H])c1C(C([H])([H])[H])(C([H])([H])[H])C([H])([H])C([H])([H])C([H])([H])Oc1c([H])c([H])c2c(c1[H])C([H])([H])N(C(=O)C([H])(N([H])C(=O)C([H])(N([H])C([H])([H])[H])C([H])([H])[H])C(C([H])([H])[H])(C([H])([H])[H])C([H])([H])[H])C([H])(C(=O)N([H])C1([H])c3c([H])c([H])c([H])c([H])c3C([H])([H])C([H])([H])C1([H])[H])C2([H])[H]

>  <smiles>  (8) 
[H]c1nn(C([H])(C(=O)N2C([H])([H])C([H])([H])C([H])([H])C([H])(n3nc(-c4c([H])c([H])c(Oc5c([H])c([H])c(F)c([H])c5F)c([H])c4[H])c(C(=O)N([H])[H])c3N([H])[H])C2([H])[H])C([H])([H])[H])c([H])c1C(C([H])([H])[H])(C([H])([H])[H])C([H])([H])C([H])([H])C([H])([H])Oc1c([H])c([H])c2c(c1[H])C([H])([H])N(C(=O)C([H])(N([H])C(=O)C([H])(N([H])C([H])([H])[H])C([H])([H])[H])C(C([H])([H])[H])(C([H])([H])[H])C([H])([H])[H])C([H])(C(=O)N([H])C1([H])c3c([H])c([H])c([H])c([H])c3C([H])([H])C([H])([H])C1([H])[H])C2([H])[H]

$$$$
9:0:0
     RDKit          3D

100108  0  0  1  0  0  0  0  0999 V2000
  -29.3510  -21.7170   20.6270 C   0  0  0  0  0  3  0  0  0  0  0  0
  -28.7040  -21.6670   19.4270 C   0  0  0  0  0  0  0  0  0  0  0  0
  -29.6450  -19.6310   19.8450 C   0  0  0  0  0  3  0  0  0  0  0  0
  -29.8960  -20.4710   20.8860 N   0  0  0  0  0  0  0  0  0  0  0  0
  -28.9260  -20.3790   18.9840 N   0  0  0  0  0  0  0  0  0  0  0  0
  -28.5970  -20.0280   18.0930 H   0  0  0  0  0  0  0  0  0  0  0  0
  -31.5560  -18.2960   18.9700 C   0  0  0  0  0  1  0  0  0  0  0  0
  -29.2250  -17.6490   18.3300 C   0  0  0  0  0  1  0  0  0  0  0  0
  -30.1070  -18.1830   19.4850 C   0  0  2  0  0  0  0  0  0  0  0  0
  -30.0720  -17.1340   20.6620 C   0  0  0  0  0  2  0  0  0  0  0  0
  -30.7200  -14.6590   20.0580 C   0  0  0  0  0  0  0  0  0  0  0  0
  -30.4690  -12.3870   19.1010 C   0  0  0  0  0  2  0  0  0  0  0  0
  -29.4920  -12.4540   17.9070 C   0  0  0  0  0  2  0  0  0  0  0  0
  -28.0270  -12.3430   18.3800 C   0  0  0  0  0  2  0  0  0  0  0  0
  -27.7040  -13.2940   19.5610 C   0  0  0  0  0  3  0  0  0  0  0  0
  -28.7820  -13.1710   20.6610 C   0  0  0  0  0  2  0  0  0  0  0  0
  -30.0890  -13.4520   20.0400 N   0  0  0  0  0  0  0  0  0  0  0  0
  -31.8700  -14.8230   19.6460 O   0  0  0  0  0  0  0  0  0  0  0  0
  -29.9060  -15.6800   20.4040 N   0  0  0  0  0  0  0  0  0  0  0  0
  -28.9800  -15.3490   20.6300 H   0  0  0  0  0  0  0  0  0  0  0  0
  -25.3560  -13.9910   20.3500 C   0  0  0  0  0  0  0  0  0  0  0  0
  -24.2730  -13.2590   20.7550 C   0  0  0  0  0  0  0  0  0  0  0  0
  -24.6850  -11.8910   20.7140 C   0  0  0  0  0  0  0  0  0  0  0  0
  -26.3600  -13.0720   20.0860 N   0  0  0  0  0  0  0  0  0  0  0  0
  -25.9620  -11.8040   20.3640 N   0  0  0  0  0  0  0  0  0  0  0  0
  -23.9220  -10.6550   20.9300 C   0  0  0  0  0  0  0  0  0  0  0  0
  -24.3520   -9.6730   21.8490 C   0  0  0  0  0  3  0  0  0  0  0  0
  -23.5930   -8.5010   22.0500 C   0  0  0  0  0  3  0  0  0  0  0  0
  -22.3880   -8.3030   21.3330 C   0  0  0  0  0  0  0  0  0  0  0  0
  -21.9770   -9.2750   20.4040 C   0  0  0  0  0  3  0  0  0  0  0  0
  -22.7370  -10.4380   20.1990 C   0  0  0  0  0  3  0  0  0  0  0  0
  -21.5970   -7.1850   21.4470 O   0  0  0  0  0  0  0  0  0  0  0  0
  -21.5620   -6.4430   22.6000 C   0  0  0  0  0  0  0  0  0  0  0  0
  -21.1760   -7.0050   23.8370 C   0  0  0  0  0  3  0  0  0  0  0  0
  -21.0860   -6.1910   24.9830 C   0  0  0  0  0  3  0  0  0  0  0  0
  -21.3700   -4.8150   24.8950 C   0  0  0  0  0  0  0  0  0  0  0  0
  -21.7500   -4.2530   23.6630 C   0  0  0  0  0  3  0  0  0  0  0  0
  -21.8420   -5.0640   22.5190 C   0  0  0  0  0  0  0  0  0  0  0  0
  -22.1870   -4.5130   21.3300 F   0  0  0  0  0  0  0  0  0  0  0  0
  -21.2770   -4.0310   25.9930 F   0  0  0  0  0  0  0  0  0  0  0  0
  -22.9020  -13.7840   21.0690 C   0  0  0  0  0  0  0  0  0  0  0  0
  -22.1830  -13.1220   21.9690 N   0  0  0  0  0  0  0  0  0  0  0  0
  -22.4800  -14.8170   20.5510 O   0  0  0  0  0  0  0  0  0  0  0  0
  -22.5380  -12.2850   22.4080 H   0  0  0  0  0  0  0  0  0  0  0  0
  -21.2640  -13.4560   22.2210 H   0  0  0  0  0  0  0  0  0  0  0  0
  -25.5640  -15.3550   20.1630 N   0  0  0  0  0  0  0  0  0  0  0  0
  -24.8200  -16.0320   20.2860 H   0  0  0  0  0  0  0  0  0  0  0  0
  -26.4010  -15.7600   19.7670 H   0  0  0  0  0  0  0  0  0  0  0  0
  -27.7360  -22.2650   17.2140 C   0  0  0  0  0  1  0  0  0  0  0  0
  -26.4160  -22.5650   19.2990 C   0  0  0  0  0  1  0  0  0  0  0  0
  -27.8290  -22.6840   18.6970 C   0  0  1  0  0  0  0  0  0  0  0  0
  -28.3970  -24.1650   18.7320 C   0  0  0  0  0  2  0  0  0  0  0  0
  -27.8070  -25.2610   19.6780 C   0  0  0  0  0  2  0  0  0  0  0  0
  -27.8730  -26.5950   19.0890 O   0  0  0  0  0  0  0  0  0  0  0  0
  -25.1290  -31.5920   23.4120 C   0  0  0  0  0  0  0  0  0  0  0  0
  -26.8200  -27.4600   19.3520 C   0  0  0  0  0  0  0  0  0  0  0  0
  -23.5650  -30.5650   21.7980 C   0  0  0  0  0  3  0  0  0  0  0  0
  -24.6340  -29.1730   19.9450 C   0  0  0  0  0  0  0  0  0  0  0  0
  -26.0650  -30.7410   21.2580 C   0  0  0  0  0  2  0  0  0  0  0  0
  -25.9150  -29.4860   20.4170 C   0  0  0  0  0  0  0  0  0  0  0  0
  -27.0130  -28.6430   20.1120 C   0  0  0  0  0  3  0  0  0  0  0  0
  -25.5250  -27.1910   18.8550 C   0  0  0  0  0  3  0  0  0  0  0  0
  -24.4370  -28.0290   19.1550 C   0  0  0  0  0  3  0  0  0  0  0  0
  -23.5050  -30.1100   20.3170 C   0  0  0  0  0  2  0  0  0  0  0  0
  -24.9470  -30.9710   22.2110 N   0  0  0  0  0  0  0  0  0  0  0  0
  -24.1710  -31.8580   24.1490 O   0  0  0  0  0  0  0  0  0  0  0  0
  -22.9610  -29.4540   22.6880 C   0  0  0  0  0  0  0  0  0  0  0  0
  -21.6670  -29.1560   22.4820 N   0  0  0  0  0  0  0  0  0  0  0  0
  -23.6560  -28.8640   23.5200 O   0  0  0  0  0  0  0  0  0  0  0  0
  -21.1620  -29.6940   21.7910 H   0  0  0  0  0  0  0  0  0  0  0  0
  -18.4820  -27.4480   22.5680 C   0  0  0  0  0  0  0  0  0  0  0  0
  -20.9020  -28.1210   23.1780 C   0  0  0  0  0  3  0  0  0  0  0  0
  -21.3070  -26.7080   22.6960 C   0  0  0  0  0  2  0  0  0  0  0  0
  -20.4280  -26.1830   21.5570 C   0  0  0  0  0  2  0  0  0  0  0  0
  -18.9620  -26.1250   21.9920 C   0  0  0  0  0  2  0  0  0  0  0  0
  -19.3940  -28.3920   23.1100 C   0  0  0  0  0  0  0  0  0  0  0  0
  -18.9000  -29.6200   23.5980 C   0  0  0  0  0  3  0  0  0  0  0  0
  -17.5240  -29.9130   23.5510 C   0  0  0  0  0  3  0  0  0  0  0  0
  -16.6230  -28.9680   23.0290 C   0  0  0  0  0  3  0  0  0  0  0  0
  -17.1010  -27.7380   22.5440 C   0  0  0  0  0  3  0  0  0  0  0  0
  -26.5460  -32.0170   23.9050 C   0  0  0  0  0  3  0  0  0  0  0  0
  -26.4100  -33.3100   24.5880 N   0  0  0  0  0  0  0  0  0  0  0  0
  -26.6850  -34.4960   24.0320 C   0  0  0  0  0  0  0  0  0  0  0  0
  -27.1530  -34.6100   22.8960 O   0  0  0  0  0  0  0  0  0  0  0  0
  -25.9830  -33.2970   25.5040 H   0  0  0  0  0  0  0  0  0  0  0  0
  -25.0560  -36.3740   24.4200 C   0  0  0  0  0  1  0  0  0  0  0  0
  -26.3900  -35.7560   24.8680 C   0  0  0  0  0  3  0  0  0  0  0  0
  -28.6970  -36.3640   25.4480 C   0  0  0  0  0  1  0  0  0  0  0  0
  -27.4600  -36.7750   24.7920 N   0  0  0  0  0  0  0  0  0  0  0  0
  -27.1540  -37.6490   25.2150 H   0  0  0  0  0  0  0  0  0  0  0  0
  -27.2200  -30.9530   24.8540 C   0  0  1  0  0  0  0  0  0  0  0  0
  -26.2950  -30.4590   25.9920 C   0  0  0  0  0  1  0  0  0  0  0  0
  -27.6780  -29.7170   24.0470 C   0  0  0  0  0  1  0  0  0  0  0  0
  -28.4920  -31.5590   25.4940 C   0  0  0  0  0  1  0  0  0  0  0  0
  -30.6510  -20.1680   22.1220 C   0  0  0  0  0  2  0  0  0  0  0  0
  -30.4540  -21.2460   23.2160 C   0  0  0  0  0  2  0  0  0  0  0  0
  -30.9940  -19.7580   25.2130 C   0  0  0  0  0  1  0  0  0  0  0  0
  -30.9190  -22.2380   25.4580 C   0  0  0  0  0  1  0  0  0  0  0  0
  -32.8040  -21.1950   24.1870 C   0  0  0  0  0  1  0  0  0  0  0  0
  -31.3000  -21.0930   24.5020 C   0  0  2  0  0  0  0  0  0  0  0  0
  1  4  1  0
  2  1  2  0
  3  9  1  0
  3  4  1  0
  4 95  1  0
  5  2  1  0
  5  3  1  0
  6  5  1  0
  9  7  1  6
  8  9  1  0
  9 10  1  0
 11 19  1  0
 12 17  1  0
 13 14  1  0
 13 12  1  0
 15 14  1  0
 15 24  1  0
 15 16  1  0
 17 11  1  0
 17 16  1  0
 18 11  2  0
 19 20  1  0
 19 10  1  0
 21 22  2  0
 22 41  1  0
 23 22  1  0
 23 26  1  0
 24 21  1  0
 24 25  1  0
 25 23  2  0
 26 27  1  0
 27 28  2  0
 29 32  1  0
 29 28  1  0
 30 29  2  0
 31 30  1  0
 31 26  2  0
 32 33  1  0
 33 34  1  0
 34 35  2  0
 36 35  1  0
 36 40  1  0
 37 36  2  0
 38 33  2  0
 38 37  1  0
 39 38  1  0
 41 42  1  0
 42 45  1  0
 42 44  1  0
 43 41  2  0
 46 47  1  0
 46 21  1  0
 48 46  1  0
 51 49  1  6
 51 52  1  0
 51 50  1  0
 51  2  1  0
 52 53  1  0
 54 56  1  0
 54 53  1  0
 55 66  2  0
 56 61  1  0
 57 65  1  0
 57 67  1  0
 58 64  1  0
 58 60  1  0
 59 65  1  0
 60 59  1  0
 61 60  2  0
 62 63  1  0
 62 56  2  0
 63 58  2  0
 64 57  1  0
 65 55  1  0
 67 69  2  0
 68 67  1  0
 70 68  1  0
 71 76  1  0
 72 68  1  0
 73 72  1  0
 74 75  1  0
 74 73  1  0
 75 71  1  0
 76 72  1  0
 76 77  2  0
 78 77  1  0
 79 78  2  0
 80 71  2  0
 80 79  1  0
 81 55  1  0
 81 82  1  0
 81 91  1  0
 82 85  1  0
 83 82  1  0
 83 87  1  0
 84 83  2  0
 87 86  1  0
 89 87  1  0
 89 90  1  0
 89 88  1  0
 91 94  1  1
 91 92  1  0
 93 91  1  0
 95 96  1  0
 96100  1  0
100 99  1  6
100 97  1  0
100 98  1  0
M  ISO  4  11 100  19 100  53 101  54 101
M  END
>  <TORSDO>  (9) 
F 24

>  <SCORE>  (9) 
-9.115

>  <name>  (9) 
9

>  <ligand_id>  (9) 
9

>  <original_smiles>  (9) 
[H]c1c([H])c([H])c2c(c1[H])C([H])([H])C([H])([H])C([H])([H])C2([H])N([H])C(=O)C1([H])N(C(=O)C([H])(N([H])C(=O)C([H])(N([H])C([H])([H])[H])C([H])([H])[H])C(C([H])([H])[H])(C([H])([H])[H])C([H])([H])[H])C([H])([H])c2c([H])c(OC([H])([H])C([H])([H])C(c3c([H])n(C([H])([H])C([H])([H])C(C([H])([H])[H])(C([H])([H])[H])C([H])([H])[H])c(C(C([H])([H])[H])(C([H])([H])[H])C([H])([H])N([H])C(=O)N4C([H])([H])C([H])([H])C([H])([H])C([H])(n5nc(-c6c([H])c([H])c(Oc7c([H])c([H])c(F)c([H])c7F)c([H])c6[H])c(C(=O)N([H])[H])c5N([H])[H])C4([H])[H])[n+]3[H])(C([H])([H])[H])C([H])([H])[H])c([H])c([H])c2C1([H])[H]

>  <smiles>  (9) 
[H]c1c([H])c([H])c2c(c1[H])C([H])([H])C([H])([H])C([H])([H])C2([H])N([H])C(=O)C1([H])N(C(=O)C([H])(N([H])C(=O)C([H])(N([H])C([H])([H])[H])C([H])([H])[H])C(C([H])([H])[H])(C([H])([H])[H])C([H])([H])[H])C([H])([H])c2c([H])c(OC([H])([H])C([H])([H])C(c3c([H])n(C([H])([H])C([H])([H])C(C([H])([H])[H])(C([H])([H])[H])C([H])([H])[H])c(C(C([H])([H])[H])(C([H])([H])[H])C([H])([H])N([H])C(=O)N4C([H])([H])C([H])([H])C([H])([H])C([H])(n5nc(-c6c([H])c([H])c(Oc7c([H])c([H])c(F)c([H])c7F)c([H])c6[H])c(C(=O)N([H])[H])c5N([H])[H])C4([H])[H])[n+]3[H])(C([H])([H])[H])C([H])([H])[H])c([H])c([H])c2C1([H])[H]

$$$$
10:0:0
     RDKit          3D

100108  0  0  1  0  0  0  0  0999 V2000
  -30.3710  -20.0660   22.4220 C   0  0  0  0  0  3  0  0  0  0  0  0
  -30.5000  -19.1430   21.3510 C   0  0  0  0  0  3  0  0  0  0  0  0
  -30.6980  -21.8390   20.9730 C   0  0  0  0  0  3  0  0  0  0  0  0
  -30.9070  -20.9250   19.9060 C   0  0  0  0  0  0  0  0  0  0  0  0
  -30.4660  -21.4040   22.2360 N   0  0  0  0  0  0  0  0  0  0  0  0
  -30.8060  -19.5880   20.1060 N   0  0  0  0  0  0  0  0  0  0  0  0
  -28.6970  -17.4240   21.2230 C   0  0  0  0  0  1  0  0  0  0  0  0
  -30.2120  -17.6280   21.4710 C   0  0  2  0  0  0  0  0  0  0  0  0
  -30.5410  -17.0850   22.9010 C   0  0  2  0  0  0  0  0  0  0  0  0
  -29.8770  -17.7570   23.8450 F   0  0  0  0  0  0  0  0  0  0  0  0
  -31.8490  -17.1620   23.1510 F   0  0  0  0  0  0  0  0  0  0  0  0
  -30.1840  -15.8040   23.0150 F   0  0  0  0  0  0  0  0  0  0  0  0
  -31.0260  -16.8290   20.3970 C   0  0  0  0  0  2  0  0  0  0  0  0
  -31.2070  -14.4750   19.5390 C   0  0  0  0  0  0  0  0  0  0  0  0
  -30.7490  -12.3260   18.4160 C   0  0  0  0  0  2  0  0  0  0  0  0
  -29.6650  -12.5110   17.3350 C   0  0  0  0  0  2  0  0  0  0  0  0
  -28.2510  -12.3980   17.9350 C   0  0  0  0  0  2  0  0  0  0  0  0
  -28.0720  -13.2570   19.2150 C   0  0  0  0  0  3  0  0  0  0  0  0
  -29.2470  -13.0300   20.1960 C   0  0  0  0  0  2  0  0  0  0  0  0
  -30.5070  -13.3110   19.4810 N   0  0  0  0  0  0  0  0  0  0  0  0
  -32.1920  -14.7140   18.8360 O   0  0  0  0  0  0  0  0  0  0  0  0
  -30.7000  -15.3940   20.3680 N   0  0  0  0  0  0  0  0  0  0  0  0
  -29.9330  -15.0870   20.9480 H   0  0  0  0  0  0  0  0  0  0  0  0
  -25.8010  -13.9110   20.2460 C   0  0  0  0  0  0  0  0  0  0  0  0
  -24.7600  -13.1590   20.7160 C   0  0  0  0  0  0  0  0  0  0  0  0
  -25.1560  -11.7970   20.5560 C   0  0  0  0  0  0  0  0  0  0  0  0
  -26.7780  -13.0090   19.8470 N   0  0  0  0  0  0  0  0  0  0  0  0
  -26.3950  -11.7290   20.0850 N   0  0  0  0  0  0  0  0  0  0  0  0
  -24.4050  -10.5540   20.7690 C   0  0  0  0  0  0  0  0  0  0  0  0
  -24.8290   -9.5910   21.7110 C   0  0  0  0  0  3  0  0  0  0  0  0
  -24.0790   -8.4120   21.9160 C   0  0  0  0  0  3  0  0  0  0  0  0
  -22.8930   -8.1880   21.1770 C   0  0  0  0  0  0  0  0  0  0  0  0
  -22.4890   -9.1390   20.2230 C   0  0  0  0  0  3  0  0  0  0  0  0
  -23.2370  -10.3100   20.0190 C   0  0  0  0  0  3  0  0  0  0  0  0
  -22.1160   -7.0610   21.2880 O   0  0  0  0  0  0  0  0  0  0  0  0
  -21.9310   -6.4310   22.4920 C   0  0  0  0  0  0  0  0  0  0  0  0
  -21.4280   -7.1160   23.6200 C   0  0  0  0  0  3  0  0  0  0  0  0
  -21.1850   -6.4160   24.8180 C   0  0  0  0  0  3  0  0  0  0  0  0
  -21.4370   -5.0310   24.8880 C   0  0  0  0  0  0  0  0  0  0  0  0
  -21.9330   -4.3470   23.7640 C   0  0  0  0  0  3  0  0  0  0  0  0
  -22.1740   -5.0460   22.5690 C   0  0  0  0  0  0  0  0  0  0  0  0
  -22.6330   -4.3790   21.4820 F   0  0  0  0  0  0  0  0  0  0  0  0
  -21.1970   -4.3550   26.0350 F   0  0  0  0  0  0  0  0  0  0  0  0
  -23.4320  -13.6690   21.1960 C   0  0  0  0  0  0  0  0  0  0  0  0
  -22.8150  -12.9730   22.1430 N   0  0  0  0  0  0  0  0  0  0  0  0
  -22.9560  -14.7190   20.7640 O   0  0  0  0  0  0  0  0  0  0  0  0
  -23.2240  -12.1280   22.5160 H   0  0  0  0  0  0  0  0  0  0  0  0
  -21.9260  -13.2890   22.5030 H   0  0  0  0  0  0  0  0  0  0  0  0
  -25.9850  -15.2810   20.1000 N   0  0  0  0  0  0  0  0  0  0  0  0
  -25.2470  -15.9420   20.3190 H   0  0  0  0  0  0  0  0  0  0  0  0
  -26.7550  -15.7000   19.5980 H   0  0  0  0  0  0  0  0  0  0  0  0
  -30.7360  -23.3550   20.7820 C   0  0  0  0  0  2  0  0  0  0  0  0
  -29.3720  -24.0420   21.0340 C   0  0  0  0  0  2  0  0  0  0  0  0
  -29.4520  -25.5010   21.5400 C   0  0  0  0  0  2  0  0  0  0  0  0
  -30.0200  -26.5360   20.5500 C   0  0  0  0  0  2  0  0  0  0  0  0
  -29.1740  -26.6790   19.4130 O   0  0  0  0  0  0  0  0  0  0  0  0
  -24.9630  -31.2030   23.0460 C   0  0  0  0  0  0  0  0  0  0  0  0
  -27.9650  -27.3160   19.5820 C   0  0  0  0  0  0  0  0  0  0  0  0
  -23.8630  -29.8320   21.3030 C   0  0  0  0  0  3  0  0  0  0  0  0
  -25.4310  -28.5550   19.7490 C   0  0  0  0  0  0  0  0  0  0  0  0
  -26.3370  -30.4450   21.1110 C   0  0  0  0  0  2  0  0  0  0  0  0
  -26.5400  -29.1410   20.3720 C   0  0  0  0  0  0  0  0  0  0  0  0
  -27.8090  -28.5270   20.2960 C   0  0  0  0  0  3  0  0  0  0  0  0
  -26.8430  -26.7410   18.9540 C   0  0  0  0  0  3  0  0  0  0  0  0
  -25.5750  -27.3470   19.0420 C   0  0  0  0  0  3  0  0  0  0  0  0
  -24.1120  -29.2860   19.8720 C   0  0  0  0  0  2  0  0  0  0  0  0
  -25.0720  -30.5050   21.8800 N   0  0  0  0  0  0  0  0  0  0  0  0
  -23.8710  -31.3290   23.6170 O   0  0  0  0  0  0  0  0  0  0  0  0
  -23.3260  -28.6810   22.1820 C   0  0  0  0  0  0  0  0  0  0  0  0
  -22.0420  -28.3350   21.9950 N   0  0  0  0  0  0  0  0  0  0  0  0
  -24.0610  -28.1030   22.9870 O   0  0  0  0  0  0  0  0  0  0  0  0
  -21.5030  -28.8610   21.3190 H   0  0  0  0  0  0  0  0  0  0  0  0
  -18.8590  -26.6480   22.2500 C   0  0  0  0  0  0  0  0  0  0  0  0
  -21.3330  -27.2580   22.6820 C   0  0  0  0  0  3  0  0  0  0  0  0
  -21.6750  -25.8830   22.0600 C   0  0  0  0  0  2  0  0  0  0  0  0
  -20.6870  -25.4530   20.9720 C   0  0  0  0  0  2  0  0  0  0  0  0
  -19.2660  -25.3700   21.5370 C   0  0  0  0  0  2  0  0  0  0  0  0
  -19.8300  -27.5420   22.7730 C   0  0  0  0  0  0  0  0  0  0  0  0
  -19.3990  -28.7350   23.3940 C   0  0  0  0  0  3  0  0  0  0  0  0
  -18.0280  -29.0360   23.4990 C   0  0  0  0  0  3  0  0  0  0  0  0
  -17.0710  -28.1400   22.9940 C   0  0  0  0  0  3  0  0  0  0  0  0
  -17.4870  -26.9480   22.3750 C   0  0  0  0  0  3  0  0  0  0  0  0
  -26.1970  -31.8970   23.7030 C   0  0  0  0  0  3  0  0  0  0  0  0
  -26.7820  -31.0940   24.9300 C   0  0  1  0  0  0  0  0  0  0  0  0
  -25.7130  -30.6800   25.9690 C   0  0  0  0  0  1  0  0  0  0  0  0
  -27.4970  -29.8100   24.4490 C   0  0  0  0  0  1  0  0  0  0  0  0
  -27.8500  -31.9480   25.6530 C   0  0  0  0  0  1  0  0  0  0  0  0
  -25.7810  -33.2450   24.1130 N   0  0  0  0  0  0  0  0  0  0  0  0
  -26.0490  -34.3640   23.4260 C   0  0  0  0  0  0  0  0  0  0  0  0
  -26.7430  -34.3730   22.4050 O   0  0  0  0  0  0  0  0  0  0  0  0
  -25.1620  -33.3050   24.9070 H   0  0  0  0  0  0  0  0  0  0  0  0
  -24.1970  -36.0400   23.1410 C   0  0  0  0  0  1  0  0  0  0  0  0
  -25.4520  -35.6800   23.9530 C   0  0  0  0  0  3  0  0  0  0  0  0
  -27.5030  -36.6650   24.8770 C   0  0  0  0  0  1  0  0  0  0  0  0
  -26.4040  -36.8120   23.9260 N   0  0  0  0  0  0  0  0  0  0  0  0
  -25.9300  -37.6890   24.1220 H   0  0  0  0  0  0  0  0  0  0  0  0
  -31.2050  -21.3740   18.6350 O   0  0  0  0  0  0  0  0  0  0  0  0
  -31.4020  -21.1230   16.2750 C   0  0  0  0  0  1  0  0  0  0  0  0
  -33.0620  -20.0150   17.8250 C   0  0  0  0  0  1  0  0  0  0  0  0
  -31.5960  -20.4340   17.6290 C   0  0  0  0  0  3  0  0  0  0  0  0
  2  8  1  0
  2  1  1  0
  3 52  1  0
  3  5  1  0
  4  6  2  0
  4  3  1  0
  5  1  2  0
  6  2  1  0
  8  7  1  6
  8  9  1  0
  9 12  1  6
  9 11  1  0
  9 10  1  0
 13  8  1  0
 14 22  1  0
 15 20  1  0
 16 17  1  0
 16 15  1  0
 18 17  1  0
 18 27  1  0
 18 19  1  0
 20 14  1  0
 20 19  1  0
 21 14  2  0
 22 13  1  0
 22 23  1  0
 24 25  2  0
 25 44  1  0
 26 25  1  0
 26 29  1  0
 27 28  1  0
 27 24  1  0
 28 26  2  0
 29 30  1  0
 30 31  2  0
 32 35  1  0
 32 31  1  0
 33 32  2  0
 34 33  1  0
 34 29  2  0
 35 36  1  0
 36 41  2  0
 36 37  1  0
 37 38  2  0
 38 39  1  0
 39 43  1  0
 40 39  2  0
 41 40  1  0
 42 41  1  0
 44 45  1  0
 45 48  1  0
 45 47  1  0
 46 44  2  0
 49 24  1  0
 49 50  1  0
 51 49  1  0
 52 53  1  0
 53 54  1  0
 55 54  1  0
 56 58  1  0
 56 55  1  0
 57 68  2  0
 58 63  1  0
 59 67  1  0
 59 69  1  0
 60 66  1  0
 60 62  1  0
 61 67  1  0
 62 61  1  0
 63 62  2  0
 64 65  1  0
 64 58  2  0
 65 60  2  0
 66 59  1  0
 67 57  1  0
 69 71  2  0
 70 69  1  0
 72 70  1  0
 73 82  2  0
 73 78  1  0
 74 70  1  0
 74 78  1  0
 75 74  1  0
 76 77  1  0
 76 75  1  0
 77 73  1  0
 78 79  2  0
 79 80  1  0
 81 80  2  0
 82 81  1  0
 83 57  1  0
 83 88  1  0
 83 84  1  0
 84 87  1  1
 84 85  1  0
 86 84  1  0
 88 91  1  0
 89 93  1  0
 89 88  1  0
 90 89  2  0
 93 92  1  0
 95 93  1  0
 95 96  1  0
 95 94  1  0
 97  4  1  0
 98100  1  0
100 99  1  0
100 97  1  0
M  ISO  4  14 100  22 100  55 101  56 101
M  END
>  <TORSDO>  (10) 
F 25

>  <SCORE>  (10) 
-7.097

>  <name>  (10) 
10

>  <ligand_id>  (10) 
10

>  <original_smiles>  (10) 
[H]c1nc(C([H])([H])C([H])([H])C([H])([H])C([H])([H])Oc2c([H])c([H])c3c(c2[H])C([H])([H])N(C(=O)C([H])(N([H])C(=O)C([H])(N([H])C([H])([H])[H])C([H])([H])[H])C(C([H])([H])[H])(C([H])([H])[H])C([H])([H])[H])C([H])(C(=O)N([H])C2([H])c4c([H])c([H])c([H])c([H])c4C([H])([H])C([H])([H])C2([H])[H])C3([H])[H])c(OC([H])(C([H])([H])[H])C([H])([H])[H])nc1C(C([H])([H])[H])(C(F)(F)F)C([H])([H])N([H])C(=O)N1C([H])([H])C([H])([H])C([H])([H])C([H])(n2nc(-c3c([H])c([H])c(Oc4c([H])c([H])c(F)c([H])c4F)c([H])c3[H])c(C(=O)N([H])[H])c2N([H])[H])C1([H])[H]

>  <smiles>  (10) 
[H]c1nc(C([H])([H])C([H])([H])C([H])([H])C([H])([H])Oc2c([H])c([H])c3c(c2[H])C([H])([H])N(C(=O)C([H])(N([H])C(=O)C([H])(N([H])C([H])([H])[H])C([H])([H])[H])C(C([H])([H])[H])(C([H])([H])[H])C([H])([H])[H])C([H])(C(=O)N([H])C2([H])c4c([H])c([H])c([H])c([H])c4C([H])([H])C([H])([H])C2([H])[H])C3([H])[H])c(OC([H])(C([H])([H])[H])C([H])([H])[H])nc1C(C([H])([H])[H])(C(F)(F)F)C([H])([H])N([H])C(=O)N1C([H])([H])C([H])([H])C([H])([H])C([H])(n2nc(-c3c([H])c([H])c(Oc4c([H])c([H])c(F)c([H])c4F)c([H])c3[H])c(C(=O)N([H])[H])c2N([H])[H])C1([H])[H]

$$$$
11:0:0
     RDKit          3D

 95103  0  0  1  0  0  0  0  0999 V2000
  -30.8380  -20.4930   18.6770 C   0  0  0  0  0  3  0  0  0  0  0  0
  -31.4730  -19.2540   18.5610 C   0  0  0  0  0  0  0  0  0  0  0  0
  -30.0090  -20.6830   19.7890 C   0  0  0  0  0  0  0  0  0  0  0  0
  -30.5380  -18.5620   20.5380 C   0  0  0  0  0  0  0  0  0  0  0  0
  -31.3100  -18.2990   19.4890 N   0  0  0  0  0  0  0  0  0  0  0  0
  -29.8630  -19.7090   20.7130 N   0  0  0  0  0  0  0  0  0  0  0  0
  -28.9700  -17.0700   21.8690 C   0  0  0  0  0  1  0  0  0  0  0  0
  -30.9940  -18.1130   22.9550 C   0  0  0  0  0  1  0  0  0  0  0  0
  -30.4420  -17.4840   21.6540 C   0  0  2  0  0  0  0  0  0  0  0  0
  -31.3300  -16.2020   21.3940 C   0  0  0  0  0  2  0  0  0  0  0  0
  -31.1120  -14.0940   20.0300 C   0  0  0  0  0  0  0  0  0  0  0  0
  -30.6110  -11.9930   18.8240 C   0  0  0  0  0  2  0  0  0  0  0  0
  -29.6280  -12.2530   17.6660 C   0  0  0  0  0  2  0  0  0  0  0  0
  -28.1690  -12.1990   18.1600 C   0  0  0  0  0  2  0  0  0  0  0  0
  -27.9380  -13.0540   19.4340 C   0  0  0  0  0  3  0  0  0  0  0  0
  -29.0200  -12.7570   20.4940 C   0  0  0  0  0  2  0  0  0  0  0  0
  -30.3400  -12.9850   19.8770 N   0  0  0  0  0  0  0  0  0  0  0  0
  -32.1710  -14.2660   19.4210 O   0  0  0  0  0  0  0  0  0  0  0  0
  -30.6340  -15.0020   20.8940 N   0  0  0  0  0  0  0  0  0  0  0  0
  -29.7490  -14.7800   21.3230 H   0  0  0  0  0  0  0  0  0  0  0  0
  -25.6100  -13.8090   20.2300 C   0  0  0  0  0  0  0  0  0  0  0  0
  -24.5150  -13.1040   20.6530 C   0  0  0  0  0  0  0  0  0  0  0  0
  -24.8940  -11.7270   20.6180 C   0  0  0  0  0  0  0  0  0  0  0  0
  -26.5910  -12.8660   19.9680 N   0  0  0  0  0  0  0  0  0  0  0  0
  -26.1650  -11.6090   20.2560 N   0  0  0  0  0  0  0  0  0  0  0  0
  -24.1040  -10.5120   20.8530 C   0  0  0  0  0  0  0  0  0  0  0  0
  -24.5040   -9.5420   21.8000 C   0  0  0  0  0  3  0  0  0  0  0  0
  -23.7180   -8.3910   22.0200 C   0  0  0  0  0  3  0  0  0  0  0  0
  -22.5180   -8.2000   21.2950 C   0  0  0  0  0  0  0  0  0  0  0  0
  -22.1370   -9.1570   20.3370 C   0  0  0  0  0  3  0  0  0  0  0  0
  -22.9220  -10.3000   20.1150 C   0  0  0  0  0  3  0  0  0  0  0  0
  -21.7050   -7.1010   21.4250 O   0  0  0  0  0  0  0  0  0  0  0  0
  -21.6210   -6.4020   22.6030 C   0  0  0  0  0  0  0  0  0  0  0  0
  -21.2370   -7.0220   23.8110 C   0  0  0  0  0  3  0  0  0  0  0  0
  -21.0970   -6.2520   24.9830 C   0  0  0  0  0  3  0  0  0  0  0  0
  -21.3310   -4.8640   24.9490 C   0  0  0  0  0  0  0  0  0  0  0  0
  -21.7080   -4.2450   23.7440 C   0  0  0  0  0  3  0  0  0  0  0  0
  -21.8500   -5.0110   22.5740 C   0  0  0  0  0  0  0  0  0  0  0  0
  -22.1930   -4.4050   21.4120 F   0  0  0  0  0  0  0  0  0  0  0  0
  -21.1890   -4.1240   26.0720 F   0  0  0  0  0  0  0  0  0  0  0  0
  -23.1600  -13.6650   20.9790 C   0  0  0  0  0  0  0  0  0  0  0  0
  -22.4370  -13.0300   21.8940 N   0  0  0  0  0  0  0  0  0  0  0  0
  -22.7550  -14.7030   20.4550 O   0  0  0  0  0  0  0  0  0  0  0  0
  -22.7770  -12.1900   22.3390 H   0  0  0  0  0  0  0  0  0  0  0  0
  -21.5280  -13.3880   22.1540 H   0  0  0  0  0  0  0  0  0  0  0  0
  -25.8470  -15.1650   20.0290 N   0  0  0  0  0  0  0  0  0  0  0  0
  -25.1270  -15.8670   20.1590 H   0  0  0  0  0  0  0  0  0  0  0  0
  -26.7070  -15.5450   19.6550 H   0  0  0  0  0  0  0  0  0  0  0  0
  -33.8840  -19.0610   17.8200 C   0  0  0  0  0  1  0  0  0  0  0  0
  -32.4110  -18.9410   17.4120 C   0  0  0  0  0  2  0  0  0  0  0  0
  -29.2640  -22.0040   19.9790 C   0  0  0  0  0  2  0  0  0  0  0  0
  -29.9010  -22.9330   21.0350 C   0  0  0  0  0  2  0  0  0  0  0  0
  -29.8530  -24.4510   20.7160 C   0  0  0  0  0  2  0  0  0  0  0  0
  -28.4560  -25.0510   20.4760 C   0  0  0  0  0  2  0  0  0  0  0  0
  -28.5650  -26.4780   20.3820 O   0  0  0  0  0  0  0  0  0  0  0  0
  -24.6470  -31.7210   23.1710 C   0  0  0  0  0  0  0  0  0  0  0  0
  -27.3860  -27.1910   20.3110 C   0  0  0  0  0  0  0  0  0  0  0  0
  -23.4970  -30.2820   21.5220 C   0  0  0  0  0  3  0  0  0  0  0  0
  -24.9950  -28.7020   20.1960 C   0  0  0  0  0  0  0  0  0  0  0  0
  -26.0310  -30.6260   21.4100 C   0  0  0  0  0  2  0  0  0  0  0  0
  -26.1340  -29.2390   20.8080 C   0  0  0  0  0  0  0  0  0  0  0  0
  -27.3330  -28.4940   20.8580 C   0  0  0  0  0  3  0  0  0  0  0  0
  -26.2270  -26.6650   19.6970 C   0  0  0  0  0  3  0  0  0  0  0  0
  -25.0360  -27.4130   19.6380 C   0  0  0  0  0  3  0  0  0  0  0  0
  -23.7560  -29.5670   20.1700 C   0  0  0  0  0  2  0  0  0  0  0  0
  -24.7410  -30.8920   22.0930 N   0  0  0  0  0  0  0  0  0  0  0  0
  -23.5470  -32.0120   23.6610 O   0  0  0  0  0  0  0  0  0  0  0  0
  -22.8070  -29.2860   22.4830 C   0  0  0  0  0  0  0  0  0  0  0  0
  -21.4830  -29.1260   22.3260 N   0  0  0  0  0  0  0  0  0  0  0  0
  -23.4590  -28.6630   23.3230 O   0  0  0  0  0  0  0  0  0  0  0  0
  -21.0190  -29.6800   21.6180 H   0  0  0  0  0  0  0  0  0  0  0  0
  -18.0720  -28.0220   22.7780 C   0  0  0  0  0  0  0  0  0  0  0  0
  -20.6300  -28.2160   23.0900 C   0  0  0  0  0  3  0  0  0  0  0  0
  -20.7060  -26.7780   22.5290 C   0  0  0  0  0  2  0  0  0  0  0  0
  -19.6130  -26.4740   21.4990 C   0  0  0  0  0  2  0  0  0  0  0  0
  -18.2240  -26.6610   22.1190 C   0  0  0  0  0  2  0  0  0  0  0  0
  -19.2040  -28.7580   23.2200 C   0  0  0  0  0  0  0  0  0  0  0  0
  -19.0100  -30.0320   23.7950 C   0  0  0  0  0  3  0  0  0  0  0  0
  -17.7170  -30.5710   23.9350 C   0  0  0  0  0  3  0  0  0  0  0  0
  -16.5990  -29.8320   23.5100 C   0  0  0  0  0  3  0  0  0  0  0  0
  -16.7780  -28.5590   22.9380 C   0  0  0  0  0  3  0  0  0  0  0  0
  -25.9120  -32.3620   23.8220 C   0  0  0  0  0  3  0  0  0  0  0  0
  -25.5770  -33.7510   24.1610 N   0  0  0  0  0  0  0  0  0  0  0  0
  -25.9000  -34.8150   23.4130 C   0  0  0  0  0  0  0  0  0  0  0  0
  -26.5810  -34.7310   22.3880 O   0  0  0  0  0  0  0  0  0  0  0  0
  -24.9740  -33.8890   24.9580 H   0  0  0  0  0  0  0  0  0  0  0  0
  -24.1350  -36.5720   23.0630 C   0  0  0  0  0  1  0  0  0  0  0  0
  -25.3830  -36.1910   23.8760 C   0  0  0  0  0  3  0  0  0  0  0  0
  -27.4960  -37.1110   24.7180 C   0  0  0  0  0  1  0  0  0  0  0  0
  -26.3940  -37.2650   23.7730 N   0  0  0  0  0  0  0  0  0  0  0  0
  -25.9690  -38.1750   23.9290 H   0  0  0  0  0  0  0  0  0  0  0  0
  -26.4190  -31.5830   25.0980 C   0  0  1  0  0  0  0  0  0  0  0  0
  -25.3110  -31.3110   26.1430 C   0  0  0  0  0  1  0  0  0  0  0  0
  -27.0350  -30.2230   24.6970 C   0  0  0  0  0  1  0  0  0  0  0  0
  -27.5440  -32.3900   25.7890 C   0  0  0  0  0  1  0  0  0  0  0  0
  1  3  1  0
  2  1  2  0
  2  5  1  0
  3 51  1  0
  3  6  2  0
  4  6  1  0
  4  9  1  0
  5  4  2  0
  9  7  1  1
  9  8  1  0
 10  9  1  0
 11 19  1  0
 12 17  1  0
 13 14  1  0
 13 12  1  0
 15 14  1  0
 15 24  1  0
 15 16  1  0
 17 11  1  0
 17 16  1  0
 18 11  2  0
 19 20  1  0
 19 10  1  0
 21 22  2  0
 22 41  1  0
 23 22  1  0
 23 26  1  0
 24 21  1  0
 24 25  1  0
 25 23  2  0
 26 27  1  0
 27 28  2  0
 29 32  1  0
 29 28  1  0
 30 29  2  0
 31 30  1  0
 31 26  2  0
 32 33  1  0
 33 34  1  0
 34 35  2  0
 36 35  1  0
 36 40  1  0
 37 36  2  0
 38 33  2  0
 38 37  1  0
 39 38  1  0
 41 42  1  0
 42 45  1  0
 42 44  1  0
 43 41  2  0
 46 47  1  0
 46 21  1  0
 48 46  1  0
 50 49  1  0
 50  2  1  0
 51 52  1  0
 53 52  1  0
 54 53  1  0
 55 54  1  0
 56 67  2  0
 57 55  1  0
 57 62  1  0
 58 66  1  0
 58 68  1  0
 59 61  1  0
 60 66  1  0
 61 62  2  0
 61 60  1  0
 63 57  2  0
 64 63  1  0
 64 59  2  0
 65 59  1  0
 65 58  1  0
 66 56  1  0
 68 70  2  0
 69 68  1  0
 71 69  1  0
 72 81  2  0
 72 77  1  0
 73 69  1  0
 73 77  1  0
 74 73  1  0
 75 76  1  0
 75 74  1  0
 76 72  1  0
 77 78  2  0
 78 79  1  0
 80 79  2  0
 81 80  1  0
 82 56  1  0
 82 83  1  0
 82 92  1  0
 83 86  1  0
 84 88  1  0
 84 83  1  0
 85 84  2  0
 88 87  1  0
 90 88  1  0
 90 91  1  0
 90 89  1  0
 92 95  1  1
 92 93  1  0
 94 92  1  0
M  ISO  4  11 100  19 100  54 101  55 101
M  END
>  <TORSDO>  (11) 
F 23

>  <SCORE>  (11) 
-11.411

>  <name>  (11) 
11

>  <ligand_id>  (11) 
11

>  <original_smiles>  (11) 
[H]c1c(C([H])([H])C([H])([H])[H])nc(C(C([H])([H])[H])(C([H])([H])[H])C([H])([H])N([H])C(=O)N2C([H])([H])C([H])([H])C([H])([H])C([H])(n3nc(-c4c([H])c([H])c(Oc5c([H])c([H])c(F)c([H])c5F)c([H])c4[H])c(C(=O)N([H])[H])c3N([H])[H])C2([H])[H])nc1C([H])([H])C([H])([H])C([H])([H])C([H])([H])Oc1c([H])c([H])c2c(c1[H])C([H])([H])N(C(=O)C([H])(N([H])C(=O)C([H])(N([H])C([H])([H])[H])C([H])([H])[H])C(C([H])([H])[H])(C([H])([H])[H])C([H])([H])[H])C([H])(C(=O)N([H])C1([H])c3c([H])c([H])c([H])c([H])c3C([H])([H])C([H])([H])C1([H])[H])C2([H])[H]

>  <smiles>  (11) 
[H]c1c(C([H])([H])C([H])([H])[H])nc(C(C([H])([H])[H])(C([H])([H])[H])C([H])([H])N([H])C(=O)N2C([H])([H])C([H])([H])C([H])([H])C([H])(n3nc(-c4c([H])c([H])c(Oc5c([H])c([H])c(F)c([H])c5F)c([H])c4[H])c(C(=O)N([H])[H])c3N([H])[H])C2([H])[H])nc1C([H])([H])C([H])([H])C([H])([H])C([H])([H])Oc1c([H])c([H])c2c(c1[H])C([H])([H])N(C(=O)C([H])(N([H])C(=O)C([H])(N([H])C([H])([H])[H])C([H])([H])[H])C(C([H])([H])[H])(C([H])([H])[H])C([H])([H])[H])C([H])(C(=O)N([H])C1([H])c3c([H])c([H])c([H])c([H])c3C([H])([H])C([H])([H])C1([H])[H])C2([H])[H]

$$$$
12:0:0
     RDKit          3D

 99108  0  0  1  0  0  0  0  0999 V2000
  -29.7040  -21.3680   19.4260 C   0  0  0  0  0  0  0  0  0  0  0  0
  -31.4930  -20.6300   18.3220 C   0  0  0  0  0  0  0  0  0  0  0  0
  -31.0300  -19.8280   20.3230 C   0  0  0  0  0  0  0  0  0  0  0  0
  -32.4080  -20.6860   17.1130 C   0  0  0  0  0  1  0  0  0  0  0  0
  -31.7810  -19.8450   22.5810 C   0  0  0  0  0  1  0  0  0  0  0  0
  -30.4160  -21.4130   18.3020 N   0  0  0  0  0  4  0  0  0  0  0  0
  -29.9550  -20.5790   20.4650 N   0  0  0  0  0  0  0  0  0  0  0  0
  -31.8620  -19.8110   19.2990 N   0  0  0  0  0  2  0  0  0  0  0  0
  -31.3960  -19.0440   21.4130 N   0  0  0  0  0  0  0  0  0  0  0  0
  -28.2630  -23.3390   21.7360 C   0  0  0  0  0  2  0  0  0  0  0  0
  -27.6740  -22.2550   20.8120 C   0  0  0  0  0  2  0  0  0  0  0  0
  -28.2850  -23.4100   18.6040 C   0  0  0  0  0  2  0  0  0  0  0  0
  -27.9140  -24.7710   21.2990 C   0  0  0  0  0  2  0  0  0  0  0  0
  -29.2380  -24.5540   19.0200 C   0  0  0  0  0  2  0  0  0  0  0  0
  -28.3390  -22.0880   19.4200 C   0  0  0  0  0  3  0  0  0  0  0  0
  -28.9020  -25.3910   20.2820 C   0  0  0  0  0  3  0  0  0  0  0  0
  -28.7680  -26.7950   19.9600 O   0  0  0  0  0  0  0  0  0  0  0  0
  -24.7080  -31.6720   23.1840 C   0  0  0  0  0  0  0  0  0  0  0  0
  -27.5490  -27.4460   19.9690 C   0  0  0  0  0  0  0  0  0  0  0  0
  -23.5720  -30.2930   21.4740 C   0  0  0  0  0  3  0  0  0  0  0  0
  -25.0950  -28.8690   20.0010 C   0  0  0  0  0  0  0  0  0  0  0  0
  -26.0870  -30.7390   21.3310 C   0  0  0  0  0  2  0  0  0  0  0  0
  -26.2220  -29.4000   20.6400 C   0  0  0  0  0  0  0  0  0  0  0  0
  -27.4470  -28.6950   20.6220 C   0  0  0  0  0  3  0  0  0  0  0  0
  -26.4140  -26.9470   19.2880 C   0  0  0  0  0  3  0  0  0  0  0  0
  -25.1890  -27.6430   19.3170 C   0  0  0  0  0  3  0  0  0  0  0  0
  -23.8180  -29.6780   20.0710 C   0  0  0  0  0  2  0  0  0  0  0  0
  -24.8070  -30.9150   22.0540 N   0  0  0  0  0  0  0  0  0  0  0  0
  -23.6120  -31.8900   23.7170 O   0  0  0  0  0  0  0  0  0  0  0  0
  -22.9420  -29.2150   22.3820 C   0  0  0  0  0  0  0  0  0  0  0  0
  -21.6240  -29.0060   22.2360 N   0  0  0  0  0  0  0  0  0  0  0  0
  -23.6390  -28.5750   23.1720 O   0  0  0  0  0  0  0  0  0  0  0  0
  -21.1300  -29.5740   21.5640 H   0  0  0  0  0  0  0  0  0  0  0  0
  -18.2790  -27.7150   22.6480 C   0  0  0  0  0  0  0  0  0  0  0  0
  -20.8270  -28.0190   22.9550 C   0  0  0  0  0  3  0  0  0  0  0  0
  -20.9690  -26.6200   22.3150 C   0  0  0  0  0  2  0  0  0  0  0  0
  -19.8840  -26.3180   21.2780 C   0  0  0  0  0  2  0  0  0  0  0  0
  -18.4940  -26.4020   21.9140 C   0  0  0  0  0  2  0  0  0  0  0  0
  -19.3760  -28.4830   23.1230 C   0  0  0  0  0  0  0  0  0  0  0  0
  -19.1240  -29.7140   23.7670 C   0  0  0  0  0  3  0  0  0  0  0  0
  -17.8080  -30.1780   23.9450 C   0  0  0  0  0  3  0  0  0  0  0  0
  -16.7240  -29.4070   23.4900 C   0  0  0  0  0  3  0  0  0  0  0  0
  -16.9600  -28.1780   22.8460 C   0  0  0  0  0  3  0  0  0  0  0  0
  -25.9650  -32.3160   23.8490 C   0  0  0  0  0  3  0  0  0  0  0  0
  -26.4850  -31.5190   25.1100 C   0  0  1  0  0  0  0  0  0  0  0  0
  -25.3810  -31.2220   26.1490 C   0  0  0  0  0  1  0  0  0  0  0  0
  -27.1090  -30.1680   24.6870 C   0  0  0  0  0  1  0  0  0  0  0  0
  -27.6050  -32.3210   25.8150 C   0  0  0  0  0  1  0  0  0  0  0  0
  -25.6170  -33.6970   24.2110 N   0  0  0  0  0  0  0  0  0  0  0  0
  -25.9450  -34.7800   23.4930 C   0  0  0  0  0  0  0  0  0  0  0  0
  -26.6480  -34.7240   22.4800 O   0  0  0  0  0  0  0  0  0  0  0  0
  -24.9990  -33.8190   25.0000 H   0  0  0  0  0  0  0  0  0  0  0  0
  -24.1790  -36.5350   23.1430 C   0  0  0  0  0  1  0  0  0  0  0  0
  -25.4080  -36.1400   23.9750 C   0  0  0  0  0  3  0  0  0  0  0  0
  -27.4940  -37.0540   24.8930 C   0  0  0  0  0  1  0  0  0  0  0  0
  -26.4160  -37.2200   23.9210 N   0  0  0  0  0  0  0  0  0  0  0  0
  -25.9850  -38.1260   24.0810 H   0  0  0  0  0  0  0  0  0  0  0  0
  -31.2980  -17.1040   22.9530 C   0  0  0  0  0  1  0  0  0  0  0  0
  -29.2300  -17.8550   21.7720 C   0  0  0  0  0  1  0  0  0  0  0  0
  -30.7630  -17.7230   21.6380 C   0  0  1  0  0  0  0  0  0  0  0  0
  -31.0970  -16.7720   20.4550 C   0  0  0  0  0  2  0  0  0  0  0  0
  -31.2600  -14.3070   20.1280 C   0  0  0  0  0  0  0  0  0  0  0  0
  -30.8260  -12.1350   19.0660 C   0  0  0  0  0  2  0  0  0  0  0  0
  -29.8680  -12.3460   17.8750 C   0  0  0  0  0  2  0  0  0  0  0  0
  -28.4010  -12.2630   18.3460 C   0  0  0  0  0  2  0  0  0  0  0  0
  -28.1240  -13.1630   19.5800 C   0  0  0  0  0  3  0  0  0  0  0  0
  -29.1960  -12.9550   20.6740 C   0  0  0  0  0  2  0  0  0  0  0  0
  -30.5210  -13.1680   20.0640 N   0  0  0  0  0  0  0  0  0  0  0  0
  -32.3770  -14.4120   19.6150 O   0  0  0  0  0  0  0  0  0  0  0  0
  -30.6290  -15.3840   20.6230 N   0  0  0  0  0  0  0  0  0  0  0  0
  -29.7080  -15.2400   21.0080 H   0  0  0  0  0  0  0  0  0  0  0  0
  -25.7910  -13.8960   20.3890 C   0  0  0  0  0  0  0  0  0  0  0  0
  -24.6920  -13.1760   20.7800 C   0  0  0  0  0  0  0  0  0  0  0  0
  -25.0710  -11.8010   20.6980 C   0  0  0  0  0  0  0  0  0  0  0  0
  -26.7730  -12.9590   20.1010 N   0  0  0  0  0  0  0  0  0  0  0  0
  -26.3440  -11.6930   20.3430 N   0  0  0  0  0  0  0  0  0  0  0  0
  -24.2800  -10.5780   20.8880 C   0  0  0  0  0  0  0  0  0  0  0  0
  -24.6550   -9.5910   21.8270 C   0  0  0  0  0  3  0  0  0  0  0  0
  -23.8640   -8.4330   21.9980 C   0  0  0  0  0  3  0  0  0  0  0  0
  -22.6880   -8.2560   21.2330 C   0  0  0  0  0  0  0  0  0  0  0  0
  -22.3340   -9.2310   20.2840 C   0  0  0  0  0  3  0  0  0  0  0  0
  -23.1230  -10.3800   20.1080 C   0  0  0  0  0  3  0  0  0  0  0  0
  -21.8750   -7.1510   21.3140 O   0  0  0  0  0  0  0  0  0  0  0  0
  -21.7230   -6.4540   22.4880 C   0  0  0  0  0  0  0  0  0  0  0  0
  -21.2440   -7.0730   23.6640 C   0  0  0  0  0  3  0  0  0  0  0  0
  -21.0330   -6.3050   24.8260 C   0  0  0  0  0  3  0  0  0  0  0  0
  -21.2930   -4.9210   24.8140 C   0  0  0  0  0  0  0  0  0  0  0  0
  -21.7680   -4.3030   23.6430 C   0  0  0  0  0  3  0  0  0  0  0  0
  -21.9780   -5.0680   22.4820 C   0  0  0  0  0  0  0  0  0  0  0  0
  -22.4110   -4.4650   21.3500 F   0  0  0  0  0  0  0  0  0  0  0  0
  -21.0860   -4.1820   25.9280 F   0  0  0  0  0  0  0  0  0  0  0  0
  -23.3380  -13.7290   21.1140 C   0  0  0  0  0  0  0  0  0  0  0  0
  -22.6070  -13.0640   22.0040 N   0  0  0  0  0  0  0  0  0  0  0  0
  -22.9360  -14.7810   20.6220 O   0  0  0  0  0  0  0  0  0  0  0  0
  -22.9430  -12.2140   22.4300 H   0  0  0  0  0  0  0  0  0  0  0  0
  -21.6990  -13.4180   22.2730 H   0  0  0  0  0  0  0  0  0  0  0  0
  -26.0330  -15.2550   20.2400 N   0  0  0  0  0  0  0  0  0  0  0  0
  -25.3140  -15.9540   20.3970 H   0  0  0  0  0  0  0  0  0  0  0  0
  -26.8990  -15.6460   19.8940 H   0  0  0  0  0  0  0  0  0  0  0  0
  1  7  1  0
  2  8  1  0
  3  7  2  0
  3  9  1  0
  4  2  1  0
  6  2  2  0
  6  1  2  0
  8  3  1  0
  9 60  1  0
  9  5  1  0
 11 10  1  0
 12 14  1  0
 12 15  1  0
 13 10  1  0
 14 16  1  0
 15  1  1  0
 15 11  1  0
 16 17  1  0
 16 13  1  0
 17 19  1  0
 18 29  2  0
 19 24  1  0
 20 28  1  0
 20 30  1  0
 21 27  1  0
 21 23  1  0
 22 28  1  0
 23 22  1  0
 24 23  2  0
 25 26  1  0
 25 19  2  0
 26 21  2  0
 27 20  1  0
 28 18  1  0
 30 32  2  0
 31 30  1  0
 33 31  1  0
 34 43  2  0
 34 39  1  0
 35 31  1  0
 35 39  1  0
 36 35  1  0
 37 38  1  0
 37 36  1  0
 38 34  1  0
 39 40  2  0
 40 41  1  0
 42 41  2  0
 43 42  1  0
 44 18  1  0
 44 49  1  0
 44 45  1  0
 45 48  1  1
 45 46  1  0
 47 45  1  0
 49 52  1  0
 50 54  1  0
 50 49  1  0
 51 50  2  0
 54 53  1  0
 56 54  1  0
 56 57  1  0
 56 55  1  0
 60 59  1  1
 60 58  1  0
 61 70  1  0
 61 60  1  0
 62 70  1  0
 63 68  1  0
 64 65  1  0
 64 63  1  0
 66 65  1  0
 66 75  1  0
 66 67  1  0
 68 62  1  0
 68 67  1  0
 69 62  2  0
 70 71  1  0
 72 73  2  0
 73 92  1  0
 74 73  1  0
 74 77  1  0
 75 76  1  0
 75 72  1  0
 76 74  2  0
 77 78  1  0
 78 79  2  0
 80 83  1  0
 80 79  1  0
 81 80  2  0
 82 81  1  0
 82 77  2  0
 83 84  1  0
 84 85  1  0
 85 86  2  0
 87 86  1  0
 87 91  1  0
 88 87  2  0
 89 84  2  0
 89 88  1  0
 90 89  1  0
 92 93  1  0
 93 96  1  0
 93 95  1  0
 94 92  2  0
 97 72  1  0
 97 98  1  0
 99 97  1  0
M  ISO  4  16 101  17 101  62 100  70 100
M  END
>  <TORSDO>  (12) 
F 19

>  <SCORE>  (12) 
-12.709

>  <name>  (12) 
12

>  <ligand_id>  (12) 
12

>  <original_smiles>  (12) 
[H]c1c([H])c([H])c2c(c1[H])C([H])([H])C([H])([H])C([H])([H])C2([H])N([H])C(=O)C1([H])N(C(=O)C([H])(N([H])C(=O)C([H])(N([H])C([H])([H])[H])C([H])([H])[H])C(C([H])([H])[H])(C([H])([H])[H])C([H])([H])[H])C([H])([H])c2c([H])c(OC3([H])C([H])([H])C([H])([H])C([H])([H])C([H])(c4nc(N(C([H])([H])[H])C(C([H])([H])[H])(C([H])([H])[H])C([H])([H])N([H])C(=O)N5C([H])([H])C([H])([H])C([H])([H])C([H])(n6nc(-c7c([H])c([H])c(Oc8c([H])c([H])c(F)c([H])c8F)c([H])c7[H])c(C(=O)N([H])[H])c6N([H])[H])C5([H])[H])nc(C([H])([H])[H])n4)C([H])([H])C3([H])[H])c([H])c([H])c2C1([H])[H]

>  <smiles>  (12) 
[H]c1c([H])c([H])c2c(c1[H])C([H])([H])C([H])([H])C([H])([H])C2([H])N([H])C(=O)C1([H])N(C(=O)C([H])(N([H])C(=O)C([H])(N([H])C([H])([H])[H])C([H])([H])[H])C(C([H])([H])[H])(C([H])([H])[H])C([H])([H])[H])C([H])([H])c2c([H])c(OC3([H])C([H])([H])C([H])([H])C([H])([H])C([H])(c4nc(N(C([H])([H])[H])C(C([H])([H])[H])(C([H])([H])[H])C([H])([H])N([H])C(=O)N5C([H])([H])C([H])([H])C([H])([H])C([H])(n6nc(-c7c([H])c([H])c(Oc8c([H])c([H])c(F)c([H])c8F)c([H])c7[H])c(C(=O)N([H])[H])c6N([H])[H])C5([H])[H])nc(C([H])([H])[H])n4)C([H])([H])C3([H])[H])c([H])c([H])c2C1([H])[H]

$$$$
13:0:0
     RDKit          3D

 95103  0  0  1  0  0  0  0  0999 V2000
  -29.9130  -22.0410   21.3100 C   0  0  0  0  0  0  0  0  0  0  0  0
  -29.2440  -21.0930   20.4780 C   0  0  0  0  0  0  0  0  0  0  0  0
  -27.9780  -22.8960   19.6280 C   0  0  0  0  0  0  0  0  0  0  0  0
  -28.6050  -23.8460   20.4980 C   0  0  0  0  0  0  0  0  0  0  0  0
  -28.3260  -21.5710   19.5980 N   0  0  0  0  0  0  0  0  0  0  0  0
  -29.6130  -23.3830   21.2990 N   0  0  0  0  0  0  0  0  0  0  0  0
  -30.2300  -21.4050   23.7430 C   0  0  0  0  0  1  0  0  0  0  0  0
  -30.9030  -21.6220   22.3820 C   0  0  0  0  0  2  0  0  0  0  0  0
  -29.1630  -19.5370   20.7180 C   0  0  0  0  0  2  0  0  0  0  0  0
  -30.2950  -18.4720   20.3960 C   0  0  0  0  0  2  0  0  0  0  0  0
  -29.6390  -16.8880   18.5010 C   0  0  0  0  0  1  0  0  0  0  0  0
  -29.7190  -17.0190   20.0390 C   0  0  0  0  0  3  0  0  0  0  0  0
  -30.9000  -14.6980   20.1510 C   0  0  0  0  0  0  0  0  0  0  0  0
  -30.5690  -12.5030   19.0300 C   0  0  0  0  0  2  0  0  0  0  0  0
  -29.5820  -12.6530   17.8530 C   0  0  0  0  0  2  0  0  0  0  0  0
  -28.1270  -12.5030   18.3350 C   0  0  0  0  0  2  0  0  0  0  0  0
  -27.8250  -13.3440   19.6050 C   0  0  0  0  0  3  0  0  0  0  0  0
  -28.9250  -13.1720   20.6720 C   0  0  0  0  0  2  0  0  0  0  0  0
  -30.2190  -13.5090   20.0540 N   0  0  0  0  0  0  0  0  0  0  0  0
  -31.9980  -14.8510   19.6090 O   0  0  0  0  0  0  0  0  0  0  0  0
  -30.3510  -15.8820   22.1780 C   0  0  0  0  0  1  0  0  0  0  0  0
  -30.2580  -15.7730   20.7210 N   0  0  0  0  0  0  0  0  0  0  0  0
  -25.4540  -13.9370   20.4010 C   0  0  0  0  0  0  0  0  0  0  0  0
  -24.3960  -13.1650   20.7910 C   0  0  0  0  0  0  0  0  0  0  0  0
  -24.8540  -11.8140   20.7360 C   0  0  0  0  0  0  0  0  0  0  0  0
  -26.4910  -13.0600   20.1310 N   0  0  0  0  0  0  0  0  0  0  0  0
  -26.1350  -11.7750   20.3900 N   0  0  0  0  0  0  0  0  0  0  0  0
  -24.1310  -10.5510   20.9390 C   0  0  0  0  0  0  0  0  0  0  0  0
  -24.5590   -9.6030   21.8940 C   0  0  0  0  0  3  0  0  0  0  0  0
  -23.8380   -8.4040   22.0870 C   0  0  0  0  0  3  0  0  0  0  0  0
  -22.6760   -8.1440   21.3210 C   0  0  0  0  0  0  0  0  0  0  0  0
  -22.2670   -9.0830   20.3580 C   0  0  0  0  0  3  0  0  0  0  0  0
  -22.9870  -10.2730   20.1660 C   0  0  0  0  0  3  0  0  0  0  0  0
  -21.9300   -6.9950   21.4200 O   0  0  0  0  0  0  0  0  0  0  0  0
  -21.8310   -6.2990   22.5970 C   0  0  0  0  0  0  0  0  0  0  0  0
  -21.3330   -6.8980   23.7750 C   0  0  0  0  0  3  0  0  0  0  0  0
  -21.1800   -6.1290   24.9450 C   0  0  0  0  0  3  0  0  0  0  0  0
  -21.5160   -4.7610   24.9390 C   0  0  0  0  0  0  0  0  0  0  0  0
  -22.0050   -4.1620   23.7660 C   0  0  0  0  0  3  0  0  0  0  0  0
  -22.1600   -4.9290   22.5980 C   0  0  0  0  0  0  0  0  0  0  0  0
  -22.6110   -4.3420   21.4630 F   0  0  0  0  0  0  0  0  0  0  0  0
  -21.3630   -4.0200   26.0620 F   0  0  0  0  0  0  0  0  0  0  0  0
  -23.0060  -13.6410   21.1090 C   0  0  0  0  0  0  0  0  0  0  0  0
  -22.3080  -12.9450   21.9940 N   0  0  0  0  0  0  0  0  0  0  0  0
  -22.5520  -14.6700   20.6080 O   0  0  0  0  0  0  0  0  0  0  0  0
  -22.6890  -12.1170   22.4290 H   0  0  0  0  0  0  0  0  0  0  0  0
  -21.3760  -13.2420   22.2470 H   0  0  0  0  0  0  0  0  0  0  0  0
  -25.6130  -15.3110   20.2320 N   0  0  0  0  0  0  0  0  0  0  0  0
  -24.8550  -15.9660   20.3890 H   0  0  0  0  0  0  0  0  0  0  0  0
  -26.4640  -15.7520   19.9100 H   0  0  0  0  0  0  0  0  0  0  0  0
  -26.7940  -23.2300   18.7390 C   0  0  0  0  0  2  0  0  0  0  0  0
  -24.2410  -23.4560   18.6070 C   0  0  0  0  0  1  0  0  0  0  0  0
  -25.4300  -22.7860   19.3220 C   0  0  0  0  0  2  0  0  0  0  0  0
  -27.9720  -25.2510   20.8760 C   0  0  0  0  0  2  0  0  0  0  0  0
  -28.3310  -26.5290   20.2090 O   0  0  0  0  0  0  0  0  0  0  0  0
  -24.6130  -31.9380   23.2300 C   0  0  0  0  0  0  0  0  0  0  0  0
  -27.2660  -27.4370   20.1520 C   0  0  0  0  0  0  0  0  0  0  0  0
  -23.4240  -30.5430   21.5760 C   0  0  0  0  0  3  0  0  0  0  0  0
  -24.8960  -29.0300   20.1400 C   0  0  0  0  0  0  0  0  0  0  0  0
  -25.9660  -30.8870   21.4070 C   0  0  0  0  0  2  0  0  0  0  0  0
  -26.0600  -29.5170   20.7510 C   0  0  0  0  0  0  0  0  0  0  0  0
  -27.2550  -28.7320   20.7530 C   0  0  0  0  0  3  0  0  0  0  0  0
  -26.0930  -27.0280   19.4810 C   0  0  0  0  0  3  0  0  0  0  0  0
  -24.9160  -27.7930   19.4870 C   0  0  0  0  0  3  0  0  0  0  0  0
  -23.6460  -29.8850   20.1910 C   0  0  0  0  0  2  0  0  0  0  0  0
  -24.6840  -31.1420   22.1240 N   0  0  0  0  0  0  0  0  0  0  0  0
  -23.5240  -32.1990   23.7670 O   0  0  0  0  0  0  0  0  0  0  0  0
  -22.7740  -29.5050   22.5270 C   0  0  0  0  0  0  0  0  0  0  0  0
  -21.4500  -29.3110   22.3950 N   0  0  0  0  0  0  0  0  0  0  0  0
  -23.4570  -28.8790   23.3410 O   0  0  0  0  0  0  0  0  0  0  0  0
  -20.9560  -29.8650   21.7090 H   0  0  0  0  0  0  0  0  0  0  0  0
  -18.0780  -28.0780   22.8650 C   0  0  0  0  0  0  0  0  0  0  0  0
  -20.6340  -28.3600   23.1530 C   0  0  0  0  0  3  0  0  0  0  0  0
  -20.7520  -26.9300   22.5760 C   0  0  0  0  0  2  0  0  0  0  0  0
  -19.6610  -26.6040   21.5510 C   0  0  0  0  0  2  0  0  0  0  0  0
  -18.2740  -26.7310   22.1870 C   0  0  0  0  0  2  0  0  0  0  0  0
  -19.1880  -28.8510   23.3010 C   0  0  0  0  0  0  0  0  0  0  0  0
  -18.9490  -30.1130   23.8880 C   0  0  0  0  0  3  0  0  0  0  0  0
  -17.6390  -30.6020   24.0450 C   0  0  0  0  0  3  0  0  0  0  0  0
  -16.5470  -29.8280   23.6180 C   0  0  0  0  0  3  0  0  0  0  0  0
  -16.7660  -28.5670   23.0360 C   0  0  0  0  0  3  0  0  0  0  0  0
  -25.8900  -32.5740   23.8580 C   0  0  0  0  0  3  0  0  0  0  0  0
  -25.5680  -33.9710   24.1840 N   0  0  0  0  0  0  0  0  0  0  0  0
  -25.9080  -35.0260   23.4320 C   0  0  0  0  0  0  0  0  0  0  0  0
  -26.5940  -34.9270   22.4110 O   0  0  0  0  0  0  0  0  0  0  0  0
  -24.9580  -34.1220   24.9740 H   0  0  0  0  0  0  0  0  0  0  0  0
  -24.1790  -36.8130   23.0470 C   0  0  0  0  0  1  0  0  0  0  0  0
  -25.4060  -36.4120   23.8820 C   0  0  0  0  0  3  0  0  0  0  0  0
  -27.5210  -37.2980   24.7550 C   0  0  0  0  0  1  0  0  0  0  0  0
  -26.4350  -37.4700   23.7950 N   0  0  0  0  0  0  0  0  0  0  0  0
  -26.0210  -38.3870   23.9480 H   0  0  0  0  0  0  0  0  0  0  0  0
  -26.4050  -31.8040   25.1360 C   0  0  1  0  0  0  0  0  0  0  0  0
  -25.3120  -31.5520   26.2020 C   0  0  0  0  0  1  0  0  0  0  0  0
  -27.0010  -30.4320   24.7450 C   0  0  0  0  0  1  0  0  0  0  0  0
  -27.5470  -32.6060   25.8020 C   0  0  0  0  0  1  0  0  0  0  0  0
  1  8  1  0
  2  9  1  0
  2  1  2  0
  3  4  1  0
  4 54  1  0
  4  6  2  0
  5  3  2  0
  5  2  1  0
  6  1  1  0
  8  7  1  0
 10  9  1  0
 12 11  1  0
 12 10  1  0
 12 22  1  0
 13 22  1  0
 14 19  1  0
 15 16  1  0
 15 14  1  0
 17 16  1  0
 17 26  1  0
 17 18  1  0
 19 13  1  0
 19 18  1  0
 20 13  2  0
 22 21  1  0
 23 24  2  0
 24 43  1  0
 25 24  1  0
 25 28  1  0
 26 27  1  0
 26 23  1  0
 27 25  2  0
 28 29  1  0
 29 30  2  0
 31 34  1  0
 31 30  1  0
 32 31  2  0
 33 32  1  0
 33 28  2  0
 34 35  1  0
 35 40  2  0
 35 36  1  0
 36 37  2  0
 38 37  1  0
 38 42  1  0
 39 38  2  0
 40 39  1  0
 41 40  1  0
 43 44  1  0
 44 47  1  0
 44 46  1  0
 45 43  2  0
 48 49  1  0
 48 23  1  0
 50 48  1  0
 51 53  1  0
 51  3  1  0
 52 53  1  0
 55 54  1  0
 56 67  2  0
 57 55  1  0
 57 62  1  0
 58 66  1  0
 58 68  1  0
 59 65  1  0
 59 61  1  0
 60 66  1  0
 61 62  2  0
 61 60  1  0
 63 64  1  0
 63 57  2  0
 64 59  2  0
 65 58  1  0
 66 56  1  0
 68 70  2  0
 69 68  1  0
 71 69  1  0
 72 81  2  0
 72 77  1  0
 73 69  1  0
 73 77  1  0
 74 73  1  0
 75 76  1  0
 75 74  1  0
 76 72  1  0
 77 78  2  0
 78 79  1  0
 80 79  2  0
 81 80  1  0
 82 56  1  0
 82 83  1  0
 82 92  1  0
 83 86  1  0
 84 88  1  0
 84 83  1  0
 85 84  2  0
 88 87  1  0
 90 88  1  0
 90 91  1  0
 90 89  1  0
 92 95  1  1
 92 93  1  0
 94 92  1  0
M  ISO  4  13 100  22 100  54 101  55 101
M  END
>  <TORSDO>  (13) 
F 23

>  <SCORE>  (13) 
-12.773

>  <name>  (13) 
13

>  <ligand_id>  (13) 
13

>  <original_smiles>  (13) 
[H]c1c([H])c([H])c2c(c1[H])C([H])([H])C([H])([H])C([H])([H])C2([H])N([H])C(=O)C1([H])N(C(=O)C([H])(N([H])C(=O)C([H])(N([H])C([H])([H])[H])C([H])([H])[H])C(C([H])([H])[H])(C([H])([H])[H])C([H])([H])[H])C([H])([H])c2c([H])c(OC([H])([H])c3nc(C([H])([H])C([H])([H])[H])c(C([H])([H])C([H])([H])C([H])(N(C(=O)N4C([H])([H])C([H])([H])C([H])([H])C([H])(n5nc(-c6c([H])c([H])c(Oc7c([H])c([H])c(F)c([H])c7F)c([H])c6[H])c(C(=O)N([H])[H])c5N([H])[H])C4([H])[H])C([H])([H])[H])C([H])([H])[H])nc3C([H])([H])C([H])([H])C([H])([H])[H])c([H])c([H])c2C1([H])[H]

>  <smiles>  (13) 
[H]c1c([H])c([H])c2c(c1[H])C([H])([H])C([H])([H])C([H])([H])C2([H])N([H])C(=O)C1([H])N(C(=O)C([H])(N([H])C(=O)C([H])(N([H])C([H])([H])[H])C([H])([H])[H])C(C([H])([H])[H])(C([H])([H])[H])C([H])([H])[H])C([H])([H])c2c([H])c(OC([H])([H])c3nc(C([H])([H])C([H])([H])[H])c(C([H])([H])C([H])([H])C([H])(N(C(=O)N4C([H])([H])C([H])([H])C([H])([H])C([H])(n5nc(-c6c([H])c([H])c(Oc7c([H])c([H])c(F)c([H])c7F)c([H])c6[H])c(C(=O)N([H])[H])c5N([H])[H])C4([H])[H])C([H])([H])[H])C([H])([H])[H])nc3C([H])([H])C([H])([H])C([H])([H])[H])c([H])c([H])c2C1([H])[H]

$$$$
14:0:0
     RDKit          3D

 97106  0  0  1  0  0  0  0  0999 V2000
  -30.7940  -22.4910   21.6870 C   0  0  0  0  0  3  0  0  0  0  0  0
  -31.7090  -20.4940   20.1240 C   0  0  0  0  0  3  0  0  0  0  0  0
  -31.7330  -22.7330   20.6570 C   0  0  0  0  0  0  0  0  0  0  0  0
  -30.7780  -20.2190   21.1670 C   0  0  0  0  0  0  0  0  0  0  0  0
  -32.1740  -21.7360   19.8580 N   0  0  0  0  0  0  0  0  0  0  0  0
  -30.3080  -21.2480   21.9310 N   0  0  0  0  0  0  0  0  0  0  0  0
  -30.5360  -18.4720   22.9710 C   0  0  0  0  0  1  0  0  0  0  0  0
  -28.6990  -18.7760   21.2960 C   0  0  0  0  0  1  0  0  0  0  0  0
  -30.2310  -18.7960   21.4890 C   0  0  1  0  0  0  0  0  0  0  0  0
  -31.0970  -16.3180   20.9280 C   0  0  0  0  0  2  0  0  0  0  0  0
  -31.8590  -15.8810   19.8800 C   0  0  0  0  0  3  0  0  0  0  0  0
  -30.8530  -17.6950   20.6150 C   0  0  0  0  0  3  0  0  0  0  0  0
  -31.3020  -17.9930   19.3970 N   0  0  0  0  0  2  0  0  0  0  0  0
  -32.0540  -16.9420   19.0160 N   0  0  0  0  0  0  0  0  0  0  0  0
  -32.5620  -14.5700   19.7900 C   0  0  0  0  0  0  0  0  0  0  0  0
  -32.0860  -12.2890   19.0110 C   0  0  0  0  0  2  0  0  0  0  0  0
  -31.1410  -12.3960   17.7950 C   0  0  0  0  0  2  0  0  0  0  0  0
  -29.6630  -12.5070   18.2340 C   0  0  0  0  0  2  0  0  0  0  0  0
  -29.4250  -13.5190   19.3910 C   0  0  0  0  0  3  0  0  0  0  0  0
  -30.4850  -13.3560   20.5010 C   0  0  0  0  0  2  0  0  0  0  0  0
  -31.8180  -13.4380   19.8870 N   0  0  0  0  0  0  0  0  0  0  0  0
  -33.7240  -14.5760   19.3760 O   0  0  0  0  0  0  0  0  0  0  0  0
  -27.1580  -14.4270   20.2080 C   0  0  0  0  0  0  0  0  0  0  0  0
  -26.0080  -13.7950   20.6020 C   0  0  0  0  0  0  0  0  0  0  0  0
  -26.2830  -12.3960   20.5380 C   0  0  0  0  0  0  0  0  0  0  0  0
  -28.0650  -13.4180   19.9210 N   0  0  0  0  0  0  0  0  0  0  0  0
  -27.5440  -12.1900   20.1800 N   0  0  0  0  0  0  0  0  0  0  0  0
  -25.4000  -11.2380   20.7360 C   0  0  0  0  0  0  0  0  0  0  0  0
  -25.6730  -10.2630   21.7210 C   0  0  0  0  0  3  0  0  0  0  0  0
  -24.8000   -9.1690   21.9050 C   0  0  0  0  0  3  0  0  0  0  0  0
  -23.6400   -9.0420   21.1050 C   0  0  0  0  0  0  0  0  0  0  0  0
  -23.3860  -10.0030   20.1110 C   0  0  0  0  0  3  0  0  0  0  0  0
  -24.2590  -11.0880   19.9240 C   0  0  0  0  0  3  0  0  0  0  0  0
  -22.7510   -7.9970   21.1940 O   0  0  0  0  0  0  0  0  0  0  0  0
  -22.4240   -7.4290   22.3990 C   0  0  0  0  0  0  0  0  0  0  0  0
  -21.9010   -8.1940   23.4640 C   0  0  0  0  0  3  0  0  0  0  0  0
  -21.5210   -7.5620   24.6660 C   0  0  0  0  0  3  0  0  0  0  0  0
  -21.6470   -6.1670   24.8000 C   0  0  0  0  0  0  0  0  0  0  0  0
  -22.1600   -5.4030   23.7390 C   0  0  0  0  0  3  0  0  0  0  0  0
  -22.5460   -6.0320   22.5420 C   0  0  0  0  0  0  0  0  0  0  0  0
  -23.0220   -5.2870   21.5150 F   0  0  0  0  0  0  0  0  0  0  0  0
  -21.2710   -5.5600   25.9500 F   0  0  0  0  0  0  0  0  0  0  0  0
  -24.6990  -14.4520   20.9310 C   0  0  0  0  0  0  0  0  0  0  0  0
  -23.9290  -13.8590   21.8400 N   0  0  0  0  0  0  0  0  0  0  0  0
  -24.3700  -15.5210   20.4190 O   0  0  0  0  0  0  0  0  0  0  0  0
  -24.2070  -12.9930   22.2750 H   0  0  0  0  0  0  0  0  0  0  0  0
  -23.0480  -14.2800   22.0960 H   0  0  0  0  0  0  0  0  0  0  0  0
  -27.5000  -15.7680   20.0610 N   0  0  0  0  0  0  0  0  0  0  0  0
  -26.8480  -16.5190   20.2570 H   0  0  0  0  0  0  0  0  0  0  0  0
  -28.4180  -16.1040   19.7940 H   0  0  0  0  0  0  0  0  0  0  0  0
  -34.0420  -18.1190   18.1240 C   0  0  0  0  0  1  0  0  0  0  0  0
  -32.9280  -17.0950   17.8620 C   0  0  0  0  0  2  0  0  0  0  0  0
  -32.3350  -24.1070   20.4080 C   0  0  0  0  0  2  0  0  0  0  0  0
  -31.3170  -25.2510   20.2620 C   0  0  0  0  0  2  0  0  0  0  0  0
  -30.2020  -24.9850   19.2340 C   0  0  0  0  0  2  0  0  0  0  0  0
  -29.4350  -26.2530   18.8390 C   0  0  0  0  0  2  0  0  0  0  0  0
  -29.0000  -26.9210   20.0200 O   0  0  0  0  0  0  0  0  0  0  0  0
  -24.8750  -31.6500   23.3140 C   0  0  0  0  0  0  0  0  0  0  0  0
  -27.7770  -27.5450   20.0190 C   0  0  0  0  0  0  0  0  0  0  0  0
  -23.7580  -30.3000   21.5660 C   0  0  0  0  0  3  0  0  0  0  0  0
  -25.3050  -28.9090   20.0880 C   0  0  0  0  0  0  0  0  0  0  0  0
  -26.2680  -30.7800   21.4430 C   0  0  0  0  0  2  0  0  0  0  0  0
  -26.4220  -29.4520   20.7330 C   0  0  0  0  0  0  0  0  0  0  0  0
  -27.6550  -28.7690   20.7110 C   0  0  0  0  0  3  0  0  0  0  0  0
  -26.6370  -26.9920   19.3950 C   0  0  0  0  0  3  0  0  0  0  0  0
  -25.4060  -27.6730   19.4250 C   0  0  0  0  0  3  0  0  0  0  0  0
  -24.0240  -29.7080   20.1540 C   0  0  0  0  0  2  0  0  0  0  0  0
  -24.9820  -30.9250   22.1680 N   0  0  0  0  0  0  0  0  0  0  0  0
  -23.7750  -31.8400   23.8510 O   0  0  0  0  0  0  0  0  0  0  0  0
  -23.1400  -29.1960   22.4500 C   0  0  0  0  0  0  0  0  0  0  0  0
  -21.8320  -28.9490   22.2660 N   0  0  0  0  0  0  0  0  0  0  0  0
  -23.8320  -28.5670   23.2550 O   0  0  0  0  0  0  0  0  0  0  0  0
  -21.3280  -29.5140   21.5940 H   0  0  0  0  0  0  0  0  0  0  0  0
  -18.5210  -27.5310   22.5530 C   0  0  0  0  0  0  0  0  0  0  0  0
  -21.0430  -27.9290   22.9570 C   0  0  0  0  0  3  0  0  0  0  0  0
  -21.2610  -26.5330   22.3270 C   0  0  0  0  0  2  0  0  0  0  0  0
  -20.2280  -26.1920   21.2480 C   0  0  0  0  0  2  0  0  0  0  0  0
  -18.8130  -26.2240   21.8330 C   0  0  0  0  0  2  0  0  0  0  0  0
  -19.5700  -28.3380   23.0670 C   0  0  0  0  0  0  0  0  0  0  0  0
  -19.2500  -29.5600   23.6970 C   0  0  0  0  0  3  0  0  0  0  0  0
  -17.9120  -29.9750   23.8230 C   0  0  0  0  0  3  0  0  0  0  0  0
  -16.8760  -29.1650   23.3250 C   0  0  0  0  0  3  0  0  0  0  0  0
  -17.1800  -27.9450   22.6930 C   0  0  0  0  0  3  0  0  0  0  0  0
  -26.1220  -32.2950   23.9970 C   0  0  0  0  0  3  0  0  0  0  0  0
  -25.7720  -33.6770   24.3430 N   0  0  0  0  0  0  0  0  0  0  0  0
  -26.1410  -34.7540   23.6350 C   0  0  0  0  0  0  0  0  0  0  0  0
  -26.8860  -34.6900   22.6540 O   0  0  0  0  0  0  0  0  0  0  0  0
  -25.1200  -33.8030   25.1040 H   0  0  0  0  0  0  0  0  0  0  0  0
  -24.4210  -36.5340   23.2000 C   0  0  0  0  0  1  0  0  0  0  0  0
  -25.6030  -36.1230   24.0930 C   0  0  0  0  0  3  0  0  0  0  0  0
  -27.6540  -37.0090   25.1110 C   0  0  0  0  0  1  0  0  0  0  0  0
  -26.6250  -37.1920   24.0880 N   0  0  0  0  0  0  0  0  0  0  0  0
  -26.1950  -38.1020   24.2310 H   0  0  0  0  0  0  0  0  0  0  0  0
  -26.6100  -31.5050   25.2730 C   0  0  1  0  0  0  0  0  0  0  0  0
  -25.4810  -31.2110   26.2860 C   0  0  0  0  0  1  0  0  0  0  0  0
  -27.2480  -30.1550   24.8700 C   0  0  0  0  0  1  0  0  0  0  0  0
  -27.7050  -32.3130   26.0070 C   0  0  0  0  0  1  0  0  0  0  0  0
  1  6  1  0
  2  4  1  0
  3  1  2  0
  4  9  1  0
  4  6  2  0
  5  2  2  0
  5  3  1  0
  9  8  1  1
  9  7  1  0
 11 15  1  0
 11 10  1  0
 12 10  1  0
 12  9  1  0
 13 12  1  0
 14 13  1  0
 14 11  1  0
 15 21  1  0
 16 21  1  0
 17 18  1  0
 17 16  1  0
 19 18  1  0
 19 26  1  0
 19 20  1  0
 21 20  1  0
 22 15  2  0
 23 24  2  0
 24 43  1  0
 25 24  1  0
 25 28  1  0
 26 27  1  0
 26 23  1  0
 27 25  2  0
 28 29  1  0
 29 30  2  0
 31 34  1  0
 31 30  1  0
 32 31  2  0
 33 32  1  0
 33 28  2  0
 34 35  1  0
 35 40  2  0
 35 36  1  0
 36 37  2  0
 37 38  1  0
 38 42  1  0
 39 38  2  0
 40 39  1  0
 41 40  1  0
 43 44  1  0
 44 47  1  0
 44 46  1  0
 45 43  2  0
 48 23  1  0
 48 49  1  0
 50 48  1  0
 52 51  1  0
 52 14  1  0
 53  3  1  0
 54 53  1  0
 55 54  1  0
 56 55  1  0
 56 57  1  0
 58 69  2  0
 59 57  1  0
 59 64  1  0
 60 68  1  0
 60 70  1  0
 61 67  1  0
 61 63  1  0
 62 68  1  0
 63 62  1  0
 64 63  2  0
 65 66  1  0
 65 59  2  0
 66 61  2  0
 67 60  1  0
 68 58  1  0
 70 72  2  0
 71 70  1  0
 73 71  1  0
 74 83  2  0
 74 79  1  0
 75 71  1  0
 75 79  1  0
 76 75  1  0
 77 78  1  0
 77 76  1  0
 78 74  1  0
 79 80  2  0
 80 81  1  0
 82 81  2  0
 83 82  1  0
 84 58  1  0
 84 85  1  0
 84 94  1  0
 85 88  1  0
 86 90  1  0
 86 85  1  0
 87 86  2  0
 90 89  1  0
 92 90  1  0
 92 93  1  0
 92 91  1  0
 94 97  1  1
 94 95  1  0
 96 94  1  0
M  ISO  4  11 100  15 100  56 101  57 101
M  END
>  <TORSDO>  (14) 
F 23

>  <SCORE>  (14) 
-9.174

>  <name>  (14) 
14

>  <ligand_id>  (14) 
14

>  <original_smiles>  (14) 
[H]c1nc(C(c2nn(C([H])([H])C([H])([H])[H])c(C(=O)N3C([H])([H])C([H])([H])C([H])([H])C([H])(n4nc(-c5c([H])c([H])c(Oc6c([H])c([H])c(F)c([H])c6F)c([H])c5[H])c(C(=O)N([H])[H])c4N([H])[H])C3([H])[H])c2[H])(C([H])([H])[H])C([H])([H])[H])c([H])nc1C([H])([H])C([H])([H])C([H])([H])C([H])([H])Oc1c([H])c([H])c2c(c1[H])C([H])([H])N(C(=O)C([H])(N([H])C(=O)C([H])(N([H])C([H])([H])[H])C([H])([H])[H])C(C([H])([H])[H])(C([H])([H])[H])C([H])([H])[H])C([H])(C(=O)N([H])C1([H])c3c([H])c([H])c([H])c([H])c3C([H])([H])C([H])([H])C1([H])[H])C2([H])[H]

>  <smiles>  (14) 
[H]c1nc(C(c2nn(C([H])([H])C([H])([H])[H])c(C(=O)N3C([H])([H])C([H])([H])C([H])([H])C([H])(n4nc(-c5c([H])c([H])c(Oc6c([H])c([H])c(F)c([H])c6F)c([H])c5[H])c(C(=O)N([H])[H])c4N([H])[H])C3([H])[H])c2[H])(C([H])([H])[H])C([H])([H])[H])c([H])nc1C([H])([H])C([H])([H])C([H])([H])C([H])([H])Oc1c([H])c([H])c2c(c1[H])C([H])([H])N(C(=O)C([H])(N([H])C(=O)C([H])(N([H])C([H])([H])[H])C([H])([H])[H])C(C([H])([H])[H])(C([H])([H])[H])C([H])([H])[H])C([H])(C(=O)N([H])C1([H])c3c([H])c([H])c([H])c([H])c3C([H])([H])C([H])([H])C1([H])[H])C2([H])[H]

$$$$
15:0:0
     RDKit          3D

 98106  0  0  1  0  0  0  0  0999 V2000
  -31.1020  -23.7330   21.6740 C   0  0  0  0  0  0  0  0  0  0  0  0
  -31.9310  -22.8190   20.9920 C   0  0  0  0  0  0  0  0  0  0  0  0
  -30.0440  -23.1770   22.4240 C   0  0  0  0  0  3  0  0  0  0  0  0
  -30.6880  -21.0740   21.8000 C   0  0  0  0  0  0  0  0  0  0  0  0
  -33.0870  -23.2390   20.0990 C   0  0  0  0  0  1  0  0  0  0  0  0
  -31.7150  -21.4990   21.0730 N   0  0  0  0  0  0  0  0  0  0  0  0
  -29.8440  -21.8430   22.4760 N   0  0  0  0  0  0  0  0  0  0  0  0
  -29.7150  -24.2540   24.6730 C   0  0  0  0  0  1  0  0  0  0  0  0
  -29.1200  -24.0260   23.2840 C   0  0  0  0  0  2  0  0  0  0  0  0
  -31.3780  -25.2350   21.6320 C   0  0  0  0  0  2  0  0  0  0  0  0
  -30.5900  -26.0600   20.6030 C   0  0  0  0  0  2  0  0  0  0  0  0
  -29.8560  -25.3400   19.4310 C   0  0  0  0  0  2  0  0  0  0  0  0
  -28.3680  -25.7280   19.3270 C   0  0  0  0  0  2  0  0  0  0  0  0
  -28.3000  -27.1120   19.6230 O   0  0  0  0  0  0  0  0  0  0  0  0
  -24.6000  -31.9140   23.3090 C   0  0  0  0  0  0  0  0  0  0  0  0
  -27.0910  -27.7290   19.7860 C   0  0  0  0  0  0  0  0  0  0  0  0
  -23.3280  -30.6490   21.6120 C   0  0  0  0  0  3  0  0  0  0  0  0
  -24.7090  -29.2140   20.0260 C   0  0  0  0  0  0  0  0  0  0  0  0
  -25.8460  -31.0070   21.3520 C   0  0  0  0  0  2  0  0  0  0  0  0
  -25.8900  -29.6920   20.6060 C   0  0  0  0  0  0  0  0  0  0  0  0
  -27.0830  -28.9540   20.4830 C   0  0  0  0  0  3  0  0  0  0  0  0
  -25.8870  -27.2370   19.2350 C   0  0  0  0  0  3  0  0  0  0  0  0
  -24.6990  -27.9830   19.3480 C   0  0  0  0  0  3  0  0  0  0  0  0
  -23.4780  -30.0780   20.1810 C   0  0  0  0  0  2  0  0  0  0  0  0
  -24.6130  -31.1990   22.1500 N   0  0  0  0  0  0  0  0  0  0  0  0
  -23.5380  -32.1540   23.8990 O   0  0  0  0  0  0  0  0  0  0  0  0
  -22.7040  -29.5570   22.5100 C   0  0  0  0  0  0  0  0  0  0  0  0
  -21.3880  -29.3430   22.3550 N   0  0  0  0  0  0  0  0  0  0  0  0
  -23.3990  -28.9080   23.2960 O   0  0  0  0  0  0  0  0  0  0  0  0
  -20.8900  -29.9160   21.6890 H   0  0  0  0  0  0  0  0  0  0  0  0
  -18.0550  -27.9950   22.6760 C   0  0  0  0  0  0  0  0  0  0  0  0
  -20.5870  -28.3450   23.0600 C   0  0  0  0  0  3  0  0  0  0  0  0
  -20.7730  -26.9430   22.4360 C   0  0  0  0  0  2  0  0  0  0  0  0
  -19.7230  -26.6100   21.3730 C   0  0  0  0  0  2  0  0  0  0  0  0
  -18.3130  -26.6770   21.9670 C   0  0  0  0  0  2  0  0  0  0  0  0
  -19.1240  -28.7860   23.1750 C   0  0  0  0  0  0  0  0  0  0  0  0
  -18.8310  -30.0210   23.7930 C   0  0  0  0  0  3  0  0  0  0  0  0
  -17.5010  -30.4660   23.9200 C   0  0  0  0  0  3  0  0  0  0  0  0
  -16.4460  -29.6690   23.4430 C   0  0  0  0  0  3  0  0  0  0  0  0
  -16.7230  -28.4350   22.8270 C   0  0  0  0  0  3  0  0  0  0  0  0
  -25.9090  -32.4810   23.9370 C   0  0  0  0  0  3  0  0  0  0  0  0
  -26.4110  -31.6560   25.1810 C   0  0  1  0  0  0  0  0  0  0  0  0
  -25.3120  -31.4070   26.2430 C   0  0  0  0  0  1  0  0  0  0  0  0
  -26.9620  -30.2790   24.7410 C   0  0  0  0  0  1  0  0  0  0  0  0
  -27.5890  -32.4000   25.8510 C   0  0  0  0  0  1  0  0  0  0  0  0
  -25.6480  -33.8780   24.3070 N   0  0  0  0  0  0  0  0  0  0  0  0
  -26.0280  -34.9400   23.5840 C   0  0  0  0  0  0  0  0  0  0  0  0
  -26.7110  -34.8440   22.5600 O   0  0  0  0  0  0  0  0  0  0  0  0
  -25.0440  -34.0300   25.1000 H   0  0  0  0  0  0  0  0  0  0  0  0
  -24.3620  -36.7920   23.2670 C   0  0  0  0  0  1  0  0  0  0  0  0
  -25.5820  -36.3310   24.0760 C   0  0  0  0  0  3  0  0  0  0  0  0
  -27.7410  -37.1190   24.9430 C   0  0  0  0  0  1  0  0  0  0  0  0
  -26.6520  -37.3510   23.9970 N   0  0  0  0  0  0  0  0  0  0  0  0
  -26.2810  -38.2810   24.1660 H   0  0  0  0  0  0  0  0  0  0  0  0
  -30.4310  -19.7470   21.8780 O   0  0  0  0  0  0  0  0  0  0  0  0
  -31.1100  -18.8410   20.9920 C   0  0  0  0  0  2  0  0  0  0  0  0
  -29.0990  -17.5830   20.1530 C   0  0  0  0  0  1  0  0  0  0  0  0
  -30.1140  -17.0080   22.3940 C   0  0  0  0  0  1  0  0  0  0  0  0
  -30.4100  -17.4600   20.9540 C   0  0  2  0  0  0  0  0  0  0  0  0
  -31.3460  -16.4180   20.2760 C   0  0  0  0  0  2  0  0  0  0  0  0
  -31.1690  -14.0750   19.3910 C   0  0  0  0  0  0  0  0  0  0  0  0
  -30.8430  -11.7100   18.7420 C   0  0  0  0  0  2  0  0  0  0  0  0
  -29.8190  -11.5480   17.6010 C   0  0  0  0  0  2  0  0  0  0  0  0
  -28.3880  -11.4640   18.1550 C   0  0  0  0  0  2  0  0  0  0  0  0
  -28.0800  -12.6200   19.1430 C   0  0  0  0  0  3  0  0  0  0  0  0
  -29.1920  -12.7470   20.2060 C   0  0  0  0  0  2  0  0  0  0  0  0
  -30.4910  -12.9050   19.5250 N   0  0  0  0  0  0  0  0  0  0  0  0
  -32.1160  -14.2160   18.6070 O   0  0  0  0  0  0  0  0  0  0  0  0
  -30.7830  -15.0600   20.2170 N   0  0  0  0  0  0  0  0  0  0  0  0
  -30.0270  -14.8480   20.8510 H   0  0  0  0  0  0  0  0  0  0  0  0
  -25.8260  -13.4100   20.1070 C   0  0  0  0  0  0  0  0  0  0  0  0
  -24.7560  -12.7190   20.6100 C   0  0  0  0  0  0  0  0  0  0  0  0
  -25.1140  -11.3390   20.5520 C   0  0  0  0  0  0  0  0  0  0  0  0
  -26.7720  -12.4530   19.7720 N   0  0  0  0  0  0  0  0  0  0  0  0
  -26.3510  -11.2040   20.0950 N   0  0  0  0  0  0  0  0  0  0  0  0
  -24.3260  -10.1340   20.8420 C   0  0  0  0  0  0  0  0  0  0  0  0
  -24.7180   -9.2160   21.8400 C   0  0  0  0  0  3  0  0  0  0  0  0
  -23.9330   -8.0740   22.1130 C   0  0  0  0  0  3  0  0  0  0  0  0
  -22.7380   -7.8460   21.3890 C   0  0  0  0  0  0  0  0  0  0  0  0
  -22.3650   -8.7500   20.3800 C   0  0  0  0  0  3  0  0  0  0  0  0
  -23.1510   -9.8820   20.1050 C   0  0  0  0  0  3  0  0  0  0  0  0
  -21.9240   -6.7530   21.5720 O   0  0  0  0  0  0  0  0  0  0  0  0
  -21.7510   -6.1860   22.8080 C   0  0  0  0  0  0  0  0  0  0  0  0
  -21.2530   -6.9210   23.9060 C   0  0  0  0  0  3  0  0  0  0  0  0
  -21.0250   -6.2780   25.1390 C   0  0  0  0  0  3  0  0  0  0  0  0
  -21.2820   -4.9010   25.2750 C   0  0  0  0  0  0  0  0  0  0  0  0
  -21.7730   -4.1650   24.1810 C   0  0  0  0  0  3  0  0  0  0  0  0
  -22.0030   -4.8060   22.9520 C   0  0  0  0  0  0  0  0  0  0  0  0
  -22.4570   -4.0890   21.8950 F   0  0  0  0  0  0  0  0  0  0  0  0
  -21.0550   -4.2800   26.4550 F   0  0  0  0  0  0  0  0  0  0  0  0
  -23.4350  -13.3010   21.0240 C   0  0  0  0  0  0  0  0  0  0  0  0
  -22.7690  -12.6770   21.9930 N   0  0  0  0  0  0  0  0  0  0  0  0
  -23.0070  -14.3390   20.5240 O   0  0  0  0  0  0  0  0  0  0  0  0
  -23.1270  -11.8370   22.4200 H   0  0  0  0  0  0  0  0  0  0  0  0
  -21.8830  -13.0460   22.3100 H   0  0  0  0  0  0  0  0  0  0  0  0
  -26.0700  -14.7620   19.8920 N   0  0  0  0  0  0  0  0  0  0  0  0
  -25.3760  -15.4730   20.0920 H   0  0  0  0  0  0  0  0  0  0  0  0
  -26.9230  -15.1370   19.4960 H   0  0  0  0  0  0  0  0  0  0  0  0
  1  3  1  0
  2  6  1  0
  2  1  2  0
  3  7  1  0
  3  9  1  0
  4 55  1  0
  4  7  2  0
  5  2  1  0
  6  4  2  0
  9  8  1  0
 10  1  1  0
 11 10  1  0
 12 11  1  0
 13 12  1  0
 13 14  1  0
 14 16  1  0
 15 26  2  0
 16 21  1  0
 17 25  1  0
 17 27  1  0
 18 24  1  0
 18 20  1  0
 19 25  1  0
 20 19  1  0
 21 20  2  0
 22 23  1  0
 22 16  2  0
 23 18  2  0
 24 17  1  0
 25 15  1  0
 27 29  2  0
 28 27  1  0
 30 28  1  0
 31 40  2  0
 31 36  1  0
 32 28  1  0
 32 36  1  0
 33 32  1  0
 34 35  1  0
 34 33  1  0
 35 31  1  0
 36 37  2  0
 37 38  1  0
 39 38  2  0
 40 39  1  0
 41 15  1  0
 41 46  1  0
 41 42  1  0
 42 45  1  1
 42 43  1  0
 44 42  1  0
 46 49  1  0
 47 51  1  0
 47 46  1  0
 48 47  2  0
 51 50  1  0
 53 51  1  0
 53 54  1  0
 53 52  1  0
 56 55  1  0
 59 57  1  6
 59 56  1  0
 59 58  1  0
 60 59  1  0
 61 67  1  0
 61 69  1  0
 62 67  1  0
 63 64  1  0
 63 62  1  0
 65 64  1  0
 65 74  1  0
 65 66  1  0
 67 66  1  0
 68 61  2  0
 69 60  1  0
 69 70  1  0
 71 72  2  0
 72 91  1  0
 73 72  1  0
 73 76  1  0
 74 75  1  0
 74 71  1  0
 75 73  2  0
 76 77  1  0
 77 78  2  0
 79 82  1  0
 79 78  1  0
 80 79  2  0
 81 80  1  0
 81 76  2  0
 82 83  1  0
 83 88  2  0
 83 84  1  0
 84 85  2  0
 85 86  1  0
 86 90  1  0
 87 86  2  0
 88 87  1  0
 89 88  1  0
 91 92  1  0
 92 95  1  0
 92 94  1  0
 93 91  2  0
 96 97  1  0
 96 71  1  0
 98 96  1  0
M  ISO  4  13 101  14 101  61 100  69 100
M  END
>  <TORSDO>  (15) 
F 25

>  <SCORE>  (15) 
-8.844

>  <name>  (15) 
15

>  <ligand_id>  (15) 
15

>  <original_smiles>  (15) 
[H]c1c([H])c([H])c2c(c1[H])C([H])([H])C([H])([H])C([H])([H])C2([H])N([H])C(=O)C1([H])N(C(=O)C([H])(N([H])C(=O)C([H])(N([H])C([H])([H])[H])C([H])([H])[H])C(C([H])([H])[H])(C([H])([H])[H])C([H])([H])[H])C([H])([H])c2c([H])c(OC([H])([H])C([H])([H])C([H])([H])C([H])([H])c3c(C([H])([H])[H])nc(OC([H])([H])C(C([H])([H])[H])(C([H])([H])[H])C([H])([H])N([H])C(=O)N4C([H])([H])C([H])([H])C([H])([H])C([H])(n5nc(-c6c([H])c([H])c(Oc7c([H])c([H])c(F)c([H])c7F)c([H])c6[H])c(C(=O)N([H])[H])c5N([H])[H])C4([H])[H])nc3C([H])([H])C([H])([H])[H])c([H])c([H])c2C1([H])[H]

>  <smiles>  (15) 
[H]c1c([H])c([H])c2c(c1[H])C([H])([H])C([H])([H])C([H])([H])C2([H])N([H])C(=O)C1([H])N(C(=O)C([H])(N([H])C(=O)C([H])(N([H])C([H])([H])[H])C([H])([H])[H])C(C([H])([H])[H])(C([H])([H])[H])C([H])([H])[H])C([H])([H])c2c([H])c(OC([H])([H])C([H])([H])C([H])([H])C([H])([H])c3c(C([H])([H])[H])nc(OC([H])([H])C(C([H])([H])[H])(C([H])([H])[H])C([H])([H])N([H])C(=O)N4C([H])([H])C([H])([H])C([H])([H])C([H])(n5nc(-c6c([H])c([H])c(Oc7c([H])c([H])c(F)c([H])c7F)c([H])c6[H])c(C(=O)N([H])[H])c5N([H])[H])C4([H])[H])nc3C([H])([H])C([H])([H])[H])c([H])c([H])c2C1([H])[H]

$$$$
16:0:0
     RDKit          3D

100108  0  0  1  0  0  0  0  0999 V2000
  -31.3770  -21.9230   20.9370 C   0  0  0  0  0  3  0  0  0  0  0  0
  -31.8700  -20.5850   21.0540 C   0  0  0  0  0  0  0  0  0  0  0  0
  -30.1370  -21.9200   20.3640 C   0  0  0  0  0  0  0  0  0  0  0  0
  -30.8830  -19.7450   20.5820 C   0  0  0  0  0  0  0  0  0  0  0  0
  -29.8320  -20.5680   20.1400 N   0  0  0  0  0  0  0  0  0  0  0  0
  -33.2540  -20.2290   21.5760 C   0  0  1  0  0  0  0  0  0  0  0  0
  -34.1070  -21.2090   21.2710 F   0  0  0  0  0  0  0  0  0  0  0  0
  -33.2340  -20.0960   22.9010 F   0  0  0  0  0  0  0  0  0  0  0  0
  -33.7120  -19.1030   21.0330 F   0  0  0  0  0  0  0  0  0  0  0  0
  -29.2140  -23.0740   19.9640 C   0  0  0  0  0  2  0  0  0  0  0  0
  -29.5800  -24.5400   20.4080 C   0  0  0  0  0  2  0  0  0  0  0  0
  -28.5010  -25.5830   19.9660 C   0  0  0  0  0  2  0  0  0  0  0  0
  -28.6070  -26.9670   20.4190 O   0  0  0  0  0  0  0  0  0  0  0  0
  -24.6340  -32.1130   23.4640 C   0  0  0  0  0  0  0  0  0  0  0  0
  -27.4420  -27.7370   20.3630 C   0  0  0  0  0  0  0  0  0  0  0  0
  -23.4990  -30.7090   21.7780 C   0  0  0  0  0  3  0  0  0  0  0  0
  -25.0180  -29.2360   20.3500 C   0  0  0  0  0  0  0  0  0  0  0  0
  -26.0260  -31.1120   21.6480 C   0  0  0  0  0  2  0  0  0  0  0  0
  -26.1560  -29.7540   20.9820 C   0  0  0  0  0  0  0  0  0  0  0  0
  -27.3660  -29.0100   20.9900 C   0  0  0  0  0  3  0  0  0  0  0  0
  -26.2800  -27.2670   19.7010 C   0  0  0  0  0  3  0  0  0  0  0  0
  -25.0780  -27.9940   19.7050 C   0  0  0  0  0  3  0  0  0  0  0  0
  -23.7530  -30.0650   20.3910 C   0  0  0  0  0  2  0  0  0  0  0  0
  -24.7360  -31.3260   22.3540 N   0  0  0  0  0  0  0  0  0  0  0  0
  -23.5330  -32.3530   23.9790 O   0  0  0  0  0  0  0  0  0  0  0  0
  -22.8530  -29.6540   22.7090 C   0  0  0  0  0  0  0  0  0  0  0  0
  -21.5490  -29.4000   22.5140 N   0  0  0  0  0  0  0  0  0  0  0  0
  -23.5240  -29.0710   23.5650 O   0  0  0  0  0  0  0  0  0  0  0  0
  -21.0680  -29.9300   21.8000 H   0  0  0  0  0  0  0  0  0  0  0  0
  -18.2290  -27.9990   22.8280 C   0  0  0  0  0  0  0  0  0  0  0  0
  -20.7440  -28.4190   23.2450 C   0  0  0  0  0  3  0  0  0  0  0  0
  -20.9700  -26.9930   22.6940 C   0  0  0  0  0  2  0  0  0  0  0  0
  -19.9540  -26.5930   21.6210 C   0  0  0  0  0  2  0  0  0  0  0  0
  -18.5290  -26.6570   22.1790 C   0  0  0  0  0  2  0  0  0  0  0  0
  -19.2710  -28.8340   23.3110 C   0  0  0  0  0  0  0  0  0  0  0  0
  -18.9390  -30.0860   23.8720 C   0  0  0  0  0  3  0  0  0  0  0  0
  -17.5990  -30.5090   23.9530 C   0  0  0  0  0  3  0  0  0  0  0  0
  -16.5710  -29.6730   23.4830 C   0  0  0  0  0  3  0  0  0  0  0  0
  -16.8860  -28.4200   22.9300 C   0  0  0  0  0  3  0  0  0  0  0  0
  -25.8890  -32.7660   24.1190 C   0  0  0  0  0  3  0  0  0  0  0  0
  -26.3440  -32.0430   25.4470 C   0  0  1  0  0  0  0  0  0  0  0  0
  -25.1990  -31.8230   26.4630 C   0  0  0  0  0  1  0  0  0  0  0  0
  -26.9700  -30.6630   25.1320 C   0  0  0  0  0  1  0  0  0  0  0  0
  -27.4470  -32.8760   26.1420 C   0  0  0  0  0  1  0  0  0  0  0  0
  -25.5660  -34.1760   24.3800 N   0  0  0  0  0  0  0  0  0  0  0  0
  -25.8940  -35.1950   23.5750 C   0  0  0  0  0  0  0  0  0  0  0  0
  -26.5730  -35.0480   22.5550 O   0  0  0  0  0  0  0  0  0  0  0  0
  -24.9620  -34.3610   25.1680 H   0  0  0  0  0  0  0  0  0  0  0  0
  -24.1360  -36.9430   23.1380 C   0  0  0  0  0  1  0  0  0  0  0  0
  -25.3890  -36.6000   23.9590 C   0  0  0  0  0  3  0  0  0  0  0  0
  -27.5130  -37.5680   24.7220 C   0  0  0  0  0  1  0  0  0  0  0  0
  -26.4060  -37.6580   23.7740 N   0  0  0  0  0  0  0  0  0  0  0  0
  -25.9880  -38.5800   23.8600 H   0  0  0  0  0  0  0  0  0  0  0  0
  -30.8630  -18.2140   20.4220 C   0  0  0  0  0  2  0  0  0  0  0  0
  -31.0380  -17.5280   22.9100 C   0  0  0  0  0  1  0  0  0  0  0  0
  -30.2590  -17.3760   21.5960 C   0  0  0  0  0  3  0  0  0  0  0  0
  -30.8000  -14.9710   20.7910 C   0  0  0  0  0  0  0  0  0  0  0  0
  -30.6410  -12.7970   19.6180 C   0  0  0  0  0  2  0  0  0  0  0  0
  -29.7390  -12.9670   18.3770 C   0  0  0  0  0  2  0  0  0  0  0  0
  -28.2520  -12.7800   18.7450 C   0  0  0  0  0  2  0  0  0  0  0  0
  -27.8380  -13.6010   19.9950 C   0  0  0  0  0  3  0  0  0  0  0  0
  -28.8530  -13.3980   21.1430 C   0  0  0  0  0  2  0  0  0  0  0  0
  -30.1860  -13.7640   20.6310 N   0  0  0  0  0  0  0  0  0  0  0  0
  -31.9390  -15.2030   20.3820 O   0  0  0  0  0  0  0  0  0  0  0  0
  -30.0120  -15.9390   21.3090 N   0  0  0  0  0  0  0  0  0  0  0  0
  -29.0920  -15.6100   21.5650 H   0  0  0  0  0  0  0  0  0  0  0  0
  -25.3960  -14.1470   20.5930 C   0  0  0  0  0  0  0  0  0  0  0  0
  -24.3320  -13.3470   20.9150 C   0  0  0  0  0  0  0  0  0  0  0  0
  -24.8290  -12.0080   20.9080 C   0  0  0  0  0  0  0  0  0  0  0  0
  -26.4730  -13.2920   20.4130 N   0  0  0  0  0  0  0  0  0  0  0  0
  -26.1330  -11.9990   20.6590 N   0  0  0  0  0  0  0  0  0  0  0  0
  -24.1270  -10.7280   21.0690 C   0  0  0  0  0  0  0  0  0  0  0  0
  -24.5040   -9.8010   22.0650 C   0  0  0  0  0  3  0  0  0  0  0  0
  -23.8040   -8.5840   22.2120 C   0  0  0  0  0  3  0  0  0  0  0  0
  -22.7120   -8.2860   21.3610 C   0  0  0  0  0  0  0  0  0  0  0  0
  -22.3540   -9.2040   20.3580 C   0  0  0  0  0  3  0  0  0  0  0  0
  -23.0560  -10.4130   20.2100 C   0  0  0  0  0  3  0  0  0  0  0  0
  -21.9900   -7.1190   21.4130 O   0  0  0  0  0  0  0  0  0  0  0  0
  -21.8240   -6.4270   22.5870 C   0  0  0  0  0  0  0  0  0  0  0  0
  -21.1980   -7.0080   23.7110 C   0  0  0  0  0  3  0  0  0  0  0  0
  -20.9840   -6.2390   24.8730 C   0  0  0  0  0  3  0  0  0  0  0  0
  -21.3850   -4.8890   24.9090 C   0  0  0  0  0  0  0  0  0  0  0  0
  -22.0030   -4.3080   23.7870 C   0  0  0  0  0  3  0  0  0  0  0  0
  -22.2170   -5.0730   22.6290 C   0  0  0  0  0  0  0  0  0  0  0  0
  -22.7940   -4.5020   21.5430 F   0  0  0  0  0  0  0  0  0  0  0  0
  -21.1730   -4.1490   26.0220 F   0  0  0  0  0  0  0  0  0  0  0  0
  -22.9120  -13.7890   21.1220 C   0  0  0  0  0  0  0  0  0  0  0  0
  -22.1630  -13.0720   21.9550 N   0  0  0  0  0  0  0  0  0  0  0  0
  -22.4710  -14.8020   20.5830 O   0  0  0  0  0  0  0  0  0  0  0  0
  -22.5330  -12.2550   22.4150 H   0  0  0  0  0  0  0  0  0  0  0  0
  -21.2100  -13.3490   22.1360 H   0  0  0  0  0  0  0  0  0  0  0  0
  -25.5340  -15.5210   20.4210 N   0  0  0  0  0  0  0  0  0  0  0  0
  -24.7460  -16.1550   20.4910 H   0  0  0  0  0  0  0  0  0  0  0  0
  -26.3820  -15.9770   20.1150 H   0  0  0  0  0  0  0  0  0  0  0  0
  -28.6240  -20.0700   19.4940 C   0  0  0  0  0  2  0  0  0  0  0  0
  -28.8320  -19.9170   17.9700 C   0  0  0  0  0  2  0  0  0  0  0  0
  -27.5530  -17.7090   17.8620 C   0  0  0  0  0  1  0  0  0  0  0  0
  -28.2300  -18.8790   15.7680 C   0  0  0  0  0  1  0  0  0  0  0  0
  -26.4190  -19.8630   17.1870 C   0  0  0  0  0  1  0  0  0  0  0  0
  -27.7540  -19.0960   17.2160 C   0  0  2  0  0  0  0  0  0  0  0  0
  1  2  1  0
  2  6  1  0
  3  1  2  0
  4  2  2  0
  5  3  1  0
  5  4  1  0
  6  8  1  1
  7  6  1  0
  9  6  1  0
 10  3  1  0
 10 11  1  0
 12 11  1  0
 12 13  1  0
 14 25  2  0
 15 13  1  0
 15 20  1  0
 16 24  1  0
 16 26  1  0
 17 23  1  0
 17 19  1  0
 18 24  1  0
 19 20  2  0
 19 18  1  0
 21 22  1  0
 21 15  2  0
 22 17  2  0
 23 16  1  0
 24 14  1  0
 26 28  2  0
 27 26  1  0
 29 27  1  0
 30 39  2  0
 30 35  1  0
 31 27  1  0
 31 35  1  0
 32 31  1  0
 33 34  1  0
 33 32  1  0
 34 30  1  0
 35 36  2  0
 36 37  1  0
 38 37  2  0
 39 38  1  0
 40 14  1  0
 40 45  1  0
 40 41  1  0
 41 44  1  1
 41 42  1  0
 43 41  1  0
 45 48  1  0
 46 50  1  0
 46 45  1  0
 47 46  2  0
 50 49  1  0
 52 53  1  0
 52 50  1  0
 52 51  1  0
 54  4  1  0
 54 56  1  0
 56 55  1  0
 57 65  1  0
 58 63  1  0
 59 60  1  0
 59 58  1  0
 61 60  1  0
 61 70  1  0
 61 62  1  0
 63 57  1  0
 63 62  1  0
 64 57  2  0
 65 66  1  0
 65 56  1  0
 67 68  2  0
 68 87  1  0
 69 68  1  0
 69 72  1  0
 70 67  1  0
 70 71  1  0
 71 69  2  0
 72 73  1  0
 73 74  2  0
 75 78  1  0
 75 74  1  0
 76 75  2  0
 77 76  1  0
 77 72  2  0
 78 79  1  0
 79 84  2  0
 79 80  1  0
 80 81  2  0
 81 82  1  0
 82 86  1  0
 83 82  2  0
 84 83  1  0
 85 84  1  0
 87 88  1  0
 88 91  1  0
 88 90  1  0
 89 87  2  0
 92 93  1  0
 92 67  1  0
 94 92  1  0
 95  5  1  0
 96 95  1  0
100 98  1  6
 99100  1  0
100 97  1  0
100 96  1  0
M  ISO  4  12 101  13 101  57 100  65 100
M  END
>  <TORSDO>  (16) 
F 25

>  <SCORE>  (16) 
-11.972

>  <name>  (16) 
16

>  <ligand_id>  (16) 
16

>  <original_smiles>  (16) 
[H]c1c([H])c([H])c2c(c1[H])C([H])([H])C([H])([H])C([H])([H])C2([H])N([H])C(=O)C1([H])N(C(=O)C([H])(N([H])C(=O)C([H])(N([H])C([H])([H])[H])C([H])([H])[H])C(C([H])([H])[H])(C([H])([H])[H])C([H])([H])[H])C([H])([H])c2c([H])c(OC([H])([H])C([H])([H])C([H])([H])c3c([H])c(C(F)(F)F)c(C([H])([H])C([H])(N([H])C(=O)N4C([H])([H])C([H])([H])C([H])([H])C([H])(n5nc(-c6c([H])c([H])c(Oc7c([H])c([H])c(F)c([H])c7F)c([H])c6[H])c(C(=O)N([H])[H])c5N([H])[H])C4([H])[H])C([H])([H])[H])n3C([H])([H])C([H])([H])C(C([H])([H])[H])(C([H])([H])[H])C([H])([H])[H])c([H])c([H])c2C1([H])[H]

>  <smiles>  (16) 
[H]c1c([H])c([H])c2c(c1[H])C([H])([H])C([H])([H])C([H])([H])C2([H])N([H])C(=O)C1([H])N(C(=O)C([H])(N([H])C(=O)C([H])(N([H])C([H])([H])[H])C([H])([H])[H])C(C([H])([H])[H])(C([H])([H])[H])C([H])([H])[H])C([H])([H])c2c([H])c(OC([H])([H])C([H])([H])C([H])([H])c3c([H])c(C(F)(F)F)c(C([H])([H])C([H])(N([H])C(=O)N4C([H])([H])C([H])([H])C([H])([H])C([H])(n5nc(-c6c([H])c([H])c(Oc7c([H])c([H])c(F)c([H])c7F)c([H])c6[H])c(C(=O)N([H])[H])c5N([H])[H])C4([H])[H])C([H])([H])[H])n3C([H])([H])C([H])([H])C(C([H])([H])[H])(C([H])([H])[H])C([H])([H])[H])c([H])c([H])c2C1([H])[H]

$$$$
17:0:0
     RDKit          3D

 88 96  0  0  1  0  0  0  0  0999 V2000
  -29.2640  -20.0590   21.1490 C   0  0  0  0  0  3  0  0  0  0  0  0
  -29.5090  -19.1470   20.0000 C   0  0  0  0  0  0  0  0  0  0  0  0
  -28.9600  -21.4710   18.9410 C   0  0  0  0  0  0  0  0  0  0  0  0
  -28.7360  -22.3790   20.1020 C   0  0  0  0  0  0  0  0  0  0  0  0
  -28.7560  -22.0390   17.5430 C   0  0  0  0  0  1  0  0  0  0  0  0
  -28.9220  -21.4820   21.1930 N   0  0  0  0  0  0  0  0  0  0  0  0
  -29.2990  -20.0490   18.9130 N   0  0  0  0  0  0  0  0  0  0  0  0
  -28.2690  -17.0570   20.8920 C   0  0  0  0  0  1  0  0  0  0  0  0
  -28.8130  -17.1780   18.4510 C   0  0  0  0  0  1  0  0  0  0  0  0
  -29.4020  -17.3050   19.8770 C   0  0  1  0  0  0  0  0  0  0  0  0
  -30.3940  -15.7210   19.9210 C   0  0  0  0  0  0  0  0  0  0  0  0
  -30.5460  -13.1760   19.1490 C   0  0  0  0  0  2  0  0  0  0  0  0
  -29.5820  -12.7950   17.9860 C   0  0  0  0  0  2  0  0  0  0  0  0
  -28.1810  -12.4320   18.5100 C   0  0  0  0  0  2  0  0  0  0  0  0
  -27.7180  -13.4240   19.5980 C   0  0  0  0  0  3  0  0  0  0  0  0
  -28.8160  -13.6720   20.6570 C   0  0  0  0  0  2  0  0  0  0  0  0
  -29.9580  -14.3240   19.9660 N   0  0  0  0  0  0  0  0  0  0  0  0
  -31.6190  -15.7240   19.6960 O   0  0  0  0  0  0  0  0  0  0  0  0
  -25.3940  -13.9640   20.4850 C   0  0  0  0  0  0  0  0  0  0  0  0
  -24.3480  -13.1800   20.8810 C   0  0  0  0  0  0  0  0  0  0  0  0
  -24.8070  -11.8310   20.7840 C   0  0  0  0  0  0  0  0  0  0  0  0
  -26.4200  -13.0910   20.1690 N   0  0  0  0  0  0  0  0  0  0  0  0
  -26.0830  -11.8000   20.4120 N   0  0  0  0  0  0  0  0  0  0  0  0
  -24.0820  -10.5680   20.9690 C   0  0  0  0  0  0  0  0  0  0  0  0
  -24.5100   -9.6040   21.9070 C   0  0  0  0  0  3  0  0  0  0  0  0
  -23.7830   -8.4060   22.0780 C   0  0  0  0  0  3  0  0  0  0  0  0
  -22.6160   -8.1680   21.3160 C   0  0  0  0  0  0  0  0  0  0  0  0
  -22.2080   -9.1220   20.3670 C   0  0  0  0  0  3  0  0  0  0  0  0
  -22.9360  -10.3110   20.1930 C   0  0  0  0  0  3  0  0  0  0  0  0
  -21.8620   -7.0220   21.4020 O   0  0  0  0  0  0  0  0  0  0  0  0
  -21.7370   -6.3280   22.5780 C   0  0  0  0  0  0  0  0  0  0  0  0
  -21.1880   -6.9200   23.7360 C   0  0  0  0  0  3  0  0  0  0  0  0
  -21.0100   -6.1490   24.9020 C   0  0  0  0  0  3  0  0  0  0  0  0
  -21.3730   -4.7900   24.9110 C   0  0  0  0  0  0  0  0  0  0  0  0
  -21.9200   -4.1980   23.7570 C   0  0  0  0  0  3  0  0  0  0  0  0
  -22.0980   -4.9650   22.5920 C   0  0  0  0  0  0  0  0  0  0  0  0
  -22.6040   -4.3850   21.4770 F   0  0  0  0  0  0  0  0  0  0  0  0
  -21.1960   -4.0470   26.0290 F   0  0  0  0  0  0  0  0  0  0  0  0
  -22.9710  -13.6570   21.2330 C   0  0  0  0  0  0  0  0  0  0  0  0
  -22.2820  -12.9440   22.1180 N   0  0  0  0  0  0  0  0  0  0  0  0
  -22.5180  -14.7020   20.7630 O   0  0  0  0  0  0  0  0  0  0  0  0
  -22.6610  -12.0960   22.5130 H   0  0  0  0  0  0  0  0  0  0  0  0
  -21.3630  -13.2510   22.4010 H   0  0  0  0  0  0  0  0  0  0  0  0
  -25.5470  -15.3380   20.3430 N   0  0  0  0  0  0  0  0  0  0  0  0
  -24.8030  -15.9950   20.5490 H   0  0  0  0  0  0  0  0  0  0  0  0
  -26.3960  -15.7920   20.0350 H   0  0  0  0  0  0  0  0  0  0  0  0
  -27.9000  -24.0230   20.1680 C   0  0  0  0  0  2  0  0  0  0  0  0
  -28.2050  -25.7180   20.2910 O   0  0  0  0  0  0  0  0  0  0  0  0
  -24.6660  -31.9150   23.2680 C   0  0  0  0  0  0  0  0  0  0  0  0
  -27.2220  -26.9020   20.2580 C   0  0  0  0  0  0  0  0  0  0  0  0
  -23.4790  -30.5110   21.6330 C   0  0  0  0  0  3  0  0  0  0  0  0
  -24.9310  -28.8800   20.2200 C   0  0  0  0  0  0  0  0  0  0  0  0
  -26.0540  -30.6810   21.5040 C   0  0  0  0  0  2  0  0  0  0  0  0
  -26.1250  -29.2550   20.8450 C   0  0  0  0  0  0  0  0  0  0  0  0
  -27.2580  -28.2930   20.8350 C   0  0  0  0  0  3  0  0  0  0  0  0
  -25.9880  -26.7220   19.5860 C   0  0  0  0  0  3  0  0  0  0  0  0
  -24.8960  -27.6370   19.5680 C   0  0  0  0  0  3  0  0  0  0  0  0
  -23.7170  -29.8180   20.2640 C   0  0  0  0  0  2  0  0  0  0  0  0
  -24.7550  -31.0680   22.1880 N   0  0  0  0  0  0  0  0  0  0  0  0
  -23.5720  -32.2090   23.7820 O   0  0  0  0  0  0  0  0  0  0  0  0
  -22.7720  -29.5280   22.6040 C   0  0  0  0  0  0  0  0  0  0  0  0
  -21.4450  -29.3480   22.4660 N   0  0  0  0  0  0  0  0  0  0  0  0
  -23.4310  -28.9240   23.4550 O   0  0  0  0  0  0  0  0  0  0  0  0
  -20.9630  -29.8840   21.7570 H   0  0  0  0  0  0  0  0  0  0  0  0
  -18.0730  -28.0950   22.9620 C   0  0  0  0  0  0  0  0  0  0  0  0
  -20.6270  -28.4070   23.2410 C   0  0  0  0  0  3  0  0  0  0  0  0
  -20.7540  -26.9700   22.6810 C   0  0  0  0  0  2  0  0  0  0  0  0
  -19.6660  -26.6210   21.6600 C   0  0  0  0  0  2  0  0  0  0  0  0
  -18.2780  -26.7460   22.2920 C   0  0  0  0  0  2  0  0  0  0  0  0
  -19.1760  -28.8810   23.3930 C   0  0  0  0  0  0  0  0  0  0  0  0
  -18.9270  -30.1390   23.9820 C   0  0  0  0  0  3  0  0  0  0  0  0
  -17.6120  -30.6120   24.1430 C   0  0  0  0  0  3  0  0  0  0  0  0
  -16.5250  -29.8260   23.7260 C   0  0  0  0  0  3  0  0  0  0  0  0
  -16.7560  -28.5680   23.1410 C   0  0  0  0  0  3  0  0  0  0  0  0
  -25.9290  -32.5680   23.9050 C   0  0  0  0  0  3  0  0  0  0  0  0
  -25.6040  -33.9710   24.2280 N   0  0  0  0  0  0  0  0  0  0  0  0
  -25.9100  -35.0300   23.4640 C   0  0  0  0  0  0  0  0  0  0  0  0
  -26.5510  -34.9280   22.4160 O   0  0  0  0  0  0  0  0  0  0  0  0
  -25.0260  -34.1210   25.0410 H   0  0  0  0  0  0  0  0  0  0  0  0
  -24.1500  -36.8110   23.1810 C   0  0  0  0  0  1  0  0  0  0  0  0
  -25.4330  -36.4190   23.9340 C   0  0  0  0  0  3  0  0  0  0  0  0
  -27.5860  -37.3480   24.6680 C   0  0  0  0  0  1  0  0  0  0  0  0
  -26.4490  -37.4810   23.7610 N   0  0  0  0  0  0  0  0  0  0  0  0
  -26.0370  -38.4000   23.9000 H   0  0  0  0  0  0  0  0  0  0  0  0
  -26.4240  -31.8190   25.2040 C   0  0  1  0  0  0  0  0  0  0  0  0
  -25.3140  -31.5960   26.2570 C   0  0  0  0  0  1  0  0  0  0  0  0
  -27.0190  -30.4370   24.8560 C   0  0  0  0  0  1  0  0  0  0  0  0
  -27.5590  -32.6290   25.8730 C   0  0  0  0  0  1  0  0  0  0  0  0
  1  6  1  0
  2  1  2  0
  3  4  1  0
  4 47  1  0
  4  6  2  0
  5  3  1  0
  7  3  2  0
  7  2  1  0
 10  9  1  6
 10 11  1  0
 10  2  1  0
 10  8  1  0
 11 17  1  0
 12 17  1  0
 13 14  1  0
 13 12  1  0
 15 14  1  0
 15 22  1  0
 15 16  1  0
 17 16  1  0
 18 11  2  0
 19 20  2  0
 20 39  1  0
 21 20  1  0
 21 24  1  0
 22 23  1  0
 22 19  1  0
 23 21  2  0
 24 25  1  0
 25 26  2  0
 27 30  1  0
 27 26  1  0
 28 27  2  0
 29 28  1  0
 29 24  2  0
 30 31  1  0
 31 36  2  0
 31 32  1  0
 32 33  2  0
 33 34  1  0
 34 38  1  0
 35 34  2  0
 36 35  1  0
 37 36  1  0
 39 40  1  0
 40 43  1  0
 40 42  1  0
 41 39  2  0
 44 19  1  0
 44 45  1  0
 46 44  1  0
 47 48  1  0
 49 60  2  0
 50 48  1  0
 50 55  1  0
 51 59  1  0
 51 61  1  0
 52 58  1  0
 52 54  1  0
 53 59  1  0
 54 53  1  0
 55 54  2  0
 56 50  2  0
 57 56  1  0
 57 52  2  0
 58 51  1  0
 59 49  1  0
 61 63  2  0
 62 61  1  0
 64 62  1  0
 65 74  2  0
 65 70  1  0
 66 62  1  0
 66 70  1  0
 67 66  1  0
 68 69  1  0
 68 67  1  0
 69 65  1  0
 70 71  2  0
 71 72  1  0
 73 72  2  0
 74 73  1  0
 75 49  1  0
 75 76  1  0
 75 85  1  0
 76 79  1  0
 77 81  1  0
 77 76  1  0
 78 77  2  0
 81 80  1  0
 83 84  1  0
 83 81  1  0
 83 82  1  0
 85 88  1  1
 85 86  1  0
 87 85  1  0
M  ISO  4  10 100  11 100  47 101  48 101
M  END
>  <TORSDO>  (17) 
F 18

>  <SCORE>  (17) 
-16.137

>  <name>  (17) 
17

>  <ligand_id>  (17) 
17

>  <original_smiles>  (17) 
[H]c1nc(C([H])([H])Oc2c([H])c([H])c3c(c2[H])C([H])([H])N(C(=O)C([H])(N([H])C(=O)C([H])(N([H])C([H])([H])[H])C([H])([H])[H])C(C([H])([H])[H])(C([H])([H])[H])C([H])([H])[H])C([H])(C(=O)N([H])C2([H])c4c([H])c([H])c([H])c([H])c4C([H])([H])C([H])([H])C2([H])[H])C3([H])[H])c(C([H])([H])[H])nc1C(C(=O)N1C([H])([H])C([H])([H])C([H])([H])C([H])(n2nc(-c3c([H])c([H])c(Oc4c([H])c([H])c(F)c([H])c4F)c([H])c3[H])c(C(=O)N([H])[H])c2N([H])[H])C1([H])[H])(C([H])([H])[H])C([H])([H])[H]

>  <smiles>  (17) 
[H]c1nc(C([H])([H])Oc2c([H])c([H])c3c(c2[H])C([H])([H])N(C(=O)C([H])(N([H])C(=O)C([H])(N([H])C([H])([H])[H])C([H])([H])[H])C(C([H])([H])[H])(C([H])([H])[H])C([H])([H])[H])C([H])(C(=O)N([H])C2([H])c4c([H])c([H])c([H])c([H])c4C([H])([H])C([H])([H])C2([H])[H])C3([H])[H])c(C([H])([H])[H])nc1C(C(=O)N1C([H])([H])C([H])([H])C([H])([H])C([H])(n2nc(-c3c([H])c([H])c(Oc4c([H])c([H])c(F)c([H])c4F)c([H])c3[H])c(C(=O)N([H])[H])c2N([H])[H])C1([H])[H])(C([H])([H])[H])C([H])([H])[H]

$$$$
18:0:0
     RDKit          3D

 97 96  0  0  1  0  0  0  0  0999 V2000
  -28.5180  -12.7290   20.9740 C   0  0  2  0  0  0  0  0  0  0  0  0
  -28.4710  -14.3570   21.0280 C   0  0  0  0  0  1  0  0  0  0  0  0
  -27.8660  -15.3500   19.5290 C   0  0  0  0  0 15  0  0  0  0  0  0
  -27.5810  -12.1810   18.4210 C   0  0  0  0  0  1  0  0  0  0  0  0
  -28.0910  -11.7910   19.8040 N   0  0  0  0  0  0  0  0  0  0  0  0
  -27.3650  -14.0730   18.1620 N   0  0  0  0  0 15  0  0  0  0  0  0
  -28.4340   -9.4930   18.1450 C   0  0  0  0  0  1  0  0  0  0  0  0
  -27.0740   -9.5760   19.8750 C   0  0  0  0  0  1  0  0  0  0  0  0
  -28.2110  -10.5090   19.3840 C   0  0  0  0  0  3  0  0  0  0  0  0
  -29.7210  -10.1900   20.9800 C   0  0  0  0  0  1  0  0  0  0  0  0
  -32.4550  -12.1870   20.6390 C   0  0  0  0  0  0  0  0  0  0  0  0
  -32.3080  -12.8790   18.1910 C   0  0  0  0  0  3  0  0  0  0  0  0
  -31.0510  -12.8130   17.1120 C   0  0  0  0  0  3  0  0  0  0  0  0
  -29.5460  -13.3110   17.4430 C   0  0  0  0  0  2  0  0  0  0  0  0
  -29.3610  -13.8040   19.0160 C   0  0  0  0  0  2  0  0  0  0  0  0
  -30.9130  -14.1860   19.4820 C   0  0  0  0  0  2  0  0  0  0  0  0
  -32.0750  -13.1960   19.6610 N   0  0  0  0  0  0  0  0  0  0  0  0
  -33.5980  -12.5460   20.8200 O   0  0  0  0  0  0  0  0  0  0  0  0
  -31.5470  -10.9180   21.1990 N   0  0  0  0  0  2  0  0  0  0  0  0
  -32.0320  -10.4200   21.9240 H   0  0  0  0  0  0  0  0  0  0  0  0
  -25.6690  -14.2200   20.7450 C   0  0  0  0  0  0  0  0  0  0  0  0
  -24.7290  -13.2650   20.9410 C   0  0  0  0  0  0  0  0  0  0  0  0
  -25.2500  -11.9700   21.0430 C   0  0  0  0  0  3  0  0  0  0  0  0
  -26.8510  -13.6330   20.7490 N   0  0  0  0  0  0  0  0  0  0  0  0
  -26.3810  -12.3990   21.4830 N   0  0  0  0  0  2  0  0  0  0  0  0
  -24.6040  -10.6030   21.1870 C   0  0  0  0  0  0  0  0  0  0  0  0
  -24.9270   -9.5980   22.1530 C   0  0  0  0  0  3  0  0  0  0  0  0
  -24.2600   -8.3530   22.2050 C   0  0  0  0  0  3  0  0  0  0  0  0
  -23.1270   -8.1410   21.3840 C   0  0  0  0  0  0  0  0  0  0  0  0
  -22.8040   -9.1110   20.4190 C   0  0  0  0  0  3  0  0  0  0  0  0
  -23.5480  -10.2980   20.3030 C   0  0  0  0  0  3  0  0  0  0  0  0
  -22.3140   -7.0320   21.4430 O   0  0  0  0  0  0  0  0  0  0  0  0
  -22.1520   -6.3100   22.5970 C   0  0  0  0  0  0  0  0  0  0  0  0
  -21.7420   -6.9000   23.8170 C   0  0  0  0  0  3  0  0  0  0  0  0
  -21.5320   -6.0950   24.9520 C   0  0  0  0  0  3  0  0  0  0  0  0
  -21.7280   -4.7010   24.8770 C   0  0  0  0  0  0  0  0  0  0  0  0
  -22.1260   -4.1130   23.6650 C   0  0  0  0  0  3  0  0  0  0  0  0
  -22.3310   -4.9150   22.5280 C   0  0  0  0  0  0  0  0  0  0  0  0
  -22.6850   -4.3370   21.3540 F   0  0  0  0  0  0  0  0  0  0  0  0
  -21.5380   -3.9280   25.9700 F   0  0  0  0  0  0  0  0  0  0  0  0
  -23.3680  -13.6350   21.2030 C   0  0  0  0  0  0  0  0  0  0  0  0
  -22.7690  -12.9580   22.1670 N   0  0  0  0  0  0  0  0  0  0  0  0
  -22.8810  -14.6110   20.6460 O   0  0  0  0  0  0  0  0  0  0  0  0
  -23.2430  -12.2150   22.6570 H   0  0  0  0  0  0  0  0  0  0  0  0
  -21.8200  -13.1880   22.4310 H   0  0  0  0  0  0  0  0  0  0  0  0
  -25.6000  -15.5710   20.5260 N   0  0  0  0  0  0  0  0  0  0  0  0
  -25.9450  -15.5920   19.5600 H   0  0  0  0  0  0  0  0  0  0  0  0
  -26.3220  -16.0250   21.0790 H   0  0  0  0  0  0  0  0  0  0  0  0
  -30.4110  -14.1360   22.4360 C   0  0  0  0  0  1  0  0  0  0  0  0
  -30.2750  -11.5400   19.6620 C   0  0  0  0  0  1  0  0  0  0  0  0
  -29.5260  -13.0220   21.5450 C   0  0  0  0  0  3  0  0  0  0  0  0
  -27.7540  -12.0500   23.6410 C   0  0  0  0  0  1  0  0  0  0  0  0
  -29.1840  -12.4340   23.2320 C   0  0  0  0  0  2  0  0  0  0  0  0
  -27.8140  -17.5060   19.3540 C   0  0  0  0  0 15  0  0  0  0  0  0
  -28.4220  -19.6690   19.7880 C   0  0  0  0  0 15  0  0  0  0  0  0
  -28.1900  -21.9530   19.6340 C   0  0  0  0  0 15  0  0  0  0  0  0
  -28.6690  -23.9250   20.0270 O   0  0  0  0  0  1  0  0  0  0  0  0
  -25.8080  -31.0330   23.1700 C   0  0  0  0  0  0  0  0  0  0  0  0
  -28.0930  -25.5280   20.0380 C   0  0  0  0  0  0  0  0  0  0  0  0
  -24.7540  -29.7780   21.3600 C   0  0  0  0  0  3  0  0  0  0  0  0
  -26.2220  -28.0980   19.9450 C   0  0  0  0  0  0  0  0  0  0  0  0
  -27.3330  -29.6240   21.5310 C   0  0  0  0  0  2  0  0  0  0  0  0
  -27.3480  -28.1840   20.7650 C   0  0  0  0  0  0  0  0  0  0  0  0
  -28.2680  -26.9330   20.7790 C   0  0  0  0  0  3  0  0  0  0  0  0
  -27.0380  -25.8400   19.1400 C   0  0  0  0  0  3  0  0  0  0  0  0
  -26.1550  -26.9720   19.1090 C   0  0  0  0  0  3  0  0  0  0  0  0
  -25.1090  -29.1750   19.9670 C   0  0  0  0  0  2  0  0  0  0  0  0
  -25.9980  -30.1930   22.0780 N   0  0  0  0  0  0  0  0  0  0  0  0
  -24.6720  -31.3500   23.5720 O   0  0  0  0  0  0  0  0  0  0  0  0
  -23.9100  -28.7760   22.1960 C   0  0  0  0  0  0  0  0  0  0  0  0
  -22.5720  -28.7530   22.0230 N   0  0  0  0  0  0  0  0  0  0  0  0
  -24.4740  -28.0170   22.9870 O   0  0  0  0  0  0  0  0  0  0  0  0
  -22.1630  -29.4140   21.3780 H   0  0  0  0  0  0  0  0  0  0  0  0
  -19.0770  -27.8000   22.3970 C   0  0  0  0  0  0  0  0  0  0  0  0
  -21.6530  -27.8000   22.6640 C   0  0  0  0  0  3  0  0  0  0  0  0
  -21.6220  -26.4600   21.8910 C   0  0  0  0  0  2  0  0  0  0  0  0
  -20.5000  -26.3900   20.8510 C   0  0  0  0  0  2  0  0  0  0  0  0
  -19.1340  -26.5590   21.5230 C   0  0  0  0  0  2  0  0  0  0  0  0
  -20.2580  -28.3920   22.9190 C   0  0  0  0  0  0  0  0  0  0  0  0
  -20.1460  -29.5590   23.7060 C   0  0  0  0  0  3  0  0  0  0  0  0
  -18.8880  -30.1330   23.9690 C   0  0  0  0  0  3  0  0  0  0  0  0
  -17.7230  -29.5360   23.4580 C   0  0  0  0  0  3  0  0  0  0  0  0
  -17.8190  -28.3700   22.6790 C   0  0  0  0  0  3  0  0  0  0  0  0
  -26.9890  -31.6490   23.9820 C   0  0  0  0  0  3  0  0  0  0  0  0
  -26.5950  -33.0000   24.4570 N   0  0  0  0  0  0  0  0  0  0  0  0
  -26.9890  -34.1670   23.9260 C   0  0  0  0  0  0  0  0  0  0  0  0
  -27.7700  -34.2250   22.9740 O   0  0  0  0  0  0  0  0  0  0  0  0
  -25.9100  -33.0270   25.1980 H   0  0  0  0  0  0  0  0  0  0  0  0
  -25.2820  -36.0150   23.6810 C   0  0  0  0  0  1  0  0  0  0  0  0
  -26.4400  -35.4770   24.5420 C   0  0  0  0  0  3  0  0  0  0  0  0
  -28.4590  -36.2350   25.7240 C   0  0  0  0  0  1  0  0  0  0  0  0
  -27.4630  -36.5370   24.6990 N   0  0  0  0  0  0  0  0  0  0  0  0
  -27.0290  -37.4270   24.9320 H   0  0  0  0  0  0  0  0  0  0  0  0
  -27.4000  -30.7710   25.2290 C   0  0  1  0  0  0  0  0  0  0  0  0
  -26.2250  -30.4300   26.1770 C   0  0  0  0  0  1  0  0  0  0  0  0
  -28.0310  -29.4380   24.7840 C   0  0  0  0  0  1  0  0  0  0  0  0
  -28.4840  -31.5080   26.0530 C   0  0  0  0  0  1  0  0  0  0  0  0
  1  2  1  6
  1 51  1  0
  4  5  1  0
  5  1  1  0
  7  9  1  0
  9  5  1  0
  9  8  1  0
 11 18  2  0
 11 19  1  0
 12 17  1  0
 13 14  1  0
 13 12  2  0
 14 15  1  0
 15 16  1  0
 16 17  1  0
 17 11  1  0
 19 20  1  0
 21 24  1  0
 21 22  2  0
 22 23  1  0
 22 41  1  0
 23 26  1  0
 23 25  1  0
 24  1  1  0
 24 25  1  0
 26 27  1  0
 27 28  2  0
 29 32  1  0
 29 28  1  0
 30 29  2  0
 31 30  1  0
 31 26  2  0
 32 33  1  0
 33 34  1  0
 34 35  2  0
 36 35  1  0
 36 40  1  0
 37 36  2  0
 38 33  2  0
 38 37  1  0
 39 38  1  0
 41 42  1  0
 42 45  1  0
 42 44  1  0
 43 41  2  0
 46 21  1  0
 46 48  1  0
 47 46  1  0
 50 10  1  0
 51 49  1  0
 51 53  1  0
 53 52  1  0
 57 59  1  0
 58 69  2  0
 59 64  1  0
 60 68  1  0
 60 70  1  0
 61 67  1  0
 61 63  1  0
 62 68  1  0
 63 64  2  0
 63 62  1  0
 65 59  2  0
 66 65  1  0
 66 61  2  0
 67 60  1  0
 68 58  1  0
 70 72  2  0
 71 70  1  0
 73 71  1  0
 74 83  2  0
 74 79  1  0
 75 71  1  0
 75 79  1  0
 76 75  1  0
 77 78  1  0
 77 76  1  0
 78 74  1  0
 79 80  2  0
 80 81  1  0
 82 81  2  0
 83 82  1  0
 84 58  1  0
 84 85  1  0
 84 94  1  0
 85 88  1  0
 86 85  1  0
 86 90  1  0
 87 86  2  0
 90 89  1  0
 90 92  1  0
 92 93  1  0
 92 91  1  0
 94 97  1  1
 94 95  1  0
 96 94  1  0
M  ISO  4  11 100  19 100  56 101  57 101
M  END
>  <TORSDO>  (18) 
F 23

>  <SCORE>  (18) 
-5.368

>  <name>  (18) 
18

>  <ligand_id>  (18) 
18

>  <original_smiles>  (18) 
[H]c1nc(C(C([H])([H])[H])(C([H])([H])[H])C([H])([H])N([H])C(=O)N2C([H])([H])C([H])([H])C([H])([H])C([H])(n3nc(-c4c([H])c([H])c(Oc5c([H])c([H])c(F)c([H])c5F)c([H])c4[H])c(C(=O)N([H])[H])c3N([H])[H])C2([H])[H])nc(C([H])([H])C([H])([H])C([H])([H])Oc2c([H])c([H])c3c(c2[H])C([H])([H])N(C(=O)C([H])(N([H])C(=O)C([H])(N([H])C([H])([H])[H])C([H])([H])[H])C(C([H])([H])[H])(C([H])([H])[H])C([H])([H])[H])C([H])(C(=O)N([H])C2([H])c4c([H])c([H])c([H])c([H])c4C([H])([H])C([H])([H])C2([H])[H])C3([H])[H])c1C(C([H])([H])[H])(C([H])([H])[H])C([H])([H])C([H])([H])[H]

>  <smiles>  (18) 
[H]c1nc(C(C([H])([H])[H])(C([H])([H])[H])C([H])([H])N([H])C(=O)N2C([H])([H])C([H])([H])C([H])([H])C([H])(n3nc(-c4c([H])c([H])c(Oc5c([H])c([H])c(F)c([H])c5F)c([H])c4[H])c(C(=O)N([H])[H])c3N([H])[H])C2([H])[H])nc(C([H])([H])C([H])([H])C([H])([H])Oc2c([H])c([H])c3c(c2[H])C([H])([H])N(C(=O)C([H])(N([H])C(=O)C([H])(N([H])C([H])([H])[H])C([H])([H])[H])C(C([H])([H])[H])(C([H])([H])[H])C([H])([H])[H])C([H])(C(=O)N([H])C2([H])c4c([H])c([H])c([H])c([H])c4C([H])([H])C([H])([H])C2([H])[H])C3([H])[H])c1C(C([H])([H])[H])(C([H])([H])[H])C([H])([H])C([H])([H])[H]

$$$$
19:0:0
     RDKit          3D

 98106  0  0  1  0  0  0  0  0999 V2000
  -28.1980  -18.5230   20.5440 C   0  0  0  0  0  3  0  0  0  0  0  0
  -29.2120  -19.3800   20.0670 C   0  0  0  0  0  0  0  0  0  0  0  0
  -29.7930  -16.9070   20.9270 C   0  0  0  0  0  0  0  0  0  0  0  0
  -28.5010  -17.2760   20.9830 N   0  0  0  0  0  0  0  0  0  0  0  0
  -30.4940  -18.9380   20.0250 N   0  0  0  0  0  0  0  0  0  0  0  0
  -30.7810  -17.6940   20.4500 N   0  0  0  0  0  0  0  0  0  0  0  0
  -28.9240  -20.8000   19.5590 C   0  0  0  0  0  2  0  0  0  0  0  0
  -28.9830  -21.9190   20.6400 C   0  0  0  0  0  2  0  0  0  0  0  0
  -29.8440  -23.1630   20.2770 C   0  0  0  0  0  2  0  0  0  0  0  0
  -28.2940  -23.9180   18.3820 C   0  0  0  0  0  1  0  0  0  0  0  0
  -30.3880  -25.1780   18.9160 C   0  0  0  0  0  1  0  0  0  0  0  0
  -29.2090  -24.3870   19.5280 C   0  0  2  0  0  0  0  0  0  0  0  0
  -28.4130  -25.3330   20.4910 C   0  0  0  0  0  2  0  0  0  0  0  0
  -28.4170  -26.7120   20.0660 O   0  0  0  0  0  0  0  0  0  0  0  0
  -24.6150  -31.8670   23.2080 C   0  0  0  0  0  0  0  0  0  0  0  0
  -27.2360  -27.4230   20.1040 C   0  0  0  0  0  0  0  0  0  0  0  0
  -23.4030  -30.4880   21.5490 C   0  0  0  0  0  3  0  0  0  0  0  0
  -24.8490  -28.9460   20.1200 C   0  0  0  0  0  0  0  0  0  0  0  0
  -25.9320  -30.8290   21.3610 C   0  0  0  0  0  2  0  0  0  0  0  0
  -26.0100  -29.4610   20.7120 C   0  0  0  0  0  0  0  0  0  0  0  0
  -27.2070  -28.7100   20.6930 C   0  0  0  0  0  3  0  0  0  0  0  0
  -26.0590  -26.9200   19.5110 C   0  0  0  0  0  3  0  0  0  0  0  0
  -24.8690  -27.6750   19.5170 C   0  0  0  0  0  3  0  0  0  0  0  0
  -23.6120  -29.8150   20.1660 C   0  0  0  0  0  2  0  0  0  0  0  0
  -24.6680  -31.0760   22.0980 N   0  0  0  0  0  0  0  0  0  0  0  0
  -23.5340  -32.1420   23.7480 O   0  0  0  0  0  0  0  0  0  0  0  0
  -22.7410  -29.4650   22.5000 C   0  0  0  0  0  0  0  0  0  0  0  0
  -21.4130  -29.3030   22.3740 N   0  0  0  0  0  0  0  0  0  0  0  0
  -23.4180  -28.8200   23.3050 O   0  0  0  0  0  0  0  0  0  0  0  0
  -20.9300  -29.8750   21.6960 H   0  0  0  0  0  0  0  0  0  0  0  0
  -18.0270  -28.1370   22.8500 C   0  0  0  0  0  0  0  0  0  0  0  0
  -20.5860  -28.3660   23.1330 C   0  0  0  0  0  3  0  0  0  0  0  0
  -20.6760  -26.9390   22.5420 C   0  0  0  0  0  2  0  0  0  0  0  0
  -19.5740  -26.6380   21.5210 C   0  0  0  0  0  2  0  0  0  0  0  0
  -18.1920  -26.7910   22.1620 C   0  0  0  0  0  2  0  0  0  0  0  0
  -19.1510  -28.8820   23.2910 C   0  0  0  0  0  0  0  0  0  0  0  0
  -18.9450  -30.1430   23.8920 C   0  0  0  0  0  3  0  0  0  0  0  0
  -17.6450  -30.6580   24.0560 C   0  0  0  0  0  3  0  0  0  0  0  0
  -16.5340  -29.9080   23.6330 C   0  0  0  0  0  3  0  0  0  0  0  0
  -16.7260  -28.6490   23.0350 C   0  0  0  0  0  3  0  0  0  0  0  0
  -25.9030  -32.4820   23.8380 C   0  0  0  0  0  3  0  0  0  0  0  0
  -26.4460  -31.6610   25.0720 C   0  0  1  0  0  0  0  0  0  0  0  0
  -25.3720  -31.3710   26.1470 C   0  0  0  0  0  1  0  0  0  0  0  0
  -27.0290  -30.3060   24.6090 C   0  0  0  0  0  1  0  0  0  0  0  0
  -27.6040  -32.4330   25.7470 C   0  0  0  0  0  1  0  0  0  0  0  0
  -25.5890  -33.8620   24.2320 N   0  0  0  0  0  0  0  0  0  0  0  0
  -25.9030  -34.9480   23.5130 C   0  0  0  0  0  0  0  0  0  0  0  0
  -26.5610  -34.8930   22.4700 O   0  0  0  0  0  0  0  0  0  0  0  0
  -25.0040  -33.9790   25.0460 H   0  0  0  0  0  0  0  0  0  0  0  0
  -24.1480  -36.7310   23.2640 C   0  0  0  0  0  1  0  0  0  0  0  0
  -25.4110  -36.3110   24.0340 C   0  0  0  0  0  3  0  0  0  0  0  0
  -27.5580  -37.1810   24.8460 C   0  0  0  0  0  1  0  0  0  0  0  0
  -26.4290  -37.3800   23.9410 N   0  0  0  0  0  0  0  0  0  0  0  0
  -26.0190  -38.2880   24.1420 H   0  0  0  0  0  0  0  0  0  0  0  0
  -30.1740  -15.5740   21.6240 C   0  0  0  0  0  3  0  0  0  0  0  0
  -30.7110  -14.4640   20.6560 C   0  0  0  0  0  0  0  0  0  0  0  0
  -30.4280  -12.3350   19.4060 C   0  0  0  0  0  2  0  0  0  0  0  0
  -29.4900  -12.5330   18.1980 C   0  0  0  0  0  2  0  0  0  0  0  0
  -28.0110  -12.3840   18.6110 C   0  0  0  0  0  2  0  0  0  0  0  0
  -27.6640  -13.2030   19.8830 C   0  0  0  0  0  3  0  0  0  0  0  0
  -28.7060  -12.9270   20.9870 C   0  0  0  0  0  2  0  0  0  0  0  0
  -30.0300  -13.2940   20.4540 N   0  0  0  0  0  0  0  0  0  0  0  0
  -31.7760  -14.6720   20.0620 O   0  0  0  0  0  0  0  0  0  0  0  0
  -25.2610  -13.8160   20.5700 C   0  0  0  0  0  0  0  0  0  0  0  0
  -24.1840  -13.0440   20.9150 C   0  0  0  0  0  0  0  0  0  0  0  0
  -24.6390  -11.6900   20.8720 C   0  0  0  0  0  0  0  0  0  0  0  0
  -26.3040  -12.9310   20.3410 N   0  0  0  0  0  0  0  0  0  0  0  0
  -25.9320  -11.6470   20.5760 N   0  0  0  0  0  0  0  0  0  0  0  0
  -23.9050  -10.4290   21.0390 C   0  0  0  0  0  0  0  0  0  0  0  0
  -24.3610   -9.4220   21.9180 C   0  0  0  0  0  3  0  0  0  0  0  0
  -23.6290   -8.2250   22.0750 C   0  0  0  0  0  3  0  0  0  0  0  0
  -22.4270   -8.0280   21.3540 C   0  0  0  0  0  0  0  0  0  0  0  0
  -21.9900   -9.0250   20.4640 C   0  0  0  0  0  3  0  0  0  0  0  0
  -22.7230  -10.2130   20.3050 C   0  0  0  0  0  3  0  0  0  0  0  0
  -21.6640   -6.8880   21.4240 O   0  0  0  0  0  0  0  0  0  0  0  0
  -21.6850   -6.0740   22.5280 C   0  0  0  0  0  0  0  0  0  0  0  0
  -21.4010   -6.5640   23.8220 C   0  0  0  0  0  3  0  0  0  0  0  0
  -21.3660   -5.6790   24.9180 C   0  0  0  0  0  3  0  0  0  0  0  0
  -21.6040   -4.3050   24.7230 C   0  0  0  0  0  0  0  0  0  0  0  0
  -21.8820   -3.8150   23.4350 C   0  0  0  0  0  3  0  0  0  0  0  0
  -21.9190   -4.6960   22.3400 C   0  0  0  0  0  0  0  0  0  0  0  0
  -22.1660   -4.2150   21.0980 F   0  0  0  0  0  0  0  0  0  0  0  0
  -21.5630   -3.4540   25.7740 F   0  0  0  0  0  0  0  0  0  0  0  0
  -22.7870  -13.5250   21.1830 C   0  0  0  0  0  0  0  0  0  0  0  0
  -22.0510  -12.8230   22.0390 N   0  0  0  0  0  0  0  0  0  0  0  0
  -22.3560  -14.5560   20.6710 O   0  0  0  0  0  0  0  0  0  0  0  0
  -22.4120  -11.9880   22.4760 H   0  0  0  0  0  0  0  0  0  0  0  0
  -21.1130  -13.1260   22.2600 H   0  0  0  0  0  0  0  0  0  0  0  0
  -25.4380  -15.1880   20.4190 N   0  0  0  0  0  0  0  0  0  0  0  0
  -24.6810  -15.8480   20.5580 H   0  0  0  0  0  0  0  0  0  0  0  0
  -26.3200  -15.6390   20.2050 H   0  0  0  0  0  0  0  0  0  0  0  0
  -32.4830  -15.9810   22.7880 C   0  0  0  0  0  1  0  0  0  0  0  0
  -30.4100  -16.9330   23.8050 C   0  0  0  0  0  1  0  0  0  0  0  0
  -30.9630  -15.7350   22.9860 C   0  0  1  0  0  0  0  0  0  0  0  0
  -30.7900  -14.4530   23.8510 C   0  0  1  0  0  0  0  0  0  0  0  0
  -31.4100  -14.5940   25.0240 F   0  0  0  0  0  0  0  0  0  0  0  0
  -29.5020  -14.2180   24.0990 F   0  0  0  0  0  0  0  0  0  0  0  0
  -31.3050  -13.3750   23.2600 F   0  0  0  0  0  0  0  0  0  0  0  0
  1  4  1  0
  2  1  2  0
  3  4  2  0
  3 55  1  0
  5  2  1  0
  5  6  2  0
  6  3  1  0
  7  2  1  0
  7  8  1  0
  9  8  1  0
 12 10  1  6
 11 12  1  0
 12  9  1  0
 12 13  1  0
 14 16  1  0
 14 13  1  0
 15 26  2  0
 16 21  1  0
 17 25  1  0
 17 27  1  0
 18 24  1  0
 18 20  1  0
 19 25  1  0
 20 19  1  0
 21 20  2  0
 22 23  1  0
 22 16  2  0
 23 18  2  0
 24 17  1  0
 25 15  1  0
 27 29  2  0
 28 27  1  0
 30 28  1  0
 31 40  2  0
 31 36  1  0
 32 28  1  0
 32 36  1  0
 33 32  1  0
 34 35  1  0
 34 33  1  0
 35 31  1  0
 36 37  2  0
 37 38  1  0
 39 38  2  0
 40 39  1  0
 41 15  1  0
 41 46  1  0
 41 42  1  0
 42 45  1  1
 42 43  1  0
 44 42  1  0
 46 49  1  0
 47 51  1  0
 47 46  1  0
 48 47  2  0
 51 50  1  0
 53 51  1  0
 53 54  1  0
 53 52  1  0
 55 56  1  0
 55 94  1  0
 57 62  1  0
 58 59  1  0
 58 57  1  0
 60 59  1  0
 60 67  1  0
 60 61  1  0
 62 56  1  0
 62 61  1  0
 63 56  2  0
 64 65  2  0
 65 84  1  0
 66 65  1  0
 66 69  1  0
 67 64  1  0
 67 68  1  0
 68 66  2  0
 69 70  1  0
 70 71  2  0
 72 75  1  0
 72 71  1  0
 73 72  2  0
 74 73  1  0
 74 69  2  0
 75 76  1  0
 76 77  1  0
 77 78  2  0
 79 78  1  0
 79 83  1  0
 80 79  2  0
 81 76  2  0
 81 80  1  0
 82 81  1  0
 84 85  1  0
 85 88  1  0
 85 87  1  0
 86 84  2  0
 89 90  1  0
 89 64  1  0
 91 89  1  0
 94 92  1  6
 94 93  1  0
 94 95  1  0
 95 97  1  1
 95 96  1  0
 98 95  1  0
M  ISO  4  13 101  14 101  55 100  56 100
M  END
>  <TORSDO>  (19) 
F 24

>  <SCORE>  (19) 
9.355

>  <name>  (19) 
19

>  <ligand_id>  (19) 
19

>  <original_smiles>  (19) 
[H]c1nc(C([H])(C(=O)N2C([H])([H])C([H])([H])C([H])([H])C([H])(n3nc(-c4c([H])c([H])c(Oc5c([H])c([H])c(F)c([H])c5F)c([H])c4[H])c(C(=O)N([H])[H])c3N([H])[H])C2([H])[H])C(C([H])([H])[H])(C([H])([H])[H])C(F)(F)F)nnc1C([H])([H])C([H])([H])C([H])([H])C(C([H])([H])[H])(C([H])([H])[H])C([H])([H])Oc1c([H])c([H])c2c(c1[H])C([H])([H])N(C(=O)C([H])(N([H])C(=O)C([H])(N([H])C([H])([H])[H])C([H])([H])[H])C(C([H])([H])[H])(C([H])([H])[H])C([H])([H])[H])C([H])(C(=O)N([H])C1([H])c3c([H])c([H])c([H])c([H])c3C([H])([H])C([H])([H])C1([H])[H])C2([H])[H]

>  <smiles>  (19) 
[H]c1nc(C([H])(C(=O)N2C([H])([H])C([H])([H])C([H])([H])C([H])(n3nc(-c4c([H])c([H])c(Oc5c([H])c([H])c(F)c([H])c5F)c([H])c4[H])c(C(=O)N([H])[H])c3N([H])[H])C2([H])[H])C(C([H])([H])[H])(C([H])([H])[H])C(F)(F)F)nnc1C([H])([H])C([H])([H])C([H])([H])C(C([H])([H])[H])(C([H])([H])[H])C([H])([H])Oc1c([H])c([H])c2c(c1[H])C([H])([H])N(C(=O)C([H])(N([H])C(=O)C([H])(N([H])C([H])([H])[H])C([H])([H])[H])C(C([H])([H])[H])(C([H])([H])[H])C([H])([H])[H])C([H])(C(=O)N([H])C1([H])c3c([H])c([H])c([H])c([H])c3C([H])([H])C([H])([H])C1([H])[H])C2([H])[H]

$$$$
20:0:0
     RDKit          3D

 96104  0  0  1  0  0  0  0  0999 V2000
  -28.4990  -21.9760   20.8920 C   0  0  0  0  0  3  0  0  0  0  0  0
  -29.6800  -21.9450   18.8700 C   0  0  0  0  0  3  0  0  0  0  0  0
  -29.1340  -22.7490   19.8990 C   0  0  0  0  0  0  0  0  0  0  0  0
  -29.0940  -19.9350   19.9020 C   0  0  0  0  0  0  0  0  0  0  0  0
  -28.4760  -20.6170   20.8790 N   0  0  0  0  0  0  0  0  0  0  0  0
  -29.6360  -20.5870   18.8710 N   0  0  0  0  0  0  0  0  0  0  0  0
  -28.2440  -17.8770   21.1670 C   0  0  0  0  0  1  0  0  0  0  0  0
  -27.7970  -18.1030   18.7410 C   0  0  0  0  0  1  0  0  0  0  0  0
  -28.8730  -18.3460   19.8210 C   0  0  1  0  0  0  0  0  0  0  0  0
  -31.3820  -17.8850   20.3320 C   0  0  0  0  0  1  0  0  0  0  0  0
  -30.5190  -17.3750   18.0360 C   0  0  0  0  0  1  0  0  0  0  0  0
  -30.1530  -17.3630   19.5470 C   0  0  2  0  0  0  0  0  0  0  0  0
  -30.6960  -14.7830   19.7330 C   0  0  0  0  0  0  0  0  0  0  0  0
  -30.4600  -12.4680   18.8850 C   0  0  0  0  0  2  0  0  0  0  0  0
  -29.4510  -12.4810   17.7170 C   0  0  0  0  0  2  0  0  0  0  0  0
  -28.0150  -12.3090   18.2480 C   0  0  0  0  0  2  0  0  0  0  0  0
  -27.6980  -13.2580   19.4360 C   0  0  0  0  0  3  0  0  0  0  0  0
  -28.8250  -13.2470   20.4930 C   0  0  0  0  0  2  0  0  0  0  0  0
  -30.0820  -13.5620   19.8030 N   0  0  0  0  0  0  0  0  0  0  0  0
  -31.8480  -14.8760   19.3050 O   0  0  0  0  0  0  0  0  0  0  0  0
  -29.9140  -15.8990   19.9210 N   0  0  0  0  0  0  0  0  0  0  0  0
  -28.9890  -15.6970   20.2710 H   0  0  0  0  0  0  0  0  0  0  0  0
  -25.3800  -13.8400   20.3750 C   0  0  0  0  0  0  0  0  0  0  0  0
  -24.3420  -13.0600   20.8080 C   0  0  0  0  0  0  0  0  0  0  0  0
  -24.7920  -11.7090   20.6940 C   0  0  0  0  0  0  0  0  0  0  0  0
  -26.3940  -12.9640   20.0240 N   0  0  0  0  0  0  0  0  0  0  0  0
  -26.0510  -11.6750   20.2770 N   0  0  0  0  0  0  0  0  0  0  0  0
  -24.0730  -10.4440   20.9030 C   0  0  0  0  0  0  0  0  0  0  0  0
  -24.4560   -9.5350   21.9130 C   0  0  0  0  0  3  0  0  0  0  0  0
  -23.7380   -8.3360   22.1070 C   0  0  0  0  0  3  0  0  0  0  0  0
  -22.6220   -8.0380   21.2900 C   0  0  0  0  0  0  0  0  0  0  0  0
  -22.2590   -8.9350   20.2700 C   0  0  0  0  0  3  0  0  0  0  0  0
  -22.9790  -10.1260   20.0750 C   0  0  0  0  0  3  0  0  0  0  0  0
  -21.8810   -6.8850   21.3890 O   0  0  0  0  0  0  0  0  0  0  0  0
  -21.6000   -6.3110   22.6030 C   0  0  0  0  0  0  0  0  0  0  0  0
  -20.8780   -7.0010   23.6030 C   0  0  0  0  0  3  0  0  0  0  0  0
  -20.5510   -6.3490   24.8090 C   0  0  0  0  0  3  0  0  0  0  0  0
  -20.9360   -5.0110   25.0150 C   0  0  0  0  0  0  0  0  0  0  0  0
  -21.6500   -4.3220   24.0180 C   0  0  0  0  0  3  0  0  0  0  0  0
  -21.9780   -4.9710   22.8150 C   0  0  0  0  0  0  0  0  0  0  0  0
  -22.6480   -4.2960   21.8500 F   0  0  0  0  0  0  0  0  0  0  0  0
  -20.6140   -4.3820   26.1710 F   0  0  0  0  0  0  0  0  0  0  0  0
  -22.9770  -13.5360   21.2120 C   0  0  0  0  0  0  0  0  0  0  0  0
  -22.3310  -12.8310   22.1330 N   0  0  0  0  0  0  0  0  0  0  0  0
  -22.4970  -14.5680   20.7440 O   0  0  0  0  0  0  0  0  0  0  0  0
  -22.7340  -11.9960   22.5290 H   0  0  0  0  0  0  0  0  0  0  0  0
  -21.4180  -13.1310   22.4450 H   0  0  0  0  0  0  0  0  0  0  0  0
  -25.5350  -15.2140   20.2270 N   0  0  0  0  0  0  0  0  0  0  0  0
  -24.7750  -15.8590   20.4160 H   0  0  0  0  0  0  0  0  0  0  0  0
  -26.3320  -15.6590   19.7940 H   0  0  0  0  0  0  0  0  0  0  0  0
  -30.3800  -24.8220   18.9980 C   0  0  0  0  0  1  0  0  0  0  0  0
  -29.3210  -24.3190   20.0100 C   0  0  2  0  0  0  0  0  0  0  0  0
  -30.9440  -23.7640   21.9940 C   0  0  0  0  0  1  0  0  0  0  0  0
  -29.8200  -24.6640   21.4430 C   0  0  0  0  0  2  0  0  0  0  0  0
  -28.0240  -25.1900   19.7360 C   0  0  0  0  0  2  0  0  0  0  0  0
  -28.1850  -26.6440   19.9080 O   0  0  0  0  0  0  0  0  0  0  0  0
  -24.4880  -31.8590   23.2000 C   0  0  0  0  0  0  0  0  0  0  0  0
  -27.0420  -27.4490   19.9180 C   0  0  0  0  0  0  0  0  0  0  0  0
  -23.2470  -30.5160   21.5380 C   0  0  0  0  0  3  0  0  0  0  0  0
  -24.6650  -29.0270   20.0230 C   0  0  0  0  0  0  0  0  0  0  0  0
  -25.7770  -30.8590   21.3030 C   0  0  0  0  0  2  0  0  0  0  0  0
  -25.8450  -29.5080   20.6040 C   0  0  0  0  0  0  0  0  0  0  0  0
  -27.0380  -28.7320   20.5400 C   0  0  0  0  0  3  0  0  0  0  0  0
  -25.8370  -27.0100   19.3230 C   0  0  0  0  0  3  0  0  0  0  0  0
  -24.6610  -27.7820   19.3730 C   0  0  0  0  0  3  0  0  0  0  0  0
  -23.4270  -29.8910   20.1310 C   0  0  0  0  0  2  0  0  0  0  0  0
  -24.5240  -31.0940   22.0700 N   0  0  0  0  0  0  0  0  0  0  0  0
  -23.4170  -32.1140   23.7700 O   0  0  0  0  0  0  0  0  0  0  0  0
  -22.6130  -29.4630   22.4780 C   0  0  0  0  0  0  0  0  0  0  0  0
  -21.2920  -29.2560   22.3450 N   0  0  0  0  0  0  0  0  0  0  0  0
  -23.3080  -28.8360   23.2820 O   0  0  0  0  0  0  0  0  0  0  0  0
  -20.7900  -29.8170   21.6720 H   0  0  0  0  0  0  0  0  0  0  0  0
  -17.9440  -27.9760   22.8210 C   0  0  0  0  0  0  0  0  0  0  0  0
  -20.4970  -28.2820   23.0920 C   0  0  0  0  0  3  0  0  0  0  0  0
  -20.6270  -26.8670   22.4830 C   0  0  0  0  0  2  0  0  0  0  0  0
  -19.5290  -26.5440   21.4630 C   0  0  0  0  0  2  0  0  0  0  0  0
  -18.1460  -26.6460   22.1130 C   0  0  0  0  0  2  0  0  0  0  0  0
  -19.0470  -28.7510   23.2660 C   0  0  0  0  0  0  0  0  0  0  0  0
  -18.8050  -29.9940   23.8890 C   0  0  0  0  0  3  0  0  0  0  0  0
  -17.4900  -30.4660   24.0660 C   0  0  0  0  0  3  0  0  0  0  0  0
  -16.4020  -29.6880   23.6370 C   0  0  0  0  0  3  0  0  0  0  0  0
  -16.6280  -28.4440   23.0200 C   0  0  0  0  0  3  0  0  0  0  0  0
  -25.7860  -32.4700   23.8150 C   0  0  0  0  0  3  0  0  0  0  0  0
  -25.5060  -33.8760   24.1360 N   0  0  0  0  0  0  0  0  0  0  0  0
  -25.8200  -34.9140   23.3490 C   0  0  0  0  0  0  0  0  0  0  0  0
  -26.4500  -34.7890   22.2940 O   0  0  0  0  0  0  0  0  0  0  0  0
  -24.9510  -34.0490   24.9620 H   0  0  0  0  0  0  0  0  0  0  0  0
  -24.0870  -36.7100   23.0540 C   0  0  0  0  0  1  0  0  0  0  0  0
  -25.3670  -36.3140   23.8040 C   0  0  0  0  0  3  0  0  0  0  0  0
  -27.5410  -37.2130   24.5110 C   0  0  0  0  0  1  0  0  0  0  0  0
  -26.3990  -37.3580   23.6130 N   0  0  0  0  0  0  0  0  0  0  0  0
  -26.0030  -38.2830   23.7540 H   0  0  0  0  0  0  0  0  0  0  0  0
  -26.2930  -31.6960   25.0940 C   0  0  1  0  0  0  0  0  0  0  0  0
  -25.1950  -31.4730   26.1600 C   0  0  0  0  0  1  0  0  0  0  0  0
  -26.8610  -30.3110   24.7060 C   0  0  0  0  0  1  0  0  0  0  0  0
  -27.4520  -32.4800   25.7550 C   0  0  0  0  0  1  0  0  0  0  0  0
  2  6  2  0
  2  3  1  0
  3 52  1  0
  3  1  2  0
  4  5  2  0
  5  1  1  0
  6  4  1  0
  9  8  1  6
  9  4  1  0
  9  7  1  0
 12 11  1  6
 12  9  1  0
 12 21  1  0
 12 10  1  0
 13 19  1  0
 13 21  1  0
 14 19  1  0
 15 16  1  0
 15 14  1  0
 17 16  1  0
 17 26  1  0
 17 18  1  0
 19 18  1  0
 20 13  2  0
 21 22  1  0
 23 24  2  0
 24 43  1  0
 25 24  1  0
 25 28  1  0
 26 27  1  0
 26 23  1  0
 27 25  2  0
 28 29  1  0
 29 30  2  0
 31 34  1  0
 31 30  1  0
 32 31  2  0
 33 32  1  0
 33 28  2  0
 34 35  1  0
 35 40  2  0
 35 36  1  0
 36 37  2  0
 37 38  1  0
 38 42  1  0
 39 38  2  0
 40 39  1  0
 41 40  1  0
 43 44  1  0
 44 47  1  0
 44 46  1  0
 45 43  2  0
 48 23  1  0
 48 49  1  0
 50 48  1  0
 52 51  1  6
 52 54  1  0
 54 53  1  0
 55 56  1  0
 55 52  1  0
 56 58  1  0
 57 68  2  0
 58 63  1  0
 59 67  1  0
 59 69  1  0
 60 66  1  0
 60 62  1  0
 61 67  1  0
 62 61  1  0
 63 62  2  0
 64 65  1  0
 64 58  2  0
 65 60  2  0
 66 59  1  0
 67 57  1  0
 69 71  2  0
 70 69  1  0
 72 70  1  0
 73 82  2  0
 73 78  1  0
 74 70  1  0
 74 78  1  0
 75 74  1  0
 76 77  1  0
 76 75  1  0
 77 73  1  0
 78 79  2  0
 79 80  1  0
 81 80  2  0
 82 81  1  0
 83 57  1  0
 83 84  1  0
 83 93  1  0
 84 87  1  0
 85 89  1  0
 85 84  1  0
 86 85  2  0
 89 88  1  0
 91 92  1  0
 91 89  1  0
 91 90  1  0
 93 96  1  1
 93 94  1  0
 95 93  1  0
M  ISO  4  13 100  21 100  55 101  56 101
M  END
>  <TORSDO>  (20) 
F 21

>  <SCORE>  (20) 
-11.886

>  <name>  (20) 
20

>  <ligand_id>  (20) 
20

>  <original_smiles>  (20) 
[H]c1nc(C(C([H])([H])[H])(C([H])([H])[H])C(N([H])C(=O)N2C([H])([H])C([H])([H])C([H])([H])C([H])(n3nc(-c4c([H])c([H])c(Oc5c([H])c([H])c(F)c([H])c5F)c([H])c4[H])c(C(=O)N([H])[H])c3N([H])[H])C2([H])[H])(C([H])([H])[H])C([H])([H])[H])nc([H])c1C(C([H])([H])[H])(C([H])([H])Oc1c([H])c([H])c2c(c1[H])C([H])([H])N(C(=O)C([H])(N([H])C(=O)C([H])(N([H])C([H])([H])[H])C([H])([H])[H])C(C([H])([H])[H])(C([H])([H])[H])C([H])([H])[H])C([H])(C(=O)N([H])C1([H])c3c([H])c([H])c([H])c([H])c3C([H])([H])C([H])([H])C1([H])[H])C2([H])[H])C([H])([H])C([H])([H])[H]

>  <smiles>  (20) 
[H]c1nc(C(C([H])([H])[H])(C([H])([H])[H])C(N([H])C(=O)N2C([H])([H])C([H])([H])C([H])([H])C([H])(n3nc(-c4c([H])c([H])c(Oc5c([H])c([H])c(F)c([H])c5F)c([H])c4[H])c(C(=O)N([H])[H])c3N([H])[H])C2([H])[H])(C([H])([H])[H])C([H])([H])[H])nc([H])c1C(C([H])([H])[H])(C([H])([H])Oc1c([H])c([H])c2c(c1[H])C([H])([H])N(C(=O)C([H])(N([H])C(=O)C([H])(N([H])C([H])([H])[H])C([H])([H])[H])C(C([H])([H])[H])(C([H])([H])[H])C([H])([H])[H])C([H])(C(=O)N([H])C1([H])c3c([H])c([H])c([H])c([H])c3C([H])([H])C([H])([H])C1([H])[H])C2([H])[H])C([H])([H])C([H])([H])[H]

$$$$
21:0:0
     RDKit          3D

100108  0  0  1  0  0  0  0  0999 V2000
  -30.7810  -20.0510   21.1460 C   0  0  0  0  0  1  0  0  0  0  0  0
  -32.1630  -21.2310   19.4590 C   0  0  0  0  0  1  0  0  0  0  0  0
  -30.7070  -20.8830   19.8460 C   0  0  1  0  0  0  0  0  0  0  0  0
  -30.0630  -20.0180   18.7050 C   0  0  0  0  0  2  0  0  0  0  0  0
  -30.9340  -19.6130   17.4800 C   0  0  0  0  0  2  0  0  0  0  0  0
  -32.1690  -18.8550   17.8410 C   0  0  0  0  0  0  0  0  0  0  0  0
  -34.1230  -18.3950   18.4400 C   0  0  0  0  0  3  0  0  0  0  0  0
  -33.4210  -19.3880   17.8780 N   0  0  0  0  0  0  0  0  0  0  0  0
  -32.0880  -17.5890   18.2080 N   0  0  0  0  0  2  0  0  0  0  0  0
  -33.3450  -17.2960   18.6270 N   0  0  0  0  0  0  0  0  0  0  0  0
  -35.4280  -19.3640   20.3020 C   0  0  0  0  0  1  0  0  0  0  0  0
  -36.4120  -17.3690   19.3040 C   0  0  0  0  0  1  0  0  0  0  0  0
  -35.5580  -18.6190   18.9460 C   0  0  1  0  0  0  0  0  0  0  0  0
  -36.3310  -19.5200   17.9130 C   0  0  0  0  0  0  0  0  0  0  0  0
  -37.7790  -19.7860   15.9190 C   0  0  0  0  0  2  0  0  0  0  0  0
  -37.0470  -20.2680   14.6570 C   0  0  0  0  0  2  0  0  0  0  0  0
  -36.4620  -19.0760   13.8830 C   0  0  0  0  0  2  0  0  0  0  0  0
  -35.6230  -18.1470   14.7970 C   0  0  0  0  0  3  0  0  0  0  0  0
  -36.4110  -17.7780   16.0710 C   0  0  0  0  0  2  0  0  0  0  0  0
  -36.8380  -19.0140   16.7530 N   0  0  0  0  0  0  0  0  0  0  0  0
  -36.5510  -20.7000   18.2220 O   0  0  0  0  0  0  0  0  0  0  0  0
  -33.9050  -16.4700   13.8610 C   0  0  0  0  0  0  0  0  0  0  0  0
  -34.0480  -15.3570   13.0750 C   0  0  0  0  0  0  0  0  0  0  0  0
  -35.4480  -15.2160   12.8420 C   0  0  0  0  0  0  0  0  0  0  0  0
  -35.1890  -16.9510   14.0770 N   0  0  0  0  0  0  0  0  0  0  0  0
  -36.1200  -16.1500   13.5020 N   0  0  0  0  0  0  0  0  0  0  0  0
  -36.1820  -14.2870   11.9740 C   0  0  0  0  0  0  0  0  0  0  0  0
  -37.2640  -13.5210   12.4600 C   0  0  0  0  0  3  0  0  0  0  0  0
  -37.9400  -12.6190   11.6110 C   0  0  0  0  0  3  0  0  0  0  0  0
  -37.5310  -12.4730   10.2630 C   0  0  0  0  0  0  0  0  0  0  0  0
  -36.4700  -13.2580    9.7790 C   0  0  0  0  0  3  0  0  0  0  0  0
  -35.8030  -14.1600   10.6240 C   0  0  0  0  0  3  0  0  0  0  0  0
  -38.1390  -11.6360    9.3580 O   0  0  0  0  0  0  0  0  0  0  0  0
  -38.8320  -10.5220    9.7600 C   0  0  0  0  0  0  0  0  0  0  0  0
  -38.2190   -9.4930   10.5130 C   0  0  0  0  0  3  0  0  0  0  0  0
  -38.9490   -8.3330   10.8420 C   0  0  0  0  0  3  0  0  0  0  0  0
  -40.2850   -8.1960   10.4190 C   0  0  0  0  0  0  0  0  0  0  0  0
  -40.8930   -9.2150    9.6650 C   0  0  0  0  0  3  0  0  0  0  0  0
  -40.1680  -10.3720    9.3350 C   0  0  0  0  0  0  0  0  0  0  0  0
  -40.7520  -11.3400    8.5900 F   0  0  0  0  0  0  0  0  0  0  0  0
  -40.9830   -7.0810   10.7350 F   0  0  0  0  0  0  0  0  0  0  0  0
  -32.9400  -14.5310   12.4890 C   0  0  0  0  0  0  0  0  0  0  0  0
  -33.1540  -13.2290   12.3300 N   0  0  0  0  0  0  0  0  0  0  0  0
  -31.8530  -15.0280   12.2060 O   0  0  0  0  0  0  0  0  0  0  0  0
  -34.0270  -12.8010   12.6030 H   0  0  0  0  0  0  0  0  0  0  0  0
  -32.4330  -12.6530   11.9170 H   0  0  0  0  0  0  0  0  0  0  0  0
  -32.7920  -17.1100   14.3940 N   0  0  0  0  0  0  0  0  0  0  0  0
  -31.8510  -16.7730   14.2180 H   0  0  0  0  0  0  0  0  0  0  0  0
  -32.8050  -17.9300   14.9840 H   0  0  0  0  0  0  0  0  0  0  0  0
  -32.4350  -14.9700   19.0470 C   0  0  0  0  0  1  0  0  0  0  0  0
  -33.5650  -16.0030   19.2750 C   0  0  0  0  0  2  0  0  0  0  0  0
  -29.9660  -22.2620   20.1200 C   0  0  0  0  0  3  0  0  0  0  0  0
  -27.6610  -21.6290   21.2080 C   0  0  0  0  0  1  0  0  0  0  0  0
  -27.8010  -22.0210   18.6940 C   0  0  0  0  0  1  0  0  0  0  0  0
  -28.4050  -22.3480   20.0640 C   0  0  0  0  0  3  0  0  0  0  0  0
  -30.5930  -23.4830   19.3750 C   0  0  0  0  0  2  0  0  0  0  0  0
  -31.7180  -24.1740   20.1680 C   0  0  0  0  0  2  0  0  0  0  0  0
  -31.9770  -25.6290   19.7290 C   0  0  0  0  0  2  0  0  0  0  0  0
  -32.0720  -26.6240   20.8940 C   0  0  0  0  0  2  0  0  0  0  0  0
  -30.8150  -27.2220   21.1770 O   0  0  0  0  0  0  0  0  0  0  0  0
  -27.3150  -30.2970   26.5100 C   0  0  0  0  0  0  0  0  0  0  0  0
  -30.8280  -28.2180   22.1180 C   0  0  0  0  0  0  0  0  0  0  0  0
  -29.2760  -31.5470   25.6550 C   0  0  0  0  0  3  0  0  0  0  0  0
  -30.7960  -30.2610   24.0580 C   0  0  0  0  0  0  0  0  0  0  0  0
  -29.1800  -29.0000   25.4930 C   0  0  0  0  0  2  0  0  0  0  0  0
  -30.0170  -29.1120   24.2380 C   0  0  0  0  0  0  0  0  0  0  0  0
  -30.0220  -28.0920   23.2660 C   0  0  0  0  0  3  0  0  0  0  0  0
  -31.6080  -29.3800   21.9380 C   0  0  0  0  0  3  0  0  0  0  0  0
  -31.5930  -30.4040   22.9070 C   0  0  0  0  0  3  0  0  0  0  0  0
  -30.7240  -31.3080   25.1480 C   0  0  0  0  0  2  0  0  0  0  0  0
  -28.5280  -30.2690   25.8880 N   0  0  0  0  0  0  0  0  0  0  0  0
  -26.8360  -31.3610   26.9270 O   0  0  0  0  0  0  0  0  0  0  0  0
  -28.5620  -32.5030   24.6710 C   0  0  0  0  0  0  0  0  0  0  0  0
  -29.0240  -33.7610   24.6210 N   0  0  0  0  0  0  0  0  0  0  0  0
  -27.6350  -32.1030   23.9620 O   0  0  0  0  0  0  0  0  0  0  0  0
  -29.7790  -34.0140   25.2440 H   0  0  0  0  0  0  0  0  0  0  0  0
  -29.6390  -37.1530   23.5380 C   0  0  0  0  0  0  0  0  0  0  0  0
  -28.5370  -34.8250   23.7420 C   0  0  0  0  0  3  0  0  0  0  0  0
  -28.9910  -34.5950   22.2820 C   0  0  0  0  0  2  0  0  0  0  0  0
  -30.3030  -35.3090   21.9390 C   0  0  0  0  0  2  0  0  0  0  0  0
  -30.1640  -36.8190   22.1520 C   0  0  0  0  0  2  0  0  0  0  0  0
  -28.8880  -36.2120   24.2910 C   0  0  0  0  0  0  0  0  0  0  0  0
  -28.4550  -36.5630   25.5880 C   0  0  0  0  0  3  0  0  0  0  0  0
  -28.7590  -37.8240   26.1320 C   0  0  0  0  0  3  0  0  0  0  0  0
  -29.4890  -38.7570   25.3770 C   0  0  0  0  0  3  0  0  0  0  0  0
  -29.9210  -38.4250   24.0810 C   0  0  0  0  0  3  0  0  0  0  0  0
  -26.4830  -28.9980   26.7460 C   0  0  0  0  0  3  0  0  0  0  0  0
  -25.9250  -29.0720   28.1020 N   0  0  0  0  0  0  0  0  0  0  0  0
  -26.4050  -28.4040   29.1600 C   0  0  0  0  0  0  0  0  0  0  0  0
  -27.3330  -27.5950   29.0760 O   0  0  0  0  0  0  0  0  0  0  0  0
  -25.2000  -29.7590   28.2560 H   0  0  0  0  0  0  0  0  0  0  0  0
  -26.6720  -29.5780   31.3680 C   0  0  0  0  0  1  0  0  0  0  0  0
  -25.7520  -28.6780   30.5270 C   0  0  0  0  0  3  0  0  0  0  0  0
  -24.3550  -26.6640   30.6850 C   0  0  0  0  0  1  0  0  0  0  0  0
  -25.4330  -27.4480   31.2850 N   0  0  0  0  0  0  0  0  0  0  0  0
  -25.1680  -27.6720   32.2400 H   0  0  0  0  0  0  0  0  0  0  0  0
  -25.3390  -28.7870   25.6800 C   0  0  1  0  0  0  0  0  0  0  0  0
  -24.4540  -30.0360   25.4580 C   0  0  0  0  0  1  0  0  0  0  0  0
  -25.9390  -28.3840   24.3120 C   0  0  0  0  0  1  0  0  0  0  0  0
  -24.4200  -27.6220   26.1180 C   0  0  0  0  0  1  0  0  0  0  0  0
  3  2  1  6
  3 52  1  0
  3  1  1  0
  4  3  1  0
  5  6  1  0
  5  4  1  0
  6  8  2  0
  6  9  1  0
  7 10  1  0
  7 13  1  0
  8  7  1  0
  9 10  1  0
 10 51  1  0
 13 12  1  1
 13 11  1  0
 14 21  2  0
 14 13  1  0
 15 20  1  0
 16 15  1  0
 17 16  1  0
 18 17  1  0
 18 19  1  0
 19 20  1  0
 20 14  1  0
 22 25  1  0
 22 47  1  0
 23 22  2  0
 24 23  1  0
 24 26  2  0
 25 18  1  0
 26 25  1  0
 27 28  1  0
 27 24  1  0
 29 28  2  0
 30 29  1  0
 31 30  2  0
 31 32  1  0
 32 27  2  0
 33 34  1  0
 33 30  1  0
 34 35  1  0
 35 36  2  0
 37 41  1  0
 37 36  1  0
 38 37  2  0
 39 38  1  0
 39 34  2  0
 40 39  1  0
 42 23  1  0
 43 42  1  0
 43 45  1  0
 44 42  2  0
 46 43  1  0
 47 49  1  0
 48 47  1  0
 50 51  1  0
 52 56  1  0
 54 55  1  0
 55 52  1  0
 55 53  1  0
 56 57  1  0
 58 57  1  0
 58 59  1  0
 59 60  1  0
 60 62  1  0
 61 72  2  0
 62 67  1  0
 63 73  1  0
 63 71  1  0
 64 66  1  0
 64 70  1  0
 65 71  1  0
 66 65  1  0
 67 66  2  0
 68 62  2  0
 68 69  1  0
 69 64  2  0
 70 63  1  0
 71 61  1  0
 74 73  1  0
 74 76  1  0
 75 73  2  0
 77 86  2  0
 77 82  1  0
 78 82  1  0
 78 74  1  0
 79 78  1  0
 80 81  1  0
 80 79  1  0
 81 77  1  0
 82 83  2  0
 83 84  1  0
 85 84  2  0
 86 85  1  0
 87 61  1  0
 87 88  1  0
 88 91  1  0
 88 89  1  0
 89 93  1  0
 90 89  2  0
 93 95  1  0
 93 92  1  0
 94 95  1  0
 95 96  1  0
 97100  1  1
 97 87  1  0
 98 97  1  0
 99 97  1  0
M  ISO  4  13 100  14 100  59 101  60 101
M  END
>  <TORSDO>  (21) 
F 27

>  <SCORE>  (21) 
-3.781

>  <name>  (21) 
21

>  <ligand_id>  (21) 
21

>  <original_smiles>  (21) 
[H]c1c([H])c([H])c2c(c1[H])C([H])([H])C([H])([H])C([H])([H])C2([H])N([H])C(=O)C1([H])N(C(=O)C([H])(N([H])C(=O)C([H])(N([H])C([H])([H])[H])C([H])([H])[H])C(C([H])([H])[H])(C([H])([H])[H])C([H])([H])[H])C([H])([H])c2c([H])c(OC([H])([H])C([H])([H])C([H])([H])C([H])([H])C([H])(C([H])(C([H])([H])[H])C([H])([H])[H])C(C([H])([H])[H])(C([H])([H])[H])C([H])([H])C([H])([H])c3nc(C(C(=O)N4C([H])([H])C([H])([H])C([H])([H])C([H])(n5nc(-c6c([H])c([H])c(Oc7c([H])c([H])c(F)c([H])c7F)c([H])c6[H])c(C(=O)N([H])[H])c5N([H])[H])C4([H])[H])(C([H])([H])[H])C([H])([H])[H])n(C([H])([H])C([H])([H])[H])n3)c([H])c([H])c2C1([H])[H]

>  <smiles>  (21) 
[H]c1c([H])c([H])c2c(c1[H])C([H])([H])C([H])([H])C([H])([H])C2([H])N([H])C(=O)C1([H])N(C(=O)C([H])(N([H])C(=O)C([H])(N([H])C([H])([H])[H])C([H])([H])[H])C(C([H])([H])[H])(C([H])([H])[H])C([H])([H])[H])C([H])([H])c2c([H])c(OC([H])([H])C([H])([H])C([H])([H])C([H])([H])C([H])(C([H])(C([H])([H])[H])C([H])([H])[H])C(C([H])([H])[H])(C([H])([H])[H])C([H])([H])C([H])([H])c3nc(C(C(=O)N4C([H])([H])C([H])([H])C([H])([H])C([H])(n5nc(-c6c([H])c([H])c(Oc7c([H])c([H])c(F)c([H])c7F)c([H])c6[H])c(C(=O)N([H])[H])c5N([H])[H])C4([H])[H])(C([H])([H])[H])C([H])([H])[H])n(C([H])([H])C([H])([H])[H])n3)c([H])c([H])c2C1([H])[H]

$$$$
22:0:0
     RDKit          3D

104113  0  0  1  0  0  0  0  0999 V2000
  -27.9370  -22.6280   16.7500 C   0  0  0  0  0  2  0  0  0  0  0  0
  -29.3790  -22.3270   18.7940 C   0  0  0  0  0  2  0  0  0  0  0  0
  -28.9180  -23.6980   16.2330 C   0  0  0  0  0  2  0  0  0  0  0  0
  -30.2920  -23.4700   18.2840 C   0  0  0  0  0  2  0  0  0  0  0  0
  -28.5770  -21.5710   17.6920 C   0  0  2  0  0  0  0  0  0  0  0  0
  -29.5850  -24.5150   17.3720 C   0  0  1  0  0  0  0  0  0  0  0  0
  -29.5370  -20.7000   16.8450 C   0  0  0  0  0  1  0  0  0  0  0  0
  -30.6630  -25.4150   16.7260 C   0  0  0  0  0  1  0  0  0  0  0  0
  -27.5420  -26.1360   17.2420 C   0  0  0  0  0  1  0  0  0  0  0  0
  -28.5340  -25.3840   18.1640 C   0  0  0  0  0  3  0  0  0  0  0  0
  -29.1180  -26.3920   19.1980 C   0  0  0  0  0  2  0  0  0  0  0  0
  -28.3430  -26.6410   20.3780 O   0  0  0  0  0  0  0  0  0  0  0  0
  -24.7000  -32.0260   23.2610 C   0  0  0  0  0  0  0  0  0  0  0  0
  -27.2010  -27.4110   20.3090 C   0  0  0  0  0  0  0  0  0  0  0  0
  -23.4280  -30.5620   21.7280 C   0  0  0  0  0  3  0  0  0  0  0  0
  -24.8210  -28.9420   20.3400 C   0  0  0  0  0  0  0  0  0  0  0  0
  -25.9520  -30.8780   21.4380 C   0  0  0  0  0  2  0  0  0  0  0  0
  -26.0040  -29.4780   20.8630 C   0  0  0  0  0  0  0  0  0  0  0  0
  -27.1970  -28.7170   20.8520 C   0  0  0  0  0  3  0  0  0  0  0  0
  -25.9870  -26.8780   19.8260 C   0  0  0  0  0  3  0  0  0  0  0  0
  -24.8060  -27.6370   19.8240 C   0  0  0  0  0  3  0  0  0  0  0  0
  -23.5890  -29.8150   20.3790 C   0  0  0  0  0  2  0  0  0  0  0  0
  -24.7140  -31.1710   22.2000 N   0  0  0  0  0  0  0  0  0  0  0  0
  -23.6370  -32.3400   23.8160 O   0  0  0  0  0  0  0  0  0  0  0  0
  -22.7940  -29.5960   22.7560 C   0  0  0  0  0  0  0  0  0  0  0  0
  -21.4890  -29.3230   22.5960 N   0  0  0  0  0  0  0  0  0  0  0  0
  -23.4740  -29.0920   23.6540 O   0  0  0  0  0  0  0  0  0  0  0  0
  -21.0000  -29.7830   21.8400 H   0  0  0  0  0  0  0  0  0  0  0  0
  -18.1990  -27.8860   22.9910 C   0  0  0  0  0  0  0  0  0  0  0  0
  -20.6920  -28.4160   23.4190 C   0  0  0  0  0  3  0  0  0  0  0  0
  -20.9650  -26.9400   23.0470 C   0  0  0  0  0  2  0  0  0  0  0  0
  -19.9870  -26.3900   22.0040 C   0  0  0  0  0  2  0  0  0  0  0  0
  -18.5470  -26.4850   22.5170 C   0  0  0  0  0  2  0  0  0  0  0  0
  -19.2080  -28.7990   23.3990 C   0  0  0  0  0  0  0  0  0  0  0  0
  -18.8340  -30.1000   23.7970 C   0  0  0  0  0  3  0  0  0  0  0  0
  -17.4820  -30.4940   23.7920 C   0  0  0  0  0  3  0  0  0  0  0  0
  -16.4860  -29.5830   23.4010 C   0  0  0  0  0  3  0  0  0  0  0  0
  -16.8450  -28.2810   23.0060 C   0  0  0  0  0  3  0  0  0  0  0  0
  -26.0100  -32.6700   23.8110 C   0  0  0  0  0  3  0  0  0  0  0  0
  -26.6460  -31.8600   25.0070 C   0  0  1  0  0  0  0  0  0  0  0  0
  -25.6370  -31.5100   26.1260 C   0  0  0  0  0  1  0  0  0  0  0  0
  -27.2670  -30.5380   24.4990 C   0  0  0  0  0  1  0  0  0  0  0  0
  -27.7980  -32.6760   25.6380 C   0  0  0  0  0  1  0  0  0  0  0  0
  -25.6890  -34.0420   24.2220 N   0  0  0  0  0  0  0  0  0  0  0  0
  -25.9140  -35.1320   23.4750 C   0  0  0  0  0  0  0  0  0  0  0  0
  -26.4880  -35.0890   22.3840 O   0  0  0  0  0  0  0  0  0  0  0  0
  -25.1630  -34.1460   25.0780 H   0  0  0  0  0  0  0  0  0  0  0  0
  -24.1010  -36.8710   23.3500 C   0  0  0  0  0  1  0  0  0  0  0  0
  -25.4250  -36.4840   24.0290 C   0  0  0  0  0  3  0  0  0  0  0  0
  -27.5920  -37.4220   24.7020 C   0  0  0  0  0  1  0  0  0  0  0  0
  -26.4070  -37.5770   23.8620 N   0  0  0  0  0  0  0  0  0  0  0  0
  -25.9840  -38.4770   24.0760 H   0  0  0  0  0  0  0  0  0  0  0  0
  -27.3840  -20.7760   18.3550 C   0  0  0  0  0  2  0  0  0  0  0  0
  -27.2290  -18.5790   17.1100 C   0  0  0  0  0  1  0  0  0  0  0  0
  -27.3150  -19.2160   18.5220 C   0  0  1  0  0  0  0  0  0  0  0  0
  -28.7690  -17.2210   19.4670 C   0  0  0  0  0  3  0  0  0  0  0  0
  -28.4680  -18.6010   19.3110 C   0  0  0  0  0  0  0  0  0  0  0  0
  -29.7990  -17.1680   20.3640 C   0  0  0  0  0  0  0  0  0  0  0  0
  -29.2710  -19.3490   20.0570 N   0  0  0  0  0  0  0  0  0  0  0  0
  -30.0970  -18.4800   20.6940 N   0  0  0  0  0  0  0  0  0  0  0  0
  -31.3870  -20.4760   21.5430 C   0  0  0  0  0  1  0  0  0  0  0  0
  -31.0940  -18.9680   21.6420 C   0  0  0  0  0  2  0  0  0  0  0  0
  -30.4800  -15.9550   20.9540 C   0  0  0  0  0  2  0  0  0  0  0  0
  -32.7690  -16.2140   20.0430 C   0  0  0  0  0  1  0  0  0  0  0  0
  -31.0710  -15.1800   18.5570 C   0  0  0  0  0  1  0  0  0  0  0  0
  -31.5400  -15.2590   20.0360 C   0  0  2  0  0  0  0  0  0  0  0  0
  -32.0380  -13.8070   20.3980 C   0  0  0  0  0  0  0  0  0  0  0  0
  -31.5660  -11.4610   19.8750 C   0  0  0  0  0  2  0  0  0  0  0  0
  -30.6790  -11.4130   18.6120 C   0  0  0  0  0  2  0  0  0  0  0  0
  -29.1860  -11.4780   18.9930 C   0  0  0  0  0  2  0  0  0  0  0  0
  -28.8750  -12.6210   19.9940 C   0  0  0  0  0  3  0  0  0  0  0  0
  -29.8940  -12.6240   21.1590 C   0  0  0  0  0  2  0  0  0  0  0  0
  -31.2410  -12.7120   20.5860 N   0  0  0  0  0  0  0  0  0  0  0  0
  -33.2400  -13.6380   20.1870 O   0  0  0  0  0  0  0  0  0  0  0  0
  -26.6090  -13.5980   20.7240 C   0  0  0  0  0  0  0  0  0  0  0  0
  -25.4260  -13.0040   21.0660 C   0  0  0  0  0  0  0  0  0  0  0  0
  -25.6590  -11.5970   20.9980 C   0  0  0  0  0  0  0  0  0  0  0  0
  -27.4970  -12.5630   20.4700 N   0  0  0  0  0  0  0  0  0  0  0  0
  -26.9270  -11.3540   20.6950 N   0  0  0  0  0  0  0  0  0  0  0  0
  -24.7310  -10.4700   21.1450 C   0  0  0  0  0  0  0  0  0  0  0  0
  -25.0090   -9.3940   22.0170 C   0  0  0  0  0  3  0  0  0  0  0  0
  -24.0930   -8.3300   22.1550 C   0  0  0  0  0  3  0  0  0  0  0  0
  -22.8820   -8.3370   21.4230 C   0  0  0  0  0  0  0  0  0  0  0  0
  -22.6230   -9.3970   20.5370 C   0  0  0  0  0  3  0  0  0  0  0  0
  -23.5380  -10.4540   20.3960 C   0  0  0  0  0  3  0  0  0  0  0  0
  -21.9450   -7.3340   21.4740 O   0  0  0  0  0  0  0  0  0  0  0  0
  -21.7870   -6.5550   22.5920 C   0  0  0  0  0  0  0  0  0  0  0  0
  -21.4590   -7.1090   23.8490 C   0  0  0  0  0  3  0  0  0  0  0  0
  -21.2390   -6.2640   24.9540 C   0  0  0  0  0  3  0  0  0  0  0  0
  -21.3360   -4.8670   24.8040 C   0  0  0  0  0  0  0  0  0  0  0  0
  -21.6580   -4.3130   23.5520 C   0  0  0  0  0  3  0  0  0  0  0  0
  -21.8800   -5.1550   22.4500 C   0  0  0  0  0  0  0  0  0  0  0  0
  -22.1680   -4.6160   21.2400 F   0  0  0  0  0  0  0  0  0  0  0  0
  -21.1180   -4.0540   25.8640 F   0  0  0  0  0  0  0  0  0  0  0  0
  -24.1260  -13.7000   21.3510 C   0  0  0  0  0  0  0  0  0  0  0  0
  -23.3280  -13.1500   22.2600 N   0  0  0  0  0  0  0  0  0  0  0  0
  -23.8350  -14.7620   20.8050 O   0  0  0  0  0  0  0  0  0  0  0  0
  -23.5800  -12.2850   22.7160 H   0  0  0  0  0  0  0  0  0  0  0  0
  -22.4530  -13.5950   22.4990 H   0  0  0  0  0  0  0  0  0  0  0  0
  -26.9870  -14.9280   20.5930 N   0  0  0  0  0  0  0  0  0  0  0  0
  -26.3250  -15.6820   20.7260 H   0  0  0  0  0  0  0  0  0  0  0  0
  -27.9150  -15.2600   20.3690 H   0  0  0  0  0  0  0  0  0  0  0  0
  -25.6250  -17.3890   19.4150 C   0  0  0  0  0  1  0  0  0  0  0  0
  -25.9750  -18.8820   19.2470 C   0  0  0  0  0  2  0  0  0  0  0  0
  1  5  1  0
  3  1  1  0
  3  6  1  0
  4  2  1  0
  5  7  1  6
  5 53  1  0
  5  2  1  0
  6  8  1  6
  6 10  1  0
  6  4  1  0
 10  9  1  0
 10 11  1  0
 11 12  1  0
 13 24  2  0
 14 12  1  0
 14 19  1  0
 15 23  1  0
 15 25  1  0
 16 22  1  0
 16 18  1  0
 17 23  1  0
 18 17  1  0
 19 18  2  0
 20 14  2  0
 21 20  1  0
 21 16  2  0
 22 15  1  0
 23 13  1  0
 25 27  2  0
 26 25  1  0
 28 26  1  0
 29 38  2  0
 29 34  1  0
 30 26  1  0
 31 30  1  0
 32 33  1  0
 32 31  1  0
 33 29  1  0
 34 30  1  0
 34 35  2  0
 36 35  1  0
 37 36  2  0
 38 37  1  0
 39 13  1  0
 39 44  1  0
 39 40  1  0
 40 43  1  1
 40 41  1  0
 42 40  1  0
 44 47  1  0
 45 49  1  0
 45 44  1  0
 46 45  2  0
 49 48  1  0
 51 49  1  0
 51 52  1  0
 51 50  1  0
 53 55  1  0
 55 54  1  6
 55104  1  0
 55 57  1  0
 56 58  2  0
 57 56  1  0
 57 59  2  0
 58 60  1  0
 58 63  1  0
 59 60  1  0
 60 62  1  0
 61 62  1  0
 66 65  1  6
 66 64  1  0
 66 67  1  0
 66 63  1  0
 67 73  1  0
 68 73  1  0
 69 70  1  0
 69 68  1  0
 71 70  1  0
 71 78  1  0
 71 72  1  0
 73 72  1  0
 74 67  2  0
 75 76  2  0
 76 95  1  0
 77 76  1  0
 77 80  1  0
 78 79  1  0
 78 75  1  0
 79 77  2  0
 80 81  1  0
 81 82  2  0
 83 86  1  0
 83 82  1  0
 84 83  2  0
 85 84  1  0
 85 80  2  0
 86 87  1  0
 87 88  1  0
 88 89  2  0
 90 89  1  0
 90 94  1  0
 91 90  2  0
 92 87  2  0
 92 91  1  0
 93 92  1  0
 95 96  1  0
 96 99  1  0
 96 98  1  0
 97 95  2  0
100 75  1  0
100101  1  0
102100  1  0
104103  1  0
M  ISO  4  11 101  12 101  66 100  67 100
M  END
>  <TORSDO>  (22) 
F 25

>  <SCORE>  (22) 
-9.876

>  <name>  (22) 
22

>  <ligand_id>  (22) 
22

>  <original_smiles>  (22) 
[H]c1c([H])c([H])c2c(c1[H])C([H])([H])C([H])([H])C([H])([H])C2([H])N([H])C(=O)C1([H])N(C(=O)C([H])(N([H])C(=O)C([H])(N([H])C([H])([H])[H])C([H])([H])[H])C(C([H])([H])[H])(C([H])([H])[H])C([H])([H])[H])C([H])([H])c2c([H])c(OC([H])([H])C([H])(C([H])([H])[H])C3(C([H])([H])[H])C([H])([H])C([H])([H])C(C([H])([H])[H])(C([H])([H])C(c4nn(C([H])([H])C([H])([H])[H])c(C([H])([H])C(C(=O)N5C([H])([H])C([H])([H])C([H])([H])C([H])(n6nc(-c7c([H])c([H])c(Oc8c([H])c([H])c(F)c([H])c8F)c([H])c7[H])c(C(=O)N([H])[H])c6N([H])[H])C5([H])[H])(C([H])([H])[H])C([H])([H])[H])c4[H])(C([H])([H])[H])C([H])([H])C([H])([H])[H])C([H])([H])C3([H])[H])c([H])c([H])c2C1([H])[H]

>  <smiles>  (22) 
[H]c1c([H])c([H])c2c(c1[H])C([H])([H])C([H])([H])C([H])([H])C2([H])N([H])C(=O)C1([H])N(C(=O)C([H])(N([H])C(=O)C([H])(N([H])C([H])([H])[H])C([H])([H])[H])C(C([H])([H])[H])(C([H])([H])[H])C([H])([H])[H])C([H])([H])c2c([H])c(OC([H])([H])C([H])(C([H])([H])[H])C3(C([H])([H])[H])C([H])([H])C([H])([H])C(C([H])([H])[H])(C([H])([H])C(c4nn(C([H])([H])C([H])([H])[H])c(C([H])([H])C(C(=O)N5C([H])([H])C([H])([H])C([H])([H])C([H])(n6nc(-c7c([H])c([H])c(Oc8c([H])c([H])c(F)c([H])c8F)c([H])c7[H])c(C(=O)N([H])[H])c6N([H])[H])C5([H])[H])(C([H])([H])[H])C([H])([H])[H])c4[H])(C([H])([H])[H])C([H])([H])C([H])([H])[H])C([H])([H])C3([H])[H])c([H])c([H])c2C1([H])[H]

$$$$
23:0:0
     RDKit          3D

 97105  0  0  1  0  0  0  0  0999 V2000
  -28.1900  -16.2680   20.8050 C   0  0  0  0  0  3  0  0  0  0  0  0
  -29.5050  -16.1440   20.3040 C   0  0  0  0  0  0  0  0  0  0  0  0
  -27.5660  -17.4250   18.9060 C   0  0  0  0  0  0  0  0  0  0  0  0
  -28.9000  -17.3430   18.4090 C   0  0  0  0  0  0  0  0  0  0  0  0
  -27.2210  -16.9070   20.1110 N   0  0  0  0  0  0  0  0  0  0  0  0
  -29.8650  -16.6930   19.1140 N   0  0  0  0  0  0  0  0  0  0  0  0
  -30.5640  -15.3510   21.0700 C   0  0  0  0  0  3  0  0  0  0  0  0
  -31.5570  -13.0860   20.9140 C   0  0  0  0  0  0  0  0  0  0  0  0
  -31.2970  -10.6460   21.0520 C   0  0  0  0  0  2  0  0  0  0  0  0
  -30.5780  -10.1670   19.7740 C   0  0  0  0  0  2  0  0  0  0  0  0
  -29.0490  -10.2380   19.9550 C   0  0  0  0  0  2  0  0  0  0  0  0
  -28.5710  -11.6060   20.5120 C   0  0  0  0  0  3  0  0  0  0  0  0
  -29.4190  -12.0410   21.7290 C   0  0  0  0  0  2  0  0  0  0  0  0
  -30.8340  -12.0130   21.3250 N   0  0  0  0  0  0  0  0  0  0  0  0
  -32.7640  -13.0340   20.6650 O   0  0  0  0  0  0  0  0  0  0  0  0
  -30.8330  -14.0840   20.3960 N   0  0  0  0  0  0  0  0  0  0  0  0
  -31.0850  -14.2660   19.4370 H   0  0  0  0  0  0  0  0  0  0  0  0
  -26.2530  -12.6410   20.9260 C   0  0  0  0  0  0  0  0  0  0  0  0
  -25.0290  -12.0780   21.1670 C   0  0  0  0  0  0  0  0  0  0  0  0
  -25.2440  -10.6670   21.1940 C   0  0  0  0  0  0  0  0  0  0  0  0
  -27.1450  -11.5850   20.8260 N   0  0  0  0  0  0  0  0  0  0  0  0
  -26.5340  -10.3930   21.0430 N   0  0  0  0  0  0  0  0  0  0  0  0
  -24.2880   -9.5560   21.2970 C   0  0  0  0  0  0  0  0  0  0  0  0
  -24.3610   -8.6150   22.3460 C   0  0  0  0  0  3  0  0  0  0  0  0
  -23.4210   -7.5660   22.4330 C   0  0  0  0  0  3  0  0  0  0  0  0
  -22.3930   -7.4540   21.4670 C   0  0  0  0  0  0  0  0  0  0  0  0
  -22.3400   -8.3800   20.4100 C   0  0  0  0  0  3  0  0  0  0  0  0
  -23.2800   -9.4210   20.3220 C   0  0  0  0  0  3  0  0  0  0  0  0
  -21.4500   -6.4540   21.4570 O   0  0  0  0  0  0  0  0  0  0  0  0
  -20.8620   -6.0070   22.6130 C   0  0  0  0  0  0  0  0  0  0  0  0
  -20.1610   -6.8750   23.4770 C   0  0  0  0  0  3  0  0  0  0  0  0
  -19.5150   -6.3610   24.6200 C   0  0  0  0  0  3  0  0  0  0  0  0
  -19.5600   -4.9800   24.8930 C   0  0  0  0  0  0  0  0  0  0  0  0
  -20.2530   -4.1140   24.0300 C   0  0  0  0  0  3  0  0  0  0  0  0
  -20.9010   -4.6260   22.8920 C   0  0  0  0  0  0  0  0  0  0  0  0
  -21.5490   -3.7820   22.0540 F   0  0  0  0  0  0  0  0  0  0  0  0
  -18.9330   -4.4850   25.9860 F   0  0  0  0  0  0  0  0  0  0  0  0
  -23.7160  -12.8000   21.2710 C   0  0  0  0  0  0  0  0  0  0  0  0
  -22.7930  -12.2790   22.0720 N   0  0  0  0  0  0  0  0  0  0  0  0
  -23.5190  -13.8580   20.6770 O   0  0  0  0  0  0  0  0  0  0  0  0
  -22.9600  -11.4210   22.5770 H   0  0  0  0  0  0  0  0  0  0  0  0
  -21.9030  -12.7460   22.1830 H   0  0  0  0  0  0  0  0  0  0  0  0
  -26.6820  -13.9550   20.7650 N   0  0  0  0  0  0  0  0  0  0  0  0
  -26.0470  -14.7400   20.8300 H   0  0  0  0  0  0  0  0  0  0  0  0
  -27.6470  -14.2300   20.6270 H   0  0  0  0  0  0  0  0  0  0  0  0
  -31.6740  -17.5680   21.8290 C   0  0  0  0  0  1  0  0  0  0  0  0
  -31.8720  -16.1580   21.2510 C   0  0  0  0  0  2  0  0  0  0  0  0
  -29.3210  -17.8270   17.0190 C   0  0  0  0  0  2  0  0  0  0  0  0
  -29.4560  -19.3550   16.7780 C   0  0  0  0  0  2  0  0  0  0  0  0
  -30.4950  -20.1170   17.6310 C   0  0  0  0  0  2  0  0  0  0  0  0
  -30.4400  -21.6430   17.3660 C   0  0  0  0  0  2  0  0  0  0  0  0
  -31.2300  -22.5020   18.3810 C   0  0  0  0  0  2  0  0  0  0  0  0
  -31.6180  -23.9220   17.8920 C   0  0  0  0  0  2  0  0  0  0  0  0
  -31.2240  -24.9610   18.7940 O   0  0  0  0  0  0  0  0  0  0  0  0
  -25.5250  -27.9040   21.8410 C   0  0  0  0  0  0  0  0  0  0  0  0
  -30.0730  -25.6930   18.5750 C   0  0  0  0  0  0  0  0  0  0  0  0
  -25.5290  -27.9110   19.3670 C   0  0  0  0  0  3  0  0  0  0  0  0
  -27.7330  -27.2630   18.2610 C   0  0  0  0  0  0  0  0  0  0  0  0
  -27.7280  -27.9220   20.6740 C   0  0  0  0  0  2  0  0  0  0  0  0
  -28.3500  -27.1710   19.5150 C   0  0  0  0  0  0  0  0  0  0  0  0
  -29.5170  -26.3910   19.6730 C   0  0  0  0  0  3  0  0  0  0  0  0
  -29.4270  -25.7860   17.3200 C   0  0  0  0  0  3  0  0  0  0  0  0
  -28.2680  -26.5700   17.1610 C   0  0  0  0  0  3  0  0  0  0  0  0
  -26.4920  -28.1200   18.1680 C   0  0  0  0  0  2  0  0  0  0  0  0
  -26.2450  -27.8880   20.6840 N   0  0  0  0  0  0  0  0  0  0  0  0
  -24.2880  -27.9800   21.8250 O   0  0  0  0  0  0  0  0  0  0  0  0
  -24.6880  -26.6410   19.1070 C   0  0  0  0  0  0  0  0  0  0  0  0
  -23.7010  -26.7540   18.2050 N   0  0  0  0  0  0  0  0  0  0  0  0
  -24.9470  -25.5820   19.6850 O   0  0  0  0  0  0  0  0  0  0  0  0
  -23.5550  -27.6570   17.7760 H   0  0  0  0  0  0  0  0  0  0  0  0
  -20.9490  -25.9670   16.0000 C   0  0  0  0  0  0  0  0  0  0  0  0
  -22.8090  -25.6780   17.7710 C   0  0  0  0  0  3  0  0  0  0  0  0
  -23.5040  -24.7590   16.7420 C   0  0  0  0  0  2  0  0  0  0  0  0
  -23.2430  -25.1750   15.2900 C   0  0  0  0  0  2  0  0  0  0  0  0
  -21.7420  -25.1540   14.9910 C   0  0  0  0  0  2  0  0  0  0  0  0
  -21.4570  -26.2260   17.3010 C   0  0  0  0  0  0  0  0  0  0  0  0
  -20.6960  -27.0150   18.1900 C   0  0  0  0  0  3  0  0  0  0  0  0
  -19.4480  -27.5360   17.8000 C   0  0  0  0  0  3  0  0  0  0  0  0
  -18.9420  -27.2650   16.5170 C   0  0  0  0  0  3  0  0  0  0  0  0
  -19.6900  -26.4790   15.6230 C   0  0  0  0  0  3  0  0  0  0  0  0
  -26.2200  -27.8540   23.2380 C   0  0  0  0  0  3  0  0  0  0  0  0
  -26.2230  -26.4120   23.8800 C   0  0  1  0  0  0  0  0  0  0  0  0
  -24.8280  -25.7480   23.9230 C   0  0  0  0  0  1  0  0  0  0  0  0
  -27.1710  -25.4720   23.1010 C   0  0  0  0  0  1  0  0  0  0  0  0
  -26.7610  -26.4840   25.3290 C   0  0  0  0  0  1  0  0  0  0  0  0
  -25.5270  -28.8100   24.1110 N   0  0  0  0  0  0  0  0  0  0  0  0
  -25.9820  -30.0310   24.4170 C   0  0  0  0  0  0  0  0  0  0  0  0
  -27.0840  -30.4470   24.0450 O   0  0  0  0  0  0  0  0  0  0  0  0
  -24.5940  -28.5580   24.4060 H   0  0  0  0  0  0  0  0  0  0  0  0
  -24.3460  -31.9400   24.3660 C   0  0  0  0  0  1  0  0  0  0  0  0
  -25.0750  -30.9350   25.2720 C   0  0  0  0  0  3  0  0  0  0  0  0
  -26.2890  -30.7890   27.4010 C   0  0  0  0  0  1  0  0  0  0  0  0
  -25.8020  -31.6620   26.3360 N   0  0  0  0  0  0  0  0  0  0  0  0
  -25.2100  -32.3740   26.7540 H   0  0  0  0  0  0  0  0  0  0  0  0
  -26.4010  -18.0060   18.1170 C   0  0  0  0  0  2  0  0  0  0  0  0
  -24.4290  -19.6310   18.1210 C   0  0  0  0  0  1  0  0  0  0  0  0
  -25.6220  -19.0720   18.9060 C   0  0  0  0  0  2  0  0  0  0  0  0
  2  1  1  0
  2  7  1  0
  3  5  1  0
  4  3  2  0
  4  6  1  0
  5  1  2  0
  6  2  2  0
  7 47  1  0
  8 14  1  0
  9 14  1  0
 10 11  1  0
 10  9  1  0
 12 11  1  0
 12 21  1  0
 12 13  1  0
 14 13  1  0
 15  8  2  0
 16  8  1  0
 16  7  1  0
 17 16  1  0
 18 19  2  0
 19 20  1  0
 19 38  1  0
 20 23  1  0
 21 18  1  0
 21 22  1  0
 22 20  2  0
 23 24  1  0
 24 25  2  0
 26 25  1  0
 27 26  2  0
 28 27  1  0
 28 23  2  0
 29 26  1  0
 29 30  1  0
 30 35  2  0
 30 31  1  0
 31 32  2  0
 32 33  1  0
 33 37  1  0
 34 33  2  0
 35 34  1  0
 36 35  1  0
 38 39  1  0
 39 42  1  0
 39 41  1  0
 40 38  2  0
 43 44  1  0
 43 18  1  0
 45 43  1  0
 47 46  1  0
 48  4  1  0
 49 48  1  0
 49 50  1  0
 51 50  1  0
 51 52  1  0
 53 52  1  0
 53 54  1  0
 56 54  1  0
 56 61  1  0
 57 67  1  0
 57 65  1  0
 58 60  1  0
 59 65  1  0
 60 61  2  0
 60 59  1  0
 62 56  2  0
 63 62  1  0
 63 58  2  0
 64 58  1  0
 64 57  1  0
 65 55  1  0
 66 55  2  0
 67 69  2  0
 68 67  1  0
 70 68  1  0
 71 76  1  0
 72 68  1  0
 73 72  1  0
 74 73  1  0
 75 74  1  0
 75 71  1  0
 76 72  1  0
 76 77  2  0
 78 77  1  0
 79 78  2  0
 80 71  2  0
 80 79  1  0
 81 55  1  0
 81 82  1  0
 81 86  1  0
 82 83  1  1
 82 85  1  0
 84 82  1  0
 86 89  1  0
 86 87  1  0
 87 91  1  0
 88 87  2  0
 91 90  1  0
 91 93  1  0
 93 94  1  0
 93 92  1  0
 95 97  1  0
 95  3  1  0
 96 97  1  0
M  ISO  4   8 100  16 100  53 101  54 101
M  END
>  <TORSDO>  (23) 
F 26

>  <SCORE>  (23) 
-4.227

>  <name>  (23) 
23

>  <ligand_id>  (23) 
23

>  <original_smiles>  (23) 
[H]c1nc(C([H])([H])C([H])([H])C([H])([H])[H])c(C([H])([H])C([H])([H])C([H])([H])C([H])([H])C([H])([H])C([H])([H])Oc2c([H])c([H])c3c(c2[H])C([H])([H])N(C(=O)C([H])(N([H])C(=O)C([H])(N([H])C([H])([H])[H])C([H])([H])[H])C(C([H])([H])[H])(C([H])([H])[H])C([H])([H])[H])C([H])(C(=O)N([H])C2([H])c4c([H])c([H])c([H])c([H])c4C([H])([H])C([H])([H])C2([H])[H])C3([H])[H])nc1C([H])(N([H])C(=O)N1C([H])([H])C([H])([H])C([H])([H])C([H])(n2nc(-c3c([H])c([H])c(Oc4c([H])c([H])c(F)c([H])c4F)c([H])c3[H])c(C(=O)N([H])[H])c2N([H])[H])C1([H])[H])C([H])([H])C([H])([H])[H]

>  <smiles>  (23) 
[H]c1nc(C([H])([H])C([H])([H])C([H])([H])[H])c(C([H])([H])C([H])([H])C([H])([H])C([H])([H])C([H])([H])C([H])([H])Oc2c([H])c([H])c3c(c2[H])C([H])([H])N(C(=O)C([H])(N([H])C(=O)C([H])(N([H])C([H])([H])[H])C([H])([H])[H])C(C([H])([H])[H])(C([H])([H])[H])C([H])([H])[H])C([H])(C(=O)N([H])C2([H])c4c([H])c([H])c([H])c([H])c4C([H])([H])C([H])([H])C2([H])[H])C3([H])[H])nc1C([H])(N([H])C(=O)N1C([H])([H])C([H])([H])C([H])([H])C([H])(n2nc(-c3c([H])c([H])c(Oc4c([H])c([H])c(F)c([H])c4F)c([H])c3[H])c(C(=O)N([H])[H])c2N([H])[H])C1([H])[H])C([H])([H])C([H])([H])[H]

$$$$
24:0:0
     RDKit          3D

 96104  0  0  1  0  0  0  0  0999 V2000
  -29.7150  -20.1920   21.1680 C   0  0  0  0  0  3  0  0  0  0  0  0
  -28.4470  -20.1270   20.5620 C   0  0  0  0  0  0  0  0  0  0  0  0
  -28.1230  -18.9060   19.9510 C   0  0  0  0  0  0  0  0  0  0  0  0
  -30.2110  -18.0960   20.4110 C   0  0  0  0  0  0  0  0  0  0  0  0
  -26.7920  -18.6840   19.2720 C   0  0  0  0  0  1  0  0  0  0  0  0
  -30.5870  -19.1690   21.1000 N   0  0  0  0  0  0  0  0  0  0  0  0
  -29.0040  -17.8940   19.8790 N   0  0  0  0  0  0  0  0  0  0  0  0
  -31.2640  -17.0320   20.1020 C   0  0  0  0  0  3  0  0  0  0  0  0
  -31.3640  -14.5900   20.5850 C   0  0  0  0  0  0  0  0  0  0  0  0
  -30.9940  -12.4420   19.5160 C   0  0  0  0  0  2  0  0  0  0  0  0
  -30.1260  -12.6900   18.2680 C   0  0  0  0  0  2  0  0  0  0  0  0
  -28.6330  -12.6140   18.6360 C   0  0  0  0  0  2  0  0  0  0  0  0
  -28.2610  -13.4770   19.8750 C   0  0  0  0  0  3  0  0  0  0  0  0
  -29.2670  -13.2700   21.0340 C   0  0  0  0  0  2  0  0  0  0  0  0
  -30.6220  -13.4630   20.5000 N   0  0  0  0  0  0  0  0  0  0  0  0
  -32.5870  -14.6040   20.4700 O   0  0  0  0  0  0  0  0  0  0  0  0
  -30.6820  -15.7200   20.4070 N   0  0  0  0  0  0  0  0  0  0  0  0
  -29.6770  -15.7250   20.5030 H   0  0  0  0  0  0  0  0  0  0  0  0
  -25.8510  -14.1640   20.4610 C   0  0  0  0  0  0  0  0  0  0  0  0
  -24.7320  -13.4390   20.7580 C   0  0  0  0  0  0  0  0  0  0  0  0
  -25.1460  -12.0730   20.7520 C   0  0  0  0  0  0  0  0  0  0  0  0
  -26.8780  -13.2510   20.2930 N   0  0  0  0  0  0  0  0  0  0  0  0
  -26.4520  -11.9840   20.5270 N   0  0  0  0  0  0  0  0  0  0  0  0
  -24.3570  -10.8450   20.8990 C   0  0  0  0  0  0  0  0  0  0  0  0
  -24.7070   -9.8590   21.8470 C   0  0  0  0  0  3  0  0  0  0  0  0
  -23.9280   -8.6910   21.9840 C   0  0  0  0  0  3  0  0  0  0  0  0
  -22.7880   -8.4990   21.1690 C   0  0  0  0  0  0  0  0  0  0  0  0
  -22.4570   -9.4750   20.2090 C   0  0  0  0  0  3  0  0  0  0  0  0
  -23.2350  -10.6370   20.0710 C   0  0  0  0  0  3  0  0  0  0  0  0
  -21.9870   -7.3840   21.2120 O   0  0  0  0  0  0  0  0  0  0  0  0
  -21.8290   -6.6550   22.3650 C   0  0  0  0  0  0  0  0  0  0  0  0
  -21.3370   -7.2410   23.5510 C   0  0  0  0  0  3  0  0  0  0  0  0
  -21.1280   -6.4470   24.6950 C   0  0  0  0  0  3  0  0  0  0  0  0
  -21.3930   -5.0660   24.6490 C   0  0  0  0  0  0  0  0  0  0  0  0
  -21.8700   -4.4760   23.4660 C   0  0  0  0  0  3  0  0  0  0  0  0
  -22.0860   -5.2700   22.3260 C   0  0  0  0  0  0  0  0  0  0  0  0
  -22.5310   -4.6960   21.1820 F   0  0  0  0  0  0  0  0  0  0  0  0
  -21.1820   -4.2990   25.7450 F   0  0  0  0  0  0  0  0  0  0  0  0
  -23.3410  -13.9730   20.9570 C   0  0  0  0  0  0  0  0  0  0  0  0
  -22.5550  -13.3230   21.8060 N   0  0  0  0  0  0  0  0  0  0  0  0
  -22.9670  -15.0070   20.4020 O   0  0  0  0  0  0  0  0  0  0  0  0
  -22.8670  -12.4820   22.2680 H   0  0  0  0  0  0  0  0  0  0  0  0
  -21.6260  -13.6690   21.9970 H   0  0  0  0  0  0  0  0  0  0  0  0
  -26.0730  -15.5220   20.2920 N   0  0  0  0  0  0  0  0  0  0  0  0
  -25.3200  -16.1950   20.3520 H   0  0  0  0  0  0  0  0  0  0  0  0
  -26.9770  -15.9480   20.1290 H   0  0  0  0  0  0  0  0  0  0  0  0
  -33.0330  -16.1120   18.4410 C   0  0  0  0  0  1  0  0  0  0  0  0
  -32.5550  -18.5180   18.4350 C   0  0  0  0  0  1  0  0  0  0  0  0
  -30.8670  -16.9210   17.5160 C   0  0  0  0  0  1  0  0  0  0  0  0
  -31.8960  -17.1370   18.6480 C   0  0  2  0  0  0  0  0  0  0  0  0
  -27.5850  -21.1930   20.5060 O   0  0  0  0  0  0  0  0  0  0  0  0
  -28.1030  -22.3140   19.7960 C   0  0  0  0  0  2  0  0  0  0  0  0
  -28.3240  -23.4990   20.7400 C   0  0  0  0  0  2  0  0  0  0  0  0
  -28.6510  -24.7730   19.9480 C   0  0  0  0  0  2  0  0  0  0  0  0
  -28.8670  -26.0120   20.8320 C   0  0  0  0  0  2  0  0  0  0  0  0
  -28.8280  -27.2100   20.0600 O   0  0  0  0  0  0  0  0  0  0  0  0
  -24.5680  -31.8900   23.3230 C   0  0  0  0  0  0  0  0  0  0  0  0
  -27.6160  -27.8530   20.0790 C   0  0  0  0  0  0  0  0  0  0  0  0
  -23.5230  -30.5300   21.5420 C   0  0  0  0  0  3  0  0  0  0  0  0
  -25.1310  -29.1850   20.0860 C   0  0  0  0  0  0  0  0  0  0  0  0
  -26.0260  -31.0500   21.4900 C   0  0  0  0  0  2  0  0  0  0  0  0
  -26.2240  -29.7330   20.7720 C   0  0  0  0  0  0  0  0  0  0  0  0
  -27.4700  -29.0710   20.7760 C   0  0  0  0  0  3  0  0  0  0  0  0
  -26.5180  -27.3260   19.3680 C   0  0  0  0  0  3  0  0  0  0  0  0
  -25.2710  -27.9790   19.3820 C   0  0  0  0  0  3  0  0  0  0  0  0
  -23.8290  -29.9540   20.1340 C   0  0  0  0  0  2  0  0  0  0  0  0
  -24.7210  -31.1660   22.1800 N   0  0  0  0  0  0  0  0  0  0  0  0
  -23.4500  -32.0670   23.8270 O   0  0  0  0  0  0  0  0  0  0  0  0
  -22.8950  -29.4090   22.4000 C   0  0  0  0  0  0  0  0  0  0  0  0
  -21.5810  -29.1900   22.2280 N   0  0  0  0  0  0  0  0  0  0  0  0
  -23.5870  -28.7450   23.1770 O   0  0  0  0  0  0  0  0  0  0  0  0
  -21.0820  -29.7880   21.5830 H   0  0  0  0  0  0  0  0  0  0  0  0
  -18.2370  -27.8750   22.5680 C   0  0  0  0  0  0  0  0  0  0  0  0
  -20.7810  -28.1660   22.8990 C   0  0  0  0  0  3  0  0  0  0  0  0
  -20.9290  -26.7980   22.1930 C   0  0  0  0  0  2  0  0  0  0  0  0
  -19.8450  -26.5410   21.1420 C   0  0  0  0  0  2  0  0  0  0  0  0
  -18.4530  -26.5960   21.7770 C   0  0  0  0  0  2  0  0  0  0  0  0
  -19.3290  -28.6220   23.0810 C   0  0  0  0  0  0  0  0  0  0  0  0
  -19.0720  -29.8240   23.7730 C   0  0  0  0  0  3  0  0  0  0  0  0
  -17.7530  -30.2780   23.9650 C   0  0  0  0  0  3  0  0  0  0  0  0
  -16.6760  -29.5240   23.4740 C   0  0  0  0  0  3  0  0  0  0  0  0
  -16.9170  -28.3250   22.7810 C   0  0  0  0  0  3  0  0  0  0  0  0
  -25.7860  -32.5510   24.0420 C   0  0  0  0  0  3  0  0  0  0  0  0
  -25.4340  -33.9500   24.3110 N   0  0  0  0  0  0  0  0  0  0  0  0
  -25.8140  -34.9880   23.5550 C   0  0  0  0  0  0  0  0  0  0  0  0
  -26.5660  -34.8700   22.5830 O   0  0  0  0  0  0  0  0  0  0  0  0
  -24.7700  -34.1170   25.0550 H   0  0  0  0  0  0  0  0  0  0  0  0
  -24.0830  -36.7320   23.0240 C   0  0  0  0  0  1  0  0  0  0  0  0
  -25.2710  -36.3780   23.9340 C   0  0  0  0  0  3  0  0  0  0  0  0
  -27.3280  -37.3190   24.8890 C   0  0  0  0  0  1  0  0  0  0  0  0
  -26.2890  -37.4490   23.8710 N   0  0  0  0  0  0  0  0  0  0  0  0
  -25.8540  -38.3620   23.9820 H   0  0  0  0  0  0  0  0  0  0  0  0
  -26.1980  -31.8120   25.3740 C   0  0  1  0  0  0  0  0  0  0  0  0
  -25.0180  -31.5810   26.3460 C   0  0  0  0  0  1  0  0  0  0  0  0
  -26.8290  -30.4350   25.0620 C   0  0  0  0  0  1  0  0  0  0  0  0
  -27.2830  -32.6300   26.1170 C   0  0  0  0  0  1  0  0  0  0  0  0
  2  1  2  0
  3  2  1  0
  4  6  2  0
  5  3  1  0
  6  1  1  0
  7  3  2  0
  7  4  1  0
  8 50  1  0
  8 17  1  0
  8  4  1  0
 10 15  1  0
 11 12  1  0
 11 10  1  0
 13 12  1  0
 13 22  1  0
 13 14  1  0
 15  9  1  0
 15 14  1  0
 16  9  2  0
 17 18  1  0
 17  9  1  0
 19 20  2  0
 20 39  1  0
 21 20  1  0
 21 24  1  0
 22 19  1  0
 22 23  1  0
 23 21  2  0
 24 25  1  0
 25 26  2  0
 27 30  1  0
 27 26  1  0
 28 27  2  0
 29 28  1  0
 29 24  2  0
 30 31  1  0
 31 32  1  0
 32 33  2  0
 34 33  1  0
 34 38  1  0
 35 34  2  0
 36 31  2  0
 36 35  1  0
 37 36  1  0
 39 40  1  0
 40 43  1  0
 40 42  1  0
 41 39  2  0
 44 45  1  0
 44 19  1  0
 46 44  1  0
 50 47  1  1
 48 50  1  0
 49 50  1  0
 51  2  1  0
 52 51  1  0
 52 53  1  0
 54 53  1  0
 54 55  1  0
 56 58  1  0
 56 55  1  0
 57 68  2  0
 58 63  1  0
 59 67  1  0
 59 69  1  0
 60 66  1  0
 60 62  1  0
 61 67  1  0
 62 63  2  0
 62 61  1  0
 64 65  1  0
 64 58  2  0
 65 60  2  0
 66 59  1  0
 67 57  1  0
 69 71  2  0
 70 69  1  0
 72 70  1  0
 73 82  2  0
 73 78  1  0
 74 70  1  0
 74 78  1  0
 75 74  1  0
 76 77  1  0
 76 75  1  0
 77 73  1  0
 78 79  2  0
 79 80  1  0
 81 80  2  0
 82 81  1  0
 83 57  1  0
 83 84  1  0
 83 93  1  0
 84 87  1  0
 85 89  1  0
 85 84  1  0
 86 85  2  0
 89 88  1  0
 91 89  1  0
 91 92  1  0
 91 90  1  0
 93 96  1  1
 93 94  1  0
 95 93  1  0
M  ISO  4   9 100  17 100  55 101  56 101
M  END
>  <TORSDO>  (24) 
F 23

>  <SCORE>  (24) 
-12.029

>  <name>  (24) 
24

>  <ligand_id>  (24) 
24

>  <original_smiles>  (24) 
[H]c1nc(C([H])(N([H])C(=O)N2C([H])([H])C([H])([H])C([H])([H])C([H])(n3nc(-c4c([H])c([H])c(Oc5c([H])c([H])c(F)c([H])c5F)c([H])c4[H])c(C(=O)N([H])[H])c3N([H])[H])C2([H])[H])C(C([H])([H])[H])(C([H])([H])[H])C([H])([H])[H])nc(C([H])([H])[H])c1OC([H])([H])C([H])([H])C([H])([H])C([H])([H])Oc1c([H])c([H])c2c(c1[H])C([H])([H])N(C(=O)C([H])(N([H])C(=O)C([H])(N([H])C([H])([H])[H])C([H])([H])[H])C(C([H])([H])[H])(C([H])([H])[H])C([H])([H])[H])C([H])(C(=O)N([H])C1([H])c3c([H])c([H])c([H])c([H])c3C([H])([H])C([H])([H])C1([H])[H])C2([H])[H]

>  <smiles>  (24) 
[H]c1nc(C([H])(N([H])C(=O)N2C([H])([H])C([H])([H])C([H])([H])C([H])(n3nc(-c4c([H])c([H])c(Oc5c([H])c([H])c(F)c([H])c5F)c([H])c4[H])c(C(=O)N([H])[H])c3N([H])[H])C2([H])[H])C(C([H])([H])[H])(C([H])([H])[H])C([H])([H])[H])nc(C([H])([H])[H])c1OC([H])([H])C([H])([H])C([H])([H])C([H])([H])Oc1c([H])c([H])c2c(c1[H])C([H])([H])N(C(=O)C([H])(N([H])C(=O)C([H])(N([H])C([H])([H])[H])C([H])([H])[H])C(C([H])([H])[H])(C([H])([H])[H])C([H])([H])[H])C([H])(C(=O)N([H])C1([H])c3c([H])c([H])c([H])c([H])c3C([H])([H])C([H])([H])C1([H])[H])C2([H])[H]

$$$$
25:0:0
     RDKit          3D

 93101  0  0  1  0  0  0  0  0999 V2000
  -29.6080  -22.4310   20.2900 C   0  0  0  0  0  2  0  0  0  0  0  0
  -30.6880  -21.9890   21.2850 C   0  0  0  0  0  2  0  0  0  0  0  0
  -30.0920  -19.6800   22.4280 C   0  0  0  0  0  3  0  0  0  0  0  0
  -31.2160  -19.5630   20.5560 C   0  0  0  0  0  3  0  0  0  0  0  0
  -30.6870  -20.4840   21.4140 C   0  0  0  0  0  0  0  0  0  0  0  0
  -30.2090  -18.3820   22.1840 N   0  0  0  0  0  0  0  0  0  0  0  0
  -30.8920  -18.3010   21.0190 N   0  0  0  0  0  0  0  0  0  0  0  0
  -31.1410  -17.0450   20.3080 C   0  0  0  0  0  2  0  0  0  0  0  0
  -31.3720  -15.4580   22.3370 C   0  0  0  0  0  1  0  0  0  0  0  0
  -30.7240  -15.6860   20.9580 C   0  0  1  0  0  0  0  0  0  0  0  0
  -29.3940  -15.7260   21.0880 F   0  0  0  0  0  0  0  0  0  0  0  0
  -31.1380  -14.5170   20.0080 C   0  0  0  0  0  0  0  0  0  0  0  0
  -30.6410  -12.4720   18.7090 C   0  0  0  0  0  2  0  0  0  0  0  0
  -29.6410  -12.7820   17.5760 C   0  0  0  0  0  2  0  0  0  0  0  0
  -28.1850  -12.7050   18.0820 C   0  0  0  0  0  2  0  0  0  0  0  0
  -27.9720  -13.4590   19.4210 C   0  0  0  0  0  3  0  0  0  0  0  0
  -29.0770  -13.0970   20.4410 C   0  0  0  0  0  2  0  0  0  0  0  0
  -30.3740  -13.4030   19.8200 N   0  0  0  0  0  0  0  0  0  0  0  0
  -32.1950  -14.6600   19.3790 O   0  0  0  0  0  0  0  0  0  0  0  0
  -25.6200  -14.1300   20.2290 C   0  0  0  0  0  0  0  0  0  0  0  0
  -24.5480  -13.3870   20.6390 C   0  0  0  0  0  0  0  0  0  0  0  0
  -24.9710  -12.0220   20.5860 C   0  0  0  0  0  0  0  0  0  0  0  0
  -26.6320  -13.2220   19.9570 N   0  0  0  0  0  0  0  0  0  0  0  0
  -26.2450  -11.9480   20.2200 N   0  0  0  0  0  0  0  0  0  0  0  0
  -24.2200  -10.7800   20.8040 C   0  0  0  0  0  0  0  0  0  0  0  0
  -24.6400   -9.8170   21.7460 C   0  0  0  0  0  3  0  0  0  0  0  0
  -23.8890   -8.6390   21.9500 C   0  0  0  0  0  3  0  0  0  0  0  0
  -22.7010   -8.4160   21.2130 C   0  0  0  0  0  0  0  0  0  0  0  0
  -22.3010   -9.3680   20.2600 C   0  0  0  0  0  3  0  0  0  0  0  0
  -23.0520  -10.5360   20.0530 C   0  0  0  0  0  3  0  0  0  0  0  0
  -21.9230   -7.2890   21.3270 O   0  0  0  0  0  0  0  0  0  0  0  0
  -21.8390   -6.5900   22.5040 C   0  0  0  0  0  0  0  0  0  0  0  0
  -21.4260   -7.2030   23.7080 C   0  0  0  0  0  3  0  0  0  0  0  0
  -21.2800   -6.4290   24.8790 C   0  0  0  0  0  3  0  0  0  0  0  0
  -21.5450   -5.0470   24.8470 C   0  0  0  0  0  0  0  0  0  0  0  0
  -21.9550   -4.4360   23.6500 C   0  0  0  0  0  3  0  0  0  0  0  0
  -22.0990   -5.2060   22.4810 C   0  0  0  0  0  0  0  0  0  0  0  0
  -22.4720   -4.6050   21.3260 F   0  0  0  0  0  0  0  0  0  0  0  0
  -21.4000   -4.3040   25.9700 F   0  0  0  0  0  0  0  0  0  0  0  0
  -23.1790  -13.9010   20.9760 C   0  0  0  0  0  0  0  0  0  0  0  0
  -22.4890  -13.2480   21.9030 N   0  0  0  0  0  0  0  0  0  0  0  0
  -22.7310  -14.9180   20.4490 O   0  0  0  0  0  0  0  0  0  0  0  0
  -22.8650  -12.4260   22.3520 H   0  0  0  0  0  0  0  0  0  0  0  0
  -21.5710  -13.5760   22.1710 H   0  0  0  0  0  0  0  0  0  0  0  0
  -25.8180  -15.4960   20.0530 N   0  0  0  0  0  0  0  0  0  0  0  0
  -25.0880  -16.1820   20.2100 H   0  0  0  0  0  0  0  0  0  0  0  0
  -26.7090  -15.9120   19.8030 H   0  0  0  0  0  0  0  0  0  0  0  0
  -29.6060  -23.9410   19.9460 C   0  0  0  0  0  2  0  0  0  0  0  0
  -27.2010  -23.7550   19.1300 C   0  0  0  0  0  1  0  0  0  0  0  0
  -29.0340  -23.8060   17.4710 C   0  0  0  0  0  1  0  0  0  0  0  0
  -28.5880  -24.3620   18.8420 C   0  0  2  0  0  0  0  0  0  0  0  0
  -28.5020  -25.9220   18.7070 C   0  0  0  0  0  2  0  0  0  0  0  0
  -28.2180  -26.6680   19.9070 O   0  0  0  0  0  0  0  0  0  0  0  0
  -24.5370  -31.8760   23.1600 C   0  0  0  0  0  0  0  0  0  0  0  0
  -27.0550  -27.4180   19.9590 C   0  0  0  0  0  0  0  0  0  0  0  0
  -23.2830  -30.5120   21.5270 C   0  0  0  0  0  3  0  0  0  0  0  0
  -24.6850  -28.9710   20.0630 C   0  0  0  0  0  0  0  0  0  0  0  0
  -25.8160  -30.8170   21.3020 C   0  0  0  0  0  2  0  0  0  0  0  0
  -25.8640  -29.4520   20.6460 C   0  0  0  0  0  0  0  0  0  0  0  0
  -27.0470  -28.6750   20.6080 C   0  0  0  0  0  3  0  0  0  0  0  0
  -25.8510  -26.9560   19.3840 C   0  0  0  0  0  3  0  0  0  0  0  0
  -24.6730  -27.7160   19.4370 C   0  0  0  0  0  3  0  0  0  0  0  0
  -23.4590  -29.8500   20.1360 C   0  0  0  0  0  2  0  0  0  0  0  0
  -24.5650  -31.0840   22.0530 N   0  0  0  0  0  0  0  0  0  0  0  0
  -23.4690  -32.1660   23.7150 O   0  0  0  0  0  0  0  0  0  0  0  0
  -22.6290  -29.4890   22.4830 C   0  0  0  0  0  0  0  0  0  0  0  0
  -21.3040  -29.3090   22.3510 N   0  0  0  0  0  0  0  0  0  0  0  0
  -23.3080  -28.8630   23.3020 O   0  0  0  0  0  0  0  0  0  0  0  0
  -20.8160  -29.8670   21.6650 H   0  0  0  0  0  0  0  0  0  0  0  0
  -17.9290  -28.1040   22.8060 C   0  0  0  0  0  0  0  0  0  0  0  0
  -20.4810  -28.3750   23.1170 C   0  0  0  0  0  3  0  0  0  0  0  0
  -20.5990  -26.9390   22.5540 C   0  0  0  0  0  2  0  0  0  0  0  0
  -19.5140  -26.6040   21.5260 C   0  0  0  0  0  2  0  0  0  0  0  0
  -18.1220  -26.7480   22.1480 C   0  0  0  0  0  2  0  0  0  0  0  0
  -19.0370  -28.8760   23.2460 C   0  0  0  0  0  0  0  0  0  0  0  0
  -18.8040  -30.1460   23.8170 C   0  0  0  0  0  3  0  0  0  0  0  0
  -17.4930  -30.6430   23.9550 C   0  0  0  0  0  3  0  0  0  0  0  0
  -16.4000  -29.8670   23.5360 C   0  0  0  0  0  3  0  0  0  0  0  0
  -16.6190  -28.6000   22.9650 C   0  0  0  0  0  3  0  0  0  0  0  0
  -25.8430  -32.4770   23.7650 C   0  0  0  0  0  3  0  0  0  0  0  0
  -25.5620  -33.8730   24.1230 N   0  0  0  0  0  0  0  0  0  0  0  0
  -25.8960  -34.9330   23.3730 C   0  0  0  0  0  0  0  0  0  0  0  0
  -26.5470  -34.8360   22.3290 O   0  0  0  0  0  0  0  0  0  0  0  0
  -24.9830  -34.0240   24.9350 H   0  0  0  0  0  0  0  0  0  0  0  0
  -24.1890  -36.7530   23.0730 C   0  0  0  0  0  1  0  0  0  0  0  0
  -25.4350  -36.3180   23.8610 C   0  0  0  0  0  3  0  0  0  0  0  0
  -27.5930  -37.1590   24.6760 C   0  0  0  0  0  1  0  0  0  0  0  0
  -26.4820  -37.3590   23.7500 N   0  0  0  0  0  0  0  0  0  0  0  0
  -26.0900  -38.2810   23.9180 H   0  0  0  0  0  0  0  0  0  0  0  0
  -26.3750  -31.6740   25.0150 C   0  0  1  0  0  0  0  0  0  0  0  0
  -25.2990  -31.4290   26.0980 C   0  0  0  0  0  1  0  0  0  0  0  0
  -26.9320  -30.2960   24.5850 C   0  0  0  0  0  1  0  0  0  0  0  0
  -27.5450  -32.4420   25.6730 C   0  0  0  0  0  1  0  0  0  0  0  0
  1  2  1  0
  2  5  1  0
  4  7  1  0
  4  5  2  0
  5  3  1  0
  6  3  2  0
  7  6  1  0
  8 10  1  0
  8  7  1  0
 10 11  1  0
 10  9  1  1
 12 10  1  0
 13 18  1  0
 14 15  1  0
 14 13  1  0
 16 15  1  0
 16 23  1  0
 16 17  1  0
 18 12  1  0
 18 17  1  0
 19 12  2  0
 20 21  2  0
 21 40  1  0
 22 21  1  0
 22 25  1  0
 23 24  1  0
 23 20  1  0
 24 22  2  0
 25 26  1  0
 26 27  2  0
 28 31  1  0
 28 27  1  0
 29 28  2  0
 30 29  1  0
 30 25  2  0
 31 32  1  0
 32 33  1  0
 33 34  2  0
 35 34  1  0
 35 39  1  0
 36 35  2  0
 37 32  2  0
 37 36  1  0
 38 37  1  0
 40 41  1  0
 41 44  1  0
 41 43  1  0
 42 40  2  0
 45 46  1  0
 45 20  1  0
 47 45  1  0
 48  1  1  0
 51 50  1  6
 51 49  1  0
 51 48  1  0
 52 51  1  0
 52 53  1  0
 53 55  1  0
 54 65  2  0
 55 60  1  0
 56 64  1  0
 56 66  1  0
 57 63  1  0
 57 59  1  0
 58 64  1  0
 59 58  1  0
 60 59  2  0
 61 62  1  0
 61 55  2  0
 62 57  2  0
 63 56  1  0
 64 54  1  0
 66 68  2  0
 67 66  1  0
 69 67  1  0
 70 79  2  0
 70 75  1  0
 71 67  1  0
 71 75  1  0
 72 71  1  0
 73 74  1  0
 73 72  1  0
 74 70  1  0
 75 76  2  0
 76 77  1  0
 78 77  2  0
 79 78  1  0
 80 54  1  0
 80 81  1  0
 80 90  1  0
 81 84  1  0
 82 86  1  0
 82 81  1  0
 83 82  2  0
 86 85  1  0
 88 86  1  0
 88 89  1  0
 88 87  1  0
 90 93  1  1
 90 91  1  0
 92 90  1  0
M  ISO  4  10 100  12 100  52 101  53 101
M  END
>  <TORSDO>  (25) 
F 23

>  <SCORE>  (25) 
-11.009

>  <name>  (25) 
25

>  <ligand_id>  (25) 
25

>  <original_smiles>  (25) 
[H]c1nn(C([H])([H])C(F)(C(=O)N2C([H])([H])C([H])([H])C([H])([H])C([H])(n3nc(-c4c([H])c([H])c(Oc5c([H])c([H])c(F)c([H])c5F)c([H])c4[H])c(C(=O)N([H])[H])c3N([H])[H])C2([H])[H])C([H])([H])[H])c([H])c1C([H])([H])C([H])([H])C([H])([H])C(C([H])([H])[H])(C([H])([H])[H])C([H])([H])Oc1c([H])c([H])c2c(c1[H])C([H])([H])N(C(=O)C([H])(N([H])C(=O)C([H])(N([H])C([H])([H])[H])C([H])([H])[H])C(C([H])([H])[H])(C([H])([H])[H])C([H])([H])[H])C([H])(C(=O)N([H])C1([H])c3c([H])c([H])c([H])c([H])c3C([H])([H])C([H])([H])C1([H])[H])C2([H])[H]

>  <smiles>  (25) 
[H]c1nn(C([H])([H])C(F)(C(=O)N2C([H])([H])C([H])([H])C([H])([H])C([H])(n3nc(-c4c([H])c([H])c(Oc5c([H])c([H])c(F)c([H])c5F)c([H])c4[H])c(C(=O)N([H])[H])c3N([H])[H])C2([H])[H])C([H])([H])[H])c([H])c1C([H])([H])C([H])([H])C([H])([H])C(C([H])([H])[H])(C([H])([H])[H])C([H])([H])Oc1c([H])c([H])c2c(c1[H])C([H])([H])N(C(=O)C([H])(N([H])C(=O)C([H])(N([H])C([H])([H])[H])C([H])([H])[H])C(C([H])([H])[H])(C([H])([H])[H])C([H])([H])[H])C([H])(C(=O)N([H])C1([H])c3c([H])c([H])c([H])c([H])c3C([H])([H])C([H])([H])C1([H])[H])C2([H])[H]

$$$$
26:0:0
     RDKit          3D

100108  0  0  1  0  0  0  0  0999 V2000
  -30.4300  -20.0660   22.0820 C   0  0  0  0  0  3  0  0  0  0  0  0
  -30.1330  -19.4560   20.8510 C   0  0  0  0  0  0  0  0  0  0  0  0
  -30.2540  -21.4550   22.2280 C   0  0  0  0  0  0  0  0  0  0  0  0
  -29.4840  -21.5640   20.0620 C   0  0  0  0  0  0  0  0  0  0  0  0
  -29.5950  -20.2340   19.8580 N   0  0  0  0  0  0  0  0  0  0  0  0
  -29.8400  -22.1820   21.1720 N   0  0  0  0  0  0  0  0  0  0  0  0
  -31.7350  -17.5810   21.5080 C   0  0  0  0  0  1  0  0  0  0  0  0
  -31.0710  -17.8180   19.1510 C   0  0  0  0  0  1  0  0  0  0  0  0
  -30.5430  -17.9430   20.5960 C   0  0  2  0  0  0  0  0  0  0  0  0
  -29.3750  -16.8920   20.8260 C   0  0  0  0  0  2  0  0  0  0  0  0
  -30.4000  -14.4700   20.5370 C   0  0  0  0  0  0  0  0  0  0  0  0
  -30.2250  -12.2640   19.4000 C   0  0  0  0  0  2  0  0  0  0  0  0
  -29.2440  -12.4170   18.2150 C   0  0  0  0  0  2  0  0  0  0  0  0
  -27.7860  -12.1950   18.6700 C   0  0  0  0  0  2  0  0  0  0  0  0
  -27.4440  -12.9990   19.9510 C   0  0  0  0  0  3  0  0  0  0  0  0
  -28.5390  -12.8190   21.0330 C   0  0  0  0  0  2  0  0  0  0  0  0
  -29.8280  -13.2270   20.4450 N   0  0  0  0  0  0  0  0  0  0  0  0
  -31.4780  -14.7290   19.9930 O   0  0  0  0  0  0  0  0  0  0  0  0
  -29.6280  -15.4290   21.1190 N   0  0  0  0  0  0  0  0  0  0  0  0
  -28.8690  -15.0140   21.6400 H   0  0  0  0  0  0  0  0  0  0  0  0
  -25.0600  -13.5120   20.7720 C   0  0  0  0  0  0  0  0  0  0  0  0
  -24.0240  -12.7000   21.1470 C   0  0  0  0  0  0  0  0  0  0  0  0
  -24.5130  -11.3630   21.0390 C   0  0  0  0  0  0  0  0  0  0  0  0
  -26.1140  -12.6670   20.4630 N   0  0  0  0  0  0  0  0  0  0  0  0
  -25.7910  -11.3660   20.6800 N   0  0  0  0  0  0  0  0  0  0  0  0
  -23.8230  -10.0780   21.2020 C   0  0  0  0  0  0  0  0  0  0  0  0
  -24.2580   -9.1200   22.1450 C   0  0  0  0  0  3  0  0  0  0  0  0
  -23.5710   -7.8970   22.2930 C   0  0  0  0  0  3  0  0  0  0  0  0
  -22.4320   -7.6240   21.4990 C   0  0  0  0  0  0  0  0  0  0  0  0
  -22.0180   -8.5680   20.5430 C   0  0  0  0  0  3  0  0  0  0  0  0
  -22.7070   -9.7840   20.3920 C   0  0  0  0  0  3  0  0  0  0  0  0
  -21.7120   -6.4550   21.5580 O   0  0  0  0  0  0  0  0  0  0  0  0
  -21.6130   -5.7270   22.7160 C   0  0  0  0  0  0  0  0  0  0  0  0
  -21.0520   -6.2690   23.8940 C   0  0  0  0  0  3  0  0  0  0  0  0
  -20.9060   -5.4630   25.0400 C   0  0  0  0  0  3  0  0  0  0  0  0
  -21.3140   -4.1150   25.0090 C   0  0  0  0  0  0  0  0  0  0  0  0
  -21.8650   -3.5720   23.8370 C   0  0  0  0  0  3  0  0  0  0  0  0
  -22.0110   -4.3750   22.6920 C   0  0  0  0  0  0  0  0  0  0  0  0
  -22.5250   -3.8410   21.5580 F   0  0  0  0  0  0  0  0  0  0  0  0
  -21.1700   -3.3370   26.1090 F   0  0  0  0  0  0  0  0  0  0  0  0
  -22.6270  -13.1320   21.4950 C   0  0  0  0  0  0  0  0  0  0  0  0
  -21.9510  -12.3840   22.3630 N   0  0  0  0  0  0  0  0  0  0  0  0
  -22.1420  -14.1620   21.0330 O   0  0  0  0  0  0  0  0  0  0  0  0
  -22.3630  -11.5550   22.7660 H   0  0  0  0  0  0  0  0  0  0  0  0
  -21.0120  -12.6470   22.6270 H   0  0  0  0  0  0  0  0  0  0  0  0
  -25.1920  -14.8940   20.6500 N   0  0  0  0  0  0  0  0  0  0  0  0
  -24.4230  -15.5350   20.8080 H   0  0  0  0  0  0  0  0  0  0  0  0
  -26.0220  -15.3540   20.2990 H   0  0  0  0  0  0  0  0  0  0  0  0
  -29.7730  -23.4810   23.6960 C   0  0  0  0  0  1  0  0  0  0  0  0
  -32.1430  -22.7600   23.2380 C   0  0  0  0  0  1  0  0  0  0  0  0
  -30.7040  -22.2540   23.4770 C   0  0  2  0  0  0  0  0  0  0  0  0
  -30.6490  -21.4020   24.7840 C   0  0  2  0  0  0  0  0  0  0  0  0
  -31.4940  -20.3720   24.7660 F   0  0  0  0  0  0  0  0  0  0  0  0
  -29.4160  -20.9350   24.9940 F   0  0  0  0  0  0  0  0  0  0  0  0
  -30.9830  -22.1480   25.8400 F   0  0  0  0  0  0  0  0  0  0  0  0
  -29.0450  -22.5250   18.9320 C   0  0  0  0  0  2  0  0  0  0  0  0
  -26.9350  -23.5590   17.8750 C   0  0  0  0  0  1  0  0  0  0  0  0
  -27.7240  -23.3680   19.1840 C   0  0  0  0  0  3  0  0  0  0  0  0
  -27.8360  -24.7160   20.0210 C   0  0  0  0  0  2  0  0  0  0  0  0
  -27.8640  -26.0230   19.3470 O   0  0  0  0  0  0  0  0  0  0  0  0
  -24.6640  -31.4260   22.8930 C   0  0  0  0  0  0  0  0  0  0  0  0
  -26.7640  -26.8750   19.4880 C   0  0  0  0  0  0  0  0  0  0  0  0
  -23.2500  -30.1680   21.2990 C   0  0  0  0  0  3  0  0  0  0  0  0
  -24.4900  -28.5810   19.7250 C   0  0  0  0  0  0  0  0  0  0  0  0
  -25.7770  -30.3530   20.9270 C   0  0  0  0  0  2  0  0  0  0  0  0
  -25.7270  -28.9950   20.2400 C   0  0  0  0  0  0  0  0  0  0  0  0
  -26.8650  -28.1520   20.1140 C   0  0  0  0  0  3  0  0  0  0  0  0
  -25.5070  -26.4940   18.9760 C   0  0  0  0  0  3  0  0  0  0  0  0
  -24.3800  -27.3330   19.0880 C   0  0  0  0  0  3  0  0  0  0  0  0
  -23.3160  -29.5200   19.8910 C   0  0  0  0  0  2  0  0  0  0  0  0
  -24.5870  -30.6630   21.7640 N   0  0  0  0  0  0  0  0  0  0  0  0
  -23.6460  -31.7460   23.5250 O   0  0  0  0  0  0  0  0  0  0  0  0
  -22.5940  -29.1660   22.2770 C   0  0  0  0  0  0  0  0  0  0  0  0
  -21.2560  -29.0560   22.2200 N   0  0  0  0  0  0  0  0  0  0  0  0
  -23.2860  -28.4890   23.0410 O   0  0  0  0  0  0  0  0  0  0  0  0
  -20.7570  -29.6490   21.5720 H   0  0  0  0  0  0  0  0  0  0  0  0
  -17.8640  -27.9920   22.8660 C   0  0  0  0  0  0  0  0  0  0  0  0
  -20.4400  -28.1400   23.0150 C   0  0  0  0  0  3  0  0  0  0  0  0
  -20.4560  -26.7180   22.4110 C   0  0  0  0  0  2  0  0  0  0  0  0
  -19.2930  -26.4610   21.4470 C   0  0  0  0  0  2  0  0  0  0  0  0
  -17.9500  -26.6510   22.1580 C   0  0  0  0  0  2  0  0  0  0  0  0
  -19.0330  -28.6980   23.2540 C   0  0  0  0  0  0  0  0  0  0  0  0
  -18.8970  -29.9570   23.8780 C   0  0  0  0  0  3  0  0  0  0  0  0
  -17.6240  -30.5080   24.1180 C   0  0  0  0  0  3  0  0  0  0  0  0
  -16.4700  -29.8000   23.7460 C   0  0  0  0  0  3  0  0  0  0  0  0
  -16.5910  -28.5440   23.1230 C   0  0  0  0  0  3  0  0  0  0  0  0
  -26.0300  -31.9500   23.4360 C   0  0  0  0  0  3  0  0  0  0  0  0
  -26.6610  -31.0090   24.5360 C   0  0  1  0  0  0  0  0  0  0  0  0
  -25.6910  -30.6570   25.6860 C   0  0  0  0  0  1  0  0  0  0  0  0
  -27.1440  -29.6810   23.9070 C   0  0  0  0  0  1  0  0  0  0  0  0
  -27.9060  -31.6890   25.1530 C   0  0  0  0  0  1  0  0  0  0  0  0
  -25.8140  -33.3010   23.9700 N   0  0  0  0  0  0  0  0  0  0  0  0
  -26.1150  -34.4330   23.3170 C   0  0  0  0  0  0  0  0  0  0  0  0
  -26.6720  -34.4430   22.2170 O   0  0  0  0  0  0  0  0  0  0  0  0
  -25.3170  -33.3700   24.8460 H   0  0  0  0  0  0  0  0  0  0  0  0
  -24.4400  -36.3050   23.3660 C   0  0  0  0  0  1  0  0  0  0  0  0
  -25.7340  -35.7630   23.9930 C   0  0  0  0  0  3  0  0  0  0  0  0
  -27.9690  -36.4750   24.7150 C   0  0  0  0  0  1  0  0  0  0  0  0
  -26.7940  -36.7920   23.9080 N   0  0  0  0  0  0  0  0  0  0  0  0
  -26.4410  -37.6990   24.2020 H   0  0  0  0  0  0  0  0  0  0  0  0
  1  3  1  0
  2  1  2  0
  3 51  1  0
  4  6  1  0
  5  4  2  0
  5  2  1  0
  6  3  2  0
  9  8  1  6
  9 10  1  0
  9  2  1  0
  9  7  1  0
 10 19  1  0
 11 19  1  0
 12 17  1  0
 13 14  1  0
 13 12  1  0
 15 14  1  0
 15 24  1  0
 15 16  1  0
 17 11  1  0
 17 16  1  0
 18 11  2  0
 19 20  1  0
 21 22  2  0
 22 41  1  0
 23 22  1  0
 23 26  1  0
 24 25  1  0
 24 21  1  0
 25 23  2  0
 26 27  1  0
 27 28  2  0
 29 32  1  0
 29 28  1  0
 30 29  2  0
 31 30  1  0
 31 26  2  0
 32 33  1  0
 33 34  1  0
 34 35  2  0
 36 35  1  0
 36 40  1  0
 37 36  2  0
 38 33  2  0
 38 37  1  0
 39 38  1  0
 41 42  1  0
 42 45  1  0
 42 44  1  0
 43 41  2  0
 46 21  1  0
 46 47  1  0
 48 46  1  0
 51 50  1  6
 51 49  1  0
 51 52  1  0
 52 54  1  1
 52 55  1  0
 53 52  1  0
 56 58  1  0
 56  4  1  0
 58 57  1  0
 58 59  1  0
 60 62  1  0
 60 59  1  0
 61 72  2  0
 62 67  1  0
 63 71  1  0
 63 73  1  0
 64 70  1  0
 64 66  1  0
 65 71  1  0
 66 65  1  0
 67 66  2  0
 68 69  1  0
 68 62  2  0
 69 64  2  0
 70 63  1  0
 71 61  1  0
 73 75  2  0
 74 73  1  0
 76 74  1  0
 77 86  2  0
 77 82  1  0
 78 74  1  0
 78 82  1  0
 79 78  1  0
 80 81  1  0
 80 79  1  0
 81 77  1  0
 82 83  2  0
 83 84  1  0
 85 84  2  0
 86 85  1  0
 87 61  1  0
 87 92  1  0
 87 88  1  0
 88 91  1  1
 88 89  1  0
 90 88  1  0
 92 95  1  0
 93 92  1  0
 93 97  1  0
 94 93  2  0
 97 96  1  0
 99 97  1  0
 99100  1  0
 99 98  1  0
M  ISO  4  11 100  19 100  59 101  60 101
M  END
>  <TORSDO>  (26) 
F 23

>  <SCORE>  (26) 
-9.361

>  <name>  (26) 
26

>  <ligand_id>  (26) 
26

>  <original_smiles>  (26) 
[H]c1c(C(C([H])([H])[H])(C([H])([H])[H])C(F)(F)F)nc(C([H])([H])C([H])(C([H])([H])[H])C([H])([H])Oc2c([H])c([H])c3c(c2[H])C([H])([H])N(C(=O)C([H])(N([H])C(=O)C([H])(N([H])C([H])([H])[H])C([H])([H])[H])C(C([H])([H])[H])(C([H])([H])[H])C([H])([H])[H])C([H])(C(=O)N([H])C2([H])c4c([H])c([H])c([H])c([H])c4C([H])([H])C([H])([H])C2([H])[H])C3([H])[H])nc1C(C([H])([H])[H])(C([H])([H])[H])C([H])([H])N([H])C(=O)N1C([H])([H])C([H])([H])C([H])([H])C([H])(n2nc(-c3c([H])c([H])c(Oc4c([H])c([H])c(F)c([H])c4F)c([H])c3[H])c(C(=O)N([H])[H])c2N([H])[H])C1([H])[H]

>  <smiles>  (26) 
[H]c1c(C(C([H])([H])[H])(C([H])([H])[H])C(F)(F)F)nc(C([H])([H])C([H])(C([H])([H])[H])C([H])([H])Oc2c([H])c([H])c3c(c2[H])C([H])([H])N(C(=O)C([H])(N([H])C(=O)C([H])(N([H])C([H])([H])[H])C([H])([H])[H])C(C([H])([H])[H])(C([H])([H])[H])C([H])([H])[H])C([H])(C(=O)N([H])C2([H])c4c([H])c([H])c([H])c([H])c4C([H])([H])C([H])([H])C2([H])[H])C3([H])[H])nc1C(C([H])([H])[H])(C([H])([H])[H])C([H])([H])N([H])C(=O)N1C([H])([H])C([H])([H])C([H])([H])C([H])(n2nc(-c3c([H])c([H])c(Oc4c([H])c([H])c(F)c([H])c4F)c([H])c3[H])c(C(=O)N([H])[H])c2N([H])[H])C1([H])[H]

$$$$
27:0:0
     RDKit          3D

 92100  0  0  1  0  0  0  0  0999 V2000
  -29.6630  -19.7690   19.2380 C   0  0  0  0  0  3  0  0  0  0  0  0
  -29.8900  -20.7670   20.2370 C   0  0  0  0  0  0  0  0  0  0  0  0
  -30.6520  -20.1970   21.2940 C   0  0  0  0  0  0  0  0  0  0  0  0
  -30.7360  -17.9730   20.3820 C   0  0  0  0  0  0  0  0  0  0  0  0
  -30.0360  -18.4370   19.3250 N   0  0  0  0  0  0  0  0  0  0  0  0
  -31.0540  -18.8860   21.3250 N   0  0  0  0  0  0  0  0  0  0  0  0
  -29.0960  -16.3370   21.1280 C   0  0  0  0  0  1  0  0  0  0  0  0
  -31.2930  -16.3550   22.3240 C   0  0  0  0  0  1  0  0  0  0  0  0
  -30.6260  -16.4200   20.9220 C   0  0  2  0  0  0  0  0  0  0  0  0
  -31.2810  -15.0700   20.1930 C   0  0  0  0  0  0  0  0  0  0  0  0
  -31.0980  -12.7850   19.0870 C   0  0  0  0  0  2  0  0  0  0  0  0
  -30.1200  -12.8250   17.8870 C   0  0  0  0  0  2  0  0  0  0  0  0
  -28.6520  -12.6520   18.3360 C   0  0  0  0  0  2  0  0  0  0  0  0
  -28.3160  -13.5240   19.5700 C   0  0  0  0  0  3  0  0  0  0  0  0
  -29.4040  -13.3450   20.6600 C   0  0  0  0  0  2  0  0  0  0  0  0
  -30.6720  -13.8140   20.0770 N   0  0  0  0  0  0  0  0  0  0  0  0
  -32.4270  -15.1520   19.7270 O   0  0  0  0  0  0  0  0  0  0  0  0
  -25.9370  -14.1950   20.2820 C   0  0  0  0  0  0  0  0  0  0  0  0
  -24.8570  -13.4540   20.6770 C   0  0  0  0  0  0  0  0  0  0  0  0
  -25.2910  -12.0940   20.6660 C   0  0  0  0  0  0  0  0  0  0  0  0
  -26.9650  -13.2870   20.0690 N   0  0  0  0  0  0  0  0  0  0  0  0
  -26.5800  -12.0190   20.3560 N   0  0  0  0  0  0  0  0  0  0  0  0
  -24.5360  -10.8550   20.8750 C   0  0  0  0  0  0  0  0  0  0  0  0
  -24.9310   -9.9050   21.8430 C   0  0  0  0  0  3  0  0  0  0  0  0
  -24.1750   -8.7300   22.0380 C   0  0  0  0  0  3  0  0  0  0  0  0
  -23.0110   -8.4960   21.2660 C   0  0  0  0  0  0  0  0  0  0  0  0
  -22.6370   -9.4340   20.2890 C   0  0  0  0  0  3  0  0  0  0  0  0
  -23.3930  -10.6020   20.0910 C   0  0  0  0  0  3  0  0  0  0  0  0
  -22.2320   -7.3700   21.3700 O   0  0  0  0  0  0  0  0  0  0  0  0
  -22.0830   -6.7060   22.5600 C   0  0  0  0  0  0  0  0  0  0  0  0
  -21.5950   -7.3510   23.7190 C   0  0  0  0  0  3  0  0  0  0  0  0
  -21.3910   -6.6130   24.9020 C   0  0  0  0  0  3  0  0  0  0  0  0
  -21.6660   -5.2330   24.9270 C   0  0  0  0  0  0  0  0  0  0  0  0
  -22.1470   -4.5890   23.7740 C   0  0  0  0  0  3  0  0  0  0  0  0
  -22.3510   -5.3230   22.5930 C   0  0  0  0  0  0  0  0  0  0  0  0
  -22.7940   -4.6940   21.4780 F   0  0  0  0  0  0  0  0  0  0  0  0
  -21.4640   -4.5220   26.0610 F   0  0  0  0  0  0  0  0  0  0  0  0
  -23.4750  -13.9720   20.9490 C   0  0  0  0  0  0  0  0  0  0  0  0
  -22.7460  -13.3240   21.8510 N   0  0  0  0  0  0  0  0  0  0  0  0
  -23.0490  -14.9870   20.3980 O   0  0  0  0  0  0  0  0  0  0  0  0
  -23.1020  -12.5030   22.3170 H   0  0  0  0  0  0  0  0  0  0  0  0
  -21.8180  -13.6540   22.0770 H   0  0  0  0  0  0  0  0  0  0  0  0
  -26.1090  -15.5560   20.0660 N   0  0  0  0  0  0  0  0  0  0  0  0
  -25.3490  -16.2180   20.1690 H   0  0  0  0  0  0  0  0  0  0  0  0
  -26.9650  -15.9820   19.7350 H   0  0  0  0  0  0  0  0  0  0  0  0
  -29.9760  -20.5260   23.7100 C   0  0  0  0  0  1  0  0  0  0  0  0
  -30.9360  -20.9420   22.5870 C   0  0  0  0  0  2  0  0  0  0  0  0
  -29.0790  -22.1840   20.3050 C   0  0  0  0  0  2  0  0  0  0  0  0
  -30.7400  -24.0590   21.1230 C   0  0  0  0  0  1  0  0  0  0  0  0
  -29.6130  -23.7400   20.1350 C   0  0  0  0  0  3  0  0  0  0  0  0
  -28.4890  -24.9540   20.1630 C   0  0  0  0  0  2  0  0  0  0  0  0
  -28.7470  -26.4610   20.2050 O   0  0  0  0  0  0  0  0  0  0  0  0
  -24.9080  -31.8490   23.3400 C   0  0  0  0  0  0  0  0  0  0  0  0
  -27.6470  -27.3740   20.1650 C   0  0  0  0  0  0  0  0  0  0  0  0
  -23.7740  -30.5260   21.5970 C   0  0  0  0  0  3  0  0  0  0  0  0
  -25.2830  -29.0440   20.1490 C   0  0  0  0  0  0  0  0  0  0  0  0
  -26.3240  -30.8400   21.5240 C   0  0  0  0  0  2  0  0  0  0  0  0
  -26.4350  -29.4880   20.8100 C   0  0  0  0  0  0  0  0  0  0  0  0
  -27.6190  -28.6710   20.8020 C   0  0  0  0  0  3  0  0  0  0  0  0
  -26.4640  -27.0130   19.4790 C   0  0  0  0  0  3  0  0  0  0  0  0
  -25.3060  -27.8160   19.4730 C   0  0  0  0  0  3  0  0  0  0  0  0
  -24.0440  -29.9190   20.1960 C   0  0  0  0  0  2  0  0  0  0  0  0
  -25.0190  -31.0890   22.2110 N   0  0  0  0  0  0  0  0  0  0  0  0
  -23.8040  -32.1000   23.8460 O   0  0  0  0  0  0  0  0  0  0  0  0
  -23.0760  -29.4660   22.4850 C   0  0  0  0  0  0  0  0  0  0  0  0
  -21.7490  -29.3110   22.3220 N   0  0  0  0  0  0  0  0  0  0  0  0
  -23.7300  -28.7880   23.2810 O   0  0  0  0  0  0  0  0  0  0  0  0
  -21.2800  -29.9130   21.6590 H   0  0  0  0  0  0  0  0  0  0  0  0
  -18.3460  -28.1390   22.7150 C   0  0  0  0  0  0  0  0  0  0  0  0
  -20.9070  -28.3380   23.0210 C   0  0  0  0  0  3  0  0  0  0  0  0
  -20.9910  -26.9460   22.3540 C   0  0  0  0  0  2  0  0  0  0  0  0
  -19.8940  -26.7100   21.3110 C   0  0  0  0  0  2  0  0  0  0  0  0
  -18.5090  -26.8350   21.9520 C   0  0  0  0  0  2  0  0  0  0  0  0
  -19.4730  -28.8520   23.2030 C   0  0  0  0  0  0  0  0  0  0  0  0
  -19.2680  -30.0750   23.8790 C   0  0  0  0  0  3  0  0  0  0  0  0
  -17.9700  -30.5840   24.0680 C   0  0  0  0  0  3  0  0  0  0  0  0
  -16.8580  -29.8660   23.5960 C   0  0  0  0  0  3  0  0  0  0  0  0
  -17.0470  -28.6450   22.9250 C   0  0  0  0  0  3  0  0  0  0  0  0
  -26.1620  -32.4600   24.0380 C   0  0  0  0  0  3  0  0  0  0  0  0
  -25.8420  -33.8510   24.3940 N   0  0  0  0  0  0  0  0  0  0  0  0
  -26.1880  -34.9230   23.6690 C   0  0  0  0  0  0  0  0  0  0  0  0
  -26.8780  -34.8440   22.6490 O   0  0  0  0  0  0  0  0  0  0  0  0
  -25.2320  -33.9850   25.1860 H   0  0  0  0  0  0  0  0  0  0  0  0
  -24.4490  -36.7130   23.3470 C   0  0  0  0  0  1  0  0  0  0  0  0
  -25.6930  -36.3010   24.1510 C   0  0  0  0  0  3  0  0  0  0  0  0
  -27.8200  -37.1870   25.0000 C   0  0  0  0  0  1  0  0  0  0  0  0
  -26.7190  -37.3620   24.0570 N   0  0  0  0  0  0  0  0  0  0  0  0
  -26.3060  -38.2770   24.2160 H   0  0  0  0  0  0  0  0  0  0  0  0
  -26.6120  -31.6540   25.3180 C   0  0  1  0  0  0  0  0  0  0  0  0
  -25.4700  -31.4000   26.3300 C   0  0  0  0  0  1  0  0  0  0  0  0
  -27.2030  -30.2800   24.9220 C   0  0  0  0  0  1  0  0  0  0  0  0
  -27.7380  -32.4210   26.0510 C   0  0  0  0  0  1  0  0  0  0  0  0
  1  5  1  0
  1  2  2  0
  2 48  1  0
  2  3  1  0
  3  6  2  0
  3 47  1  0
  4  9  1  0
  4  6  1  0
  5  4  2  0
  9  7  1  1
  9  8  1  0
 10  9  1  0
 11 16  1  0
 12 13  1  0
 12 11  1  0
 14 13  1  0
 14 21  1  0
 14 15  1  0
 16 10  1  0
 16 15  1  0
 17 10  2  0
 18 19  2  0
 19 38  1  0
 20 19  1  0
 20 23  1  0
 21 18  1  0
 21 22  1  0
 22 20  2  0
 23 24  1  0
 24 25  2  0
 26 29  1  0
 26 25  1  0
 27 26  2  0
 28 27  1  0
 28 23  2  0
 29 30  1  0
 30 35  2  0
 30 31  1  0
 31 32  2  0
 32 33  1  0
 33 37  1  0
 34 33  2  0
 35 34  1  0
 36 35  1  0
 38 39  1  0
 39 42  1  0
 39 41  1  0
 40 38  2  0
 43 44  1  0
 43 18  1  0
 45 43  1  0
 47 46  1  0
 50 51  1  0
 50 48  1  0
 50 49  1  0
 51 52  1  0
 53 64  2  0
 54 52  1  0
 54 59  1  0
 55 63  1  0
 55 65  1  0
 56 62  1  0
 56 58  1  0
 57 63  1  0
 58 57  1  0
 59 58  2  0
 60 54  2  0
 61 60  1  0
 61 56  2  0
 62 55  1  0
 63 53  1  0
 65 67  2  0
 66 65  1  0
 68 66  1  0
 69 78  2  0
 69 74  1  0
 70 66  1  0
 70 74  1  0
 71 70  1  0
 72 73  1  0
 72 71  1  0
 73 69  1  0
 74 75  2  0
 75 76  1  0
 77 76  2  0
 78 77  1  0
 79 53  1  0
 79 80  1  0
 79 89  1  0
 80 83  1  0
 81 85  1  0
 81 80  1  0
 82 81  2  0
 85 84  1  0
 87 85  1  0
 87 88  1  0
 87 86  1  0
 89 92  1  1
 89 90  1  0
 91 89  1  0
M  ISO  4   9 100  10 100  51 101  52 101
M  END
>  <TORSDO>  (27) 
F 21

>  <SCORE>  (27) 
-11.935

>  <name>  (27) 
27

>  <ligand_id>  (27) 
27

>  <original_smiles>  (27) 
[H]c1nc(C(C(=O)N2C([H])([H])C([H])([H])C([H])([H])C([H])(n3nc(-c4c([H])c([H])c(Oc5c([H])c([H])c(F)c([H])c5F)c([H])c4[H])c(C(=O)N([H])[H])c3N([H])[H])C2([H])[H])(C([H])([H])[H])C([H])([H])[H])nc(C([H])([H])C([H])([H])[H])c1C([H])([H])C([H])(C([H])([H])[H])C([H])([H])Oc1c([H])c([H])c2c(c1[H])C([H])([H])N(C(=O)C([H])(N([H])C(=O)C([H])(N([H])C([H])([H])[H])C([H])([H])[H])C(C([H])([H])[H])(C([H])([H])[H])C([H])([H])[H])C([H])(C(=O)N([H])C1([H])c3c([H])c([H])c([H])c([H])c3C([H])([H])C([H])([H])C1([H])[H])C2([H])[H]

>  <smiles>  (27) 
[H]c1nc(C(C(=O)N2C([H])([H])C([H])([H])C([H])([H])C([H])(n3nc(-c4c([H])c([H])c(Oc5c([H])c([H])c(F)c([H])c5F)c([H])c4[H])c(C(=O)N([H])[H])c3N([H])[H])C2([H])[H])(C([H])([H])[H])C([H])([H])[H])nc(C([H])([H])C([H])([H])[H])c1C([H])([H])C([H])(C([H])([H])[H])C([H])([H])Oc1c([H])c([H])c2c(c1[H])C([H])([H])N(C(=O)C([H])(N([H])C(=O)C([H])(N([H])C([H])([H])[H])C([H])([H])[H])C(C([H])([H])[H])(C([H])([H])[H])C([H])([H])[H])C([H])(C(=O)N([H])C1([H])c3c([H])c([H])c([H])c([H])c3C([H])([H])C([H])([H])C1([H])[H])C2([H])[H]

$$$$
28:0:0
     RDKit          3D

 90 98  0  0  1  0  0  0  0  0999 V2000
  -29.0080  -22.5760   20.5900 C   0  0  0  0  0  3  0  0  0  0  0  0
  -29.8040  -21.5010   19.7480 C   0  0  0  0  0  3  0  0  0  0  0  0
  -29.0790  -17.8000   19.7760 C   0  0  0  0  0  3  0  0  0  0  0  0
  -30.7320  -19.4600   21.1130 C   0  0  0  0  0  3  0  0  0  0  0  0
  -29.9970  -17.2650   20.7220 C   0  0  0  0  0  0  0  0  0  0  0  0
  -29.8070  -19.9940   20.1720 C   0  0  0  0  0  0  0  0  0  0  0  0
  -30.8190  -18.1240   21.3940 N   0  0  0  0  0  0  0  0  0  0  0  0
  -28.9800  -19.1390   19.5060 N   0  0  0  0  0  0  0  0  0  0  0  0
  -29.9020  -15.7860   21.2240 C   0  0  0  0  0  2  0  0  0  0  0  0
  -30.6030  -14.6060   20.4450 C   0  0  0  0  0  0  0  0  0  0  0  0
  -30.3800  -12.4100   19.2780 C   0  0  0  0  0  2  0  0  0  0  0  0
  -29.4190  -12.5690   18.0790 C   0  0  0  0  0  2  0  0  0  0  0  0
  -27.9490  -12.4090   18.5180 C   0  0  0  0  0  2  0  0  0  0  0  0
  -27.6120  -13.2450   19.7810 C   0  0  0  0  0  3  0  0  0  0  0  0
  -28.6770  -13.0230   20.8780 C   0  0  0  0  0  2  0  0  0  0  0  0
  -29.9820  -13.3900   20.3070 N   0  0  0  0  0  0  0  0  0  0  0  0
  -31.7110  -14.8020   19.9330 O   0  0  0  0  0  0  0  0  0  0  0  0
  -25.2150  -13.8540   20.4890 C   0  0  0  0  0  0  0  0  0  0  0  0
  -24.1470  -13.0830   20.8640 C   0  0  0  0  0  0  0  0  0  0  0  0
  -24.6100  -11.7320   20.8410 C   0  0  0  0  0  0  0  0  0  0  0  0
  -26.2600  -12.9710   20.2630 N   0  0  0  0  0  0  0  0  0  0  0  0
  -25.9000  -11.6910   20.5330 N   0  0  0  0  0  0  0  0  0  0  0  0
  -23.8850  -10.4710   21.0410 C   0  0  0  0  0  0  0  0  0  0  0  0
  -24.3300   -9.5000   21.9640 C   0  0  0  0  0  3  0  0  0  0  0  0
  -23.6060   -8.3040   22.1510 C   0  0  0  0  0  3  0  0  0  0  0  0
  -22.4220   -8.0690   21.4140 C   0  0  0  0  0  0  0  0  0  0  0  0
  -21.9950   -9.0270   20.4780 C   0  0  0  0  0  3  0  0  0  0  0  0
  -22.7190  -10.2150   20.2890 C   0  0  0  0  0  3  0  0  0  0  0  0
  -21.6670   -6.9240   21.5110 O   0  0  0  0  0  0  0  0  0  0  0  0
  -21.6500   -6.1690   22.6560 C   0  0  0  0  0  0  0  0  0  0  0  0
  -21.2720   -6.7130   23.9030 C   0  0  0  0  0  3  0  0  0  0  0  0
  -21.2010   -5.8840   25.0410 C   0  0  0  0  0  3  0  0  0  0  0  0
  -21.4990   -4.5130   24.9330 C   0  0  0  0  0  0  0  0  0  0  0  0
  -21.8710   -3.9680   23.6910 C   0  0  0  0  0  3  0  0  0  0  0  0
  -21.9430   -4.7940   22.5560 C   0  0  0  0  0  0  0  0  0  0  0  0
  -22.2820   -4.2590   21.3570 F   0  0  0  0  0  0  0  0  0  0  0  0
  -21.4230   -3.7150   26.0240 F   0  0  0  0  0  0  0  0  0  0  0  0
  -22.7510  -13.5610   21.1350 C   0  0  0  0  0  0  0  0  0  0  0  0
  -22.0240  -12.8710   22.0060 N   0  0  0  0  0  0  0  0  0  0  0  0
  -22.3100  -14.5830   20.6080 O   0  0  0  0  0  0  0  0  0  0  0  0
  -22.3920  -12.0440   22.4540 H   0  0  0  0  0  0  0  0  0  0  0  0
  -21.0880  -13.1740   22.2320 H   0  0  0  0  0  0  0  0  0  0  0  0
  -25.3780  -15.2230   20.3000 N   0  0  0  0  0  0  0  0  0  0  0  0
  -24.6070  -15.8750   20.3970 H   0  0  0  0  0  0  0  0  0  0  0  0
  -26.2210  -15.6590   19.9490 H   0  0  0  0  0  0  0  0  0  0  0  0
  -28.9660  -24.0570   19.9940 C   0  0  0  0  0  2  0  0  0  0  0  0
  -29.3450  -25.5360   22.0450 C   0  0  0  0  0  1  0  0  0  0  0  0
  -27.0220  -24.8180   21.4730 C   0  0  0  0  0  1  0  0  0  0  0  0
  -28.3860  -25.2470   20.8770 C   0  0  2  0  0  0  0  0  0  0  0  0
  -28.3660  -26.5430   20.1570 O   0  0  0  0  0  0  0  0  0  0  0  0
  -24.6120  -31.8770   23.2330 C   0  0  0  0  0  0  0  0  0  0  0  0
  -27.2350  -27.3630   20.1660 C   0  0  0  0  0  0  0  0  0  0  0  0
  -23.4100  -30.4810   21.5870 C   0  0  0  0  0  3  0  0  0  0  0  0
  -24.8640  -28.9410   20.1570 C   0  0  0  0  0  0  0  0  0  0  0  0
  -25.9450  -30.8130   21.4060 C   0  0  0  0  0  2  0  0  0  0  0  0
  -26.0280  -29.4380   20.7590 C   0  0  0  0  0  0  0  0  0  0  0  0
  -27.2180  -28.6580   20.7590 C   0  0  0  0  0  3  0  0  0  0  0  0
  -26.0640  -26.9190   19.5200 C   0  0  0  0  0  3  0  0  0  0  0  0
  -24.8800  -27.6840   19.5310 C   0  0  0  0  0  3  0  0  0  0  0  0
  -23.6250  -29.8100   20.2040 C   0  0  0  0  0  2  0  0  0  0  0  0
  -24.6740  -31.0750   22.1320 N   0  0  0  0  0  0  0  0  0  0  0  0
  -23.5280  -32.1520   23.7700 O   0  0  0  0  0  0  0  0  0  0  0  0
  -22.7500  -29.4600   22.5420 C   0  0  0  0  0  0  0  0  0  0  0  0
  -21.4250  -29.2830   22.4130 N   0  0  0  0  0  0  0  0  0  0  0  0
  -23.4280  -28.8300   23.3600 O   0  0  0  0  0  0  0  0  0  0  0  0
  -20.9380  -29.8400   21.7250 H   0  0  0  0  0  0  0  0  0  0  0  0
  -18.0470  -28.0850   22.8990 C   0  0  0  0  0  0  0  0  0  0  0  0
  -20.6030  -28.3440   23.1800 C   0  0  0  0  0  3  0  0  0  0  0  0
  -20.7090  -26.9140   22.6020 C   0  0  0  0  0  2  0  0  0  0  0  0
  -19.6100  -26.5930   21.5840 C   0  0  0  0  0  2  0  0  0  0  0  0
  -18.2260  -26.7370   22.2220 C   0  0  0  0  0  2  0  0  0  0  0  0
  -19.1640  -28.8470   23.3340 C   0  0  0  0  0  0  0  0  0  0  0  0
  -18.9420  -30.1100   23.9260 C   0  0  0  0  0  3  0  0  0  0  0  0
  -17.6370  -30.6110   24.0870 C   0  0  0  0  0  3  0  0  0  0  0  0
  -16.5340  -29.8460   23.6690 C   0  0  0  0  0  3  0  0  0  0  0  0
  -16.7400  -28.5860   23.0800 C   0  0  0  0  0  3  0  0  0  0  0  0
  -25.8960  -32.5050   23.8580 C   0  0  0  0  0  3  0  0  0  0  0  0
  -25.5890  -33.9050   24.1870 N   0  0  0  0  0  0  0  0  0  0  0  0
  -25.9250  -34.9560   23.4290 C   0  0  0  0  0  0  0  0  0  0  0  0
  -26.5970  -34.8520   22.4000 O   0  0  0  0  0  0  0  0  0  0  0  0
  -24.9940  -34.0600   24.9870 H   0  0  0  0  0  0  0  0  0  0  0  0
  -24.2000  -36.7510   23.0710 C   0  0  0  0  0  1  0  0  0  0  0  0
  -25.4400  -36.3460   23.8840 C   0  0  0  0  0  3  0  0  0  0  0  0
  -27.5770  -37.2270   24.7170 C   0  0  0  0  0  1  0  0  0  0  0  0
  -26.4750  -37.3960   23.7730 N   0  0  0  0  0  0  0  0  0  0  0  0
  -26.0700  -38.3170   23.9200 H   0  0  0  0  0  0  0  0  0  0  0  0
  -26.4080  -31.7330   25.1350 C   0  0  1  0  0  0  0  0  0  0  0  0
  -25.3120  -31.4990   26.2010 C   0  0  0  0  0  1  0  0  0  0  0  0
  -26.9880  -30.3530   24.7450 C   0  0  0  0  0  1  0  0  0  0  0  0
  -27.5610  -32.5240   25.7990 C   0  0  0  0  0  1  0  0  0  0  0  0
  2  6  1  0
  2  1  2  0
  3  5  1  0
  4  7  1  0
  5  9  1  0
  5  7  2  0
  6  4  2  0
  8  3  2  0
  8  6  1  0
 10  9  1  0
 11 16  1  0
 12 13  1  0
 12 11  1  0
 14 13  1  0
 14 21  1  0
 14 15  1  0
 16 10  1  0
 16 15  1  0
 17 10  2  0
 18 19  2  0
 19 38  1  0
 20 19  1  0
 20 23  1  0
 21 18  1  0
 21 22  1  0
 22 20  2  0
 23 24  1  0
 24 25  2  0
 26 29  1  0
 26 25  1  0
 27 26  2  0
 28 27  1  0
 28 23  2  0
 29 30  1  0
 30 31  1  0
 31 32  2  0
 33 32  1  0
 33 37  1  0
 34 33  2  0
 35 30  2  0
 35 34  1  0
 36 35  1  0
 38 39  1  0
 39 42  1  0
 39 41  1  0
 40 38  2  0
 43 44  1  0
 43 18  1  0
 45 43  1  0
 46  1  1  0
 46 49  1  0
 49 48  1  1
 49 47  1  0
 50 52  1  0
 50 49  1  0
 51 62  2  0
 52 57  1  0
 53 61  1  0
 53 63  1  0
 54 60  1  0
 54 56  1  0
 55 61  1  0
 56 57  2  0
 56 55  1  0
 58 59  1  0
 58 52  2  0
 59 54  2  0
 60 53  1  0
 61 51  1  0
 63 65  2  0
 64 63  1  0
 66 64  1  0
 67 76  2  0
 67 72  1  0
 68 64  1  0
 68 72  1  0
 69 68  1  0
 70 71  1  0
 70 69  1  0
 71 67  1  0
 72 73  2  0
 73 74  1  0
 75 74  2  0
 76 75  1  0
 77 51  1  0
 77 78  1  0
 77 87  1  0
 78 81  1  0
 79 83  1  0
 79 78  1  0
 80 79  2  0
 83 82  1  0
 85 83  1  0
 85 86  1  0
 85 84  1  0
 87 90  1  1
 87 88  1  0
 89 87  1  0
M  ISO  4   9 100  10 100  49 101  50 101
M  END
>  <TORSDO>  (28) 
F 21

>  <SCORE>  (28) 
-13.667

>  <name>  (28) 
28

>  <ligand_id>  (28) 
28

>  <original_smiles>  (28) 
[H]c1nc(C([H])([H])C([H])([H])C([H])([H])C(Oc2c([H])c([H])c3c(c2[H])C([H])([H])N(C(=O)C([H])(N([H])C(=O)C([H])(N([H])C([H])([H])[H])C([H])([H])[H])C(C([H])([H])[H])(C([H])([H])[H])C([H])([H])[H])C([H])(C(=O)N([H])C2([H])c4c([H])c([H])c([H])c([H])c4C([H])([H])C([H])([H])C2([H])[H])C3([H])[H])(C([H])([H])[H])C([H])([H])[H])c([H])nc1C([H])([H])C(=O)N1C([H])([H])C([H])([H])C([H])([H])C([H])(n2nc(-c3c([H])c([H])c(Oc4c([H])c([H])c(F)c([H])c4F)c([H])c3[H])c(C(=O)N([H])[H])c2N([H])[H])C1([H])[H]

>  <smiles>  (28) 
[H]c1nc(C([H])([H])C([H])([H])C([H])([H])C(Oc2c([H])c([H])c3c(c2[H])C([H])([H])N(C(=O)C([H])(N([H])C(=O)C([H])(N([H])C([H])([H])[H])C([H])([H])[H])C(C([H])([H])[H])(C([H])([H])[H])C([H])([H])[H])C([H])(C(=O)N([H])C2([H])c4c([H])c([H])c([H])c([H])c4C([H])([H])C([H])([H])C2([H])[H])C3([H])[H])(C([H])([H])[H])C([H])([H])[H])c([H])nc1C([H])([H])C(=O)N1C([H])([H])C([H])([H])C([H])([H])C([H])(n2nc(-c3c([H])c([H])c(Oc4c([H])c([H])c(F)c([H])c4F)c([H])c3[H])c(C(=O)N([H])[H])c2N([H])[H])C1([H])[H]

$$$$
29:0:0
     RDKit          3D

 92100  0  0  1  0  0  0  0  0999 V2000
  -32.2660  -20.4650   21.7040 C   0  0  0  0  0  3  0  0  0  0  0  0
  -30.7940  -20.3560   20.0930 C   0  0  0  0  0  3  0  0  0  0  0  0
  -31.4680  -21.2790   20.8480 C   0  0  0  0  0  0  0  0  0  0  0  0
  -32.0600  -19.1730   21.5170 N   0  0  0  0  0  0  0  0  0  0  0  0
  -31.0830  -19.0930   20.5810 N   0  0  0  0  0  0  0  0  0  0  0  0
  -29.0000  -17.9670   19.9520 C   0  0  0  0  0  1  0  0  0  0  0  0
  -31.1450  -17.3530   18.8390 C   0  0  0  0  0  1  0  0  0  0  0  0
  -30.5150  -17.7910   20.1760 C   0  0  1  0  0  0  0  0  0  0  0  0
  -30.7440  -16.7290   21.3050 C   0  0  0  0  0  2  0  0  0  0  0  0
  -30.7450  -14.3830   20.5020 C   0  0  0  0  0  0  0  0  0  0  0  0
  -30.3510  -12.2570   19.3390 C   0  0  0  0  0  2  0  0  0  0  0  0
  -29.4330  -12.5310   18.1360 C   0  0  0  0  0  2  0  0  0  0  0  0
  -27.9520  -12.4420   18.5550 C   0  0  0  0  0  2  0  0  0  0  0  0
  -27.6310  -13.2570   19.8380 C   0  0  0  0  0  3  0  0  0  0  0  0
  -28.6800  -12.9960   20.9400 C   0  0  0  0  0  2  0  0  0  0  0  0
  -30.0150  -13.2470   20.3710 N   0  0  0  0  0  0  0  0  0  0  0  0
  -31.8720  -14.5220   20.0180 O   0  0  0  0  0  0  0  0  0  0  0  0
  -30.1310  -15.4120   21.0880 N   0  0  0  0  0  0  0  0  0  0  0  0
  -29.2050  -15.2460   21.4560 H   0  0  0  0  0  0  0  0  0  0  0  0
  -25.2220  -13.8880   20.5070 C   0  0  0  0  0  0  0  0  0  0  0  0
  -24.1420  -13.1300   20.8710 C   0  0  0  0  0  0  0  0  0  0  0  0
  -24.5920  -11.7740   20.8590 C   0  0  0  0  0  0  0  0  0  0  0  0
  -26.2670  -12.9980   20.3030 N   0  0  0  0  0  0  0  0  0  0  0  0
  -25.8860  -11.7210   20.5650 N   0  0  0  0  0  0  0  0  0  0  0  0
  -23.8550  -10.5180   21.0550 C   0  0  0  0  0  0  0  0  0  0  0  0
  -24.2890   -9.5440   21.9830 C   0  0  0  0  0  3  0  0  0  0  0  0
  -23.5560   -8.3520   22.1690 C   0  0  0  0  0  3  0  0  0  0  0  0
  -22.3710   -8.1250   21.4270 C   0  0  0  0  0  0  0  0  0  0  0  0
  -21.9560   -9.0870   20.4880 C   0  0  0  0  0  3  0  0  0  0  0  0
  -22.6920  -10.2710   20.3010 C   0  0  0  0  0  3  0  0  0  0  0  0
  -21.6110   -6.9830   21.5160 O   0  0  0  0  0  0  0  0  0  0  0  0
  -21.5800   -6.2250   22.6580 C   0  0  0  0  0  0  0  0  0  0  0  0
  -21.2060   -6.7710   23.9070 C   0  0  0  0  0  3  0  0  0  0  0  0
  -21.1260   -5.9410   25.0410 C   0  0  0  0  0  3  0  0  0  0  0  0
  -21.4040   -4.5660   24.9330 C   0  0  0  0  0  0  0  0  0  0  0  0
  -21.7660   -4.0190   23.6900 C   0  0  0  0  0  3  0  0  0  0  0  0
  -21.8530   -4.8440   22.5560 C   0  0  0  0  0  0  0  0  0  0  0  0
  -22.1840   -4.3090   21.3570 F   0  0  0  0  0  0  0  0  0  0  0  0
  -21.3180   -3.7680   26.0220 F   0  0  0  0  0  0  0  0  0  0  0  0
  -22.7460  -13.6180   21.1240 C   0  0  0  0  0  0  0  0  0  0  0  0
  -22.0040  -12.9360   21.9900 N   0  0  0  0  0  0  0  0  0  0  0  0
  -22.3200  -14.6410   20.5880 O   0  0  0  0  0  0  0  0  0  0  0  0
  -22.3650  -12.1150   22.4550 H   0  0  0  0  0  0  0  0  0  0  0  0
  -21.0640  -13.2430   22.1930 H   0  0  0  0  0  0  0  0  0  0  0  0
  -25.4050  -15.2540   20.3150 N   0  0  0  0  0  0  0  0  0  0  0  0
  -24.6540  -15.9280   20.4120 H   0  0  0  0  0  0  0  0  0  0  0  0
  -26.2640  -15.6680   19.9810 H   0  0  0  0  0  0  0  0  0  0  0  0
  -31.4050  -22.7930   20.8010 C   0  0  0  0  0  2  0  0  0  0  0  0
  -30.0190  -23.3300   20.3620 C   0  0  0  0  0  2  0  0  0  0  0  0
  -29.8990  -24.8720   20.3530 C   0  0  0  0  0  2  0  0  0  0  0  0
  -28.5320  -25.4160   19.8590 C   0  0  0  0  0  2  0  0  0  0  0  0
  -28.4400  -26.8040   20.1950 O   0  0  0  0  0  0  0  0  0  0  0  0
  -24.5680  -31.9120   23.2450 C   0  0  0  0  0  0  0  0  0  0  0  0
  -27.2220  -27.4610   20.1800 C   0  0  0  0  0  0  0  0  0  0  0  0
  -23.3530  -30.5070   21.6060 C   0  0  0  0  0  3  0  0  0  0  0  0
  -24.8060  -28.9500   20.1940 C   0  0  0  0  0  0  0  0  0  0  0  0
  -25.8760  -30.8620   21.4040 C   0  0  0  0  0  2  0  0  0  0  0  0
  -25.9620  -29.4860   20.7740 C   0  0  0  0  0  0  0  0  0  0  0  0
  -27.1650  -28.7480   20.7640 C   0  0  0  0  0  3  0  0  0  0  0  0
  -26.0460  -26.9290   19.6010 C   0  0  0  0  0  3  0  0  0  0  0  0
  -24.8410  -27.6700   19.6100 C   0  0  0  0  0  3  0  0  0  0  0  0
  -23.5600  -29.8100   20.2340 C   0  0  0  0  0  2  0  0  0  0  0  0
  -24.6160  -31.1090   22.1440 N   0  0  0  0  0  0  0  0  0  0  0  0
  -23.4890  -32.1920   23.7870 O   0  0  0  0  0  0  0  0  0  0  0  0
  -22.6950  -29.5000   22.5750 C   0  0  0  0  0  0  0  0  0  0  0  0
  -21.3680  -29.3260   22.4520 N   0  0  0  0  0  0  0  0  0  0  0  0
  -23.3750  -28.8740   23.3920 O   0  0  0  0  0  0  0  0  0  0  0  0
  -20.8770  -29.8820   21.7660 H   0  0  0  0  0  0  0  0  0  0  0  0
  -17.9920  -28.1480   22.9540 C   0  0  0  0  0  0  0  0  0  0  0  0
  -20.5500  -28.3960   23.2280 C   0  0  0  0  0  3  0  0  0  0  0  0
  -20.6470  -26.9600   22.6610 C   0  0  0  0  0  2  0  0  0  0  0  0
  -19.5480  -26.6360   21.6470 C   0  0  0  0  0  2  0  0  0  0  0  0
  -18.1650  -26.7920   22.2870 C   0  0  0  0  0  2  0  0  0  0  0  0
  -19.1130  -28.9070   23.3830 C   0  0  0  0  0  0  0  0  0  0  0  0
  -18.8990  -30.1760   23.9640 C   0  0  0  0  0  3  0  0  0  0  0  0
  -17.5960  -30.6850   24.1220 C   0  0  0  0  0  3  0  0  0  0  0  0
  -16.4890  -29.9230   23.7110 C   0  0  0  0  0  3  0  0  0  0  0  0
  -16.6880  -28.6560   23.1330 C   0  0  0  0  0  3  0  0  0  0  0  0
  -25.8580  -32.5410   23.8620 C   0  0  0  0  0  3  0  0  0  0  0  0
  -25.5540  -33.9380   24.1970 N   0  0  0  0  0  0  0  0  0  0  0  0
  -25.8830  -34.9910   23.4370 C   0  0  0  0  0  0  0  0  0  0  0  0
  -26.5430  -34.8900   22.4000 O   0  0  0  0  0  0  0  0  0  0  0  0
  -24.9640  -34.0920   25.0020 H   0  0  0  0  0  0  0  0  0  0  0  0
  -24.1500  -36.7830   23.1080 C   0  0  0  0  0  1  0  0  0  0  0  0
  -25.4020  -36.3790   23.9010 C   0  0  0  0  0  3  0  0  0  0  0  0
  -27.5510  -37.2600   24.7000 C   0  0  0  0  0  1  0  0  0  0  0  0
  -26.4320  -37.4320   23.7760 N   0  0  0  0  0  0  0  0  0  0  0  0
  -26.0290  -38.3510   23.9360 H   0  0  0  0  0  0  0  0  0  0  0  0
  -26.3840  -31.7650   25.1320 C   0  0  1  0  0  0  0  0  0  0  0  0
  -25.3000  -31.5290   26.2080 C   0  0  0  0  0  1  0  0  0  0  0  0
  -26.9600  -30.3880   24.7300 C   0  0  0  0  0  1  0  0  0  0  0  0
  -27.5430  -32.5550   25.7860 C   0  0  0  0  0  1  0  0  0  0  0  0
  2  5  1  0
  2  3  2  0
  3  1  1  0
  4  1  2  0
  5  4  1  0
  8  6  1  6
  7  8  1  0
  8  5  1  0
  8  9  1  0
 10 18  1  0
 11 16  1  0
 12 13  1  0
 12 11  1  0
 14 13  1  0
 14 23  1  0
 14 15  1  0
 16 10  1  0
 16 15  1  0
 17 10  2  0
 18  9  1  0
 18 19  1  0
 20 21  2  0
 21 40  1  0
 22 21  1  0
 22 25  1  0
 23 20  1  0
 23 24  1  0
 24 22  2  0
 25 26  1  0
 26 27  2  0
 28 31  1  0
 28 27  1  0
 29 28  2  0
 30 29  1  0
 30 25  2  0
 31 32  1  0
 32 33  1  0
 33 34  2  0
 35 34  1  0
 35 39  1  0
 36 35  2  0
 37 32  2  0
 37 36  1  0
 38 37  1  0
 40 41  1  0
 41 44  1  0
 41 43  1  0
 42 40  2  0
 45 46  1  0
 45 20  1  0
 47 45  1  0
 48  3  1  0
 49 48  1  0
 50 49  1  0
 51 52  1  0
 51 50  1  0
 53 64  2  0
 54 52  1  0
 54 59  1  0
 55 63  1  0
 55 65  1  0
 56 62  1  0
 56 58  1  0
 57 63  1  0
 58 57  1  0
 59 58  2  0
 60 61  1  0
 60 54  2  0
 61 56  2  0
 62 55  1  0
 63 53  1  0
 65 67  2  0
 66 65  1  0
 68 66  1  0
 69 78  2  0
 69 74  1  0
 70 66  1  0
 70 74  1  0
 71 70  1  0
 72 73  1  0
 72 71  1  0
 73 69  1  0
 74 75  2  0
 75 76  1  0
 77 76  2  0
 78 77  1  0
 79 53  1  0
 79 80  1  0
 79 89  1  0
 80 83  1  0
 81 85  1  0
 81 80  1  0
 82 81  2  0
 85 84  1  0
 87 85  1  0
 87 88  1  0
 87 86  1  0
 89 92  1  1
 89 90  1  0
 91 89  1  0
M  ISO  4  10 100  18 100  51 101  52 101
M  END
>  <TORSDO>  (29) 
F 22

>  <SCORE>  (29) 
-13.342

>  <name>  (29) 
29

>  <ligand_id>  (29) 
29

>  <original_smiles>  (29) 
[H]c1nn(C(C([H])([H])[H])(C([H])([H])[H])C([H])([H])N([H])C(=O)N2C([H])([H])C([H])([H])C([H])([H])C([H])(n3nc(-c4c([H])c([H])c(Oc5c([H])c([H])c(F)c([H])c5F)c([H])c4[H])c(C(=O)N([H])[H])c3N([H])[H])C2([H])[H])c([H])c1C([H])([H])C([H])([H])C([H])([H])C([H])([H])Oc1c([H])c([H])c2c(c1[H])C([H])([H])N(C(=O)C([H])(N([H])C(=O)C([H])(N([H])C([H])([H])[H])C([H])([H])[H])C(C([H])([H])[H])(C([H])([H])[H])C([H])([H])[H])C([H])(C(=O)N([H])C1([H])c3c([H])c([H])c([H])c([H])c3C([H])([H])C([H])([H])C1([H])[H])C2([H])[H]

>  <smiles>  (29) 
[H]c1nn(C(C([H])([H])[H])(C([H])([H])[H])C([H])([H])N([H])C(=O)N2C([H])([H])C([H])([H])C([H])([H])C([H])(n3nc(-c4c([H])c([H])c(Oc5c([H])c([H])c(F)c([H])c5F)c([H])c4[H])c(C(=O)N([H])[H])c3N([H])[H])C2([H])[H])c([H])c1C([H])([H])C([H])([H])C([H])([H])C([H])([H])Oc1c([H])c([H])c2c(c1[H])C([H])([H])N(C(=O)C([H])(N([H])C(=O)C([H])(N([H])C([H])([H])[H])C([H])([H])[H])C(C([H])([H])[H])(C([H])([H])[H])C([H])([H])[H])C([H])(C(=O)N([H])C1([H])c3c([H])c([H])c([H])c([H])c3C([H])([H])C([H])([H])C1([H])[H])C2([H])[H]

$$$$
30:0:0
     RDKit          3D

 92100  0  0  1  0  0  0  0  0999 V2000
  -29.1040  -21.0670   20.0600 C   0  0  0  0  0  3  0  0  0  0  0  0
  -31.3440  -21.2830   19.3000 C   0  0  0  0  0  3  0  0  0  0  0  0
  -30.1030  -21.8980   19.5340 C   0  0  0  0  0  0  0  0  0  0  0  0
  -30.4870  -19.2340   19.9040 C   0  0  0  0  0  0  0  0  0  0  0  0
  -29.3010  -19.7470   20.2350 N   0  0  0  0  0  0  0  0  0  0  0  0
  -31.5230  -19.9600   19.4750 N   0  0  0  0  0  0  0  0  0  0  0  0
  -29.7130  -17.2210   18.5900 C   0  0  0  0  0  1  0  0  0  0  0  0
  -30.5840  -17.6850   19.7740 C   0  0  1  0  0  0  0  0  0  0  0  0
  -31.8360  -17.3750   19.4190 F   0  0  0  0  0  0  0  0  0  0  0  0
  -30.3090  -16.9230   21.1170 C   0  0  0  0  0  2  0  0  0  0  0  0
  -30.6990  -14.4670   20.5640 C   0  0  0  0  0  0  0  0  0  0  0  0
  -30.4100  -12.3150   19.3930 C   0  0  0  0  0  2  0  0  0  0  0  0
  -29.5000  -12.5570   18.1720 C   0  0  0  0  0  2  0  0  0  0  0  0
  -28.0090  -12.4560   18.5580 C   0  0  0  0  0  2  0  0  0  0  0  0
  -27.6570  -13.2650   19.8380 C   0  0  0  0  0  3  0  0  0  0  0  0
  -28.6860  -13.0020   20.9610 C   0  0  0  0  0  2  0  0  0  0  0  0
  -30.0250  -13.2940   20.4220 N   0  0  0  0  0  0  0  0  0  0  0  0
  -31.8430  -14.6400   20.1490 O   0  0  0  0  0  0  0  0  0  0  0  0
  -29.9560  -15.4850   21.0270 N   0  0  0  0  0  0  0  0  0  0  0  0
  -29.0230  -15.2390   21.3230 H   0  0  0  0  0  0  0  0  0  0  0  0
  -25.2470  -13.8940   20.4700 C   0  0  0  0  0  0  0  0  0  0  0  0
  -24.1650  -13.1340   20.8220 C   0  0  0  0  0  0  0  0  0  0  0  0
  -24.6170  -11.7790   20.8240 C   0  0  0  0  0  0  0  0  0  0  0  0
  -26.2910  -13.0030   20.2820 N   0  0  0  0  0  0  0  0  0  0  0  0
  -25.9140  -11.7260   20.5480 N   0  0  0  0  0  0  0  0  0  0  0  0
  -23.8790  -10.5250   21.0170 C   0  0  0  0  0  0  0  0  0  0  0  0
  -24.2930   -9.5690   21.9690 C   0  0  0  0  0  3  0  0  0  0  0  0
  -23.5610   -8.3750   22.1500 C   0  0  0  0  0  3  0  0  0  0  0  0
  -22.3990   -8.1310   21.3790 C   0  0  0  0  0  0  0  0  0  0  0  0
  -22.0030   -9.0780   20.4190 C   0  0  0  0  0  3  0  0  0  0  0  0
  -22.7350  -10.2620   20.2380 C   0  0  0  0  0  3  0  0  0  0  0  0
  -21.6400   -6.9890   21.4660 O   0  0  0  0  0  0  0  0  0  0  0  0
  -21.5760   -6.2550   22.6220 C   0  0  0  0  0  0  0  0  0  0  0  0
  -21.1500   -6.8190   23.8440 C   0  0  0  0  0  3  0  0  0  0  0  0
  -21.0360   -6.0100   24.9910 C   0  0  0  0  0  3  0  0  0  0  0  0
  -21.3310   -4.6350   24.9160 C   0  0  0  0  0  0  0  0  0  0  0  0
  -21.7460   -4.0700   23.6980 C   0  0  0  0  0  3  0  0  0  0  0  0
  -21.8630   -4.8770   22.5530 C   0  0  0  0  0  0  0  0  0  0  0  0
  -22.2450   -4.3220   21.3770 F   0  0  0  0  0  0  0  0  0  0  0  0
  -21.2110   -3.8560   26.0170 F   0  0  0  0  0  0  0  0  0  0  0  0
  -22.7640  -13.6240   21.0490 C   0  0  0  0  0  0  0  0  0  0  0  0
  -22.0100  -12.9450   21.9060 N   0  0  0  0  0  0  0  0  0  0  0  0
  -22.3460  -14.6440   20.4990 O   0  0  0  0  0  0  0  0  0  0  0  0
  -22.3610  -12.1220   22.3730 H   0  0  0  0  0  0  0  0  0  0  0  0
  -21.0690  -13.2560   22.0960 H   0  0  0  0  0  0  0  0  0  0  0  0
  -25.4350  -15.2580   20.2780 N   0  0  0  0  0  0  0  0  0  0  0  0
  -24.6840  -15.9340   20.3520 H   0  0  0  0  0  0  0  0  0  0  0  0
  -26.3030  -15.6690   19.9560 H   0  0  0  0  0  0  0  0  0  0  0  0
  -29.7970  -23.3240   19.0680 C   0  0  0  0  0  2  0  0  0  0  0  0
  -29.4460  -24.3810   20.1490 C   0  0  0  0  0  2  0  0  0  0  0  0
  -28.2910  -25.3140   19.7120 C   0  0  0  0  0  2  0  0  0  0  0  0
  -28.3610  -26.6660   20.2070 O   0  0  0  0  0  0  0  0  0  0  0  0
  -24.5790  -31.8900   23.2580 C   0  0  0  0  0  0  0  0  0  0  0  0
  -27.1980  -27.4220   20.1680 C   0  0  0  0  0  0  0  0  0  0  0  0
  -23.3680  -30.4980   21.6170 C   0  0  0  0  0  3  0  0  0  0  0  0
  -24.8150  -28.9700   20.1820 C   0  0  0  0  0  0  0  0  0  0  0  0
  -25.9020  -30.8410   21.4260 C   0  0  0  0  0  2  0  0  0  0  0  0
  -25.9800  -29.4740   20.7750 C   0  0  0  0  0  0  0  0  0  0  0  0
  -27.1710  -28.7050   20.7720 C   0  0  0  0  0  3  0  0  0  0  0  0
  -26.0070  -26.9510   19.5600 C   0  0  0  0  0  3  0  0  0  0  0  0
  -24.8260  -27.7080   19.5720 C   0  0  0  0  0  3  0  0  0  0  0  0
  -23.5770  -29.8350   20.2320 C   0  0  0  0  0  2  0  0  0  0  0  0
  -24.6340  -31.0900   22.1570 N   0  0  0  0  0  0  0  0  0  0  0  0
  -23.5000  -32.1640   23.7990 O   0  0  0  0  0  0  0  0  0  0  0  0
  -22.7170  -29.4690   22.5720 C   0  0  0  0  0  0  0  0  0  0  0  0
  -21.3920  -29.2880   22.4500 N   0  0  0  0  0  0  0  0  0  0  0  0
  -23.4030  -28.8410   23.3850 O   0  0  0  0  0  0  0  0  0  0  0  0
  -20.9000  -29.8410   21.7620 H   0  0  0  0  0  0  0  0  0  0  0  0
  -18.0150  -28.1020   22.9530 C   0  0  0  0  0  0  0  0  0  0  0  0
  -20.5740  -28.3510   23.2220 C   0  0  0  0  0  3  0  0  0  0  0  0
  -20.6750  -26.9210   22.6420 C   0  0  0  0  0  2  0  0  0  0  0  0
  -19.5670  -26.6040   21.6320 C   0  0  0  0  0  2  0  0  0  0  0  0
  -18.1860  -26.7530   22.2770 C   0  0  0  0  0  2  0  0  0  0  0  0
  -19.1360  -28.8600   23.3830 C   0  0  0  0  0  0  0  0  0  0  0  0
  -18.9220  -30.1260   23.9710 C   0  0  0  0  0  3  0  0  0  0  0  0
  -17.6180  -30.6300   24.1410 C   0  0  0  0  0  3  0  0  0  0  0  0
  -16.5110  -29.8670   23.7300 C   0  0  0  0  0  3  0  0  0  0  0  0
  -16.7110  -28.6070   23.1390 C   0  0  0  0  0  3  0  0  0  0  0  0
  -25.8690  -32.5180   23.8710 C   0  0  0  0  0  3  0  0  0  0  0  0
  -25.5680  -33.9170   24.2010 N   0  0  0  0  0  0  0  0  0  0  0  0
  -25.9030  -34.9660   23.4380 C   0  0  0  0  0  0  0  0  0  0  0  0
  -26.5720  -34.8570   22.4050 O   0  0  0  0  0  0  0  0  0  0  0  0
  -24.9780  -34.0760   25.0040 H   0  0  0  0  0  0  0  0  0  0  0  0
  -24.1840  -36.7620   23.0710 C   0  0  0  0  0  1  0  0  0  0  0  0
  -25.4200  -36.3570   23.8900 C   0  0  0  0  0  3  0  0  0  0  0  0
  -27.5560  -37.2290   24.7280 C   0  0  0  0  0  1  0  0  0  0  0  0
  -26.4570  -37.4050   23.7800 N   0  0  0  0  0  0  0  0  0  0  0  0
  -26.0550  -38.3260   23.9320 H   0  0  0  0  0  0  0  0  0  0  0  0
  -26.3900  -31.7440   25.1430 C   0  0  1  0  0  0  0  0  0  0  0  0
  -25.3030  -31.5080   26.2170 C   0  0  0  0  0  1  0  0  0  0  0  0
  -26.9700  -30.3660   24.7530 C   0  0  0  0  0  1  0  0  0  0  0  0
  -27.5470  -32.5340   25.7980 C   0  0  0  0  0  1  0  0  0  0  0  0
  1  5  1  0
  2  6  2  0
  2  3  1  0
  3  1  2  0
  4  5  2  0
  6  4  1  0
  8  7  1  6
  8  4  1  0
  8 10  1  0
  9  8  1  0
 11 19  1  0
 12 17  1  0
 13 14  1  0
 13 12  1  0
 15 14  1  0
 15 24  1  0
 15 16  1  0
 17 11  1  0
 17 16  1  0
 18 11  2  0
 19 10  1  0
 19 20  1  0
 21 22  2  0
 22 23  1  0
 22 41  1  0
 23 26  1  0
 24 21  1  0
 24 25  1  0
 25 23  2  0
 26 27  1  0
 27 28  2  0
 29 32  1  0
 29 28  1  0
 30 29  2  0
 31 30  1  0
 31 26  2  0
 32 33  1  0
 33 34  1  0
 34 35  2  0
 36 35  1  0
 36 40  1  0
 37 36  2  0
 38 33  2  0
 38 37  1  0
 39 38  1  0
 41 42  1  0
 42 45  1  0
 42 44  1  0
 43 41  2  0
 46 47  1  0
 46 21  1  0
 48 46  1  0
 49  3  1  0
 49 50  1  0
 51 50  1  0
 51 52  1  0
 53 64  2  0
 54 52  1  0
 54 59  1  0
 55 63  1  0
 55 65  1  0
 56 62  1  0
 56 58  1  0
 57 63  1  0
 58 57  1  0
 59 58  2  0
 60 61  1  0
 60 54  2  0
 61 56  2  0
 62 55  1  0
 63 53  1  0
 65 67  2  0
 66 65  1  0
 68 66  1  0
 69 78  2  0
 69 74  1  0
 70 66  1  0
 70 74  1  0
 71 70  1  0
 72 73  1  0
 72 71  1  0
 73 69  1  0
 74 75  2  0
 75 76  1  0
 77 76  2  0
 78 77  1  0
 79 53  1  0
 79 80  1  0
 79 89  1  0
 80 83  1  0
 81 85  1  0
 81 80  1  0
 82 81  2  0
 85 84  1  0
 87 85  1  0
 87 88  1  0
 87 86  1  0
 89 92  1  1
 89 90  1  0
 91 89  1  0
M  ISO  4  11 100  19 100  51 101  52 101
M  END
>  <TORSDO>  (30) 
F 21

>  <SCORE>  (30) 
-13.451

>  <name>  (30) 
30

>  <ligand_id>  (30) 
30

>  <original_smiles>  (30) 
[H]c1nc(C(F)(C([H])([H])[H])C([H])([H])N([H])C(=O)N2C([H])([H])C([H])([H])C([H])([H])C([H])(n3nc(-c4c([H])c([H])c(Oc5c([H])c([H])c(F)c([H])c5F)c([H])c4[H])c(C(=O)N([H])[H])c3N([H])[H])C2([H])[H])nc([H])c1C([H])([H])C([H])([H])C([H])([H])Oc1c([H])c([H])c2c(c1[H])C([H])([H])N(C(=O)C([H])(N([H])C(=O)C([H])(N([H])C([H])([H])[H])C([H])([H])[H])C(C([H])([H])[H])(C([H])([H])[H])C([H])([H])[H])C([H])(C(=O)N([H])C1([H])c3c([H])c([H])c([H])c([H])c3C([H])([H])C([H])([H])C1([H])[H])C2([H])[H]

>  <smiles>  (30) 
[H]c1nc(C(F)(C([H])([H])[H])C([H])([H])N([H])C(=O)N2C([H])([H])C([H])([H])C([H])([H])C([H])(n3nc(-c4c([H])c([H])c(Oc5c([H])c([H])c(F)c([H])c5F)c([H])c4[H])c(C(=O)N([H])[H])c3N([H])[H])C2([H])[H])nc([H])c1C([H])([H])C([H])([H])C([H])([H])Oc1c([H])c([H])c2c(c1[H])C([H])([H])N(C(=O)C([H])(N([H])C(=O)C([H])(N([H])C([H])([H])[H])C([H])([H])[H])C(C([H])([H])[H])(C([H])([H])[H])C([H])([H])[H])C([H])(C(=O)N([H])C1([H])c3c([H])c([H])c([H])c([H])c3C([H])([H])C([H])([H])C1([H])[H])C2([H])[H]

$$$$
31:0:0
     RDKit          3D

101109  0  0  1  0  0  0  0  0999 V2000
  -33.1860  -21.0250   20.3180 C   0  0  0  0  0  1  0  0  0  0  0  0
  -32.6050  -20.2870   18.0590 C   0  0  0  0  0  1  0  0  0  0  0  0
  -31.9970  -20.5380   19.4560 C   0  0  1  0  0  0  0  0  0  0  0  0
  -31.3870  -18.6110   21.2040 C   0  0  0  0  0  3  0  0  0  0  0  0
  -31.4920  -19.1940   19.9670 C   0  0  0  0  0  0  0  0  0  0  0  0
  -30.7260  -17.0660   19.7290 C   0  0  0  0  0  3  0  0  0  0  0  0
  -30.9000  -17.3130   21.0670 N   0  0  0  0  0  0  0  0  0  0  0  0
  -31.0420  -18.2270   19.1270 N   0  0  0  0  0  0  0  0  0  0  0  0
  -30.9800  -18.3490   18.1230 H   0  0  0  0  0  0  0  0  0  0  0  0
  -31.3720  -16.8940   23.4950 C   0  0  0  0  0  1  0  0  0  0  0  0
  -30.7560  -14.9530   22.1050 C   0  0  0  0  0  1  0  0  0  0  0  0
  -29.0450  -16.6990   22.6280 C   0  0  0  0  0  1  0  0  0  0  0  0
  -30.5250  -16.4680   22.2650 C   0  0  2  0  0  0  0  0  0  0  0  0
  -30.4160  -16.3420   17.3570 C   0  0  0  0  0  1  0  0  0  0  0  0
  -28.6400  -15.8610   19.0790 C   0  0  0  0  0  1  0  0  0  0  0  0
  -30.1620  -15.9120   18.8430 C   0  0  2  0  0  0  0  0  0  0  0  0
  -30.9500  -14.5420   18.9670 C   0  0  0  0  0  0  0  0  0  0  0  0
  -30.8360  -12.0780   18.7370 C   0  0  0  0  0  2  0  0  0  0  0  0
  -29.8280  -11.7280   17.6170 C   0  0  0  0  0  2  0  0  0  0  0  0
  -28.3890  -11.6160   18.1660 C   0  0  0  0  0  2  0  0  0  0  0  0
  -28.0040  -12.7970   19.0950 C   0  0  0  0  0  3  0  0  0  0  0  0
  -29.1430  -13.0910   20.1050 C   0  0  0  0  0  2  0  0  0  0  0  0
  -30.3900  -13.3460   19.3580 N   0  0  0  0  0  0  0  0  0  0  0  0
  -32.0720  -14.5500   18.4580 O   0  0  0  0  0  0  0  0  0  0  0  0
  -25.7550  -13.5610   20.0690 C   0  0  0  0  0  0  0  0  0  0  0  0
  -24.6950  -12.8600   20.5670 C   0  0  0  0  0  0  0  0  0  0  0  0
  -25.0640  -11.4820   20.4860 C   0  0  0  0  0  0  0  0  0  0  0  0
  -26.7100  -12.6110   19.7310 N   0  0  0  0  0  0  0  0  0  0  0  0
  -26.3030  -11.3550   20.0290 N   0  0  0  0  0  0  0  0  0  0  0  0
  -24.2920  -10.2690   20.7580 C   0  0  0  0  0  0  0  0  0  0  0  0
  -24.7080   -9.3370   21.7330 C   0  0  0  0  0  3  0  0  0  0  0  0
  -23.9380   -8.1860   21.9950 C   0  0  0  0  0  3  0  0  0  0  0  0
  -22.7360   -7.9590   21.2830 C   0  0  0  0  0  0  0  0  0  0  0  0
  -22.3410   -8.8770   20.2950 C   0  0  0  0  0  3  0  0  0  0  0  0
  -23.1120  -10.0190   20.0310 C   0  0  0  0  0  3  0  0  0  0  0  0
  -21.9350   -6.8560   21.4560 O   0  0  0  0  0  0  0  0  0  0  0  0
  -21.8290   -6.2300   22.6710 C   0  0  0  0  0  0  0  0  0  0  0  0
  -21.3890   -6.9110   23.8270 C   0  0  0  0  0  3  0  0  0  0  0  0
  -21.2240   -6.2060   25.0360 C   0  0  0  0  0  3  0  0  0  0  0  0
  -21.4960   -4.8250   25.0910 C   0  0  0  0  0  0  0  0  0  0  0  0
  -21.9350   -4.1470   23.9390 C   0  0  0  0  0  3  0  0  0  0  0  0
  -22.0970   -4.8470   22.7310 C   0  0  0  0  0  0  0  0  0  0  0  0
  -22.5000   -4.1850   21.6190 F   0  0  0  0  0  0  0  0  0  0  0  0
  -21.3320   -4.1460   26.2500 F   0  0  0  0  0  0  0  0  0  0  0  0
  -23.3710  -13.4160   20.9990 C   0  0  0  0  0  0  0  0  0  0  0  0
  -22.7170  -12.7750   21.9610 N   0  0  0  0  0  0  0  0  0  0  0  0
  -22.9280  -14.4580   20.5120 O   0  0  0  0  0  0  0  0  0  0  0  0
  -23.1000  -11.9470   22.3920 H   0  0  0  0  0  0  0  0  0  0  0  0
  -21.8200  -13.1190   22.2740 H   0  0  0  0  0  0  0  0  0  0  0  0
  -25.9770  -14.9220   19.8620 N   0  0  0  0  0  0  0  0  0  0  0  0
  -25.2690  -15.6200   20.0650 H   0  0  0  0  0  0  0  0  0  0  0  0
  -26.8040  -15.3120   19.4290 H   0  0  0  0  0  0  0  0  0  0  0  0
  -30.8820  -21.6420   19.2370 C   0  0  0  0  0  2  0  0  0  0  0  0
  -28.8930  -20.4610   20.2950 C   0  0  0  0  0  1  0  0  0  0  0  0
  -29.6270  -21.8200   20.1580 C   0  0  1  0  0  0  0  0  0  0  0  0
  -28.9540  -22.6960   22.5390 C   0  0  0  0  0  1  0  0  0  0  0  0
  -30.0660  -22.3180   21.5580 C   0  0  0  0  0  2  0  0  0  0  0  0
  -28.5780  -22.7970   19.4980 C   0  0  0  0  0  2  0  0  0  0  0  0
  -28.9410  -24.2860   19.1980 C   0  0  0  0  0  2  0  0  0  0  0  0
  -27.6850  -25.2100   19.2170 C   0  0  0  0  0  2  0  0  0  0  0  0
  -27.9320  -26.6040   18.9190 O   0  0  0  0  0  0  0  0  0  0  0  0
  -24.8180  -31.3900   23.2000 C   0  0  0  0  0  0  0  0  0  0  0  0
  -26.8490  -27.4410   19.1350 C   0  0  0  0  0  0  0  0  0  0  0  0
  -23.3870  -30.4350   21.4220 C   0  0  0  0  0  3  0  0  0  0  0  0
  -24.6030  -29.1030   19.6170 C   0  0  0  0  0  0  0  0  0  0  0  0
  -25.9160  -30.6380   21.0880 C   0  0  0  0  0  2  0  0  0  0  0  0
  -25.8410  -29.4150   20.1930 C   0  0  0  0  0  0  0  0  0  0  0  0
  -26.9710  -28.5960   19.9460 C   0  0  0  0  0  3  0  0  0  0  0  0
  -25.5980  -27.1580   18.5440 C   0  0  0  0  0  3  0  0  0  0  0  0
  -24.4760  -27.9760   18.7880 C   0  0  0  0  0  3  0  0  0  0  0  0
  -23.4440  -30.0240   19.9260 C   0  0  0  0  0  2  0  0  0  0  0  0
  -24.7300  -30.8230   21.9630 N   0  0  0  0  0  0  0  0  0  0  0  0
  -23.8020  -31.6320   23.8670 O   0  0  0  0  0  0  0  0  0  0  0  0
  -22.7070  -29.3000   22.2220 C   0  0  0  0  0  0  0  0  0  0  0  0
  -21.3710  -29.2140   22.1250 N   0  0  0  0  0  0  0  0  0  0  0  0
  -23.3810  -28.5070   22.8850 O   0  0  0  0  0  0  0  0  0  0  0  0
  -20.8910  -29.9060   21.5650 H   0  0  0  0  0  0  0  0  0  0  0  0
  -17.9540  -28.1040   22.5230 C   0  0  0  0  0  0  0  0  0  0  0  0
  -20.5270  -28.2010   22.7560 C   0  0  0  0  0  3  0  0  0  0  0  0
  -20.5470  -26.8810   21.9520 C   0  0  0  0  0  2  0  0  0  0  0  0
  -19.4090  -26.7780   20.9320 C   0  0  0  0  0  2  0  0  0  0  0  0
  -18.0490  -26.8770   21.6310 C   0  0  0  0  0  2  0  0  0  0  0  0
  -19.1170  -28.7350   23.0370 C   0  0  0  0  0  0  0  0  0  0  0  0
  -18.9740  -29.8940   23.8320 C   0  0  0  0  0  3  0  0  0  0  0  0
  -17.7000  -30.4180   24.1160 C   0  0  0  0  0  3  0  0  0  0  0  0
  -16.5510  -29.7810   23.6170 C   0  0  0  0  0  3  0  0  0  0  0  0
  -16.6790  -28.6260   22.8270 C   0  0  0  0  0  3  0  0  0  0  0  0
  -26.1930  -31.7870   23.8220 C   0  0  0  0  0  3  0  0  0  0  0  0
  -26.6870  -30.7800   24.9320 C   0  0  1  0  0  0  0  0  0  0  0  0
  -25.6310  -30.4920   26.0250 C   0  0  0  0  0  1  0  0  0  0  0  0
  -27.0900  -29.4280   24.2980 C   0  0  0  0  0  1  0  0  0  0  0  0
  -27.9520  -31.3400   25.6230 C   0  0  0  0  0  1  0  0  0  0  0  0
  -26.0560  -33.1420   24.3740 N   0  0  0  0  0  0  0  0  0  0  0  0
  -26.4720  -34.2590   23.7590 C   0  0  0  0  0  0  0  0  0  0  0  0
  -27.0810  -34.2450   22.6870 O   0  0  0  0  0  0  0  0  0  0  0  0
  -25.5180  -33.2330   25.2230 H   0  0  0  0  0  0  0  0  0  0  0  0
  -24.9390  -36.2510   23.7740 C   0  0  0  0  0  1  0  0  0  0  0  0
  -26.1600  -35.6030   24.4450 C   0  0  0  0  0  3  0  0  0  0  0  0
  -28.4120  -36.1230   25.2720 C   0  0  0  0  0  1  0  0  0  0  0  0
  -27.2970  -36.5490   24.4310 N   0  0  0  0  0  0  0  0  0  0  0  0
  -27.0020  -37.4700   24.7410 H   0  0  0  0  0  0  0  0  0  0  0  0
  3  2  1  6
  3  5  1  0
  3  1  1  0
  5  4  2  0
  6 16  1  0
  6  7  1  0
  7  4  1  0
  7 13  1  0
  8  6  1  0
  8  5  1  0
  9  8  1  0
 13 11  1  6
 13 12  1  0
 13 10  1  0
 16 14  1  6
 16 17  1  0
 16 15  1  0
 17 23  1  0
 18 23  1  0
 19 20  1  0
 19 18  1  0
 21 20  1  0
 21 28  1  0
 21 22  1  0
 23 22  1  0
 24 17  2  0
 25 26  2  0
 26 45  1  0
 27 26  1  0
 27 30  1  0
 28 29  1  0
 28 25  1  0
 29 27  2  0
 30 31  1  0
 31 32  2  0
 33 36  1  0
 33 32  1  0
 34 33  2  0
 35 34  1  0
 35 30  2  0
 36 37  1  0
 37 42  2  0
 37 38  1  0
 38 39  2  0
 39 40  1  0
 40 44  1  0
 41 40  2  0
 42 41  1  0
 43 42  1  0
 45 46  1  0
 46 49  1  0
 46 48  1  0
 47 45  2  0
 50 51  1  0
 50 25  1  0
 52 50  1  0
 53  3  1  0
 53 55  1  0
 55 54  1  1
 55 57  1  0
 57 56  1  0
 58 55  1  0
 59 60  1  0
 59 58  1  0
 61 63  1  0
 61 60  1  0
 62 73  2  0
 63 68  1  0
 64 72  1  0
 64 74  1  0
 65 71  1  0
 65 67  1  0
 66 72  1  0
 67 66  1  0
 68 67  2  0
 69 70  1  0
 69 63  2  0
 70 65  2  0
 71 64  1  0
 72 62  1  0
 74 76  2  0
 75 74  1  0
 77 75  1  0
 78 87  2  0
 78 83  1  0
 79 75  1  0
 79 83  1  0
 80 79  1  0
 81 82  1  0
 81 80  1  0
 82 78  1  0
 83 84  2  0
 84 85  1  0
 86 85  2  0
 87 86  1  0
 88 62  1  0
 88 93  1  0
 88 89  1  0
 89 92  1  1
 89 90  1  0
 91 89  1  0
 93 96  1  0
 94 93  1  0
 94 98  1  0
 95 94  2  0
 98 97  1  0
100 98  1  0
100101  1  0
100 99  1  0
M  ISO  4  16 100  17 100  60 101  61 101
M  END
>  <TORSDO>  (31) 
F 25

>  <SCORE>  (31) 
-5.847

>  <name>  (31) 
31

>  <ligand_id>  (31) 
31

>  <original_smiles>  (31) 
[H]c1c([H])c([H])c2c(c1[H])C([H])([H])C([H])([H])C([H])([H])C2([H])N([H])C(=O)C1([H])N(C(=O)C([H])(N([H])C(=O)C([H])(N([H])C([H])([H])[H])C([H])([H])[H])C(C([H])([H])[H])(C([H])([H])[H])C([H])([H])[H])C([H])([H])c2c([H])c(OC([H])([H])C([H])([H])C([H])([H])C(C([H])([H])[H])(C([H])([H])C([H])([H])[H])C([H])([H])C(c3c([H])n(C(C([H])([H])[H])(C([H])([H])[H])C([H])([H])[H])c(C(C(=O)N4C([H])([H])C([H])([H])C([H])([H])C([H])(n5nc(-c6c([H])c([H])c(Oc7c([H])c([H])c(F)c([H])c7F)c([H])c6[H])c(C(=O)N([H])[H])c5N([H])[H])C4([H])[H])(C([H])([H])[H])C([H])([H])[H])[n+]3[H])(C([H])([H])[H])C([H])([H])[H])c([H])c([H])c2C1([H])[H]

>  <smiles>  (31) 
[H]c1c([H])c([H])c2c(c1[H])C([H])([H])C([H])([H])C([H])([H])C2([H])N([H])C(=O)C1([H])N(C(=O)C([H])(N([H])C(=O)C([H])(N([H])C([H])([H])[H])C([H])([H])[H])C(C([H])([H])[H])(C([H])([H])[H])C([H])([H])[H])C([H])([H])c2c([H])c(OC([H])([H])C([H])([H])C([H])([H])C(C([H])([H])[H])(C([H])([H])C([H])([H])[H])C([H])([H])C(c3c([H])n(C(C([H])([H])[H])(C([H])([H])[H])C([H])([H])[H])c(C(C(=O)N4C([H])([H])C([H])([H])C([H])([H])C([H])(n5nc(-c6c([H])c([H])c(Oc7c([H])c([H])c(F)c([H])c7F)c([H])c6[H])c(C(=O)N([H])[H])c5N([H])[H])C4([H])[H])(C([H])([H])[H])C([H])([H])[H])[n+]3[H])(C([H])([H])[H])C([H])([H])[H])c([H])c([H])c2C1([H])[H]

$$$$
32:0:0
     RDKit          3D

102110  0  0  1  0  0  0  0  0999 V2000
  -29.8990  -17.6360   18.3550 C   0  0  0  0  0  3  0  0  0  0  0  0
  -29.3700  -18.7560   17.6930 C   0  0  0  0  0  0  0  0  0  0  0  0
  -28.6820  -19.7230   18.4690 C   0  0  0  0  0  0  0  0  0  0  0  0
  -29.7100  -17.5350   19.7430 C   0  0  0  0  0  0  0  0  0  0  0  0
  -28.3970  -19.4190   19.8270 C   0  0  0  0  0  0  0  0  0  0  0  0
  -29.6670  -18.9480   16.2130 C   0  0  0  0  0  1  0  0  0  0  0  0
  -28.8950  -18.3360   20.4350 N   0  0  0  0  0  0  0  0  0  0  0  0
  -28.4730  -21.1290   17.9160 C   0  0  0  0  0  2  0  0  0  0  0  0
  -29.2850  -22.0980   18.8060 C   0  0  0  0  0  2  0  0  0  0  0  0
  -30.1770  -23.8650   17.2500 C   0  0  0  0  0  1  0  0  0  0  0  0
  -27.8490  -24.0600   18.1590 C   0  0  0  0  0  1  0  0  0  0  0  0
  -29.2930  -23.6170   18.4960 C   0  0  1  0  0  0  0  0  0  0  0  0
  -29.1700  -24.0760   21.1140 C   0  0  0  0  0  1  0  0  0  0  0  0
  -29.8910  -24.3590   19.7660 C   0  0  0  0  0  3  0  0  0  0  0  0
  -30.1520  -25.8850   19.6060 C   0  0  0  0  0  2  0  0  0  0  0  0
  -29.7340  -26.6630   20.7440 O   0  0  0  0  0  0  0  0  0  0  0  0
  -25.0950  -31.3850   23.4450 C   0  0  0  0  0  0  0  0  0  0  0  0
  -28.4800  -27.2360   20.6980 C   0  0  0  0  0  0  0  0  0  0  0  0
  -24.2280  -29.9120   21.6580 C   0  0  0  0  0  3  0  0  0  0  0  0
  -25.9710  -28.5090   20.4620 C   0  0  0  0  0  0  0  0  0  0  0  0
  -26.7210  -30.4750   21.7920 C   0  0  0  0  0  2  0  0  0  0  0  0
  -27.0040  -29.1210   21.1850 C   0  0  0  0  0  0  0  0  0  0  0  0
  -28.2610  -28.4830   21.3180 C   0  0  0  0  0  3  0  0  0  0  0  0
  -27.3960  -26.6240   20.0310 C   0  0  0  0  0  3  0  0  0  0  0  0
  -26.1520  -27.2440   19.8990 C   0  0  0  0  0  3  0  0  0  0  0  0
  -24.6730  -29.2660   20.3220 C   0  0  0  0  0  2  0  0  0  0  0  0
  -25.3600  -30.5980   22.3660 N   0  0  0  0  0  0  0  0  0  0  0  0
  -23.9310  -31.5690   23.8300 O   0  0  0  0  0  0  0  0  0  0  0  0
  -23.5490  -28.8260   22.5250 C   0  0  0  0  0  0  0  0  0  0  0  0
  -22.2490  -28.6020   22.2720 N   0  0  0  0  0  0  0  0  0  0  0  0
  -24.1820  -28.1950   23.3740 O   0  0  0  0  0  0  0  0  0  0  0  0
  -21.8020  -29.1670   21.5620 H   0  0  0  0  0  0  0  0  0  0  0  0
  -18.8720  -27.3200   22.4980 C   0  0  0  0  0  0  0  0  0  0  0  0
  -21.4040  -27.6130   22.9370 C   0  0  0  0  0  3  0  0  0  0  0  0
  -21.5670  -26.2140   22.2990 C   0  0  0  0  0  2  0  0  0  0  0  0
  -20.5380  -25.9210   21.2030 C   0  0  0  0  0  2  0  0  0  0  0  0
  -19.1150  -26.0120   21.7610 C   0  0  0  0  0  2  0  0  0  0  0  0
  -19.9490  -28.0780   23.0320 C   0  0  0  0  0  0  0  0  0  0  0  0
  -19.6700  -29.3030   23.6820 C   0  0  0  0  0  3  0  0  0  0  0  0
  -18.3480  -29.7740   23.7910 C   0  0  0  0  0  3  0  0  0  0  0  0
  -17.2880  -29.0170   23.2680 C   0  0  0  0  0  3  0  0  0  0  0  0
  -17.5480  -27.7870   22.6330 C   0  0  0  0  0  3  0  0  0  0  0  0
  -26.2330  -32.1140   24.2230 C   0  0  0  0  0  3  0  0  0  0  0  0
  -25.8470  -33.5260   24.3630 N   0  0  0  0  0  0  0  0  0  0  0  0
  -26.2700  -34.5110   23.5590 C   0  0  0  0  0  0  0  0  0  0  0  0
  -27.1010  -34.3340   22.6650 O   0  0  0  0  0  0  0  0  0  0  0  0
  -25.1470  -33.7370   25.0600 H   0  0  0  0  0  0  0  0  0  0  0  0
  -24.5890  -36.1930   22.7410 C   0  0  0  0  0  1  0  0  0  0  0  0
  -25.6790  -35.9160   23.7900 C   0  0  0  0  0  3  0  0  0  0  0  0
  -27.6280  -36.9480   24.8690 C   0  0  0  0  0  1  0  0  0  0  0  0
  -26.6930  -36.9890   23.7480 N   0  0  0  0  0  0  0  0  0  0  0  0
  -26.2490  -37.9020   23.7380 H   0  0  0  0  0  0  0  0  0  0  0  0
  -26.5260  -31.4680   25.6320 C   0  0  1  0  0  0  0  0  0  0  0  0
  -25.2600  -31.2760   26.5010 C   0  0  0  0  0  1  0  0  0  0  0  0
  -27.2020  -30.0870   25.4660 C   0  0  0  0  0  1  0  0  0  0  0  0
  -27.5330  -32.3500   26.4090 C   0  0  0  0  0  1  0  0  0  0  0  0
  -30.5460  -16.6050   20.5790 C   0  0  0  0  0  2  0  0  0  0  0  0
  -29.1820  -15.0660   22.1730 C   0  0  0  0  0  1  0  0  0  0  0  0
  -29.8860  -15.2300   20.8060 C   0  0  0  0  0  3  0  0  0  0  0  0
  -30.7870  -13.6850   19.2260 C   0  0  0  0  0  0  0  0  0  0  0  0
  -29.9150  -11.8810   17.7910 C   0  0  0  0  0  2  0  0  0  0  0  0
  -28.7590  -12.3410   16.8860 C   0  0  0  0  0  2  0  0  0  0  0  0
  -27.4090  -12.2460   17.6210 C   0  0  0  0  0  2  0  0  0  0  0  0
  -27.4490  -12.9340   19.0080 C   0  0  0  0  0  3  0  0  0  0  0  0
  -28.6740  -12.4260   19.8090 C   0  0  0  0  0  2  0  0  0  0  0  0
  -29.8930  -12.6880   19.0210 N   0  0  0  0  0  0  0  0  0  0  0  0
  -31.6150  -14.0360   18.3770 O   0  0  0  0  0  0  0  0  0  0  0  0
  -30.8460  -14.1510   20.5020 N   0  0  0  0  0  0  0  0  0  0  0  0
  -25.2770  -13.6710   20.1910 C   0  0  0  0  0  0  0  0  0  0  0  0
  -24.2550  -12.9500   20.7460 C   0  0  0  0  0  0  0  0  0  0  0  0
  -24.6080  -11.5730   20.5870 C   0  0  0  0  0  0  0  0  0  0  0  0
  -26.1970  -12.7360   19.7350 N   0  0  0  0  0  0  0  0  0  0  0  0
  -25.8020  -11.4690   20.0220 N   0  0  0  0  0  0  0  0  0  0  0  0
  -23.8540  -10.3510   20.8890 C   0  0  0  0  0  0  0  0  0  0  0  0
  -24.3660   -9.3630   21.7600 C   0  0  0  0  0  3  0  0  0  0  0  0
  -23.6140   -8.2030   22.0480 C   0  0  0  0  0  3  0  0  0  0  0  0
  -22.3360   -8.0250   21.4670 C   0  0  0  0  0  0  0  0  0  0  0  0
  -21.8420   -8.9990   20.5840 C   0  0  0  0  0  3  0  0  0  0  0  0
  -22.5940  -10.1500   20.2920 C   0  0  0  0  0  3  0  0  0  0  0  0
  -21.5470   -6.9180   21.6690 O   0  0  0  0  0  0  0  0  0  0  0  0
  -21.5850   -6.2100   22.8440 C   0  0  0  0  0  0  0  0  0  0  0  0
  -21.3360   -6.8250   24.0910 C   0  0  0  0  0  3  0  0  0  0  0  0
  -21.3170   -6.0480   25.2670 C   0  0  0  0  0  3  0  0  0  0  0  0
  -21.5370   -4.6600   25.1980 C   0  0  0  0  0  0  0  0  0  0  0  0
  -21.7810   -4.0450   23.9570 C   0  0  0  0  0  3  0  0  0  0  0  0
  -21.8020   -4.8200   22.7810 C   0  0  0  0  0  0  0  0  0  0  0  0
  -22.0150   -4.2200   21.5870 F   0  0  0  0  0  0  0  0  0  0  0  0
  -21.5120   -3.9110   26.3250 F   0  0  0  0  0  0  0  0  0  0  0  0
  -22.9780  -13.4960   21.3170 C   0  0  0  0  0  0  0  0  0  0  0  0
  -22.4340  -12.8470   22.3400 N   0  0  0  0  0  0  0  0  0  0  0  0
  -22.4770  -14.5340   20.8860 O   0  0  0  0  0  0  0  0  0  0  0  0
  -22.8540  -12.0050   22.7060 H   0  0  0  0  0  0  0  0  0  0  0  0
  -21.5870  -13.1960   22.7680 H   0  0  0  0  0  0  0  0  0  0  0  0
  -25.4910  -15.0350   20.0260 N   0  0  0  0  0  0  0  0  0  0  0  0
  -24.8130  -15.7220   20.3320 H   0  0  0  0  0  0  0  0  0  0  0  0
  -26.3210  -15.4540   19.6220 H   0  0  0  0  0  0  0  0  0  0  0  0
  -32.1550  -14.3080   21.1730 C   0  0  0  0  0  2  0  0  0  0  0  0
  -34.2020  -13.1970   22.1870 C   0  0  0  0  0  1  0  0  0  0  0  0
  -32.9130  -12.9850   21.3790 C   0  0  0  0  0  2  0  0  0  0  0  0
  -27.6320  -20.3270   20.7780 C   0  0  0  0  0  2  0  0  0  0  0  0
  -27.9150  -22.6000   21.8860 C   0  0  0  0  0  1  0  0  0  0  0  0
  -28.5620  -21.2420   21.5990 C   0  0  0  0  0  2  0  0  0  0  0  0
  1  4  1  0
  2  1  2  0
  2  3  1  0
  3  5  2  0
  4  7  2  0
  4 57  1  0
  5  7  1  0
  5100  1  0
  6  2  1  0
  8  3  1  0
  8  9  1  0
 12 10  1  6
 11 12  1  0
 12  9  1  0
 12 14  1  0
 14 13  1  0
 15 14  1  0
 15 16  1  0
 17 28  2  0
 18 16  1  0
 18 23  1  0
 19 27  1  0
 19 29  1  0
 20 22  1  0
 21 27  1  0
 22 23  2  0
 22 21  1  0
 24 18  2  0
 25 24  1  0
 25 20  2  0
 26 20  1  0
 26 19  1  0
 27 17  1  0
 29 31  2  0
 30 29  1  0
 32 30  1  0
 33 42  2  0
 33 38  1  0
 34 30  1  0
 34 38  1  0
 35 34  1  0
 36 37  1  0
 36 35  1  0
 37 33  1  0
 38 39  2  0
 39 40  1  0
 41 40  2  0
 42 41  1  0
 43 17  1  0
 43 44  1  0
 43 53  1  0
 44 47  1  0
 45 49  1  0
 45 44  1  0
 46 45  2  0
 49 48  1  0
 51 49  1  0
 51 50  1  0
 52 51  1  0
 53 56  1  1
 53 54  1  0
 55 53  1  0
 57 59  1  0
 59 58  1  0
 60 68  1  0
 61 66  1  0
 62 63  1  0
 62 61  1  0
 64 63  1  0
 64 72  1  0
 64 65  1  0
 66 60  1  0
 66 65  1  0
 67 60  2  0
 68 59  1  0
 68 97  1  0
 69 70  2  0
 70 89  1  0
 71 70  1  0
 71 74  1  0
 72 73  1  0
 72 69  1  0
 73 71  2  0
 74 75  1  0
 75 76  2  0
 77 80  1  0
 77 76  1  0
 78 77  2  0
 79 78  1  0
 79 74  2  0
 80 81  1  0
 81 82  1  0
 82 83  2  0
 84 83  1  0
 84 88  1  0
 85 84  2  0
 86 81  2  0
 86 85  1  0
 87 86  1  0
 89 90  1  0
 90 92  1  0
 90 93  1  0
 91 89  2  0
 94 69  1  0
 94 95  1  0
 96 94  1  0
 97 99  1  0
 99 98  1  0
100102  1  0
102101  1  0
M  ISO  4  15 101  16 101  60 100  68 100
M  END
>  <TORSDO>  (32) 
F 27

>  <SCORE>  (32) 
-6.202

>  <name>  (32) 
32

>  <ligand_id>  (32) 
32

>  <original_smiles>  (32) 
[H]c1c([H])c([H])c2c(c1[H])C([H])([H])C([H])([H])C([H])([H])C2([H])N([H])C(=O)C1([H])N(C(=O)C([H])(N([H])C(=O)C([H])(N([H])C([H])([H])[H])C([H])([H])[H])C(C([H])([H])[H])(C([H])([H])[H])C([H])([H])[H])C([H])([H])c2c([H])c(OC([H])([H])C([H])(C([H])([H])[H])C(C([H])([H])[H])(C([H])([H])[H])C([H])([H])C([H])([H])c3c(C([H])([H])C([H])([H])C([H])([H])[H])nc(C([H])([H])C([H])(N(C(=O)N4C([H])([H])C([H])([H])C([H])([H])C([H])(n5nc(-c6c([H])c([H])c(Oc7c([H])c([H])c(F)c([H])c7F)c([H])c6[H])c(C(=O)N([H])[H])c5N([H])[H])C4([H])[H])C([H])([H])C([H])([H])C([H])([H])[H])C([H])([H])[H])c([H])c3C([H])([H])[H])c([H])c([H])c2C1([H])[H]

>  <smiles>  (32) 
[H]c1c([H])c([H])c2c(c1[H])C([H])([H])C([H])([H])C([H])([H])C2([H])N([H])C(=O)C1([H])N(C(=O)C([H])(N([H])C(=O)C([H])(N([H])C([H])([H])[H])C([H])([H])[H])C(C([H])([H])[H])(C([H])([H])[H])C([H])([H])[H])C([H])([H])c2c([H])c(OC([H])([H])C([H])(C([H])([H])[H])C(C([H])([H])[H])(C([H])([H])[H])C([H])([H])C([H])([H])c3c(C([H])([H])C([H])([H])C([H])([H])[H])nc(C([H])([H])C([H])(N(C(=O)N4C([H])([H])C([H])([H])C([H])([H])C([H])(n5nc(-c6c([H])c([H])c(Oc7c([H])c([H])c(F)c([H])c7F)c([H])c6[H])c(C(=O)N([H])[H])c5N([H])[H])C4([H])[H])C([H])([H])C([H])([H])C([H])([H])[H])C([H])([H])[H])c([H])c3C([H])([H])[H])c([H])c([H])c2C1([H])[H]

$$$$
33:0:0
     RDKit          3D

 96105  0  0  1  0  0  0  0  0999 V2000
  -27.4070  -21.6980   19.9720 C   0  0  0  0  0  3  0  0  0  0  0  0
  -29.5250  -22.2660   19.6610 C   0  0  0  0  0  3  0  0  0  0  0  0
  -29.0040  -20.2870   20.5390 C   0  0  0  0  0  0  0  0  0  0  0  0
  -28.2510  -22.6050   19.5060 N   0  0  0  0  0  0  0  0  0  0  0  0
  -27.7050  -20.5250   20.5120 N   0  0  0  0  0  0  0  0  0  0  0  0
  -29.9750  -21.1080   20.1430 N   0  0  0  0  0  0  0  0  0  0  0  0
  -30.5710  -23.2440   19.1120 C   0  0  0  0  0  2  0  0  0  0  0  0
  -30.2300  -24.7600   19.1930 C   0  0  0  0  0  3  0  0  0  0  0  0
  -30.2050  -25.3840   20.6110 C   0  0  0  0  0  3  0  0  0  0  0  0
  -30.3450  -27.8680   19.9690 C   0  0  0  0  0  1  0  0  0  0  0  0
  -29.4610  -27.0960   22.2530 C   0  0  0  0  0  1  0  0  0  0  0  0
  -29.5560  -26.7970   20.7380 C   0  0  2  0  0  0  0  0  0  0  0  0
  -28.2920  -26.6210   20.1000 O   0  0  0  0  0  0  0  0  0  0  0  0
  -24.5710  -31.8890   23.2380 C   0  0  0  0  0  0  0  0  0  0  0  0
  -27.2120  -27.4760   20.1540 C   0  0  0  0  0  0  0  0  0  0  0  0
  -23.3540  -30.4870   21.6030 C   0  0  0  0  0  3  0  0  0  0  0  0
  -24.8020  -28.9580   20.1700 C   0  0  0  0  0  0  0  0  0  0  0  0
  -25.8730  -30.8680   21.3760 C   0  0  0  0  0  2  0  0  0  0  0  0
  -25.9630  -29.5010   20.7350 C   0  0  0  0  0  0  0  0  0  0  0  0
  -27.1770  -28.7800   20.7060 C   0  0  0  0  0  3  0  0  0  0  0  0
  -26.0320  -26.9500   19.5880 C   0  0  0  0  0  3  0  0  0  0  0  0
  -24.8320  -27.6830   19.5850 C   0  0  0  0  0  3  0  0  0  0  0  0
  -23.5540  -29.8080   20.2230 C   0  0  0  0  0  2  0  0  0  0  0  0
  -24.6180  -31.0920   22.1340 N   0  0  0  0  0  0  0  0  0  0  0  0
  -23.4940  -32.1580   23.7880 O   0  0  0  0  0  0  0  0  0  0  0  0
  -22.7150  -29.4630   22.5660 C   0  0  0  0  0  0  0  0  0  0  0  0
  -21.3900  -29.2780   22.4470 N   0  0  0  0  0  0  0  0  0  0  0  0
  -23.4070  -28.8380   23.3760 O   0  0  0  0  0  0  0  0  0  0  0  0
  -20.8960  -29.8370   21.7660 H   0  0  0  0  0  0  0  0  0  0  0  0
  -18.0230  -28.0730   22.9480 C   0  0  0  0  0  0  0  0  0  0  0  0
  -20.5800  -28.3400   23.2200 C   0  0  0  0  0  3  0  0  0  0  0  0
  -20.6890  -26.9080   22.6490 C   0  0  0  0  0  2  0  0  0  0  0  0
  -19.5890  -26.5770   21.6370 C   0  0  0  0  0  2  0  0  0  0  0  0
  -18.2050  -26.7210   22.2780 C   0  0  0  0  0  2  0  0  0  0  0  0
  -19.1380  -28.8390   23.3760 C   0  0  0  0  0  0  0  0  0  0  0  0
  -18.9160  -30.1060   23.9600 C   0  0  0  0  0  3  0  0  0  0  0  0
  -17.6120  -30.6060   24.1200 C   0  0  0  0  0  3  0  0  0  0  0  0
  -16.5090  -29.8380   23.7070 C   0  0  0  0  0  3  0  0  0  0  0  0
  -16.7160  -28.5730   23.1290 C   0  0  0  0  0  3  0  0  0  0  0  0
  -25.8620  -32.5190   23.8480 C   0  0  0  0  0  3  0  0  0  0  0  0
  -25.5540  -33.9140   24.1880 N   0  0  0  0  0  0  0  0  0  0  0  0
  -25.8770  -34.9700   23.4290 C   0  0  0  0  0  0  0  0  0  0  0  0
  -26.5360  -34.8730   22.3900 O   0  0  0  0  0  0  0  0  0  0  0  0
  -24.9670  -34.0650   24.9960 H   0  0  0  0  0  0  0  0  0  0  0  0
  -24.1360  -36.7510   23.1020 C   0  0  0  0  0  1  0  0  0  0  0  0
  -25.3900  -36.3540   23.8970 C   0  0  0  0  0  3  0  0  0  0  0  0
  -27.5360  -37.2410   24.6960 C   0  0  0  0  0  1  0  0  0  0  0  0
  -26.4170  -37.4110   23.7720 N   0  0  0  0  0  0  0  0  0  0  0  0
  -26.0110  -38.3280   23.9330 H   0  0  0  0  0  0  0  0  0  0  0  0
  -26.3980  -31.7400   25.1100 C   0  0  1  0  0  0  0  0  0  0  0  0
  -25.3190  -31.4940   26.1890 C   0  0  0  0  0  1  0  0  0  0  0  0
  -26.9780  -30.3670   24.6940 C   0  0  0  0  0  1  0  0  0  0  0  0
  -27.5560  -32.5300   25.7630 C   0  0  0  0  0  1  0  0  0  0  0  0
  -29.3080  -19.0680   21.0620 O   0  0  0  0  0  0  0  0  0  0  0  0
  -30.7330  -14.4680   20.1070 C   0  0  0  0  0  0  0  0  0  0  0  0
  -30.3570  -12.3330   18.9310 C   0  0  0  0  0  2  0  0  0  0  0  0
  -29.3590  -12.5940   17.7830 C   0  0  0  0  0  2  0  0  0  0  0  0
  -27.9030  -12.4640   18.2770 C   0  0  0  0  0  2  0  0  0  0  0  0
  -27.6410  -13.2540   19.5900 C   0  0  0  0  0  3  0  0  0  0  0  0
  -28.7550  -12.9960   20.6320 C   0  0  0  0  0  2  0  0  0  0  0  0
  -30.0500  -13.2960   19.9990 N   0  0  0  0  0  0  0  0  0  0  0  0
  -31.8490  -14.6480   19.6120 O   0  0  0  0  0  0  0  0  0  0  0  0
  -30.8800  -17.3900   21.8750 C   0  0  0  0  0  2  0  0  0  0  0  0
  -30.4820  -17.7330   19.4060 C   0  0  0  0  0  2  0  0  0  0  0  0
  -30.0100  -16.1080   21.8150 C   0  0  0  0  0  2  0  0  0  0  0  0
  -29.5460  -16.5070   19.4520 C   0  0  0  0  0  2  0  0  0  0  0  0
  -30.5630  -18.4340   20.7770 C   0  0  0  0  0  3  0  0  0  0  0  0
  -29.9750  -15.5320   20.4660 N   0  0  0  0  0  0  0  0  0  0  0  0
  -25.2860  -13.8560   20.4310 C   0  0  0  0  0  0  0  0  0  0  0  0
  -24.2330  -13.0800   20.8390 C   0  0  0  0  0  0  0  0  0  0  0  0
  -24.6880  -11.7270   20.7590 C   0  0  0  0  0  0  0  0  0  0  0  0
  -26.3140  -12.9750   20.1330 N   0  0  0  0  0  0  0  0  0  0  0  0
  -25.9610  -11.6900   20.3860 N   0  0  0  0  0  0  0  0  0  0  0  0
  -23.9680  -10.4630   20.9610 C   0  0  0  0  0  0  0  0  0  0  0  0
  -24.4210   -9.4970   21.8840 C   0  0  0  0  0  3  0  0  0  0  0  0
  -23.7020   -8.2970   22.0770 C   0  0  0  0  0  3  0  0  0  0  0  0
  -22.5150   -8.0550   21.3430 C   0  0  0  0  0  0  0  0  0  0  0  0
  -22.0800   -9.0130   20.4110 C   0  0  0  0  0  3  0  0  0  0  0  0
  -22.8000  -10.2040   20.2170 C   0  0  0  0  0  3  0  0  0  0  0  0
  -21.7670   -6.9080   21.4420 O   0  0  0  0  0  0  0  0  0  0  0  0
  -21.7100   -6.1820   22.6060 C   0  0  0  0  0  0  0  0  0  0  0  0
  -21.2880   -6.7600   23.8240 C   0  0  0  0  0  3  0  0  0  0  0  0
  -21.1800   -5.9610   24.9810 C   0  0  0  0  0  3  0  0  0  0  0  0
  -21.4850   -4.5870   24.9190 C   0  0  0  0  0  0  0  0  0  0  0  0
  -21.8990   -4.0110   23.7060 C   0  0  0  0  0  3  0  0  0  0  0  0
  -22.0100   -4.8060   22.5530 C   0  0  0  0  0  0  0  0  0  0  0  0
  -22.3890   -4.2420   21.3810 F   0  0  0  0  0  0  0  0  0  0  0  0
  -21.3760   -3.8170   26.0270 F   0  0  0  0  0  0  0  0  0  0  0  0
  -22.8530  -13.5550   21.1910 C   0  0  0  0  0  0  0  0  0  0  0  0
  -22.1660  -12.8520   22.0840 N   0  0  0  0  0  0  0  0  0  0  0  0
  -22.3930  -14.5890   20.7080 O   0  0  0  0  0  0  0  0  0  0  0  0
  -22.5480  -12.0150   22.4970 H   0  0  0  0  0  0  0  0  0  0  0  0
  -21.2430  -13.1580   22.3570 H   0  0  0  0  0  0  0  0  0  0  0  0
  -25.4480  -15.2290   20.2750 N   0  0  0  0  0  0  0  0  0  0  0  0
  -24.6960  -15.8880   20.4440 H   0  0  0  0  0  0  0  0  0  0  0  0
  -26.3020  -15.6700   19.9580 H   0  0  0  0  0  0  0  0  0  0  0  0
  1  5  1  0
  2  7  1  0
  2  6  1  0
  3 54  1  0
  4  2  1  0
  4  1  2  0
  5  3  2  0
  6  3  2  0
  7  8  1  0
  8  9  2  0
  9 12  1  0
 12 10  1  6
 12 11  1  0
 13 15  1  0
 13 12  1  0
 14 25  2  0
 15 20  1  0
 16 24  1  0
 16 26  1  0
 17 23  1  0
 17 19  1  0
 18 24  1  0
 19 18  1  0
 20 19  2  0
 21 15  2  0
 22 21  1  0
 22 17  2  0
 23 16  1  0
 24 14  1  0
 26 28  2  0
 27 26  1  0
 29 27  1  0
 30 39  2  0
 30 35  1  0
 31 27  1  0
 31 35  1  0
 32 31  1  0
 33 34  1  0
 33 32  1  0
 34 30  1  0
 35 36  2  0
 36 37  1  0
 38 37  2  0
 39 38  1  0
 40 14  1  0
 40 41  1  0
 40 50  1  0
 41 44  1  0
 42 46  1  0
 42 41  1  0
 43 42  2  0
 46 45  1  0
 48 46  1  0
 48 49  1  0
 48 47  1  0
 50 53  1  1
 50 51  1  0
 52 50  1  0
 55 68  1  0
 56 61  1  0
 57 58  1  0
 57 56  1  0
 59 58  1  0
 59 72  1  0
 59 60  1  0
 61 55  1  0
 61 60  1  0
 62 55  2  0
 64 66  1  0
 64 67  1  0
 65 63  1  0
 66 68  1  0
 67 54  1  0
 67 63  1  0
 68 65  1  0
 69 70  2  0
 70 89  1  0
 71 70  1  0
 71 74  1  0
 72 73  1  0
 72 69  1  0
 73 71  2  0
 74 75  1  0
 75 76  2  0
 77 80  1  0
 77 76  1  0
 78 77  2  0
 79 78  1  0
 79 74  2  0
 80 81  1  0
 81 82  1  0
 82 83  2  0
 84 83  1  0
 84 88  1  0
 85 84  2  0
 86 81  2  0
 86 85  1  0
 87 86  1  0
 89 90  1  0
 90 93  1  0
 90 92  1  0
 91 89  2  0
 94 69  1  0
 94 95  1  0
 96 94  1  0
M  ISO  4  12 101  13 101  55 100  68 100
M  END
>  <TORSDO>  (33) 
F 21

>  <SCORE>  (33) 
-13.488

>  <name>  (33) 
33

>  <ligand_id>  (33) 
33

>  <original_smiles>  (33) 
[H]c1nc(OC2([H])C([H])([H])C([H])([H])N(C(=O)N3C([H])([H])C([H])([H])C([H])([H])C([H])(n4nc(-c5c([H])c([H])c(Oc6c([H])c([H])c(F)c([H])c6F)c([H])c5[H])c(C(=O)N([H])[H])c4N([H])[H])C3([H])[H])C([H])([H])C2([H])[H])nc(C([H])([H])C([H])([H])C([H])([H])C(Oc2c([H])c([H])c3c(c2[H])C([H])([H])N(C(=O)C([H])(N([H])C(=O)C([H])(N([H])C([H])([H])[H])C([H])([H])[H])C(C([H])([H])[H])(C([H])([H])[H])C([H])([H])[H])C([H])(C(=O)N([H])C2([H])c4c([H])c([H])c([H])c([H])c4C([H])([H])C([H])([H])C2([H])[H])C3([H])[H])(C([H])([H])[H])C([H])([H])[H])n1

>  <smiles>  (33) 
[H]c1nc(OC2([H])C([H])([H])C([H])([H])N(C(=O)N3C([H])([H])C([H])([H])C([H])([H])C([H])(n4nc(-c5c([H])c([H])c(Oc6c([H])c([H])c(F)c([H])c6F)c([H])c5[H])c(C(=O)N([H])[H])c4N([H])[H])C3([H])[H])C([H])([H])C2([H])[H])nc(C([H])([H])C([H])([H])C([H])([H])C(Oc2c([H])c([H])c3c(c2[H])C([H])([H])N(C(=O)C([H])(N([H])C(=O)C([H])(N([H])C([H])([H])[H])C([H])([H])[H])C(C([H])([H])[H])(C([H])([H])[H])C([H])([H])[H])C([H])(C(=O)N([H])C2([H])c4c([H])c([H])c([H])c([H])c4C([H])([H])C([H])([H])C2([H])[H])C3([H])[H])(C([H])([H])[H])C([H])([H])[H])n1

$$$$
34:0:0
     RDKit          3D

 96104  0  0  1  0  0  0  0  0999 V2000
  -26.9140  -21.9490   20.9000 C   0  0  0  0  0  2  0  0  0  0  0  0
  -27.9650  -21.2260   20.0320 C   0  0  0  0  0  2  0  0  0  0  0  0
  -27.5630  -21.0390   18.5530 C   0  0  0  0  0  2  0  0  0  0  0  0
  -29.2670  -23.9030   17.0480 C   0  0  0  0  0  3  0  0  0  0  0  0
  -29.9730  -21.9370   15.9230 C   0  0  0  0  0  3  0  0  0  0  0  0
  -30.0600  -23.3390   16.0360 C   0  0  0  0  0  0  0  0  0  0  0  0
  -28.4390  -21.8500   17.6100 C   0  0  0  0  0  0  0  0  0  0  0  0
  -28.4550  -23.1590   17.8190 N   0  0  0  0  0  0  0  0  0  0  0  0
  -29.1740  -21.2000   16.7190 N   0  0  0  0  0  0  0  0  0  0  0  0
  -30.9250  -23.8970   13.6630 C   0  0  0  0  0  1  0  0  0  0  0  0
  -32.4570  -23.7600   15.5960 C   0  0  0  0  0  1  0  0  0  0  0  0
  -31.0240  -24.1970   15.1880 C   0  0  2  0  0  0  0  0  0  0  0  0
  -30.8270  -25.7500   15.4330 C   0  0  0  0  0  0  0  0  0  0  0  0
  -29.7260  -27.8580   14.7240 C   0  0  0  0  0  2  0  0  0  0  0  0
  -28.7820  -28.5150   15.7420 C   0  0  0  0  0  2  0  0  0  0  0  0
  -27.3760  -27.8990   15.6540 C   0  0  0  0  0  2  0  0  0  0  0  0
  -27.4130  -26.3520   15.6960 C   0  0  0  0  0  3  0  0  0  0  0  0
  -28.4220  -25.8050   14.6690 C   0  0  0  0  0  2  0  0  0  0  0  0
  -29.7410  -26.3990   14.9350 N   0  0  0  0  0  0  0  0  0  0  0  0
  -31.7290  -26.3790   15.9990 O   0  0  0  0  0  0  0  0  0  0  0  0
  -25.3790  -24.8950   16.3010 C   0  0  0  0  0  0  0  0  0  0  0  0
  -24.1620  -24.7200   15.6930 C   0  0  0  0  0  0  0  0  0  0  0  0
  -24.1930  -25.5300   14.5180 C   0  0  0  0  0  0  0  0  0  0  0  0
  -26.0850  -25.7780   15.4980 N   0  0  0  0  0  0  0  0  0  0  0  0
  -25.3760  -26.1170   14.3920 N   0  0  0  0  0  0  0  0  0  0  0  0
  -23.1430  -25.8270   13.5340 C   0  0  0  0  0  0  0  0  0  0  0  0
  -23.3130  -25.5250   12.1660 C   0  0  0  0  0  3  0  0  0  0  0  0
  -22.2870  -25.8060   11.2380 C   0  0  0  0  0  3  0  0  0  0  0  0
  -21.0760  -26.3910   11.6750 C   0  0  0  0  0  0  0  0  0  0  0  0
  -20.9210  -26.7100   13.0350 C   0  0  0  0  0  3  0  0  0  0  0  0
  -21.9450  -26.4350   13.9560 C   0  0  0  0  0  3  0  0  0  0  0  0
  -20.0320  -26.7180   10.8420 O   0  0  0  0  0  0  0  0  0  0  0  0
  -19.7500  -25.9910    9.7130 C   0  0  0  0  0  0  0  0  0  0  0  0
  -19.4330  -24.6160    9.7730 C   0  0  0  0  0  3  0  0  0  0  0  0
  -19.0880  -23.9230    8.5960 C   0  0  0  0  0  3  0  0  0  0  0  0
  -19.0410  -24.6000    7.3640 C   0  0  0  0  0  0  0  0  0  0  0  0
  -19.3500  -25.9700    7.3030 C   0  0  0  0  0  3  0  0  0  0  0  0
  -19.7010  -26.6620    8.4740 C   0  0  0  0  0  0  0  0  0  0  0  0
  -19.9780  -27.9870    8.4140 F   0  0  0  0  0  0  0  0  0  0  0  0
  -18.7000  -23.9330    6.2360 F   0  0  0  0  0  0  0  0  0  0  0  0
  -23.0050  -23.9200   16.2170 C   0  0  0  0  0  0  0  0  0  0  0  0
  -22.2880  -23.2310   15.3340 N   0  0  0  0  0  0  0  0  0  0  0  0
  -22.7600  -23.8660   17.4200 O   0  0  0  0  0  0  0  0  0  0  0  0
  -22.5040  -23.2590   14.3480 H   0  0  0  0  0  0  0  0  0  0  0  0
  -21.5070  -22.6690   15.6470 H   0  0  0  0  0  0  0  0  0  0  0  0
  -25.9350  -24.3880   17.4690 N   0  0  0  0  0  0  0  0  0  0  0  0
  -25.4120  -23.8070   18.1140 H   0  0  0  0  0  0  0  0  0  0  0  0
  -26.8820  -24.5700   17.7850 H   0  0  0  0  0  0  0  0  0  0  0  0
  -27.4890  -23.1680   21.6400 C   0  0  0  0  0  2  0  0  0  0  0  0
  -28.1780  -24.1490   20.6580 C   0  0  0  0  0  2  0  0  0  0  0  0
  -28.0470  -26.3760   19.6720 C   0  0  0  0  0  1  0  0  0  0  0  0
  -27.8710  -25.5800   20.9130 N   0  0  2  0  0  4  0  0  0  0  0  0
  -26.8830  -25.6190   21.1200 H   0  0  0  0  0  0  0  0  0  0  0  0
  -28.6280  -26.1050   22.0840 C   0  0  0  0  0  2  0  0  0  0  0  0
  -28.6780  -27.6420   22.2090 C   0  0  0  0  0  2  0  0  0  0  0  0
  -29.0170  -27.9750   23.5640 O   0  0  0  0  0  0  0  0  0  0  0  0
  -27.7200  -31.7830   29.4540 C   0  0  0  0  0  0  0  0  0  0  0  0
  -28.0580  -28.4760   24.4220 C   0  0  0  0  0  0  0  0  0  0  0  0
  -25.7460  -30.7340   28.3930 C   0  0  0  0  0  3  0  0  0  0  0  0
  -26.1390  -29.7020   26.1010 C   0  0  0  0  0  0  0  0  0  0  0  0
  -27.8090  -31.3300   27.0050 C   0  0  0  0  0  2  0  0  0  0  0  0
  -27.4580  -30.1660   26.0990 C   0  0  0  0  0  0  0  0  0  0  0  0
  -28.4190  -29.5550   25.2650 C   0  0  0  0  0  3  0  0  0  0  0  0
  -26.7230  -27.9970   24.4750 C   0  0  0  0  0  3  0  0  0  0  0  0
  -25.7680  -28.6080   25.3030 C   0  0  0  0  0  3  0  0  0  0  0  0
  -25.1580  -30.4280   26.9930 C   0  0  0  0  0  2  0  0  0  0  0  0
  -27.1390  -31.2840   28.3250 N   0  0  0  0  0  0  0  0  0  0  0  0
  -27.1000  -31.8230   30.5250 O   0  0  0  0  0  0  0  0  0  0  0  0
  -25.6310  -29.4630   29.2610 C   0  0  0  0  0  0  0  0  0  0  0  0
  -24.5740  -29.3990   30.0870 N   0  0  0  0  0  0  0  0  0  0  0  0
  -26.4640  -28.5580   29.1670 O   0  0  0  0  0  0  0  0  0  0  0  0
  -23.9330  -30.1830   30.1060 H   0  0  0  0  0  0  0  0  0  0  0  0
  -22.2930  -28.3040   32.6640 C   0  0  0  0  0  0  0  0  0  0  0  0
  -24.2420  -28.2810   30.9710 C   0  0  0  0  0  3  0  0  0  0  0  0
  -23.4400  -27.1980   30.2130 C   0  0  0  0  0  2  0  0  0  0  0  0
  -21.9220  -27.3720   30.3400 C   0  0  0  0  0  2  0  0  0  0  0  0
  -21.4990  -27.3290   31.8110 C   0  0  0  0  0  2  0  0  0  0  0  0
  -23.5750  -28.7620   32.2640 C   0  0  0  0  0  0  0  0  0  0  0  0
  -24.2530  -29.6950   33.0770 C   0  0  0  0  0  3  0  0  0  0  0  0
  -23.6780  -30.1600   34.2750 C   0  0  0  0  0  3  0  0  0  0  0  0
  -22.4150  -29.6900   34.6750 C   0  0  0  0  0  3  0  0  0  0  0  0
  -21.7270  -28.7640   33.8710 C   0  0  0  0  0  3  0  0  0  0  0  0
  -29.1780  -32.3410   29.4460 C   0  0  0  0  0  3  0  0  0  0  0  0
  -30.2430  -31.3130   29.9940 C   0  0  1  0  0  0  0  0  0  0  0  0
  -29.8660  -30.7050   31.3650 C   0  0  0  0  0  1  0  0  0  0  0  0
  -30.4310  -30.1420   29.0040 C   0  0  0  0  0  1  0  0  0  0  0  0
  -31.6210  -32.0030   30.1260 C   0  0  0  0  0  1  0  0  0  0  0  0
  -29.1870  -33.5750   30.2420 N   0  0  0  0  0  0  0  0  0  0  0  0
  -29.2080  -34.8100   29.7270 C   0  0  0  0  0  0  0  0  0  0  0  0
  -29.2940  -35.0310   28.5170 O   0  0  0  0  0  0  0  0  0  0  0  0
  -29.0700  -33.4730   31.2390 H   0  0  0  0  0  0  0  0  0  0  0  0
  -27.7310  -36.6500   30.5930 C   0  0  0  0  0  1  0  0  0  0  0  0
  -29.1130  -35.9890   30.7140 C   0  0  0  0  0  3  0  0  0  0  0  0
  -31.5020  -36.5140   30.8800 C   0  0  0  0  0  1  0  0  0  0  0  0
  -30.1710  -37.0040   30.5250 N   0  0  0  0  0  0  0  0  0  0  0  0
  -29.9820  -37.8300   31.0870 H   0  0  0  0  0  0  0  0  0  0  0  0
  1 49  1  0
  2  1  1  0
  3  2  1  0
  4  8  1  0
  5  6  1  0
  5  9  2  0
  6  4  2  0
  7  8  2  0
  7  3  1  0
  9  7  1  0
 12 10  1  6
 12 13  1  0
 12 11  1  0
 12  6  1  0
 13 20  2  0
 14 19  1  0
 14 15  1  0
 16 17  1  0
 16 15  1  0
 17 18  1  0
 18 19  1  0
 19 13  1  0
 21 46  1  0
 22 41  1  0
 22 21  2  0
 23 22  1  0
 24 17  1  0
 24 21  1  0
 25 23  2  0
 25 24  1  0
 26 31  1  0
 26 23  1  0
 27 26  2  0
 28 29  2  0
 28 27  1  0
 29 30  1  0
 30 31  2  0
 32 29  1  0
 33 34  1  0
 33 32  1  0
 35 34  2  0
 36 35  1  0
 37 36  2  0
 37 38  1  0
 38 33  2  0
 39 38  1  0
 40 36  1  0
 41 43  2  0
 42 45  1  0
 42 41  1  0
 44 42  1  0
 46 48  1  0
 46 47  1  0
 50 52  1  0
 50 49  1  0
 51 52  1  0
 52 53  1  1
 52 54  1  0
 54 55  1  0
 55 56  1  0
 56 58  1  0
 57 68  2  0
 58 64  2  0
 58 63  1  0
 59 69  1  0
 60 66  1  0
 61 67  1  0
 62 60  1  0
 62 61  1  0
 63 62  2  0
 64 65  1  0
 65 60  2  0
 66 59  1  0
 67 59  1  0
 67 57  1  0
 69 70  1  0
 70 72  1  0
 71 69  2  0
 73 82  1  0
 74 70  1  0
 74 78  1  0
 75 76  1  0
 75 74  1  0
 76 77  1  0
 77 73  1  0
 78 73  2  0
 78 79  1  0
 79 80  2  0
 80 81  1  0
 82 81  2  0
 83 57  1  0
 83 84  1  0
 83 88  1  0
 84 87  1  1
 84 85  1  0
 86 84  1  0
 88 91  1  0
 89 88  1  0
 89 93  1  0
 90 89  2  0
 93 92  1  0
 95 93  1  0
 95 94  1  0
 95 96  1  0
M  ISO  4  12 100  13 100  55 101  56 101
M  END
>  <TORSDO>  (34) 
F 25

>  <SCORE>  (34) 
-3.980

>  <name>  (34) 
34

>  <ligand_id>  (34) 
34

>  <original_smiles>  (34) 
[H]c1nc(C([H])([H])C([H])([H])C([H])([H])C([H])([H])C([H])([H])[N+]([H])(C([H])([H])[H])C([H])([H])C([H])([H])Oc2c([H])c([H])c3c(c2[H])C([H])([H])N(C(=O)C([H])(N([H])C(=O)C([H])(N([H])C([H])([H])[H])C([H])([H])[H])C(C([H])([H])[H])(C([H])([H])[H])C([H])([H])[H])C([H])(C(=O)N([H])C2([H])c4c([H])c([H])c([H])c([H])c4C([H])([H])C([H])([H])C2([H])[H])C3([H])[H])nc([H])c1C(C(=O)N1C([H])([H])C([H])([H])C([H])([H])C([H])(n2nc(-c3c([H])c([H])c(Oc4c([H])c([H])c(F)c([H])c4F)c([H])c3[H])c(C(=O)N([H])[H])c2N([H])[H])C1([H])[H])(C([H])([H])[H])C([H])([H])[H]

>  <smiles>  (34) 
[H]c1nc(C([H])([H])C([H])([H])C([H])([H])C([H])([H])C([H])([H])[N+]([H])(C([H])([H])[H])C([H])([H])C([H])([H])Oc2c([H])c([H])c3c(c2[H])C([H])([H])N(C(=O)C([H])(N([H])C(=O)C([H])(N([H])C([H])([H])[H])C([H])([H])[H])C(C([H])([H])[H])(C([H])([H])[H])C([H])([H])[H])C([H])(C(=O)N([H])C2([H])c4c([H])c([H])c([H])c([H])c4C([H])([H])C([H])([H])C2([H])[H])C3([H])[H])nc([H])c1C(C(=O)N1C([H])([H])C([H])([H])C([H])([H])C([H])(n2nc(-c3c([H])c([H])c(Oc4c([H])c([H])c(F)c([H])c4F)c([H])c3[H])c(C(=O)N([H])[H])c2N([H])[H])C1([H])[H])(C([H])([H])[H])C([H])([H])[H]

$$$$
35:0:0
     RDKit          3D

100108  0  0  1  0  0  0  0  0999 V2000
  -30.7970  -19.9570   22.0510 C   0  0  0  0  0  0  0  0  0  0  0  0
  -30.5950  -20.5400   20.8030 C   0  0  0  0  0  0  0  0  0  0  0  0
  -30.4680  -18.3050   20.6430 C   0  0  0  0  0  0  0  0  0  0  0  0
  -30.7850  -18.5750   21.8970 N   0  0  0  0  0  0  0  0  0  0  0  0
  -30.4250  -19.4550   19.9000 N   0  0  0  0  0  0  0  0  0  0  0  0
  -30.4370  -21.8230   23.8070 C   0  0  0  0  0  1  0  0  0  0  0  0
  -32.6060  -20.6770   23.6470 C   0  0  0  0  0  1  0  0  0  0  0  0
  -30.5520  -19.4810   24.5040 C   0  0  0  0  0  1  0  0  0  0  0  0
  -31.0950  -20.4850   23.4590 C   0  0  2  0  0  0  0  0  0  0  0  0
  -28.8530  -19.2130   17.9300 C   0  0  0  0  0  1  0  0  0  0  0  0
  -31.4060  -18.8870   17.6910 C   0  0  0  0  0  1  0  0  0  0  0  0
  -30.2590  -19.5870   18.4440 C   0  0  0  0  0  3  0  0  0  0  0  0
  -28.4460  -16.9100   20.6400 C   0  0  0  0  0  1  0  0  0  0  0  0
  -29.9290  -16.9220   20.2280 C   0  0  0  0  0  3  0  0  0  0  0  0
  -31.1030  -14.6870   20.0180 C   0  0  0  0  0  0  0  0  0  0  0  0
  -30.7150  -12.4800   18.9270 C   0  0  0  0  0  2  0  0  0  0  0  0
  -29.7200  -12.6050   17.7550 C   0  0  0  0  0  2  0  0  0  0  0  0
  -28.2730  -12.4780   18.2560 C   0  0  0  0  0  2  0  0  0  0  0  0
  -27.9900  -13.3900   19.4770 C   0  0  0  0  0  3  0  0  0  0  0  0
  -29.0880  -13.2410   20.5560 C   0  0  0  0  0  2  0  0  0  0  0  0
  -30.3920  -13.5180   19.9280 N   0  0  0  0  0  0  0  0  0  0  0  0
  -32.1510  -14.8520   19.3810 O   0  0  0  0  0  0  0  0  0  0  0  0
  -31.0210  -15.7060   22.1930 C   0  0  0  0  0  1  0  0  0  0  0  0
  -30.5930  -15.6890   20.7900 N   0  0  0  0  0  0  0  0  0  0  0  0
  -25.6460  -14.0620   20.3000 C   0  0  0  0  0  0  0  0  0  0  0  0
  -24.5820  -13.3250   20.7330 C   0  0  0  0  0  0  0  0  0  0  0  0
  -24.9920  -11.9580   20.6600 C   0  0  0  0  0  0  0  0  0  0  0  0
  -26.6570  -13.1530   20.0210 N   0  0  0  0  0  0  0  0  0  0  0  0
  -26.2640  -11.8800   20.2880 N   0  0  0  0  0  0  0  0  0  0  0  0
  -24.2290  -10.7230   20.8610 C   0  0  0  0  0  0  0  0  0  0  0  0
  -24.6330   -9.7500   21.8010 C   0  0  0  0  0  3  0  0  0  0  0  0
  -23.8700   -8.5790   21.9900 C   0  0  0  0  0  3  0  0  0  0  0  0
  -22.6880   -8.3720   21.2380 C   0  0  0  0  0  0  0  0  0  0  0  0
  -22.3040   -9.3330   20.2870 C   0  0  0  0  0  3  0  0  0  0  0  0
  -23.0670  -10.4960   20.0960 C   0  0  0  0  0  3  0  0  0  0  0  0
  -21.8970   -7.2520   21.3380 O   0  0  0  0  0  0  0  0  0  0  0  0
  -21.7700   -6.5640   22.5170 C   0  0  0  0  0  0  0  0  0  0  0  0
  -21.3050   -7.1870   23.6970 C   0  0  0  0  0  3  0  0  0  0  0  0
  -21.1240   -6.4260   24.8700 C   0  0  0  0  0  3  0  0  0  0  0  0
  -21.3960   -5.0450   24.8620 C   0  0  0  0  0  0  0  0  0  0  0  0
  -21.8540   -4.4230   23.6870 C   0  0  0  0  0  3  0  0  0  0  0  0
  -22.0370   -5.1810   22.5180 C   0  0  0  0  0  0  0  0  0  0  0  0
  -22.4570   -4.5740   21.3810 F   0  0  0  0  0  0  0  0  0  0  0  0
  -21.2170   -4.3120   25.9850 F   0  0  0  0  0  0  0  0  0  0  0  0
  -23.2200  -13.8490   21.0860 C   0  0  0  0  0  0  0  0  0  0  0  0
  -22.5200  -13.1740   21.9870 N   0  0  0  0  0  0  0  0  0  0  0  0
  -22.7900  -14.8950   20.5970 O   0  0  0  0  0  0  0  0  0  0  0  0
  -22.8810  -12.3270   22.3990 H   0  0  0  0  0  0  0  0  0  0  0  0
  -21.6100  -13.5070   22.2690 H   0  0  0  0  0  0  0  0  0  0  0  0
  -25.8180  -15.4250   20.0840 N   0  0  0  0  0  0  0  0  0  0  0  0
  -25.0300  -16.0590   20.1460 H   0  0  0  0  0  0  0  0  0  0  0  0
  -26.5960  -15.8120   19.5670 H   0  0  0  0  0  0  0  0  0  0  0  0
  -30.6680  -22.0160   20.3900 C   0  0  0  0  0  2  0  0  0  0  0  0
  -29.3540  -22.8580   20.1940 C   0  0  0  0  0  2  0  0  0  0  0  0
  -29.2110  -24.4770   22.2270 C   0  0  0  0  0  1  0  0  0  0  0  0
  -30.6230  -25.0930   20.2410 C   0  0  0  0  0  1  0  0  0  0  0  0
  -29.3280  -24.3790   20.6850 C   0  0  1  0  0  0  0  0  0  0  0  0
  -26.7830  -24.6930   20.8060 C   0  0  0  0  0  1  0  0  0  0  0  0
  -28.0950  -25.1760   20.0920 C   0  0  0  0  0  3  0  0  0  0  0  0
  -28.3220  -26.6380   20.1220 O   0  0  0  0  0  0  0  0  0  0  0  0
  -24.6010  -31.8970   23.2150 C   0  0  0  0  0  0  0  0  0  0  0  0
  -27.2420  -27.5060   20.0090 C   0  0  0  0  0  0  0  0  0  0  0  0
  -23.4170  -30.5520   21.5130 C   0  0  0  0  0  3  0  0  0  0  0  0
  -24.8860  -29.0890   20.0290 C   0  0  0  0  0  0  0  0  0  0  0  0
  -25.9540  -30.8950   21.3760 C   0  0  0  0  0  2  0  0  0  0  0  0
  -26.0410  -29.5530   20.6730 C   0  0  0  0  0  0  0  0  0  0  0  0
  -27.2210  -28.7630   20.6730 C   0  0  0  0  0  3  0  0  0  0  0  0
  -26.1000  -27.1340   19.2700 C   0  0  0  0  0  3  0  0  0  0  0  0
  -24.9130  -27.8780   19.3210 C   0  0  0  0  0  3  0  0  0  0  0  0
  -23.6500  -29.9540   20.1020 C   0  0  0  0  0  2  0  0  0  0  0  0
  -24.6730  -31.1320   22.0900 N   0  0  0  0  0  0  0  0  0  0  0  0
  -23.5140  -32.1530   23.7500 O   0  0  0  0  0  0  0  0  0  0  0  0
  -22.7680  -29.4830   22.4230 C   0  0  0  0  0  0  0  0  0  0  0  0
  -21.4470  -29.3000   22.2800 N   0  0  0  0  0  0  0  0  0  0  0  0
  -23.4480  -28.8310   23.2190 O   0  0  0  0  0  0  0  0  0  0  0  0
  -20.9640  -29.8890   21.6160 H   0  0  0  0  0  0  0  0  0  0  0  0
  -18.0700  -28.0700   22.6970 C   0  0  0  0  0  0  0  0  0  0  0  0
  -20.6240  -28.3330   23.0070 C   0  0  0  0  0  3  0  0  0  0  0  0
  -20.7410  -26.9190   22.3880 C   0  0  0  0  0  2  0  0  0  0  0  0
  -19.6530  -26.6260   21.3510 C   0  0  0  0  0  2  0  0  0  0  0  0
  -18.2630  -26.7430   21.9820 C   0  0  0  0  0  2  0  0  0  0  0  0
  -19.1800  -28.8250   23.1630 C   0  0  0  0  0  0  0  0  0  0  0  0
  -18.9500  -30.0690   23.7900 C   0  0  0  0  0  3  0  0  0  0  0  0
  -17.6410  -30.5560   23.9600 C   0  0  0  0  0  3  0  0  0  0  0  0
  -16.5440  -29.7990   23.5070 C   0  0  0  0  0  3  0  0  0  0  0  0
  -16.7610  -28.5590   22.8800 C   0  0  0  0  0  3  0  0  0  0  0  0
  -25.8800  -32.5110   23.8640 C   0  0  0  0  0  3  0  0  0  0  0  0
  -25.5590  -33.8940   24.2360 N   0  0  0  0  0  0  0  0  0  0  0  0
  -25.9030  -34.9750   23.5240 C   0  0  0  0  0  0  0  0  0  0  0  0
  -26.5950  -34.9120   22.5040 O   0  0  0  0  0  0  0  0  0  0  0  0
  -24.9420  -34.0200   25.0250 H   0  0  0  0  0  0  0  0  0  0  0  0
  -24.1760  -36.7780   23.2050 C   0  0  0  0  0  1  0  0  0  0  0  0
  -25.3980  -36.3410   24.0270 C   0  0  0  0  0  3  0  0  0  0  0  0
  -27.5040  -37.1940   24.9500 C   0  0  0  0  0  1  0  0  0  0  0  0
  -26.4280  -37.4020   23.9860 N   0  0  0  0  0  0  0  0  0  0  0  0
  -26.0110  -38.3080   24.1790 H   0  0  0  0  0  0  0  0  0  0  0  0
  -26.3950  -31.7020   25.1170 C   0  0  1  0  0  0  0  0  0  0  0  0
  -25.2930  -31.4150   26.1660 C   0  0  0  0  0  1  0  0  0  0  0  0
  -27.0010  -30.3480   24.6810 C   0  0  0  0  0  1  0  0  0  0  0  0
  -27.5280  -32.4910   25.8170 C   0  0  0  0  0  1  0  0  0  0  0  0
  1  9  1  0
  2  1  2  0
  3  4  2  0
  4  1  1  0
  5  3  1  0
  5  2  1  0
  9  7  1  6
  9  6  1  0
  9  8  1  0
 10 12  1  0
 11 12  1  0
 12  5  1  0
 14 13  1  0
 14  3  1  0
 14 24  1  0
 15 24  1  0
 16 21  1  0
 17 18  1  0
 17 16  1  0
 19 18  1  0
 19 28  1  0
 19 20  1  0
 21 15  1  0
 21 20  1  0
 22 15  2  0
 24 23  1  0
 25 26  2  0
 26 45  1  0
 27 26  1  0
 27 30  1  0
 28 29  1  0
 28 25  1  0
 29 27  2  0
 30 31  1  0
 31 32  2  0
 33 36  1  0
 33 32  1  0
 34 33  2  0
 35 34  1  0
 35 30  2  0
 36 37  1  0
 37 42  2  0
 37 38  1  0
 38 39  2  0
 40 39  1  0
 40 44  1  0
 41 40  2  0
 42 41  1  0
 43 42  1  0
 45 46  1  0
 46 49  1  0
 46 48  1  0
 47 45  2  0
 50 51  1  0
 50 25  1  0
 52 50  1  0
 53  2  1  0
 54 53  1  0
 54 57  1  0
 57 56  1  6
 57 55  1  0
 59 60  1  0
 59 57  1  0
 59 58  1  0
 61 72  2  0
 62 60  1  0
 62 67  1  0
 63 71  1  0
 63 73  1  0
 64 70  1  0
 64 66  1  0
 65 71  1  0
 66 67  2  0
 66 65  1  0
 68 69  1  0
 68 62  2  0
 69 64  2  0
 70 63  1  0
 71 61  1  0
 73 75  2  0
 74 73  1  0
 76 74  1  0
 77 86  2  0
 77 82  1  0
 78 74  1  0
 78 82  1  0
 79 78  1  0
 80 81  1  0
 80 79  1  0
 81 77  1  0
 82 83  2  0
 83 84  1  0
 85 84  2  0
 86 85  1  0
 87 61  1  0
 87 88  1  0
 87 97  1  0
 88 91  1  0
 89 93  1  0
 89 88  1  0
 90 89  2  0
 93 92  1  0
 95 93  1  0
 95 96  1  0
 95 94  1  0
 97100  1  1
 97 98  1  0
 99 97  1  0
M  ISO  4  15 100  24 100  59 101  60 101
M  END
>  <TORSDO>  (35) 
F 23

>  <SCORE>  (35) 
-12.746

>  <name>  (35) 
35

>  <ligand_id>  (35) 
35

>  <original_smiles>  (35) 
[H]c1c([H])c([H])c2c(c1[H])C([H])([H])C([H])([H])C([H])([H])C2([H])N([H])C(=O)C1([H])N(C(=O)C([H])(N([H])C(=O)C([H])(N([H])C([H])([H])[H])C([H])([H])[H])C(C([H])([H])[H])(C([H])([H])[H])C([H])([H])[H])C([H])([H])c2c([H])c(OC([H])(C([H])([H])[H])C(C([H])([H])[H])(C([H])([H])[H])C([H])([H])C([H])([H])c3c(C(C([H])([H])[H])(C([H])([H])[H])C([H])([H])[H])nc(C([H])(N(C(=O)N4C([H])([H])C([H])([H])C([H])([H])C([H])(n5nc(-c6c([H])c([H])c(Oc7c([H])c([H])c(F)c([H])c7F)c([H])c6[H])c(C(=O)N([H])[H])c5N([H])[H])C4([H])[H])C([H])([H])[H])C([H])([H])[H])n3C([H])(C([H])([H])[H])C([H])([H])[H])c([H])c([H])c2C1([H])[H]

>  <smiles>  (35) 
[H]c1c([H])c([H])c2c(c1[H])C([H])([H])C([H])([H])C([H])([H])C2([H])N([H])C(=O)C1([H])N(C(=O)C([H])(N([H])C(=O)C([H])(N([H])C([H])([H])[H])C([H])([H])[H])C(C([H])([H])[H])(C([H])([H])[H])C([H])([H])[H])C([H])([H])c2c([H])c(OC([H])(C([H])([H])[H])C(C([H])([H])[H])(C([H])([H])[H])C([H])([H])C([H])([H])c3c(C(C([H])([H])[H])(C([H])([H])[H])C([H])([H])[H])nc(C([H])(N(C(=O)N4C([H])([H])C([H])([H])C([H])([H])C([H])(n5nc(-c6c([H])c([H])c(Oc7c([H])c([H])c(F)c([H])c7F)c([H])c6[H])c(C(=O)N([H])[H])c5N([H])[H])C4([H])[H])C([H])([H])[H])C([H])([H])[H])n3C([H])(C([H])([H])[H])C([H])([H])[H])c([H])c([H])c2C1([H])[H]

$$$$
36:0:0
     RDKit          3D

 98106  0  0  1  0  0  0  0  0999 V2000
  -32.1470  -21.2300   19.1930 C   0  0  0  0  0  3  0  0  0  0  0  0
  -30.7600  -21.3260   19.3540 C   0  0  0  0  0  0  0  0  0  0  0  0
  -32.7150  -19.9870   19.4760 C   0  0  0  0  0  0  0  0  0  0  0  0
  -30.6580  -19.1080   19.9600 C   0  0  0  0  0  0  0  0  0  0  0  0
  -30.0190  -20.2560   19.7110 N   0  0  0  0  0  0  0  0  0  0  0  0
  -31.9700  -18.9500   19.8560 N   0  0  0  0  0  0  0  0  0  0  0  0
  -29.7740  -17.1270   18.6900 C   0  0  0  0  0  1  0  0  0  0  0  0
  -28.4080  -18.0980   20.5720 C   0  0  0  0  0  1  0  0  0  0  0  0
  -29.8440  -17.7950   20.0860 C   0  0  2  0  0  0  0  0  0  0  0  0
  -30.4890  -16.8380   21.1560 C   0  0  0  0  0  2  0  0  0  0  0  0
  -30.6830  -14.4330   20.5440 C   0  0  0  0  0  0  0  0  0  0  0  0
  -30.3610  -12.2980   19.3680 C   0  0  0  0  0  2  0  0  0  0  0  0
  -29.4490  -12.5470   18.1500 C   0  0  0  0  0  2  0  0  0  0  0  0
  -27.9660  -12.4320   18.5550 C   0  0  0  0  0  2  0  0  0  0  0  0
  -27.6180  -13.2560   19.8220 C   0  0  0  0  0  3  0  0  0  0  0  0
  -28.6490  -13.0080   20.9460 C   0  0  0  0  0  2  0  0  0  0  0  0
  -29.9900  -13.2750   20.4040 N   0  0  0  0  0  0  0  0  0  0  0  0
  -31.8050  -14.6080   20.0610 O   0  0  0  0  0  0  0  0  0  0  0  0
  -30.0110  -15.4440   21.1160 N   0  0  0  0  0  0  0  0  0  0  0  0
  -29.0900  -15.2450   21.4790 H   0  0  0  0  0  0  0  0  0  0  0  0
  -25.2060  -13.8740   20.4790 C   0  0  0  0  0  0  0  0  0  0  0  0
  -24.1300  -13.1090   20.8360 C   0  0  0  0  0  0  0  0  0  0  0  0
  -24.5890  -11.7540   20.8310 C   0  0  0  0  0  0  0  0  0  0  0  0
  -26.2540  -12.9890   20.2760 N   0  0  0  0  0  0  0  0  0  0  0  0
  -25.8830  -11.7110   20.5440 N   0  0  0  0  0  0  0  0  0  0  0  0
  -23.8580  -10.4970   21.0250 C   0  0  0  0  0  0  0  0  0  0  0  0
  -24.2720   -9.5380   21.9750 C   0  0  0  0  0  3  0  0  0  0  0  0
  -23.5400   -8.3450   22.1540 C   0  0  0  0  0  3  0  0  0  0  0  0
  -22.3790   -8.1020   21.3810 C   0  0  0  0  0  0  0  0  0  0  0  0
  -21.9840   -9.0510   20.4210 C   0  0  0  0  0  3  0  0  0  0  0  0
  -22.7160  -10.2350   20.2420 C   0  0  0  0  0  3  0  0  0  0  0  0
  -21.6180   -6.9600   21.4700 O   0  0  0  0  0  0  0  0  0  0  0  0
  -21.5540   -6.2250   22.6260 C   0  0  0  0  0  0  0  0  0  0  0  0
  -21.1180   -6.7910   23.8450 C   0  0  0  0  0  3  0  0  0  0  0  0
  -21.0000   -5.9830   24.9940 C   0  0  0  0  0  3  0  0  0  0  0  0
  -21.3060   -4.6110   24.9260 C   0  0  0  0  0  0  0  0  0  0  0  0
  -21.7350   -4.0450   23.7140 C   0  0  0  0  0  3  0  0  0  0  0  0
  -21.8570   -4.8490   22.5660 C   0  0  0  0  0  0  0  0  0  0  0  0
  -22.2500   -4.2940   21.3950 F   0  0  0  0  0  0  0  0  0  0  0  0
  -21.1860   -3.8340   26.0280 F   0  0  0  0  0  0  0  0  0  0  0  0
  -22.7290  -13.5920   21.0760 C   0  0  0  0  0  0  0  0  0  0  0  0
  -21.9830  -12.9060   21.9330 N   0  0  0  0  0  0  0  0  0  0  0  0
  -22.3040  -14.6140   20.5370 O   0  0  0  0  0  0  0  0  0  0  0  0
  -22.3380  -12.0790   22.3890 H   0  0  0  0  0  0  0  0  0  0  0  0
  -21.0420  -13.2130   22.1360 H   0  0  0  0  0  0  0  0  0  0  0  0
  -25.3780  -15.2410   20.2860 N   0  0  0  0  0  0  0  0  0  0  0  0
  -24.6070  -15.8970   20.3550 H   0  0  0  0  0  0  0  0  0  0  0  0
  -26.2290  -15.6690   19.9470 H   0  0  0  0  0  0  0  0  0  0  0  0
  -34.0490  -19.6930   19.4280 O   0  0  0  0  0  0  0  0  0  0  0  0
  -34.7980  -20.3060   18.3950 C   0  0  0  0  0  2  0  0  0  0  0  0
  -36.1330  -19.5510   18.3070 C   0  0  0  0  0  2  0  0  0  0  0  0
  -37.2740  -17.3060   17.8810 C   0  0  0  0  0  1  0  0  0  0  0  0
  -35.9460  -18.0470   18.0420 C   0  0  0  0  0  2  0  0  0  0  0  0
  -30.0590  -22.6650   19.1800 C   0  0  0  0  0  2  0  0  0  0  0  0
  -30.4450  -23.6680   20.2870 C   0  0  0  0  0  2  0  0  0  0  0  0
  -30.0070  -25.1150   20.0090 C   0  0  0  0  0  2  0  0  0  0  0  0
  -28.5050  -25.4090   20.1340 C   0  0  0  0  0  2  0  0  0  0  0  0
  -28.4420  -26.8280   20.1450 O   0  0  0  0  0  0  0  0  0  0  0  0
  -24.5760  -31.8870   23.2380 C   0  0  0  0  0  0  0  0  0  0  0  0
  -27.2260  -27.4650   20.1660 C   0  0  0  0  0  0  0  0  0  0  0  0
  -23.3660  -30.4820   21.5990 C   0  0  0  0  0  3  0  0  0  0  0  0
  -24.8190  -28.9390   20.1820 C   0  0  0  0  0  0  0  0  0  0  0  0
  -25.8880  -30.8490   21.3950 C   0  0  0  0  0  2  0  0  0  0  0  0
  -25.9730  -29.4780   20.7640 C   0  0  0  0  0  0  0  0  0  0  0  0
  -27.1760  -28.7450   20.7520 C   0  0  0  0  0  3  0  0  0  0  0  0
  -26.0530  -26.9240   19.5910 C   0  0  0  0  0  3  0  0  0  0  0  0
  -24.8510  -27.6590   19.6010 C   0  0  0  0  0  3  0  0  0  0  0  0
  -23.5770  -29.8000   20.2200 C   0  0  0  0  0  2  0  0  0  0  0  0
  -24.6290  -31.0880   22.1380 N   0  0  0  0  0  0  0  0  0  0  0  0
  -23.4950  -32.1580   23.7820 O   0  0  0  0  0  0  0  0  0  0  0  0
  -22.7190  -29.4600   22.5600 C   0  0  0  0  0  0  0  0  0  0  0  0
  -21.3950  -29.2770   22.4360 N   0  0  0  0  0  0  0  0  0  0  0  0
  -23.4070  -28.8350   23.3730 O   0  0  0  0  0  0  0  0  0  0  0  0
  -20.9030  -29.8320   21.7500 H   0  0  0  0  0  0  0  0  0  0  0  0
  -18.0230  -28.0970   22.9410 C   0  0  0  0  0  0  0  0  0  0  0  0
  -20.5810  -28.3420   23.2090 C   0  0  0  0  0  3  0  0  0  0  0  0
  -20.6780  -26.9120   22.6320 C   0  0  0  0  0  2  0  0  0  0  0  0
  -19.5730  -26.5940   21.6190 C   0  0  0  0  0  2  0  0  0  0  0  0
  -18.1930  -26.7460   22.2660 C   0  0  0  0  0  2  0  0  0  0  0  0
  -19.1440  -28.8530   23.3710 C   0  0  0  0  0  0  0  0  0  0  0  0
  -18.9340  -30.1180   23.9610 C   0  0  0  0  0  3  0  0  0  0  0  0
  -17.6310  -30.6260   24.1290 C   0  0  0  0  0  3  0  0  0  0  0  0
  -16.5230  -29.8660   23.7170 C   0  0  0  0  0  3  0  0  0  0  0  0
  -16.7200  -28.6040   23.1270 C   0  0  0  0  0  3  0  0  0  0  0  0
  -25.8640  -32.5200   23.8530 C   0  0  0  0  0  3  0  0  0  0  0  0
  -26.3900  -31.7470   25.1240 C   0  0  1  0  0  0  0  0  0  0  0  0
  -25.3010  -31.5050   26.1960 C   0  0  0  0  0  1  0  0  0  0  0  0
  -26.9740  -30.3730   24.7260 C   0  0  0  0  0  1  0  0  0  0  0  0
  -27.5430  -32.5420   25.7830 C   0  0  0  0  0  1  0  0  0  0  0  0
  -25.5560  -33.9160   24.1820 N   0  0  0  0  0  0  0  0  0  0  0  0
  -25.8920  -34.9680   23.4220 C   0  0  0  0  0  0  0  0  0  0  0  0
  -26.5650  -34.8630   22.3920 O   0  0  0  0  0  0  0  0  0  0  0  0
  -24.9580  -34.0720   24.9810 H   0  0  0  0  0  0  0  0  0  0  0  0
  -24.1690  -36.7600   23.0550 C   0  0  0  0  0  1  0  0  0  0  0  0
  -25.4030  -36.3560   23.8750 C   0  0  0  0  0  3  0  0  0  0  0  0
  -27.5320  -37.2350   24.7240 C   0  0  0  0  0  1  0  0  0  0  0  0
  -26.4380  -37.4080   23.7730 N   0  0  0  0  0  0  0  0  0  0  0  0
  -26.0310  -38.3270   23.9210 H   0  0  0  0  0  0  0  0  0  0  0  0
  1  2  2  0
  1  3  1  0
  2  5  1  0
  3  6  2  0
  4  9  1  0
  5  4  2  0
  6  4  1  0
  9  7  1  6
  9  8  1  0
  9 10  1  0
 11 19  1  0
 12 17  1  0
 13 14  1  0
 13 12  1  0
 15 14  1  0
 15 24  1  0
 15 16  1  0
 17 11  1  0
 17 16  1  0
 18 11  2  0
 19 10  1  0
 19 20  1  0
 21 22  2  0
 22 41  1  0
 23 22  1  0
 23 26  1  0
 24 21  1  0
 24 25  1  0
 25 23  2  0
 26 27  1  0
 27 28  2  0
 29 32  1  0
 29 28  1  0
 30 29  2  0
 31 30  1  0
 31 26  2  0
 32 33  1  0
 33 34  1  0
 34 35  2  0
 36 35  1  0
 36 40  1  0
 37 36  2  0
 38 33  2  0
 38 37  1  0
 39 38  1  0
 41 42  1  0
 42 45  1  0
 42 44  1  0
 43 41  2  0
 46 47  1  0
 46 21  1  0
 48 46  1  0
 49  3  1  0
 50 49  1  0
 51 50  1  0
 52 53  1  0
 53 51  1  0
 54  2  1  0
 54 55  1  0
 56 57  1  0
 56 55  1  0
 57 58  1  0
 58 60  1  0
 59 70  2  0
 60 65  1  0
 61 69  1  0
 61 71  1  0
 62 68  1  0
 62 64  1  0
 63 69  1  0
 64 63  1  0
 65 64  2  0
 66 67  1  0
 66 60  2  0
 67 62  2  0
 68 61  1  0
 69 59  1  0
 71 73  2  0
 72 71  1  0
 74 72  1  0
 75 84  2  0
 75 80  1  0
 76 72  1  0
 76 80  1  0
 77 76  1  0
 78 79  1  0
 78 77  1  0
 79 75  1  0
 80 81  2  0
 81 82  1  0
 83 82  2  0
 84 83  1  0
 85 59  1  0
 85 90  1  0
 85 86  1  0
 86 89  1  1
 86 87  1  0
 88 86  1  0
 90 93  1  0
 91 95  1  0
 91 90  1  0
 92 91  2  0
 95 94  1  0
 97 95  1  0
 97 98  1  0
 97 96  1  0
M  ISO  4  11 100  19 100  57 101  58 101
M  END
>  <TORSDO>  (36) 
F 26

>  <SCORE>  (36) 
-11.959

>  <name>  (36) 
36

>  <ligand_id>  (36) 
36

>  <original_smiles>  (36) 
[H]c1c(OC([H])([H])C([H])([H])C([H])([H])C([H])([H])[H])nc(C(C([H])([H])[H])(C([H])([H])[H])C([H])([H])N([H])C(=O)N2C([H])([H])C([H])([H])C([H])([H])C([H])(n3nc(-c4c([H])c([H])c(Oc5c([H])c([H])c(F)c([H])c5F)c([H])c4[H])c(C(=O)N([H])[H])c3N([H])[H])C2([H])[H])nc1C([H])([H])C([H])([H])C([H])([H])C([H])([H])Oc1c([H])c([H])c2c(c1[H])C([H])([H])N(C(=O)C([H])(N([H])C(=O)C([H])(N([H])C([H])([H])[H])C([H])([H])[H])C(C([H])([H])[H])(C([H])([H])[H])C([H])([H])[H])C([H])(C(=O)N([H])C1([H])c3c([H])c([H])c([H])c([H])c3C([H])([H])C([H])([H])C1([H])[H])C2([H])[H]

>  <smiles>  (36) 
[H]c1c(OC([H])([H])C([H])([H])C([H])([H])C([H])([H])[H])nc(C(C([H])([H])[H])(C([H])([H])[H])C([H])([H])N([H])C(=O)N2C([H])([H])C([H])([H])C([H])([H])C([H])(n3nc(-c4c([H])c([H])c(Oc5c([H])c([H])c(F)c([H])c5F)c([H])c4[H])c(C(=O)N([H])[H])c3N([H])[H])C2([H])[H])nc1C([H])([H])C([H])([H])C([H])([H])C([H])([H])Oc1c([H])c([H])c2c(c1[H])C([H])([H])N(C(=O)C([H])(N([H])C(=O)C([H])(N([H])C([H])([H])[H])C([H])([H])[H])C(C([H])([H])[H])(C([H])([H])[H])C([H])([H])[H])C([H])(C(=O)N([H])C1([H])c3c([H])c([H])c([H])c([H])c3C([H])([H])C([H])([H])C1([H])[H])C2([H])[H]

$$$$
37:0:0
     RDKit          3D

 92100  0  0  1  0  0  0  0  0999 V2000
  -29.5730  -19.9430   20.5870 C   0  0  0  0  0  3  0  0  0  0  0  0
  -28.9070  -17.9000   17.7340 C   0  0  0  0  0  0  0  0  0  0  0  0
  -29.4630  -18.7840   19.5480 C   0  0  0  0  0  0  0  0  0  0  0  0
  -28.3530  -17.7220   16.3630 C   0  0  0  0  0  1  0  0  0  0  0  0
  -28.9720  -19.1050   18.3480 N   0  0  0  0  0  0  0  0  0  0  0  0
  -29.3380  -16.8720   18.4460 N   0  0  0  0  0  2  0  0  0  0  0  0
  -29.7370  -17.4150   19.6310 N   0  0  0  0  0  0  0  0  0  0  0  0
  -31.2930  -17.0750   21.5290 C   0  0  0  0  0  1  0  0  0  0  0  0
  -28.9850  -16.2330   21.6640 C   0  0  0  0  0  1  0  0  0  0  0  0
  -30.1690  -16.4120   20.6920 C   0  0  1  0  0  0  0  0  0  0  0  0
  -30.7840  -14.9990   20.1360 C   0  0  0  0  0  0  0  0  0  0  0  0
  -30.5490  -12.7990   18.9700 C   0  0  0  0  0  2  0  0  0  0  0  0
  -29.5710  -12.9600   17.7830 C   0  0  0  0  0  2  0  0  0  0  0  0
  -28.1060  -12.7760   18.2300 C   0  0  0  0  0  2  0  0  0  0  0  0
  -27.7810  -13.5480   19.5350 C   0  0  0  0  0  3  0  0  0  0  0  0
  -28.8750  -13.3180   20.5970 C   0  0  0  0  0  2  0  0  0  0  0  0
  -30.1490  -13.7730   20.0200 N   0  0  0  0  0  0  0  0  0  0  0  0
  -31.9330  -15.0700   19.6820 O   0  0  0  0  0  0  0  0  0  0  0  0
  -25.3920  -14.1010   20.2850 C   0  0  0  0  0  0  0  0  0  0  0  0
  -24.3460  -13.3070   20.6710 C   0  0  0  0  0  0  0  0  0  0  0  0
  -24.8340  -11.9650   20.6320 C   0  0  0  0  0  0  0  0  0  0  0  0
  -26.4490  -13.2390   20.0380 N   0  0  0  0  0  0  0  0  0  0  0  0
  -26.1190  -11.9490   20.3030 N   0  0  0  0  0  0  0  0  0  0  0  0
  -24.1340  -10.6900   20.8340 C   0  0  0  0  0  0  0  0  0  0  0  0
  -24.5390   -9.7710   21.8280 C   0  0  0  0  0  3  0  0  0  0  0  0
  -23.8380   -8.5600   22.0120 C   0  0  0  0  0  3  0  0  0  0  0  0
  -22.7180   -8.2570   21.2010 C   0  0  0  0  0  0  0  0  0  0  0  0
  -22.3360   -9.1630   20.1960 C   0  0  0  0  0  3  0  0  0  0  0  0
  -23.0380  -10.3660   20.0110 C   0  0  0  0  0  3  0  0  0  0  0  0
  -21.9930   -7.0930   21.2910 O   0  0  0  0  0  0  0  0  0  0  0  0
  -21.8200   -6.4450   22.4880 C   0  0  0  0  0  0  0  0  0  0  0  0
  -21.2080   -7.0750   23.5930 C   0  0  0  0  0  3  0  0  0  0  0  0
  -20.9870   -6.3500   24.7820 C   0  0  0  0  0  3  0  0  0  0  0  0
  -21.3690   -4.9970   24.8640 C   0  0  0  0  0  0  0  0  0  0  0  0
  -21.9740   -4.3690   23.7630 C   0  0  0  0  0  3  0  0  0  0  0  0
  -22.1970   -5.0900   22.5770 C   0  0  0  0  0  0  0  0  0  0  0  0
  -22.7630   -4.4740   21.5120 F   0  0  0  0  0  0  0  0  0  0  0  0
  -21.1500   -4.2990   26.0030 F   0  0  0  0  0  0  0  0  0  0  0  0
  -22.9450  -13.7580   20.9670 C   0  0  0  0  0  0  0  0  0  0  0  0
  -22.2510  -13.0550   21.8530 N   0  0  0  0  0  0  0  0  0  0  0  0
  -22.4760  -14.7690   20.4450 O   0  0  0  0  0  0  0  0  0  0  0  0
  -22.6450  -12.2340   22.2910 H   0  0  0  0  0  0  0  0  0  0  0  0
  -21.3160  -13.3420   22.1030 H   0  0  0  0  0  0  0  0  0  0  0  0
  -25.5320  -15.4740   20.1040 N   0  0  0  0  0  0  0  0  0  0  0  0
  -24.7650  -16.1240   20.2250 H   0  0  0  0  0  0  0  0  0  0  0  0
  -26.3740  -15.9100   19.7500 H   0  0  0  0  0  0  0  0  0  0  0  0
  -29.3330  -21.4430   20.0240 C   0  0  0  0  0  3  0  0  0  0  0  0
  -29.2850  -22.7280   20.9820 C   0  0  0  0  0  3  0  0  0  0  0  0
  -30.6450  -24.5550   19.7840 C   0  0  0  0  0  1  0  0  0  0  0  0
  -29.2530  -24.2070   20.3370 C   0  0  0  0  0  3  0  0  0  0  0  0
  -28.7250  -25.4070   21.2600 C   0  0  0  0  0  2  0  0  0  0  0  0
  -28.8280  -26.8180   20.8120 O   0  0  0  0  0  0  0  0  0  0  0  0
  -24.6850  -32.1030   23.5080 C   0  0  0  0  0  0  0  0  0  0  0  0
  -27.6650  -27.5960   20.7370 C   0  0  0  0  0  0  0  0  0  0  0  0
  -23.6420  -30.6150   21.8330 C   0  0  0  0  0  3  0  0  0  0  0  0
  -25.2390  -29.0910   20.5410 C   0  0  0  0  0  0  0  0  0  0  0  0
  -26.1710  -31.0410   21.7950 C   0  0  0  0  0  2  0  0  0  0  0  0
  -26.3480  -29.6520   21.1910 C   0  0  0  0  0  0  0  0  0  0  0  0
  -27.5670  -28.9170   21.2720 C   0  0  0  0  0  3  0  0  0  0  0  0
  -26.5350  -27.0750   20.0760 C   0  0  0  0  0  3  0  0  0  0  0  0
  -25.3340  -27.8070   19.9760 C   0  0  0  0  0  3  0  0  0  0  0  0
  -23.9660  -29.9110   20.4890 C   0  0  0  0  0  2  0  0  0  0  0  0
  -24.8480  -31.2730   22.4360 N   0  0  0  0  0  0  0  0  0  0  0  0
  -23.5610  -32.3500   23.9670 O   0  0  0  0  0  0  0  0  0  0  0  0
  -22.9630  -29.5980   22.7790 C   0  0  0  0  0  0  0  0  0  0  0  0
  -21.6560  -29.3600   22.5740 N   0  0  0  0  0  0  0  0  0  0  0  0
  -23.6130  -29.0220   23.6560 O   0  0  0  0  0  0  0  0  0  0  0  0
  -21.1880  -29.8750   21.8410 H   0  0  0  0  0  0  0  0  0  0  0  0
  -18.3020  -28.0510   22.9120 C   0  0  0  0  0  0  0  0  0  0  0  0
  -20.8300  -28.4060   23.3170 C   0  0  0  0  0  3  0  0  0  0  0  0
  -21.0150  -26.9710   22.7710 C   0  0  0  0  0  2  0  0  0  0  0  0
  -19.9820  -26.5920   21.7050 C   0  0  0  0  0  2  0  0  0  0  0  0
  -18.5630  -26.6990   22.2700 C   0  0  0  0  0  2  0  0  0  0  0  0
  -19.3680  -28.8590   23.3880 C   0  0  0  0  0  0  0  0  0  0  0  0
  -19.0730  -30.1220   23.9450 C   0  0  0  0  0  3  0  0  0  0  0  0
  -17.7460  -30.5800   24.0310 C   0  0  0  0  0  3  0  0  0  0  0  0
  -16.6930  -29.7710   23.5730 C   0  0  0  0  0  3  0  0  0  0  0  0
  -16.9710  -28.5070   23.0210 C   0  0  0  0  0  3  0  0  0  0  0  0
  -25.9010  -32.8020   24.1910 C   0  0  0  0  0  3  0  0  0  0  0  0
  -25.5320  -34.2050   24.4270 N   0  0  0  0  0  0  0  0  0  0  0  0
  -25.8940  -35.2320   23.6460 C   0  0  0  0  0  0  0  0  0  0  0  0
  -26.6410  -35.1000   22.6740 O   0  0  0  0  0  0  0  0  0  0  0  0
  -24.8700  -34.3790   25.1700 H   0  0  0  0  0  0  0  0  0  0  0  0
  -24.1530  -36.9600   23.0820 C   0  0  0  0  0  1  0  0  0  0  0  0
  -25.3380  -36.6250   24.0020 C   0  0  0  0  0  3  0  0  0  0  0  0
  -27.3780  -37.6070   24.9530 C   0  0  0  0  0  1  0  0  0  0  0  0
  -26.3500  -37.7000   23.9190 N   0  0  0  0  0  0  0  0  0  0  0  0
  -25.9120  -38.6140   23.9910 H   0  0  0  0  0  0  0  0  0  0  0  0
  -26.3410  -32.1090   25.5390 C   0  0  1  0  0  0  0  0  0  0  0  0
  -25.1660  -31.8400   26.5070 C   0  0  0  0  0  1  0  0  0  0  0  0
  -27.0430  -30.7590   25.2600 C   0  0  0  0  0  1  0  0  0  0  0  0
  -27.3700  -33.0000   26.2760 C   0  0  0  0  0  1  0  0  0  0  0  0
  2  5  2  0
  2  6  1  0
  3  7  1  0
  3  1  2  0
  4  2  1  0
  5  3  1  0
  6  7  1  0
  7 10  1  0
 10  8  1  1
 10  9  1  0
 11 10  1  0
 12 17  1  0
 13 14  1  0
 13 12  1  0
 15 14  1  0
 15 22  1  0
 15 16  1  0
 17 11  1  0
 17 16  1  0
 18 11  2  0
 19 20  2  0
 20 39  1  0
 21 20  1  0
 21 24  1  0
 22 19  1  0
 22 23  1  0
 23 21  2  0
 24 25  1  0
 25 26  2  0
 27 30  1  0
 27 26  1  0
 28 27  2  0
 29 28  1  0
 29 24  2  0
 30 31  1  0
 31 36  2  0
 31 32  1  0
 32 33  2  0
 33 34  1  0
 34 38  1  0
 35 34  2  0
 36 35  1  0
 37 36  1  0
 39 40  1  0
 40 43  1  0
 40 42  1  0
 41 39  2  0
 44 45  1  0
 44 19  1  0
 46 44  1  0
 47  1  1  0
 47 48  2  0
 50 49  1  0
 50 48  1  0
 50 51  1  0
 52 51  1  0
 53 64  2  0
 54 52  1  0
 54 59  1  0
 55 63  1  0
 55 65  1  0
 56 58  1  0
 57 63  1  0
 58 59  2  0
 58 57  1  0
 60 54  2  0
 61 60  1  0
 61 56  2  0
 62 56  1  0
 62 55  1  0
 63 53  1  0
 65 67  2  0
 66 65  1  0
 68 66  1  0
 69 78  2  0
 69 74  1  0
 70 66  1  0
 70 74  1  0
 71 70  1  0
 72 73  1  0
 72 71  1  0
 73 69  1  0
 74 75  2  0
 75 76  1  0
 77 76  2  0
 78 77  1  0
 79 53  1  0
 79 80  1  0
 79 89  1  0
 80 83  1  0
 81 85  1  0
 81 80  1  0
 82 81  2  0
 85 84  1  0
 87 88  1  0
 87 85  1  0
 87 86  1  0
 89 92  1  1
 89 90  1  0
 91 89  1  0
M  ISO  4  10 100  11 100  51 101  52 101
M  END
>  <TORSDO>  (37) 
F 22

>  <SCORE>  (37) 
-10.322

>  <name>  (37) 
37

>  <ligand_id>  (37) 
37

>  <original_smiles>  (37) 
[H]c1c([H])c([H])c2c(c1[H])C([H])([H])C([H])([H])C([H])([H])C2([H])N([H])C(=O)C1([H])N(C(=O)C([H])(N([H])C(=O)C([H])(N([H])C([H])([H])[H])C([H])([H])[H])C(C([H])([H])[H])(C([H])([H])[H])C([H])([H])[H])C([H])([H])c2c([H])c(OC([H])([H])C([H])(C([H])([H])[H])C([H])([H])C([H])([H])C([H])([H])c3nc(C([H])([H])[H])nn3C(C(=O)N3C([H])([H])C([H])([H])C([H])([H])C([H])(n4nc(-c5c([H])c([H])c(Oc6c([H])c([H])c(F)c([H])c6F)c([H])c5[H])c(C(=O)N([H])[H])c4N([H])[H])C3([H])[H])(C([H])([H])[H])C([H])([H])[H])c([H])c([H])c2C1([H])[H]

>  <smiles>  (37) 
[H]c1c([H])c([H])c2c(c1[H])C([H])([H])C([H])([H])C([H])([H])C2([H])N([H])C(=O)C1([H])N(C(=O)C([H])(N([H])C(=O)C([H])(N([H])C([H])([H])[H])C([H])([H])[H])C(C([H])([H])[H])(C([H])([H])[H])C([H])([H])[H])C([H])([H])c2c([H])c(OC([H])([H])C([H])(C([H])([H])[H])C([H])([H])C([H])([H])C([H])([H])c3nc(C([H])([H])[H])nn3C(C(=O)N3C([H])([H])C([H])([H])C([H])([H])C([H])(n4nc(-c5c([H])c([H])c(Oc6c([H])c([H])c(F)c([H])c6F)c([H])c5[H])c(C(=O)N([H])[H])c4N([H])[H])C3([H])[H])(C([H])([H])[H])C([H])([H])[H])c([H])c([H])c2C1([H])[H]

$$$$
38:0:0
     RDKit          3D

 93101  0  0  1  0  0  0  0  0999 V2000
  -30.9260  -24.8390   20.0620 C   0  0  0  0  0  1  0  0  0  0  0  0
  -29.8180  -25.2080   22.2370 C   0  0  0  0  0  1  0  0  0  0  0  0
  -29.6530  -24.4860   20.8700 C   0  0  2  0  0  0  0  0  0  0  0  0
  -29.4850  -20.9740   22.0660 C   0  0  0  0  0  3  0  0  0  0  0  0
  -29.3580  -22.3170   22.2890 C   0  0  0  0  0  3  0  0  0  0  0  0
  -29.8540  -20.8640   20.6980 C   0  0  0  0  0  0  0  0  0  0  0  0
  -29.9470  -22.0780   20.1400 N   0  0  0  0  0  0  0  0  0  0  0  0
  -29.6560  -22.9970   21.1170 N   0  0  0  0  0  0  0  0  0  0  0  0
  -30.1070  -19.5870   19.8880 C   0  0  0  0  0  2  0  0  0  0  0  0
  -30.1560  -18.2680   20.7260 C   0  0  0  0  0  3  0  0  0  0  0  0
  -30.3700  -16.9490   19.8980 C   0  0  0  0  0  3  0  0  0  0  0  0
  -30.8860  -14.5160   20.0990 C   0  0  0  0  0  0  0  0  0  0  0  0
  -30.4400  -12.3860   18.9170 C   0  0  0  0  0  2  0  0  0  0  0  0
  -29.4390  -12.6300   17.7680 C   0  0  0  0  0  2  0  0  0  0  0  0
  -27.9870  -12.5060   18.2690 C   0  0  0  0  0  2  0  0  0  0  0  0
  -27.7370  -13.3090   19.5730 C   0  0  0  0  0  3  0  0  0  0  0  0
  -28.8490  -13.0510   20.6090 C   0  0  0  0  0  2  0  0  0  0  0  0
  -30.1450  -13.3680   19.9820 N   0  0  0  0  0  0  0  0  0  0  0  0
  -31.9690  -14.6330   19.5220 O   0  0  0  0  0  0  0  0  0  0  0  0
  -30.0000  -15.7060   22.0500 C   0  0  0  0  0  1  0  0  0  0  0  0
  -30.2760  -15.6310   20.6110 N   0  0  0  0  0  0  0  0  0  0  0  0
  -25.4000  -13.9280   20.4500 C   0  0  0  0  0  0  0  0  0  0  0  0
  -24.3390  -13.1610   20.8530 C   0  0  0  0  0  0  0  0  0  0  0  0
  -24.7710  -11.8040   20.7480 C   0  0  0  0  0  0  0  0  0  0  0  0
  -26.4120  -13.0370   20.1250 N   0  0  0  0  0  0  0  0  0  0  0  0
  -26.0400  -11.7530   20.3630 N   0  0  0  0  0  0  0  0  0  0  0  0
  -24.0300  -10.5490   20.9370 C   0  0  0  0  0  0  0  0  0  0  0  0
  -24.4910   -9.5430   21.8130 C   0  0  0  0  0  3  0  0  0  0  0  0
  -23.7510   -8.3550   21.9920 C   0  0  0  0  0  3  0  0  0  0  0  0
  -22.5350   -8.1630   21.2920 C   0  0  0  0  0  0  0  0  0  0  0  0
  -22.0930   -9.1580   20.4020 C   0  0  0  0  0  3  0  0  0  0  0  0
  -22.8350  -10.3380   20.2230 C   0  0  0  0  0  3  0  0  0  0  0  0
  -21.7630   -7.0310   21.3820 O   0  0  0  0  0  0  0  0  0  0  0  0
  -21.7500   -6.2550   22.5150 C   0  0  0  0  0  0  0  0  0  0  0  0
  -21.4150   -6.7880   23.7790 C   0  0  0  0  0  3  0  0  0  0  0  0
  -21.3470   -5.9410   24.9030 C   0  0  0  0  0  3  0  0  0  0  0  0
  -21.6040   -4.5640   24.7660 C   0  0  0  0  0  0  0  0  0  0  0  0
  -21.9340   -4.0320   23.5070 C   0  0  0  0  0  3  0  0  0  0  0  0
  -22.0030   -4.8750   22.3850 C   0  0  0  0  0  0  0  0  0  0  0  0
  -22.2990   -4.3520   21.1700 F   0  0  0  0  0  0  0  0  0  0  0  0
  -21.5320   -3.7500   25.8440 F   0  0  0  0  0  0  0  0  0  0  0  0
  -22.9700  -13.6540   21.2250 C   0  0  0  0  0  0  0  0  0  0  0  0
  -22.2830  -12.9460   22.1140 N   0  0  0  0  0  0  0  0  0  0  0  0
  -22.5220  -14.7040   20.7640 O   0  0  0  0  0  0  0  0  0  0  0  0
  -22.6560  -12.0940   22.5060 H   0  0  0  0  0  0  0  0  0  0  0  0
  -21.3690  -13.2590   22.4090 H   0  0  0  0  0  0  0  0  0  0  0  0
  -25.5840  -15.3010   20.3150 N   0  0  0  0  0  0  0  0  0  0  0  0
  -24.8450  -15.9700   20.5060 H   0  0  0  0  0  0  0  0  0  0  0  0
  -26.4380  -15.7390   19.9920 H   0  0  0  0  0  0  0  0  0  0  0  0
  -28.2980  -24.5870   18.6800 C   0  0  0  0  0  1  0  0  0  0  0  0
  -27.1020  -24.4540   20.9320 C   0  0  0  0  0  1  0  0  0  0  0  0
  -28.3250  -25.0440   20.1610 C   0  0  1  0  0  0  0  0  0  0  0  0
  -28.3580  -26.5250   20.1610 O   0  0  0  0  0  0  0  0  0  0  0  0
  -24.5910  -31.8050   23.1780 C   0  0  0  0  0  0  0  0  0  0  0  0
  -27.2120  -27.3180   20.0790 C   0  0  0  0  0  0  0  0  0  0  0  0
  -23.3830  -30.4060   21.5450 C   0  0  0  0  0  3  0  0  0  0  0  0
  -24.8320  -28.8880   20.0930 C   0  0  0  0  0  0  0  0  0  0  0  0
  -25.9150  -30.7520   21.3420 C   0  0  0  0  0  2  0  0  0  0  0  0
  -25.9970  -29.3810   20.6930 C   0  0  0  0  0  0  0  0  0  0  0  0
  -27.1890  -28.6050   20.6840 C   0  0  0  0  0  3  0  0  0  0  0  0
  -26.0350  -26.8980   19.4160 C   0  0  0  0  0  3  0  0  0  0  0  0
  -24.8530  -27.6490   19.4460 C   0  0  0  0  0  3  0  0  0  0  0  0
  -23.5890  -29.7460   20.1580 C   0  0  0  0  0  2  0  0  0  0  0  0
  -24.6480  -31.0020   22.0790 N   0  0  0  0  0  0  0  0  0  0  0  0
  -23.5080  -32.0770   23.7170 O   0  0  0  0  0  0  0  0  0  0  0  0
  -22.7380  -29.3750   22.5010 C   0  0  0  0  0  0  0  0  0  0  0  0
  -21.4110  -29.2000   22.3900 N   0  0  0  0  0  0  0  0  0  0  0  0
  -23.4280  -28.7390   23.3030 O   0  0  0  0  0  0  0  0  0  0  0  0
  -20.9110  -29.7700   21.7220 H   0  0  0  0  0  0  0  0  0  0  0  0
  -18.0400  -28.0120   22.9220 C   0  0  0  0  0  0  0  0  0  0  0  0
  -20.6020  -28.2580   23.1640 C   0  0  0  0  0  3  0  0  0  0  0  0
  -20.6960  -26.8310   22.5770 C   0  0  0  0  0  2  0  0  0  0  0  0
  -19.5800  -26.5180   21.5760 C   0  0  0  0  0  2  0  0  0  0  0  0
  -18.2060  -26.6660   22.2370 C   0  0  0  0  0  2  0  0  0  0  0  0
  -19.1680  -28.7670   23.3450 C   0  0  0  0  0  0  0  0  0  0  0  0
  -18.9620  -30.0300   23.9430 C   0  0  0  0  0  3  0  0  0  0  0  0
  -17.6630  -30.5350   24.1260 C   0  0  0  0  0  3  0  0  0  0  0  0
  -16.5480  -29.7770   23.7220 C   0  0  0  0  0  3  0  0  0  0  0  0
  -16.7390  -28.5190   23.1240 C   0  0  0  0  0  3  0  0  0  0  0  0
  -25.8760  -32.4430   23.7880 C   0  0  0  0  0  3  0  0  0  0  0  0
  -25.5570  -33.8310   24.1420 N   0  0  0  0  0  0  0  0  0  0  0  0
  -25.8620  -34.8980   23.3910 C   0  0  0  0  0  0  0  0  0  0  0  0
  -26.5160  -34.8180   22.3470 O   0  0  0  0  0  0  0  0  0  0  0  0
  -24.9860  -33.9700   24.9630 H   0  0  0  0  0  0  0  0  0  0  0  0
  -24.1060  -36.6700   23.0880 C   0  0  0  0  0  1  0  0  0  0  0  0
  -25.3670  -36.2750   23.8740 C   0  0  0  0  0  3  0  0  0  0  0  0
  -27.5050  -37.1740   24.6800 C   0  0  0  0  0  1  0  0  0  0  0  0
  -26.3840  -37.3430   23.7580 N   0  0  0  0  0  0  0  0  0  0  0  0
  -25.9690  -38.2540   23.9350 H   0  0  0  0  0  0  0  0  0  0  0  0
  -26.4190  -31.6590   25.0470 C   0  0  1  0  0  0  0  0  0  0  0  0
  -25.3420  -31.3900   26.1260 C   0  0  0  0  0  1  0  0  0  0  0  0
  -27.0080  -30.2950   24.6210 C   0  0  0  0  0  1  0  0  0  0  0  0
  -27.5730  -32.4510   25.7050 C   0  0  0  0  0  1  0  0  0  0  0  0
  3  1  1  6
  3  8  1  0
  3  2  1  0
  4  5  2  0
  6  4  1  0
  7  6  2  0
  7  8  1  0
  8  5  1  0
  9  6  1  0
  9 10  1  0
 11 21  1  0
 11 10  2  0
 12 21  1  0
 13 18  1  0
 14 15  1  0
 14 13  1  0
 16 15  1  0
 16 25  1  0
 16 17  1  0
 18 12  1  0
 18 17  1  0
 19 12  2  0
 21 20  1  0
 22 23  2  0
 23 42  1  0
 24 23  1  0
 24 27  1  0
 25 26  1  0
 25 22  1  0
 26 24  2  0
 27 28  1  0
 28 29  2  0
 30 33  1  0
 30 29  1  0
 31 30  2  0
 32 31  1  0
 32 27  2  0
 33 34  1  0
 34 35  1  0
 35 36  2  0
 37 36  1  0
 37 41  1  0
 38 37  2  0
 39 34  2  0
 39 38  1  0
 40 39  1  0
 42 43  1  0
 43 46  1  0
 43 45  1  0
 44 42  2  0
 47 22  1  0
 47 48  1  0
 49 47  1  0
 52 50  1  6
 52  3  1  0
 52 51  1  0
 53 52  1  0
 54 65  2  0
 55 53  1  0
 55 60  1  0
 56 64  1  0
 56 66  1  0
 57 63  1  0
 57 59  1  0
 58 64  1  0
 59 58  1  0
 60 59  2  0
 61 62  1  0
 61 55  2  0
 62 57  2  0
 63 56  1  0
 64 54  1  0
 66 68  2  0
 67 66  1  0
 69 67  1  0
 70 79  2  0
 70 75  1  0
 71 67  1  0
 71 75  1  0
 72 71  1  0
 73 74  1  0
 73 72  1  0
 74 70  1  0
 75 76  2  0
 76 77  1  0
 78 77  2  0
 79 78  1  0
 80 54  1  0
 80 81  1  0
 80 90  1  0
 81 84  1  0
 82 86  1  0
 82 81  1  0
 83 82  2  0
 86 85  1  0
 88 86  1  0
 88 89  1  0
 88 87  1  0
 90 93  1  1
 90 91  1  0
 92 90  1  0
M  ISO  4  12 100  21 100  52 101  53 101
M  END
>  <TORSDO>  (38) 
F 21

>  <SCORE>  (38) 
-12.941

>  <name>  (38) 
38

>  <ligand_id>  (38) 
38

>  <original_smiles>  (38) 
[H]c1c([H])c([H])c2c(c1[H])C([H])([H])C([H])([H])C([H])([H])C2([H])N([H])C(=O)C1([H])N(C(=O)C([H])(N([H])C(=O)C([H])(N([H])C([H])([H])[H])C([H])([H])[H])C(C([H])([H])[H])(C([H])([H])[H])C([H])([H])[H])C([H])([H])c2c([H])c(OC(C([H])([H])[H])(C([H])([H])[H])C(n3nc(C([H])([H])C([H])([H])C([H])([H])N(C(=O)N4C([H])([H])C([H])([H])C([H])([H])C([H])(n5nc(-c6c([H])c([H])c(Oc7c([H])c([H])c(F)c([H])c7F)c([H])c6[H])c(C(=O)N([H])[H])c5N([H])[H])C4([H])[H])C([H])([H])[H])c([H])c3[H])(C([H])([H])[H])C([H])([H])[H])c([H])c([H])c2C1([H])[H]

>  <smiles>  (38) 
[H]c1c([H])c([H])c2c(c1[H])C([H])([H])C([H])([H])C([H])([H])C2([H])N([H])C(=O)C1([H])N(C(=O)C([H])(N([H])C(=O)C([H])(N([H])C([H])([H])[H])C([H])([H])[H])C(C([H])([H])[H])(C([H])([H])[H])C([H])([H])[H])C([H])([H])c2c([H])c(OC(C([H])([H])[H])(C([H])([H])[H])C(n3nc(C([H])([H])C([H])([H])C([H])([H])N(C(=O)N4C([H])([H])C([H])([H])C([H])([H])C([H])(n5nc(-c6c([H])c([H])c(Oc7c([H])c([H])c(F)c([H])c7F)c([H])c6[H])c(C(=O)N([H])[H])c5N([H])[H])C4([H])[H])C([H])([H])[H])c([H])c3[H])(C([H])([H])[H])C([H])([H])[H])c([H])c([H])c2C1([H])[H]

$$$$
40:0:0
     RDKit          3D

 98106  0  0  1  0  0  0  0  0999 V2000
  -32.4400  -23.8840   19.2260 C   0  0  0  0  0  1  0  0  0  0  0  0
  -31.2020  -23.1560   18.6450 C   0  0  1  0  0  0  0  0  0  0  0  0
  -29.9410  -24.0920   18.8130 C   0  0  1  0  0  0  0  0  0  0  0  0
  -30.1260  -25.2390   18.1620 F   0  0  0  0  0  0  0  0  0  0  0  0
  -28.8820  -23.4920   18.2680 F   0  0  0  0  0  0  0  0  0  0  0  0
  -29.5660  -24.4990   20.2630 C   0  0  0  0  0  2  0  0  0  0  0  0
  -28.2550  -25.3060   20.3960 C   0  0  0  0  0  2  0  0  0  0  0  0
  -28.3890  -26.6880   20.0340 O   0  0  0  0  0  0  0  0  0  0  0  0
  -24.5940  -31.8020   23.2340 C   0  0  0  0  0  0  0  0  0  0  0  0
  -27.2170  -27.4160   20.0580 C   0  0  0  0  0  0  0  0  0  0  0  0
  -23.3810  -30.4430   21.5610 C   0  0  0  0  0  3  0  0  0  0  0  0
  -24.8250  -28.9270   20.1080 C   0  0  0  0  0  0  0  0  0  0  0  0
  -25.9090  -30.7920   21.3720 C   0  0  0  0  0  2  0  0  0  0  0  0
  -25.9870  -29.4340   20.7040 C   0  0  0  0  0  0  0  0  0  0  0  0
  -27.1870  -28.6870   20.6740 C   0  0  0  0  0  3  0  0  0  0  0  0
  -26.0380  -26.9250   19.4510 C   0  0  0  0  0  3  0  0  0  0  0  0
  -24.8450  -27.6700   19.4810 C   0  0  0  0  0  3  0  0  0  0  0  0
  -23.5870  -29.7910   20.1690 C   0  0  0  0  0  2  0  0  0  0  0  0
  -24.6470  -31.0260   22.1150 N   0  0  0  0  0  0  0  0  0  0  0  0
  -23.5140  -32.0690   23.7790 O   0  0  0  0  0  0  0  0  0  0  0  0
  -22.7220  -29.4060   22.4990 C   0  0  0  0  0  0  0  0  0  0  0  0
  -21.3950  -29.2460   22.3760 N   0  0  0  0  0  0  0  0  0  0  0  0
  -23.4030  -28.7490   23.2920 O   0  0  0  0  0  0  0  0  0  0  0  0
  -20.9080  -29.8260   21.7060 H   0  0  0  0  0  0  0  0  0  0  0  0
  -18.0040  -28.1070   22.8810 C   0  0  0  0  0  0  0  0  0  0  0  0
  -20.5700  -28.3000   23.1260 C   0  0  0  0  0  3  0  0  0  0  0  0
  -20.6330  -26.8870   22.5000 C   0  0  0  0  0  2  0  0  0  0  0  0
  -19.5110  -26.6230   21.4910 C   0  0  0  0  0  2  0  0  0  0  0  0
  -18.1420  -26.7770   22.1600 C   0  0  0  0  0  2  0  0  0  0  0  0
  -19.1450  -28.8290   23.3220 C   0  0  0  0  0  0  0  0  0  0  0  0
  -18.9620  -30.0770   23.9550 C   0  0  0  0  0  3  0  0  0  0  0  0
  -17.6710  -30.6020   24.1560 C   0  0  0  0  0  3  0  0  0  0  0  0
  -16.5460  -29.8750   23.7330 C   0  0  0  0  0  3  0  0  0  0  0  0
  -16.7120  -28.6290   23.1020 C   0  0  0  0  0  3  0  0  0  0  0  0
  -25.8850  -32.4110   23.8680 C   0  0  0  0  0  3  0  0  0  0  0  0
  -25.5920  -33.8080   24.2090 N   0  0  0  0  0  0  0  0  0  0  0  0
  -25.9410  -34.8630   23.4610 C   0  0  0  0  0  0  0  0  0  0  0  0
  -26.6160  -34.7610   22.4330 O   0  0  0  0  0  0  0  0  0  0  0  0
  -24.9940  -33.9620   25.0080 H   0  0  0  0  0  0  0  0  0  0  0  0
  -24.2400  -36.6810   23.1070 C   0  0  0  0  0  1  0  0  0  0  0  0
  -25.4670  -36.2520   23.9280 C   0  0  0  0  0  3  0  0  0  0  0  0
  -27.6020  -37.1020   24.7930 C   0  0  0  0  0  1  0  0  0  0  0  0
  -26.5150  -37.2920   23.8370 N   0  0  0  0  0  0  0  0  0  0  0  0
  -26.1190  -38.2170   23.9850 H   0  0  0  0  0  0  0  0  0  0  0  0
  -26.3870  -31.6180   25.1360 C   0  0  1  0  0  0  0  0  0  0  0  0
  -25.2870  -31.3800   26.1970 C   0  0  0  0  0  1  0  0  0  0  0  0
  -26.9560  -30.2390   24.7280 C   0  0  0  0  0  1  0  0  0  0  0  0
  -27.5440  -32.3920   25.8120 C   0  0  0  0  0  1  0  0  0  0  0  0
  -32.3880  -21.6070   16.8630 C   0  0  0  0  0  1  0  0  0  0  0  0
  -31.9890  -23.9920   16.2590 C   0  0  0  0  0  1  0  0  0  0  0  0
  -31.4600  -22.8190   17.1180 C   0  0  0  0  0  3  0  0  0  0  0  0
  -31.0460  -21.8350   19.4740 C   0  0  0  0  0  2  0  0  0  0  0  0
  -29.8470  -20.9130   19.1390 C   0  0  0  0  0  2  0  0  0  0  0  0
  -29.3890  -18.4030   18.8650 C   0  0  0  0  0  3  0  0  0  0  0  0
  -30.8270  -17.9230   21.0930 C   0  0  0  0  0  3  0  0  0  0  0  0
  -30.0240  -19.4560   19.5670 C   0  0  0  0  0  0  0  0  0  0  0  0
  -30.1910  -16.8570   20.4010 C   0  0  0  0  0  0  0  0  0  0  0  0
  -30.7290  -19.2160   20.6980 N   0  0  0  0  0  0  0  0  0  0  0  0
  -29.4490  -17.1170   19.2890 N   0  0  0  0  0  0  0  0  0  0  0  0
  -31.3800  -15.1450   21.9010 C   0  0  0  0  0  1  0  0  0  0  0  0
  -28.9180  -15.3560   21.8710 C   0  0  0  0  0  1  0  0  0  0  0  0
  -30.1690  -15.4110   20.9700 C   0  0  1  0  0  0  0  0  0  0  0  0
  -30.3150  -14.3600   19.7970 C   0  0  0  0  0  0  0  0  0  0  0  0
  -29.7970  -12.3390   18.4500 C   0  0  0  0  0  2  0  0  0  0  0  0
  -28.7050  -12.6120   17.3930 C   0  0  0  0  0  2  0  0  0  0  0  0
  -27.2920  -12.4440   17.9870 C   0  0  0  0  0  2  0  0  0  0  0  0
  -27.1360  -13.1780   19.3440 C   0  0  0  0  0  3  0  0  0  0  0  0
  -28.3110  -12.8010   20.2650 C   0  0  0  0  0  2  0  0  0  0  0  0
  -29.5610  -13.2270   19.6100 N   0  0  0  0  0  0  0  0  0  0  0  0
  -31.2430  -14.5970   19.0110 O   0  0  0  0  0  0  0  0  0  0  0  0
  -24.8220  -13.7580   20.3170 C   0  0  0  0  0  0  0  0  0  0  0  0
  -23.8150  -12.9720   20.8100 C   0  0  0  0  0  0  0  0  0  0  0  0
  -24.2870  -11.6270   20.7240 C   0  0  0  0  0  0  0  0  0  0  0  0
  -25.8460  -12.8900   19.9690 N   0  0  0  0  0  0  0  0  0  0  0  0
  -25.5320  -11.6030   20.2650 N   0  0  0  0  0  0  0  0  0  0  0  0
  -23.6070  -10.3550   21.0000 C   0  0  0  0  0  0  0  0  0  0  0  0
  -24.1310   -9.4210   21.9210 C   0  0  0  0  0  3  0  0  0  0  0  0
  -23.4500   -8.2130   22.1810 C   0  0  0  0  0  3  0  0  0  0  0  0
  -22.2310   -7.9290   21.5210 C   0  0  0  0  0  0  0  0  0  0  0  0
  -21.7260   -8.8510   20.5870 C   0  0  0  0  0  3  0  0  0  0  0  0
  -22.4080  -10.0510   20.3260 C   0  0  0  0  0  3  0  0  0  0  0  0
  -21.5130   -6.7700   21.6920 O   0  0  0  0  0  0  0  0  0  0  0  0
  -21.5590   -6.0610   22.8640 C   0  0  0  0  0  0  0  0  0  0  0  0
  -21.2050   -6.6430   24.1020 C   0  0  0  0  0  3  0  0  0  0  0  0
  -21.1990   -5.8590   25.2720 C   0  0  0  0  0  3  0  0  0  0  0  0
  -21.5370   -4.4940   25.2090 C   0  0  0  0  0  0  0  0  0  0  0  0
  -21.8850   -3.9120   23.9770 C   0  0  0  0  0  3  0  0  0  0  0  0
  -21.8930   -4.6930   22.8080 C   0  0  0  0  0  0  0  0  0  0  0  0
  -22.2080   -4.1210   21.6200 F   0  0  0  0  0  0  0  0  0  0  0  0
  -21.5230   -3.7390   26.3310 F   0  0  0  0  0  0  0  0  0  0  0  0
  -22.4520  -13.4300   21.2470 C   0  0  0  0  0  0  0  0  0  0  0  0
  -21.8560  -12.7430   22.2160 N   0  0  0  0  0  0  0  0  0  0  0  0
  -21.9280  -14.4300   20.7590 O   0  0  0  0  0  0  0  0  0  0  0  0
  -22.2960  -11.9340   22.6290 H   0  0  0  0  0  0  0  0  0  0  0  0
  -20.9490  -13.0330   22.5530 H   0  0  0  0  0  0  0  0  0  0  0  0
  -24.9470  -15.1310   20.1230 N   0  0  0  0  0  0  0  0  0  0  0  0
  -24.1940  -15.7790   20.3250 H   0  0  0  0  0  0  0  0  0  0  0  0
  -25.7600  -15.5790   19.7190 H   0  0  0  0  0  0  0  0  0  0  0  0
  2  3  1  0
  2  1  1  1
  2 52  1  0
  3  6  1  0
  3  4  1  6
  5  3  1  0
  6  7  1  0
  8 10  1  0
  8  7  1  0
  9 20  2  0
 10 15  1  0
 11 19  1  0
 11 21  1  0
 12 18  1  0
 12 14  1  0
 13 19  1  0
 14 13  1  0
 15 14  2  0
 16 17  1  0
 16 10  2  0
 17 12  2  0
 18 11  1  0
 19  9  1  0
 21 23  2  0
 22 21  1  0
 24 22  1  0
 25 34  2  0
 25 30  1  0
 26 22  1  0
 26 30  1  0
 27 26  1  0
 28 29  1  0
 28 27  1  0
 29 25  1  0
 30 31  2  0
 31 32  1  0
 33 32  2  0
 34 33  1  0
 35  9  1  0
 35 36  1  0
 35 45  1  0
 36 39  1  0
 37 41  1  0
 37 36  1  0
 38 37  2  0
 41 40  1  0
 43 41  1  0
 43 44  1  0
 43 42  1  0
 45 48  1  1
 45 46  1  0
 47 45  1  0
 49 51  1  0
 50 51  1  0
 51  2  1  0
 53 52  1  0
 53 56  1  0
 54 59  2  0
 54 56  1  0
 56 58  2  0
 57 62  1  0
 57 55  2  0
 58 55  1  0
 59 57  1  0
 62 61  1  1
 62 60  1  0
 63 62  1  0
 64 69  1  0
 65 66  1  0
 65 64  1  0
 67 66  1  0
 67 74  1  0
 67 68  1  0
 69 63  1  0
 69 68  1  0
 70 63  2  0
 71 72  2  0
 72 91  1  0
 73 72  1  0
 73 76  1  0
 74 75  1  0
 74 71  1  0
 75 73  2  0
 76 77  1  0
 77 78  2  0
 79 82  1  0
 79 78  1  0
 80 79  2  0
 81 80  1  0
 81 76  2  0
 82 83  1  0
 83 84  1  0
 84 85  2  0
 86 85  1  0
 86 90  1  0
 87 86  2  0
 88 83  2  0
 88 87  1  0
 89 88  1  0
 91 92  1  0
 92 95  1  0
 92 94  1  0
 93 91  2  0
 96 71  1  0
 96 97  1  0
 98 96  1  0
M  ISO  4   7 101   8 101  62 100  63 100
M  END
>  <TORSDO>  (39) 
F 24

>  <SCORE>  (39) 
-10.346

>  <name>  (39) 
40

>  <ligand_id>  (39) 
40

>  <original_smiles>  (39) 
[H]c1nc(C(C(=O)N2C([H])([H])C([H])([H])C([H])([H])C([H])(n3nc(-c4c([H])c([H])c(Oc5c([H])c([H])c(F)c([H])c5F)c([H])c4[H])c(C(=O)N([H])[H])c3N([H])[H])C2([H])[H])(C([H])([H])[H])C([H])([H])[H])c([H])nc1C([H])([H])C([H])([H])C(C([H])([H])[H])(C(F)(F)C([H])([H])C([H])([H])Oc1c([H])c([H])c2c(c1[H])C([H])([H])N(C(=O)C([H])(N([H])C(=O)C([H])(N([H])C([H])([H])[H])C([H])([H])[H])C(C([H])([H])[H])(C([H])([H])[H])C([H])([H])[H])C([H])(C(=O)N([H])C1([H])c3c([H])c([H])c([H])c([H])c3C([H])([H])C([H])([H])C1([H])[H])C2([H])[H])C([H])(C([H])([H])[H])C([H])([H])[H]

>  <smiles>  (39) 
[H]c1nc(C(C(=O)N2C([H])([H])C([H])([H])C([H])([H])C([H])(n3nc(-c4c([H])c([H])c(Oc5c([H])c([H])c(F)c([H])c5F)c([H])c4[H])c(C(=O)N([H])[H])c3N([H])[H])C2([H])[H])(C([H])([H])[H])C([H])([H])[H])c([H])nc1C([H])([H])C([H])([H])C(C([H])([H])[H])(C(F)(F)C([H])([H])C([H])([H])Oc1c([H])c([H])c2c(c1[H])C([H])([H])N(C(=O)C([H])(N([H])C(=O)C([H])(N([H])C([H])([H])[H])C([H])([H])[H])C(C([H])([H])[H])(C([H])([H])[H])C([H])([H])[H])C([H])(C(=O)N([H])C1([H])c3c([H])c([H])c([H])c([H])c3C([H])([H])C([H])([H])C1([H])[H])C2([H])[H])C([H])(C([H])([H])[H])C([H])([H])[H]

$$$$
41:0:0
     RDKit          3D

106114  0  0  1  0  0  0  0  0999 V2000
  -30.8970  -19.7680   21.0640 C   0  0  0  0  0  3  0  0  0  0  0  0
  -30.4300  -17.8220   20.4600 C   0  0  0  0  0  3  0  0  0  0  0  0
  -30.8820  -19.0440   22.1880 N   0  0  0  0  0  2  0  0  0  0  0  0
  -30.5550  -17.7740   21.7950 N   0  0  0  0  0  2  0  0  0  0  0  0
  -30.7850  -19.0300   19.9330 N   0  0  0  0  0  0  0  0  0  0  0  0
  -30.8090  -19.4490   18.5140 C   0  0  0  0  0  2  0  0  0  0  0  0
  -33.3880  -19.4890   18.5810 C   0  0  0  0  0  1  0  0  0  0  0  0
  -32.1270  -19.9810   17.8290 C   0  0  1  0  0  0  0  0  0  0  0  0
  -30.8630  -19.6950   15.5540 C   0  0  0  0  0  1  0  0  0  0  0  0
  -32.6020  -17.9720   16.1930 C   0  0  0  0  0  1  0  0  0  0  0  0
  -32.1680  -19.4470   16.3460 C   0  0  0  0  0  3  0  0  0  0  0  0
  -32.1160  -21.5610   17.8400 C   0  0  0  0  0  2  0  0  0  0  0  0
  -32.9380  -22.3580   16.7970 C   0  0  0  0  0  2  0  0  0  0  0  0
  -33.5050  -24.7520   15.9730 C   0  0  0  0  0  1  0  0  0  0  0  0
  -32.9580  -23.8730   17.1080 C   0  0  0  0  0  2  0  0  0  0  0  0
  -29.7530  -16.7070   19.6660 C   0  0  0  0  0  3  0  0  0  0  0  0
  -30.5740  -14.4850   20.6620 C   0  0  0  0  0  0  0  0  0  0  0  0
  -30.4620  -12.1960   19.8480 C   0  0  0  0  0  2  0  0  0  0  0  0
  -29.5640  -12.2710   18.5950 C   0  0  0  0  0  2  0  0  0  0  0  0
  -28.0750  -12.1090   18.9710 C   0  0  0  0  0  2  0  0  0  0  0  0
  -27.6370  -12.9760   20.1850 C   0  0  0  0  0  3  0  0  0  0  0  0
  -28.6810  -12.9450   21.3260 C   0  0  0  0  0  2  0  0  0  0  0  0
  -30.0080  -13.2530   20.7550 N   0  0  0  0  0  0  0  0  0  0  0  0
  -31.7690  -14.6720   20.4080 O   0  0  0  0  0  0  0  0  0  0  0  0
  -29.6720  -15.4580   20.4740 N   0  0  0  0  0  0  0  0  0  0  0  0
  -28.7310  -15.1750   20.6880 H   0  0  0  0  0  0  0  0  0  0  0  0
  -25.2040  -13.5170   20.8370 C   0  0  0  0  0  0  0  0  0  0  0  0
  -24.1520  -12.7220   21.1720 C   0  0  0  0  0  0  0  0  0  0  0  0
  -24.6440  -11.3860   21.1170 C   0  0  0  0  0  0  0  0  0  0  0  0
  -26.2830  -12.6670   20.6270 N   0  0  0  0  0  0  0  0  0  0  0  0
  -25.9430  -11.3750   20.8500 N   0  0  0  0  0  0  0  0  0  0  0  0
  -23.9400  -10.1080   21.2470 C   0  0  0  0  0  0  0  0  0  0  0  0
  -24.3470   -9.1380   22.1870 C   0  0  0  0  0  3  0  0  0  0  0  0
  -23.6390   -7.9240   22.3120 C   0  0  0  0  0  3  0  0  0  0  0  0
  -22.5150   -7.6750   21.4870 C   0  0  0  0  0  0  0  0  0  0  0  0
  -22.1290   -8.6360   20.5390 C   0  0  0  0  0  3  0  0  0  0  0  0
  -22.8360   -9.8420   20.4130 C   0  0  0  0  0  3  0  0  0  0  0  0
  -21.7840   -6.5110   21.5200 O   0  0  0  0  0  0  0  0  0  0  0  0
  -21.6580   -5.7720   22.6690 C   0  0  0  0  0  0  0  0  0  0  0  0
  -21.0300   -6.2920   23.8220 C   0  0  0  0  0  3  0  0  0  0  0  0
  -20.8630   -5.4760   24.9600 C   0  0  0  0  0  3  0  0  0  0  0  0
  -21.3100   -4.1420   24.9390 C   0  0  0  0  0  0  0  0  0  0  0  0
  -21.9290   -3.6210   23.7890 C   0  0  0  0  0  3  0  0  0  0  0  0
  -22.1020   -4.4350   22.6570 C   0  0  0  0  0  0  0  0  0  0  0  0
  -22.6810   -3.9260   21.5430 F   0  0  0  0  0  0  0  0  0  0  0  0
  -21.1440   -3.3530   26.0270 F   0  0  0  0  0  0  0  0  0  0  0  0
  -22.7430  -13.1710   21.4270 C   0  0  0  0  0  0  0  0  0  0  0  0
  -22.0120  -12.4490   22.2680 N   0  0  0  0  0  0  0  0  0  0  0  0
  -22.2990  -14.1990   20.9190 O   0  0  0  0  0  0  0  0  0  0  0  0
  -22.3820  -11.6180   22.7070 H   0  0  0  0  0  0  0  0  0  0  0  0
  -21.0650  -12.7360   22.4750 H   0  0  0  0  0  0  0  0  0  0  0  0
  -25.3080  -14.8900   20.6580 N   0  0  0  0  0  0  0  0  0  0  0  0
  -24.4980  -15.4940   20.7440 H   0  0  0  0  0  0  0  0  0  0  0  0
  -26.1170  -15.3740   20.2920 H   0  0  0  0  0  0  0  0  0  0  0  0
  -27.5840  -15.7880   18.6400 C   0  0  0  0  0  1  0  0  0  0  0  0
  -28.0890  -18.0940   18.0800 C   0  0  0  0  0  1  0  0  0  0  0  0
  -27.5050  -17.6890   20.4020 C   0  0  0  0  0  1  0  0  0  0  0  0
  -28.2700  -17.0590   19.2100 C   0  0  2  0  0  0  0  0  0  0  0  0
  -31.0530  -21.2530   21.0550 C   0  0  0  0  0  2  0  0  0  0  0  0
  -30.0330  -22.0400   21.8950 C   0  0  0  0  0  2  0  0  0  0  0  0
  -29.8180  -24.3310   23.0010 C   0  0  0  0  0  1  0  0  0  0  0  0
  -30.2620  -23.5610   21.7490 C   0  0  0  0  0  3  0  0  0  0  0  0
  -29.6820  -24.1740   20.4460 C   0  0  0  0  0  2  0  0  0  0  0  0
  -28.1630  -24.4420   20.4420 C   0  0  0  0  0  2  0  0  0  0  0  0
  -27.7890  -25.9280   20.6030 C   0  0  0  0  0  2  0  0  0  0  0  0
  -27.3880  -26.5190   19.3630 O   0  0  0  0  0  0  0  0  0  0  0  0
  -24.4870  -31.6850   23.2750 C   0  0  0  0  0  0  0  0  0  0  0  0
  -26.3430  -27.3960   19.5200 C   0  0  0  0  0  0  0  0  0  0  0  0
  -22.9790  -30.5680   21.6600 C   0  0  0  0  0  3  0  0  0  0  0  0
  -24.1150  -29.0720   19.9320 C   0  0  0  0  0  0  0  0  0  0  0  0
  -25.4850  -30.7380   21.1980 C   0  0  0  0  0  2  0  0  0  0  0  0
  -25.3700  -29.4380   20.4360 C   0  0  0  0  0  0  0  0  0  0  0  0
  -26.4890  -28.6010   20.2390 C   0  0  0  0  0  3  0  0  0  0  0  0
  -25.0800  -27.0390   19.0070 C   0  0  0  0  0  3  0  0  0  0  0  0
  -23.9630  -27.8720   19.2110 C   0  0  0  0  0  3  0  0  0  0  0  0
  -22.9650  -30.0160   20.2070 C   0  0  0  0  0  2  0  0  0  0  0  0
  -24.3420  -31.0080   22.1030 N   0  0  0  0  0  0  0  0  0  0  0  0
  -23.5050  -31.9870   23.9670 O   0  0  0  0  0  0  0  0  0  0  0  0
  -22.3420  -29.5190   22.5980 C   0  0  0  0  0  0  0  0  0  0  0  0
  -21.0180  -29.3250   22.4730 N   0  0  0  0  0  0  0  0  0  0  0  0
  -23.0380  -28.8770   23.3890 O   0  0  0  0  0  0  0  0  0  0  0  0
  -20.5190  -29.8990   21.8080 H   0  0  0  0  0  0  0  0  0  0  0  0
  -17.6850  -27.9760   22.8380 C   0  0  0  0  0  0  0  0  0  0  0  0
  -20.2130  -28.3590   23.2210 C   0  0  0  0  0  3  0  0  0  0  0  0
  -20.4110  -26.9270   22.6680 C   0  0  0  0  0  2  0  0  0  0  0  0
  -19.3730  -26.5400   21.6100 C   0  0  0  0  0  2  0  0  0  0  0  0
  -17.9580  -26.6290   22.1890 C   0  0  0  0  0  2  0  0  0  0  0  0
  -18.7460  -28.7950   23.3070 C   0  0  0  0  0  0  0  0  0  0  0  0
  -18.4420  -30.0540   23.8670 C   0  0  0  0  0  3  0  0  0  0  0  0
  -17.1090  -30.4920   23.9730 C   0  0  0  0  0  3  0  0  0  0  0  0
  -16.0620  -29.6720   23.5170 C   0  0  0  0  0  3  0  0  0  0  0  0
  -16.3510  -28.4170   22.9530 C   0  0  0  0  0  3  0  0  0  0  0  0
  -25.8880  -32.1370   23.7960 C   0  0  0  0  0  3  0  0  0  0  0  0
  -25.7710  -33.5400   24.2200 N   0  0  0  0  0  0  0  0  0  0  0  0
  -26.2000  -34.5900   23.5060 C   0  0  0  0  0  0  0  0  0  0  0  0
  -26.8100  -34.4690   22.4390 O   0  0  0  0  0  0  0  0  0  0  0  0
  -25.2400  -33.7130   25.0600 H   0  0  0  0  0  0  0  0  0  0  0  0
  -24.7110  -36.6110   23.3240 C   0  0  0  0  0  1  0  0  0  0  0  0
  -25.9070  -35.9950   24.0630 C   0  0  0  0  0  3  0  0  0  0  0  0
  -28.1540  -36.5610   24.8820 C   0  0  0  0  0  1  0  0  0  0  0  0
  -27.0630  -36.9140   23.9770 N   0  0  0  0  0  0  0  0  0  0  0  0
  -26.7790  -37.8700   24.1790 H   0  0  0  0  0  0  0  0  0  0  0  0
  -26.4310  -31.2410   24.9750 C   0  0  1  0  0  0  0  0  0  0  0  0
  -25.4340  -31.0670   26.1430 C   0  0  0  0  0  1  0  0  0  0  0  0
  -26.8050  -29.8340   24.4560 C   0  0  0  0  0  1  0  0  0  0  0  0
  -27.7260  -31.8610   25.5530 C   0  0  0  0  0  1  0  0  0  0  0  0
  1 59  1  0
  1  3  1  0
  2 16  1  0
  2  4  1  0
  4  3  1  0
  5  2  1  0
  5  1  1  0
  6  5  1  0
  8 12  1  0
  8  6  1  0
  8  7  1  1
  9 11  1  0
 10 11  1  0
 11  8  1  0
 13 15  1  0
 13 12  1  0
 14 15  1  0
 16 58  1  0
 16 25  1  0
 17 23  1  0
 18 23  1  0
 19 20  1  0
 19 18  1  0
 21 20  1  0
 21 30  1  0
 21 22  1  0
 23 22  1  0
 24 17  2  0
 25 17  1  0
 25 26  1  0
 27 28  2  0
 28 47  1  0
 29 28  1  0
 29 32  1  0
 30 27  1  0
 30 31  1  0
 31 29  2  0
 32 33  1  0
 33 34  2  0
 35 38  1  0
 35 34  1  0
 36 35  2  0
 37 36  1  0
 37 32  2  0
 38 39  1  0
 39 40  1  0
 40 41  2  0
 42 41  1  0
 42 46  1  0
 43 42  2  0
 44 39  2  0
 44 43  1  0
 45 44  1  0
 47 48  1  0
 48 51  1  0
 48 50  1  0
 49 47  2  0
 52 53  1  0
 52 27  1  0
 54 52  1  0
 58 55  1  6
 56 58  1  0
 58 57  1  0
 59 60  1  0
 62 60  1  0
 62 61  1  0
 63 62  1  0
 64 63  1  0
 64 65  1  0
 66 68  1  0
 66 65  1  0
 67 78  2  0
 68 73  1  0
 69 77  1  0
 69 79  1  0
 70 76  1  0
 70 72  1  0
 71 77  1  0
 72 71  1  0
 73 72  2  0
 74 75  1  0
 74 68  2  0
 75 70  2  0
 76 69  1  0
 77 67  1  0
 79 81  2  0
 80 79  1  0
 82 80  1  0
 83 92  2  0
 83 88  1  0
 84 80  1  0
 84 88  1  0
 85 84  1  0
 86 87  1  0
 86 85  1  0
 87 83  1  0
 88 89  2  0
 89 90  1  0
 91 90  2  0
 92 91  1  0
 93 67  1  0
 93 94  1  0
 93103  1  0
 94 97  1  0
 95 99  1  0
 95 94  1  0
 96 95  2  0
 99 98  1  0
101 99  1  0
101102  1  0
101100  1  0
103106  1  1
103104  1  0
105103  1  0
M  ISO  4  17 100  25 100  65 101  66 101
M  END
>  <TORSDO>  (40) 
F 30

>  <SCORE>  (40) 
-9.999

>  <name>  (40) 
41

>  <ligand_id>  (40) 
41

>  <original_smiles>  (40) 
[H]c1c([H])c([H])c2c(c1[H])C([H])([H])C([H])([H])C([H])([H])C2([H])N([H])C(=O)C1([H])N(C(=O)C([H])(N([H])C(=O)C([H])(N([H])C([H])([H])[H])C([H])([H])[H])C(C([H])([H])[H])(C([H])([H])[H])C([H])([H])[H])C([H])([H])c2c([H])c(OC([H])([H])C([H])([H])C([H])([H])C([H])(C([H])([H])[H])C([H])([H])C([H])([H])c3nnc(C([H])(N([H])C(=O)N4C([H])([H])C([H])([H])C([H])([H])C([H])(n5nc(-c6c([H])c([H])c(Oc7c([H])c([H])c(F)c([H])c7F)c([H])c6[H])c(C(=O)N([H])[H])c5N([H])[H])C4([H])[H])C(C([H])([H])[H])(C([H])([H])[H])C([H])([H])[H])n3C([H])([H])C(C([H])([H])[H])(C([H])([H])C([H])([H])C([H])([H])C([H])([H])[H])C([H])(C([H])([H])[H])C([H])([H])[H])c([H])c([H])c2C1([H])[H]

>  <smiles>  (40) 
[H]c1c([H])c([H])c2c(c1[H])C([H])([H])C([H])([H])C([H])([H])C2([H])N([H])C(=O)C1([H])N(C(=O)C([H])(N([H])C(=O)C([H])(N([H])C([H])([H])[H])C([H])([H])[H])C(C([H])([H])[H])(C([H])([H])[H])C([H])([H])[H])C([H])([H])c2c([H])c(OC([H])([H])C([H])([H])C([H])([H])C([H])(C([H])([H])[H])C([H])([H])C([H])([H])c3nnc(C([H])(N([H])C(=O)N4C([H])([H])C([H])([H])C([H])([H])C([H])(n5nc(-c6c([H])c([H])c(Oc7c([H])c([H])c(F)c([H])c7F)c([H])c6[H])c(C(=O)N([H])[H])c5N([H])[H])C4([H])[H])C(C([H])([H])[H])(C([H])([H])[H])C([H])([H])[H])n3C([H])([H])C(C([H])([H])[H])(C([H])([H])C([H])([H])C([H])([H])C([H])([H])[H])C([H])(C([H])([H])[H])C([H])([H])[H])c([H])c([H])c2C1([H])[H]

$$$$
43:0:0
     RDKit          3D

 99100  0  0  1  0  0  0  0  0999 V2000
  -30.3620  -25.3290   18.8080 C   0  0  0  0  0  2  0  0  0  0  0  0
  -29.0460  -26.4590   19.4270 C   0  0  0  0  0  2  0  0  0  0  0  0
  -28.3320  -25.3880   21.8020 C   0  0  0  0  0  2  0  0  0  0  0  0
  -30.0440  -22.7150   20.5570 C   0  0  0  0  0  2  0  0  0  0  0  0
  -30.7520  -23.7930   19.5060 N   0  0  0  0  0  2  0  0  0  0  0  0
  -29.2090  -23.6830   21.8400 N   0  0  0  0  0  2  0  0  0  0  0  0
  -26.5370  -26.1270   23.1330 C   0  0  0  0  0  1  0  0  0  0  0  0
  -29.2160  -29.2950   22.3840 C   0  0  0  0  0 15  0  0  0  0  0  0
  -28.5230  -25.7360   24.3740 C   0  0  0  0  0  1  0  0  0  0  0  0
  -28.0520  -26.6720   23.1330 C   0  0  0  0  0  3  0  0  0  0  0  0
  -31.7550  -20.4960   20.7910 C   0  0  0  0  0  1  0  0  0  0  0  0
  -30.6300  -20.7130   18.4820 C   0  0  0  0  0  1  0  0  0  0  0  0
  -30.4280  -20.4480   19.9910 C   0  0  0  0  0  2  0  0  0  0  0  0
  -28.6650  -17.8270   19.7360 C   0  0  0  0  0  1  0  0  0  0  0  0
  -30.8740  -17.6000   21.0750 C   0  0  0  0  0  1  0  0  0  0  0  0
  -30.2050  -17.9000   19.7000 C   0  0  0  0  0  2  0  0  0  0  0  0
  -30.7100  -15.5700   19.4380 C   0  0  0  0  0  2  0  0  0  0  0  0
  -30.8650  -12.6140   18.8300 C   0  0  0  0  0  2  0  0  0  0  0  0
  -30.0440  -11.6820   17.8030 C   0  0  0  0  0  2  0  0  0  0  0  0
  -28.7170  -11.1770   18.3690 C   0  0  0  0  0  2  0  0  0  0  0  0
  -28.1440  -12.3320   19.1940 C   0  0  0  0  0  3  0  0  0  0  0  0
  -29.1440  -13.1090   20.1670 C   0  0  0  0  0  2  0  0  0  0  0  0
  -30.2090  -13.9900   19.4460 N   0  0  0  0  0  0  0  0  0  0  0  0
  -31.8890  -15.1480   19.1620 O   0  0  0  0  0  1  0  0  0  0  0  0
  -25.8390  -12.9760   19.9360 C   0  0  0  0  0  0  0  0  0  0  0  0
  -24.7450  -12.3030   20.3920 C   0  0  0  0  0  0  0  0  0  0  0  0
  -25.1240  -10.9270   20.4740 C   0  0  0  0  0  0  0  0  0  0  0  0
  -26.8320  -12.0370   19.7710 N   0  0  0  0  0  0  0  0  0  0  0  0
  -26.4120  -10.7870   20.1370 N   0  0  0  0  0  0  0  0  0  0  0  0
  -24.3000   -9.7470   20.8030 C   0  0  0  0  0  0  0  0  0  0  0  0
  -24.2850   -9.1820   22.0970 C   0  0  0  0  0  3  0  0  0  0  0  0
  -23.4550   -8.0780   22.3900 C   0  0  0  0  0  3  0  0  0  0  0  0
  -22.6240   -7.5230   21.3880 C   0  0  0  0  0  0  0  0  0  0  0  0
  -22.6510   -8.0800   20.0970 C   0  0  0  0  0  3  0  0  0  0  0  0
  -23.4830   -9.1750   19.8060 C   0  0  0  0  0  3  0  0  0  0  0  0
  -21.8130   -6.4270   21.5740 O   0  0  0  0  0  0  0  0  0  0  0  0
  -20.9730   -6.3240   22.6540 C   0  0  0  0  0  0  0  0  0  0  0  0
  -19.8910   -7.2110   22.8420 C   0  0  0  0  0  3  0  0  0  0  0  0
  -19.0080   -7.0270   23.9260 C   0  0  0  0  0  3  0  0  0  0  0  0
  -19.2030   -5.9570   24.8200 C   0  0  0  0  0  0  0  0  0  0  0  0
  -20.2810   -5.0730   24.6360 C   0  0  0  0  0  3  0  0  0  0  0  0
  -21.1580   -5.2530   23.5510 C   0  0  0  0  0  0  0  0  0  0  0  0
  -22.1790   -4.3810   23.3640 F   0  0  0  0  0  0  0  0  0  0  0  0
  -18.3550   -5.7780   25.8600 F   0  0  0  0  0  0  0  0  0  0  0  0
  -23.3960  -12.9110   20.6420 C   0  0  0  0  0  0  0  0  0  0  0  0
  -22.6820  -12.4240   21.6470 N   0  0  0  0  0  0  0  0  0  0  0  0
  -22.9930  -13.8660   19.9780 O   0  0  0  0  0  0  0  0  0  0  0  0
  -23.0190  -11.6500   22.2020 H   0  0  0  0  0  0  0  0  0  0  0  0
  -21.7840  -12.8310   21.8630 H   0  0  0  0  0  0  0  0  0  0  0  0
  -26.0710  -14.3110   19.6150 N   0  0  0  0  0  0  0  0  0  0  0  0
  -25.3550  -15.0280   19.6840 H   0  0  0  0  0  0  0  0  0  0  0  0
  -26.9390  -14.6520   19.2210 H   0  0  0  0  0  0  0  0  0  0  0  0
  -28.4520  -27.3540   18.3050 C   0  0  0  0  0  2  0  0  0  0  0  0
  -28.2440  -26.5990   16.9080 C   0  0  0  0  0  2  0  0  0  0  0  0
  -27.8590  -24.5940   15.3940 C   0  0  0  0  0  1  0  0  0  0  0  0
  -26.5350  -26.5980   14.9470 C   0  0  0  0  0  1  0  0  0  0  0  0
  -27.1240  -25.7460   16.1200 C   0  0  2  0  0  0  0  0  0  0  0  0
  -25.8720  -25.0760   16.8580 C   0  0  0  0  0  2  0  0  0  0  0  0
  -25.8560  -24.8340   18.2780 O   0  0  0  0  0  0  0  0  0  0  0  0
  -24.2320  -31.8890   23.5030 C   0  0  0  0  0  0  0  0  0  0  0  0
  -25.3350  -25.6710   19.2060 C   0  0  0  0  0  2  0  0  0  0  0  0
  -22.7810  -30.6710   21.8030 C   0  0  0  0  0  3  0  0  0  0  0  0
  -24.3410  -28.9180   19.5530 C   0  0  0  0  0  2  0  0  0  0  0  0
  -25.7650  -29.8560   22.3060 C   0  0  0  0  0  2  0  0  0  0  0  0
  -25.8980  -28.7960   20.7740 C   0  0  0  0  0  2  0  0  0  0  0  0
  -26.6430  -27.0950   20.9290 C   0  0  0  0  0  1  0  0  0  0  0  0
  -24.0950  -26.4150   18.5080 C   0  0  0  0  0  3  0  0  0  0  0  0
  -23.7020  -27.8790   18.6760 C   0  0  0  0  0  3  0  0  0  0  0  0
  -22.7860  -29.8620   20.1060 C   0  0  0  0  0  2  0  0  0  0  0  0
  -24.2280  -30.7110   22.7670 N   0  0  0  0  0  0  0  0  0  0  0  0
  -23.2010  -32.5280   23.7870 O   0  0  0  0  0  0  0  0  0  0  0  0
  -21.7030  -30.1820   22.7550 C   0  0  0  0  0  0  0  0  0  0  0  0
  -20.7620  -29.3190   22.3790 N   0  0  0  0  0  0  0  0  0  0  0  0
  -21.8100  -30.5240   23.9280 O   0  0  0  0  0  0  0  0  0  0  0  0
  -20.7010  -29.0240   21.4150 H   0  0  0  0  0  0  0  0  0  0  0  0
  -18.9460  -26.2790   23.0400 C   0  0  0  0  0  0  0  0  0  0  0  0
  -19.9650  -28.5980   23.3730 C   0  0  0  0  0  3  0  0  0  0  0  0
  -20.8670  -27.9050   24.4220 C   0  0  0  0  0  2  0  0  0  0  0  0
  -21.2250  -26.4820   24.0670 C   0  0  0  0  0  2  0  0  0  0  0  0
  -19.9510  -25.6610   23.9920 C   0  0  0  0  0  2  0  0  0  0  0  0
  -18.9600  -27.6610   22.7310 C   0  0  0  0  0  0  0  0  0  0  0  0
  -18.0110  -28.1820   21.8270 C   0  0  0  0  0  3  0  0  0  0  0  0
  -17.0630  -27.3340   21.2280 C   0  0  0  0  0  3  0  0  0  0  0  0
  -17.0490  -25.9640   21.5390 C   0  0  0  0  0  3  0  0  0  0  0  0
  -17.9850  -25.4400   22.4460 C   0  0  0  0  0  3  0  0  0  0  0  0
  -25.5580  -32.4620   24.0510 C   0  0  0  0  0  3  0  0  0  0  0  0
  -26.0380  -31.6200   25.2920 C   0  0  1  0  0  0  0  0  0  0  0  0
  -24.8720  -30.9770   26.0720 C   0  0  0  0  0  1  0  0  0  0  0  0
  -26.9770  -30.4640   24.9760 C   0  0  0  0  0  1  0  0  0  0  0  0
  -26.8770  -32.5080   26.2250 C   0  0  0  0  0  1  0  0  0  0  0  0
  -25.3790  -33.8780   24.4680 N   0  0  0  0  0  0  0  0  0  0  0  0
  -26.0430  -34.9500   24.0060 C   0  0  0  0  0  0  0  0  0  0  0  0
  -26.8930  -34.8720   23.1150 O   0  0  0  0  0  0  0  0  0  0  0  0
  -24.6540  -34.0470   25.1470 H   0  0  0  0  0  0  0  0  0  0  0  0
  -24.8590  -37.1620   23.6890 C   0  0  0  0  0  1  0  0  0  0  0  0
  -25.7270  -36.3240   24.6430 C   0  0  0  0  0  3  0  0  0  0  0  0
  -27.6820  -36.5060   26.1260 C   0  0  0  0  0  1  0  0  0  0  0  0
  -26.9290  -37.1040   25.0270 N   0  0  0  0  0  0  0  0  0  0  0  0
  -26.6770  -38.0500   25.2980 H   0  0  0  0  0  0  0  0  0  0  0  0
  1  2  1  0
  1  5  1  0
  3  6  1  0
  3 10  1  0
  4  6  1  0
  5  4  1  0
  7 10  1  0
 10  9  1  0
 12 13  1  0
 13 11  1  0
 16 14  1  0
 16 15  1  0
 17 23  1  0
 18 23  1  0
 19 20  1  0
 19 18  1  0
 21 20  1  0
 21 28  1  0
 21 22  1  0
 23 22  1  0
 24 17  1  0
 25 26  2  0
 26 27  1  0
 26 45  1  0
 27 30  1  0
 28 25  1  0
 28 29  1  0
 29 27  2  0
 30 31  1  0
 31 32  2  0
 33 36  1  0
 33 32  1  0
 34 33  2  0
 35 34  1  0
 35 30  2  0
 36 37  1  0
 37 38  2  0
 37 42  1  0
 38 39  1  0
 39 40  2  0
 40 44  1  0
 41 40  1  0
 42 41  2  0
 43 42  1  0
 45 46  1  0
 46 49  1  0
 46 48  1  0
 47 45  2  0
 50 51  1  0
 50 25  1  0
 52 50  1  0
 53  2  1  0
 54 53  1  0
 57 55  1  6
 56 57  1  0
 57 58  1  0
 57 54  1  0
 58 59  1  0
 59 61  1  0
 60 71  2  0
 62 69  1  0
 62 72  1  0
 62 70  1  0
 63 69  1  0
 64 70  1  0
 65 66  1  0
 65 64  1  0
 67 68  2  0
 67 61  1  0
 68 63  1  0
 70 60  1  0
 72 74  2  0
 73 72  1  0
 75 73  1  0
 76 80  1  0
 77 73  1  0
 77 78  1  0
 79 78  1  0
 80 79  1  0
 81 76  1  0
 81 77  1  0
 82 81  2  0
 83 84  2  0
 83 82  1  0
 84 85  1  0
 85 76  2  0
 86 60  1  0
 86 91  1  0
 86 87  1  0
 87 88  1  1
 87 90  1  0
 89 87  1  0
 91 94  1  0
 92 91  1  0
 92 96  1  0
 93 92  2  0
 96 95  1  0
 96 98  1  0
 98 99  1  0
 98 97  1  0
M  ISO  4  16 100  17 100  58 101  59 101
M  END
>  <TORSDO>  (41) 
F 23

>  <SCORE>  (41) 
-1.346

>  <name>  (41) 
43

>  <ligand_id>  (41) 
43

>  <original_smiles>  (41) 
[H]c1nc(C(C([H])([H])[H])(C([H])([H])[H])C(C(=O)N2C([H])([H])C([H])([H])C([H])([H])C([H])(n3nc(-c4c([H])c([H])c(Oc5c([H])c([H])c(F)c([H])c5F)c([H])c4[H])c(C(=O)N([H])[H])c3N([H])[H])C2([H])[H])(C([H])([H])[H])C([H])([H])[H])nc(C(C([H])([H])[H])(C([H])([H])[H])C([H])([H])[H])c1C([H])([H])C([H])([H])C(C([H])([H])[H])(C([H])([H])[H])C([H])([H])Oc1c([H])c([H])c2c(c1[H])C([H])([H])N(C(=O)C([H])(N([H])C(=O)C([H])(N([H])C([H])([H])[H])C([H])([H])[H])C(C([H])([H])[H])(C([H])([H])[H])C([H])([H])[H])C([H])(C(=O)N([H])C1([H])c3c([H])c([H])c([H])c([H])c3C([H])([H])C([H])([H])C1([H])[H])C2([H])[H]

>  <smiles>  (41) 
[H]c1nc(C(C([H])([H])[H])(C([H])([H])[H])C(C(=O)N2C([H])([H])C([H])([H])C([H])([H])C([H])(n3nc(-c4c([H])c([H])c(Oc5c([H])c([H])c(F)c([H])c5F)c([H])c4[H])c(C(=O)N([H])[H])c3N([H])[H])C2([H])[H])(C([H])([H])[H])C([H])([H])[H])nc(C(C([H])([H])[H])(C([H])([H])[H])C([H])([H])[H])c1C([H])([H])C([H])([H])C(C([H])([H])[H])(C([H])([H])[H])C([H])([H])Oc1c([H])c([H])c2c(c1[H])C([H])([H])N(C(=O)C([H])(N([H])C(=O)C([H])(N([H])C([H])([H])[H])C([H])([H])[H])C(C([H])([H])[H])(C([H])([H])[H])C([H])([H])[H])C([H])(C(=O)N([H])C1([H])c3c([H])c([H])c([H])c([H])c3C([H])([H])C([H])([H])C1([H])[H])C2([H])[H]

$$$$
44:0:0
     RDKit          3D

 99107  0  0  1  0  0  0  0  0999 V2000
  -30.2420  -20.4570   21.2310 C   0  0  0  0  0  3  0  0  0  0  0  0
  -31.5060  -19.8940   21.0170 C   0  0  0  0  0  0  0  0  0  0  0  0
  -29.1770  -19.8700   20.5630 C   0  0  0  0  0  0  0  0  0  0  0  0
  -30.5610  -18.2790   19.6550 C   0  0  0  0  0  0  0  0  0  0  0  0
  -31.6440  -18.8310   20.1970 N   0  0  0  0  0  0  0  0  0  0  0  0
  -29.3410  -18.7810   19.8050 N   0  0  0  0  0  0  0  0  0  0  0  0
  -33.4220  -19.5460   22.6400 C   0  0  0  0  0  1  0  0  0  0  0  0
  -32.5080  -21.8350   22.3390 C   0  0  0  0  0  1  0  0  0  0  0  0
  -33.7810  -20.7870   20.4650 C   0  0  0  0  0  1  0  0  0  0  0  0
  -32.7900  -20.5020   21.6080 C   0  0  2  0  0  0  0  0  0  0  0  0
  -30.8890  -17.9250   17.2010 C   0  0  0  0  0  1  0  0  0  0  0  0
  -29.2580  -16.5330   18.4580 C   0  0  0  0  0  1  0  0  0  0  0  0
  -30.6600  -17.1880   18.5510 C   0  0  2  0  0  0  0  0  0  0  0  0
  -33.1960  -16.6230   19.0060 C   0  0  0  0  0  1  0  0  0  0  0  0
  -32.0350  -15.2580   17.4570 C   0  0  0  0  0  1  0  0  0  0  0  0
  -31.7480  -16.0380   18.7840 C   0  0  2  0  0  0  0  0  0  0  0  0
  -31.3800  -15.1490   20.0590 C   0  0  0  0  0  0  0  0  0  0  0  0
  -30.8920  -12.8820   19.3490 C   0  0  0  0  0  2  0  0  0  0  0  0
  -29.9230  -12.8020   18.1630 C   0  0  0  0  0  2  0  0  0  0  0  0
  -28.4880  -12.6960   18.6620 C   0  0  0  0  0  2  0  0  0  0  0  0
  -28.1220  -13.7440   19.7440 C   0  0  0  0  0  3  0  0  0  0  0  0
  -29.2470  -13.8980   20.8160 C   0  0  0  0  0  2  0  0  0  0  0  0
  -30.5300  -14.0790   20.0880 N   0  0  0  0  0  0  0  0  0  0  0  0
  -32.1350  -15.3290   20.9800 O   0  0  0  0  0  0  0  0  0  0  0  0
  -25.7220  -14.3600   20.4580 C   0  0  0  0  0  0  0  0  0  0  0  0
  -24.6460  -13.5770   20.7890 C   0  0  0  0  0  0  0  0  0  0  0  0
  -25.1180  -12.2300   20.7680 C   0  0  0  0  0  0  0  0  0  0  0  0
  -26.7820  -13.4830   20.2670 N   0  0  0  0  0  0  0  0  0  0  0  0
  -26.4190  -12.2020   20.5210 N   0  0  0  0  0  0  0  0  0  0  0  0
  -24.3980  -10.9600   20.9170 C   0  0  0  0  0  0  0  0  0  0  0  0
  -24.7600  -10.0250   21.9120 C   0  0  0  0  0  3  0  0  0  0  0  0
  -24.0450   -8.8170   22.0560 C   0  0  0  0  0  3  0  0  0  0  0  0
  -22.9540   -8.5350   21.2010 C   0  0  0  0  0  0  0  0  0  0  0  0
  -22.6140   -9.4560   20.1940 C   0  0  0  0  0  3  0  0  0  0  0  0
  -23.3310  -10.6560   20.0500 C   0  0  0  0  0  3  0  0  0  0  0  0
  -22.2150   -7.3780   21.2540 O   0  0  0  0  0  0  0  0  0  0  0  0
  -21.9860   -6.7250   22.4390 C   0  0  0  0  0  0  0  0  0  0  0  0
  -21.3180   -7.3480   23.5160 C   0  0  0  0  0  3  0  0  0  0  0  0
  -21.0380   -6.6160   24.6880 C   0  0  0  0  0  3  0  0  0  0  0  0
  -21.4230   -5.2660   24.7860 C   0  0  0  0  0  0  0  0  0  0  0  0
  -22.0870   -4.6450   23.7140 C   0  0  0  0  0  3  0  0  0  0  0  0
  -22.3660   -5.3710   22.5440 C   0  0  0  0  0  0  0  0  0  0  0  0
  -22.9850   -4.7610   21.5040 F   0  0  0  0  0  0  0  0  0  0  0  0
  -21.1490   -4.5620   25.9080 F   0  0  0  0  0  0  0  0  0  0  0  0
  -23.2350  -14.0390   21.0150 C   0  0  0  0  0  0  0  0  0  0  0  0
  -22.4880  -13.3300   21.8560 N   0  0  0  0  0  0  0  0  0  0  0  0
  -22.8000  -15.0580   20.4820 O   0  0  0  0  0  0  0  0  0  0  0  0
  -22.8480  -12.5010   22.3040 H   0  0  0  0  0  0  0  0  0  0  0  0
  -21.5390  -13.6200   22.0470 H   0  0  0  0  0  0  0  0  0  0  0  0
  -25.8830  -15.7290   20.2760 N   0  0  0  0  0  0  0  0  0  0  0  0
  -25.1160  -16.3890   20.3590 H   0  0  0  0  0  0  0  0  0  0  0  0
  -26.7530  -16.1690   20.0020 H   0  0  0  0  0  0  0  0  0  0  0  0
  -27.9270  -20.4320   20.6280 O   0  0  0  0  0  0  0  0  0  0  0  0
  -27.1770  -20.4830   19.4170 C   0  0  0  0  0  2  0  0  0  0  0  0
  -26.6120  -21.8930   19.2790 C   0  0  0  0  0  2  0  0  0  0  0  0
  -27.6780  -22.9770   19.5090 C   0  0  0  0  0  2  0  0  0  0  0  0
  -27.1100  -24.3750   19.2710 C   0  0  0  0  0  2  0  0  0  0  0  0
  -27.9770  -25.5090   19.8440 C   0  0  0  0  0  2  0  0  0  0  0  0
  -27.8100  -26.7700   19.1980 O   0  0  0  0  0  0  0  0  0  0  0  0
  -24.5290  -31.7060   23.1500 C   0  0  0  0  0  0  0  0  0  0  0  0
  -26.6650  -27.4870   19.4520 C   0  0  0  0  0  0  0  0  0  0  0  0
  -23.1160  -30.5270   21.5010 C   0  0  0  0  0  3  0  0  0  0  0  0
  -24.3590  -29.0730   19.8250 C   0  0  0  0  0  0  0  0  0  0  0  0
  -25.6260  -30.7950   21.1080 C   0  0  0  0  0  2  0  0  0  0  0  0
  -25.5880  -29.4870   20.3530 C   0  0  0  0  0  0  0  0  0  0  0  0
  -26.7470  -28.6980   20.1700 C   0  0  0  0  0  3  0  0  0  0  0  0
  -25.4210  -27.0970   18.9080 C   0  0  0  0  0  3  0  0  0  0  0  0
  -24.2670  -27.8730   19.1040 C   0  0  0  0  0  3  0  0  0  0  0  0
  -23.1680  -29.9730   20.0540 C   0  0  0  0  0  2  0  0  0  0  0  0
  -24.4490  -31.0160   21.9790 N   0  0  0  0  0  0  0  0  0  0  0  0
  -23.5130  -31.9750   23.8050 O   0  0  0  0  0  0  0  0  0  0  0  0
  -22.4940  -29.4470   22.4140 C   0  0  0  0  0  0  0  0  0  0  0  0
  -21.1660  -29.2710   22.3080 N   0  0  0  0  0  0  0  0  0  0  0  0
  -23.1990  -28.7740   23.1720 O   0  0  0  0  0  0  0  0  0  0  0  0
  -20.6600  -29.8590   21.6610 H   0  0  0  0  0  0  0  0  0  0  0  0
  -17.8180  -27.9930   22.7540 C   0  0  0  0  0  0  0  0  0  0  0  0
  -20.3690  -28.2870   23.0410 C   0  0  0  0  0  3  0  0  0  0  0  0
  -20.5040  -26.8830   22.4070 C   0  0  0  0  0  2  0  0  0  0  0  0
  -19.4070  -26.5780   21.3820 C   0  0  0  0  0  2  0  0  0  0  0  0
  -18.0220  -26.6740   22.0290 C   0  0  0  0  0  2  0  0  0  0  0  0
  -18.9210  -28.7580   23.2160 C   0  0  0  0  0  0  0  0  0  0  0  0
  -18.6810  -29.9940   23.8530 C   0  0  0  0  0  3  0  0  0  0  0  0
  -17.3680  -30.4670   24.0330 C   0  0  0  0  0  3  0  0  0  0  0  0
  -16.2780  -29.6950   23.5950 C   0  0  0  0  0  3  0  0  0  0  0  0
  -16.5040  -28.4600   22.9590 C   0  0  0  0  0  3  0  0  0  0  0  0
  -25.8950  -32.2100   23.7080 C   0  0  0  0  0  3  0  0  0  0  0  0
  -26.4410  -31.3350   24.9020 C   0  0  1  0  0  0  0  0  0  0  0  0
  -25.4040  -31.1080   26.0270 C   0  0  0  0  0  1  0  0  0  0  0  0
  -26.9040  -29.9490   24.3910 C   0  0  0  0  0  1  0  0  0  0  0  0
  -27.6900  -32.0110   25.5210 C   0  0  0  0  0  1  0  0  0  0  0  0
  -25.7130  -33.6050   24.1290 N   0  0  0  0  0  0  0  0  0  0  0  0
  -26.0880  -34.6680   23.4040 C   0  0  0  0  0  0  0  0  0  0  0  0
  -26.6970  -34.5700   22.3350 O   0  0  0  0  0  0  0  0  0  0  0  0
  -25.1710  -33.7630   24.9650 H   0  0  0  0  0  0  0  0  0  0  0  0
  -24.4850  -36.5920   23.2310 C   0  0  0  0  0  1  0  0  0  0  0  0
  -25.7310  -36.0600   23.9540 C   0  0  0  0  0  3  0  0  0  0  0  0
  -27.9610  -36.7440   24.7170 C   0  0  0  0  0  1  0  0  0  0  0  0
  -26.8310  -37.0390   23.8380 N   0  0  0  0  0  0  0  0  0  0  0  0
  -26.5050  -37.9770   24.0460 H   0  0  0  0  0  0  0  0  0  0  0  0
  2  1  2  0
  2 10  1  0
  3 53  1  0
  3  1  1  0
  4  6  1  0
  4  5  2  0
  5  2  1  0
  6  3  2  0
 10  9  1  6
 10  8  1  0
 10  7  1  0
 13 11  1  6
 12 13  1  0
 13 16  1  0
 13  4  1  0
 16 15  1  6
 16 14  1  0
 16 17  1  0
 17 23  1  0
 17 24  2  0
 18 23  1  0
 19 20  1  0
 19 18  1  0
 21 20  1  0
 21 28  1  0
 21 22  1  0
 23 22  1  0
 25 26  2  0
 26 45  1  0
 27 26  1  0
 27 30  1  0
 28 25  1  0
 28 29  1  0
 29 27  2  0
 30 31  1  0
 31 32  2  0
 33 36  1  0
 33 32  1  0
 34 33  2  0
 35 34  1  0
 35 30  2  0
 36 37  1  0
 37 42  2  0
 37 38  1  0
 38 39  2  0
 39 40  1  0
 40 44  1  0
 41 40  2  0
 42 41  1  0
 43 42  1  0
 45 46  1  0
 46 49  1  0
 46 48  1  0
 47 45  2  0
 50 51  1  0
 50 25  1  0
 52 50  1  0
 54 53  1  0
 55 54  1  0
 55 56  1  0
 57 56  1  0
 57 58  1  0
 59 61  1  0
 59 58  1  0
 60 71  2  0
 61 66  1  0
 62 70  1  0
 62 72  1  0
 63 69  1  0
 63 65  1  0
 64 70  1  0
 65 64  1  0
 66 65  2  0
 67 68  1  0
 67 61  2  0
 68 63  2  0
 69 62  1  0
 70 60  1  0
 72 74  2  0
 73 72  1  0
 75 73  1  0
 76 85  2  0
 76 81  1  0
 77 73  1  0
 77 81  1  0
 78 77  1  0
 79 80  1  0
 79 78  1  0
 80 76  1  0
 81 82  2  0
 82 83  1  0
 84 83  2  0
 85 84  1  0
 86 60  1  0
 86 91  1  0
 86 87  1  0
 87 90  1  1
 87 88  1  0
 89 87  1  0
 91 94  1  0
 92 96  1  0
 92 91  1  0
 93 92  2  0
 96 95  1  0
 98 96  1  0
 98 99  1  0
 98 97  1  0
M  ISO  4  16 100  17 100  58 101  59 101
M  END
>  <TORSDO>  (42) 
F 25

>  <SCORE>  (42) 
-10.356

>  <name>  (42) 
44

>  <ligand_id>  (42) 
44

>  <original_smiles>  (42) 
[H]c1c(OC([H])([H])C([H])([H])C([H])([H])C([H])([H])C([H])([H])Oc2c([H])c([H])c3c(c2[H])C([H])([H])N(C(=O)C([H])(N([H])C(=O)C([H])(N([H])C([H])([H])[H])C([H])([H])[H])C(C([H])([H])[H])(C([H])([H])[H])C([H])([H])[H])C([H])(C(=O)N([H])C2([H])c4c([H])c([H])c([H])c([H])c4C([H])([H])C([H])([H])C2([H])[H])C3([H])[H])nc(C(C([H])([H])[H])(C([H])([H])[H])C(C(=O)N2C([H])([H])C([H])([H])C([H])([H])C([H])(n3nc(-c4c([H])c([H])c(Oc5c([H])c([H])c(F)c([H])c5F)c([H])c4[H])c(C(=O)N([H])[H])c3N([H])[H])C2([H])[H])(C([H])([H])[H])C([H])([H])[H])nc1C(C([H])([H])[H])(C([H])([H])[H])C([H])([H])[H]

>  <smiles>  (42) 
[H]c1c(OC([H])([H])C([H])([H])C([H])([H])C([H])([H])C([H])([H])Oc2c([H])c([H])c3c(c2[H])C([H])([H])N(C(=O)C([H])(N([H])C(=O)C([H])(N([H])C([H])([H])[H])C([H])([H])[H])C(C([H])([H])[H])(C([H])([H])[H])C([H])([H])[H])C([H])(C(=O)N([H])C2([H])c4c([H])c([H])c([H])c([H])c4C([H])([H])C([H])([H])C2([H])[H])C3([H])[H])nc(C(C([H])([H])[H])(C([H])([H])[H])C(C(=O)N2C([H])([H])C([H])([H])C([H])([H])C([H])(n3nc(-c4c([H])c([H])c(Oc5c([H])c([H])c(F)c([H])c5F)c([H])c4[H])c(C(=O)N([H])[H])c3N([H])[H])C2([H])[H])(C([H])([H])[H])C([H])([H])[H])nc1C(C([H])([H])[H])(C([H])([H])[H])C([H])([H])[H]

$$$$
45:0:0
     RDKit          3D

 98107  0  0  1  0  0  0  0  0999 V2000
  -29.2710  -24.6250   24.1530 C   0  0  0  0  0  3  0  0  0  0  0  0
  -29.6740  -24.3810   21.9890 C   0  0  0  0  0  3  0  0  0  0  0  0
  -28.1350  -23.1410   22.9840 C   0  0  0  0  0  0  0  0  0  0  0  0
  -30.0210  -24.9810   23.1200 N   0  0  0  0  0  0  0  0  0  0  0  0
  -28.3030  -23.7190   24.1650 N   0  0  0  0  0  0  0  0  0  0  0  0
  -28.7330  -23.4580   21.8410 N   0  0  0  0  0  0  0  0  0  0  0  0
  -30.5230  -24.6870   20.7630 C   0  0  0  0  0  2  0  0  0  0  0  0
  -30.7240  -26.1780   20.4320 C   0  0  0  0  0  2  0  0  0  0  0  0
  -29.5430  -27.1220   20.6930 C   0  0  0  0  0  2  0  0  0  0  0  0
  -28.3840  -26.6900   19.9940 O   0  0  0  0  0  0  0  0  0  0  0  0
  -24.6120  -31.8700   23.2120 C   0  0  0  0  0  0  0  0  0  0  0  0
  -27.2470  -27.4680   20.0820 C   0  0  0  0  0  0  0  0  0  0  0  0
  -23.3970  -30.4930   21.5550 C   0  0  0  0  0  3  0  0  0  0  0  0
  -24.8410  -28.9590   20.1160 C   0  0  0  0  0  0  0  0  0  0  0  0
  -25.9190  -30.8410   21.3580 C   0  0  0  0  0  2  0  0  0  0  0  0
  -25.9950  -29.4770   20.7110 C   0  0  0  0  0  0  0  0  0  0  0  0
  -27.1970  -28.7410   20.6990 C   0  0  0  0  0  3  0  0  0  0  0  0
  -26.0730  -26.9550   19.4940 C   0  0  0  0  0  3  0  0  0  0  0  0
  -24.8710  -27.6920   19.5060 C   0  0  0  0  0  3  0  0  0  0  0  0
  -23.6020  -29.8260   20.1680 C   0  0  0  0  0  2  0  0  0  0  0  0
  -24.6620  -31.0850   22.1000 N   0  0  0  0  0  0  0  0  0  0  0  0
  -23.5340  -32.1420   23.7570 O   0  0  0  0  0  0  0  0  0  0  0  0
  -22.7420  -29.4670   22.5030 C   0  0  0  0  0  0  0  0  0  0  0  0
  -21.4150  -29.3020   22.3760 N   0  0  0  0  0  0  0  0  0  0  0  0
  -23.4230  -28.8240   23.3060 O   0  0  0  0  0  0  0  0  0  0  0  0
  -20.9310  -29.8690   21.6940 H   0  0  0  0  0  0  0  0  0  0  0  0
  -18.0260  -28.1400   22.8470 C   0  0  0  0  0  0  0  0  0  0  0  0
  -20.5850  -28.3660   23.1330 C   0  0  0  0  0  3  0  0  0  0  0  0
  -20.6770  -26.9410   22.5440 C   0  0  0  0  0  2  0  0  0  0  0  0
  -19.5750  -26.6400   21.5230 C   0  0  0  0  0  2  0  0  0  0  0  0
  -18.1920  -26.7940   22.1620 C   0  0  0  0  0  2  0  0  0  0  0  0
  -19.1510  -28.8860   23.2890 C   0  0  0  0  0  0  0  0  0  0  0  0
  -18.9440  -30.1460   23.8890 C   0  0  0  0  0  3  0  0  0  0  0  0
  -17.6440  -30.6600   24.0570 C   0  0  0  0  0  3  0  0  0  0  0  0
  -16.5330  -29.9100   23.6340 C   0  0  0  0  0  3  0  0  0  0  0  0
  -16.7250  -28.6540   23.0330 C   0  0  0  0  0  3  0  0  0  0  0  0
  -25.9010  -32.4830   23.8390 C   0  0  0  0  0  3  0  0  0  0  0  0
  -25.5880  -33.8630   24.2300 N   0  0  0  0  0  0  0  0  0  0  0  0
  -25.9010  -34.9470   23.5110 C   0  0  0  0  0  0  0  0  0  0  0  0
  -26.5610  -34.8920   22.4690 O   0  0  0  0  0  0  0  0  0  0  0  0
  -24.9990  -33.9770   25.0430 H   0  0  0  0  0  0  0  0  0  0  0  0
  -24.1500  -36.7350   23.2630 C   0  0  0  0  0  1  0  0  0  0  0  0
  -25.4110  -36.3110   24.0320 C   0  0  0  0  0  3  0  0  0  0  0  0
  -27.5560  -37.1840   24.8460 C   0  0  0  0  0  1  0  0  0  0  0  0
  -26.4290  -37.3780   23.9380 N   0  0  0  0  0  0  0  0  0  0  0  0
  -26.0190  -38.2890   24.1300 H   0  0  0  0  0  0  0  0  0  0  0  0
  -26.4420  -31.6590   25.0720 C   0  0  1  0  0  0  0  0  0  0  0  0
  -25.3700  -31.3710   26.1490 C   0  0  0  0  0  1  0  0  0  0  0  0
  -27.0240  -30.3040   24.6040 C   0  0  0  0  0  1  0  0  0  0  0  0
  -27.6000  -32.4310   25.7490 C   0  0  0  0  0  1  0  0  0  0  0  0
  -27.1410  -22.2310   22.9330 O   0  0  0  0  0  0  0  0  0  0  0  0
  -27.7970  -18.9520   21.3760 C   0  0  0  0  0  3  0  0  0  0  0  0
  -27.6350  -20.3430   21.4910 C   0  0  0  0  0  3  0  0  0  0  0  0
  -27.7240  -18.8210   23.7790 C   0  0  0  0  0  3  0  0  0  0  0  0
  -27.8520  -18.1620   22.5410 C   0  0  0  0  0  0  0  0  0  0  0  0
  -27.5050  -20.9120   22.7690 C   0  0  0  0  0  0  0  0  0  0  0  0
  -27.5370  -20.1580   23.8950 N   0  0  0  0  0  0  0  0  0  0  0  0
  -27.9320  -16.6300   22.4580 C   0  0  0  0  0  2  0  0  0  0  0  0
  -29.3520  -15.9880   22.4230 C   0  0  0  0  0  2  0  0  0  0  0  0
  -31.2970  -16.9050   21.2520 C   0  0  0  0  0  1  0  0  0  0  0  0
  -29.3730  -16.4130   19.7840 C   0  0  0  0  0  1  0  0  0  0  0  0
  -30.1270  -15.8970   21.0440 C   0  0  2  0  0  0  0  0  0  0  0  0
  -30.7390  -14.4980   20.6200 C   0  0  0  0  0  0  0  0  0  0  0  0
  -30.4210  -12.3450   19.4280 C   0  0  0  0  0  2  0  0  0  0  0  0
  -29.4930  -12.4880   18.2010 C   0  0  0  0  0  2  0  0  0  0  0  0
  -28.0140  -12.3320   18.6020 C   0  0  0  0  0  2  0  0  0  0  0  0
  -27.6480  -13.1910   19.8350 C   0  0  0  0  0  3  0  0  0  0  0  0
  -28.6850  -13.0180   20.9620 C   0  0  0  0  0  2  0  0  0  0  0  0
  -30.0200  -13.3460   20.4450 N   0  0  0  0  0  0  0  0  0  0  0  0
  -31.8980  -14.5480   20.2000 O   0  0  0  0  0  0  0  0  0  0  0  0
  -25.2520  -13.8060   20.5420 C   0  0  0  0  0  0  0  0  0  0  0  0
  -24.1840  -13.0370   20.9150 C   0  0  0  0  0  0  0  0  0  0  0  0
  -24.6410  -11.6870   20.8750 C   0  0  0  0  0  0  0  0  0  0  0  0
  -26.2950  -12.9220   20.3130 N   0  0  0  0  0  0  0  0  0  0  0  0
  -25.9310  -11.6420   20.5740 N   0  0  0  0  0  0  0  0  0  0  0  0
  -23.9060  -10.4280   21.0420 C   0  0  0  0  0  0  0  0  0  0  0  0
  -24.3600   -9.4210   21.9200 C   0  0  0  0  0  3  0  0  0  0  0  0
  -23.6290   -8.2240   22.0760 C   0  0  0  0  0  3  0  0  0  0  0  0
  -22.4280   -8.0270   21.3540 C   0  0  0  0  0  0  0  0  0  0  0  0
  -21.9890   -9.0260   20.4660 C   0  0  0  0  0  3  0  0  0  0  0  0
  -22.7220  -10.2150   20.3070 C   0  0  0  0  0  3  0  0  0  0  0  0
  -21.6660   -6.8860   21.4240 O   0  0  0  0  0  0  0  0  0  0  0  0
  -21.6860   -6.0720   22.5290 C   0  0  0  0  0  0  0  0  0  0  0  0
  -21.4030   -6.5630   23.8220 C   0  0  0  0  0  3  0  0  0  0  0  0
  -21.3660   -5.6780   24.9180 C   0  0  0  0  0  3  0  0  0  0  0  0
  -21.6030   -4.3040   24.7240 C   0  0  0  0  0  0  0  0  0  0  0  0
  -21.8840   -3.8140   23.4360 C   0  0  0  0  0  3  0  0  0  0  0  0
  -21.9210   -4.6950   22.3410 C   0  0  0  0  0  0  0  0  0  0  0  0
  -22.1670   -4.2110   21.0990 F   0  0  0  0  0  0  0  0  0  0  0  0
  -21.5600   -3.4540   25.7760 F   0  0  0  0  0  0  0  0  0  0  0  0
  -22.7920  -13.5250   21.1820 C   0  0  0  0  0  0  0  0  0  0  0  0
  -22.0580  -12.8250   22.0410 N   0  0  0  0  0  0  0  0  0  0  0  0
  -22.3640  -14.5580   20.6700 O   0  0  0  0  0  0  0  0  0  0  0  0
  -22.4220  -11.9880   22.4700 H   0  0  0  0  0  0  0  0  0  0  0  0
  -21.1250  -13.1360   22.2710 H   0  0  0  0  0  0  0  0  0  0  0  0
  -25.4030  -15.1710   20.3430 N   0  0  0  0  0  0  0  0  0  0  0  0
  -24.5940  -15.7810   20.3460 H   0  0  0  0  0  0  0  0  0  0  0  0
  -26.1910  -15.5610   19.8460 H   0  0  0  0  0  0  0  0  0  0  0  0
  1  5  1  0
  2  7  1  0
  2  4  1  0
  3  5  2  0
  4  1  2  0
  6  2  1  0
  6  3  2  0
  8  9  1  0
  8  7  1  0
 10 12  1  0
 10  9  1  0
 11 22  2  0
 12 17  1  0
 13 21  1  0
 13 23  1  0
 14 20  1  0
 14 16  1  0
 15 21  1  0
 16 15  1  0
 17 16  2  0
 18 19  1  0
 18 12  2  0
 19 14  2  0
 20 13  1  0
 21 11  1  0
 23 25  2  0
 24 23  1  0
 26 24  1  0
 27 36  2  0
 27 32  1  0
 28 24  1  0
 28 32  1  0
 29 28  1  0
 30 31  1  0
 30 29  1  0
 31 27  1  0
 32 33  2  0
 33 34  1  0
 35 34  2  0
 36 35  1  0
 37 11  1  0
 37 38  1  0
 37 47  1  0
 38 41  1  0
 39 43  1  0
 39 38  1  0
 40 39  2  0
 43 42  1  0
 45 43  1  0
 45 46  1  0
 45 44  1  0
 47 50  1  1
 47 48  1  0
 49 47  1  0
 51  3  1  0
 52 53  2  0
 52 55  1  0
 53 56  1  0
 54 57  1  0
 55 54  2  0
 56 51  1  0
 56 57  2  0
 58 55  1  0
 59 58  1  0
 62 61  1  6
 62 60  1  0
 62 59  1  0
 63 62  1  0
 64 69  1  0
 65 66  1  0
 65 64  1  0
 67 66  1  0
 67 74  1  0
 67 68  1  0
 69 63  1  0
 69 68  1  0
 70 63  2  0
 71 72  2  0
 72 91  1  0
 73 72  1  0
 73 76  1  0
 74 71  1  0
 74 75  1  0
 75 73  2  0
 76 77  1  0
 77 78  2  0
 79 82  1  0
 79 78  1  0
 80 79  2  0
 81 80  1  0
 81 76  2  0
 82 83  1  0
 83 84  1  0
 84 85  2  0
 86 85  1  0
 86 90  1  0
 87 86  2  0
 88 83  2  0
 88 87  1  0
 89 88  1  0
 91 92  1  0
 92 95  1  0
 92 94  1  0
 93 91  2  0
 96 97  1  0
 96 71  1  0
 98 96  1  0
M  ISO  4   9 101  10 101  62 100  63 100
M  END
>  <TORSDO>  (43) 
F 24

>  <SCORE>  (43) 
27.283

>  <name>  (43) 
45

>  <ligand_id>  (43) 
45

>  <original_smiles>  (43) 
[H]c1nc(Oc2nc([H])c(C([H])([H])C([H])([H])C(C(=O)N3C([H])([H])C([H])([H])C([H])([H])C([H])(n4nc(-c5c([H])c([H])c(Oc6c([H])c([H])c(F)c([H])c6F)c([H])c5[H])c(C(=O)N([H])[H])c4N([H])[H])C3([H])[H])(C([H])([H])[H])C([H])([H])[H])c([H])c2[H])nc(C([H])([H])C([H])([H])C([H])([H])Oc2c([H])c([H])c3c(c2[H])C([H])([H])N(C(=O)C([H])(N([H])C(=O)C([H])(N([H])C([H])([H])[H])C([H])([H])[H])C(C([H])([H])[H])(C([H])([H])[H])C([H])([H])[H])C([H])(C(=O)N([H])C2([H])c4c([H])c([H])c([H])c([H])c4C([H])([H])C([H])([H])C2([H])[H])C3([H])[H])n1

>  <smiles>  (43) 
[H]c1nc(Oc2nc([H])c(C([H])([H])C([H])([H])C(C(=O)N3C([H])([H])C([H])([H])C([H])([H])C([H])(n4nc(-c5c([H])c([H])c(Oc6c([H])c([H])c(F)c([H])c6F)c([H])c5[H])c(C(=O)N([H])[H])c4N([H])[H])C3([H])[H])(C([H])([H])[H])C([H])([H])[H])c([H])c2[H])nc(C([H])([H])C([H])([H])C([H])([H])Oc2c([H])c([H])c3c(c2[H])C([H])([H])N(C(=O)C([H])(N([H])C(=O)C([H])(N([H])C([H])([H])[H])C([H])([H])[H])C(C([H])([H])[H])(C([H])([H])[H])C([H])([H])[H])C([H])(C(=O)N([H])C2([H])c4c([H])c([H])c([H])c([H])c4C([H])([H])C([H])([H])C2([H])[H])C3([H])[H])n1

$$$$
46:0:0
     RDKit          3D

102110  0  0  1  0  0  0  0  0999 V2000
  -30.0020  -19.2930   20.6830 C   0  0  0  0  0  0  0  0  0  0  0  0
  -29.3730  -21.2610   20.3970 C   0  0  0  0  0  3  0  0  0  0  0  0
  -30.1560  -20.5420   21.2040 N   0  0  0  0  0  0  0  0  0  0  0  0
  -29.2930  -19.2620   19.5590 N   0  0  0  0  0  2  0  0  0  0  0  0
  -28.7370  -20.4990   19.4580 N   0  0  0  0  0  0  0  0  0  0  0  0
  -32.0580  -17.8960   20.4360 C   0  0  0  0  0  1  0  0  0  0  0  0
  -31.0090  -18.1970   22.7050 C   0  0  0  0  0  1  0  0  0  0  0  0
  -30.7250  -18.0510   21.1940 C   0  0  1  0  0  0  0  0  0  0  0  0
  -29.8020  -16.8110   20.9510 C   0  0  0  0  0  2  0  0  0  0  0  0
  -30.8500  -14.5810   20.6640 C   0  0  0  0  0  0  0  0  0  0  0  0
  -30.5390  -12.4810   19.4170 C   0  0  0  0  0  2  0  0  0  0  0  0
  -29.6550  -12.8010   18.1970 C   0  0  0  0  0  2  0  0  0  0  0  0
  -28.1580  -12.7090   18.5630 C   0  0  0  0  0  2  0  0  0  0  0  0
  -27.8050  -13.4740   19.8700 C   0  0  0  0  0  3  0  0  0  0  0  0
  -28.8140  -13.1300   20.9920 C   0  0  0  0  0  2  0  0  0  0  0  0
  -30.1730  -13.4140   20.4940 N   0  0  0  0  0  0  0  0  0  0  0  0
  -31.9120  -14.8350   20.0970 O   0  0  0  0  0  0  0  0  0  0  0  0
  -30.2190  -15.4840   21.4250 N   0  0  0  0  0  0  0  0  0  0  0  0
  -29.5470  -15.0660   22.0520 H   0  0  0  0  0  0  0  0  0  0  0  0
  -25.4070  -14.1250   20.5530 C   0  0  0  0  0  0  0  0  0  0  0  0
  -24.2990  -13.3710   20.8400 C   0  0  0  0  0  0  0  0  0  0  0  0
  -24.7080  -12.0100   20.7110 C   0  0  0  0  0  0  0  0  0  0  0  0
  -26.4240  -13.2220   20.2830 N   0  0  0  0  0  0  0  0  0  0  0  0
  -26.0040  -11.9390   20.4290 N   0  0  0  0  0  0  0  0  0  0  0  0
  -23.9290  -10.7680   20.7890 C   0  0  0  0  0  0  0  0  0  0  0  0
  -24.3390   -9.6900   21.6030 C   0  0  0  0  0  3  0  0  0  0  0  0
  -23.5650   -8.5110   21.6770 C   0  0  0  0  0  3  0  0  0  0  0  0
  -22.3640   -8.4030   20.9340 C   0  0  0  0  0  0  0  0  0  0  0  0
  -21.9730   -9.4710   20.1080 C   0  0  0  0  0  3  0  0  0  0  0  0
  -22.7490  -10.6410   20.0320 C   0  0  0  0  0  3  0  0  0  0  0  0
  -21.5620   -7.2890   20.9210 O   0  0  0  0  0  0  0  0  0  0  0  0
  -21.5570   -6.3950   21.9600 C   0  0  0  0  0  0  0  0  0  0  0  0
  -21.2680   -6.7930   23.2830 C   0  0  0  0  0  3  0  0  0  0  0  0
  -21.2020   -5.8310   24.3110 C   0  0  0  0  0  3  0  0  0  0  0  0
  -21.4150   -4.4710   24.0180 C   0  0  0  0  0  0  0  0  0  0  0  0
  -21.6970   -4.0710   22.7000 C   0  0  0  0  0  3  0  0  0  0  0  0
  -21.7650   -5.0300   21.6750 C   0  0  0  0  0  0  0  0  0  0  0  0
  -22.0150   -4.6370   20.4020 F   0  0  0  0  0  0  0  0  0  0  0  0
  -21.3450   -3.5450   25.0020 F   0  0  0  0  0  0  0  0  0  0  0  0
  -22.9170  -13.8840   21.1220 C   0  0  0  0  0  0  0  0  0  0  0  0
  -22.1500  -13.1690   21.9380 N   0  0  0  0  0  0  0  0  0  0  0  0
  -22.5240  -14.9510   20.6550 O   0  0  0  0  0  0  0  0  0  0  0  0
  -22.4810  -12.3070   22.3450 H   0  0  0  0  0  0  0  0  0  0  0  0
  -21.2210  -13.4950   22.1640 H   0  0  0  0  0  0  0  0  0  0  0  0
  -25.6260  -15.4960   20.4870 N   0  0  0  0  0  0  0  0  0  0  0  0
  -24.8730  -16.1630   20.6190 H   0  0  0  0  0  0  0  0  0  0  0  0
  -26.4950  -15.9340   20.2070 H   0  0  0  0  0  0  0  0  0  0  0  0
  -26.6200  -21.6530   18.7430 C   0  0  0  0  0  1  0  0  0  0  0  0
  -28.6590  -21.6030   17.2910 C   0  0  0  0  0  1  0  0  0  0  0  0
  -27.8260  -20.7800   18.2960 C   0  0  1  0  0  0  0  0  0  0  0  0
  -25.9890  -19.7760   16.6820 C   0  0  0  0  0  1  0  0  0  0  0  0
  -28.2110  -18.7700   16.5970 C   0  0  0  0  0  1  0  0  0  0  0  0
  -26.7520  -18.4110   18.6050 C   0  0  0  0  0  1  0  0  0  0  0  0
  -27.2250  -19.4670   17.5750 C   0  0  1  0  0  0  0  0  0  0  0  0
  -29.2970  -22.7590   20.5790 C   0  0  0  0  0  2  0  0  0  0  0  0
  -28.4450  -23.1970   21.7980 C   0  0  0  0  0  2  0  0  0  0  0  0
  -27.4070  -24.8900   23.3010 C   0  0  0  0  0  1  0  0  0  0  0  0
  -29.6990  -25.3150   22.4560 C   0  0  0  0  0  1  0  0  0  0  0  0
  -28.3190  -24.7320   22.0640 C   0  0  1  0  0  0  0  0  0  0  0  0
  -27.6530  -25.5000   20.8670 C   0  0  0  0  0  3  0  0  0  0  0  0
  -28.6080  -26.3180   19.9500 C   0  0  0  0  0  3  0  0  0  0  0  0
  -27.9960  -26.9400   18.8200 O   0  0  0  0  0  0  0  0  0  0  0  0
  -24.4770  -31.6090   22.9080 C   0  0  0  0  0  0  0  0  0  0  0  0
  -26.8640  -27.6760   19.0650 C   0  0  0  0  0  0  0  0  0  0  0  0
  -23.1400  -30.4160   21.2000 C   0  0  0  0  0  3  0  0  0  0  0  0
  -24.4760  -29.1080   19.4660 C   0  0  0  0  0  0  0  0  0  0  0  0
  -25.6300  -30.8520   20.8360 C   0  0  0  0  0  2  0  0  0  0  0  0
  -25.6710  -29.5710   20.0320 C   0  0  0  0  0  0  0  0  0  0  0  0
  -26.8730  -28.8530   19.8440 C   0  0  0  0  0  3  0  0  0  0  0  0
  -25.6650  -27.2290   18.4870 C   0  0  0  0  0  3  0  0  0  0  0  0
  -24.4650  -27.9340   18.6940 C   0  0  0  0  0  3  0  0  0  0  0  0
  -23.2340  -29.9290   19.7280 C   0  0  0  0  0  2  0  0  0  0  0  0
  -24.4390  -30.9660   21.7080 N   0  0  0  0  0  0  0  0  0  0  0  0
  -23.4470  -31.7860   23.5720 O   0  0  0  0  0  0  0  0  0  0  0  0
  -22.5880  -29.2620   22.0690 C   0  0  0  0  0  0  0  0  0  0  0  0
  -21.2600  -29.0620   22.0210 N   0  0  0  0  0  0  0  0  0  0  0  0
  -23.3450  -28.5580   22.7430 O   0  0  0  0  0  0  0  0  0  0  0  0
  -20.7060  -29.6900   21.4560 H   0  0  0  0  0  0  0  0  0  0  0  0
  -17.9700  -27.6880   22.5780 C   0  0  0  0  0  0  0  0  0  0  0  0
  -20.5260  -28.0130   22.7270 C   0  0  0  0  0  3  0  0  0  0  0  0
  -20.6390  -26.6610   21.9860 C   0  0  0  0  0  2  0  0  0  0  0  0
  -19.4910  -26.4120   21.0050 C   0  0  0  0  0  2  0  0  0  0  0  0
  -18.1480  -26.4310   21.7420 C   0  0  0  0  0  2  0  0  0  0  0  0
  -19.0850  -28.4390   23.0270 C   0  0  0  0  0  0  0  0  0  0  0  0
  -18.8670  -29.6180   23.7720 C   0  0  0  0  0  3  0  0  0  0  0  0
  -17.5590  -30.0480   24.0680 C   0  0  0  0  0  3  0  0  0  0  0  0
  -16.4570  -29.2940   23.6310 C   0  0  0  0  0  3  0  0  0  0  0  0
  -16.6620  -28.1140   22.8930 C   0  0  0  0  0  3  0  0  0  0  0  0
  -25.8100  -32.1770   23.4910 C   0  0  0  0  0  3  0  0  0  0  0  0
  -26.4370  -31.2630   24.6140 C   0  0  1  0  0  0  0  0  0  0  0  0
  -25.4440  -30.8950   25.7380 C   0  0  0  0  0  1  0  0  0  0  0  0
  -26.9720  -29.9430   24.0090 C   0  0  0  0  0  1  0  0  0  0  0  0
  -27.6410  -31.9800   25.2660 C   0  0  0  0  0  1  0  0  0  0  0  0
  -25.5290  -33.5230   24.0050 N   0  0  0  0  0  0  0  0  0  0  0  0
  -25.8200  -34.6610   23.3620 C   0  0  0  0  0  0  0  0  0  0  0  0
  -26.4270  -34.6860   22.2870 O   0  0  0  0  0  0  0  0  0  0  0  0
  -24.9740  -33.5770   24.8470 H   0  0  0  0  0  0  0  0  0  0  0  0
  -24.0860  -36.4870   23.3200 C   0  0  0  0  0  1  0  0  0  0  0  0
  -25.3630  -35.9820   24.0130 C   0  0  0  0  0  3  0  0  0  0  0  0
  -27.5430  -36.7570   24.8360 C   0  0  0  0  0  1  0  0  0  0  0  0
  -26.3940  -37.0420   23.9810 N   0  0  0  0  0  0  0  0  0  0  0  0
  -26.0000  -37.9360   24.2650 H   0  0  0  0  0  0  0  0  0  0  0  0
  1  8  1  0
  1  3  2  0
  2 55  1  0
  2  3  1  0
  4  1  1  0
  5  4  1  0
  5  2  1  0
  8  6  1  6
  8  7  1  0
  9  8  1  0
  9 18  1  0
 10 18  1  0
 11 16  1  0
 12 13  1  0
 12 11  1  0
 14 13  1  0
 14 23  1  0
 14 15  1  0
 16 10  1  0
 16 15  1  0
 17 10  2  0
 18 19  1  0
 20 21  2  0
 21 40  1  0
 22 25  1  0
 22 21  1  0
 23 24  1  0
 23 20  1  0
 24 22  2  0
 25 26  1  0
 26 27  2  0
 28 27  1  0
 29 28  2  0
 30 29  1  0
 30 25  2  0
 31 28  1  0
 31 32  1  0
 32 33  1  0
 33 34  2  0
 35 34  1  0
 35 39  1  0
 36 35  2  0
 37 32  2  0
 37 36  1  0
 38 37  1  0
 40 41  1  0
 41 44  1  0
 41 43  1  0
 42 40  2  0
 45 20  1  0
 45 46  1  0
 47 45  1  0
 50 49  1  6
 50 48  1  0
 50  5  1  0
 54 51  1  6
 52 54  1  0
 54 50  1  0
 54 53  1  0
 55 56  1  0
 56 59  1  0
 59 58  1  1
 59 57  1  0
 60 59  1  0
 61 60  2  0
 62 64  1  0
 62 61  1  0
 63 74  2  0
 64 69  1  0
 65 73  1  0
 65 75  1  0
 66 72  1  0
 66 68  1  0
 67 73  1  0
 68 67  1  0
 69 68  2  0
 70 71  1  0
 70 64  2  0
 71 66  2  0
 72 65  1  0
 73 63  1  0
 75 77  2  0
 76 75  1  0
 78 76  1  0
 79 88  2  0
 79 84  1  0
 80 76  1  0
 80 84  1  0
 81 80  1  0
 82 83  1  0
 82 81  1  0
 83 79  1  0
 84 85  2  0
 85 86  1  0
 87 86  2  0
 88 87  1  0
 89 63  1  0
 89 94  1  0
 89 90  1  0
 90 93  1  1
 90 91  1  0
 92 90  1  0
 94 97  1  0
 95 94  1  0
 95 99  1  0
 96 95  2  0
 99 98  1  0
101 99  1  0
101102  1  0
101100  1  0
M  ISO  4  10 100  18 100  61 101  62 101
M  END
>  <TORSDO>  (44) 
F 25

>  <SCORE>  (44) 
-10.215

>  <name>  (44) 
46

>  <ligand_id>  (44) 
46

>  <original_smiles>  (44) 
[H]c1c([H])c([H])c2c(c1[H])C([H])([H])C([H])([H])C([H])([H])C2([H])N([H])C(=O)C1([H])N(C(=O)C([H])(N([H])C(=O)C([H])(N([H])C([H])([H])[H])C([H])([H])[H])C(C([H])([H])[H])(C([H])([H])[H])C([H])([H])[H])C([H])([H])c2c([H])c(OC([H])([H])C([H])([H])C(C([H])([H])[H])(C([H])([H])[H])C([H])([H])C([H])([H])c3nc(C(C([H])([H])[H])(C([H])([H])[H])C([H])([H])N([H])C(=O)N4C([H])([H])C([H])([H])C([H])([H])C([H])(n5nc(-c6c([H])c([H])c(Oc7c([H])c([H])c(F)c([H])c7F)c([H])c6[H])c(C(=O)N([H])[H])c5N([H])[H])C4([H])[H])nn3C(C([H])([H])[H])(C([H])([H])[H])C(C([H])([H])[H])(C([H])([H])[H])C([H])([H])[H])c([H])c([H])c2C1([H])[H]

>  <smiles>  (44) 
[H]c1c([H])c([H])c2c(c1[H])C([H])([H])C([H])([H])C([H])([H])C2([H])N([H])C(=O)C1([H])N(C(=O)C([H])(N([H])C(=O)C([H])(N([H])C([H])([H])[H])C([H])([H])[H])C(C([H])([H])[H])(C([H])([H])[H])C([H])([H])[H])C([H])([H])c2c([H])c(OC([H])([H])C([H])([H])C(C([H])([H])[H])(C([H])([H])[H])C([H])([H])C([H])([H])c3nc(C(C([H])([H])[H])(C([H])([H])[H])C([H])([H])N([H])C(=O)N4C([H])([H])C([H])([H])C([H])([H])C([H])(n5nc(-c6c([H])c([H])c(Oc7c([H])c([H])c(F)c([H])c7F)c([H])c6[H])c(C(=O)N([H])[H])c5N([H])[H])C4([H])[H])nn3C(C([H])([H])[H])(C([H])([H])[H])C(C([H])([H])[H])(C([H])([H])[H])C([H])([H])[H])c([H])c([H])c2C1([H])[H]

$$$$
47:0:0
     RDKit          3D

 91 99  0  0  1  0  0  0  0  0999 V2000
  -30.1980  -21.9490   20.0570 C   0  0  0  0  0  3  0  0  0  0  0  0
  -29.9790  -20.7980   20.7770 C   0  0  0  0  0  0  0  0  0  0  0  0
  -29.1380  -21.1450   21.8420 N   0  0  0  0  0  0  0  0  0  0  0  0
  -28.8630  -22.4180   21.8020 N   0  0  0  0  0  0  0  0  0  0  0  0
  -29.5250  -22.9540   20.7490 N   0  0  0  0  0  0  0  0  0  0  0  0
  -30.7010  -19.4480   20.6870 C   0  0  0  0  0  2  0  0  0  0  0  0
  -28.5070  -18.0850   20.8610 C   0  0  0  0  0  1  0  0  0  0  0  0
  -29.8720  -18.0130   18.7580 C   0  0  0  0  0  1  0  0  0  0  0  0
  -29.9420  -18.1170   20.2940 C   0  0  1  0  0  0  0  0  0  0  0  0
  -30.7450  -16.8870   20.8560 C   0  0  0  0  0  2  0  0  0  0  0  0
  -30.7650  -14.4870   20.0640 C   0  0  0  0  0  0  0  0  0  0  0  0
  -30.3440  -12.3410   18.9210 C   0  0  0  0  0  2  0  0  0  0  0  0
  -29.3460  -12.5670   17.7670 C   0  0  0  0  0  2  0  0  0  0  0  0
  -27.8930  -12.4520   18.2730 C   0  0  0  0  0  2  0  0  0  0  0  0
  -27.6420  -13.2860   19.5590 C   0  0  0  0  0  3  0  0  0  0  0  0
  -28.7530  -13.0540   20.6080 C   0  0  0  0  0  2  0  0  0  0  0  0
  -30.0440  -13.3350   19.9630 N   0  0  0  0  0  0  0  0  0  0  0  0
  -31.8790  -14.6120   19.5500 O   0  0  0  0  0  0  0  0  0  0  0  0
  -30.1490  -15.5420   20.6460 N   0  0  0  0  0  0  0  0  0  0  0  0
  -29.2170  -15.3840   20.9980 H   0  0  0  0  0  0  0  0  0  0  0  0
  -25.3070  -13.9370   20.4240 C   0  0  0  0  0  0  0  0  0  0  0  0
  -24.2400  -13.1880   20.8430 C   0  0  0  0  0  0  0  0  0  0  0  0
  -24.6600  -11.8250   20.7600 C   0  0  0  0  0  0  0  0  0  0  0  0
  -26.3130  -13.0340   20.1150 N   0  0  0  0  0  0  0  0  0  0  0  0
  -25.9300  -11.7570   20.3760 N   0  0  0  0  0  0  0  0  0  0  0  0
  -23.9130  -10.5780   20.9690 C   0  0  0  0  0  0  0  0  0  0  0  0
  -24.3700   -9.5830   21.8630 C   0  0  0  0  0  3  0  0  0  0  0  0
  -23.6240   -8.4000   22.0600 C   0  0  0  0  0  3  0  0  0  0  0  0
  -22.4070   -8.2060   21.3660 C   0  0  0  0  0  0  0  0  0  0  0  0
  -21.9690   -9.1890   20.4600 C   0  0  0  0  0  3  0  0  0  0  0  0
  -22.7150  -10.3610   20.2600 C   0  0  0  0  0  3  0  0  0  0  0  0
  -21.6290   -7.0770   21.4730 O   0  0  0  0  0  0  0  0  0  0  0  0
  -21.6160   -6.3160   22.6130 C   0  0  0  0  0  0  0  0  0  0  0  0
  -21.2640   -6.8580   23.8680 C   0  0  0  0  0  3  0  0  0  0  0  0
  -21.2000   -6.0240   25.0040 C   0  0  0  0  0  3  0  0  0  0  0  0
  -21.4810   -4.6490   24.8840 C   0  0  0  0  0  0  0  0  0  0  0  0
  -21.8300   -4.1090   23.6340 C   0  0  0  0  0  3  0  0  0  0  0  0
  -21.8950   -4.9400   22.5020 C   0  0  0  0  0  0  0  0  0  0  0  0
  -22.2100   -4.4090   21.2960 F   0  0  0  0  0  0  0  0  0  0  0  0
  -21.4120   -3.8470   25.9710 F   0  0  0  0  0  0  0  0  0  0  0  0
  -22.8740  -13.7000   21.2020 C   0  0  0  0  0  0  0  0  0  0  0  0
  -22.1780  -13.0140   22.1040 N   0  0  0  0  0  0  0  0  0  0  0  0
  -22.4320  -14.7410   20.7200 O   0  0  0  0  0  0  0  0  0  0  0  0
  -22.5490  -12.1750   22.5240 H   0  0  0  0  0  0  0  0  0  0  0  0
  -21.2630  -13.3370   22.3810 H   0  0  0  0  0  0  0  0  0  0  0  0
  -25.5040  -15.3050   20.2580 N   0  0  0  0  0  0  0  0  0  0  0  0
  -24.7660  -15.9820   20.4200 H   0  0  0  0  0  0  0  0  0  0  0  0
  -26.3470  -15.7200   19.8840 H   0  0  0  0  0  0  0  0  0  0  0  0
  -29.6040  -24.4250   20.6060 C   0  0  0  0  0  2  0  0  0  0  0  0
  -28.2930  -25.1510   20.1870 C   0  0  0  0  0  2  0  0  0  0  0  0
  -28.4090  -26.5990   20.2260 O   0  0  0  0  0  0  0  0  0  0  0  0
  -24.6270  -31.8790   23.1980 C   0  0  0  0  0  0  0  0  0  0  0  0
  -27.2390  -27.3470   20.1880 C   0  0  0  0  0  0  0  0  0  0  0  0
  -23.4060  -30.4510   21.5900 C   0  0  0  0  0  3  0  0  0  0  0  0
  -24.8480  -28.8830   20.1790 C   0  0  0  0  0  0  0  0  0  0  0  0
  -25.9340  -30.7950   21.3680 C   0  0  0  0  0  2  0  0  0  0  0  0
  -26.0120  -29.4100   20.7500 C   0  0  0  0  0  0  0  0  0  0  0  0
  -27.2100  -28.6520   20.7450 C   0  0  0  0  0  3  0  0  0  0  0  0
  -26.0520  -26.8430   19.6090 C   0  0  0  0  0  3  0  0  0  0  0  0
  -24.8650  -27.6020   19.6050 C   0  0  0  0  0  3  0  0  0  0  0  0
  -23.6050  -29.7470   20.2210 C   0  0  0  0  0  2  0  0  0  0  0  0
  -24.6740  -31.0590   22.1100 N   0  0  0  0  0  0  0  0  0  0  0  0
  -23.5490  -32.1620   23.7420 O   0  0  0  0  0  0  0  0  0  0  0  0
  -22.7590  -29.4490   22.5740 C   0  0  0  0  0  0  0  0  0  0  0  0
  -21.4320  -29.2670   22.4610 N   0  0  0  0  0  0  0  0  0  0  0  0
  -23.4470  -28.8370   23.3950 O   0  0  0  0  0  0  0  0  0  0  0  0
  -20.9390  -29.8100   21.7670 H   0  0  0  0  0  0  0  0  0  0  0  0
  -18.0630  -28.0790   23.0000 C   0  0  0  0  0  0  0  0  0  0  0  0
  -20.6210  -28.3450   23.2550 C   0  0  0  0  0  3  0  0  0  0  0  0
  -20.7230  -26.9030   22.7070 C   0  0  0  0  0  2  0  0  0  0  0  0
  -19.6160  -26.5590   21.7050 C   0  0  0  0  0  2  0  0  0  0  0  0
  -18.2370  -26.7160   22.3530 C   0  0  0  0  0  2  0  0  0  0  0  0
  -19.1820  -28.8500   23.4110 C   0  0  0  0  0  0  0  0  0  0  0  0
  -18.9650  -30.1250   23.9760 C   0  0  0  0  0  3  0  0  0  0  0  0
  -17.6620  -30.6300   24.1380 C   0  0  0  0  0  3  0  0  0  0  0  0
  -16.5550  -29.8560   23.7460 C   0  0  0  0  0  3  0  0  0  0  0  0
  -16.7560  -28.5820   23.1820 C   0  0  0  0  0  3  0  0  0  0  0  0
  -25.9180  -32.5200   23.7960 C   0  0  0  0  0  3  0  0  0  0  0  0
  -25.6020  -33.9110   24.1490 N   0  0  0  0  0  0  0  0  0  0  0  0
  -25.9120  -34.9740   23.3960 C   0  0  0  0  0  0  0  0  0  0  0  0
  -26.5660  -34.8890   22.3530 O   0  0  0  0  0  0  0  0  0  0  0  0
  -25.0160  -34.0510   24.9590 H   0  0  0  0  0  0  0  0  0  0  0  0
  -24.1620  -36.7540   23.0840 C   0  0  0  0  0  1  0  0  0  0  0  0
  -25.4160  -36.3530   23.8760 C   0  0  0  0  0  3  0  0  0  0  0  0
  -27.5510  -37.2480   24.6930 C   0  0  0  0  0  1  0  0  0  0  0  0
  -26.4380  -37.4170   23.7630 N   0  0  0  0  0  0  0  0  0  0  0  0
  -26.0240  -38.3300   23.9270 H   0  0  0  0  0  0  0  0  0  0  0  0
  -26.4740  -31.7430   25.0520 C   0  0  1  0  0  0  0  0  0  0  0  0
  -25.4100  -31.4760   26.1430 C   0  0  0  0  0  1  0  0  0  0  0  0
  -27.0680  -30.3790   24.6310 C   0  0  0  0  0  1  0  0  0  0  0  0
  -27.6280  -32.5460   25.6980 C   0  0  0  0  0  1  0  0  0  0  0  0
  1  5  1  0
  1  2  2  0
  2  3  1  0
  4  3  2  0
  5  4  1  0
  6  2  1  0
  9  8  1  6
  9  6  1  0
  9 10  1  0
  9  7  1  0
 11 19  1  0
 12 17  1  0
 13 14  1  0
 13 12  1  0
 15 14  1  0
 15 24  1  0
 15 16  1  0
 17 11  1  0
 17 16  1  0
 18 11  2  0
 19 10  1  0
 19 20  1  0
 21 22  2  0
 22 41  1  0
 23 22  1  0
 23 26  1  0
 24 25  1  0
 24 21  1  0
 25 23  2  0
 26 27  1  0
 27 28  2  0
 29 32  1  0
 29 28  1  0
 30 29  2  0
 31 30  1  0
 31 26  2  0
 32 33  1  0
 33 34  1  0
 34 35  2  0
 36 35  1  0
 36 40  1  0
 37 36  2  0
 38 33  2  0
 38 37  1  0
 39 38  1  0
 41 42  1  0
 42 45  1  0
 42 44  1  0
 43 41  2  0
 46 47  1  0
 46 21  1  0
 48 46  1  0
 49  5  1  0
 50 51  1  0
 50 49  1  0
 52 63  2  0
 53 51  1  0
 53 58  1  0
 54 62  1  0
 54 64  1  0
 55 61  1  0
 55 57  1  0
 56 62  1  0
 57 56  1  0
 58 57  2  0
 59 53  2  0
 60 59  1  0
 60 55  2  0
 61 54  1  0
 62 52  1  0
 64 66  2  0
 65 64  1  0
 67 65  1  0
 68 77  2  0
 68 73  1  0
 69 65  1  0
 69 73  1  0
 70 69  1  0
 71 72  1  0
 71 70  1  0
 72 68  1  0
 73 74  2  0
 74 75  1  0
 76 75  2  0
 77 76  1  0
 78 52  1  0
 78 79  1  0
 78 88  1  0
 79 82  1  0
 80 84  1  0
 80 79  1  0
 81 80  2  0
 84 83  1  0
 86 84  1  0
 86 87  1  0
 86 85  1  0
 88 91  1  1
 88 89  1  0
 90 88  1  0
M  ISO  4  11 100  19 100  50 101  51 101
M  END
>  <TORSDO>  (45) 
F 21

>  <SCORE>  (45) 
-13.233

>  <name>  (45) 
47

>  <ligand_id>  (45) 
47

>  <original_smiles>  (45) 
[H]c1c([H])c([H])c2c(c1[H])C([H])([H])C([H])([H])C([H])([H])C2([H])N([H])C(=O)C1([H])N(C(=O)C([H])(N([H])C(=O)C([H])(N([H])C([H])([H])[H])C([H])([H])[H])C(C([H])([H])[H])(C([H])([H])[H])C([H])([H])[H])C([H])([H])c2c([H])c(OC([H])([H])C([H])([H])n3nnc(C([H])([H])C(C([H])([H])[H])(C([H])([H])[H])C([H])([H])N([H])C(=O)N4C([H])([H])C([H])([H])C([H])([H])C([H])(n5nc(-c6c([H])c([H])c(Oc7c([H])c([H])c(F)c([H])c7F)c([H])c6[H])c(C(=O)N([H])[H])c5N([H])[H])C4([H])[H])c3[H])c([H])c([H])c2C1([H])[H]

>  <smiles>  (45) 
[H]c1c([H])c([H])c2c(c1[H])C([H])([H])C([H])([H])C([H])([H])C2([H])N([H])C(=O)C1([H])N(C(=O)C([H])(N([H])C(=O)C([H])(N([H])C([H])([H])[H])C([H])([H])[H])C(C([H])([H])[H])(C([H])([H])[H])C([H])([H])[H])C([H])([H])c2c([H])c(OC([H])([H])C([H])([H])n3nnc(C([H])([H])C(C([H])([H])[H])(C([H])([H])[H])C([H])([H])N([H])C(=O)N4C([H])([H])C([H])([H])C([H])([H])C([H])(n5nc(-c6c([H])c([H])c(Oc7c([H])c([H])c(F)c([H])c7F)c([H])c6[H])c(C(=O)N([H])[H])c5N([H])[H])C4([H])[H])c3[H])c([H])c([H])c2C1([H])[H]

$$$$
48:0:0
     RDKit          3D

 96104  0  0  1  0  0  0  0  0999 V2000
  -27.6060  -17.6680   19.5240 C   0  0  0  0  0  3  0  0  0  0  0  0
  -26.6140  -18.6860   19.5740 C   0  0  0  0  0  0  0  0  0  0  0  0
  -28.7860  -18.3230   19.3120 C   0  0  0  0  0  0  0  0  0  0  0  0
  -27.1510  -19.8980   19.4070 N   0  0  0  0  0  0  0  0  0  0  0  0
  -28.4790  -19.6740   19.2500 N   0  0  0  0  0  0  0  0  0  0  0  0
  -25.1270  -18.4920   19.8290 C   0  0  1  0  0  0  0  0  0  0  0  0
  -24.9020  -18.3640   21.1380 F   0  0  0  0  0  0  0  0  0  0  0  0
  -24.4120  -19.5160   19.3620 F   0  0  0  0  0  0  0  0  0  0  0  0
  -24.7100  -17.3790   19.2190 F   0  0  0  0  0  0  0  0  0  0  0  0
  -30.1850  -17.7880   19.1790 C   0  0  0  0  0  2  0  0  0  0  0  0
  -30.2680  -16.2470   19.2330 C   0  0  0  0  0  2  0  0  0  0  0  0
  -31.4220  -15.7020   20.1110 C   0  0  0  0  0  2  0  0  0  0  0  0
  -31.5200  -13.3090   19.4570 C   0  0  0  0  0  0  0  0  0  0  0  0
  -30.5570  -11.5640   17.9690 C   0  0  0  0  0  2  0  0  0  0  0  0
  -29.5360  -12.1530   16.9760 C   0  0  0  0  0  2  0  0  0  0  0  0
  -28.1310  -12.2530   17.6030 C   0  0  0  0  0  2  0  0  0  0  0  0
  -28.1570  -12.8840   19.0170 C   0  0  0  0  0  3  0  0  0  0  0  0
  -29.2570  -12.2570   19.8990 C   0  0  0  0  0  2  0  0  0  0  0  0
  -30.5470  -12.3820   19.2010 N   0  0  0  0  0  0  0  0  0  0  0  0
  -32.5290  -13.4000   18.7480 O   0  0  0  0  0  0  0  0  0  0  0  0
  -31.5010  -13.9380   21.8210 C   0  0  0  0  0  1  0  0  0  0  0  0
  -31.2480  -14.2540   20.4060 N   0  0  0  0  0  0  0  0  0  0  0  0
  -26.0440  -13.8370   20.1330 C   0  0  0  0  0  0  0  0  0  0  0  0
  -24.9080  -13.2260   20.5990 C   0  0  0  0  0  0  0  0  0  0  0  0
  -25.1020  -11.8270   20.3970 C   0  0  0  0  0  0  0  0  0  0  0  0
  -26.8600  -12.8100   19.6760 N   0  0  0  0  0  0  0  0  0  0  0  0
  -26.3090  -11.5910   19.8990 N   0  0  0  0  0  0  0  0  0  0  0  0
  -24.1870  -10.6970   20.6010 C   0  0  0  0  0  0  0  0  0  0  0  0
  -24.5790   -9.5420   21.3190 C   0  0  0  0  0  3  0  0  0  0  0  0
  -23.6730   -8.4780   21.5180 C   0  0  0  0  0  3  0  0  0  0  0  0
  -22.3580   -8.5650   20.9950 C   0  0  0  0  0  0  0  0  0  0  0  0
  -21.9780   -9.7060   20.2660 C   0  0  0  0  0  3  0  0  0  0  0  0
  -22.8840  -10.7610   20.0660 C   0  0  0  0  0  3  0  0  0  0  0  0
  -21.4130   -7.5740   21.1090 O   0  0  0  0  0  0  0  0  0  0  0  0
  -21.4460   -6.6620   22.1340 C   0  0  0  0  0  0  0  0  0  0  0  0
  -21.2660   -7.0440   23.4820 C   0  0  0  0  0  3  0  0  0  0  0  0
  -21.2410   -6.0640   24.4940 C   0  0  0  0  0  3  0  0  0  0  0  0
  -21.3880   -4.7020   24.1590 C   0  0  0  0  0  0  0  0  0  0  0  0
  -21.5540   -4.3200   22.8170 C   0  0  0  0  0  3  0  0  0  0  0  0
  -21.5840   -5.2970   21.8070 C   0  0  0  0  0  0  0  0  0  0  0  0
  -21.7210   -4.9220   20.5120 F   0  0  0  0  0  0  0  0  0  0  0  0
  -21.3580   -3.7570   25.1280 F   0  0  0  0  0  0  0  0  0  0  0  0
  -23.6770  -13.9140   21.1160 C   0  0  0  0  0  0  0  0  0  0  0  0
  -22.9680  -13.2700   22.0390 N   0  0  0  0  0  0  0  0  0  0  0  0
  -23.3620  -15.0420   20.7360 O   0  0  0  0  0  0  0  0  0  0  0  0
  -23.2500  -12.3630   22.3760 H   0  0  0  0  0  0  0  0  0  0  0  0
  -22.1280  -13.6800   22.4170 H   0  0  0  0  0  0  0  0  0  0  0  0
  -26.4380  -15.1660   20.0530 N   0  0  0  0  0  0  0  0  0  0  0  0
  -25.8150  -15.9210   20.3200 H   0  0  0  0  0  0  0  0  0  0  0  0
  -27.3610  -15.4910   19.7970 H   0  0  0  0  0  0  0  0  0  0  0  0
  -29.3950  -20.8000   19.1380 C   0  0  0  0  0  2  0  0  0  0  0  0
  -29.8820  -21.2100   20.5360 C   0  0  0  0  0  2  0  0  0  0  0  0
  -30.8190  -22.4320   20.5630 C   0  0  0  0  0  2  0  0  0  0  0  0
  -30.0560  -23.7670   20.6560 C   0  0  0  0  0  2  0  0  0  0  0  0
  -30.9230  -24.9820   20.2530 C   0  0  0  0  0  2  0  0  0  0  0  0
  -30.5830  -26.1750   20.9760 O   0  0  0  0  0  0  0  0  0  0  0  0
  -25.8540  -30.8110   23.6130 C   0  0  0  0  0  0  0  0  0  0  0  0
  -29.3190  -26.7180   20.8520 C   0  0  0  0  0  0  0  0  0  0  0  0
  -25.0080  -29.2870   21.8570 C   0  0  0  0  0  3  0  0  0  0  0  0
  -26.7740  -27.9300   20.6220 C   0  0  0  0  0  0  0  0  0  0  0  0
  -27.4880  -29.9240   21.9530 C   0  0  0  0  0  2  0  0  0  0  0  0
  -27.7950  -28.5780   21.3290 C   0  0  0  0  0  0  0  0  0  0  0  0
  -29.0650  -27.9720   21.4500 C   0  0  0  0  0  3  0  0  0  0  0  0
  -28.2700  -26.0750   20.1560 C   0  0  0  0  0  3  0  0  0  0  0  0
  -27.0020  -26.6690   20.0490 C   0  0  0  0  0  3  0  0  0  0  0  0
  -25.4430  -28.6290   20.5220 C   0  0  0  0  0  2  0  0  0  0  0  0
  -26.1260  -30.0290   22.5300 N   0  0  0  0  0  0  0  0  0  0  0  0
  -24.6950  -30.9570   24.0250 O   0  0  0  0  0  0  0  0  0  0  0  0
  -24.3750  -28.1980   22.7460 C   0  0  0  0  0  0  0  0  0  0  0  0
  -23.1540  -27.7740   22.3850 N   0  0  0  0  0  0  0  0  0  0  0  0
  -24.9880  -27.7300   23.7080 O   0  0  0  0  0  0  0  0  0  0  0  0
  -22.7250  -28.1960   21.5750 H   0  0  0  0  0  0  0  0  0  0  0  0
  -19.9930  -26.0270   22.3320 C   0  0  0  0  0  0  0  0  0  0  0  0
  -22.3780  -26.7260   23.0440 C   0  0  0  0  0  3  0  0  0  0  0  0
  -22.8250  -25.3250   22.5680 C   0  0  0  0  0  2  0  0  0  0  0  0
  -21.9970  -24.8000   21.3910 C   0  0  0  0  0  2  0  0  0  0  0  0
  -20.5160  -24.7150   21.7710 C   0  0  0  0  0  2  0  0  0  0  0  0
  -20.8710  -26.9790   22.9150 C   0  0  0  0  0  0  0  0  0  0  0  0
  -20.3430  -28.2010   23.3860 C   0  0  0  0  0  3  0  0  0  0  0  0
  -18.9660  -28.4730   23.2910 C   0  0  0  0  0  3  0  0  0  0  0  0
  -18.0980  -27.5190   22.7340 C   0  0  0  0  0  3  0  0  0  0  0  0
  -18.6110  -26.2990   22.2580 C   0  0  0  0  0  3  0  0  0  0  0  0
  -26.9820  -31.5770   24.3720 C   0  0  0  0  0  3  0  0  0  0  0  0
  -27.3670  -30.9130   25.7510 C   0  0  1  0  0  0  0  0  0  0  0  0
  -26.1560  -30.6300   26.6700 C   0  0  0  0  0  1  0  0  0  0  0  0
  -28.1070  -29.5750   25.5260 C   0  0  0  0  0  1  0  0  0  0  0  0
  -28.3380  -31.8370   26.5250 C   0  0  0  0  0  1  0  0  0  0  0  0
  -26.5180  -32.9560   24.5720 N   0  0  0  0  0  0  0  0  0  0  0  0
  -26.8800  -34.0000   23.8150 C   0  0  0  0  0  0  0  0  0  0  0  0
  -27.7070  -33.9110   22.9030 O   0  0  0  0  0  0  0  0  0  0  0  0
  -25.7850  -33.0920   25.2540 H   0  0  0  0  0  0  0  0  0  0  0  0
  -25.0480  -35.5910   23.1490 C   0  0  0  0  0  1  0  0  0  0  0  0
  -26.2190  -35.3570   24.1170 C   0  0  0  0  0  3  0  0  0  0  0  0
  -28.1490  -36.4960   25.1190 C   0  0  0  0  0  1  0  0  0  0  0  0
  -27.1560  -36.4980   24.0480 N   0  0  0  0  0  0  0  0  0  0  0  0
  -26.6530  -37.3810   24.0840 H   0  0  0  0  0  0  0  0  0  0  0  0
  1  2  1  0
  2  6  1  0
  3  1  2  0
  4  2  2  0
  5  3  1  0
  5  4  1  0
  6  7  1  1
  8  6  1  0
  9  6  1  0
 10 11  1  0
 10  3  1  0
 11 12  1  0
 12 22  1  0
 13 22  1  0
 14 19  1  0
 15 16  1  0
 15 14  1  0
 17 16  1  0
 17 26  1  0
 17 18  1  0
 19 13  1  0
 19 18  1  0
 20 13  2  0
 22 21  1  0
 23 24  2  0
 24 43  1  0
 25 24  1  0
 25 28  1  0
 26 27  1  0
 26 23  1  0
 27 25  2  0
 28 29  1  0
 29 30  2  0
 31 34  1  0
 31 30  1  0
 32 31  2  0
 33 32  1  0
 33 28  2  0
 34 35  1  0
 35 36  1  0
 36 37  2  0
 38 37  1  0
 38 42  1  0
 39 38  2  0
 40 35  2  0
 40 39  1  0
 41 40  1  0
 43 44  1  0
 44 46  1  0
 44 47  1  0
 45 43  2  0
 48 23  1  0
 48 49  1  0
 50 48  1  0
 51  5  1  0
 51 52  1  0
 52 53  1  0
 53 54  1  0
 55 54  1  0
 55 56  1  0
 57 68  2  0
 58 56  1  0
 58 63  1  0
 59 67  1  0
 59 69  1  0
 60 62  1  0
 61 67  1  0
 62 63  2  0
 62 61  1  0
 64 58  2  0
 65 64  1  0
 65 60  2  0
 66 60  1  0
 66 59  1  0
 67 57  1  0
 69 71  2  0
 70 69  1  0
 72 70  1  0
 73 78  1  0
 74 70  1  0
 75 74  1  0
 76 77  1  0
 76 75  1  0
 77 73  1  0
 78 74  1  0
 78 79  2  0
 80 79  1  0
 81 80  2  0
 82 73  2  0
 82 81  1  0
 83 57  1  0
 83 88  1  0
 83 84  1  0
 84 87  1  1
 84 85  1  0
 86 84  1  0
 88 91  1  0
 89 93  1  0
 89 88  1  0
 90 89  2  0
 93 92  1  0
 95 96  1  0
 95 93  1  0
 95 94  1  0
M  ISO  4  13 100  22 100  55 101  56 101
M  END
>  <TORSDO>  (46) 
F 25

>  <SCORE>  (46) 
-4.698

>  <name>  (46) 
48

>  <ligand_id>  (46) 
48

>  <original_smiles>  (46) 
[H]c1c([H])c([H])c2c(c1[H])C([H])([H])C([H])([H])C([H])([H])C2([H])N([H])C(=O)C1([H])N(C(=O)C([H])(N([H])C(=O)C([H])(N([H])C([H])([H])[H])C([H])([H])[H])C(C([H])([H])[H])(C([H])([H])[H])C([H])([H])[H])C([H])([H])c2c([H])c(OC([H])([H])C([H])([H])C([H])([H])C([H])([H])C([H])([H])n3nc(C(F)(F)F)c([H])c3C([H])([H])C([H])([H])C([H])([H])N(C(=O)N3C([H])([H])C([H])([H])C([H])([H])C([H])(n4nc(-c5c([H])c([H])c(Oc6c([H])c([H])c(F)c([H])c6F)c([H])c5[H])c(C(=O)N([H])[H])c4N([H])[H])C3([H])[H])C([H])([H])[H])c([H])c([H])c2C1([H])[H]

>  <smiles>  (46) 
[H]c1c([H])c([H])c2c(c1[H])C([H])([H])C([H])([H])C([H])([H])C2([H])N([H])C(=O)C1([H])N(C(=O)C([H])(N([H])C(=O)C([H])(N([H])C([H])([H])[H])C([H])([H])[H])C(C([H])([H])[H])(C([H])([H])[H])C([H])([H])[H])C([H])([H])c2c([H])c(OC([H])([H])C([H])([H])C([H])([H])C([H])([H])C([H])([H])n3nc(C(F)(F)F)c([H])c3C([H])([H])C([H])([H])C([H])([H])N(C(=O)N3C([H])([H])C([H])([H])C([H])([H])C([H])(n4nc(-c5c([H])c([H])c(Oc6c([H])c([H])c(F)c([H])c6F)c([H])c5[H])c(C(=O)N([H])[H])c4N([H])[H])C3([H])[H])C([H])([H])[H])c([H])c([H])c2C1([H])[H]

$$$$
49:0:0
     RDKit          3D

 96104  0  0  1  0  0  0  0  0999 V2000
  -28.6120  -20.0220   21.2150 C   0  0  0  0  0  3  0  0  0  0  0  0
  -29.6030  -19.1930   20.6310 C   0  0  0  0  0  0  0  0  0  0  0  0
  -29.2020  -21.8040   19.8430 C   0  0  0  0  0  0  0  0  0  0  0  0
  -30.1940  -20.9700   19.2420 C   0  0  0  0  0  0  0  0  0  0  0  0
  -28.4050  -21.3070   20.8230 N   0  0  0  0  0  0  0  0  0  0  0  0
  -30.3710  -19.6720   19.6190 N   0  0  0  0  0  0  0  0  0  0  0  0
  -30.6920  -21.0080   16.7480 C   0  0  0  0  0  1  0  0  0  0  0  0
  -31.1430  -21.4420   18.1490 C   0  0  0  0  0  2  0  0  0  0  0  0
  -28.8790  -23.2550   19.4090 C   0  0  0  0  0  2  0  0  0  0  0  0
  -29.2290  -24.3680   20.4480 C   0  0  0  0  0  2  0  0  0  0  0  0
  -28.1930  -25.5220   20.6360 C   0  0  0  0  0  2  0  0  0  0  0  0
  -28.3870  -26.7690   19.9180 O   0  0  0  0  0  0  0  0  0  0  0  0
  -24.6440  -31.9420   23.1600 C   0  0  0  0  0  0  0  0  0  0  0  0
  -27.2560  -27.5710   19.9240 C   0  0  0  0  0  0  0  0  0  0  0  0
  -23.4140  -30.5600   21.5220 C   0  0  0  0  0  3  0  0  0  0  0  0
  -24.8520  -29.0760   20.0220 C   0  0  0  0  0  0  0  0  0  0  0  0
  -25.9350  -30.9480   21.2710 C   0  0  0  0  0  2  0  0  0  0  0  0
  -26.0240  -29.5930   20.5930 C   0  0  0  0  0  0  0  0  0  0  0  0
  -27.2310  -28.8500   20.5380 C   0  0  0  0  0  3  0  0  0  0  0  0
  -26.0690  -27.0890   19.3310 C   0  0  0  0  0  3  0  0  0  0  0  0
  -24.8720  -27.8240   19.3870 C   0  0  0  0  0  3  0  0  0  0  0  0
  -23.5980  -29.9190   20.1220 C   0  0  0  0  0  2  0  0  0  0  0  0
  -24.6830  -31.1640   22.0420 N   0  0  0  0  0  0  0  0  0  0  0  0
  -23.5740  -32.1910   23.7340 O   0  0  0  0  0  0  0  0  0  0  0  0
  -22.8000  -29.5090   22.4760 C   0  0  0  0  0  0  0  0  0  0  0  0
  -21.4820  -29.2790   22.3460 N   0  0  0  0  0  0  0  0  0  0  0  0
  -23.5040  -28.9060   23.2880 O   0  0  0  0  0  0  0  0  0  0  0  0
  -20.9700  -29.8210   21.6640 H   0  0  0  0  0  0  0  0  0  0  0  0
  -18.1600  -27.9350   22.8150 C   0  0  0  0  0  0  0  0  0  0  0  0
  -20.7000  -28.3070   23.1130 C   0  0  0  0  0  3  0  0  0  0  0  0
  -20.8730  -26.8810   22.5410 C   0  0  0  0  0  2  0  0  0  0  0  0
  -19.7970  -26.5070   21.5150 C   0  0  0  0  0  2  0  0  0  0  0  0
  -18.4030  -26.5940   22.1450 C   0  0  0  0  0  2  0  0  0  0  0  0
  -19.2390  -28.7470   23.2550 C   0  0  0  0  0  0  0  0  0  0  0  0
  -18.9590  -30.0000   23.8400 C   0  0  0  0  0  3  0  0  0  0  0  0
  -17.6320  -30.4450   23.9900 C   0  0  0  0  0  3  0  0  0  0  0  0
  -16.5670  -29.6290   23.5700 C   0  0  0  0  0  3  0  0  0  0  0  0
  -16.8310  -28.3770   22.9870 C   0  0  0  0  0  3  0  0  0  0  0  0
  -25.9370  -32.5780   23.7590 C   0  0  0  0  0  3  0  0  0  0  0  0
  -26.4970  -31.7900   25.0060 C   0  0  1  0  0  0  0  0  0  0  0  0
  -25.4290  -31.4960   26.0850 C   0  0  0  0  0  1  0  0  0  0  0  0
  -27.1100  -30.4380   24.5710 C   0  0  0  0  0  1  0  0  0  0  0  0
  -27.6370  -32.5980   25.6710 C   0  0  0  0  0  1  0  0  0  0  0  0
  -25.6220  -33.9660   24.1200 N   0  0  0  0  0  0  0  0  0  0  0  0
  -25.9330  -35.0350   23.3750 C   0  0  0  0  0  0  0  0  0  0  0  0
  -26.5870  -34.9580   22.3310 O   0  0  0  0  0  0  0  0  0  0  0  0
  -25.0350  -34.1000   24.9300 H   0  0  0  0  0  0  0  0  0  0  0  0
  -24.1940  -36.8270   23.0690 C   0  0  0  0  0  1  0  0  0  0  0  0
  -25.4400  -36.4110   23.8680 C   0  0  0  0  0  3  0  0  0  0  0  0
  -27.5660  -37.2930   24.7210 C   0  0  0  0  0  1  0  0  0  0  0  0
  -26.4670  -37.4710   23.7760 N   0  0  0  0  0  0  0  0  0  0  0  0
  -26.0540  -38.3850   23.9400 H   0  0  0  0  0  0  0  0  0  0  0  0
  -29.8860  -17.7780   21.2040 C   0  0  0  0  0  3  0  0  0  0  0  0
  -31.3430  -17.5910   21.6870 C   0  0  1  0  0  0  0  0  0  0  0  0
  -31.4470  -16.4270   22.3300 F   0  0  0  0  0  0  0  0  0  0  0  0
  -32.2190  -17.5910   20.6820 F   0  0  0  0  0  0  0  0  0  0  0  0
  -31.6720  -18.5640   22.5390 F   0  0  0  0  0  0  0  0  0  0  0  0
  -29.2400  -16.5350   20.4850 C   0  0  0  0  0  2  0  0  0  0  0  0
  -30.8370  -14.6500   19.8290 C   0  0  0  0  0  0  0  0  0  0  0  0
  -30.5450  -12.3500   18.9920 C   0  0  0  0  0  2  0  0  0  0  0  0
  -29.5530  -12.3880   17.8120 C   0  0  0  0  0  2  0  0  0  0  0  0
  -28.1020  -12.2590   18.3180 C   0  0  0  0  0  2  0  0  0  0  0  0
  -27.7900  -13.2230   19.4950 C   0  0  0  0  0  3  0  0  0  0  0  0
  -28.9010  -13.1690   20.5660 C   0  0  0  0  0  2  0  0  0  0  0  0
  -30.1750  -13.4560   19.8920 N   0  0  0  0  0  0  0  0  0  0  0  0
  -32.0160  -14.6960   19.4690 O   0  0  0  0  0  0  0  0  0  0  0  0
  -30.2650  -16.4100   18.2550 C   0  0  0  0  0  1  0  0  0  0  0  0
  -30.0610  -15.7370   19.5420 N   0  0  0  0  0  0  0  0  0  0  0  0
  -25.4630  -13.8640   20.3750 C   0  0  0  0  0  0  0  0  0  0  0  0
  -24.4010  -13.1080   20.7910 C   0  0  0  0  0  0  0  0  0  0  0  0
  -24.8260  -11.7470   20.6980 C   0  0  0  0  0  0  0  0  0  0  0  0
  -26.4690  -12.9650   20.0600 N   0  0  0  0  0  0  0  0  0  0  0  0
  -26.0930  -11.6850   20.3100 N   0  0  0  0  0  0  0  0  0  0  0  0
  -24.0810  -10.4980   20.9020 C   0  0  0  0  0  0  0  0  0  0  0  0
  -24.4830   -9.5460   21.8660 C   0  0  0  0  0  3  0  0  0  0  0  0
  -23.7380   -8.3620   22.0570 C   0  0  0  0  0  3  0  0  0  0  0  0
  -22.5800   -8.1210   21.2810 C   0  0  0  0  0  0  0  0  0  0  0  0
  -22.1980   -9.0580   20.3060 C   0  0  0  0  0  3  0  0  0  0  0  0
  -22.9430  -10.2340   20.1150 C   0  0  0  0  0  3  0  0  0  0  0  0
  -21.8100   -6.9870   21.3810 O   0  0  0  0  0  0  0  0  0  0  0  0
  -21.6560   -6.3240   22.5720 C   0  0  0  0  0  0  0  0  0  0  0  0
  -21.0790   -6.9450   23.7010 C   0  0  0  0  0  3  0  0  0  0  0  0
  -20.8760   -6.2050   24.8830 C   0  0  0  0  0  3  0  0  0  0  0  0
  -21.2380   -4.8460   24.9350 C   0  0  0  0  0  0  0  0  0  0  0  0
  -21.8080   -4.2240   23.8090 C   0  0  0  0  0  3  0  0  0  0  0  0
  -22.0130   -4.9620   22.6290 C   0  0  0  0  0  0  0  0  0  0  0  0
  -22.5430   -4.3540   21.5400 F   0  0  0  0  0  0  0  0  0  0  0  0
  -21.0360   -4.1320   26.0670 F   0  0  0  0  0  0  0  0  0  0  0  0
  -23.0370  -13.6110   21.1660 C   0  0  0  0  0  0  0  0  0  0  0  0
  -22.3480  -12.9030   22.0530 N   0  0  0  0  0  0  0  0  0  0  0  0
  -22.5960  -14.6640   20.7080 O   0  0  0  0  0  0  0  0  0  0  0  0
  -22.7220  -12.0470   22.4360 H   0  0  0  0  0  0  0  0  0  0  0  0
  -21.4370  -13.2170   22.3540 H   0  0  0  0  0  0  0  0  0  0  0  0
  -25.6520  -15.2340   20.2160 N   0  0  0  0  0  0  0  0  0  0  0  0
  -24.9000  -15.8980   20.3560 H   0  0  0  0  0  0  0  0  0  0  0  0
  -26.4730  -15.6440   19.7930 H   0  0  0  0  0  0  0  0  0  0  0  0
  2 53  1  0
  2  1  2  0
  3  5  2  0
  4  6  2  0
  4  3  1  0
  5  1  1  0
  6  2  1  0
  7  8  1  0
  8  4  1  0
  9  3  1  0
  9 10  1  0
 10 11  1  0
 12 14  1  0
 12 11  1  0
 13 24  2  0
 14 19  1  0
 15 23  1  0
 15 25  1  0
 16 22  1  0
 16 18  1  0
 17 23  1  0
 18 17  1  0
 19 18  2  0
 20 21  1  0
 20 14  2  0
 21 16  2  0
 22 15  1  0
 23 13  1  0
 25 27  2  0
 26 25  1  0
 28 26  1  0
 29 38  2  0
 29 34  1  0
 30 26  1  0
 30 34  1  0
 31 30  1  0
 32 33  1  0
 32 31  1  0
 33 29  1  0
 34 35  2  0
 35 36  1  0
 37 36  2  0
 38 37  1  0
 39 13  1  0
 39 44  1  0
 39 40  1  0
 40 43  1  1
 40 41  1  0
 42 40  1  0
 44 47  1  0
 45 49  1  0
 45 44  1  0
 46 45  2  0
 49 48  1  0
 51 49  1  0
 51 52  1  0
 51 50  1  0
 53 58  1  0
 53 54  1  0
 54 55  1  1
 54 57  1  0
 56 54  1  0
 59 65  1  0
 60 65  1  0
 61 62  1  0
 61 60  1  0
 63 62  1  0
 63 72  1  0
 63 64  1  0
 65 64  1  0
 66 59  2  0
 67 68  1  0
 68 59  1  0
 68 58  1  0
 69 70  2  0
 70 89  1  0
 71 70  1  0
 71 74  1  0
 72 73  1  0
 72 69  1  0
 73 71  2  0
 74 75  1  0
 75 76  2  0
 77 80  1  0
 77 76  1  0
 78 77  2  0
 79 78  1  0
 79 74  2  0
 80 81  1  0
 81 86  2  0
 81 82  1  0
 82 83  2  0
 83 84  1  0
 84 88  1  0
 85 84  2  0
 86 85  1  0
 87 86  1  0
 89 90  1  0
 90 93  1  0
 90 92  1  0
 91 89  2  0
 94 95  1  0
 94 69  1  0
 96 94  1  0
M  ISO  4  11 101  12 101  59 100  68 100
M  END
>  <TORSDO>  (47) 
F 23

>  <SCORE>  (47) 
-12.114

>  <name>  (47) 
49

>  <ligand_id>  (47) 
49

>  <original_smiles>  (47) 
[H]c1nc(C([H])([H])C([H])([H])C([H])([H])Oc2c([H])c([H])c3c(c2[H])C([H])([H])N(C(=O)C([H])(N([H])C(=O)C([H])(N([H])C([H])([H])[H])C([H])([H])[H])C(C([H])([H])[H])(C([H])([H])[H])C([H])([H])[H])C([H])(C(=O)N([H])C2([H])c4c([H])c([H])c([H])c([H])c4C([H])([H])C([H])([H])C2([H])[H])C3([H])[H])c(C([H])([H])C([H])([H])[H])nc1C([H])(C(F)(F)F)C([H])([H])N(C(=O)N1C([H])([H])C([H])([H])C([H])([H])C([H])(n2nc(-c3c([H])c([H])c(Oc4c([H])c([H])c(F)c([H])c4F)c([H])c3[H])c(C(=O)N([H])[H])c2N([H])[H])C1([H])[H])C([H])([H])[H]

>  <smiles>  (47) 
[H]c1nc(C([H])([H])C([H])([H])C([H])([H])Oc2c([H])c([H])c3c(c2[H])C([H])([H])N(C(=O)C([H])(N([H])C(=O)C([H])(N([H])C([H])([H])[H])C([H])([H])[H])C(C([H])([H])[H])(C([H])([H])[H])C([H])([H])[H])C([H])(C(=O)N([H])C2([H])c4c([H])c([H])c([H])c([H])c4C([H])([H])C([H])([H])C2([H])[H])C3([H])[H])c(C([H])([H])C([H])([H])[H])nc1C([H])(C(F)(F)F)C([H])([H])N(C(=O)N1C([H])([H])C([H])([H])C([H])([H])C([H])(n2nc(-c3c([H])c([H])c(Oc4c([H])c([H])c(F)c([H])c4F)c([H])c3[H])c(C(=O)N([H])[H])c2N([H])[H])C1([H])[H])C([H])([H])[H]

$$$$
50:0:0
     RDKit          3D

 97105  0  0  1  0  0  0  0  0999 V2000
  -26.7600  -19.0490   18.2960 C   0  0  0  0  0  3  0  0  0  0  0  0
  -27.9990  -19.6110   18.6950 C   0  0  0  0  0  0  0  0  0  0  0  0
  -29.0110  -18.6320   18.7830 C   0  0  0  0  0  3  0  0  0  0  0  0
  -27.6300  -16.8370   18.4620 C   0  0  0  0  0  0  0  0  0  0  0  0
  -30.2030  -18.8680   19.6730 C   0  0  0  0  0  1  0  0  0  0  0  0
  -26.6180  -17.7020   18.1660 N   0  0  0  0  0  0  0  0  0  0  0  0
  -28.8720  -17.3270   18.4580 N   0  0  0  0  0  2  0  0  0  0  0  0
  -26.7420  -16.3930   20.7110 C   0  0  0  0  0  1  0  0  0  0  0  0
  -27.2830  -15.5650   19.4770 C   0  0  1  0  0  0  0  0  0  0  0  0
  -25.6550  -13.2430   18.5750 C   0  0  0  0  0  1  0  0  0  0  0  0
  -25.1500  -15.4420   18.0440 C   0  0  0  0  0  1  0  0  0  0  0  0
  -24.8290  -14.4550   20.3880 C   0  0  0  0  0  1  0  0  0  0  0  0
  -25.8430  -14.6710   19.1690 C   0  0  2  0  0  0  0  0  0  0  0  0
  -28.9310  -15.0990   19.7800 C   0  0  0  0  0  2  0  0  0  0  0  0
  -31.0780  -13.2400   19.7980 C   0  0  0  0  0  0  0  0  0  0  0  0
  -30.8650  -11.1360   18.4730 C   0  0  0  0  0  2  0  0  0  0  0  0
  -29.6300  -11.4610   17.6260 C   0  0  0  0  0  2  0  0  0  0  0  0
  -28.3680  -11.3630   18.4980 C   0  0  0  0  0  2  0  0  0  0  0  0
  -28.4330  -11.7870   19.9610 C   0  0  0  0  0  3  0  0  0  0  0  0
  -29.7750  -11.3520   20.6270 C   0  0  0  0  0  2  0  0  0  0  0  0
  -30.7490  -11.9160   19.7150 N   0  0  0  0  0  0  0  0  0  0  0  0
  -32.2040  -13.5790   19.4130 O   0  0  0  0  0  0  0  0  0  0  0  0
  -30.2200  -14.4360   21.7900 C   0  0  0  0  0  1  0  0  0  0  0  0
  -30.0460  -14.1110   20.3400 N   0  0  0  0  0  0  0  0  0  0  0  0
  -26.7000  -12.4460   21.8450 C   0  0  0  0  0  3  0  0  0  0  0  0
  -25.4330  -11.9320   21.9530 C   0  0  0  0  0  0  0  0  0  0  0  0
  -25.4070  -10.7490   21.1520 C   0  0  0  0  0  0  0  0  0  0  0  0
  -27.2380  -11.6760   20.7810 N   0  0  0  0  0  0  0  0  0  0  0  0
  -26.5250  -10.6050   20.4620 N   0  0  0  0  0  2  0  0  0  0  0  0
  -24.4230   -9.6880   20.9780 C   0  0  0  0  0  0  0  0  0  0  0  0
  -24.6970   -8.3890   21.4500 C   0  0  0  0  0  3  0  0  0  0  0  0
  -23.7150   -7.3820   21.3250 C   0  0  0  0  0  3  0  0  0  0  0  0
  -22.4820   -7.7070   20.6880 C   0  0  0  0  0  0  0  0  0  0  0  0
  -22.2700   -8.9800   20.1490 C   0  0  0  0  0  3  0  0  0  0  0  0
  -23.2540   -9.9630   20.2550 C   0  0  0  0  0  3  0  0  0  0  0  0
  -21.4920   -6.7650   20.5070 O   0  0  0  0  0  0  0  0  0  0  0  0
  -21.0280   -5.9870   21.5100 C   0  0  0  0  0  0  0  0  0  0  0  0
  -20.4640   -6.5510   22.6980 C   0  0  0  0  0  3  0  0  0  0  0  0
  -19.9110   -5.6970   23.6790 C   0  0  0  0  0  3  0  0  0  0  0  0
  -19.9160   -4.3120   23.4810 C   0  0  0  0  0  0  0  0  0  0  0  0
  -20.4520   -3.7560   22.3300 C   0  0  0  0  0  3  0  0  0  0  0  0
  -21.0160   -4.5820   21.3450 C   0  0  0  0  0  0  0  0  0  0  0  0
  -21.5170   -4.0460   20.2050 F   0  0  0  0  0  0  0  0  0  0  0  0
  -19.3820   -3.4980   24.4460 F   0  0  0  0  0  0  0  0  0  0  0  0
  -24.2750  -12.5220   22.7610 C   0  0  0  0  0  0  0  0  0  0  0  0
  -23.5530  -11.6340   23.4490 N   0  0  0  0  0  0  0  0  0  0  0  0
  -24.0380  -13.7070   22.8400 O   0  0  0  0  0  0  0  0  0  0  0  0
  -23.7190  -10.6590   23.2330 H   0  0  0  0  0  0  0  0  0  0  0  0
  -22.7740  -11.8710   24.0440 H   0  0  0  0  0  0  0  0  0  0  0  0
  -27.3200  -13.4720   22.5850 N   0  0  0  0  0  0  0  0  0  0  0  0
  -28.2560  -13.8310   22.3970 H   0  0  0  0  0  0  0  0  0  0  0  0
  -26.9990  -13.6500   23.5030 H   0  0  0  0  0  0  0  0  0  0  0  0
  -28.3070  -21.1630   18.7460 C   0  0  0  0  0  2  0  0  0  0  0  0
  -27.7160  -22.2060   19.7800 C   0  0  0  0  0  2  0  0  0  0  0  0
  -28.3930  -23.6620   19.5930 C   0  0  0  0  0  3  0  0  0  0  0  0
  -28.1820  -24.8760   20.5860 C   0  0  0  0  0  3  0  0  0  0  0  0
  -28.5510  -26.2470   20.1340 O   0  0  0  0  0  0  0  0  0  0  0  0
  -24.6900  -31.3880   23.4590 C   0  0  0  0  0  0  0  0  0  0  0  0
  -27.5060  -27.1670   20.1000 C   0  0  0  0  0  0  0  0  0  0  0  0
  -23.5830  -30.0320   21.7270 C   0  0  0  0  0  3  0  0  0  0  0  0
  -25.1060  -28.6890   20.1990 C   0  0  0  0  0  0  0  0  0  0  0  0
  -26.1120  -30.4790   21.6120 C   0  0  0  0  0  2  0  0  0  0  0  0
  -26.2530  -29.1680   20.8530 C   0  0  0  0  0  0  0  0  0  0  0  0
  -27.4650  -28.4110   20.8110 C   0  0  0  0  0  3  0  0  0  0  0  0
  -26.3600  -26.7870   19.3800 C   0  0  0  0  0  3  0  0  0  0  0  0
  -25.1660  -27.5080   19.4500 C   0  0  0  0  0  3  0  0  0  0  0  0
  -23.8340  -29.5010   20.3010 C   0  0  0  0  0  2  0  0  0  0  0  0
  -24.8120  -30.6500   22.3210 N   0  0  0  0  0  0  0  0  0  0  0  0
  -23.5870  -31.5670   23.9990 O   0  0  0  0  0  0  0  0  0  0  0  0
  -22.9890  -28.9020   22.6090 C   0  0  0  0  0  0  0  0  0  0  0  0
  -21.7040  -28.5740   22.3870 N   0  0  0  0  0  0  0  0  0  0  0  0
  -23.6830  -28.3270   23.4550 O   0  0  0  0  0  0  0  0  0  0  0  0
  -21.2000  -29.0940   21.6810 H   0  0  0  0  0  0  0  0  0  0  0  0
  -18.4850  -26.9350   22.5820 C   0  0  0  0  0  0  0  0  0  0  0  0
  -20.9490  -27.5290   23.0840 C   0  0  0  0  0  3  0  0  0  0  0  0
  -21.2940  -26.1300   22.5240 C   0  0  0  0  0  2  0  0  0  0  0  0
  -20.3420  -25.6720   21.4160 C   0  0  0  0  0  2  0  0  0  0  0  0
  -18.9010  -25.6260   21.9300 C   0  0  0  0  0  2  0  0  0  0  0  0
  -19.4470  -27.8340   23.1100 C   0  0  0  0  0  0  0  0  0  0  0  0
  -19.0090  -29.0520   23.6770 C   0  0  0  0  0  3  0  0  0  0  0  0
  -17.6400  -29.3720   23.7240 C   0  0  0  0  0  3  0  0  0  0  0  0
  -16.6900  -28.4710   23.2130 C   0  0  0  0  0  3  0  0  0  0  0  0
  -17.1130  -27.2540   22.6490 C   0  0  0  0  0  3  0  0  0  0  0  0
  -25.9270  -32.0600   24.1200 C   0  0  0  0  0  3  0  0  0  0  0  0
  -25.6090  -33.4840   24.3010 N   0  0  0  0  0  0  0  0  0  0  0  0
  -26.0560  -34.4740   23.5160 C   0  0  0  0  0  0  0  0  0  0  0  0
  -26.8530  -34.2850   22.5930 O   0  0  0  0  0  0  0  0  0  0  0  0
  -24.9160  -33.7050   25.0010 H   0  0  0  0  0  0  0  0  0  0  0  0
  -24.4540  -36.2690   22.7770 C   0  0  0  0  0  1  0  0  0  0  0  0
  -25.5400  -35.9000   23.8000 C   0  0  0  0  0  3  0  0  0  0  0  0
  -27.5420  -36.7940   24.9050 C   0  0  0  0  0  1  0  0  0  0  0  0
  -26.6070  -36.9250   23.7900 N   0  0  0  0  0  0  0  0  0  0  0  0
  -26.2080  -37.8590   23.8190 H   0  0  0  0  0  0  0  0  0  0  0  0
  -26.3240  -31.4080   25.5030 C   0  0  1  0  0  0  0  0  0  0  0  0
  -25.1410  -31.2830   26.4910 C   0  0  0  0  0  1  0  0  0  0  0  0
  -26.9160  -29.9940   25.3040 C   0  0  0  0  0  1  0  0  0  0  0  0
  -27.4310  -32.2520   26.1810 C   0  0  0  0  0  1  0  0  0  0  0  0
  1  2  2  0
  2 53  1  0
  2  3  1  0
  3  5  1  0
  4  9  1  0
  6  1  1  0
  6  4  2  0
  7  4  1  0
  7  3  1  0
  9 14  1  0
  9  8  1  1
 13 10  1  6
 11 13  1  0
 13  9  1  0
 13 12  1  0
 14 24  1  0
 15 24  1  0
 16 21  1  0
 17 16  1  0
 17 18  1  0
 19 18  1  0
 19 20  1  0
 19 28  1  0
 21 15  1  0
 21 20  1  0
 22 15  2  0
 24 23  1  0
 25 26  1  0
 25 50  1  0
 26 45  1  0
 27 26  2  0
 28 29  1  0
 28 25  1  0
 29 27  1  0
 30 27  1  0
 30 31  1  0
 32 31  2  0
 33 32  1  0
 34 35  1  0
 34 33  2  0
 35 30  2  0
 36 33  1  0
 36 37  1  0
 37 38  1  0
 38 39  2  0
 40 39  1  0
 40 44  1  0
 41 40  2  0
 42 37  2  0
 42 41  1  0
 43 42  1  0
 45 47  2  0
 45 46  1  0
 46 49  1  0
 48 46  1  0
 50 52  1  0
 51 50  1  0
 53 54  1  0
 55 54  1  0
 55 56  2  0
 57 56  1  0
 58 69  2  0
 59 57  1  0
 59 64  1  0
 60 68  1  0
 60 70  1  0
 61 67  1  0
 61 63  1  0
 62 68  1  0
 63 62  1  0
 64 63  2  0
 65 66  1  0
 65 59  2  0
 66 61  2  0
 67 60  1  0
 68 58  1  0
 70 72  2  0
 71 70  1  0
 73 71  1  0
 74 83  2  0
 74 79  1  0
 75 71  1  0
 75 79  1  0
 76 75  1  0
 77 78  1  0
 77 76  1  0
 78 74  1  0
 79 80  2  0
 80 81  1  0
 82 81  2  0
 83 82  1  0
 84 58  1  0
 84 85  1  0
 84 94  1  0
 85 88  1  0
 86 90  1  0
 86 85  1  0
 87 86  2  0
 90 89  1  0
 92 90  1  0
 92 93  1  0
 92 91  1  0
 94 97  1  1
 94 95  1  0
 96 94  1  0
M  ISO  4  15 100  24 100  56 101  57 101
M  END
>  <TORSDO>  (48) 
F 23

>  <SCORE>  (48) 
7.902

>  <name>  (48) 
50

>  <ligand_id>  (48) 
50

>  <original_smiles>  (48) 
[H]c1nc(C(C([H])([H])[H])(C([H])([H])N(C(=O)N2C([H])([H])C([H])([H])C([H])([H])C([H])(n3nc(-c4c([H])c([H])c(Oc5c([H])c([H])c(F)c([H])c5F)c([H])c4[H])c(C(=O)N([H])[H])c3N([H])[H])C2([H])[H])C([H])([H])[H])C(C([H])([H])[H])(C([H])([H])[H])C([H])([H])[H])nc(C([H])([H])[H])c1C([H])([H])C([H])([H])C([H])([H])C([H])([H])Oc1c([H])c([H])c2c(c1[H])C([H])([H])N(C(=O)C([H])(N([H])C(=O)C([H])(N([H])C([H])([H])[H])C([H])([H])[H])C(C([H])([H])[H])(C([H])([H])[H])C([H])([H])[H])C([H])(C(=O)N([H])C1([H])c3c([H])c([H])c([H])c([H])c3C([H])([H])C([H])([H])C1([H])[H])C2([H])[H]

>  <smiles>  (48) 
[H]c1nc(C(C([H])([H])[H])(C([H])([H])N(C(=O)N2C([H])([H])C([H])([H])C([H])([H])C([H])(n3nc(-c4c([H])c([H])c(Oc5c([H])c([H])c(F)c([H])c5F)c([H])c4[H])c(C(=O)N([H])[H])c3N([H])[H])C2([H])[H])C([H])([H])[H])C(C([H])([H])[H])(C([H])([H])[H])C([H])([H])[H])nc(C([H])([H])[H])c1C([H])([H])C([H])([H])C([H])([H])C([H])([H])Oc1c([H])c([H])c2c(c1[H])C([H])([H])N(C(=O)C([H])(N([H])C(=O)C([H])(N([H])C([H])([H])[H])C([H])([H])[H])C(C([H])([H])[H])(C([H])([H])[H])C([H])([H])[H])C([H])(C(=O)N([H])C1([H])c3c([H])c([H])c([H])c([H])c3C([H])([H])C([H])([H])C1([H])[H])C2([H])[H]

$$$$
51:0:0
     RDKit          3D

 99107  0  0  1  0  0  0  0  0999 V2000
  -23.1640  -24.0690   19.7030 C   0  0  0  0  0  2  0  0  0  0  0  0
  -23.8780  -22.8940   19.4010 C   0  0  0  0  0  2  0  0  0  0  0  0
  -24.1480  -24.0390   21.8330 C   0  0  0  0  0  3  0  0  0  0  0  0
  -23.7260  -24.8310   20.7500 C   0  0  0  0  0  3  0  0  0  0  0  0
  -25.0400  -22.6900   20.2030 C   0  0  0  0  0  3  0  0  0  0  0  0
  -24.9330  -22.9840   21.5370 N   0  0  0  0  0  0  0  0  0  0  0  0
  -26.2090  -21.7460   18.3900 C   0  0  0  0  0  1  0  0  0  0  0  0
  -27.1450  -21.7050   20.5510 C   0  0  0  0  0  1  0  0  0  0  0  0
  -26.5440  -22.8620   19.5580 C   0  0  0  0  0  3  0  0  0  0  0  0
  -27.8310  -25.5510   19.0270 O   0  0  0  0  0  0  0  0  0  0  0  0
  -24.6760  -31.5330   23.3110 C   0  0  0  0  0  0  0  0  0  0  0  0
  -27.2500  -27.1270   19.2240 C   0  0  0  0  0  0  0  0  0  0  0  0
  -23.5380  -30.5320   21.3870 C   0  0  0  0  0  3  0  0  0  0  0  0
  -25.0450  -29.2880   19.6460 C   0  0  0  0  0  0  0  0  0  0  0  0
  -26.1270  -30.6120   21.3950 C   0  0  0  0  0  2  0  0  0  0  0  0
  -26.2010  -29.3560   20.4290 C   0  0  0  0  0  0  0  0  0  0  0  0
  -27.2540  -28.2740   20.2560 C   0  0  0  0  0  3  0  0  0  0  0  0
  -26.2560  -27.6060   18.2950 C   0  0  0  0  0  3  0  0  0  0  0  0
  -25.1260  -28.4340   18.5530 C   0  0  0  0  0  3  0  0  0  0  0  0
  -23.8220  -30.1890   19.8990 C   0  0  0  0  0  2  0  0  0  0  0  0
  -24.8030  -30.9200   22.0840 N   0  0  0  0  0  0  0  0  0  0  0  0
  -23.5680  -31.7200   23.8460 O   0  0  0  0  0  0  0  0  0  0  0  0
  -22.8070  -29.3560   22.0890 C   0  0  0  0  0  0  0  0  0  0  0  0
  -21.4660  -29.2740   21.9730 N   0  0  0  0  0  0  0  0  0  0  0  0
  -23.4590  -28.5220   22.7240 O   0  0  0  0  0  0  0  0  0  0  0  0
  -20.9880  -29.9950   21.4520 H   0  0  0  0  0  0  0  0  0  0  0  0
  -18.0550  -28.0570   22.3110 C   0  0  0  0  0  0  0  0  0  0  0  0
  -20.6330  -28.1920   22.5140 C   0  0  0  0  0  3  0  0  0  0  0  0
  -20.6620  -26.9530   21.5860 C   0  0  0  0  0  2  0  0  0  0  0  0
  -19.5110  -26.9310   20.5750 C   0  0  0  0  0  2  0  0  0  0  0  0
  -18.1610  -26.9320   21.2950 C   0  0  0  0  0  2  0  0  0  0  0  0
  -19.2140  -28.6580   22.8720 C   0  0  0  0  0  0  0  0  0  0  0  0
  -19.0560  -29.7160   23.7920 C   0  0  0  0  0  3  0  0  0  0  0  0
  -17.7750  -30.1750   24.1540 C   0  0  0  0  0  3  0  0  0  0  0  0
  -16.6320  -29.5700   23.6020 C   0  0  0  0  0  3  0  0  0  0  0  0
  -16.7730  -28.5110   22.6870 C   0  0  0  0  0  3  0  0  0  0  0  0
  -25.9200  -32.0380   24.0990 C   0  0  0  0  0  3  0  0  0  0  0  0
  -25.7430  -33.4810   24.3630 N   0  0  0  0  0  0  0  0  0  0  0  0
  -26.3320  -34.4730   23.6820 C   0  0  0  0  0  0  0  0  0  0  0  0
  -27.1410  -34.2640   22.7740 O   0  0  0  0  0  0  0  0  0  0  0  0
  -25.0480  -33.7260   25.0520 H   0  0  0  0  0  0  0  0  0  0  0  0
  -24.9850  -36.5070   23.0440 C   0  0  0  0  0  1  0  0  0  0  0  0
  -25.9770  -35.9250   24.0650 C   0  0  0  0  0  3  0  0  0  0  0  0
  -28.0070  -36.5170   25.3150 C   0  0  0  0  0  1  0  0  0  0  0  0
  -27.1560  -36.8160   24.1670 N   0  0  0  0  0  0  0  0  0  0  0  0
  -26.8670  -37.7880   24.2300 H   0  0  0  0  0  0  0  0  0  0  0  0
  -26.1350  -31.2710   25.4630 C   0  0  1  0  0  0  0  0  0  0  0  0
  -24.8840  -31.2630   26.3730 C   0  0  0  0  0  1  0  0  0  0  0  0
  -26.5450  -29.7990   25.2330 C   0  0  0  0  0  1  0  0  0  0  0  0
  -27.3000  -31.9200   26.2460 C   0  0  0  0  0  1  0  0  0  0  0  0
  -24.7320  -25.6700   20.3180 O   0  0  0  0  0  0  0  0  0  0  0  0
  -26.5100  -24.5880   18.4600 C   0  0  0  0  0  0  0  0  0  0  0  0
  -28.0650  -23.8190   18.2840 C   0  0  0  0  0  3  0  0  0  0  0  0
  -27.1210  -24.7390   21.3620 C   0  0  0  0  0  3  0  0  0  0  0  0
  -25.9830  -25.0800   20.0790 C   0  0  0  0  0  0  0  0  0  0  0  0
  -29.0170  -23.3010   19.5950 C   0  0  0  0  0  0  0  0  0  0  0  0
  -28.5630  -23.9640   21.0220 N   0  0  0  0  0  0  0  0  0  0  0  0
  -30.8750  -21.7190   20.9360 C   0  0  0  0  0  1  0  0  0  0  0  0
  -31.0730  -21.9220   18.5380 C   0  0  0  0  0  1  0  0  0  0  0  0
  -30.0290  -21.6410   19.6400 C   0  0  0  0  0  3  0  0  0  0  0  0
  -29.8150  -19.6590   19.3990 C   0  0  0  0  0  1  0  0  0  0  0  0
  -30.9690  -16.5720   19.9380 C   0  0  0  0  0  0  0  0  0  0  0  0
  -31.2050  -13.9240   19.4290 C   0  0  0  0  0  2  0  0  0  0  0  0
  -30.3860  -13.3220   18.2450 C   0  0  0  0  0  2  0  0  0  0  0  0
  -28.9680  -12.9380   18.6840 C   0  0  0  0  0  2  0  0  0  0  0  0
  -28.3700  -14.0200   19.6090 C   0  0  0  0  0  3  0  0  0  0  0  0
  -29.3410  -14.5240   20.7120 C   0  0  0  0  0  2  0  0  0  0  0  0
  -30.5110  -15.1630   20.0480 N   0  0  0  0  0  0  0  0  0  0  0  0
  -32.1840  -16.5140   19.6590 O   0  0  0  0  0  0  0  0  0  0  0  0
  -30.1810  -17.9520   19.9900 N   0  0  0  0  0  0  0  0  0  0  0  0
  -29.3240  -17.6750   20.4450 H   0  0  0  0  0  0  0  0  0  0  0  0
  -25.9970  -14.5250   20.3600 C   0  0  0  0  0  0  0  0  0  0  0  0
  -24.9360  -13.7390   20.7080 C   0  0  0  0  0  0  0  0  0  0  0  0
  -25.4080  -12.3910   20.6590 C   0  0  0  0  0  0  0  0  0  0  0  0
  -27.0480  -13.6630   20.1130 N   0  0  0  0  0  0  0  0  0  0  0  0
  -26.7050  -12.3680   20.3560 N   0  0  0  0  0  0  0  0  0  0  0  0
  -24.6770  -11.1240   20.8290 C   0  0  0  0  0  0  0  0  0  0  0  0
  -25.0800  -10.1560   21.7750 C   0  0  0  0  0  3  0  0  0  0  0  0
  -24.3460   -8.9610   21.9350 C   0  0  0  0  0  3  0  0  0  0  0  0
  -23.1940   -8.7220   21.1480 C   0  0  0  0  0  0  0  0  0  0  0  0
  -22.8090   -9.6800   20.1920 C   0  0  0  0  0  3  0  0  0  0  0  0
  -23.5440  -10.8670   20.0310 C   0  0  0  0  0  3  0  0  0  0  0  0
  -22.4340   -7.5810   21.2160 O   0  0  0  0  0  0  0  0  0  0  0  0
  -22.1640   -6.9660   22.4130 C   0  0  0  0  0  0  0  0  0  0  0  0
  -21.5490   -7.6530   23.4820 C   0  0  0  0  0  3  0  0  0  0  0  0
  -21.2290   -6.9660   24.6690 C   0  0  0  0  0  3  0  0  0  0  0  0
  -21.5140   -5.5920   24.7880 C   0  0  0  0  0  0  0  0  0  0  0  0
  -22.1170   -4.9030   23.7210 C   0  0  0  0  0  3  0  0  0  0  0  0
  -22.4400   -5.5880   22.5360 C   0  0  0  0  0  0  0  0  0  0  0  0
  -23.0050   -4.9160   21.5040 F   0  0  0  0  0  0  0  0  0  0  0  0
  -21.1980   -4.9280   25.9240 F   0  0  0  0  0  0  0  0  0  0  0  0
  -23.5350  -14.2110   20.9670 C   0  0  0  0  0  0  0  0  0  0  0  0
  -22.8150  -13.5360   21.8550 N   0  0  0  0  0  0  0  0  0  0  0  0
  -23.0940  -15.2210   20.4210 O   0  0  0  0  0  0  0  0  0  0  0  0
  -23.1860  -12.7220   22.3220 H   0  0  0  0  0  0  0  0  0  0  0  0
  -21.8770  -13.8410   22.0730 H   0  0  0  0  0  0  0  0  0  0  0  0
  -26.1550  -15.9000   20.2000 N   0  0  0  0  0  0  0  0  0  0  0  0
  -25.3850  -16.5470   20.3300 H   0  0  0  0  0  0  0  0  0  0  0  0
  -26.9940  -16.3460   19.8540 H   0  0  0  0  0  0  0  0  0  0  0  0
  1  4  1  0
  2  1  1  0
  2  5  1  0
  4 51  1  0
  4  3  1  0
  5  9  1  0
  5  6  1  0
  6  3  2  0
  7  9  1  0
  9  8  1  0
 10 12  1  0
 11 22  2  0
 12 17  1  0
 13 21  1  0
 13 23  1  0
 14 20  1  0
 14 16  1  0
 15 21  1  0
 16 15  1  0
 17 16  2  0
 18 19  1  0
 18 12  2  0
 19 14  2  0
 20 13  1  0
 21 11  1  0
 23 25  2  0
 24 23  1  0
 26 24  1  0
 27 36  2  0
 27 32  1  0
 28 24  1  0
 28 32  1  0
 29 28  1  0
 30 31  1  0
 30 29  1  0
 31 27  1  0
 32 33  2  0
 33 34  1  0
 35 34  2  0
 36 35  1  0
 37 11  1  0
 37 38  1  0
 37 47  1  0
 38 41  1  0
 39 43  1  0
 39 38  1  0
 40 39  2  0
 43 42  1  0
 43 45  1  0
 45 46  1  0
 45 44  1  0
 47 50  1  1
 47 48  1  0
 49 47  1  0
 52 10  1  0
 52 55  1  0
 53 52  2  3
 53 56  1  0
 55 51  1  0
 55 54  2  0
 56 60  1  0
 56 57  2  0
 57 54  1  0
 59 60  1  0
 60 58  1  0
 61 70  1  0
 62 70  1  0
 62 68  1  0
 63 68  1  0
 64 65  1  0
 64 63  1  0
 66 65  1  0
 66 75  1  0
 66 67  1  0
 68 67  1  0
 69 62  2  0
 70 71  1  0
 72 73  2  0
 73 92  1  0
 74 73  1  0
 74 77  1  0
 75 76  1  0
 75 72  1  0
 76 74  2  0
 77 78  1  0
 78 79  2  0
 80 83  1  0
 80 79  1  0
 81 80  2  0
 82 81  1  0
 82 77  2  0
 83 84  1  0
 84 89  2  0
 84 85  1  0
 85 86  2  0
 86 87  1  0
 87 91  1  0
 88 87  2  0
 89 88  1  0
 90 89  1  0
 92 93  1  0
 93 96  1  0
 93 95  1  0
 94 92  2  0
 97 98  1  0
 97 72  1  0
 99 97  1  0
M  ISO  4   9 101  10 101  62 100  70 100
M  END
>  <TORSDO>  (49) 
F 21

>  <SCORE>  (49) 
-13.197

>  <name>  (49) 
51

>  <ligand_id>  (49) 
51

>  <original_smiles>  (49) 
[H]c1nc(C(Oc2c([H])c([H])c3c(c2[H])C([H])([H])N(C(=O)C([H])(N([H])C(=O)C([H])(N([H])C([H])([H])[H])C([H])([H])[H])C(C([H])([H])[H])(C([H])([H])[H])C([H])([H])[H])C([H])(C(=O)N([H])C2([H])c4c([H])c([H])c([H])c([H])c4C([H])([H])C([H])([H])C2([H])[H])C3([H])[H])(C([H])([H])[H])C([H])([H])[H])c([H])c([H])c1Oc1c([H])nc(C(C([H])([H])[H])(C([H])([H])[H])C([H])([H])N([H])C(=O)N2C([H])([H])C([H])([H])C([H])([H])C([H])(n3nc(-c4c([H])c([H])c(Oc5c([H])c([H])c(F)c([H])c5F)c([H])c4[H])c(C(=O)N([H])[H])c3N([H])[H])C2([H])[H])c([H])c1[H]

>  <smiles>  (49) 
[H]c1nc(C(Oc2c([H])c([H])c3c(c2[H])C([H])([H])N(C(=O)C([H])(N([H])C(=O)C([H])(N([H])C([H])([H])[H])C([H])([H])[H])C(C([H])([H])[H])(C([H])([H])[H])C([H])([H])[H])C([H])(C(=O)N([H])C2([H])c4c([H])c([H])c([H])c([H])c4C([H])([H])C([H])([H])C2([H])[H])C3([H])[H])(C([H])([H])[H])C([H])([H])[H])c([H])c([H])c1Oc1c([H])nc(C(C([H])([H])[H])(C([H])([H])[H])C([H])([H])N([H])C(=O)N2C([H])([H])C([H])([H])C([H])([H])C([H])(n3nc(-c4c([H])c([H])c(Oc5c([H])c([H])c(F)c([H])c5F)c([H])c4[H])c(C(=O)N([H])[H])c3N([H])[H])C2([H])[H])c([H])c1[H]

$$$$
52:0:0
     RDKit          3D

 94102  0  0  1  0  0  0  0  0999 V2000
  -29.4740  -19.6380   20.8380 C   0  0  0  0  0  3  0  0  0  0  0  0
  -29.7670  -20.1890   19.5730 C   0  0  0  0  0  0  0  0  0  0  0  0
  -30.3100  -19.2270   18.6790 C   0  0  0  0  0  0  0  0  0  0  0  0
  -30.2440  -17.4840   20.2460 C   0  0  0  0  0  0  0  0  0  0  0  0
  -30.6570  -19.6210   17.2580 C   0  0  0  0  0  1  0  0  0  0  0  0
  -29.6920  -18.3310   21.1360 N   0  0  0  0  0  0  0  0  0  0  0  0
  -30.5360  -17.9180   19.0070 N   0  0  0  0  0  0  0  0  0  0  0  0
  -30.3100  -15.9400   20.6830 C   0  0  1  0  0  0  0  0  0  0  0  0
  -29.0170  -15.7140   20.9410 F   0  0  0  0  0  0  0  0  0  0  0  0
  -30.8450  -14.7850   19.6890 C   0  0  0  0  0  0  0  0  0  0  0  0
  -30.4630  -12.6380   18.4350 C   0  0  0  0  0  2  0  0  0  0  0  0
  -29.3320  -12.8090   17.3950 C   0  0  0  0  0  2  0  0  0  0  0  0
  -27.9390  -12.6230   18.0340 C   0  0  0  0  0  2  0  0  0  0  0  0
  -27.7890  -13.4020   19.3660 C   0  0  0  0  0  3  0  0  0  0  0  0
  -29.0000  -13.1150   20.2790 C   0  0  0  0  0  2  0  0  0  0  0  0
  -30.2010  -13.5690   19.5570 N   0  0  0  0  0  0  0  0  0  0  0  0
  -31.8760  -14.9690   19.0250 O   0  0  0  0  0  0  0  0  0  0  0  0
  -25.5620  -14.0030   20.5020 C   0  0  0  0  0  0  0  0  0  0  0  0
  -24.5320  -13.2290   20.9630 C   0  0  0  0  0  0  0  0  0  0  0  0
  -24.9280  -11.8750   20.7370 C   0  0  0  0  0  0  0  0  0  0  0  0
  -26.5210  -13.1190   20.0290 N   0  0  0  0  0  0  0  0  0  0  0  0
  -26.1520  -11.8290   20.2270 N   0  0  0  0  0  0  0  0  0  0  0  0
  -24.1900  -10.6200   20.9260 C   0  0  0  0  0  0  0  0  0  0  0  0
  -24.6660   -9.6070   21.7860 C   0  0  0  0  0  3  0  0  0  0  0  0
  -23.9300   -8.4150   21.9640 C   0  0  0  0  0  3  0  0  0  0  0  0
  -22.7040   -8.2310   21.2810 C   0  0  0  0  0  0  0  0  0  0  0  0
  -22.2480   -9.2340   20.4060 C   0  0  0  0  0  3  0  0  0  0  0  0
  -22.9850  -10.4160   20.2270 C   0  0  0  0  0  3  0  0  0  0  0  0
  -21.9330   -7.0980   21.3730 O   0  0  0  0  0  0  0  0  0  0  0  0
  -21.8640   -6.3680   22.5310 C   0  0  0  0  0  0  0  0  0  0  0  0
  -21.4260   -6.9390   23.7470 C   0  0  0  0  0  3  0  0  0  0  0  0
  -21.3020   -6.1350   24.8980 C   0  0  0  0  0  3  0  0  0  0  0  0
  -21.6060   -4.7610   24.8350 C   0  0  0  0  0  0  0  0  0  0  0  0
  -22.0370   -4.1910   23.6240 C   0  0  0  0  0  3  0  0  0  0  0  0
  -22.1620   -4.9920   22.4760 C   0  0  0  0  0  0  0  0  0  0  0  0
  -22.5580   -4.4310   21.3060 F   0  0  0  0  0  0  0  0  0  0  0  0
  -21.4790   -3.9870   25.9380 F   0  0  0  0  0  0  0  0  0  0  0  0
  -23.2150  -13.7150   21.4950 C   0  0  0  0  0  0  0  0  0  0  0  0
  -22.6180  -12.9740   22.4230 N   0  0  0  0  0  0  0  0  0  0  0  0
  -22.7300  -14.7830   21.1250 O   0  0  0  0  0  0  0  0  0  0  0  0
  -23.0290  -12.1110   22.7450 H   0  0  0  0  0  0  0  0  0  0  0  0
  -21.7370  -13.2760   22.8150 H   0  0  0  0  0  0  0  0  0  0  0  0
  -25.7570  -15.3780   20.4280 N   0  0  0  0  0  0  0  0  0  0  0  0
  -25.0630  -16.0460   20.7450 H   0  0  0  0  0  0  0  0  0  0  0  0
  -26.6060  -15.8160   20.0950 H   0  0  0  0  0  0  0  0  0  0  0  0
  -31.0950  -15.7600   22.0240 C   0  0  1  0  0  0  0  0  0  0  0  0
  -30.5830  -16.4780   23.0290 F   0  0  0  0  0  0  0  0  0  0  0  0
  -31.0940  -14.4860   22.4350 F   0  0  0  0  0  0  0  0  0  0  0  0
  -32.3730  -16.1180   21.8770 F   0  0  0  0  0  0  0  0  0  0  0  0
  -29.5660  -21.5350   19.1910 O   0  0  0  0  0  0  0  0  0  0  0  0
  -28.9290  -22.5220   20.0720 C   0  0  0  0  0  3  0  0  0  0  0  0
  -28.9830  -24.0330   19.5600 C   0  0  0  0  0  3  0  0  0  0  0  0
  -28.1720  -25.1280   20.3790 C   0  0  0  0  0  2  0  0  0  0  0  0
  -28.3540  -26.5620   20.0600 O   0  0  0  0  0  0  0  0  0  0  0  0
  -24.6750  -31.9350   23.1880 C   0  0  0  0  0  0  0  0  0  0  0  0
  -27.2230  -27.3890   20.0800 C   0  0  0  0  0  0  0  0  0  0  0  0
  -23.4340  -30.5370   21.5740 C   0  0  0  0  0  3  0  0  0  0  0  0
  -24.8520  -28.9830   20.1210 C   0  0  0  0  0  0  0  0  0  0  0  0
  -25.9690  -30.8570   21.3360 C   0  0  0  0  0  2  0  0  0  0  0  0
  -26.0330  -29.4780   20.6930 C   0  0  0  0  0  0  0  0  0  0  0  0
  -27.2230  -28.6930   20.6590 C   0  0  0  0  0  3  0  0  0  0  0  0
  -26.0240  -26.9450   19.4810 C   0  0  0  0  0  3  0  0  0  0  0  0
  -24.8510  -27.7220   19.5050 C   0  0  0  0  0  3  0  0  0  0  0  0
  -23.6170  -29.8570   20.1920 C   0  0  0  0  0  2  0  0  0  0  0  0
  -24.7130  -31.1280   22.0890 N   0  0  0  0  0  0  0  0  0  0  0  0
  -23.6050  -32.2140   23.7470 O   0  0  0  0  0  0  0  0  0  0  0  0
  -22.7950  -29.5240   22.5520 C   0  0  0  0  0  0  0  0  0  0  0  0
  -21.4710  -29.3200   22.4310 N   0  0  0  0  0  0  0  0  0  0  0  0
  -23.4860  -28.9230   23.3770 O   0  0  0  0  0  0  0  0  0  0  0  0
  -20.9720  -29.8530   21.7320 H   0  0  0  0  0  0  0  0  0  0  0  0
  -18.1260  -28.0410   22.9250 C   0  0  0  0  0  0  0  0  0  0  0  0
  -20.6720  -28.3810   23.2170 C   0  0  0  0  0  3  0  0  0  0  0  0
  -20.8230  -26.9370   22.6810 C   0  0  0  0  0  2  0  0  0  0  0  0
  -19.7420  -26.5570   21.6640 C   0  0  0  0  0  2  0  0  0  0  0  0
  -18.3480  -26.6800   22.2860 C   0  0  0  0  0  2  0  0  0  0  0  0
  -19.2160  -28.8460   23.3470 C   0  0  0  0  0  0  0  0  0  0  0  0
  -18.9530  -30.1170   23.9020 C   0  0  0  0  0  3  0  0  0  0  0  0
  -17.6310  -30.5830   24.0410 C   0  0  0  0  0  3  0  0  0  0  0  0
  -16.5550  -29.7760   23.6330 C   0  0  0  0  0  3  0  0  0  0  0  0
  -16.8030  -28.5070   23.0800 C   0  0  0  0  0  3  0  0  0  0  0  0
  -25.9740  -32.5670   23.7820 C   0  0  0  0  0  3  0  0  0  0  0  0
  -25.6630  -33.9560   24.1480 N   0  0  0  0  0  0  0  0  0  0  0  0
  -25.9610  -35.0280   23.4000 C   0  0  0  0  0  0  0  0  0  0  0  0
  -26.5970  -34.9520   22.3460 O   0  0  0  0  0  0  0  0  0  0  0  0
  -25.0940  -34.0900   24.9710 H   0  0  0  0  0  0  0  0  0  0  0  0
  -24.2050  -36.8120   23.1440 C   0  0  0  0  0  1  0  0  0  0  0  0
  -25.4780  -36.4030   23.9020 C   0  0  0  0  0  3  0  0  0  0  0  0
  -27.6320  -37.2900   24.6710 C   0  0  0  0  0  1  0  0  0  0  0  0
  -26.4940  -37.4690   23.7740 N   0  0  0  0  0  0  0  0  0  0  0  0
  -26.0850  -38.3810   23.9560 H   0  0  0  0  0  0  0  0  0  0  0  0
  -26.5360  -31.7760   25.0270 C   0  0  1  0  0  0  0  0  0  0  0  0
  -25.4670  -31.4680   26.1030 C   0  0  0  0  0  1  0  0  0  0  0  0
  -27.1580  -30.4310   24.5850 C   0  0  0  0  0  1  0  0  0  0  0  0
  -27.6700  -32.5890   25.6950 C   0  0  0  0  0  1  0  0  0  0  0  0
  1  6  1  0
  2  1  2  0
  3  7  2  0
  3  2  1  0
  4  8  1  0
  4  6  2  0
  5  3  1  0
  7  4  1  0
  8  9  1  1
  8 46  1  0
 10  8  1  0
 11 16  1  0
 12 13  1  0
 12 11  1  0
 14 13  1  0
 14 21  1  0
 14 15  1  0
 16 10  1  0
 16 15  1  0
 17 10  2  0
 18 19  2  0
 19 38  1  0
 20 23  1  0
 20 19  1  0
 21 22  1  0
 21 18  1  0
 22 20  2  0
 23 24  1  0
 24 25  2  0
 26 29  1  0
 26 25  1  0
 27 26  2  0
 28 27  1  0
 28 23  2  0
 29 30  1  0
 30 31  1  0
 31 32  2  0
 33 32  1  0
 33 37  1  0
 34 33  2  0
 35 30  2  0
 35 34  1  0
 36 35  1  0
 38 39  1  0
 39 41  1  0
 39 42  1  0
 40 38  2  0
 43 18  1  0
 43 44  1  0
 45 43  1  0
 46 48  1  1
 46 47  1  0
 49 46  1  0
 50  2  1  0
 50 51  1  0
 52 51  2  0
 52 53  1  0
 54 56  1  0
 54 53  1  0
 55 66  2  0
 56 61  1  0
 57 65  1  0
 57 67  1  0
 58 64  1  0
 58 60  1  0
 59 65  1  0
 60 59  1  0
 61 60  2  0
 62 63  1  0
 62 56  2  0
 63 58  2  0
 64 57  1  0
 65 55  1  0
 67 69  2  0
 68 67  1  0
 70 68  1  0
 71 80  2  0
 71 76  1  0
 72 68  1  0
 72 76  1  0
 73 72  1  0
 74 75  1  0
 74 73  1  0
 75 71  1  0
 76 77  2  0
 77 78  1  0
 79 78  2  0
 80 79  1  0
 81 55  1  0
 81 82  1  0
 81 91  1  0
 82 85  1  0
 83 87  1  0
 83 82  1  0
 84 83  2  0
 87 86  1  0
 89 87  1  0
 89 90  1  0
 89 88  1  0
 91 94  1  1
 91 92  1  0
 93 91  1  0
M  ISO  4   8 100  10 100  53 101  54 101
M  END
>  <TORSDO>  (50) 
F 22

>  <SCORE>  (50) 
-10.987

>  <name>  (50) 
52

>  <ligand_id>  (50) 
52

>  <original_smiles>  (50) 
[H]c1nc(C(F)(C(=O)N2C([H])([H])C([H])([H])C([H])([H])C([H])(n3nc(-c4c([H])c([H])c(Oc5c([H])c([H])c(F)c([H])c5F)c([H])c4[H])c(C(=O)N([H])[H])c3N([H])[H])C2([H])[H])C(F)(F)F)nc(C([H])([H])[H])c1OC([H])([H])C([H])([H])C([H])([H])Oc1c([H])c([H])c2c(c1[H])C([H])([H])N(C(=O)C([H])(N([H])C(=O)C([H])(N([H])C([H])([H])[H])C([H])([H])[H])C(C([H])([H])[H])(C([H])([H])[H])C([H])([H])[H])C([H])(C(=O)N([H])C1([H])c3c([H])c([H])c([H])c([H])c3C([H])([H])C([H])([H])C1([H])[H])C2([H])[H]

>  <smiles>  (50) 
[H]c1nc(C(F)(C(=O)N2C([H])([H])C([H])([H])C([H])([H])C([H])(n3nc(-c4c([H])c([H])c(Oc5c([H])c([H])c(F)c([H])c5F)c([H])c4[H])c(C(=O)N([H])[H])c3N([H])[H])C2([H])[H])C(F)(F)F)nc(C([H])([H])[H])c1OC([H])([H])C([H])([H])C([H])([H])Oc1c([H])c([H])c2c(c1[H])C([H])([H])N(C(=O)C([H])(N([H])C(=O)C([H])(N([H])C([H])([H])[H])C([H])([H])[H])C(C([H])([H])[H])(C([H])([H])[H])C([H])([H])[H])C([H])(C(=O)N([H])C1([H])c3c([H])c([H])c([H])c([H])c3C([H])([H])C([H])([H])C1([H])[H])C2([H])[H]

$$$$
53:0:0
     RDKit          3D

 92100  0  0  1  0  0  0  0  0999 V2000
  -31.4030  -21.5020   21.1580 C   0  0  0  0  0  3  0  0  0  0  0  0
  -29.7810  -20.9940   22.8180 C   0  0  0  0  0  3  0  0  0  0  0  0
  -30.8990  -20.5640   22.0860 C   0  0  0  0  0  0  0  0  0  0  0  0
  -29.7250  -22.9610   21.6740 C   0  0  0  0  0  0  0  0  0  0  0  0
  -30.8040  -22.6900   20.9480 N   0  0  0  0  0  0  0  0  0  0  0  0
  -29.1990  -22.1890   22.6140 N   0  0  0  0  0  0  0  0  0  0  0  0
  -29.0270  -24.2760   21.4050 C   0  0  0  0  0  2  0  0  0  0  0  0
  -29.8690  -25.4890   21.8260 C   0  0  0  0  0  2  0  0  0  0  0  0
  -29.0740  -26.7850   21.7070 C   0  0  0  0  0  2  0  0  0  0  0  0
  -28.4560  -26.8420   20.4190 O   0  0  0  0  0  0  0  0  0  0  0  0
  -24.6360  -31.9980   23.4160 C   0  0  0  0  0  0  0  0  0  0  0  0
  -27.3090  -27.5920   20.3840 C   0  0  0  0  0  0  0  0  0  0  0  0
  -23.4410  -30.6080   21.7500 C   0  0  0  0  0  3  0  0  0  0  0  0
  -24.9080  -29.0710   20.3360 C   0  0  0  0  0  0  0  0  0  0  0  0
  -25.9620  -30.9700   21.5840 C   0  0  0  0  0  2  0  0  0  0  0  0
  -26.0500  -29.6040   20.9480 C   0  0  0  0  0  0  0  0  0  0  0  0
  -27.2500  -28.8740   20.9730 C   0  0  0  0  0  3  0  0  0  0  0  0
  -26.1600  -27.0650   19.7600 C   0  0  0  0  0  3  0  0  0  0  0  0
  -24.9580  -27.8010   19.7330 C   0  0  0  0  0  3  0  0  0  0  0  0
  -23.6610  -29.9270   20.3710 C   0  0  0  0  0  2  0  0  0  0  0  0
  -24.6960  -31.2040   22.3110 N   0  0  0  0  0  0  0  0  0  0  0  0
  -23.5500  -32.2790   23.9410 O   0  0  0  0  0  0  0  0  0  0  0  0
  -22.7740  -29.5890   22.7000 C   0  0  0  0  0  0  0  0  0  0  0  0
  -21.4550  -29.3950   22.5310 N   0  0  0  0  0  0  0  0  0  0  0  0
  -23.4390  -28.9750   23.5390 O   0  0  0  0  0  0  0  0  0  0  0  0
  -20.9830  -29.9480   21.8290 H   0  0  0  0  0  0  0  0  0  0  0  0
  -18.0800  -28.1750   22.9240 C   0  0  0  0  0  0  0  0  0  0  0  0
  -20.6210  -28.4590   23.2850 C   0  0  0  0  0  3  0  0  0  0  0  0
  -20.7570  -27.0220   22.7300 C   0  0  0  0  0  2  0  0  0  0  0  0
  -19.6960  -26.6780   21.6790 C   0  0  0  0  0  2  0  0  0  0  0  0
  -18.2910  -26.8200   22.2710 C   0  0  0  0  0  2  0  0  0  0  0  0
  -19.1740  -28.9530   23.3850 C   0  0  0  0  0  0  0  0  0  0  0  0
  -18.9250  -30.2220   23.9490 C   0  0  0  0  0  3  0  0  0  0  0  0
  -17.6120  -30.7160   24.0570 C   0  0  0  0  0  3  0  0  0  0  0  0
  -16.5300  -29.9360   23.6110 C   0  0  0  0  0  3  0  0  0  0  0  0
  -16.7660  -28.6670   23.0510 C   0  0  0  0  0  3  0  0  0  0  0  0
  -25.9230  -32.6130   24.0570 C   0  0  0  0  0  3  0  0  0  0  0  0
  -25.6180  -34.0080   24.3940 N   0  0  0  0  0  0  0  0  0  0  0  0
  -25.9580  -35.0620   23.6420 C   0  0  0  0  0  0  0  0  0  0  0  0
  -26.6370  -34.9670   22.6160 O   0  0  0  0  0  0  0  0  0  0  0  0
  -25.0120  -34.1570   25.1880 H   0  0  0  0  0  0  0  0  0  0  0  0
  -24.2370  -36.8640   23.2930 C   0  0  0  0  0  1  0  0  0  0  0  0
  -25.4720  -36.4470   24.1060 C   0  0  0  0  0  3  0  0  0  0  0  0
  -27.6030  -37.3200   24.9580 C   0  0  0  0  0  1  0  0  0  0  0  0
  -26.5060  -37.5000   24.0090 N   0  0  0  0  0  0  0  0  0  0  0  0
  -26.0990  -38.4170   24.1640 H   0  0  0  0  0  0  0  0  0  0  0  0
  -26.4280  -31.8250   25.3280 C   0  0  1  0  0  0  0  0  0  0  0  0
  -25.3200  -31.5720   26.3790 C   0  0  0  0  0  1  0  0  0  0  0  0
  -27.0180  -30.4530   24.9220 C   0  0  0  0  0  1  0  0  0  0  0  0
  -27.5730  -32.6100   26.0100 C   0  0  0  0  0  1  0  0  0  0  0  0
  -31.3860  -19.2920   22.3080 O   0  0  0  0  0  0  0  0  0  0  0  0
  -32.3590  -18.7560   21.4150 C   0  0  0  0  0  2  0  0  0  0  0  0
  -32.2530  -17.2190   21.4450 C   0  0  0  0  0  2  0  0  0  0  0  0
  -30.9130  -16.7220   20.8370 C   0  0  0  0  0  2  0  0  0  0  0  0
  -30.8760  -14.4150   19.9650 C   0  0  0  0  0  0  0  0  0  0  0  0
  -30.3020  -12.3700   18.6930 C   0  0  0  0  0  2  0  0  0  0  0  0
  -29.2970  -12.6330   17.5540 C   0  0  0  0  0  2  0  0  0  0  0  0
  -27.8590  -12.4850   18.0700 C   0  0  0  0  0  2  0  0  0  0  0  0
  -27.6140  -13.3250   19.3480 C   0  0  0  0  0  3  0  0  0  0  0  0
  -28.7260  -13.0960   20.3930 C   0  0  0  0  0  2  0  0  0  0  0  0
  -30.0560  -13.3320   19.7880 N   0  0  0  0  0  0  0  0  0  0  0  0
  -31.7800  -14.6730   19.1640 O   0  0  0  0  0  0  0  0  0  0  0  0
  -30.3520  -14.8790   22.3710 C   0  0  0  0  0  1  0  0  0  0  0  0
  -30.6380  -15.2780   20.9880 N   0  0  0  0  0  0  0  0  0  0  0  0
  -25.2700  -13.9540   20.2110 C   0  0  0  0  0  0  0  0  0  0  0  0
  -24.2270  -13.1920   20.6610 C   0  0  0  0  0  0  0  0  0  0  0  0
  -24.6810  -11.8370   20.6220 C   0  0  0  0  0  0  0  0  0  0  0  0
  -26.2930  -13.0650   19.9180 N   0  0  0  0  0  0  0  0  0  0  0  0
  -25.9460  -11.7880   20.2250 N   0  0  0  0  0  0  0  0  0  0  0  0
  -23.9640  -10.5820   20.8790 C   0  0  0  0  0  0  0  0  0  0  0  0
  -24.4310   -9.6430   21.8250 C   0  0  0  0  0  3  0  0  0  0  0  0
  -23.7140   -8.4500   22.0660 C   0  0  0  0  0  3  0  0  0  0  0  0
  -22.5140   -8.1900   21.3620 C   0  0  0  0  0  0  0  0  0  0  0  0
  -22.0650   -9.1170   20.4050 C   0  0  0  0  0  3  0  0  0  0  0  0
  -22.7830  -10.3000   20.1630 C   0  0  0  0  0  3  0  0  0  0  0  0
  -21.7650   -7.0470   21.5120 O   0  0  0  0  0  0  0  0  0  0  0  0
  -21.7440   -6.3500   22.6930 C   0  0  0  0  0  0  0  0  0  0  0  0
  -21.3640   -6.9570   23.9110 C   0  0  0  0  0  3  0  0  0  0  0  0
  -21.2880   -6.1870   25.0880 C   0  0  0  0  0  3  0  0  0  0  0  0
  -21.5840   -4.8110   25.0510 C   0  0  0  0  0  0  0  0  0  0  0  0
  -21.9590   -4.2040   23.8390 C   0  0  0  0  0  3  0  0  0  0  0  0
  -22.0360   -4.9710   22.6640 C   0  0  0  0  0  0  0  0  0  0  0  0
  -22.3760   -4.3770   21.4950 F   0  0  0  0  0  0  0  0  0  0  0  0
  -21.5040   -4.0700   26.1800 F   0  0  0  0  0  0  0  0  0  0  0  0
  -22.8520  -13.6790   21.0150 C   0  0  0  0  0  0  0  0  0  0  0  0
  -22.1860  -13.0090   21.9500 N   0  0  0  0  0  0  0  0  0  0  0  0
  -22.3760  -14.6880   20.4960 O   0  0  0  0  0  0  0  0  0  0  0  0
  -22.5840  -12.1900   22.3890 H   0  0  0  0  0  0  0  0  0  0  0  0
  -21.2650  -13.3160   22.2310 H   0  0  0  0  0  0  0  0  0  0  0  0
  -25.4310  -15.3210   20.0040 N   0  0  0  0  0  0  0  0  0  0  0  0
  -24.6810  -15.9880   20.1540 H   0  0  0  0  0  0  0  0  0  0  0  0
  -26.2750  -15.7500   19.6440 H   0  0  0  0  0  0  0  0  0  0  0  0
  1  3  2  0
  3 51  1  0
  3  2  1  0
  4  6  1  0
  5  1  1  0
  5  4  2  0
  6  2  2  0
  7  4  1  0
  7  8  1  0
  9  8  1  0
 10  9  1  0
 11 22  2  0
 12 10  1  0
 12 17  1  0
 13 21  1  0
 13 23  1  0
 14 20  1  0
 14 16  1  0
 15 21  1  0
 16 17  2  0
 16 15  1  0
 18 12  2  0
 19 18  1  0
 19 14  2  0
 20 13  1  0
 21 11  1  0
 23 25  2  0
 24 23  1  0
 26 24  1  0
 27 36  2  0
 27 32  1  0
 28 24  1  0
 28 32  1  0
 29 28  1  0
 30 31  1  0
 30 29  1  0
 31 27  1  0
 32 33  2  0
 33 34  1  0
 35 34  2  0
 36 35  1  0
 37 11  1  0
 37 38  1  0
 37 47  1  0
 38 41  1  0
 39 43  1  0
 39 38  1  0
 40 39  2  0
 43 42  1  0
 45 43  1  0
 45 46  1  0
 45 44  1  0
 47 50  1  1
 47 48  1  0
 49 47  1  0
 52 53  1  0
 52 51  1  0
 54 64  1  0
 54 53  1  0
 55 64  1  0
 56 61  1  0
 57 58  1  0
 57 56  1  0
 59 58  1  0
 59 68  1  0
 59 60  1  0
 61 55  1  0
 61 60  1  0
 62 55  2  0
 64 63  1  0
 65 66  2  0
 66 85  1  0
 67 66  1  0
 67 70  1  0
 68 65  1  0
 68 69  1  0
 69 67  2  0
 70 71  1  0
 71 72  2  0
 73 76  1  0
 73 72  1  0
 74 73  2  0
 75 74  1  0
 75 70  2  0
 76 77  1  0
 77 78  1  0
 78 79  2  0
 80 79  1  0
 80 84  1  0
 81 80  2  0
 82 77  2  0
 82 81  1  0
 83 82  1  0
 85 86  1  0
 86 89  1  0
 86 88  1  0
 87 85  2  0
 90 91  1  0
 90 65  1  0
 92 90  1  0
M  ISO  4   9 101  10 101  55 100  64 100
M  END
>  <TORSDO>  (51) 
F 23

>  <SCORE>  (51) 
-10.604

>  <name>  (51) 
53

>  <ligand_id>  (51) 
53

>  <original_smiles>  (51) 
[H]c1nc(C([H])([H])C([H])([H])C([H])([H])Oc2c([H])c([H])c3c(c2[H])C([H])([H])N(C(=O)C([H])(N([H])C(=O)C([H])(N([H])C([H])([H])[H])C([H])([H])[H])C(C([H])([H])[H])(C([H])([H])[H])C([H])([H])[H])C([H])(C(=O)N([H])C2([H])c4c([H])c([H])c([H])c([H])c4C([H])([H])C([H])([H])C2([H])[H])C3([H])[H])nc([H])c1OC([H])([H])C([H])([H])C([H])([H])N(C(=O)N1C([H])([H])C([H])([H])C([H])([H])C([H])(n2nc(-c3c([H])c([H])c(Oc4c([H])c([H])c(F)c([H])c4F)c([H])c3[H])c(C(=O)N([H])[H])c2N([H])[H])C1([H])[H])C([H])([H])[H]

>  <smiles>  (51) 
[H]c1nc(C([H])([H])C([H])([H])C([H])([H])Oc2c([H])c([H])c3c(c2[H])C([H])([H])N(C(=O)C([H])(N([H])C(=O)C([H])(N([H])C([H])([H])[H])C([H])([H])[H])C(C([H])([H])[H])(C([H])([H])[H])C([H])([H])[H])C([H])(C(=O)N([H])C2([H])c4c([H])c([H])c([H])c([H])c4C([H])([H])C([H])([H])C2([H])[H])C3([H])[H])nc([H])c1OC([H])([H])C([H])([H])C([H])([H])N(C(=O)N1C([H])([H])C([H])([H])C([H])([H])C([H])(n2nc(-c3c([H])c([H])c(Oc4c([H])c([H])c(F)c([H])c4F)c([H])c3[H])c(C(=O)N([H])[H])c2N([H])[H])C1([H])[H])C([H])([H])[H]

$$$$
54:0:0
     RDKit          3D

 93101  0  0  1  0  0  0  0  0999 V2000
  -30.8010  -21.1960   21.2790 C   0  0  0  0  0  3  0  0  0  0  0  0
  -31.5140  -20.0430   21.6580 C   0  0  0  0  0  0  0  0  0  0  0  0
  -29.6910  -21.0410   20.4400 C   0  0  0  0  0  0  0  0  0  0  0  0
  -30.1060  -18.6700   20.4630 C   0  0  0  0  0  0  0  0  0  0  0  0
  -31.1770  -18.8070   21.2350 N   0  0  0  0  0  0  0  0  0  0  0  0
  -29.3730  -19.7530   20.0470 N   0  0  0  0  0  0  0  0  0  0  0  0
  -29.8080  -17.0770   18.5020 C   0  0  0  0  0  1  0  0  0  0  0  0
  -28.1690  -17.0810   20.3850 C   0  0  0  0  0  1  0  0  0  0  0  0
  -29.6670  -17.1850   20.0400 C   0  0  2  0  0  0  0  0  0  0  0  0
  -30.8580  -14.8010   20.1150 C   0  0  0  0  0  0  0  0  0  0  0  0
  -30.5240  -12.5480   19.0560 C   0  0  0  0  0  2  0  0  0  0  0  0
  -29.5450  -12.6410   17.8660 C   0  0  0  0  0  2  0  0  0  0  0  0
  -28.0900  -12.4820   18.3460 C   0  0  0  0  0  2  0  0  0  0  0  0
  -27.7720  -13.3710   19.5770 C   0  0  0  0  0  3  0  0  0  0  0  0
  -28.8740  -13.2710   20.6610 C   0  0  0  0  0  2  0  0  0  0  0  0
  -30.1640  -13.6060   20.0350 N   0  0  0  0  0  0  0  0  0  0  0  0
  -31.9680  -14.8920   19.5860 O   0  0  0  0  0  0  0  0  0  0  0  0
  -30.5590  -16.0420   22.1420 C   0  0  0  0  0  1  0  0  0  0  0  0
  -30.2690  -15.9170   20.7060 N   0  0  0  0  0  0  0  0  0  0  0  0
  -25.4090  -13.9800   20.3950 C   0  0  0  0  0  0  0  0  0  0  0  0
  -24.3570  -13.2160   20.8120 C   0  0  0  0  0  0  0  0  0  0  0  0
  -24.8020  -11.8630   20.7440 C   0  0  0  0  0  0  0  0  0  0  0  0
  -26.4420  -13.0970   20.1180 N   0  0  0  0  0  0  0  0  0  0  0  0
  -26.0810  -11.8140   20.3860 N   0  0  0  0  0  0  0  0  0  0  0  0
  -24.0620  -10.6130   20.9420 C   0  0  0  0  0  0  0  0  0  0  0  0
  -24.4850   -9.6430   21.8790 C   0  0  0  0  0  3  0  0  0  0  0  0
  -23.7400   -8.4590   22.0650 C   0  0  0  0  0  3  0  0  0  0  0  0
  -22.5610   -8.2370   21.3140 C   0  0  0  0  0  0  0  0  0  0  0  0
  -22.1580   -9.1940   20.3670 C   0  0  0  0  0  3  0  0  0  0  0  0
  -22.9030  -10.3700   20.1780 C   0  0  0  0  0  3  0  0  0  0  0  0
  -21.7890   -7.1040   21.4110 O   0  0  0  0  0  0  0  0  0  0  0  0
  -21.6960   -6.3960   22.5820 C   0  0  0  0  0  0  0  0  0  0  0  0
  -21.2320   -6.9900   23.7760 C   0  0  0  0  0  3  0  0  0  0  0  0
  -21.0810   -6.2080   24.9390 C   0  0  0  0  0  3  0  0  0  0  0  0
  -21.3860   -4.8330   24.9080 C   0  0  0  0  0  0  0  0  0  0  0  0
  -21.8440   -4.2390   23.7180 C   0  0  0  0  0  3  0  0  0  0  0  0
  -21.9940   -5.0190   22.5590 C   0  0  0  0  0  0  0  0  0  0  0  0
  -22.4140   -4.4360   21.4090 F   0  0  0  0  0  0  0  0  0  0  0  0
  -21.2380   -4.0800   26.0230 F   0  0  0  0  0  0  0  0  0  0  0  0
  -22.9810  -13.7150   21.1480 C   0  0  0  0  0  0  0  0  0  0  0  0
  -22.2830  -13.0260   22.0450 N   0  0  0  0  0  0  0  0  0  0  0  0
  -22.5370  -14.7510   20.6560 O   0  0  0  0  0  0  0  0  0  0  0  0
  -22.6570  -12.1890   22.4680 H   0  0  0  0  0  0  0  0  0  0  0  0
  -21.3620  -13.3410   22.3140 H   0  0  0  0  0  0  0  0  0  0  0  0
  -25.5370  -15.3470   20.2040 N   0  0  0  0  0  0  0  0  0  0  0  0
  -24.7550  -15.9740   20.3550 H   0  0  0  0  0  0  0  0  0  0  0  0
  -26.3470  -15.8120   19.8150 H   0  0  0  0  0  0  0  0  0  0  0  0
  -34.0490  -19.9990   21.9030 C   0  0  0  0  0  1  0  0  0  0  0  0
  -32.6940  -20.1300   22.6100 C   0  0  0  0  0  2  0  0  0  0  0  0
  -28.8120  -22.2850   19.9710 C   0  0  0  0  0  2  0  0  0  0  0  0
  -29.1390  -23.8150   20.3980 C   0  0  0  0  0  3  0  0  0  0  0  0
  -28.1020  -24.9770   19.9540 C   0  0  0  0  0  3  0  0  0  0  0  0
  -28.3100  -26.4410   20.2190 O   0  0  0  0  0  0  0  0  0  0  0  0
  -24.5870  -31.9160   23.2070 C   0  0  0  0  0  0  0  0  0  0  0  0
  -27.2010  -27.3210   20.1550 C   0  0  0  0  0  0  0  0  0  0  0  0
  -23.3810  -30.5060   21.5790 C   0  0  0  0  0  3  0  0  0  0  0  0
  -24.8320  -28.9540   20.1490 C   0  0  0  0  0  0  0  0  0  0  0  0
  -25.9230  -30.8230   21.3860 C   0  0  0  0  0  2  0  0  0  0  0  0
  -26.0040  -29.4400   20.7400 C   0  0  0  0  0  0  0  0  0  0  0  0
  -27.1910  -28.6370   20.7320 C   0  0  0  0  0  3  0  0  0  0  0  0
  -26.0010  -26.9050   19.5310 C   0  0  0  0  0  3  0  0  0  0  0  0
  -24.8340  -27.6930   19.5350 C   0  0  0  0  0  3  0  0  0  0  0  0
  -23.5910  -29.8250   20.2020 C   0  0  0  0  0  2  0  0  0  0  0  0
  -24.6490  -31.0990   22.1130 N   0  0  0  0  0  0  0  0  0  0  0  0
  -23.5050  -32.1920   23.7440 O   0  0  0  0  0  0  0  0  0  0  0  0
  -22.7250  -29.4920   22.5470 C   0  0  0  0  0  0  0  0  0  0  0  0
  -21.3980  -29.3100   22.4270 N   0  0  0  0  0  0  0  0  0  0  0  0
  -23.4090  -28.8730   23.3660 O   0  0  0  0  0  0  0  0  0  0  0  0
  -20.9070  -29.8580   21.7350 H   0  0  0  0  0  0  0  0  0  0  0  0
  -18.0260  -28.1070   22.9520 C   0  0  0  0  0  0  0  0  0  0  0  0
  -20.5850  -28.3730   23.2060 C   0  0  0  0  0  3  0  0  0  0  0  0
  -20.6890  -26.9400   22.6330 C   0  0  0  0  0  2  0  0  0  0  0  0
  -19.5810  -26.6110   21.6270 C   0  0  0  0  0  2  0  0  0  0  0  0
  -18.2020  -26.7560   22.2790 C   0  0  0  0  0  2  0  0  0  0  0  0
  -19.1450  -28.8730   23.3720 C   0  0  0  0  0  0  0  0  0  0  0  0
  -18.9260  -30.1370   23.9610 C   0  0  0  0  0  3  0  0  0  0  0  0
  -17.6210  -30.6350   24.1350 C   0  0  0  0  0  3  0  0  0  0  0  0
  -16.5160  -29.8650   23.7310 C   0  0  0  0  0  3  0  0  0  0  0  0
  -16.7190  -28.6030   23.1440 C   0  0  0  0  0  3  0  0  0  0  0  0
  -25.8700  -32.5560   23.8200 C   0  0  0  0  0  3  0  0  0  0  0  0
  -25.5530  -33.9510   24.1580 N   0  0  0  0  0  0  0  0  0  0  0  0
  -25.8760  -35.0110   23.4040 C   0  0  0  0  0  0  0  0  0  0  0  0
  -26.5420  -34.9170   22.3700 O   0  0  0  0  0  0  0  0  0  0  0  0
  -24.9590  -34.0970   24.9610 H   0  0  0  0  0  0  0  0  0  0  0  0
  -24.1430  -36.8020   23.0620 C   0  0  0  0  0  1  0  0  0  0  0  0
  -25.3840  -36.3940   23.8730 C   0  0  0  0  0  3  0  0  0  0  0  0
  -27.5140  -37.2790   24.7150 C   0  0  0  0  0  1  0  0  0  0  0  0
  -26.4140  -37.4510   23.7700 N   0  0  0  0  0  0  0  0  0  0  0  0
  -26.0040  -38.3690   23.9230 H   0  0  0  0  0  0  0  0  0  0  0  0
  -26.4010  -31.7850   25.0920 C   0  0  1  0  0  0  0  0  0  0  0  0
  -25.3150  -31.5390   26.1650 C   0  0  0  0  0  1  0  0  0  0  0  0
  -26.9930  -30.4130   24.6960 C   0  0  0  0  0  1  0  0  0  0  0  0
  -27.5490  -32.5880   25.7460 C   0  0  0  0  0  1  0  0  0  0  0  0
  1  2  2  0
  2 49  1  0
  3  1  1  0
  4  5  2  0
  5  2  1  0
  6  3  2  0
  6  4  1  0
  9  7  1  6
  9  8  1  0
  9  4  1  0
  9 19  1  0
 10 19  1  0
 11 16  1  0
 12 13  1  0
 12 11  1  0
 14 13  1  0
 14 23  1  0
 14 15  1  0
 16 10  1  0
 16 15  1  0
 17 10  2  0
 19 18  1  0
 20 21  2  0
 21 40  1  0
 22 21  1  0
 22 25  1  0
 23 24  1  0
 23 20  1  0
 24 22  2  0
 25 26  1  0
 26 27  2  0
 28 31  1  0
 28 27  1  0
 29 28  2  0
 30 29  1  0
 30 25  2  0
 31 32  1  0
 32 33  1  0
 33 34  2  0
 35 34  1  0
 35 39  1  0
 36 35  2  0
 37 32  2  0
 37 36  1  0
 38 37  1  0
 40 41  1  0
 41 44  1  0
 41 43  1  0
 42 40  2  0
 45 46  1  0
 45 20  1  0
 47 45  1  0
 48 49  1  0
 50 51  1  0
 50  3  1  0
 52 53  1  0
 52 51  2  0
 54 65  2  0
 55 53  1  0
 55 60  1  0
 56 64  1  0
 56 66  1  0
 57 63  1  0
 57 59  1  0
 58 64  1  0
 59 58  1  0
 60 59  2  0
 61 62  1  0
 61 55  2  0
 62 57  2  0
 63 56  1  0
 64 54  1  0
 66 68  2  0
 67 66  1  0
 69 67  1  0
 70 79  2  0
 70 75  1  0
 71 67  1  0
 71 75  1  0
 72 71  1  0
 73 74  1  0
 73 72  1  0
 74 70  1  0
 75 76  2  0
 76 77  1  0
 78 77  2  0
 79 78  1  0
 80 54  1  0
 80 81  1  0
 80 90  1  0
 81 84  1  0
 82 86  1  0
 82 81  1  0
 83 82  2  0
 86 85  1  0
 88 86  1  0
 88 89  1  0
 88 87  1  0
 90 93  1  1
 90 91  1  0
 92 90  1  0
M  ISO  4  10 100  19 100  52 101  53 101
M  END
>  <TORSDO>  (52) 
F 21

>  <SCORE>  (52) 
-13.711

>  <name>  (52) 
54

>  <ligand_id>  (52) 
54

>  <original_smiles>  (52) 
[H]c1c(C([H])([H])C([H])([H])[H])nc(C(N(C(=O)N2C([H])([H])C([H])([H])C([H])([H])C([H])(n3nc(-c4c([H])c([H])c(Oc5c([H])c([H])c(F)c([H])c5F)c([H])c4[H])c(C(=O)N([H])[H])c3N([H])[H])C2([H])[H])C([H])([H])[H])(C([H])([H])[H])C([H])([H])[H])nc1C([H])([H])C([H])([H])C([H])([H])Oc1c([H])c([H])c2c(c1[H])C([H])([H])N(C(=O)C([H])(N([H])C(=O)C([H])(N([H])C([H])([H])[H])C([H])([H])[H])C(C([H])([H])[H])(C([H])([H])[H])C([H])([H])[H])C([H])(C(=O)N([H])C1([H])c3c([H])c([H])c([H])c([H])c3C([H])([H])C([H])([H])C1([H])[H])C2([H])[H]

>  <smiles>  (52) 
[H]c1c(C([H])([H])C([H])([H])[H])nc(C(N(C(=O)N2C([H])([H])C([H])([H])C([H])([H])C([H])(n3nc(-c4c([H])c([H])c(Oc5c([H])c([H])c(F)c([H])c5F)c([H])c4[H])c(C(=O)N([H])[H])c3N([H])[H])C2([H])[H])C([H])([H])[H])(C([H])([H])[H])C([H])([H])[H])nc1C([H])([H])C([H])([H])C([H])([H])Oc1c([H])c([H])c2c(c1[H])C([H])([H])N(C(=O)C([H])(N([H])C(=O)C([H])(N([H])C([H])([H])[H])C([H])([H])[H])C(C([H])([H])[H])(C([H])([H])[H])C([H])([H])[H])C([H])(C(=O)N([H])C1([H])c3c([H])c([H])c([H])c([H])c3C([H])([H])C([H])([H])C1([H])[H])C2([H])[H]

$$$$
57:0:0
     RDKit          3D

 96104  0  0  1  0  0  0  0  0999 V2000
  -29.8910  -22.6620   21.3330 C   0  0  0  0  0  2  0  0  0  0  0  0
  -29.7160  -21.1150   21.3250 C   0  0  0  0  0  2  0  0  0  0  0  0
  -30.0110  -20.7230   23.8400 C   0  0  0  0  0  1  0  0  0  0  0  0
  -30.5370  -20.3640   22.4290 C   0  0  0  0  0  3  0  0  0  0  0  0
  -30.9310  -16.6950   22.5630 C   0  0  0  0  0  3  0  0  0  0  0  0
  -30.8710  -17.9080   23.2050 C   0  0  0  0  0  3  0  0  0  0  0  0
  -30.7550  -17.0120   21.1840 C   0  0  0  0  0  0  0  0  0  0  0  0
  -30.5470  -18.3260   21.0390 N   0  0  0  0  0  0  0  0  0  0  0  0
  -30.6050  -18.8920   22.2630 N   0  0  0  0  0  0  0  0  0  0  0  0
  -31.5950  -16.7610   18.8450 C   0  0  0  0  0  1  0  0  0  0  0  0
  -29.2310  -16.2930   19.3760 C   0  0  0  0  0  1  0  0  0  0  0  0
  -30.6570  -16.1310   19.9310 C   0  0  2  0  0  0  0  0  0  0  0  0
  -31.1360  -14.6150   20.0880 C   0  0  0  0  0  0  0  0  0  0  0  0
  -30.6510  -12.4340   19.0580 C   0  0  0  0  0  2  0  0  0  0  0  0
  -29.6930  -12.6020   17.8620 C   0  0  0  0  0  2  0  0  0  0  0  0
  -28.2390  -12.4480   18.3420 C   0  0  0  0  0  2  0  0  0  0  0  0
  -27.9200  -13.3460   19.5620 C   0  0  0  0  0  3  0  0  0  0  0  0
  -29.0230  -13.2970   20.6510 C   0  0  0  0  0  2  0  0  0  0  0  0
  -30.3320  -13.5090   20.0220 N   0  0  0  0  0  0  0  0  0  0  0  0
  -32.3490  -14.4560   19.9490 O   0  0  0  0  0  0  0  0  0  0  0  0
  -25.5850  -14.0320   20.3600 C   0  0  0  0  0  0  0  0  0  0  0  0
  -24.5020  -13.2930   20.7450 C   0  0  0  0  0  0  0  0  0  0  0  0
  -24.9220  -11.9270   20.7030 C   0  0  0  0  0  0  0  0  0  0  0  0
  -26.5930  -13.1150   20.1020 N   0  0  0  0  0  0  0  0  0  0  0  0
  -26.2050  -11.8490   20.3780 N   0  0  0  0  0  0  0  0  0  0  0  0
  -24.1660  -10.6870   20.8920 C   0  0  0  0  0  0  0  0  0  0  0  0
  -24.5800   -9.7070   21.8220 C   0  0  0  0  0  3  0  0  0  0  0  0
  -23.8260   -8.5270   21.9970 C   0  0  0  0  0  3  0  0  0  0  0  0
  -22.6450   -8.3200   21.2460 C   0  0  0  0  0  0  0  0  0  0  0  0
  -22.2510   -9.2890   20.3070 C   0  0  0  0  0  3  0  0  0  0  0  0
  -23.0030  -10.4610   20.1280 C   0  0  0  0  0  3  0  0  0  0  0  0
  -21.8620   -7.1940   21.3340 O   0  0  0  0  0  0  0  0  0  0  0  0
  -21.7830   -6.4660   22.4950 C   0  0  0  0  0  0  0  0  0  0  0  0
  -21.3860   -7.0510   23.7160 C   0  0  0  0  0  3  0  0  0  0  0  0
  -21.2580   -6.2530   24.8710 C   0  0  0  0  0  3  0  0  0  0  0  0
  -21.5080   -4.8690   24.8020 C   0  0  0  0  0  0  0  0  0  0  0  0
  -21.8960   -4.2830   23.5840 C   0  0  0  0  0  3  0  0  0  0  0  0
  -22.0310   -5.0790   22.4340 C   0  0  0  0  0  0  0  0  0  0  0  0
  -22.3860   -4.5070   21.2580 F   0  0  0  0  0  0  0  0  0  0  0  0
  -21.3740   -4.1010   25.9070 F   0  0  0  0  0  0  0  0  0  0  0  0
  -23.1240  -13.8100   21.0370 C   0  0  0  0  0  0  0  0  0  0  0  0
  -22.3970  -13.1440   21.9250 N   0  0  0  0  0  0  0  0  0  0  0  0
  -22.7020  -14.8410   20.5130 O   0  0  0  0  0  0  0  0  0  0  0  0
  -22.7510  -12.3070   22.3670 H   0  0  0  0  0  0  0  0  0  0  0  0
  -21.4730  -13.4730   22.1700 H   0  0  0  0  0  0  0  0  0  0  0  0
  -25.7860  -15.3990   20.1800 N   0  0  0  0  0  0  0  0  0  0  0  0
  -25.0380  -16.0730   20.3000 H   0  0  0  0  0  0  0  0  0  0  0  0
  -26.6380  -15.8100   19.8240 H   0  0  0  0  0  0  0  0  0  0  0  0
  -29.0530  -23.4630   20.2840 C   0  0  0  0  0  2  0  0  0  0  0  0
  -30.4590  -25.5280   20.7760 C   0  0  0  0  0  1  0  0  0  0  0  0
  -30.7910  -24.2380   18.6450 C   0  0  0  0  0  1  0  0  0  0  0  0
  -29.7270  -24.7430   19.6550 C   0  0  1  0  0  0  0  0  0  0  0  0
  -27.7010  -24.9040   18.0520 C   0  0  0  0  0  1  0  0  0  0  0  0
  -29.3510  -26.7600   18.0140 C   0  0  0  0  0  1  0  0  0  0  0  0
  -28.6790  -25.7140   18.9380 C   0  0  2  0  0  0  0  0  0  0  0  0
  -28.0910  -26.5100   19.9980 O   0  0  0  0  0  0  0  0  0  0  0  0
  -24.5720  -31.8270   23.1230 C   0  0  0  0  0  0  0  0  0  0  0  0
  -26.9750  -27.3230   19.9010 C   0  0  0  0  0  0  0  0  0  0  0  0
  -23.2740  -30.4860   21.5030 C   0  0  0  0  0  3  0  0  0  0  0  0
  -24.6330  -28.9250   20.0110 C   0  0  0  0  0  0  0  0  0  0  0  0
  -25.8080  -30.7610   21.2340 C   0  0  0  0  0  2  0  0  0  0  0  0
  -25.8290  -29.3980   20.5670 C   0  0  0  0  0  0  0  0  0  0  0  0
  -27.0000  -28.6050   20.5070 C   0  0  0  0  0  3  0  0  0  0  0  0
  -25.7440  -26.8600   19.3840 C   0  0  0  0  0  3  0  0  0  0  0  0
  -24.5880  -27.6570   19.4140 C   0  0  0  0  0  3  0  0  0  0  0  0
  -23.4200  -29.8220   20.1090 C   0  0  0  0  0  2  0  0  0  0  0  0
  -24.5730  -31.0360   22.0130 N   0  0  0  0  0  0  0  0  0  0  0  0
  -23.5140  -32.1300   23.6930 O   0  0  0  0  0  0  0  0  0  0  0  0
  -22.6140  -29.4730   22.4660 C   0  0  0  0  0  0  0  0  0  0  0  0
  -21.2850  -29.3230   22.3520 N   0  0  0  0  0  0  0  0  0  0  0  0
  -23.2930  -28.8290   23.2690 O   0  0  0  0  0  0  0  0  0  0  0  0
  -20.8020  -29.9010   21.6770 H   0  0  0  0  0  0  0  0  0  0  0  0
  -17.8910  -28.1740   22.8430 C   0  0  0  0  0  0  0  0  0  0  0  0
  -20.4520  -28.4000   23.1240 C   0  0  0  0  0  3  0  0  0  0  0  0
  -20.5350  -26.9620   22.5580 C   0  0  0  0  0  2  0  0  0  0  0  0
  -19.4340  -26.6480   21.5400 C   0  0  0  0  0  2  0  0  0  0  0  0
  -18.0510  -26.8160   22.1780 C   0  0  0  0  0  2  0  0  0  0  0  0
  -19.0190  -28.9240   23.2690 C   0  0  0  0  0  0  0  0  0  0  0  0
  -18.8140  -30.1980   23.8440 C   0  0  0  0  0  3  0  0  0  0  0  0
  -17.5150  -30.7170   24.0020 C   0  0  0  0  0  3  0  0  0  0  0  0
  -16.4020  -29.9630   23.5920 C   0  0  0  0  0  3  0  0  0  0  0  0
  -16.5920  -28.6930   23.0160 C   0  0  0  0  0  3  0  0  0  0  0  0
  -25.8940  -32.4050   23.7150 C   0  0  0  0  0  3  0  0  0  0  0  0
  -25.6290  -33.7950   24.1100 N   0  0  0  0  0  0  0  0  0  0  0  0
  -25.9630  -34.8670   23.3820 C   0  0  0  0  0  0  0  0  0  0  0  0
  -26.5960  -34.7890   22.3250 O   0  0  0  0  0  0  0  0  0  0  0  0
  -25.0630  -33.9310   24.9340 H   0  0  0  0  0  0  0  0  0  0  0  0
  -24.2630  -36.7090   23.1530 C   0  0  0  0  0  1  0  0  0  0  0  0
  -25.5210  -36.2460   23.9050 C   0  0  0  0  0  3  0  0  0  0  0  0
  -27.7040  -37.0480   24.6950 C   0  0  0  0  0  1  0  0  0  0  0  0
  -26.5720  -37.2820   23.8030 N   0  0  0  0  0  0  0  0  0  0  0  0
  -26.1890  -38.2000   24.0130 H   0  0  0  0  0  0  0  0  0  0  0  0
  -26.4440  -31.5710   24.9360 C   0  0  1  0  0  0  0  0  0  0  0  0
  -25.3890  -31.3040   26.0350 C   0  0  0  0  0  1  0  0  0  0  0  0
  -26.9820  -30.2020   24.4560 C   0  0  0  0  0  1  0  0  0  0  0  0
  -27.6350  -32.3150   25.5840 C   0  0  0  0  0  1  0  0  0  0  0  0
  2  1  1  0
  2  4  1  0
  4  3  1  0
  5  6  2  0
  7  5  1  0
  8  7  2  0
  8  9  1  0
  9  4  1  0
  9  6  1  0
 12 10  1  6
 11 12  1  0
 12 13  1  0
 12  7  1  0
 14 19  1  0
 15 16  1  0
 15 14  1  0
 17 16  1  0
 17 24  1  0
 17 18  1  0
 19 13  1  0
 19 18  1  0
 20 13  2  0
 21 22  2  0
 22 41  1  0
 23 22  1  0
 23 26  1  0
 24 21  1  0
 24 25  1  0
 25 23  2  0
 26 27  1  0
 27 28  2  0
 29 32  1  0
 29 28  1  0
 30 29  2  0
 31 30  1  0
 31 26  2  0
 32 33  1  0
 33 34  1  0
 34 35  2  0
 36 35  1  0
 36 40  1  0
 37 36  2  0
 38 33  2  0
 38 37  1  0
 39 38  1  0
 41 42  1  0
 42 45  1  0
 42 44  1  0
 43 41  2  0
 46 47  1  0
 46 21  1  0
 48 46  1  0
 49  1  1  0
 52 51  1  6
 52 49  1  0
 52 50  1  0
 55 53  1  6
 54 55  1  0
 55 52  1  0
 55 56  1  0
 57 68  2  0
 58 56  1  0
 58 63  1  0
 59 67  1  0
 59 69  1  0
 60 66  1  0
 60 62  1  0
 61 67  1  0
 62 61  1  0
 63 62  2  0
 64 65  1  0
 64 58  2  0
 65 60  2  0
 66 59  1  0
 67 57  1  0
 69 71  2  0
 70 69  1  0
 72 70  1  0
 73 82  2  0
 73 78  1  0
 74 70  1  0
 74 78  1  0
 75 74  1  0
 76 77  1  0
 76 75  1  0
 77 73  1  0
 78 79  2  0
 79 80  1  0
 81 80  2  0
 82 81  1  0
 83 57  1  0
 83 84  1  0
 83 93  1  0
 84 87  1  0
 85 89  1  0
 85 84  1  0
 86 85  2  0
 89 88  1  0
 91 89  1  0
 91 92  1  0
 91 90  1  0
 93 96  1  1
 93 94  1  0
 95 93  1  0
M  ISO  4  12 100  13 100  55 101  56 101
M  END
>  <TORSDO>  (53) 
F 23

>  <SCORE>  (53) 
-11.942

>  <name>  (53) 
57

>  <ligand_id>  (53) 
57

>  <original_smiles>  (53) 
[H]c1c([H])c([H])c2c(c1[H])C([H])([H])C([H])([H])C([H])([H])C2([H])N([H])C(=O)C1([H])N(C(=O)C([H])(N([H])C(=O)C([H])(N([H])C([H])([H])[H])C([H])([H])[H])C(C([H])([H])[H])(C([H])([H])[H])C([H])([H])[H])C([H])([H])c2c([H])c(OC(C([H])([H])[H])(C([H])([H])[H])C(C([H])([H])[H])(C([H])([H])[H])C([H])([H])C([H])([H])C([H])([H])C([H])(n3nc(C(C(=O)N4C([H])([H])C([H])([H])C([H])([H])C([H])(n5nc(-c6c([H])c([H])c(Oc7c([H])c([H])c(F)c([H])c7F)c([H])c6[H])c(C(=O)N([H])[H])c5N([H])[H])C4([H])[H])(C([H])([H])[H])C([H])([H])[H])c([H])c3[H])C([H])([H])[H])c([H])c([H])c2C1([H])[H]

>  <smiles>  (53) 
[H]c1c([H])c([H])c2c(c1[H])C([H])([H])C([H])([H])C([H])([H])C2([H])N([H])C(=O)C1([H])N(C(=O)C([H])(N([H])C(=O)C([H])(N([H])C([H])([H])[H])C([H])([H])[H])C(C([H])([H])[H])(C([H])([H])[H])C([H])([H])[H])C([H])([H])c2c([H])c(OC(C([H])([H])[H])(C([H])([H])[H])C(C([H])([H])[H])(C([H])([H])[H])C([H])([H])C([H])([H])C([H])([H])C([H])(n3nc(C(C(=O)N4C([H])([H])C([H])([H])C([H])([H])C([H])(n5nc(-c6c([H])c([H])c(Oc7c([H])c([H])c(F)c([H])c7F)c([H])c6[H])c(C(=O)N([H])[H])c5N([H])[H])C4([H])[H])(C([H])([H])[H])C([H])([H])[H])c([H])c3[H])C([H])([H])[H])c([H])c([H])c2C1([H])[H]

$$$$
58:0:0
     RDKit          3D

 94102  0  0  1  0  0  0  0  0999 V2000
  -28.5290  -20.1690   20.9650 C   0  0  0  0  0  3  0  0  0  0  0  0
  -29.5390  -19.3930   20.3280 C   0  0  0  0  0  0  0  0  0  0  0  0
  -29.6430  -22.1420   20.4860 C   0  0  0  0  0  0  0  0  0  0  0  0
  -30.6860  -21.3740   19.8900 C   0  0  0  0  0  0  0  0  0  0  0  0
  -28.5810  -21.5200   21.0520 N   0  0  0  0  0  0  0  0  0  0  0  0
  -30.6360  -20.0150   19.8210 N   0  0  0  0  0  0  0  0  0  0  0  0
  -29.7220  -17.5110   18.6460 C   0  0  0  0  0  1  0  0  0  0  0  0
  -27.9600  -17.4040   20.3730 C   0  0  0  0  0  1  0  0  0  0  0  0
  -29.4140  -17.8530   20.1230 C   0  0  2  0  0  0  0  0  0  0  0  0
  -30.3600  -17.0170   21.0520 C   0  0  0  0  0  2  0  0  0  0  0  0
  -30.7590  -14.5610   20.4890 C   0  0  0  0  0  0  0  0  0  0  0  0
  -30.4590  -12.4120   19.3120 C   0  0  0  0  0  2  0  0  0  0  0  0
  -29.5260  -12.6370   18.1050 C   0  0  0  0  0  2  0  0  0  0  0  0
  -28.0500  -12.4810   18.5240 C   0  0  0  0  0  2  0  0  0  0  0  0
  -27.6990  -13.3010   19.7940 C   0  0  0  0  0  3  0  0  0  0  0  0
  -28.7530  -13.0780   20.9060 C   0  0  0  0  0  2  0  0  0  0  0  0
  -30.0840  -13.3850   20.3500 N   0  0  0  0  0  0  0  0  0  0  0  0
  -31.8770  -14.7560   20.0100 O   0  0  0  0  0  0  0  0  0  0  0  0
  -30.0570  -15.5620   21.0500 N   0  0  0  0  0  0  0  0  0  0  0  0
  -29.1470  -15.3020   21.3950 H   0  0  0  0  0  0  0  0  0  0  0  0
  -25.2860  -13.8940   20.4810 C   0  0  0  0  0  0  0  0  0  0  0  0
  -24.2230  -13.1190   20.8520 C   0  0  0  0  0  0  0  0  0  0  0  0
  -24.6950  -11.7720   20.8310 C   0  0  0  0  0  0  0  0  0  0  0  0
  -26.3430  -13.0220   20.2640 N   0  0  0  0  0  0  0  0  0  0  0  0
  -25.9890  -11.7390   20.5320 N   0  0  0  0  0  0  0  0  0  0  0  0
  -23.9750  -10.5080   21.0200 C   0  0  0  0  0  0  0  0  0  0  0  0
  -24.4060   -9.5480   21.9620 C   0  0  0  0  0  3  0  0  0  0  0  0
  -23.6850   -8.3470   22.1380 C   0  0  0  0  0  3  0  0  0  0  0  0
  -22.5200   -8.1000   21.3740 C   0  0  0  0  0  0  0  0  0  0  0  0
  -22.1090   -9.0500   20.4220 C   0  0  0  0  0  3  0  0  0  0  0  0
  -22.8300  -10.2420   20.2430 C   0  0  0  0  0  3  0  0  0  0  0  0
  -21.7720   -6.9500   21.4590 O   0  0  0  0  0  0  0  0  0  0  0  0
  -21.7170   -6.2120   22.6140 C   0  0  0  0  0  0  0  0  0  0  0  0
  -21.2640   -6.7650   23.8320 C   0  0  0  0  0  3  0  0  0  0  0  0
  -21.1570   -5.9510   24.9770 C   0  0  0  0  0  3  0  0  0  0  0  0
  -21.4930   -4.5860   24.9050 C   0  0  0  0  0  0  0  0  0  0  0  0
  -21.9400   -4.0320   23.6920 C   0  0  0  0  0  3  0  0  0  0  0  0
  -22.0480   -4.8430   22.5490 C   0  0  0  0  0  0  0  0  0  0  0  0
  -22.4580   -4.3010   21.3770 F   0  0  0  0  0  0  0  0  0  0  0  0
  -21.3840   -3.8030   26.0030 F   0  0  0  0  0  0  0  0  0  0  0  0
  -22.8230  -13.5930   21.1120 C   0  0  0  0  0  0  0  0  0  0  0  0
  -22.0880  -12.8970   21.9720 N   0  0  0  0  0  0  0  0  0  0  0  0
  -22.3870  -14.6180   20.5880 O   0  0  0  0  0  0  0  0  0  0  0  0
  -22.4510  -12.0700   22.4210 H   0  0  0  0  0  0  0  0  0  0  0  0
  -21.1480  -13.2010   22.1840 H   0  0  0  0  0  0  0  0  0  0  0  0
  -25.4220  -15.2630   20.2880 N   0  0  0  0  0  0  0  0  0  0  0  0
  -24.6360  -15.8970   20.3780 H   0  0  0  0  0  0  0  0  0  0  0  0
  -26.2550  -15.7130   19.9320 H   0  0  0  0  0  0  0  0  0  0  0  0
  -31.7810  -22.1870   17.7470 C   0  0  0  0  0  1  0  0  0  0  0  0
  -31.9170  -22.0150   19.2660 C   0  0  0  0  0  2  0  0  0  0  0  0
  -29.6940  -23.6800   20.5810 C   0  0  0  0  0  2  0  0  0  0  0  0
  -28.3900  -24.3910   21.0380 C   0  0  0  0  0  2  0  0  0  0  0  0
  -28.5470  -25.9040   21.3320 C   0  0  0  0  0  2  0  0  0  0  0  0
  -28.3830  -26.7340   20.1750 O   0  0  0  0  0  0  0  0  0  0  0  0
  -24.5570  -31.9200   23.2310 C   0  0  0  0  0  0  0  0  0  0  0  0
  -27.2250  -27.4770   20.1850 C   0  0  0  0  0  0  0  0  0  0  0  0
  -23.3540  -30.4920   21.6070 C   0  0  0  0  0  3  0  0  0  0  0  0
  -24.8150  -28.9470   20.1950 C   0  0  0  0  0  0  0  0  0  0  0  0
  -25.8750  -30.8700   21.3940 C   0  0  0  0  0  2  0  0  0  0  0  0
  -25.9690  -29.4920   20.7720 C   0  0  0  0  0  0  0  0  0  0  0  0
  -27.1790  -28.7640   20.7670 C   0  0  0  0  0  3  0  0  0  0  0  0
  -26.0590  -26.9410   19.6040 C   0  0  0  0  0  3  0  0  0  0  0  0
  -24.8520  -27.6690   19.6090 C   0  0  0  0  0  3  0  0  0  0  0  0
  -23.5640  -29.7960   20.2340 C   0  0  0  0  0  2  0  0  0  0  0  0
  -24.6130  -31.1110   22.1350 N   0  0  0  0  0  0  0  0  0  0  0  0
  -23.4760  -32.1900   23.7710 O   0  0  0  0  0  0  0  0  0  0  0  0
  -22.7150  -29.4780   22.5810 C   0  0  0  0  0  0  0  0  0  0  0  0
  -21.3920  -29.2830   22.4590 N   0  0  0  0  0  0  0  0  0  0  0  0
  -23.4050  -28.8680   23.4010 O   0  0  0  0  0  0  0  0  0  0  0  0
  -20.8950  -29.8310   21.7690 H   0  0  0  0  0  0  0  0  0  0  0  0
  -18.0260  -28.0820   22.9890 C   0  0  0  0  0  0  0  0  0  0  0  0
  -20.5840  -28.3480   23.2400 C   0  0  0  0  0  3  0  0  0  0  0  0
  -20.6860  -26.9130   22.6730 C   0  0  0  0  0  2  0  0  0  0  0  0
  -19.5780  -26.5810   21.6690 C   0  0  0  0  0  2  0  0  0  0  0  0
  -18.2000  -26.7280   22.3210 C   0  0  0  0  0  2  0  0  0  0  0  0
  -19.1450  -28.8480   23.4060 C   0  0  0  0  0  0  0  0  0  0  0  0
  -18.9280  -30.1160   23.9900 C   0  0  0  0  0  3  0  0  0  0  0  0
  -17.6240  -30.6150   24.1620 C   0  0  0  0  0  3  0  0  0  0  0  0
  -16.5180  -29.8450   23.7600 C   0  0  0  0  0  3  0  0  0  0  0  0
  -16.7200  -28.5810   23.1790 C   0  0  0  0  0  3  0  0  0  0  0  0
  -25.8420  -32.5660   23.8370 C   0  0  0  0  0  3  0  0  0  0  0  0
  -25.5230  -33.9630   24.1630 N   0  0  0  0  0  0  0  0  0  0  0  0
  -25.8580  -35.0140   23.4050 C   0  0  0  0  0  0  0  0  0  0  0  0
  -26.5380  -34.9120   22.3790 O   0  0  0  0  0  0  0  0  0  0  0  0
  -24.9210  -34.1160   24.9580 H   0  0  0  0  0  0  0  0  0  0  0  0
  -24.1400  -36.8080   23.0110 C   0  0  0  0  0  1  0  0  0  0  0  0
  -25.3590  -36.4000   23.8540 C   0  0  0  0  0  3  0  0  0  0  0  0
  -27.4700  -37.2830   24.7440 C   0  0  0  0  0  1  0  0  0  0  0  0
  -26.3950  -37.4530   23.7710 N   0  0  0  0  0  0  0  0  0  0  0  0
  -25.9830  -38.3730   23.9100 H   0  0  0  0  0  0  0  0  0  0  0  0
  -26.3800  -31.8040   25.1110 C   0  0  1  0  0  0  0  0  0  0  0  0
  -25.3000  -31.5540   26.1890 C   0  0  0  0  0  1  0  0  0  0  0  0
  -26.9770  -30.4330   24.7130 C   0  0  0  0  0  1  0  0  0  0  0  0
  -27.5240  -32.6150   25.7630 C   0  0  0  0  0  1  0  0  0  0  0  0
  1  5  1  0
  2  1  2  0
  3 51  1  0
  3  5  2  0
  4  3  1  0
  6  4  2  0
  6  2  1  0
  9  7  1  6
  9  2  1  0
  9  8  1  0
  9 10  1  0
 11 19  1  0
 12 17  1  0
 13 14  1  0
 13 12  1  0
 15 14  1  0
 15 24  1  0
 15 16  1  0
 17 11  1  0
 17 16  1  0
 18 11  2  0
 19 10  1  0
 19 20  1  0
 21 22  2  0
 22 41  1  0
 23 22  1  0
 23 26  1  0
 24 21  1  0
 24 25  1  0
 25 23  2  0
 26 27  1  0
 27 28  2  0
 29 32  1  0
 29 28  1  0
 30 29  2  0
 31 30  1  0
 31 26  2  0
 32 33  1  0
 33 34  1  0
 34 35  2  0
 36 35  1  0
 36 40  1  0
 37 36  2  0
 38 33  2  0
 38 37  1  0
 39 38  1  0
 41 42  1  0
 42 45  1  0
 42 44  1  0
 43 41  2  0
 46 47  1  0
 46 21  1  0
 48 46  1  0
 49 50  1  0
 50  4  1  0
 51 52  1  0
 52 53  1  0
 54 56  1  0
 54 53  1  0
 55 66  2  0
 56 61  1  0
 57 65  1  0
 57 67  1  0
 58 64  1  0
 58 60  1  0
 59 65  1  0
 60 59  1  0
 61 60  2  0
 62 63  1  0
 62 56  2  0
 63 58  2  0
 64 57  1  0
 65 55  1  0
 67 69  2  0
 68 67  1  0
 70 68  1  0
 71 80  2  0
 71 76  1  0
 72 68  1  0
 72 76  1  0
 73 72  1  0
 74 75  1  0
 74 73  1  0
 75 71  1  0
 76 77  2  0
 77 78  1  0
 79 78  2  0
 80 79  1  0
 81 55  1  0
 81 82  1  0
 81 91  1  0
 82 85  1  0
 83 87  1  0
 83 82  1  0
 84 83  2  0
 87 86  1  0
 89 87  1  0
 89 90  1  0
 89 88  1  0
 91 94  1  1
 91 92  1  0
 93 91  1  0
M  ISO  4  11 100  19 100  53 101  54 101
M  END
>  <TORSDO>  (54) 
F 22

>  <SCORE>  (54) 
-13.340

>  <name>  (54) 
58

>  <ligand_id>  (54) 
58

>  <original_smiles>  (54) 
[H]c1nc(C([H])([H])C([H])([H])C([H])([H])Oc2c([H])c([H])c3c(c2[H])C([H])([H])N(C(=O)C([H])(N([H])C(=O)C([H])(N([H])C([H])([H])[H])C([H])([H])[H])C(C([H])([H])[H])(C([H])([H])[H])C([H])([H])[H])C([H])(C(=O)N([H])C2([H])c4c([H])c([H])c([H])c([H])c4C([H])([H])C([H])([H])C2([H])[H])C3([H])[H])c(C([H])([H])C([H])([H])[H])nc1C(C([H])([H])[H])(C([H])([H])[H])C([H])([H])N([H])C(=O)N1C([H])([H])C([H])([H])C([H])([H])C([H])(n2nc(-c3c([H])c([H])c(Oc4c([H])c([H])c(F)c([H])c4F)c([H])c3[H])c(C(=O)N([H])[H])c2N([H])[H])C1([H])[H]

>  <smiles>  (54) 
[H]c1nc(C([H])([H])C([H])([H])C([H])([H])Oc2c([H])c([H])c3c(c2[H])C([H])([H])N(C(=O)C([H])(N([H])C(=O)C([H])(N([H])C([H])([H])[H])C([H])([H])[H])C(C([H])([H])[H])(C([H])([H])[H])C([H])([H])[H])C([H])(C(=O)N([H])C2([H])c4c([H])c([H])c([H])c([H])c4C([H])([H])C([H])([H])C2([H])[H])C3([H])[H])c(C([H])([H])C([H])([H])[H])nc1C(C([H])([H])[H])(C([H])([H])[H])C([H])([H])N([H])C(=O)N1C([H])([H])C([H])([H])C([H])([H])C([H])(n2nc(-c3c([H])c([H])c(Oc4c([H])c([H])c(F)c([H])c4F)c([H])c3[H])c(C(=O)N([H])[H])c2N([H])[H])C1([H])[H]

$$$$
59:0:0
     RDKit          3D

 95 96  0  0  1  0  0  0  0  0999 V2000
  -24.8820  -22.6010   20.0110 C   0  0  0  0  0  3  0  0  0  0  0  0
  -23.0400  -24.6700   20.1350 C   0  0  0  0  0  3  0  0  0  0  0  0
  -24.0900  -22.6580   21.1290 N   0  0  0  0  0  0  0  0  0  0  0  0
  -23.0940  -23.7930   21.1990 N   0  0  0  0  0  0  0  0  0  0  0  0
  -24.2070  -23.8800   19.4050 N   0  0  0  0  0  0  0  0  0  0  0  0
  -22.8020  -27.3450   19.5660 C   0  0  0  0  0  1  0  0  0  0  0  0
  -19.7410  -26.7800   22.4500 C   0  0  0  0  0  2  0  0  0  0  0  0
  -21.1380  -26.1160   18.5430 C   0  0  0  0  0  1  0  0  0  0  0  0
  -21.7410  -26.3020   19.9980 C   0  0  0  0  0  2  0  0  0  0  0  0
  -26.1080  -21.0720   19.4850 C   0  0  0  0  0 15  0  0  0  0  0  0
  -27.8320  -19.8850   19.7550 C   0  0  0  0  0 15  0  0  0  0  0  0
  -27.7470  -17.3310   20.4660 C   0  0  0  0  0  1  0  0  0  0  0  0
  -28.3170  -17.9900   17.9450 C   0  0  0  0  0  1  0  0  0  0  0  0
  -28.6890  -17.9850   19.4430 C   0  0  0  0  0  2  0  0  0  0  0  0
  -30.2290  -16.6240   19.4560 C   0  0  0  0  0  2  0  0  0  0  0  0
  -31.1670  -14.0510   18.9720 C   0  0  0  0  0  2  0  0  0  0  0  0
  -30.3900  -13.2450   17.8710 C   0  0  0  0  0  2  0  0  0  0  0  0
  -28.9960  -12.7970   18.3560 C   0  0  0  0  0  2  0  0  0  0  0  0
  -28.3950  -13.8900   19.2560 C   0  0  0  0  0  3  0  0  0  0  0  0
  -29.3490  -14.3060   20.3660 C   0  0  0  0  0  2  0  0  0  0  0  0
  -30.2870  -15.1480   19.6440 N   0  0  0  0  0  0  0  0  0  0  0  0
  -31.4450  -16.8310   19.1540 O   0  0  0  0  0  1  0  0  0  0  0  0
  -26.1180  -14.5320   20.0990 C   0  0  0  0  0  0  0  0  0  0  0  0
  -25.0760  -13.8080   20.5680 C   0  0  0  0  0  0  0  0  0  0  0  0
  -25.4990  -12.4460   20.5050 C   0  0  0  0  0  0  0  0  0  0  0  0
  -27.1060  -13.6180   19.7980 N   0  0  0  0  0  0  0  0  0  0  0  0
  -26.7600  -12.3520   20.1100 N   0  0  0  0  0  0  0  0  0  0  0  0
  -24.7460  -11.2240   20.7190 C   0  0  0  0  0  0  0  0  0  0  0  0
  -25.1240  -10.2950   21.7080 C   0  0  0  0  0  3  0  0  0  0  0  0
  -24.3600   -9.1270   21.9050 C   0  0  0  0  0  3  0  0  0  0  0  0
  -23.2130   -8.8920   21.1080 C   0  0  0  0  0  0  0  0  0  0  0  0
  -22.8630   -9.8130   20.1040 C   0  0  0  0  0  3  0  0  0  0  0  0
  -23.6260  -10.9710   19.9070 C   0  0  0  0  0  3  0  0  0  0  0  0
  -22.4210   -7.7770   21.2140 O   0  0  0  0  0  0  0  0  0  0  0  0
  -22.1650   -7.1980   22.4280 C   0  0  0  0  0  0  0  0  0  0  0  0
  -21.5500   -7.9110   23.4800 C   0  0  0  0  0  3  0  0  0  0  0  0
  -21.2390   -7.2530   24.6870 C   0  0  0  0  0  3  0  0  0  0  0  0
  -21.5340   -5.8850   24.8380 C   0  0  0  0  0  0  0  0  0  0  0  0
  -22.1430   -5.1730   23.7900 C   0  0  0  0  0  3  0  0  0  0  0  0
  -22.4550   -5.8290   22.5860 C   0  0  0  0  0  0  0  0  0  0  0  0
  -23.0220   -5.1360   21.5700 F   0  0  0  0  0  0  0  0  0  0  0  0
  -21.2290   -5.2490   25.9940 F   0  0  0  0  0  0  0  0  0  0  0  0
  -23.7290  -14.3550   20.9300 C   0  0  0  0  0  0  0  0  0  0  0  0
  -23.0470  -13.7130   21.8690 N   0  0  0  0  0  0  0  0  0  0  0  0
  -23.3040  -15.3930   20.4210 O   0  0  0  0  0  0  0  0  0  0  0  0
  -23.4220  -12.8820   22.3010 H   0  0  0  0  0  0  0  0  0  0  0  0
  -22.1430  -14.0520   22.1670 H   0  0  0  0  0  0  0  0  0  0  0  0
  -26.2520  -15.8840   19.8690 N   0  0  0  0  0  0  0  0  0  0  0  0
  -25.4590  -16.5000   20.0080 H   0  0  0  0  0  0  0  0  0  0  0  0
  -27.0530  -16.3540   19.4690 H   0  0  0  0  0  0  0  0  0  0  0  0
  -24.7010  -24.2340   18.0980 C   0  0  0  0  0  3  0  0  0  0  0  0
  -25.9900  -25.0930   18.0740 C   0  0  0  0  0  3  0  0  0  0  0  0
  -26.8850  -25.3330   19.3570 C   0  0  0  0  0  2  0  0  0  0  0  0
  -28.2830  -26.0860   19.1680 C   0  0  0  0  0  2  0  0  0  0  0  0
  -28.6290  -27.3260   19.8810 O   0  0  0  0  0  0  0  0  0  0  0  0
  -24.9460  -31.8780   23.9840 C   0  0  0  0  0  0  0  0  0  0  0  0
  -27.6550  -28.2930   19.9580 C   0  0  0  0  0  0  0  0  0  0  0  0
  -23.8590  -30.9630   21.9900 C   0  0  0  0  0  3  0  0  0  0  0  0
  -25.3540  -29.8910   20.2470 C   0  0  0  0  0  0  0  0  0  0  0  0
  -26.3860  -31.2670   22.0430 C   0  0  0  0  0  2  0  0  0  0  0  0
  -26.4670  -30.1150   21.0670 C   0  0  0  0  0  0  0  0  0  0  0  0
  -27.6150  -29.2900   20.9600 C   0  0  0  0  0  3  0  0  0  0  0  0
  -26.6350  -28.2900   19.0060 C   0  0  0  0  0  3  0  0  0  0  0  0
  -25.4360  -28.9780   19.1970 C   0  0  0  0  0  3  0  0  0  0  0  0
  -24.1340  -30.7480   20.4810 C   0  0  0  0  0  2  0  0  0  0  0  0
  -25.0780  -31.3970   22.7200 N   0  0  0  0  0  0  0  0  0  0  0  0
  -23.8320  -32.0170   24.5090 O   0  0  0  0  0  0  0  0  0  0  0  0
  -23.3130  -29.6710   22.6070 C   0  0  0  0  0  0  0  0  0  0  0  0
  -22.0380  -29.4440   22.4270 N   0  0  0  0  0  0  0  0  0  0  0  0
  -24.0190  -28.8510   23.1930 O   0  0  0  0  0  0  0  0  0  0  0  0
  -21.4900  -30.1380   21.9380 H   0  0  0  0  0  0  0  0  0  0  0  0
  -18.5960  -28.3910   22.0980 C   0  0  0  0  0  0  0  0  0  0  0  0
  -21.3150  -28.3140   22.9470 C   0  0  0  0  0  2  0  0  0  0  0  0
  -21.7900  -26.3650   22.8950 C   0  0  0  0  0 15  0  0  0  0  0  0
  -19.8880  -25.3300   21.6750 C   0  0  0  0  0  1  0  0  0  0  0  0
  -18.6890  -26.8370   21.2500 C   0  0  0  0  0  2  0  0  0  0  0  0
  -19.7540  -29.0160   22.8370 C   0  0  0  0  0  0  0  0  0  0  0  0
  -19.4710  -30.0540   23.8110 C   0  0  0  0  0  3  0  0  0  0  0  0
  -18.1740  -30.5150   24.1450 C   0  0  0  0  0  3  0  0  0  0  0  0
  -17.0780  -29.9090   23.5130 C   0  0  0  0  0  3  0  0  0  0  0  0
  -17.2980  -28.8830   22.5430 C   0  0  0  0  0  3  0  0  0  0  0  0
  -26.1950  -32.2840   24.8140 C   0  0  0  0  0  3  0  0  0  0  0  0
  -26.0090  -33.6860   25.2010 N   0  0  0  0  0  0  0  0  0  0  0  0
  -26.5210  -34.7270   24.5340 C   0  0  0  0  0  0  0  0  0  0  0  0
  -27.2770  -34.5960   23.5660 O   0  0  0  0  0  0  0  0  0  0  0  0
  -25.3580  -33.8680   25.9510 H   0  0  0  0  0  0  0  0  0  0  0  0
  -25.0280  -36.7090   24.1320 C   0  0  0  0  0  1  0  0  0  0  0  0
  -26.1400  -36.1350   25.0240 C   0  0  0  0  0  3  0  0  0  0  0  0
  -28.2770  -36.7250   26.0770 C   0  0  0  0  0  1  0  0  0  0  0  0
  -27.2840  -37.0710   25.0640 N   0  0  0  0  0  0  0  0  0  0  0  0
  -26.9650  -38.0200   25.2410 H   0  0  0  0  0  0  0  0  0  0  0  0
  -26.4240  -31.3710   26.0790 C   0  0  1  0  0  0  0  0  0  0  0  0
  -25.1600  -31.1740   26.9440 C   0  0  0  0  0  1  0  0  0  0  0  0
  -26.9320  -29.9700   25.6680 C   0  0  0  0  0  1  0  0  0  0  0  0
  -27.5210  -31.9950   26.9710 C   0  0  0  0  0  1  0  0  0  0  0  0
  1  3  2  0
  2  4  2  0
  3  4  1  0
  5  1  1  0
  5  2  1  0
  6  9  1  0
  8  9  1  0
 13 14  1  0
 14 12  1  0
 15 21  1  0
 16 21  1  0
 17 18  1  0
 17 16  1  0
 19 18  1  0
 19 26  1  0
 19 20  1  0
 21 20  1  0
 22 15  1  0
 23 24  2  0
 24 43  1  0
 25 24  1  0
 25 28  1  0
 26 23  1  0
 26 27  1  0
 27 25  2  0
 28 29  1  0
 29 30  2  0
 31 34  1  0
 31 30  1  0
 32 31  2  0
 33 32  1  0
 33 28  2  0
 34 35  1  0
 35 40  2  0
 35 36  1  0
 36 37  2  0
 37 38  1  0
 38 42  1  0
 39 38  2  0
 40 39  1  0
 41 40  1  0
 43 44  1  0
 44 47  1  0
 44 46  1  0
 45 43  2  0
 48 49  1  0
 48 23  1  0
 50 48  1  0
 51  5  1  0
 52 51  2  0
 52 53  1  0
 54 53  1  0
 54 55  1  0
 55 57  1  0
 56 67  2  0
 57 62  1  0
 58 68  1  0
 58 66  1  0
 59 65  1  0
 59 61  1  0
 60 66  1  0
 61 60  1  0
 62 61  2  0
 63 64  1  0
 63 57  2  0
 64 59  2  0
 65 58  1  0
 66 56  1  0
 68 70  2  0
 69 68  1  0
 69 73  1  0
 71 69  1  0
 72 81  2  0
 72 77  1  0
 75  7  1  0
 76 72  1  0
 76  7  1  0
 77 73  1  0
 77 78  2  0
 78 79  1  0
 80 79  2  0
 81 80  1  0
 82 56  1  0
 82 83  1  0
 82 92  1  0
 83 86  1  0
 84 88  1  0
 84 83  1  0
 85 84  2  0
 88 87  1  0
 88 90  1  0
 90 91  1  0
 90 89  1  0
 92 93  1  1
 92 95  1  0
 94 92  1  0
M  ISO  4  14 100  15 100  54 101  55 101
M  END
>  <TORSDO>  (55) 
F 24

>  <SCORE>  (55) 
-8.724

>  <name>  (55) 
59

>  <ligand_id>  (55) 
59

>  <original_smiles>  (55) 
[H]c1c([H])c([H])c2c(c1[H])C([H])([H])C([H])([H])C([H])([H])C2([H])N([H])C(=O)C1([H])N(C(=O)C([H])(N([H])C(=O)C([H])(N([H])C([H])([H])[H])C([H])([H])[H])C(C([H])([H])[H])(C([H])([H])[H])C([H])([H])[H])C([H])([H])c2c([H])c(OC([H])([H])C([H])([H])C([H])([H])C([H])([H])n3c(C([H])([H])C([H])([H])C(C(=O)N4C([H])([H])C([H])([H])C([H])([H])C([H])(n5nc(-c6c([H])c([H])c(Oc7c([H])c([H])c(F)c([H])c7F)c([H])c6[H])c(C(=O)N([H])[H])c5N([H])[H])C4([H])[H])(C([H])([H])[H])C([H])([H])[H])nnc3C(C([H])([H])[H])(C([H])([H])[H])C([H])([H])[H])c([H])c([H])c2C1([H])[H]

>  <smiles>  (55) 
[H]c1c([H])c([H])c2c(c1[H])C([H])([H])C([H])([H])C([H])([H])C2([H])N([H])C(=O)C1([H])N(C(=O)C([H])(N([H])C(=O)C([H])(N([H])C([H])([H])[H])C([H])([H])[H])C(C([H])([H])[H])(C([H])([H])[H])C([H])([H])[H])C([H])([H])c2c([H])c(OC([H])([H])C([H])([H])C([H])([H])C([H])([H])n3c(C([H])([H])C([H])([H])C(C(=O)N4C([H])([H])C([H])([H])C([H])([H])C([H])(n5nc(-c6c([H])c([H])c(Oc7c([H])c([H])c(F)c([H])c7F)c([H])c6[H])c(C(=O)N([H])[H])c5N([H])[H])C4([H])[H])(C([H])([H])[H])C([H])([H])[H])nnc3C(C([H])([H])[H])(C([H])([H])[H])C([H])([H])[H])c([H])c([H])c2C1([H])[H]

$$$$
60:0:0
     RDKit          3D

 96104  0  0  1  0  0  0  0  0999 V2000
  -29.1300  -19.8610   21.2240 C   0  0  0  0  0  3  0  0  0  0  0  0
  -28.7190  -18.8290   20.4130 C   0  0  0  0  0  0  0  0  0  0  0  0
  -28.1450  -20.8730   19.4960 C   0  0  0  0  0  3  0  0  0  0  0  0
  -28.0510  -19.5140   19.3570 N   0  0  0  0  0  0  0  0  0  0  0  0
  -28.7440  -21.0450   20.6680 N   0  0  0  0  0  0  0  0  0  0  0  0
  -28.9520  -21.9540   21.0620 H   0  0  0  0  0  0  0  0  0  0  0  0
  -27.7530  -16.4910   21.0250 C   0  0  0  0  0  1  0  0  0  0  0  0
  -29.7310  -17.2680   22.1210 C   0  0  0  0  0  1  0  0  0  0  0  0
  -29.0260  -17.3090   20.7230 C   0  0  2  0  0  0  0  0  0  0  0  0
  -29.8000  -16.4700   19.5590 C   0  0  0  0  0  2  0  0  0  0  0  0
  -31.5240  -14.5130   19.2140 C   0  0  0  0  0  0  0  0  0  0  0  0
  -31.1080  -12.0970   18.7820 C   0  0  0  0  0  2  0  0  0  0  0  0
  -30.1230  -11.9430   17.6110 C   0  0  0  0  0  2  0  0  0  0  0  0
  -28.6740  -11.9610   18.1310 C   0  0  0  0  0  2  0  0  0  0  0  0
  -28.4050  -13.1200   19.1160 C   0  0  0  0  0  3  0  0  0  0  0  0
  -29.5130  -13.2530   20.1830 C   0  0  0  0  0  2  0  0  0  0  0  0
  -30.7870  -13.3800   19.4680 N   0  0  0  0  0  0  0  0  0  0  0  0
  -32.6080  -14.3460   18.6300 O   0  0  0  0  0  0  0  0  0  0  0  0
  -32.3380  -16.7510   19.6130 C   0  0  0  0  0  1  0  0  0  0  0  0
  -31.1780  -15.7960   19.6180 N   0  0  0  0  0  0  0  0  0  0  0  0
  -26.1770  -14.0060   20.0180 C   0  0  0  0  0  0  0  0  0  0  0  0
  -25.0780  -13.3840   20.5390 C   0  0  0  0  0  0  0  0  0  0  0  0
  -25.3500  -11.9880   20.4600 C   0  0  0  0  0  0  0  0  0  0  0  0
  -27.0840  -13.0030   19.7260 N   0  0  0  0  0  0  0  0  0  0  0  0
  -26.5910  -11.7790   20.0440 N   0  0  0  0  0  0  0  0  0  0  0  0
  -24.4740  -10.8340   20.7080 C   0  0  0  0  0  0  0  0  0  0  0  0
  -24.8600   -9.7820   21.5700 C   0  0  0  0  0  3  0  0  0  0  0  0
  -23.9920   -8.6940   21.8050 C   0  0  0  0  0  3  0  0  0  0  0  0
  -22.7210   -8.6510   21.1810 C   0  0  0  0  0  0  0  0  0  0  0  0
  -22.3560   -9.6820   20.2970 C   0  0  0  0  0  3  0  0  0  0  0  0
  -23.2250  -10.7600   20.0580 C   0  0  0  0  0  3  0  0  0  0  0  0
  -21.8230   -7.6220   21.3320 O   0  0  0  0  0  0  0  0  0  0  0  0
  -21.7640   -6.8810   22.4840 C   0  0  0  0  0  0  0  0  0  0  0  0
  -21.5510   -7.4790   23.7450 C   0  0  0  0  0  3  0  0  0  0  0  0
  -21.4320   -6.6740   24.8950 C   0  0  0  0  0  3  0  0  0  0  0  0
  -21.5120   -5.2740   24.7870 C   0  0  0  0  0  0  0  0  0  0  0  0
  -21.7250   -4.6750   23.5330 C   0  0  0  0  0  3  0  0  0  0  0  0
  -21.8480   -5.4770   22.3850 C   0  0  0  0  0  0  0  0  0  0  0  0
  -22.0250   -4.8950   21.1740 F   0  0  0  0  0  0  0  0  0  0  0  0
  -21.3920   -4.4980   25.8920 F   0  0  0  0  0  0  0  0  0  0  0  0
  -23.8010  -14.0430   20.9710 C   0  0  0  0  0  0  0  0  0  0  0  0
  -23.0850  -13.4410   21.9140 N   0  0  0  0  0  0  0  0  0  0  0  0
  -23.4490  -15.1240   20.4990 O   0  0  0  0  0  0  0  0  0  0  0  0
  -23.3720  -12.5570   22.3130 H   0  0  0  0  0  0  0  0  0  0  0  0
  -22.2370  -13.8750   22.2500 H   0  0  0  0  0  0  0  0  0  0  0  0
  -26.4720  -15.3310   19.7310 N   0  0  0  0  0  0  0  0  0  0  0  0
  -25.8360  -16.0970   19.9240 H   0  0  0  0  0  0  0  0  0  0  0  0
  -27.3490  -15.6280   19.3290 H   0  0  0  0  0  0  0  0  0  0  0  0
  -26.8730  -21.9740   17.4120 C   0  0  0  0  0  1  0  0  0  0  0  0
  -27.9800  -22.0540   18.4990 C   0  0  0  0  0  3  0  0  0  0  0  0
  -28.1210  -23.5930   18.9020 C   0  0  0  0  0  2  0  0  0  0  0  0
  -28.8340  -24.2040   20.1580 C   0  0  0  0  0  2  0  0  0  0  0  0
  -29.6510  -25.5220   19.8950 C   0  0  0  0  0  2  0  0  0  0  0  0
  -29.3840  -26.6930   20.7110 O   0  0  0  0  0  0  0  0  0  0  0  0
  -24.8820  -31.5710   23.3590 C   0  0  0  0  0  0  0  0  0  0  0  0
  -28.1820  -27.3670   20.5580 C   0  0  0  0  0  0  0  0  0  0  0  0
  -23.9800  -30.0980   21.5990 C   0  0  0  0  0  3  0  0  0  0  0  0
  -25.7010  -28.7220   20.3230 C   0  0  0  0  0  0  0  0  0  0  0  0
  -26.4770  -30.6620   21.6740 C   0  0  0  0  0  2  0  0  0  0  0  0
  -26.7470  -29.3090   21.0430 C   0  0  0  0  0  0  0  0  0  0  0  0
  -27.9950  -28.6430   21.1490 C   0  0  0  0  0  3  0  0  0  0  0  0
  -27.1140  -26.8110   19.8210 C   0  0  0  0  0  3  0  0  0  0  0  0
  -25.8860  -27.4760   19.7010 C   0  0  0  0  0  3  0  0  0  0  0  0
  -24.3870  -29.4640   20.2470 C   0  0  0  0  0  2  0  0  0  0  0  0
  -25.1270  -30.7950   22.2680 N   0  0  0  0  0  0  0  0  0  0  0  0
  -23.7320  -31.7510   23.7770 O   0  0  0  0  0  0  0  0  0  0  0  0
  -23.3290  -29.0110   22.4800 C   0  0  0  0  0  0  0  0  0  0  0  0
  -22.0350  -28.7430   22.2480 N   0  0  0  0  0  0  0  0  0  0  0  0
  -23.9790  -28.4080   23.3290 O   0  0  0  0  0  0  0  0  0  0  0  0
  -21.5870  -29.2550   21.5060 H   0  0  0  0  0  0  0  0  0  0  0  0
  -18.7210  -27.3540   22.5000 C   0  0  0  0  0  0  0  0  0  0  0  0
  -21.2380  -27.7290   22.9330 C   0  0  0  0  0  3  0  0  0  0  0  0
  -21.4600  -26.3390   22.2940 C   0  0  0  0  0  2  0  0  0  0  0  0
  -20.4350  -26.0030   21.2130 C   0  0  0  0  0  2  0  0  0  0  0  0
  -18.9930  -26.0720   21.7420 C   0  0  0  0  0  2  0  0  0  0  0  0
  -19.7700  -28.1460   23.0320 C   0  0  0  0  0  0  0  0  0  0  0  0
  -19.4540  -29.3780   23.6560 C   0  0  0  0  0  3  0  0  0  0  0  0
  -18.1140  -29.7970   23.7660 C   0  0  0  0  0  3  0  0  0  0  0  0
  -17.0680  -29.0000   23.2570 C   0  0  0  0  0  3  0  0  0  0  0  0
  -17.3860  -27.7720   22.6370 C   0  0  0  0  0  3  0  0  0  0  0  0
  -26.0300  -32.3130   24.1070 C   0  0  0  0  0  3  0  0  0  0  0  0
  -25.6100  -33.7080   24.3030 N   0  0  0  0  0  0  0  0  0  0  0  0
  -25.9870  -34.7280   23.5180 C   0  0  0  0  0  0  0  0  0  0  0  0
  -26.7960  -34.6020   22.5940 O   0  0  0  0  0  0  0  0  0  0  0  0
  -24.8970  -33.8770   24.9990 H   0  0  0  0  0  0  0  0  0  0  0  0
  -24.2180  -36.3850   22.8290 C   0  0  0  0  0  1  0  0  0  0  0  0
  -25.3640  -36.1110   23.8180 C   0  0  0  0  0  3  0  0  0  0  0  0
  -27.3250  -37.1780   24.8390 C   0  0  0  0  0  1  0  0  0  0  0  0
  -26.3400  -37.2220   23.7620 N   0  0  0  0  0  0  0  0  0  0  0  0
  -25.8670  -38.1220   23.7940 H   0  0  0  0  0  0  0  0  0  0  0  0
  -26.3920  -31.6470   25.4890 C   0  0  1  0  0  0  0  0  0  0  0  0
  -25.1690  -31.4000   26.4060 C   0  0  0  0  0  1  0  0  0  0  0  0
  -27.1050  -30.2890   25.2770 C   0  0  0  0  0  1  0  0  0  0  0  0
  -27.3870  -32.5510   26.2600 C   0  0  0  0  0  1  0  0  0  0  0  0
  -25.8430  -19.1690   18.0550 C   0  0  0  0  0  1  0  0  0  0  0  0
  -27.3790  -18.9220   18.1790 C   0  0  0  0  0  2  0  0  0  0  0  0
  2  9  1  0
  2  1  2  0
  3 50  1  0
  3  5  1  0
  4  3  1  0
  4  2  1  0
  5  6  1  0
  5  1  1  0
  9  7  1  1
  9  8  1  0
 10 20  1  0
 10  9  1  0
 11 17  1  0
 11 20  1  0
 12 17  1  0
 13 14  1  0
 13 12  1  0
 15 14  1  0
 15 24  1  0
 15 16  1  0
 17 16  1  0
 18 11  2  0
 19 20  1  0
 21 22  2  0
 22 41  1  0
 23 22  1  0
 23 26  1  0
 24 21  1  0
 24 25  1  0
 25 23  2  0
 26 27  1  0
 27 28  2  0
 29 32  1  0
 29 28  1  0
 30 29  2  0
 31 30  1  0
 31 26  2  0
 32 33  1  0
 33 34  1  0
 34 35  2  0
 36 35  1  0
 36 40  1  0
 37 36  2  0
 38 33  2  0
 38 37  1  0
 39 38  1  0
 41 42  1  0
 42 45  1  0
 42 44  1  0
 43 41  2  0
 46 47  1  0
 46 21  1  0
 48 46  1  0
 50 49  1  0
 50 51  1  0
 51 52  1  0
 53 52  1  0
 53 54  1  0
 55 66  2  0
 56 54  1  0
 56 61  1  0
 57 65  1  0
 57 67  1  0
 58 60  1  0
 59 65  1  0
 60 61  2  0
 60 59  1  0
 62 56  2  0
 63 62  1  0
 63 58  2  0
 64 58  1  0
 64 57  1  0
 65 55  1  0
 67 69  2  0
 68 67  1  0
 70 68  1  0
 71 80  2  0
 71 76  1  0
 72 68  1  0
 72 76  1  0
 73 72  1  0
 74 75  1  0
 74 73  1  0
 75 71  1  0
 76 77  2  0
 77 78  1  0
 79 78  2  0
 80 79  1  0
 81 55  1  0
 81 82  1  0
 81 91  1  0
 82 85  1  0
 83 87  1  0
 83 82  1  0
 84 83  2  0
 87 86  1  0
 89 90  1  0
 89 87  1  0
 89 88  1  0
 91 94  1  1
 91 92  1  0
 93 91  1  0
 95 96  1  0
 96  4  1  0
M  ISO  4  11 100  20 100  53 101  54 101
M  END
>  <TORSDO>  (56) 
F 23

>  <SCORE>  (56) 
-9.481

>  <name>  (56) 
60

>  <ligand_id>  (56) 
60

>  <original_smiles>  (56) 
[H]c1c([H])c([H])c2c(c1[H])C([H])([H])C([H])([H])C([H])([H])C2([H])N([H])C(=O)C1([H])N(C(=O)C([H])(N([H])C(=O)C([H])(N([H])C([H])([H])[H])C([H])([H])[H])C(C([H])([H])[H])(C([H])([H])[H])C([H])([H])[H])C([H])([H])c2c([H])c(OC([H])([H])C([H])([H])C([H])([H])C([H])(c3n(C([H])([H])C([H])([H])[H])c(C(C([H])([H])[H])(C([H])([H])[H])C([H])([H])N(C(=O)N4C([H])([H])C([H])([H])C([H])([H])C([H])(n5nc(-c6c([H])c([H])c(Oc7c([H])c([H])c(F)c([H])c7F)c([H])c6[H])c(C(=O)N([H])[H])c5N([H])[H])C4([H])[H])C([H])([H])[H])c([H])[n+]3[H])C([H])([H])[H])c([H])c([H])c2C1([H])[H]

>  <smiles>  (56) 
[H]c1c([H])c([H])c2c(c1[H])C([H])([H])C([H])([H])C([H])([H])C2([H])N([H])C(=O)C1([H])N(C(=O)C([H])(N([H])C(=O)C([H])(N([H])C([H])([H])[H])C([H])([H])[H])C(C([H])([H])[H])(C([H])([H])[H])C([H])([H])[H])C([H])([H])c2c([H])c(OC([H])([H])C([H])([H])C([H])([H])C([H])(c3n(C([H])([H])C([H])([H])[H])c(C(C([H])([H])[H])(C([H])([H])[H])C([H])([H])N(C(=O)N4C([H])([H])C([H])([H])C([H])([H])C([H])(n5nc(-c6c([H])c([H])c(Oc7c([H])c([H])c(F)c([H])c7F)c([H])c6[H])c(C(=O)N([H])[H])c5N([H])[H])C4([H])[H])C([H])([H])[H])c([H])[n+]3[H])C([H])([H])[H])c([H])c([H])c2C1([H])[H]

$$$$
61:0:0
     RDKit          3D

 99107  0  0  1  0  0  0  0  0999 V2000
  -27.8910  -17.7880   19.4910 C   0  0  0  0  0  1  0  0  0  0  0  0
  -29.4330  -17.0900   17.6840 C   0  0  0  0  0  1  0  0  0  0  0  0
  -29.1580  -18.2110   18.7170 C   0  0  2  0  0  0  0  0  0  0  0  0
  -31.3430  -19.3000   19.5230 C   0  0  0  0  0  3  0  0  0  0  0  0
  -32.3440  -18.9980   20.4750 C   0  0  0  0  0  0  0  0  0  0  0  0
  -30.4100  -18.3030   19.5920 C   0  0  0  0  0  0  0  0  0  0  0  0
  -32.0920  -17.8350   21.0500 N   0  0  0  0  0  0  0  0  0  0  0  0
  -30.9120  -17.3750   20.5340 N   0  0  0  0  0  0  0  0  0  0  0  0
  -34.8170  -19.0280   20.1670 C   0  0  0  0  0  1  0  0  0  0  0  0
  -33.8440  -19.9690   22.2810 C   0  0  0  0  0  1  0  0  0  0  0  0
  -33.5330  -21.1900   20.1440 C   0  0  0  0  0  1  0  0  0  0  0  0
  -33.6190  -19.7800   20.7680 C   0  0  2  0  0  0  0  0  0  0  0  0
  -30.5240  -15.9780   22.5860 C   0  0  0  0  0  1  0  0  0  0  0  0
  -30.4220  -16.0560   21.0330 C   0  0  0  0  0  3  0  0  0  0  0  0
  -31.0850  -14.8240   20.3190 C   0  0  0  0  0  0  0  0  0  0  0  0
  -30.7820  -12.6440   19.1730 C   0  0  0  0  0  2  0  0  0  0  0  0
  -29.8360  -12.8120   17.9620 C   0  0  0  0  0  2  0  0  0  0  0  0
  -28.3600  -12.6770   18.3860 C   0  0  0  0  0  2  0  0  0  0  0  0
  -28.0210  -13.5440   19.6260 C   0  0  0  0  0  3  0  0  0  0  0  0
  -29.0740  -13.3480   20.7360 C   0  0  0  0  0  2  0  0  0  0  0  0
  -30.4010  -13.6500   20.1790 N   0  0  0  0  0  0  0  0  0  0  0  0
  -32.1930  -14.9650   19.7880 O   0  0  0  0  0  0  0  0  0  0  0  0
  -25.6420  -14.1960   20.3680 C   0  0  0  0  0  0  0  0  0  0  0  0
  -24.5620  -13.4380   20.7400 C   0  0  0  0  0  0  0  0  0  0  0  0
  -24.9970  -12.0800   20.6940 C   0  0  0  0  0  0  0  0  0  0  0  0
  -26.6670  -13.2940   20.1180 N   0  0  0  0  0  0  0  0  0  0  0  0
  -26.2840  -12.0170   20.3730 N   0  0  0  0  0  0  0  0  0  0  0  0
  -24.2490  -10.8290   20.8790 C   0  0  0  0  0  0  0  0  0  0  0  0
  -24.6560   -9.8550   21.8180 C   0  0  0  0  0  3  0  0  0  0  0  0
  -23.9090   -8.6690   21.9890 C   0  0  0  0  0  3  0  0  0  0  0  0
  -22.7380   -8.4530   21.2230 C   0  0  0  0  0  0  0  0  0  0  0  0
  -22.3500   -9.4150   20.2750 C   0  0  0  0  0  3  0  0  0  0  0  0
  -23.0980  -10.5910   20.1010 C   0  0  0  0  0  3  0  0  0  0  0  0
  -21.9630   -7.3210   21.3040 O   0  0  0  0  0  0  0  0  0  0  0  0
  -21.8630   -6.5980   22.4660 C   0  0  0  0  0  0  0  0  0  0  0  0
  -21.4330   -7.1890   23.6750 C   0  0  0  0  0  3  0  0  0  0  0  0
  -21.2770   -6.3960   24.8290 C   0  0  0  0  0  3  0  0  0  0  0  0
  -21.5390   -5.0130   24.7750 C   0  0  0  0  0  0  0  0  0  0  0  0
  -21.9590   -4.4230   23.5710 C   0  0  0  0  0  3  0  0  0  0  0  0
  -22.1170   -5.2140   22.4170 C   0  0  0  0  0  0  0  0  0  0  0  0
  -22.5030   -4.6340   21.2550 F   0  0  0  0  0  0  0  0  0  0  0  0
  -21.3820   -4.2510   25.8820 F   0  0  0  0  0  0  0  0  0  0  0  0
  -23.1750  -13.9420   21.0270 C   0  0  0  0  0  0  0  0  0  0  0  0
  -22.4430  -13.2590   21.9010 N   0  0  0  0  0  0  0  0  0  0  0  0
  -22.7470  -14.9700   20.5080 O   0  0  0  0  0  0  0  0  0  0  0  0
  -22.8020  -12.4260   22.3440 H   0  0  0  0  0  0  0  0  0  0  0  0
  -21.5130  -13.5780   22.1330 H   0  0  0  0  0  0  0  0  0  0  0  0
  -25.8290  -15.5630   20.2020 N   0  0  0  0  0  0  0  0  0  0  0  0
  -25.0750  -16.2310   20.3230 H   0  0  0  0  0  0  0  0  0  0  0  0
  -26.6760  -15.9890   19.8530 H   0  0  0  0  0  0  0  0  0  0  0  0
  -28.8670  -19.5200   17.8450 C   0  0  0  0  0  2  0  0  0  0  0  0
  -28.0940  -21.7530   17.0300 C   0  0  0  0  0  1  0  0  0  0  0  0
  -26.8870  -20.7830   18.9800 C   0  0  0  0  0  1  0  0  0  0  0  0
  -28.2790  -20.9240   18.3310 C   0  0  1  0  0  0  0  0  0  0  0  0
  -29.2240  -21.7370   19.2780 C   0  0  0  0  0  2  0  0  0  0  0  0
  -28.6990  -22.9900   20.0600 C   0  0  0  0  0  2  0  0  0  0  0  0
  -28.5460  -24.3640   19.3450 C   0  0  0  0  0  2  0  0  0  0  0  0
  -28.2370  -25.5120   20.3430 C   0  0  0  0  0  2  0  0  0  0  0  0
  -28.2350  -26.8210   19.7460 O   0  0  0  0  0  0  0  0  0  0  0  0
  -24.5680  -31.8820   23.1810 C   0  0  0  0  0  0  0  0  0  0  0  0
  -27.0630  -27.5380   19.8510 C   0  0  0  0  0  0  0  0  0  0  0  0
  -23.2830  -30.5370   21.5490 C   0  0  0  0  0  3  0  0  0  0  0  0
  -24.6690  -29.0370   20.0170 C   0  0  0  0  0  0  0  0  0  0  0  0
  -25.7990  -30.8990   21.2490 C   0  0  0  0  0  2  0  0  0  0  0  0
  -25.8530  -29.5490   20.5620 C   0  0  0  0  0  0  0  0  0  0  0  0
  -27.0540  -28.8090   20.4710 C   0  0  0  0  0  3  0  0  0  0  0  0
  -25.8620  -27.0340   19.3080 C   0  0  0  0  0  3  0  0  0  0  0  0
  -24.6670  -27.7770   19.3910 C   0  0  0  0  0  3  0  0  0  0  0  0
  -23.4270  -29.8930   20.1440 C   0  0  0  0  0  2  0  0  0  0  0  0
  -24.5700  -31.1190   22.0510 N   0  0  0  0  0  0  0  0  0  0  0  0
  -23.5130  -32.1380   23.7780 O   0  0  0  0  0  0  0  0  0  0  0  0
  -22.6710  -29.4890   22.5060 C   0  0  0  0  0  0  0  0  0  0  0  0
  -21.3480  -29.2810   22.4030 N   0  0  0  0  0  0  0  0  0  0  0  0
  -23.3840  -28.8630   23.2970 O   0  0  0  0  0  0  0  0  0  0  0  0
  -20.8320  -29.8380   21.7350 H   0  0  0  0  0  0  0  0  0  0  0  0
  -18.0210  -27.9680   22.8980 C   0  0  0  0  0  0  0  0  0  0  0  0
  -20.5670  -28.3140   23.1730 C   0  0  0  0  0  3  0  0  0  0  0  0
  -20.7220  -26.8890   22.5960 C   0  0  0  0  0  2  0  0  0  0  0  0
  -19.6330  -26.5290   21.5810 C   0  0  0  0  0  2  0  0  0  0  0  0
  -18.2460  -26.6260   22.2230 C   0  0  0  0  0  2  0  0  0  0  0  0
  -19.1130  -28.7680   23.3300 C   0  0  0  0  0  0  0  0  0  0  0  0
  -18.8490  -30.0250   23.9170 C   0  0  0  0  0  3  0  0  0  0  0  0
  -17.5270  -30.4810   24.0800 C   0  0  0  0  0  3  0  0  0  0  0  0
  -16.4510  -29.6780   23.6660 C   0  0  0  0  0  3  0  0  0  0  0  0
  -16.6980  -28.4240   23.0790 C   0  0  0  0  0  3  0  0  0  0  0  0
  -25.8840  -32.4870   23.7610 C   0  0  0  0  0  3  0  0  0  0  0  0
  -26.4520  -31.6790   24.9930 C   0  0  1  0  0  0  0  0  0  0  0  0
  -25.4070  -31.4270   26.1040 C   0  0  0  0  0  1  0  0  0  0  0  0
  -27.0010  -30.3070   24.5380 C   0  0  0  0  0  1  0  0  0  0  0  0
  -27.6410  -32.4460   25.6190 C   0  0  0  0  0  1  0  0  0  0  0  0
  -25.6000  -33.8780   24.1420 N   0  0  0  0  0  0  0  0  0  0  0  0
  -25.9150  -34.9480   23.3980 C   0  0  0  0  0  0  0  0  0  0  0  0
  -26.5470  -34.8670   22.3410 O   0  0  0  0  0  0  0  0  0  0  0  0
  -25.0380  -34.0160   24.9670 H   0  0  0  0  0  0  0  0  0  0  0  0
  -24.1870  -36.7580   23.1560 C   0  0  0  0  0  1  0  0  0  0  0  0
  -25.4550  -36.3270   23.9110 C   0  0  0  0  0  3  0  0  0  0  0  0
  -27.6280  -37.1710   24.6790 C   0  0  0  0  0  1  0  0  0  0  0  0
  -26.4910  -37.3760   23.7870 N   0  0  0  0  0  0  0  0  0  0  0  0
  -26.0980  -38.2940   23.9770 H   0  0  0  0  0  0  0  0  0  0  0  0
  3  2  1  6
  3  1  1  0
  3  6  1  0
  4  6  2  0
  4  5  1  0
  5 12  1  0
  5  7  2  0
  6  8  1  0
  8 14  1  0
  8  7  1  0
 12  9  1  6
 11 12  1  0
 12 10  1  0
 14 13  1  0
 15 14  1  0
 16 21  1  0
 17 18  1  0
 17 16  1  0
 19 18  1  0
 19 26  1  0
 19 20  1  0
 21 15  1  0
 21 20  1  0
 22 15  2  0
 23 24  2  0
 24 43  1  0
 25 24  1  0
 25 28  1  0
 26 23  1  0
 26 27  1  0
 27 25  2  0
 28 29  1  0
 29 30  2  0
 31 34  1  0
 31 30  1  0
 32 31  2  0
 33 32  1  0
 33 28  2  0
 34 35  1  0
 35 36  1  0
 36 37  2  0
 38 37  1  0
 38 42  1  0
 39 38  2  0
 40 35  2  0
 40 39  1  0
 41 40  1  0
 43 44  1  0
 44 47  1  0
 44 46  1  0
 45 43  2  0
 48 49  1  0
 48 23  1  0
 50 48  1  0
 51 54  1  0
 51  3  1  0
 54 52  1  6
 54 53  1  0
 54 55  1  0
 55 56  1  0
 57 56  1  0
 57 58  1  0
 59 61  1  0
 59 58  1  0
 60 71  2  0
 61 66  1  0
 62 70  1  0
 62 72  1  0
 63 69  1  0
 63 65  1  0
 64 70  1  0
 65 64  1  0
 66 65  2  0
 67 68  1  0
 67 61  2  0
 68 63  2  0
 69 62  1  0
 70 60  1  0
 72 74  2  0
 73 72  1  0
 75 73  1  0
 76 85  2  0
 76 81  1  0
 77 73  1  0
 77 81  1  0
 78 77  1  0
 79 80  1  0
 79 78  1  0
 80 76  1  0
 81 82  2  0
 82 83  1  0
 84 83  2  0
 85 84  1  0
 86 60  1  0
 86 91  1  0
 86 87  1  0
 87 90  1  1
 87 88  1  0
 89 87  1  0
 91 94  1  0
 92 96  1  0
 92 91  1  0
 93 92  2  0
 96 95  1  0
 98 96  1  0
 98 99  1  0
 98 97  1  0
M  ISO  4  14 100  15 100  58 101  59 101
M  END
>  <TORSDO>  (57) 
F 25

>  <SCORE>  (57) 
-11.019

>  <name>  (57) 
61

>  <ligand_id>  (57) 
61

>  <original_smiles>  (57) 
[H]c1c([H])c([H])c2c(c1[H])C([H])([H])C([H])([H])C([H])([H])C2([H])N([H])C(=O)C1([H])N(C(=O)C([H])(N([H])C(=O)C([H])(N([H])C([H])([H])[H])C([H])([H])[H])C(C([H])([H])[H])(C([H])([H])[H])C([H])([H])[H])C([H])([H])c2c([H])c(OC([H])([H])C([H])([H])C([H])([H])C([H])([H])C(C([H])([H])[H])(C([H])([H])[H])C([H])([H])C(c3c([H])c(C(C([H])([H])[H])(C([H])([H])[H])C([H])([H])[H])nn3C([H])(C(=O)N3C([H])([H])C([H])([H])C([H])([H])C([H])(n4nc(-c5c([H])c([H])c(Oc6c([H])c([H])c(F)c([H])c6F)c([H])c5[H])c(C(=O)N([H])[H])c4N([H])[H])C3([H])[H])C([H])([H])[H])(C([H])([H])[H])C([H])([H])[H])c([H])c([H])c2C1([H])[H]

>  <smiles>  (57) 
[H]c1c([H])c([H])c2c(c1[H])C([H])([H])C([H])([H])C([H])([H])C2([H])N([H])C(=O)C1([H])N(C(=O)C([H])(N([H])C(=O)C([H])(N([H])C([H])([H])[H])C([H])([H])[H])C(C([H])([H])[H])(C([H])([H])[H])C([H])([H])[H])C([H])([H])c2c([H])c(OC([H])([H])C([H])([H])C([H])([H])C([H])([H])C(C([H])([H])[H])(C([H])([H])[H])C([H])([H])C(c3c([H])c(C(C([H])([H])[H])(C([H])([H])[H])C([H])([H])[H])nn3C([H])(C(=O)N3C([H])([H])C([H])([H])C([H])([H])C([H])(n4nc(-c5c([H])c([H])c(Oc6c([H])c([H])c(F)c([H])c6F)c([H])c5[H])c(C(=O)N([H])[H])c4N([H])[H])C3([H])[H])C([H])([H])[H])(C([H])([H])[H])C([H])([H])[H])c([H])c([H])c2C1([H])[H]

$$$$
62:0:0
     RDKit          3D

 92100  0  0  1  0  0  0  0  0999 V2000
  -29.5380  -20.5030   19.9580 C   0  0  0  0  0  3  0  0  0  0  0  0
  -28.2350  -19.9700   20.0990 C   0  0  0  0  0  0  0  0  0  0  0  0
  -27.5090  -21.9690   20.9960 C   0  0  0  0  0  0  0  0  0  0  0  0
  -28.8140  -22.5110   20.8420 C   0  0  0  0  0  0  0  0  0  0  0  0
  -26.3390  -22.7860   21.5130 C   0  0  0  0  0  1  0  0  0  0  0  0
  -29.8300  -21.7710   20.3360 N   0  0  0  0  0  0  0  0  0  0  0  0
  -27.2240  -20.6950   20.6340 N   0  0  0  0  0  0  0  0  0  0  0  0
  -27.8830  -18.5730   19.6180 C   0  0  0  0  0  2  0  0  0  0  0  0
  -28.5330  -17.4330   20.4270 C   0  0  0  0  0  2  0  0  0  0  0  0
  -29.9510  -17.0500   19.9670 C   0  0  0  0  0  2  0  0  0  0  0  0
  -30.9890  -14.8490   19.9530 C   0  0  0  0  0  0  0  0  0  0  0  0
  -30.6880  -12.5990   18.9870 C   0  0  0  0  0  2  0  0  0  0  0  0
  -29.7160  -12.6510   17.7930 C   0  0  0  0  0  2  0  0  0  0  0  0
  -28.2590  -12.5040   18.2740 C   0  0  0  0  0  2  0  0  0  0  0  0
  -27.9200  -13.4720   19.4370 C   0  0  0  0  0  3  0  0  0  0  0  0
  -29.0010  -13.4080   20.5410 C   0  0  0  0  0  2  0  0  0  0  0  0
  -30.3140  -13.6680   19.9240 N   0  0  0  0  0  0  0  0  0  0  0  0
  -32.0210  -15.0540   19.3050 O   0  0  0  0  0  0  0  0  0  0  0  0
  -31.0060  -16.1440   21.9740 C   0  0  0  0  0  1  0  0  0  0  0  0
  -30.4190  -15.8430   20.6690 N   0  0  0  0  0  0  0  0  0  0  0  0
  -25.5590  -14.1040   20.2550 C   0  0  0  0  0  0  0  0  0  0  0  0
  -24.5000  -13.3430   20.6710 C   0  0  0  0  0  0  0  0  0  0  0  0
  -24.9390  -11.9850   20.5990 C   0  0  0  0  0  0  0  0  0  0  0  0
  -26.5840  -13.2120   19.9710 N   0  0  0  0  0  0  0  0  0  0  0  0
  -26.2130  -11.9310   20.2320 N   0  0  0  0  0  0  0  0  0  0  0  0
  -24.2020  -10.7320   20.8020 C   0  0  0  0  0  0  0  0  0  0  0  0
  -24.6280   -9.7690   21.7440 C   0  0  0  0  0  3  0  0  0  0  0  0
  -23.8920   -8.5800   21.9350 C   0  0  0  0  0  3  0  0  0  0  0  0
  -22.7160   -8.3450   21.1830 C   0  0  0  0  0  0  0  0  0  0  0  0
  -22.3090   -9.2950   20.2290 C   0  0  0  0  0  3  0  0  0  0  0  0
  -23.0470  -10.4760   20.0360 C   0  0  0  0  0  3  0  0  0  0  0  0
  -21.9520   -7.2100   21.2830 O   0  0  0  0  0  0  0  0  0  0  0  0
  -21.8490   -6.5110   22.4600 C   0  0  0  0  0  0  0  0  0  0  0  0
  -21.3780   -7.1160   23.6450 C   0  0  0  0  0  3  0  0  0  0  0  0
  -21.2220   -6.3440   24.8160 C   0  0  0  0  0  3  0  0  0  0  0  0
  -21.5300   -4.9700   24.7980 C   0  0  0  0  0  0  0  0  0  0  0  0
  -21.9940   -4.3660   23.6170 C   0  0  0  0  0  3  0  0  0  0  0  0
  -22.1510   -5.1350   22.4500 C   0  0  0  0  0  0  0  0  0  0  0  0
  -22.5790   -4.5430   21.3080 F   0  0  0  0  0  0  0  0  0  0  0  0
  -21.3730   -4.2260   25.9190 F   0  0  0  0  0  0  0  0  0  0  0  0
  -23.1260  -13.8370   21.0160 C   0  0  0  0  0  0  0  0  0  0  0  0
  -22.4330  -13.1420   21.9120 N   0  0  0  0  0  0  0  0  0  0  0  0
  -22.6770  -14.8740   20.5290 O   0  0  0  0  0  0  0  0  0  0  0  0
  -22.8100  -12.3030   22.3250 H   0  0  0  0  0  0  0  0  0  0  0  0
  -21.5120  -13.4540   22.1850 H   0  0  0  0  0  0  0  0  0  0  0  0
  -25.7260  -15.4700   20.0700 N   0  0  0  0  0  0  0  0  0  0  0  0
  -24.9610  -16.1270   20.1830 H   0  0  0  0  0  0  0  0  0  0  0  0
  -26.5450  -15.8820   19.6430 H   0  0  0  0  0  0  0  0  0  0  0  0
  -29.1550  -23.9540   21.1860 C   0  0  0  0  0  2  0  0  0  0  0  0
  -28.8790  -24.9080   20.0130 C   0  0  0  0  0  2  0  0  0  0  0  0
  -29.0950  -26.3770   20.3840 C   0  0  0  0  0  2  0  0  0  0  0  0
  -28.7350  -27.1940   19.2750 O   0  0  0  0  0  0  0  0  0  0  0  0
  -24.8300  -31.7060   23.1420 C   0  0  0  0  0  0  0  0  0  0  0  0
  -27.5380  -27.8400   19.4330 C   0  0  0  0  0  0  0  0  0  0  0  0
  -23.6200  -30.4580   21.3820 C   0  0  0  0  0  3  0  0  0  0  0  0
  -25.0790  -29.1790   19.7240 C   0  0  0  0  0  0  0  0  0  0  0  0
  -26.1110  -30.9690   21.1370 C   0  0  0  0  0  2  0  0  0  0  0  0
  -26.2310  -29.6910   20.3350 C   0  0  0  0  0  0  0  0  0  0  0  0
  -27.4630  -29.0220   20.1970 C   0  0  0  0  0  3  0  0  0  0  0  0
  -26.3770  -27.3320   18.8180 C   0  0  0  0  0  3  0  0  0  0  0  0
  -25.1410  -27.9920   18.9700 C   0  0  0  0  0  3  0  0  0  0  0  0
  -23.7990  -29.9570   19.9220 C   0  0  0  0  0  2  0  0  0  0  0  0
  -24.8740  -31.0520   21.9470 N   0  0  0  0  0  0  0  0  0  0  0  0
  -23.7620  -31.8560   23.7460 O   0  0  0  0  0  0  0  0  0  0  0  0
  -23.0530  -29.2970   22.2280 C   0  0  0  0  0  0  0  0  0  0  0  0
  -21.7330  -29.0750   22.1270 N   0  0  0  0  0  0  0  0  0  0  0  0
  -23.7940  -28.6080   22.9310 O   0  0  0  0  0  0  0  0  0  0  0  0
  -21.1950  -29.6930   21.5360 H   0  0  0  0  0  0  0  0  0  0  0  0
  -18.4300  -27.6760   22.5660 C   0  0  0  0  0  0  0  0  0  0  0  0
  -20.9840  -28.0130   22.7960 C   0  0  0  0  0  3  0  0  0  0  0  0
  -21.1270  -26.6700   22.0420 C   0  0  0  0  0  2  0  0  0  0  0  0
  -20.0040  -26.4240   21.0290 C   0  0  0  0  0  2  0  0  0  0  0  0
  -18.6400  -26.4270   21.7270 C   0  0  0  0  0  2  0  0  0  0  0  0
  -19.5320  -28.4290   23.0550 C   0  0  0  0  0  0  0  0  0  0  0  0
  -19.2850  -29.6010   23.8020 C   0  0  0  0  0  3  0  0  0  0  0  0
  -17.9690  -30.0210   24.0680 C   0  0  0  0  0  3  0  0  0  0  0  0
  -16.8810  -29.2630   23.6010 C   0  0  0  0  0  3  0  0  0  0  0  0
  -17.1130  -28.0940   22.8540 C   0  0  0  0  0  3  0  0  0  0  0  0
  -26.1130  -32.3140   23.7910 C   0  0  0  0  0  3  0  0  0  0  0  0
  -25.7690  -33.6530   24.2810 N   0  0  0  0  0  0  0  0  0  0  0  0
  -26.0650  -34.7950   23.6450 C   0  0  0  0  0  0  0  0  0  0  0  0
  -26.7270  -34.8280   22.6040 O   0  0  0  0  0  0  0  0  0  0  0  0
  -25.1730  -33.6970   25.0950 H   0  0  0  0  0  0  0  0  0  0  0  0
  -24.2790  -36.5600   23.5150 C   0  0  0  0  0  1  0  0  0  0  0  0
  -25.5440  -36.1080   24.2600 C   0  0  0  0  0  3  0  0  0  0  0  0
  -27.6640  -36.9580   25.1590 C   0  0  0  0  0  1  0  0  0  0  0  0
  -26.5420  -37.1980   24.2550 N   0  0  0  0  0  0  0  0  0  0  0  0
  -26.1130  -38.0840   24.5100 H   0  0  0  0  0  0  0  0  0  0  0  0
  -26.7020  -31.4240   24.9530 C   0  0  1  0  0  0  0  0  0  0  0  0
  -25.6550  -31.0150   26.0170 C   0  0  0  0  0  1  0  0  0  0  0  0
  -27.3240  -30.1280   24.3800 C   0  0  0  0  0  1  0  0  0  0  0  0
  -27.8430  -32.1850   25.6690 C   0  0  0  0  0  1  0  0  0  0  0  0
  1  2  2  0
  1  6  1  0
  2  7  1  0
  3  5  1  0
  4  3  1  0
  4 49  1  0
  6  4  2  0
  7  3  2  0
  8  2  1  0
  8  9  1  0
 10  9  1  0
 10 20  1  0
 11 20  1  0
 12 17  1  0
 13 14  1  0
 13 12  1  0
 15 14  1  0
 15 24  1  0
 15 16  1  0
 17 11  1  0
 17 16  1  0
 18 11  2  0
 20 19  1  0
 21 22  2  0
 22 41  1  0
 23 22  1  0
 23 26  1  0
 24 25  1  0
 24 21  1  0
 25 23  2  0
 26 27  1  0
 27 28  2  0
 29 32  1  0
 29 28  1  0
 30 29  2  0
 31 30  1  0
 31 26  2  0
 32 33  1  0
 33 34  1  0
 34 35  2  0
 36 35  1  0
 36 40  1  0
 37 36  2  0
 38 33  2  0
 38 37  1  0
 39 38  1  0
 41 42  1  0
 42 45  1  0
 42 44  1  0
 43 41  2  0
 46 47  1  0
 46 21  1  0
 48 46  1  0
 50 51  1  0
 50 49  1  0
 52 54  1  0
 52 51  1  0
 53 64  2  0
 54 59  1  0
 55 63  1  0
 55 65  1  0
 56 62  1  0
 56 58  1  0
 57 63  1  0
 58 57  1  0
 59 58  2  0
 60 61  1  0
 60 54  2  0
 61 56  2  0
 62 55  1  0
 63 53  1  0
 65 67  2  0
 66 65  1  0
 68 66  1  0
 69 78  2  0
 69 74  1  0
 70 66  1  0
 70 74  1  0
 71 70  1  0
 72 73  1  0
 72 71  1  0
 73 69  1  0
 74 75  2  0
 75 76  1  0
 77 76  2  0
 78 77  1  0
 79 53  1  0
 79 80  1  0
 79 89  1  0
 80 83  1  0
 81 85  1  0
 81 80  1  0
 82 81  2  0
 85 84  1  0
 87 85  1  0
 87 88  1  0
 87 86  1  0
 89 92  1  1
 89 90  1  0
 91 89  1  0
M  ISO  4  11 100  20 100  51 101  52 101
M  END
>  <TORSDO>  (58) 
F 22

>  <SCORE>  (58) 
-10.890

>  <name>  (58) 
62

>  <ligand_id>  (58) 
62

>  <original_smiles>  (58) 
[H]c1nc(C([H])([H])C([H])([H])C([H])([H])Oc2c([H])c([H])c3c(c2[H])C([H])([H])N(C(=O)C([H])(N([H])C(=O)C([H])(N([H])C([H])([H])[H])C([H])([H])[H])C(C([H])([H])[H])(C([H])([H])[H])C([H])([H])[H])C([H])(C(=O)N([H])C2([H])c4c([H])c([H])c([H])c([H])c4C([H])([H])C([H])([H])C2([H])[H])C3([H])[H])c(C([H])([H])[H])nc1C([H])([H])C([H])([H])C([H])([H])N(C(=O)N1C([H])([H])C([H])([H])C([H])([H])C([H])(n2nc(-c3c([H])c([H])c(Oc4c([H])c([H])c(F)c([H])c4F)c([H])c3[H])c(C(=O)N([H])[H])c2N([H])[H])C1([H])[H])C([H])([H])[H]

>  <smiles>  (58) 
[H]c1nc(C([H])([H])C([H])([H])C([H])([H])Oc2c([H])c([H])c3c(c2[H])C([H])([H])N(C(=O)C([H])(N([H])C(=O)C([H])(N([H])C([H])([H])[H])C([H])([H])[H])C(C([H])([H])[H])(C([H])([H])[H])C([H])([H])[H])C([H])(C(=O)N([H])C2([H])c4c([H])c([H])c([H])c([H])c4C([H])([H])C([H])([H])C2([H])[H])C3([H])[H])c(C([H])([H])[H])nc1C([H])([H])C([H])([H])C([H])([H])N(C(=O)N1C([H])([H])C([H])([H])C([H])([H])C([H])(n2nc(-c3c([H])c([H])c(Oc4c([H])c([H])c(F)c([H])c4F)c([H])c3[H])c(C(=O)N([H])[H])c2N([H])[H])C1([H])[H])C([H])([H])[H]

$$$$
63:0:0
     RDKit          3D

 93101  0  0  1  0  0  0  0  0999 V2000
  -27.9530  -18.3240   20.0350 C   0  0  0  0  0  3  0  0  0  0  0  0
  -29.1040  -17.8990   20.7380 C   0  0  0  0  0  0  0  0  0  0  0  0
  -28.4650  -20.5010   20.5480 C   0  0  0  0  0  0  0  0  0  0  0  0
  -27.6390  -19.6420   19.9350 N   0  0  0  0  0  0  0  0  0  0  0  0
  -29.8970  -18.8450   21.3170 N   0  0  0  0  0  0  0  0  0  0  0  0
  -29.5710  -20.1490   21.2300 N   0  0  0  0  0  0  0  0  0  0  0  0
  -29.7200  -15.9670   22.2740 C   0  0  0  0  0  1  0  0  0  0  0  0
  -29.5530  -16.4050   20.7980 C   0  0  0  0  0  3  0  0  0  0  0  0
  -32.0700  -16.5990   20.4940 C   0  0  0  0  0  1  0  0  0  0  0  0
  -30.5910  -16.8050   18.5080 C   0  0  0  0  0  1  0  0  0  0  0  0
  -30.7720  -16.0340   19.8540 C   0  0  2  0  0  0  0  0  0  0  0  0
  -31.1090  -14.5320   19.4340 C   0  0  0  0  0  0  0  0  0  0  0  0
  -30.6220  -12.2700   18.5610 C   0  0  0  0  0  2  0  0  0  0  0  0
  -29.5820  -12.3360   17.4270 C   0  0  0  0  0  2  0  0  0  0  0  0
  -28.1620  -12.2110   18.0080 C   0  0  0  0  0  2  0  0  0  0  0  0
  -27.9310  -13.1680   19.2040 C   0  0  0  0  0  3  0  0  0  0  0  0
  -29.0970  -13.1120   20.2130 C   0  0  0  0  0  2  0  0  0  0  0  0
  -30.3480  -13.3900   19.4970 N   0  0  0  0  0  0  0  0  0  0  0  0
  -32.1970  -14.4510   18.8590 O   0  0  0  0  0  0  0  0  0  0  0  0
  -25.6890  -13.8210   20.2690 C   0  0  0  0  0  0  0  0  0  0  0  0
  -24.6500  -13.0730   20.7490 C   0  0  0  0  0  0  0  0  0  0  0  0
  -25.0420  -11.7070   20.5980 C   0  0  0  0  0  0  0  0  0  0  0  0
  -26.6510  -12.9140   19.8560 N   0  0  0  0  0  0  0  0  0  0  0  0
  -26.2760  -11.6340   20.1150 N   0  0  0  0  0  0  0  0  0  0  0  0
  -24.2910  -10.4670   20.8250 C   0  0  0  0  0  0  0  0  0  0  0  0
  -24.7330   -9.4940   21.7480 C   0  0  0  0  0  3  0  0  0  0  0  0
  -23.9810   -8.3180   21.9630 C   0  0  0  0  0  3  0  0  0  0  0  0
  -22.7740   -8.1080   21.2570 C   0  0  0  0  0  0  0  0  0  0  0  0
  -22.3510   -9.0680   20.3210 C   0  0  0  0  0  3  0  0  0  0  0  0
  -23.1030  -10.2360   20.1050 C   0  0  0  0  0  3  0  0  0  0  0  0
  -21.9940   -6.9840   21.3820 O   0  0  0  0  0  0  0  0  0  0  0  0
  -21.8810   -6.3160   22.5750 C   0  0  0  0  0  0  0  0  0  0  0  0
  -21.4140   -6.9540   23.7450 C   0  0  0  0  0  3  0  0  0  0  0  0
  -21.2450   -6.2130   24.9310 C   0  0  0  0  0  3  0  0  0  0  0  0
  -21.5340   -4.8360   24.9500 C   0  0  0  0  0  0  0  0  0  0  0  0
  -21.9940   -4.1980   23.7850 C   0  0  0  0  0  3  0  0  0  0  0  0
  -22.1640   -4.9350   22.6010 C   0  0  0  0  0  0  0  0  0  0  0  0
  -22.5880   -4.3110   21.4740 F   0  0  0  0  0  0  0  0  0  0  0  0
  -21.3640   -4.1230   26.0870 F   0  0  0  0  0  0  0  0  0  0  0  0
  -23.3240  -13.5880   21.2270 C   0  0  0  0  0  0  0  0  0  0  0  0
  -22.6990  -12.8890   22.1670 N   0  0  0  0  0  0  0  0  0  0  0  0
  -22.8560  -14.6450   20.8020 O   0  0  0  0  0  0  0  0  0  0  0  0
  -23.0920  -12.0320   22.5270 H   0  0  0  0  0  0  0  0  0  0  0  0
  -21.8190  -13.2170   22.5370 H   0  0  0  0  0  0  0  0  0  0  0  0
  -25.8900  -15.1890   20.1200 N   0  0  0  0  0  0  0  0  0  0  0  0
  -25.1460  -15.8550   20.2990 H   0  0  0  0  0  0  0  0  0  0  0  0
  -26.6330  -15.5670   19.5500 H   0  0  0  0  0  0  0  0  0  0  0  0
  -28.1230  -22.0030   20.4620 C   0  0  0  0  0  2  0  0  0  0  0  0
  -29.0150  -22.8150   19.4830 C   0  0  0  0  0  2  0  0  0  0  0  0
  -28.5560  -24.2590   19.0840 C   0  0  0  0  0  2  0  0  0  0  0  0
  -29.7860  -25.3310   21.0840 C   0  0  0  0  0  1  0  0  0  0  0  0
  -28.5560  -25.3740   20.1710 C   0  0  0  0  0  3  0  0  0  0  0  0
  -28.5970  -26.6880   19.5780 O   0  0  0  0  0  0  0  0  0  0  0  0
  -24.8950  -31.5830   23.2110 C   0  0  0  0  0  0  0  0  0  0  0  0
  -27.4490  -27.4430   19.6740 C   0  0  0  0  0  0  0  0  0  0  0  0
  -23.6630  -30.3850   21.4320 C   0  0  0  0  0  3  0  0  0  0  0  0
  -25.0880  -28.9820   19.8470 C   0  0  0  0  0  0  0  0  0  0  0  0
  -26.1980  -30.7150   21.2690 C   0  0  0  0  0  2  0  0  0  0  0  0
  -26.2560  -29.4210   20.4840 C   0  0  0  0  0  0  0  0  0  0  0  0
  -27.4430  -28.6590   20.3910 C   0  0  0  0  0  3  0  0  0  0  0  0
  -26.2670  -27.0160   19.0360 C   0  0  0  0  0  3  0  0  0  0  0  0
  -25.0880  -27.7800   19.1170 C   0  0  0  0  0  3  0  0  0  0  0  0
  -23.8600  -29.8540   19.9870 C   0  0  0  0  0  2  0  0  0  0  0  0
  -24.9370  -30.9030   22.0290 N   0  0  0  0  0  0  0  0  0  0  0  0
  -23.8200  -31.8120   23.7810 O   0  0  0  0  0  0  0  0  0  0  0  0
  -22.9960  -29.2770   22.2790 C   0  0  0  0  0  0  0  0  0  0  0  0
  -21.6670  -29.1370   22.1440 N   0  0  0  0  0  0  0  0  0  0  0  0
  -23.6700  -28.5530   23.0170 O   0  0  0  0  0  0  0  0  0  0  0  0
  -21.1840  -29.7780   21.5300 H   0  0  0  0  0  0  0  0  0  0  0  0
  -18.2760  -27.9500   22.5210 C   0  0  0  0  0  0  0  0  0  0  0  0
  -20.8370  -28.1370   22.8120 C   0  0  0  0  0  3  0  0  0  0  0  0
  -20.9170  -26.7720   22.0900 C   0  0  0  0  0  2  0  0  0  0  0  0
  -19.8110  -26.5720   21.0500 C   0  0  0  0  0  2  0  0  0  0  0  0
  -18.4320  -26.6740   21.7090 C   0  0  0  0  0  2  0  0  0  0  0  0
  -19.4080  -28.6440   23.0260 C   0  0  0  0  0  0  0  0  0  0  0  0
  -19.2140  -29.8400   23.7470 C   0  0  0  0  0  3  0  0  0  0  0  0
  -17.9200  -30.3450   23.9690 C   0  0  0  0  0  3  0  0  0  0  0  0
  -16.8000  -29.6470   23.4830 C   0  0  0  0  0  3  0  0  0  0  0  0
  -16.9800  -28.4510   22.7640 C   0  0  0  0  0  3  0  0  0  0  0  0
  -26.1940  -32.1220   23.8880 C   0  0  0  0  0  3  0  0  0  0  0  0
  -25.9020  -33.4720   24.3890 N   0  0  0  0  0  0  0  0  0  0  0  0
  -26.2380  -34.6060   23.7600 C   0  0  0  0  0  0  0  0  0  0  0  0
  -26.9010  -34.6240   22.7190 O   0  0  0  0  0  0  0  0  0  0  0  0
  -25.3160  -33.5340   25.2080 H   0  0  0  0  0  0  0  0  0  0  0  0
  -24.5240  -36.4440   23.6360 C   0  0  0  0  0  1  0  0  0  0  0  0
  -25.7650  -35.9320   24.3860 C   0  0  0  0  0  3  0  0  0  0  0  0
  -27.9100  -36.6950   25.3030 C   0  0  0  0  0  1  0  0  0  0  0  0
  -26.8040  -36.9830   24.3940 N   0  0  0  0  0  0  0  0  0  0  0  0
  -26.4050  -37.8820   24.6520 H   0  0  0  0  0  0  0  0  0  0  0  0
  -26.7220  -31.1960   25.0540 C   0  0  1  0  0  0  0  0  0  0  0  0
  -25.6450  -30.8430   26.1050 C   0  0  0  0  0  1  0  0  0  0  0  0
  -27.2810  -29.8680   24.4890 C   0  0  0  0  0  1  0  0  0  0  0  0
  -27.8920  -31.8930   25.7880 C   0  0  0  0  0  1  0  0  0  0  0  0
  1  2  2  0
  2  8  1  0
  2  5  1  0
  3  6  1  0
  4  1  1  0
  4  3  2  0
  6  5  2  0
  8  7  1  0
 11 10  1  6
 11  9  1  0
 11  8  1  0
 12 18  1  0
 12 11  1  0
 13 18  1  0
 14 15  1  0
 14 13  1  0
 16 15  1  0
 16 23  1  0
 16 17  1  0
 18 17  1  0
 19 12  2  0
 20 21  2  0
 21 40  1  0
 22 21  1  0
 22 25  1  0
 23 24  1  0
 23 20  1  0
 24 22  2  0
 25 26  1  0
 26 27  2  0
 28 31  1  0
 28 27  1  0
 29 28  2  0
 30 29  1  0
 30 25  2  0
 31 32  1  0
 32 37  2  0
 32 33  1  0
 33 34  2  0
 34 35  1  0
 35 39  1  0
 36 35  2  0
 37 36  1  0
 38 37  1  0
 40 41  1  0
 41 43  1  0
 41 44  1  0
 42 40  2  0
 45 20  1  0
 45 46  1  0
 47 45  1  0
 48  3  1  0
 49 48  1  0
 50 49  1  0
 50 52  1  0
 52 51  1  0
 53 55  1  0
 53 52  1  0
 54 65  2  0
 55 60  1  0
 56 64  1  0
 56 66  1  0
 57 63  1  0
 57 59  1  0
 58 64  1  0
 59 58  1  0
 60 59  2  0
 61 62  1  0
 61 55  2  0
 62 57  2  0
 63 56  1  0
 64 54  1  0
 66 68  2  0
 67 66  1  0
 69 67  1  0
 70 79  2  0
 70 75  1  0
 71 67  1  0
 71 75  1  0
 72 71  1  0
 73 74  1  0
 73 72  1  0
 74 70  1  0
 75 76  2  0
 76 77  1  0
 78 77  2  0
 79 78  1  0
 80 54  1  0
 80 81  1  0
 80 90  1  0
 81 84  1  0
 82 86  1  0
 82 81  1  0
 83 82  2  0
 86 85  1  0
 86 88  1  0
 88 89  1  0
 88 87  1  0
 90 93  1  1
 90 91  1  0
 92 90  1  0
M  ISO  4  11 100  12 100  52 101  53 101
M  END
>  <TORSDO>  (59) 
F 22

>  <SCORE>  (59) 
-10.866

>  <name>  (59) 
63

>  <ligand_id>  (59) 
63

>  <original_smiles>  (59) 
[H]c1nc(C([H])([H])C([H])([H])C([H])([H])C([H])(Oc2c([H])c([H])c3c(c2[H])C([H])([H])N(C(=O)C([H])(N([H])C(=O)C([H])(N([H])C([H])([H])[H])C([H])([H])[H])C(C([H])([H])[H])(C([H])([H])[H])C([H])([H])[H])C([H])(C(=O)N([H])C2([H])c4c([H])c([H])c([H])c([H])c4C([H])([H])C([H])([H])C2([H])[H])C3([H])[H])C([H])([H])[H])nnc1C([H])(C([H])([H])[H])C(C(=O)N1C([H])([H])C([H])([H])C([H])([H])C([H])(n2nc(-c3c([H])c([H])c(Oc4c([H])c([H])c(F)c([H])c4F)c([H])c3[H])c(C(=O)N([H])[H])c2N([H])[H])C1([H])[H])(C([H])([H])[H])C([H])([H])[H]

>  <smiles>  (59) 
[H]c1nc(C([H])([H])C([H])([H])C([H])([H])C([H])(Oc2c([H])c([H])c3c(c2[H])C([H])([H])N(C(=O)C([H])(N([H])C(=O)C([H])(N([H])C([H])([H])[H])C([H])([H])[H])C(C([H])([H])[H])(C([H])([H])[H])C([H])([H])[H])C([H])(C(=O)N([H])C2([H])c4c([H])c([H])c([H])c([H])c4C([H])([H])C([H])([H])C2([H])[H])C3([H])[H])C([H])([H])[H])nnc1C([H])(C([H])([H])[H])C(C(=O)N1C([H])([H])C([H])([H])C([H])([H])C([H])(n2nc(-c3c([H])c([H])c(Oc4c([H])c([H])c(F)c([H])c4F)c([H])c3[H])c(C(=O)N([H])[H])c2N([H])[H])C1([H])[H])(C([H])([H])[H])C([H])([H])[H]

$$$$
65:0:0
     RDKit          3D

 99103  0  0  1  0  0  0  0  0999 V2000
  -23.2350  -24.0540   20.0150 C   0  0  0  0  0  3  0  0  0  0  0  0
  -22.5590  -25.3170   20.5870 C   0  0  0  0  0  3  0  0  0  0  0  0
  -24.5250  -24.2910   21.6860 C   0  0  0  0  0  3  0  0  0  0  0  0
  -24.5460  -23.4440   20.5940 N   0  0  0  0  0  0  0  0  0  0  0  0
  -23.5020  -25.2620   21.6390 N   0  0  2  0  0  4  0  0  0  0  0  0
  -23.4530  -25.9430   22.3850 H   0  0  0  0  0  0  0  0  0  0  0  0
  -26.6350  -23.3610   22.8100 C   0  0  0  0  0  1  0  0  0  0  0  0
  -24.5380  -23.7170   24.1040 C   0  0  0  0  0  1  0  0  0  0  0  0
  -25.8820  -25.6650   23.2870 C   0  0  0  0  0  1  0  0  0  0  0  0
  -25.3930  -24.2470   22.9330 C   0  0  2  0  0  0  0  0  0  0  0  0
  -20.4780  -28.1910   17.7030 C   0  0  0  0  0 15  0  0  0  0  0  0
  -20.2640  -26.7800   21.4320 C   0  0  0  0  0  1  0  0  0  0  0  0
  -21.3550  -26.8760   20.2840 C   0  0  0  0  0  3  0  0  0  0  0  0
  -22.6930  -27.5450   21.2860 C   0  0  0  0  0  3  0  0  0  0  0  0
  -24.1490  -26.8560   21.7960 C   0  0  0  0  0  3  0  0  0  0  0  0
  -25.5700  -27.5540   22.1190 C   0  0  0  0  0  2  0  0  0  0  0  0
  -26.9340  -26.8900   21.4740 C   0  0  0  0  0  2  0  0  0  0  0  0
  -27.8190  -27.5200   20.4180 O   0  0  0  0  0  0  0  0  0  0  0  0
  -25.5170  -32.0450   24.7780 C   0  0  0  0  0  0  0  0  0  0  0  0
  -27.4070  -28.7870   20.2180 C   0  0  0  0  0  0  0  0  0  0  0  0
  -24.2900  -31.7960   22.6770 C   0  0  0  0  0  3  0  0  0  0  0  0
  -25.5290  -30.7600   20.7050 C   0  0  0  0  0  0  0  0  0  0  0  0
  -26.8160  -31.6360   22.6790 C   0  0  0  0  0  2  0  0  0  0  0  0
  -26.6880  -30.6990   21.4940 C   0  0  0  0  0  0  0  0  0  0  0  0
  -27.6620  -29.7180   21.2370 C   0  0  0  0  0  3  0  0  0  0  0  0
  -26.3480  -28.9560   19.3100 C   0  0  0  0  0  3  0  0  0  0  0  0
  -25.3710  -29.9220   19.5850 C   0  0  0  0  0  3  0  0  0  0  0  0
  -24.4810  -31.7530   21.1350 C   0  0  0  0  0  2  0  0  0  0  0  0
  -25.5620  -31.8280   23.4340 N   0  0  0  0  0  0  0  0  0  0  0  0
  -24.4460  -32.2680   25.3650 O   0  0  0  0  0  0  0  0  0  0  0  0
  -23.4790  -30.5930   23.1250 C   0  0  0  0  0  0  0  0  0  0  0  0
  -22.1850  -30.6930   22.9350 N   0  0  0  0  0  0  0  0  0  0  0  0
  -24.0110  -29.5940   23.6140 O   0  0  0  0  0  0  0  0  0  0  0  0
  -21.7710  -31.5430   22.5810 H   0  0  0  0  0  0  0  0  0  0  0  0
  -18.5980  -29.0410   22.8850 C   0  0  0  0  0  0  0  0  0  0  0  0
  -21.4960  -29.4660   22.7840 C   0  0  0  0  0  2  0  0  0  0  0  0
  -21.8490  -29.0220   20.7860 C   0  0  0  0  0  1  0  0  0  0  0  0
  -20.0750  -28.2110   19.9240 C   0  0  0  0  0  1  0  0  0  0  0  0
  -18.5850  -28.1330   21.2870 C   0  0  0  0  0  1  0  0  0  0  0  0
  -19.8950  -29.5790   23.5450 C   0  0  0  0  0  0  0  0  0  0  0  0
  -19.7610  -30.6420   24.5270 C   0  0  0  0  0  3  0  0  0  0  0  0
  -18.5510  -31.2990   24.8580 C   0  0  0  0  0  3  0  0  0  0  0  0
  -17.3820  -30.9130   24.1880 C   0  0  0  0  0  3  0  0  0  0  0  0
  -17.4240  -29.8370   23.2440 C   0  0  0  0  0  3  0  0  0  0  0  0
  -26.8140  -32.0560   25.6290 C   0  0  0  0  0  3  0  0  0  0  0  0
  -26.8730  -30.8930   26.6920 C   0  0  1  0  0  0  0  0  0  0  0  0
  -25.5800  -30.7350   27.5250 C   0  0  0  0  0  1  0  0  0  0  0  0
  -27.1570  -29.5370   26.0010 C   0  0  0  0  0  1  0  0  0  0  0  0
  -28.0450  -31.1510   27.6670 C   0  0  0  0  0  1  0  0  0  0  0  0
  -26.8780  -33.3670   26.2810 N   0  0  0  0  0  0  0  0  0  0  0  0
  -27.5190  -34.4250   25.7730 C   0  0  0  0  0  0  0  0  0  0  0  0
  -28.1980  -34.3660   24.7440 O   0  0  0  0  0  0  0  0  0  0  0  0
  -26.3000  -33.4970   27.0980 H   0  0  0  0  0  0  0  0  0  0  0  0
  -26.3060  -36.6240   25.8790 C   0  0  0  0  0  1  0  0  0  0  0  0
  -27.3960  -35.7580   26.5320 C   0  0  0  0  0  3  0  0  0  0  0  0
  -29.6870  -35.8580   27.4070 C   0  0  0  0  0  1  0  0  0  0  0  0
  -28.6650  -36.5140   26.5950 N   0  0  0  0  0  0  0  0  0  0  0  0
  -28.5100  -37.4450   26.9720 H   0  0  0  0  0  0  0  0  0  0  0  0
  -25.8030  -22.0940   20.1090 C   0  0  0  0  0  1  0  0  0  0  0  0
  -27.0450  -20.6450   20.7470 C   0  0  0  0  0 15  0  0  0  0  0  0
  -28.4560  -19.3530   20.1400 C   0  0  0  0  0  1  0  0  0  0  0  0
  -30.8090  -17.0940   20.7190 C   0  0  0  0  0  0  0  0  0  0  0  0
  -31.9650  -14.6700   20.4060 C   0  0  0  0  0  2  0  0  0  0  0  0
  -31.4370  -13.9590   19.1200 C   0  0  0  0  0  2  0  0  0  0  0  0
  -29.9980  -13.4420   19.3140 C   0  0  0  0  0  2  0  0  0  0  0  0
  -29.1790  -14.4680   20.1240 C   0  0  0  0  0  3  0  0  0  0  0  0
  -29.8560  -14.8810   21.4230 C   0  0  0  0  0  2  0  0  0  0  0  0
  -30.9320  -15.6790   20.9310 N   0  0  0  0  0  0  0  0  0  0  0  0
  -31.9930  -17.4910   20.5140 O   0  0  0  0  0  0  0  0  0  0  0  0
  -29.4230  -17.8880   20.6520 N   0  0  0  0  0  0  0  0  0  0  0  0
  -28.7410  -17.2220   21.0000 H   0  0  0  0  0  0  0  0  0  0  0  0
  -26.7600  -14.9160   20.6070 C   0  0  0  0  0  0  0  0  0  0  0  0
  -25.7200  -14.0780   20.8670 C   0  0  0  0  0  0  0  0  0  0  0  0
  -26.2640  -12.7560   20.8670 C   0  0  0  0  0  0  0  0  0  0  0  0
  -27.8440  -14.0830   20.4280 N   0  0  0  0  0  0  0  0  0  0  0  0
  -27.5700  -12.7850   20.6680 N   0  0  0  0  0  0  0  0  0  0  0  0
  -25.6110  -11.4540   20.9660 C   0  0  0  0  0  0  0  0  0  0  0  0
  -25.8490  -10.5900   22.0560 C   0  0  0  0  0  3  0  0  0  0  0  0
  -25.1910   -9.3440   22.1260 C   0  0  0  0  0  3  0  0  0  0  0  0
  -24.2900   -8.9600   21.1050 C   0  0  0  0  0  0  0  0  0  0  0  0
  -24.0840   -9.8150   20.0100 C   0  0  0  0  0  3  0  0  0  0  0  0
  -24.7420  -11.0510   19.9370 C   0  0  0  0  0  3  0  0  0  0  0  0
  -23.6240   -7.7600   21.0780 O   0  0  0  0  0  0  0  0  0  0  0  0
  -22.9470   -7.2910   22.1740 C   0  0  0  0  0  0  0  0  0  0  0  0
  -21.9130   -8.0340   22.7870 C   0  0  0  0  0  3  0  0  0  0  0  0
  -21.1940   -7.4810   23.8660 C   0  0  0  0  0  3  0  0  0  0  0  0
  -21.5050   -6.1870   24.3280 C   0  0  0  0  0  0  0  0  0  0  0  0
  -22.5340   -5.4470   23.7180 C   0  0  0  0  0  3  0  0  0  0  0  0
  -23.2490   -5.9970   22.6410 C   0  0  0  0  0  0  0  0  0  0  0  0
  -24.2240   -5.2730   22.0400 F   0  0  0  0  0  0  0  0  0  0  0  0
  -20.8120   -5.6520   25.3600 F   0  0  0  0  0  0  0  0  0  0  0  0
  -24.2850  -14.4750   20.9950 C   0  0  0  0  0  0  0  0  0  0  0  0
  -23.5330  -13.7660   21.8270 N   0  0  0  0  0  0  0  0  0  0  0  0
  -23.8380  -15.4470   20.3890 O   0  0  0  0  0  0  0  0  0  0  0  0
  -23.9150  -12.9820   22.3370 H   0  0  0  0  0  0  0  0  0  0  0  0
  -22.5600  -14.0080   21.9600 H   0  0  0  0  0  0  0  0  0  0  0  0
  -26.8710  -16.3000   20.4760 N   0  0  0  0  0  0  0  0  0  0  0  0
  -26.0260  -16.8600   20.4500 H   0  0  0  0  0  0  0  0  0  0  0  0
  -27.6470  -16.7460   20.0060 H   0  0  0  0  0  0  0  0  0  0  0  0
  1  2  2  0
  1  4  1  0
  2  5  1  0
  3 10  1  0
  4  3  1  0
  5  3  1  0
  5 15  1  0
  5  6  1  1
 10  7  1  6
 10  9  1  0
 10  8  1  0
 13 14  1  0
 13 12  1  0
 14 37  1  0
 14 15  1  0
 15 16  1  0
 17 16  1  0
 18 17  1  0
 19 30  2  0
 20 18  1  0
 20 25  1  0
 21 31  1  0
 21 29  1  0
 22 28  1  0
 22 24  1  0
 23 29  1  0
 24 23  1  0
 25 24  2  0
 26 27  1  0
 26 20  2  0
 27 22  2  0
 28 21  1  0
 29 19  1  0
 31 33  2  0
 32 31  1  0
 34 32  1  0
 35 44  2  0
 35 40  1  0
 36 32  1  0
 36 40  1  0
 38 13  1  0
 39 35  1  0
 40 41  2  0
 41 42  1  0
 43 42  2  0
 44 43  1  0
 45 19  1  0
 45 50  1  0
 45 46  1  0
 46 47  1  1
 46 49  1  0
 48 46  1  0
 50 53  1  0
 51 50  1  0
 51 55  1  0
 52 51  2  0
 55 54  1  0
 55 57  1  0
 57 58  1  0
 57 56  1  0
 59  4  1  0
 61 70  1  0
 62 68  1  0
 63 68  1  0
 64 65  1  0
 64 63  1  0
 66 65  1  0
 66 75  1  0
 66 67  1  0
 68 67  1  0
 69 62  2  0
 70 62  1  0
 70 71  1  0
 72 73  2  0
 73 92  1  0
 74 73  1  0
 74 77  1  0
 75 72  1  0
 75 76  1  0
 76 74  2  0
 77 78  1  0
 78 79  2  0
 80 79  1  0
 81 80  2  0
 82 81  1  0
 82 77  2  0
 83 80  1  0
 83 84  1  0
 84 89  2  0
 84 85  1  0
 85 86  2  0
 86 87  1  0
 87 91  1  0
 88 87  2  0
 89 88  1  0
 90 89  1  0
 92 93  1  0
 93 96  1  0
 93 95  1  0
 94 92  2  0
 97 72  1  0
 98 97  1  0
 99 97  1  0
M  ISO  4  17 101  18 101  62 100  70 100
M  END
>  <TORSDO>  (60) 
F 25

>  <SCORE>  (60) 
2.292

>  <name>  (60) 
65

>  <ligand_id>  (60) 
65

>  <original_smiles>  (60) 
[H]c1c([H])c([H])c2c(c1[H])C([H])([H])C([H])([H])C([H])([H])C2([H])N([H])C(=O)C1([H])N(C(=O)C([H])(N([H])C(=O)C([H])(N([H])C([H])([H])[H])C([H])([H])[H])C(C([H])([H])[H])(C([H])([H])[H])C([H])([H])[H])C([H])([H])c2c([H])c(OC([H])([H])C([H])([H])C([H])([H])C([H])([H])C(c3c([H])n(C([H])([H])C([H])([H])C([H])([H])N([H])C(=O)N4C([H])([H])C([H])([H])C([H])([H])C([H])(n5nc(-c6c([H])c([H])c(Oc7c([H])c([H])c(F)c([H])c7F)c([H])c6[H])c(C(=O)N([H])[H])c5N([H])[H])C4([H])[H])c(C(C([H])([H])[H])(C([H])([H])[H])C([H])([H])[H])[n+]3[H])(C([H])([H])[H])C([H])([H])[H])c([H])c([H])c2C1([H])[H]

>  <smiles>  (60) 
[H]c1c([H])c([H])c2c(c1[H])C([H])([H])C([H])([H])C([H])([H])C2([H])N([H])C(=O)C1([H])N(C(=O)C([H])(N([H])C(=O)C([H])(N([H])C([H])([H])[H])C([H])([H])[H])C(C([H])([H])[H])(C([H])([H])[H])C([H])([H])[H])C([H])([H])c2c([H])c(OC([H])([H])C([H])([H])C([H])([H])C([H])([H])C(c3c([H])n(C([H])([H])C([H])([H])C([H])([H])N([H])C(=O)N4C([H])([H])C([H])([H])C([H])([H])C([H])(n5nc(-c6c([H])c([H])c(Oc7c([H])c([H])c(F)c([H])c7F)c([H])c6[H])c(C(=O)N([H])[H])c5N([H])[H])C4([H])[H])c(C(C([H])([H])[H])(C([H])([H])[H])C([H])([H])[H])[n+]3[H])(C([H])([H])[H])C([H])([H])[H])c([H])c([H])c2C1([H])[H]

$$$$
66:0:0
     RDKit          3D

 98107  0  0  1  0  0  0  0  0999 V2000
  -29.6200  -21.8590   19.5830 C   0  0  0  0  0  3  0  0  0  0  0  0
  -30.3950  -21.0200   21.6770 C   0  0  0  0  0  3  0  0  0  0  0  0
  -30.2900  -22.1020   20.7930 C   0  0  0  0  0  0  0  0  0  0  0  0
  -29.3480  -19.6640   20.1550 C   0  0  0  0  0  0  0  0  0  0  0  0
  -29.1490  -20.6390   19.2760 N   0  0  0  0  0  0  0  0  0  0  0  0
  -29.9250  -19.8040   21.3430 N   0  0  0  0  0  0  0  0  0  0  0  0
  -27.5560  -17.8940   20.4010 C   0  0  0  0  0  1  0  0  0  0  0  0
  -28.9030  -18.2540   19.7550 C   0  0  0  0  0  3  0  0  0  0  0  0
  -30.0180  -17.1980   20.0060 C   0  0  0  0  0  2  0  0  0  0  0  0
  -31.3300  -15.3090   18.9200 C   0  0  0  0  0  0  0  0  0  0  0  0
  -32.0910  -15.2480   17.7610 C   0  0  0  0  0  0  0  0  0  0  0  0
  -30.8860  -17.0140   17.5870 C   0  0  0  0  0  0  0  0  0  0  0  0
  -30.4530  -18.3140   16.9700 C   0  0  0  0  0  1  0  0  0  0  0  0
  -31.7270  -16.2620   16.8980 N   0  0  0  0  0  0  0  0  0  0  0  0
  -30.6430  -16.5410   18.8460 N   0  0  0  0  0  0  0  0  0  0  0  0
  -31.4830  -14.5180   20.1900 C   0  0  0  0  0  0  0  0  0  0  0  0
  -31.0220  -12.2160   19.5640 C   0  0  0  0  0  2  0  0  0  0  0  0
  -30.1730  -12.2730   18.2780 C   0  0  0  0  0  2  0  0  0  0  0  0
  -28.6830  -12.3400   18.6190 C   0  0  0  0  0  2  0  0  0  0  0  0
  -28.3360  -13.3810   19.7160 C   0  0  0  0  0  3  0  0  0  0  0  0
  -29.3390  -13.3440   20.8940 C   0  0  0  0  0  2  0  0  0  0  0  0
  -30.7130  -13.4070   20.3570 N   0  0  0  0  0  0  0  0  0  0  0  0
  -32.6230  -14.6100   20.6210 O   0  0  0  0  0  0  0  0  0  0  0  0
  -25.9380  -14.1350   20.2680 C   0  0  0  0  0  0  0  0  0  0  0  0
  -24.8050  -13.4330   20.5930 C   0  0  0  0  0  0  0  0  0  0  0  0
  -25.1950  -12.0630   20.6450 C   0  0  0  0  0  0  0  0  0  0  0  0
  -26.9500  -13.1980   20.1510 N   0  0  0  0  0  0  0  0  0  0  0  0
  -26.5010  -11.9490   20.4430 N   0  0  0  0  0  0  0  0  0  0  0  0
  -24.3930  -10.8450   20.8180 C   0  0  0  0  0  0  0  0  0  0  0  0
  -24.7390   -9.8540   21.7630 C   0  0  0  0  0  3  0  0  0  0  0  0
  -23.9350   -8.7050   21.9250 C   0  0  0  0  0  3  0  0  0  0  0  0
  -22.7710   -8.5360   21.1380 C   0  0  0  0  0  0  0  0  0  0  0  0
  -22.4440   -9.5110   20.1800 C   0  0  0  0  0  3  0  0  0  0  0  0
  -23.2470  -10.6520   20.0190 C   0  0  0  0  0  3  0  0  0  0  0  0
  -21.9440   -7.4400   21.2110 O   0  0  0  0  0  0  0  0  0  0  0  0
  -21.8330   -6.7000   22.3580 C   0  0  0  0  0  0  0  0  0  0  0  0
  -21.4400   -7.2790   23.5860 C   0  0  0  0  0  3  0  0  0  0  0  0
  -21.2710   -6.4690   24.7260 C   0  0  0  0  0  3  0  0  0  0  0  0
  -21.4860   -5.0800   24.6400 C   0  0  0  0  0  0  0  0  0  0  0  0
  -21.8730   -4.5020   23.4190 C   0  0  0  0  0  3  0  0  0  0  0  0
  -22.0420   -5.3100   22.2800 C   0  0  0  0  0  0  0  0  0  0  0  0
  -22.3950   -4.7430   21.1000 F   0  0  0  0  0  0  0  0  0  0  0  0
  -21.3180   -4.2980   25.7330 F   0  0  0  0  0  0  0  0  0  0  0  0
  -23.4170  -13.9950   20.7300 C   0  0  0  0  0  0  0  0  0  0  0  0
  -22.5940  -13.3880   21.5790 N   0  0  0  0  0  0  0  0  0  0  0  0
  -23.0650  -15.0050   20.1230 O   0  0  0  0  0  0  0  0  0  0  0  0
  -22.8750  -12.5700   22.0990 H   0  0  0  0  0  0  0  0  0  0  0  0
  -21.6580  -13.7430   21.7040 H   0  0  0  0  0  0  0  0  0  0  0  0
  -26.1760  -15.4800   20.0200 N   0  0  0  0  0  0  0  0  0  0  0  0
  -25.4290  -16.1650   20.0260 H   0  0  0  0  0  0  0  0  0  0  0  0
  -27.0410  -15.8410   19.6400 H   0  0  0  0  0  0  0  0  0  0  0  0
  -33.3220  -13.7140   16.1010 C   0  0  0  0  0  1  0  0  0  0  0  0
  -33.3370  -14.4560   17.4490 C   0  0  0  0  0  2  0  0  0  0  0  0
  -30.9160  -23.4530   21.1090 C   0  0  0  0  0  2  0  0  0  0  0  0
  -29.9200  -24.6040   20.9950 C   0  0  0  0  0  2  0  0  0  0  0  0
  -30.5880  -25.9800   20.8140 C   0  0  0  0  0  2  0  0  0  0  0  0
  -29.5470  -27.0980   20.9290 C   0  0  0  0  0  2  0  0  0  0  0  0
  -28.3870  -26.6640   20.2190 O   0  0  0  0  0  0  0  0  0  0  0  0
  -24.5790  -31.9060   23.2280 C   0  0  0  0  0  0  0  0  0  0  0  0
  -27.2330  -27.4010   20.3080 C   0  0  0  0  0  0  0  0  0  0  0  0
  -23.3590  -30.4480   21.6350 C   0  0  0  0  0  3  0  0  0  0  0  0
  -24.8120  -28.8460   20.2880 C   0  0  0  0  0  0  0  0  0  0  0  0
  -25.8780  -30.8000   21.4260 C   0  0  0  0  0  2  0  0  0  0  0  0
  -25.9630  -29.4080   20.8500 C   0  0  0  0  0  0  0  0  0  0  0  0
  -27.1760  -28.6960   20.8650 C   0  0  0  0  0  3  0  0  0  0  0  0
  -26.0630  -26.8270   19.7690 C   0  0  0  0  0  3  0  0  0  0  0  0
  -24.8550  -27.5480   19.7500 C   0  0  0  0  0  3  0  0  0  0  0  0
  -23.5680  -29.7030   20.2860 C   0  0  0  0  0  2  0  0  0  0  0  0
  -24.6220  -31.0670   22.1550 N   0  0  0  0  0  0  0  0  0  0  0  0
  -23.5020  -32.2090   23.7580 O   0  0  0  0  0  0  0  0  0  0  0  0
  -22.7030  -29.4740   22.6350 C   0  0  0  0  0  0  0  0  0  0  0  0
  -21.3850  -29.2670   22.4830 N   0  0  0  0  0  0  0  0  0  0  0  0
  -23.3780  -28.9010   23.4930 O   0  0  0  0  0  0  0  0  0  0  0  0
  -20.9030  -29.7810   21.7580 H   0  0  0  0  0  0  0  0  0  0  0  0
  -18.0290  -28.0190   22.9300 C   0  0  0  0  0  0  0  0  0  0  0  0
  -20.5650  -28.3600   23.2850 C   0  0  0  0  0  3  0  0  0  0  0  0
  -20.7270  -26.8980   22.8120 C   0  0  0  0  0  2  0  0  0  0  0  0
  -19.6740  -26.4780   21.7810 C   0  0  0  0  0  2  0  0  0  0  0  0
  -18.2630  -26.6310   22.3540 C   0  0  0  0  0  2  0  0  0  0  0  0
  -19.1110  -28.8330   23.3540 C   0  0  0  0  0  0  0  0  0  0  0  0
  -18.8460  -30.1280   23.8500 C   0  0  0  0  0  3  0  0  0  0  0  0
  -17.5250  -30.6100   23.9260 C   0  0  0  0  0  3  0  0  0  0  0  0
  -16.4550  -29.7950   23.5180 C   0  0  0  0  0  3  0  0  0  0  0  0
  -16.7050  -28.5010   23.0270 C   0  0  0  0  0  3  0  0  0  0  0  0
  -25.8740  -32.5470   23.8220 C   0  0  0  0  0  3  0  0  0  0  0  0
  -25.5590  -33.9410   24.1630 N   0  0  0  0  0  0  0  0  0  0  0  0
  -25.8750  -34.9990   23.4040 C   0  0  0  0  0  0  0  0  0  0  0  0
  -26.5380  -34.9100   22.3660 O   0  0  0  0  0  0  0  0  0  0  0  0
  -24.9720  -34.0880   24.9710 H   0  0  0  0  0  0  0  0  0  0  0  0
  -24.1250  -36.7740   23.0680 C   0  0  0  0  0  1  0  0  0  0  0  0
  -25.3760  -36.3800   23.8690 C   0  0  0  0  0  3  0  0  0  0  0  0
  -27.5090  -37.2810   24.6900 C   0  0  0  0  0  1  0  0  0  0  0  0
  -26.3980  -37.4440   23.7560 N   0  0  0  0  0  0  0  0  0  0  0  0
  -25.9860  -38.3590   23.9180 H   0  0  0  0  0  0  0  0  0  0  0  0
  -26.4350  -31.7690   25.0770 C   0  0  1  0  0  0  0  0  0  0  0  0
  -25.3720  -31.5030   26.1650 C   0  0  0  0  0  1  0  0  0  0  0  0
  -27.0370  -30.4070   24.6570 C   0  0  0  0  0  1  0  0  0  0  0  0
  -27.5800  -32.5810   25.7310 C   0  0  0  0  0  1  0  0  0  0  0  0
  1  3  2  0
  3 54  1  0
  3  2  1  0
  4  6  1  0
  5  1  1  0
  5  4  2  0
  6  2  2  0
  8  9  1  0
  8  4  1  0
  8  7  1  0
 10 16  1  0
 11 10  2  0
 12 15  1  0
 13 12  1  0
 14 12  2  0
 14 11  1  0
 15 10  1  0
 15  9  1  0
 16 22  1  0
 16 23  2  0
 17 22  1  0
 18 19  1  0
 18 17  1  0
 20 19  1  0
 20 27  1  0
 20 21  1  0
 22 21  1  0
 24 25  2  0
 25 26  1  0
 25 44  1  0
 26 29  1  0
 27 24  1  0
 27 28  1  0
 28 26  2  0
 29 30  1  0
 30 31  2  0
 32 35  1  0
 32 31  1  0
 33 32  2  0
 34 33  1  0
 34 29  2  0
 35 36  1  0
 36 37  1  0
 37 38  2  0
 39 38  1  0
 39 43  1  0
 40 39  2  0
 41 36  2  0
 41 40  1  0
 42 41  1  0
 44 45  1  0
 45 48  1  0
 45 47  1  0
 46 44  2  0
 49 50  1  0
 49 24  1  0
 51 49  1  0
 52 53  1  0
 53 11  1  0
 55 54  1  0
 56 57  1  0
 56 55  1  0
 58 60  1  0
 58 57  1  0
 59 70  2  0
 60 65  1  0
 61 69  1  0
 61 71  1  0
 62 64  1  0
 63 69  1  0
 64 65  2  0
 64 63  1  0
 66 60  2  0
 67 66  1  0
 67 62  2  0
 68 62  1  0
 68 61  1  0
 69 59  1  0
 71 73  2  0
 72 71  1  0
 74 72  1  0
 75 84  2  0
 75 80  1  0
 76 72  1  0
 76 80  1  0
 77 76  1  0
 78 79  1  0
 78 77  1  0
 79 75  1  0
 80 81  2  0
 81 82  1  0
 83 82  2  0
 84 83  1  0
 85 59  1  0
 85 86  1  0
 85 95  1  0
 86 89  1  0
 87 91  1  0
 87 86  1  0
 88 87  2  0
 91 90  1  0
 93 91  1  0
 93 94  1  0
 93 92  1  0
 95 98  1  1
 95 96  1  0
 97 95  1  0
M  ISO  4  10 100  16 100  57 101  58 101
M  END
>  <TORSDO>  (61) 
F 24

>  <SCORE>  (61) 
-12.022

>  <name>  (61) 
66

>  <ligand_id>  (61) 
66

>  <original_smiles>  (61) 
[H]c1nc(C([H])(C([H])([H])[H])C([H])([H])n2c(C([H])([H])[H])nc(C([H])([H])C([H])([H])[H])c2C(=O)N2C([H])([H])C([H])([H])C([H])([H])C([H])(n3nc(-c4c([H])c([H])c(Oc5c([H])c([H])c(F)c([H])c5F)c([H])c4[H])c(C(=O)N([H])[H])c3N([H])[H])C2([H])[H])nc([H])c1C([H])([H])C([H])([H])C([H])([H])C([H])([H])Oc1c([H])c([H])c2c(c1[H])C([H])([H])N(C(=O)C([H])(N([H])C(=O)C([H])(N([H])C([H])([H])[H])C([H])([H])[H])C(C([H])([H])[H])(C([H])([H])[H])C([H])([H])[H])C([H])(C(=O)N([H])C1([H])c3c([H])c([H])c([H])c([H])c3C([H])([H])C([H])([H])C1([H])[H])C2([H])[H]

>  <smiles>  (61) 
[H]c1nc(C([H])(C([H])([H])[H])C([H])([H])n2c(C([H])([H])[H])nc(C([H])([H])C([H])([H])[H])c2C(=O)N2C([H])([H])C([H])([H])C([H])([H])C([H])(n3nc(-c4c([H])c([H])c(Oc5c([H])c([H])c(F)c([H])c5F)c([H])c4[H])c(C(=O)N([H])[H])c3N([H])[H])C2([H])[H])nc([H])c1C([H])([H])C([H])([H])C([H])([H])C([H])([H])Oc1c([H])c([H])c2c(c1[H])C([H])([H])N(C(=O)C([H])(N([H])C(=O)C([H])(N([H])C([H])([H])[H])C([H])([H])[H])C(C([H])([H])[H])(C([H])([H])[H])C([H])([H])[H])C([H])(C(=O)N([H])C1([H])c3c([H])c([H])c([H])c([H])c3C([H])([H])C([H])([H])C1([H])[H])C2([H])[H]

$$$$
67:0:0
     RDKit          3D

 93101  0  0  1  0  0  0  0  0999 V2000
  -27.3300  -21.9920   20.1210 C   0  0  0  0  0  2  0  0  0  0  0  0
  -27.0430  -20.1240   18.4540 C   0  0  0  0  0  1  0  0  0  0  0  0
  -27.0800  -20.4700   19.9560 C   0  0  0  0  0  3  0  0  0  0  0  0
  -28.1110  -19.5740   20.6830 C   0  0  0  0  0  2  0  0  0  0  0  0
  -27.5820  -18.1510   20.9700 C   0  0  0  0  0  2  0  0  0  0  0  0
  -29.9420  -15.5850   21.1980 C   0  0  0  0  0  0  0  0  0  0  0  0
  -29.2840  -17.0320   22.5170 C   0  0  0  0  0  3  0  0  0  0  0  0
  -29.0510  -17.8880   23.7180 C   0  0  0  0  0  1  0  0  0  0  0  0
  -30.1490  -16.0150   22.4800 N   0  0  0  0  0  0  0  0  0  0  0  0
  -29.0810  -16.2970   20.4710 N   0  0  0  0  0  2  0  0  0  0  0  0
  -28.6310  -17.2140   21.3590 N   0  0  0  0  0  0  0  0  0  0  0  0
  -30.7040  -14.4300   20.5820 C   0  0  0  0  0  0  0  0  0  0  0  0
  -30.4290  -12.2850   19.4040 C   0  0  0  0  0  2  0  0  0  0  0  0
  -29.4930  -12.5020   18.1970 C   0  0  0  0  0  2  0  0  0  0  0  0
  -28.0120  -12.3660   18.6120 C   0  0  0  0  0  2  0  0  0  0  0  0
  -27.6660  -13.1940   19.8780 C   0  0  0  0  0  3  0  0  0  0  0  0
  -28.7120  -12.9520   20.9900 C   0  0  0  0  0  2  0  0  0  0  0  0
  -30.0440  -13.2510   20.4390 N   0  0  0  0  0  0  0  0  0  0  0  0
  -31.8290  -14.6380   20.1080 O   0  0  0  0  0  0  0  0  0  0  0  0
  -25.2660  -13.8120   20.5680 C   0  0  0  0  0  0  0  0  0  0  0  0
  -24.1890  -13.0430   20.9160 C   0  0  0  0  0  0  0  0  0  0  0  0
  -24.6420  -11.6880   20.8740 C   0  0  0  0  0  0  0  0  0  0  0  0
  -26.3080  -12.9260   20.3400 N   0  0  0  0  0  0  0  0  0  0  0  0
  -25.9350  -11.6440   20.5780 N   0  0  0  0  0  0  0  0  0  0  0  0
  -23.9060  -10.4290   21.0410 C   0  0  0  0  0  0  0  0  0  0  0  0
  -24.3610   -9.4200   21.9180 C   0  0  0  0  0  3  0  0  0  0  0  0
  -23.6300   -8.2240   22.0740 C   0  0  0  0  0  3  0  0  0  0  0  0
  -22.4280   -8.0290   21.3550 C   0  0  0  0  0  0  0  0  0  0  0  0
  -21.9910   -9.0250   20.4640 C   0  0  0  0  0  3  0  0  0  0  0  0
  -22.7230  -10.2130   20.3050 C   0  0  0  0  0  3  0  0  0  0  0  0
  -21.6660   -6.8880   21.4240 O   0  0  0  0  0  0  0  0  0  0  0  0
  -21.6860   -6.0760   22.5280 C   0  0  0  0  0  0  0  0  0  0  0  0
  -21.4010   -6.5660   23.8220 C   0  0  0  0  0  3  0  0  0  0  0  0
  -21.3660   -5.6810   24.9180 C   0  0  0  0  0  3  0  0  0  0  0  0
  -21.6050   -4.3080   24.7230 C   0  0  0  0  0  0  0  0  0  0  0  0
  -21.8830   -3.8170   23.4350 C   0  0  0  0  0  3  0  0  0  0  0  0
  -21.9200   -4.6990   22.3400 C   0  0  0  0  0  0  0  0  0  0  0  0
  -22.1670   -4.2190   21.0980 F   0  0  0  0  0  0  0  0  0  0  0  0
  -21.5620   -3.4540   25.7730 F   0  0  0  0  0  0  0  0  0  0  0  0
  -22.7910  -13.5220   21.1840 C   0  0  0  0  0  0  0  0  0  0  0  0
  -22.0550  -12.8210   22.0380 N   0  0  0  0  0  0  0  0  0  0  0  0
  -22.3590  -14.5520   20.6670 O   0  0  0  0  0  0  0  0  0  0  0  0
  -22.4140  -11.9850   22.4760 H   0  0  0  0  0  0  0  0  0  0  0  0
  -21.1160  -13.1260   22.2580 H   0  0  0  0  0  0  0  0  0  0  0  0
  -25.4500  -15.1840   20.4080 N   0  0  0  0  0  0  0  0  0  0  0  0
  -24.6940  -15.8520   20.5070 H   0  0  0  0  0  0  0  0  0  0  0  0
  -26.3280  -15.5980   20.1160 H   0  0  0  0  0  0  0  0  0  0  0  0
  -25.8040  -22.2810   22.1690 C   0  0  0  0  0  1  0  0  0  0  0  0
  -27.1760  -22.5960   21.5420 C   0  0  0  0  0  3  0  0  0  0  0  0
  -27.3490  -24.1300   21.5060 C   0  0  0  0  0  2  0  0  0  0  0  0
  -28.7810  -24.6360   21.2470 C   0  0  0  0  0  2  0  0  0  0  0  0
  -28.8800  -26.1750   21.2450 C   0  0  0  0  0  2  0  0  0  0  0  0
  -28.3850  -26.7070   20.0180 O   0  0  0  0  0  0  0  0  0  0  0  0
  -24.6130  -31.8730   23.2150 C   0  0  0  0  0  0  0  0  0  0  0  0
  -27.2370  -27.4560   20.0990 C   0  0  0  0  0  0  0  0  0  0  0  0
  -23.4020  -30.4950   21.5550 C   0  0  0  0  0  3  0  0  0  0  0  0
  -24.8500  -28.9600   20.1230 C   0  0  0  0  0  0  0  0  0  0  0  0
  -25.9310  -30.8380   21.3740 C   0  0  0  0  0  2  0  0  0  0  0  0
  -26.0070  -29.4720   20.7260 C   0  0  0  0  0  0  0  0  0  0  0  0
  -27.2040  -28.7250   20.7200 C   0  0  0  0  0  3  0  0  0  0  0  0
  -26.0700  -26.9530   19.4930 C   0  0  0  0  0  3  0  0  0  0  0  0
  -24.8730  -27.6940   19.5080 C   0  0  0  0  0  3  0  0  0  0  0  0
  -23.6140  -29.8290   20.1690 C   0  0  0  0  0  2  0  0  0  0  0  0
  -24.6660  -31.0830   22.1050 N   0  0  0  0  0  0  0  0  0  0  0  0
  -23.5320  -32.1490   23.7540 O   0  0  0  0  0  0  0  0  0  0  0  0
  -22.7390  -29.4690   22.5020 C   0  0  0  0  0  0  0  0  0  0  0  0
  -21.4130  -29.3040   22.3750 N   0  0  0  0  0  0  0  0  0  0  0  0
  -23.4150  -28.8220   23.3080 O   0  0  0  0  0  0  0  0  0  0  0  0
  -20.9260  -29.8790   21.7010 H   0  0  0  0  0  0  0  0  0  0  0  0
  -18.0280  -28.1350   22.8530 C   0  0  0  0  0  0  0  0  0  0  0  0
  -20.5870  -28.3660   23.1350 C   0  0  0  0  0  3  0  0  0  0  0  0
  -20.6770  -26.9390   22.5450 C   0  0  0  0  0  2  0  0  0  0  0  0
  -19.5750  -26.6370   21.5230 C   0  0  0  0  0  2  0  0  0  0  0  0
  -18.1920  -26.7910   22.1620 C   0  0  0  0  0  2  0  0  0  0  0  0
  -19.1530  -28.8820   23.2950 C   0  0  0  0  0  0  0  0  0  0  0  0
  -18.9460  -30.1420   23.8950 C   0  0  0  0  0  3  0  0  0  0  0  0
  -17.6470  -30.6570   24.0590 C   0  0  0  0  0  3  0  0  0  0  0  0
  -16.5360  -29.9080   23.6340 C   0  0  0  0  0  3  0  0  0  0  0  0
  -16.7270  -28.6480   23.0390 C   0  0  0  0  0  3  0  0  0  0  0  0
  -25.9020  -32.4830   23.8460 C   0  0  0  0  0  3  0  0  0  0  0  0
  -25.5910  -33.8630   24.2390 N   0  0  0  0  0  0  0  0  0  0  0  0
  -25.9030  -34.9470   23.5160 C   0  0  0  0  0  0  0  0  0  0  0  0
  -26.5570  -34.8920   22.4710 O   0  0  0  0  0  0  0  0  0  0  0  0
  -25.0110  -33.9840   25.0560 H   0  0  0  0  0  0  0  0  0  0  0  0
  -24.1490  -36.7300   23.2660 C   0  0  0  0  0  1  0  0  0  0  0  0
  -25.4110  -36.3120   24.0360 C   0  0  0  0  0  3  0  0  0  0  0  0
  -27.5580  -37.1800   24.8480 C   0  0  0  0  0  1  0  0  0  0  0  0
  -26.4300  -37.3790   23.9420 N   0  0  0  0  0  0  0  0  0  0  0  0
  -26.0190  -38.2870   24.1410 H   0  0  0  0  0  0  0  0  0  0  0  0
  -26.4490  -31.6570   25.0740 C   0  0  1  0  0  0  0  0  0  0  0  0
  -25.3800  -31.3590   26.1510 C   0  0  0  0  0  1  0  0  0  0  0  0
  -27.0350  -30.3040   24.6060 C   0  0  0  0  0  1  0  0  0  0  0  0
  -27.6090  -32.4320   25.7440 C   0  0  0  0  0  1  0  0  0  0  0  0
  1 49  1  0
  3  2  1  0
  3  1  1  0
  3  4  1  0
  4  5  1  0
  5 11  1  0
  6  9  2  0
  7  8  1  0
  9  7  1  0
 10  6  1  0
 10 11  1  0
 11  7  1  0
 12  6  1  0
 13 18  1  0
 14 15  1  0
 14 13  1  0
 16 15  1  0
 16 23  1  0
 16 17  1  0
 18 12  1  0
 18 17  1  0
 19 12  2  0
 20 21  2  0
 21 40  1  0
 22 21  1  0
 22 25  1  0
 23 20  1  0
 23 24  1  0
 24 22  2  0
 25 26  1  0
 26 27  2  0
 28 31  1  0
 28 27  1  0
 29 28  2  0
 30 29  1  0
 30 25  2  0
 31 32  1  0
 32 33  1  0
 33 34  2  0
 35 34  1  0
 35 39  1  0
 36 35  2  0
 37 32  2  0
 37 36  1  0
 38 37  1  0
 40 41  1  0
 41 44  1  0
 41 43  1  0
 42 40  2  0
 45 46  1  0
 45 20  1  0
 47 45  1  0
 49 48  1  0
 50 49  1  0
 51 50  1  0
 52 51  1  0
 53 55  1  0
 53 52  1  0
 54 65  2  0
 55 60  1  0
 56 64  1  0
 56 66  1  0
 57 63  1  0
 57 59  1  0
 58 64  1  0
 59 58  1  0
 60 59  2  0
 61 62  1  0
 61 55  2  0
 62 57  2  0
 63 56  1  0
 64 54  1  0
 66 68  2  0
 67 66  1  0
 69 67  1  0
 70 79  2  0
 70 75  1  0
 71 67  1  0
 71 75  1  0
 72 71  1  0
 73 74  1  0
 73 72  1  0
 74 70  1  0
 75 76  2  0
 76 77  1  0
 78 77  2  0
 79 78  1  0
 80 54  1  0
 80 81  1  0
 80 90  1  0
 81 84  1  0
 82 86  1  0
 82 81  1  0
 83 82  2  0
 86 85  1  0
 88 86  1  0
 88 89  1  0
 88 87  1  0
 90 93  1  1
 90 91  1  0
 92 90  1  0
M  ISO  4   6 100  12 100  52 101  53 101
M  END
>  <TORSDO>  (62) 
F 24

>  <SCORE>  (62) 
-2.674

>  <name>  (62) 
67

>  <ligand_id>  (62) 
67

>  <original_smiles>  (62) 
[H]c1c([H])c([H])c2c(c1[H])C([H])([H])C([H])([H])C([H])([H])C2([H])N([H])C(=O)C1([H])N(C(=O)C([H])(N([H])C(=O)C([H])(N([H])C([H])([H])[H])C([H])([H])[H])C(C([H])([H])[H])(C([H])([H])[H])C([H])([H])[H])C([H])([H])c2c([H])c(OC([H])([H])C([H])([H])C([H])([H])C([H])(C([H])([H])[H])C([H])([H])C([H])(C([H])([H])[H])C([H])([H])C([H])([H])n3nc(C(=O)N4C([H])([H])C([H])([H])C([H])([H])C([H])(n5nc(-c6c([H])c([H])c(Oc7c([H])c([H])c(F)c([H])c7F)c([H])c6[H])c(C(=O)N([H])[H])c5N([H])[H])C4([H])[H])nc3C([H])([H])[H])c([H])c([H])c2C1([H])[H]

>  <smiles>  (62) 
[H]c1c([H])c([H])c2c(c1[H])C([H])([H])C([H])([H])C([H])([H])C2([H])N([H])C(=O)C1([H])N(C(=O)C([H])(N([H])C(=O)C([H])(N([H])C([H])([H])[H])C([H])([H])[H])C(C([H])([H])[H])(C([H])([H])[H])C([H])([H])[H])C([H])([H])c2c([H])c(OC([H])([H])C([H])([H])C([H])([H])C([H])(C([H])([H])[H])C([H])([H])C([H])(C([H])([H])[H])C([H])([H])C([H])([H])n3nc(C(=O)N4C([H])([H])C([H])([H])C([H])([H])C([H])(n5nc(-c6c([H])c([H])c(Oc7c([H])c([H])c(F)c([H])c7F)c([H])c6[H])c(C(=O)N([H])[H])c5N([H])[H])C4([H])[H])nc3C([H])([H])[H])c([H])c([H])c2C1([H])[H]

$$$$
68:0:0
     RDKit          3D

 92100  0  0  1  0  0  0  0  0999 V2000
  -29.8840  -23.4540   18.6800 C   0  0  0  0  0  1  0  0  0  0  0  0
  -28.6300  -22.9310   19.4270 C   0  0  2  0  0  0  0  0  0  0  0  0
  -29.8010  -20.3790   18.9210 C   0  0  0  0  0  3  0  0  0  0  0  0
  -28.6450  -20.4130   20.8610 C   0  0  0  0  0  3  0  0  0  0  0  0
  -29.0480  -21.2830   19.7900 C   0  0  0  0  0  0  0  0  0  0  0  0
  -29.5950  -18.2390   20.0870 C   0  0  0  0  0  0  0  0  0  0  0  0
  -30.0770  -18.9970   19.0660 N   0  0  0  0  0  0  0  0  0  0  0  0
  -28.9170  -19.0340   20.9810 N   0  0  0  0  0  0  0  0  0  0  0  0
  -31.3140  -16.9290   21.3970 C   0  0  0  0  0  1  0  0  0  0  0  0
  -28.9600  -16.2180   21.5950 C   0  0  0  0  0  1  0  0  0  0  0  0
  -30.0420  -16.6240   20.5680 C   0  0  1  0  0  0  0  0  0  0  0  0
  -30.5170  -15.1320   19.7600 C   0  0  0  0  0  0  0  0  0  0  0  0
  -30.3380  -12.7520   18.7290 C   0  0  0  0  0  2  0  0  0  0  0  0
  -29.2910  -12.6850   17.5840 C   0  0  0  0  0  2  0  0  0  0  0  0
  -27.8630  -12.4610   18.1240 C   0  0  0  0  0  2  0  0  0  0  0  0
  -27.5840  -13.3280   19.3800 C   0  0  0  0  0  3  0  0  0  0  0  0
  -28.7440  -13.2530   20.3890 C   0  0  0  0  0  2  0  0  0  0  0  0
  -29.9330  -13.8260   19.7160 N   0  0  0  0  0  0  0  0  0  0  0  0
  -31.6170  -15.1400   19.1810 O   0  0  0  0  0  0  0  0  0  0  0  0
  -25.2980  -13.9110   20.3700 C   0  0  0  0  0  0  0  0  0  0  0  0
  -24.2640  -13.1440   20.8250 C   0  0  0  0  0  0  0  0  0  0  0  0
  -24.6950  -11.7870   20.7000 C   0  0  0  0  0  0  0  0  0  0  0  0
  -26.2960  -13.0260   19.9960 N   0  0  0  0  0  0  0  0  0  0  0  0
  -25.9480  -11.7390   20.2580 N   0  0  0  0  0  0  0  0  0  0  0  0
  -23.9580  -10.5340   20.9160 C   0  0  0  0  0  0  0  0  0  0  0  0
  -24.4150   -9.5530   21.8250 C   0  0  0  0  0  3  0  0  0  0  0  0
  -23.6770   -8.3670   22.0300 C   0  0  0  0  0  3  0  0  0  0  0  0
  -22.4670   -8.1540   21.3280 C   0  0  0  0  0  0  0  0  0  0  0  0
  -22.0270   -9.1240   20.4110 C   0  0  0  0  0  3  0  0  0  0  0  0
  -22.7660  -10.3000   20.2030 C   0  0  0  0  0  3  0  0  0  0  0  0
  -21.6990   -7.0200   21.4450 O   0  0  0  0  0  0  0  0  0  0  0  0
  -21.6400   -6.3080   22.6160 C   0  0  0  0  0  0  0  0  0  0  0  0
  -21.2260   -6.9010   23.8290 C   0  0  0  0  0  3  0  0  0  0  0  0
  -21.1100   -6.1150   24.9920 C   0  0  0  0  0  3  0  0  0  0  0  0
  -21.4030   -4.7380   24.9470 C   0  0  0  0  0  0  0  0  0  0  0  0
  -21.8130   -4.1460   23.7390 C   0  0  0  0  0  3  0  0  0  0  0  0
  -21.9280   -4.9280   22.5770 C   0  0  0  0  0  0  0  0  0  0  0  0
  -22.3010   -4.3460   21.4110 F   0  0  0  0  0  0  0  0  0  0  0  0
  -21.2870   -3.9830   26.0630 F   0  0  0  0  0  0  0  0  0  0  0  0
  -22.9110  -13.6420   21.2460 C   0  0  0  0  0  0  0  0  0  0  0  0
  -22.2540  -12.9460   22.1670 N   0  0  0  0  0  0  0  0  0  0  0  0
  -22.4480  -14.6890   20.7950 O   0  0  0  0  0  0  0  0  0  0  0  0
  -22.6430  -12.1080   22.5740 H   0  0  0  0  0  0  0  0  0  0  0  0
  -21.3490  -13.2710   22.4800 H   0  0  0  0  0  0  0  0  0  0  0  0
  -25.4590  -15.2840   20.2120 N   0  0  0  0  0  0  0  0  0  0  0  0
  -24.6960  -15.9230   20.4060 H   0  0  0  0  0  0  0  0  0  0  0  0
  -26.2300  -15.7260   19.7300 H   0  0  0  0  0  0  0  0  0  0  0  0
  -27.4770  -23.5970   17.1260 C   0  0  0  0  0  1  0  0  0  0  0  0
  -26.7100  -21.4850   18.2490 C   0  0  0  0  0  1  0  0  0  0  0  0
  -27.3500  -22.8720   18.4820 C   0  0  0  0  0  3  0  0  0  0  0  0
  -28.2630  -24.3300   20.4420 C   0  0  0  0  0  2  0  0  0  0  0  0
  -28.3270  -25.9310   20.1830 O   0  0  0  0  0  0  0  0  0  0  0  0
  -24.5890  -31.7590   23.1280 C   0  0  0  0  0  0  0  0  0  0  0  0
  -27.2520  -26.9340   20.1960 C   0  0  0  0  0  0  0  0  0  0  0  0
  -23.4330  -30.3270   21.4930 C   0  0  0  0  0  3  0  0  0  0  0  0
  -24.9180  -28.7290   20.1100 C   0  0  0  0  0  0  0  0  0  0  0  0
  -25.9920  -30.5870   21.3660 C   0  0  0  0  0  2  0  0  0  0  0  0
  -26.0900  -29.1740   20.7350 C   0  0  0  0  0  0  0  0  0  0  0  0
  -27.2570  -28.2990   20.7470 C   0  0  0  0  0  3  0  0  0  0  0  0
  -26.0450  -26.6130   19.5410 C   0  0  0  0  0  3  0  0  0  0  0  0
  -24.9180  -27.4670   19.4930 C   0  0  0  0  0  3  0  0  0  0  0  0
  -23.6850  -29.6240   20.1280 C   0  0  0  0  0  2  0  0  0  0  0  0
  -24.6920  -30.9170   22.0500 N   0  0  0  0  0  0  0  0  0  0  0  0
  -23.4900  -32.0400   23.6350 O   0  0  0  0  0  0  0  0  0  0  0  0
  -22.7430  -29.3350   22.4610 C   0  0  0  0  0  0  0  0  0  0  0  0
  -21.4100  -29.1860   22.3510 N   0  0  0  0  0  0  0  0  0  0  0  0
  -23.4130  -28.6960   23.2770 O   0  0  0  0  0  0  0  0  0  0  0  0
  -20.9240  -29.7490   21.6680 H   0  0  0  0  0  0  0  0  0  0  0  0
  -18.0210  -28.0290   22.9020 C   0  0  0  0  0  0  0  0  0  0  0  0
  -20.5880  -28.2510   23.1230 C   0  0  0  0  0  3  0  0  0  0  0  0
  -20.6570  -26.8260   22.5260 C   0  0  0  0  0  2  0  0  0  0  0  0
  -19.5320  -26.5310   21.5300 C   0  0  0  0  0  2  0  0  0  0  0  0
  -18.1660  -26.6860   22.2040 C   0  0  0  0  0  2  0  0  0  0  0  0
  -19.1570  -28.7700   23.3190 C   0  0  0  0  0  0  0  0  0  0  0  0
  -18.9660  -30.0260   23.9360 C   0  0  0  0  0  3  0  0  0  0  0  0
  -17.6720  -30.5380   24.1400 C   0  0  0  0  0  3  0  0  0  0  0  0
  -16.5490  -29.7930   23.7390 C   0  0  0  0  0  3  0  0  0  0  0  0
  -16.7240  -28.5420   23.1230 C   0  0  0  0  0  3  0  0  0  0  0  0
  -25.8450  -32.4250   23.7680 C   0  0  0  0  0  3  0  0  0  0  0  0
  -26.3530  -31.6690   25.0580 C   0  0  1  0  0  0  0  0  0  0  0  0
  -25.2490  -31.4250   26.1150 C   0  0  0  0  0  1  0  0  0  0  0  0
  -26.9590  -30.2950   24.6880 C   0  0  0  0  0  1  0  0  0  0  0  0
  -27.4800  -32.4830   25.7310 C   0  0  0  0  0  1  0  0  0  0  0  0
  -25.4990  -33.8190   24.1010 N   0  0  0  0  0  0  0  0  0  0  0  0
  -25.8080  -34.8860   23.3500 C   0  0  0  0  0  0  0  0  0  0  0  0
  -26.4810  -34.8010   22.3200 O   0  0  0  0  0  0  0  0  0  0  0  0
  -24.9020  -33.9580   24.9020 H   0  0  0  0  0  0  0  0  0  0  0  0
  -24.0460  -36.6540   23.0170 C   0  0  0  0  0  1  0  0  0  0  0  0
  -25.2980  -36.2640   23.8200 C   0  0  0  0  0  3  0  0  0  0  0  0
  -27.4170  -37.1940   24.6440 C   0  0  0  0  0  1  0  0  0  0  0  0
  -26.3080  -37.3380   23.7060 N   0  0  0  0  0  0  0  0  0  0  0  0
  -25.8840  -38.2480   23.8550 H   0  0  0  0  0  0  0  0  0  0  0  0
  2  1  1  6
  2  5  1  0
  2 51  1  0
  3  7  1  0
  3  5  2  0
  4  8  2  0
  5  4  1  0
  6 11  1  0
  6  8  1  0
  7  6  2  0
 11  9  1  1
 11 10  1  0
 12 11  1  0
 13 18  1  0
 14 15  1  0
 14 13  1  0
 16 15  1  0
 16 23  1  0
 16 17  1  0
 18 12  1  0
 18 17  1  0
 19 12  2  0
 20 21  2  0
 21 40  1  0
 22 21  1  0
 22 25  1  0
 23 24  1  0
 23 20  1  0
 24 22  2  0
 25 26  1  0
 26 27  2  0
 28 31  1  0
 28 27  1  0
 29 28  2  0
 30 29  1  0
 30 25  2  0
 31 32  1  0
 32 33  1  0
 33 34  2  0
 35 34  1  0
 35 39  1  0
 36 35  2  0
 37 32  2  0
 37 36  1  0
 38 37  1  0
 40 41  1  0
 41 44  1  0
 41 43  1  0
 42 40  2  0
 45 20  1  0
 45 46  1  0
 47 45  1  0
 48 50  1  0
 49 50  1  0
 50  2  1  0
 52 54  1  0
 52 51  1  0
 53 64  2  0
 54 59  1  0
 55 63  1  0
 55 65  1  0
 56 62  1  0
 56 58  1  0
 57 63  1  0
 58 59  2  0
 58 57  1  0
 60 54  2  0
 61 60  1  0
 61 56  2  0
 62 55  1  0
 63 53  1  0
 65 67  2  0
 66 65  1  0
 68 66  1  0
 69 78  2  0
 69 74  1  0
 70 66  1  0
 70 74  1  0
 71 70  1  0
 72 73  1  0
 72 71  1  0
 73 69  1  0
 74 75  2  0
 75 76  1  0
 77 76  2  0
 78 77  1  0
 79 53  1  0
 79 84  1  0
 79 80  1  0
 80 83  1  1
 80 81  1  0
 82 80  1  0
 84 87  1  0
 85 89  1  0
 85 84  1  0
 86 85  2  0
 89 88  1  0
 91 89  1  0
 91 92  1  0
 91 90  1  0
M  ISO  4  11 100  12 100  51 101  52 101
M  END
>  <TORSDO>  (63) 
F 20

>  <SCORE>  (63) 
-14.381

>  <name>  (63) 
68

>  <ligand_id>  (63) 
68

>  <original_smiles>  (63) 
[H]c1nc(C(C(=O)N2C([H])([H])C([H])([H])C([H])([H])C([H])(n3nc(-c4c([H])c([H])c(Oc5c([H])c([H])c(F)c([H])c5F)c([H])c4[H])c(C(=O)N([H])[H])c3N([H])[H])C2([H])[H])(C([H])([H])[H])C([H])([H])[H])nc([H])c1C(C([H])([H])[H])(C([H])([H])Oc1c([H])c([H])c2c(c1[H])C([H])([H])N(C(=O)C([H])(N([H])C(=O)C([H])(N([H])C([H])([H])[H])C([H])([H])[H])C(C([H])([H])[H])(C([H])([H])[H])C([H])([H])[H])C([H])(C(=O)N([H])C1([H])c3c([H])c([H])c([H])c([H])c3C([H])([H])C([H])([H])C1([H])[H])C2([H])[H])C([H])(C([H])([H])[H])C([H])([H])[H]

>  <smiles>  (63) 
[H]c1nc(C(C(=O)N2C([H])([H])C([H])([H])C([H])([H])C([H])(n3nc(-c4c([H])c([H])c(Oc5c([H])c([H])c(F)c([H])c5F)c([H])c4[H])c(C(=O)N([H])[H])c3N([H])[H])C2([H])[H])(C([H])([H])[H])C([H])([H])[H])nc([H])c1C(C([H])([H])[H])(C([H])([H])Oc1c([H])c([H])c2c(c1[H])C([H])([H])N(C(=O)C([H])(N([H])C(=O)C([H])(N([H])C([H])([H])[H])C([H])([H])[H])C(C([H])([H])[H])(C([H])([H])[H])C([H])([H])[H])C([H])(C(=O)N([H])C1([H])c3c([H])c([H])c([H])c([H])c3C([H])([H])C([H])([H])C1([H])[H])C2([H])[H])C([H])(C([H])([H])[H])C([H])([H])[H]

$$$$
69:0:0
     RDKit          3D

 92100  0  0  1  0  0  0  0  0999 V2000
  -28.3290  -20.4650   19.7310 C   0  0  0  0  0  3  0  0  0  0  0  0
  -30.0740  -20.5820   21.3140 C   0  0  0  0  0  3  0  0  0  0  0  0
  -29.0140  -21.2500   20.6730 C   0  0  0  0  0  0  0  0  0  0  0  0
  -29.6850  -18.6210   20.1310 C   0  0  0  0  0  0  0  0  0  0  0  0
  -28.6660  -19.1840   19.4730 N   0  0  0  0  0  0  0  0  0  0  0  0
  -30.4060  -19.2970   21.0290 N   0  0  0  0  0  0  0  0  0  0  0  0
  -31.5530  -17.5160   18.9230 C   0  0  0  0  0  1  0  0  0  0  0  0
  -29.2630  -16.7310   18.4800 C   0  0  0  0  0  1  0  0  0  0  0  0
  -30.2010  -17.2110   19.6280 C   0  0  2  0  0  0  0  0  0  0  0  0
  -28.9600  -15.9860   21.5520 C   0  0  0  0  0  1  0  0  0  0  0  0
  -31.3670  -16.3070   21.7920 C   0  0  0  0  0  1  0  0  0  0  0  0
  -30.2720  -16.0060   20.7300 C   0  0  2  0  0  0  0  0  0  0  0  0
  -30.7070  -14.5890   20.1050 C   0  0  0  0  0  0  0  0  0  0  0  0
  -30.2960  -12.4310   18.9400 C   0  0  0  0  0  2  0  0  0  0  0  0
  -29.3030  -12.6250   17.7740 C   0  0  0  0  0  2  0  0  0  0  0  0
  -27.8480  -12.4810   18.2640 C   0  0  0  0  0  2  0  0  0  0  0  0
  -27.5750  -13.2880   19.5600 C   0  0  0  0  0  3  0  0  0  0  0  0
  -28.6880  -13.0440   20.5990 C   0  0  0  0  0  2  0  0  0  0  0  0
  -29.9720  -13.4280   19.9910 N   0  0  0  0  0  0  0  0  0  0  0  0
  -31.8300  -14.5930   19.5960 O   0  0  0  0  0  0  0  0  0  0  0  0
  -25.2170  -13.8840   20.3960 C   0  0  0  0  0  0  0  0  0  0  0  0
  -24.1710  -13.1090   20.8140 C   0  0  0  0  0  0  0  0  0  0  0  0
  -24.6320  -11.7570   20.7500 C   0  0  0  0  0  0  0  0  0  0  0  0
  -26.2510  -13.0060   20.1060 N   0  0  0  0  0  0  0  0  0  0  0  0
  -25.9050  -11.7220   20.3790 N   0  0  0  0  0  0  0  0  0  0  0  0
  -23.9150  -10.4920   20.9610 C   0  0  0  0  0  0  0  0  0  0  0  0
  -24.3770   -9.5290   21.8840 C   0  0  0  0  0  3  0  0  0  0  0  0
  -23.6600   -8.3280   22.0820 C   0  0  0  0  0  3  0  0  0  0  0  0
  -22.4680   -8.0860   21.3590 C   0  0  0  0  0  0  0  0  0  0  0  0
  -22.0260   -9.0380   20.4240 C   0  0  0  0  0  3  0  0  0  0  0  0
  -22.7440  -10.2290   20.2240 C   0  0  0  0  0  3  0  0  0  0  0  0
  -21.7190   -6.9390   21.4690 O   0  0  0  0  0  0  0  0  0  0  0  0
  -21.6850   -6.2110   22.6310 C   0  0  0  0  0  0  0  0  0  0  0  0
  -21.2710   -6.7790   23.8560 C   0  0  0  0  0  3  0  0  0  0  0  0
  -21.1870   -5.9760   25.0100 C   0  0  0  0  0  3  0  0  0  0  0  0
  -21.5040   -4.6070   24.9410 C   0  0  0  0  0  0  0  0  0  0  0  0
  -21.9080   -4.0380   23.7210 C   0  0  0  0  0  3  0  0  0  0  0  0
  -21.9970   -4.8380   22.5680 C   0  0  0  0  0  0  0  0  0  0  0  0
  -22.3670   -4.2810   21.3900 F   0  0  0  0  0  0  0  0  0  0  0  0
  -21.4150   -3.8330   26.0480 F   0  0  0  0  0  0  0  0  0  0  0  0
  -22.7880  -13.5820   21.1540 C   0  0  0  0  0  0  0  0  0  0  0  0
  -22.0980  -12.8780   22.0440 N   0  0  0  0  0  0  0  0  0  0  0  0
  -22.3280  -14.6140   20.6660 O   0  0  0  0  0  0  0  0  0  0  0  0
  -22.4830  -12.0490   22.4710 H   0  0  0  0  0  0  0  0  0  0  0  0
  -21.1680  -13.1760   22.3060 H   0  0  0  0  0  0  0  0  0  0  0  0
  -25.3670  -15.2570   20.2170 N   0  0  0  0  0  0  0  0  0  0  0  0
  -24.5980  -15.9010   20.3700 H   0  0  0  0  0  0  0  0  0  0  0  0
  -26.1830  -15.7070   19.8250 H   0  0  0  0  0  0  0  0  0  0  0  0
  -28.4850  -22.6440   21.1020 C   0  0  0  0  0  2  0  0  0  0  0  0
  -29.1040  -23.9770   20.5350 C   0  0  0  0  0  2  0  0  0  0  0  0
  -28.0480  -25.1370   20.5990 C   0  0  0  0  0  2  0  0  0  0  0  0
  -28.3830  -26.5270   20.2650 O   0  0  0  0  0  0  0  0  0  0  0  0
  -24.5540  -31.8630   23.1970 C   0  0  0  0  0  0  0  0  0  0  0  0
  -27.2710  -27.3680   20.1860 C   0  0  0  0  0  0  0  0  0  0  0  0
  -23.3960  -30.4490   21.5380 C   0  0  0  0  0  3  0  0  0  0  0  0
  -24.8890  -28.9280   20.1400 C   0  0  0  0  0  0  0  0  0  0  0  0
  -25.9340  -30.8030   21.4040 C   0  0  0  0  0  2  0  0  0  0  0  0
  -26.0400  -29.4310   20.7610 C   0  0  0  0  0  0  0  0  0  0  0  0
  -27.2370  -28.6600   20.7820 C   0  0  0  0  0  3  0  0  0  0  0  0
  -26.1020  -26.9250   19.5210 C   0  0  0  0  0  3  0  0  0  0  0  0
  -24.9190  -27.6770   19.5130 C   0  0  0  0  0  3  0  0  0  0  0  0
  -23.6440  -29.7840   20.1610 C   0  0  0  0  0  2  0  0  0  0  0  0
  -24.6450  -31.0530   22.1050 N   0  0  0  0  0  0  0  0  0  0  0  0
  -23.4570  -32.1320   23.7080 O   0  0  0  0  0  0  0  0  0  0  0  0
  -22.7300  -29.4210   22.4830 C   0  0  0  0  0  0  0  0  0  0  0  0
  -21.4090  -29.2290   22.3290 N   0  0  0  0  0  0  0  0  0  0  0  0
  -23.3990  -28.8030   23.3140 O   0  0  0  0  0  0  0  0  0  0  0  0
  -20.9300  -29.7790   21.6290 H   0  0  0  0  0  0  0  0  0  0  0  0
  -18.0330  -28.0060   22.7690 C   0  0  0  0  0  0  0  0  0  0  0  0
  -20.5830  -28.2890   23.0890 C   0  0  0  0  0  3  0  0  0  0  0  0
  -20.7110  -26.8540   22.5270 C   0  0  0  0  0  2  0  0  0  0  0  0
  -19.6330  -26.5170   21.4910 C   0  0  0  0  0  2  0  0  0  0  0  0
  -18.2370  -26.6560   22.1050 C   0  0  0  0  0  2  0  0  0  0  0  0
  -19.1370  -28.7810   23.2170 C   0  0  0  0  0  0  0  0  0  0  0  0
  -18.8950  -30.0450   23.7960 C   0  0  0  0  0  3  0  0  0  0  0  0
  -17.5820  -30.5340   23.9340 C   0  0  0  0  0  3  0  0  0  0  0  0
  -16.4940  -29.7600   23.4990 C   0  0  0  0  0  3  0  0  0  0  0  0
  -16.7200  -28.4970   22.9220 C   0  0  0  0  0  3  0  0  0  0  0  0
  -25.8190  -32.5070   23.8410 C   0  0  0  0  0  3  0  0  0  0  0  0
  -25.4870  -33.9010   24.1680 N   0  0  0  0  0  0  0  0  0  0  0  0
  -25.8210  -34.9580   23.4150 C   0  0  0  0  0  0  0  0  0  0  0  0
  -26.5130  -34.8630   22.3970 O   0  0  0  0  0  0  0  0  0  0  0  0
  -24.8770  -34.0500   24.9580 H   0  0  0  0  0  0  0  0  0  0  0  0
  -24.0820  -36.7340   23.0200 C   0  0  0  0  0  1  0  0  0  0  0  0
  -25.3070  -36.3400   23.8630 C   0  0  0  0  0  3  0  0  0  0  0  0
  -27.4080  -37.2450   24.7520 C   0  0  0  0  0  1  0  0  0  0  0  0
  -26.3300  -37.4040   23.7790 N   0  0  0  0  0  0  0  0  0  0  0  0
  -25.9090  -38.3180   23.9220 H   0  0  0  0  0  0  0  0  0  0  0  0
  -26.3260  -31.7370   25.1220 C   0  0  1  0  0  0  0  0  0  0  0  0
  -25.2210  -31.4750   26.1720 C   0  0  0  0  0  1  0  0  0  0  0  0
  -26.9340  -30.3690   24.7340 C   0  0  0  0  0  1  0  0  0  0  0  0
  -27.4550  -32.5440   25.8040 C   0  0  0  0  0  1  0  0  0  0  0  0
  1  3  2  0
  3 49  1  0
  3  2  1  0
  4  6  1  0
  5  1  1  0
  5  4  2  0
  6  2  2  0
  9  7  1  6
  8  9  1  0
  9  4  1  0
  9 12  1  0
 12 10  1  1
 12 11  1  0
 13 12  1  0
 14 19  1  0
 15 16  1  0
 15 14  1  0
 17 16  1  0
 17 24  1  0
 17 18  1  0
 19 13  1  0
 19 18  1  0
 20 13  2  0
 21 22  2  0
 22 41  1  0
 23 22  1  0
 23 26  1  0
 24 25  1  0
 24 21  1  0
 25 23  2  0
 26 27  1  0
 27 28  2  0
 29 32  1  0
 29 28  1  0
 30 29  2  0
 31 30  1  0
 31 26  2  0
 32 33  1  0
 33 34  1  0
 34 35  2  0
 36 35  1  0
 36 40  1  0
 37 36  2  0
 38 33  2  0
 38 37  1  0
 39 38  1  0
 41 42  1  0
 42 45  1  0
 42 44  1  0
 43 41  2  0
 46 47  1  0
 46 21  1  0
 48 46  1  0
 50 51  1  0
 50 49  1  0
 52 51  1  0
 53 64  2  0
 54 52  1  0
 54 59  1  0
 55 63  1  0
 55 65  1  0
 56 62  1  0
 56 58  1  0
 57 63  1  0
 58 59  2  0
 58 57  1  0
 60 54  2  0
 61 60  1  0
 61 56  2  0
 62 55  1  0
 63 53  1  0
 65 67  2  0
 66 65  1  0
 68 66  1  0
 69 78  2  0
 69 74  1  0
 70 66  1  0
 70 74  1  0
 71 70  1  0
 72 73  1  0
 72 71  1  0
 73 69  1  0
 74 75  2  0
 75 76  1  0
 77 76  2  0
 78 77  1  0
 79 53  1  0
 79 80  1  0
 79 89  1  0
 80 83  1  0
 81 85  1  0
 81 80  1  0
 82 81  2  0
 85 84  1  0
 87 85  1  0
 87 88  1  0
 87 86  1  0
 89 92  1  1
 89 90  1  0
 91 89  1  0
M  ISO  4  12 100  13 100  51 101  52 101
M  END
>  <TORSDO>  (64) 
F 21

>  <SCORE>  (64) 
-12.898

>  <name>  (64) 
69

>  <ligand_id>  (64) 
69

>  <original_smiles>  (64) 
[H]c1nc(C(C([H])([H])[H])(C([H])([H])[H])C(C(=O)N2C([H])([H])C([H])([H])C([H])([H])C([H])(n3nc(-c4c([H])c([H])c(Oc5c([H])c([H])c(F)c([H])c5F)c([H])c4[H])c(C(=O)N([H])[H])c3N([H])[H])C2([H])[H])(C([H])([H])[H])C([H])([H])[H])nc([H])c1C([H])([H])C([H])([H])C([H])([H])Oc1c([H])c([H])c2c(c1[H])C([H])([H])N(C(=O)C([H])(N([H])C(=O)C([H])(N([H])C([H])([H])[H])C([H])([H])[H])C(C([H])([H])[H])(C([H])([H])[H])C([H])([H])[H])C([H])(C(=O)N([H])C1([H])c3c([H])c([H])c([H])c([H])c3C([H])([H])C([H])([H])C1([H])[H])C2([H])[H]

>  <smiles>  (64) 
[H]c1nc(C(C([H])([H])[H])(C([H])([H])[H])C(C(=O)N2C([H])([H])C([H])([H])C([H])([H])C([H])(n3nc(-c4c([H])c([H])c(Oc5c([H])c([H])c(F)c([H])c5F)c([H])c4[H])c(C(=O)N([H])[H])c3N([H])[H])C2([H])[H])(C([H])([H])[H])C([H])([H])[H])nc([H])c1C([H])([H])C([H])([H])C([H])([H])Oc1c([H])c([H])c2c(c1[H])C([H])([H])N(C(=O)C([H])(N([H])C(=O)C([H])(N([H])C([H])([H])[H])C([H])([H])[H])C(C([H])([H])[H])(C([H])([H])[H])C([H])([H])[H])C([H])(C(=O)N([H])C1([H])c3c([H])c([H])c([H])c([H])c3C([H])([H])C([H])([H])C1([H])[H])C2([H])[H]

$$$$
70:0:0
     RDKit          3D

 93101  0  0  1  0  0  0  0  0999 V2000
  -27.7890  -22.6460   22.6790 C   0  0  0  0  0  1  0  0  0  0  0  0
  -26.4410  -22.3180   20.5960 C   0  0  0  0  0  1  0  0  0  0  0  0
  -27.8710  -22.3050   21.1750 C   0  0  1  0  0  0  0  0  0  0  0  0
  -28.7740  -23.3280   20.4270 C   0  0  0  0  0  2  0  0  0  0  0  0
  -28.4460  -24.8150   20.6860 C   0  0  0  0  0  2  0  0  0  0  0  0
  -29.1580  -25.7860   19.7250 C   0  0  0  0  0  2  0  0  0  0  0  0
  -29.0040  -27.1430   20.1480 O   0  0  0  0  0  0  0  0  0  0  0  0
  -24.7390  -31.8770   23.2870 C   0  0  0  0  0  0  0  0  0  0  0  0
  -27.7560  -27.7330   20.1360 C   0  0  0  0  0  0  0  0  0  0  0  0
  -23.6690  -30.4430   21.5790 C   0  0  0  0  0  3  0  0  0  0  0  0
  -25.2540  -29.0530   20.1480 C   0  0  0  0  0  0  0  0  0  0  0  0
  -26.1670  -30.9830   21.4500 C   0  0  0  0  0  2  0  0  0  0  0  0
  -26.3580  -29.6420   20.7740 C   0  0  0  0  0  0  0  0  0  0  0  0
  -27.6090  -28.9880   20.7670 C   0  0  0  0  0  3  0  0  0  0  0  0
  -26.6260  -27.1510   19.5100 C   0  0  0  0  0  3  0  0  0  0  0  0
  -25.3800  -27.8050   19.5180 C   0  0  0  0  0  3  0  0  0  0  0  0
  -23.9540  -29.8220   20.1860 C   0  0  0  0  0  2  0  0  0  0  0  0
  -24.8750  -31.1160   22.1640 N   0  0  0  0  0  0  0  0  0  0  0  0
  -23.6300  -32.0580   23.8080 O   0  0  0  0  0  0  0  0  0  0  0  0
  -23.0710  -29.3510   22.4940 C   0  0  0  0  0  0  0  0  0  0  0  0
  -21.7740  -29.0580   22.3060 N   0  0  0  0  0  0  0  0  0  0  0  0
  -23.7730  -28.7700   23.3250 O   0  0  0  0  0  0  0  0  0  0  0  0
  -21.2660  -29.5870   21.6110 H   0  0  0  0  0  0  0  0  0  0  0  0
  -18.5050  -27.5550   22.6150 C   0  0  0  0  0  0  0  0  0  0  0  0
  -21.0100  -28.0400   23.0260 C   0  0  0  0  0  3  0  0  0  0  0  0
  -21.2740  -26.6320   22.4430 C   0  0  0  0  0  2  0  0  0  0  0  0
  -20.2600  -26.2230   21.3700 C   0  0  0  0  0  2  0  0  0  0  0  0
  -18.8390  -26.2350   21.9410 C   0  0  0  0  0  2  0  0  0  0  0  0
  -19.5250  -28.4100   23.1110 C   0  0  0  0  0  0  0  0  0  0  0  0
  -19.1620  -29.6420   23.6960 C   0  0  0  0  0  3  0  0  0  0  0  0
  -17.8100  -30.0210   23.7960 C   0  0  0  0  0  3  0  0  0  0  0  0
  -16.8030  -29.1640   23.3180 C   0  0  0  0  0  3  0  0  0  0  0  0
  -17.1510  -27.9330   22.7340 C   0  0  0  0  0  3  0  0  0  0  0  0
  -25.9640  -32.5760   23.9540 C   0  0  0  0  0  3  0  0  0  0  0  0
  -25.5710  -33.9570   24.2620 N   0  0  0  0  0  0  0  0  0  0  0  0
  -25.8730  -35.0210   23.5060 C   0  0  0  0  0  0  0  0  0  0  0  0
  -26.5850  -34.9480   22.5010 O   0  0  0  0  0  0  0  0  0  0  0  0
  -24.9400  -34.0860   25.0410 H   0  0  0  0  0  0  0  0  0  0  0  0
  -24.0600  -36.7100   23.0790 C   0  0  0  0  0  1  0  0  0  0  0  0
  -25.2940  -36.3830   23.9340 C   0  0  0  0  0  3  0  0  0  0  0  0
  -27.3510  -37.3890   24.8220 C   0  0  0  0  0  1  0  0  0  0  0  0
  -26.2700  -37.4910   23.8440 N   0  0  0  0  0  0  0  0  0  0  0  0
  -25.8100  -38.3880   23.9740 H   0  0  0  0  0  0  0  0  0  0  0  0
  -26.4720  -31.8370   25.2510 C   0  0  1  0  0  0  0  0  0  0  0  0
  -25.3500  -31.5180   26.2660 C   0  0  0  0  0  1  0  0  0  0  0  0
  -27.1670  -30.5060   24.8830 C   0  0  0  0  0  1  0  0  0  0  0  0
  -27.5330  -32.7050   25.9680 C   0  0  0  0  0  1  0  0  0  0  0  0
  -28.4750  -20.8780   21.0830 C   0  0  0  0  0  2  0  0  0  0  0  0
  -28.5230  -20.2130   19.6910 C   0  0  0  0  0  2  0  0  0  0  0  0
  -29.8660  -18.2610   20.6930 C   0  0  0  0  0  3  0  0  0  0  0  0
  -30.1480  -17.0220   20.1830 C   0  0  0  0  0  0  0  0  0  0  0  0
  -29.4920  -16.9230   18.9520 N   0  0  0  0  0  0  0  0  0  0  0  0
  -28.8620  -18.0280   18.6930 N   0  0  0  0  0  0  0  0  0  0  0  0
  -29.0760  -18.8640   19.7340 N   0  0  0  0  0  0  0  0  0  0  0  0
  -30.5270  -15.5580   22.2060 C   0  0  0  0  0  1  0  0  0  0  0  0
  -32.4250  -16.6150   21.0520 C   0  0  0  0  0  1  0  0  0  0  0  0
  -31.0420  -15.9500   20.7980 C   0  0  2  0  0  0  0  0  0  0  0  0
  -31.2810  -14.7450   19.8050 C   0  0  0  0  0  0  0  0  0  0  0  0
  -30.7290  -12.6360   18.6290 C   0  0  0  0  0  2  0  0  0  0  0  0
  -29.6950  -12.8670   17.5080 C   0  0  0  0  0  2  0  0  0  0  0  0
  -28.2610  -12.7600   18.0600 C   0  0  0  0  0  2  0  0  0  0  0  0
  -28.0640  -13.6020   19.3440 C   0  0  0  0  0  3  0  0  0  0  0  0
  -29.2030  -13.3410   20.3480 C   0  0  0  0  0  2  0  0  0  0  0  0
  -30.4920  -13.6310   19.6950 N   0  0  0  0  0  0  0  0  0  0  0  0
  -32.2580  -14.8620   19.0530 O   0  0  0  0  0  0  0  0  0  0  0  0
  -25.8050  -14.2950   20.3620 C   0  0  0  0  0  0  0  0  0  0  0  0
  -24.7320  -13.5610   20.7900 C   0  0  0  0  0  0  0  0  0  0  0  0
  -25.0920  -12.1910   20.6040 C   0  0  0  0  0  0  0  0  0  0  0  0
  -26.7540  -13.3740   19.9470 N   0  0  0  0  0  0  0  0  0  0  0  0
  -26.3350  -12.0980   20.1470 N   0  0  0  0  0  0  0  0  0  0  0  0
  -24.3060  -10.9630   20.7770 C   0  0  0  0  0  0  0  0  0  0  0  0
  -24.7410   -9.9250   21.6320 C   0  0  0  0  0  3  0  0  0  0  0  0
  -23.9610   -8.7600   21.7950 C   0  0  0  0  0  3  0  0  0  0  0  0
  -22.7320   -8.6260   21.1050 C   0  0  0  0  0  0  0  0  0  0  0  0
  -22.3170   -9.6520   20.2380 C   0  0  0  0  0  3  0  0  0  0  0  0
  -23.0970  -10.8090   20.0730 C   0  0  0  0  0  3  0  0  0  0  0  0
  -21.9210   -7.5220   21.1830 O   0  0  0  0  0  0  0  0  0  0  0  0
  -21.8590   -6.7530   22.3170 C   0  0  0  0  0  0  0  0  0  0  0  0
  -21.5130   -7.3010   23.5720 C   0  0  0  0  0  3  0  0  0  0  0  0
  -21.3920   -6.4620   24.6980 C   0  0  0  0  0  3  0  0  0  0  0  0
  -21.6080   -5.0760   24.5710 C   0  0  0  0  0  0  0  0  0  0  0  0
  -21.9480   -4.5280   23.3210 C   0  0  0  0  0  3  0  0  0  0  0  0
  -22.0700   -5.3640   22.1970 C   0  0  0  0  0  0  0  0  0  0  0  0
  -22.3780   -4.8270   20.9920 F   0  0  0  0  0  0  0  0  0  0  0  0
  -21.4860   -4.2690   25.6500 F   0  0  0  0  0  0  0  0  0  0  0  0
  -23.4090  -14.0960   21.2550 C   0  0  0  0  0  0  0  0  0  0  0  0
  -22.7470  -13.3910   22.1660 N   0  0  0  0  0  0  0  0  0  0  0  0
  -22.9720  -15.1700   20.8450 O   0  0  0  0  0  0  0  0  0  0  0  0
  -23.1140  -12.5200   22.5210 H   0  0  0  0  0  0  0  0  0  0  0  0
  -21.8620  -13.7290   22.5150 H   0  0  0  0  0  0  0  0  0  0  0  0
  -26.0480  -15.6640   20.2740 N   0  0  0  0  0  0  0  0  0  0  0  0
  -25.3600  -16.3620   20.5340 H   0  0  0  0  0  0  0  0  0  0  0  0
  -26.9100  -16.0660   19.9230 H   0  0  0  0  0  0  0  0  0  0  0  0
  3  2  1  6
  3  1  1  0
  4  5  1  0
  4  3  1  0
  6  7  1  0
  6  5  1  0
  8 19  2  0
  9  7  1  0
  9 14  1  0
 10 18  1  0
 10 20  1  0
 11 17  1  0
 11 13  1  0
 12 18  1  0
 13 12  1  0
 14 13  2  0
 15 16  1  0
 15  9  2  0
 16 11  2  0
 17 10  1  0
 18  8  1  0
 20 22  2  0
 21 20  1  0
 23 21  1  0
 24 33  2  0
 24 29  1  0
 25 21  1  0
 25 29  1  0
 26 25  1  0
 27 28  1  0
 27 26  1  0
 28 24  1  0
 29 30  2  0
 30 31  1  0
 32 31  2  0
 33 32  1  0
 34  8  1  0
 34 35  1  0
 34 44  1  0
 35 38  1  0
 36 40  1  0
 36 35  1  0
 37 36  2  0
 40 39  1  0
 42 40  1  0
 42 43  1  0
 42 41  1  0
 44 47  1  1
 44 45  1  0
 46 44  1  0
 48  3  1  0
 49 54  1  0
 49 48  1  0
 51 50  2  0
 51 57  1  0
 52 51  1  0
 53 52  2  0
 53 54  1  0
 54 50  1  0
 57 56  1  1
 57 55  1  0
 58 57  1  0
 59 64  1  0
 60 61  1  0
 60 59  1  0
 62 61  1  0
 62 69  1  0
 62 63  1  0
 64 58  1  0
 64 63  1  0
 65 58  2  0
 66 67  2  0
 67 86  1  0
 68 71  1  0
 68 67  1  0
 69 70  1  0
 69 66  1  0
 70 68  2  0
 71 72  1  0
 72 73  2  0
 74 77  1  0
 74 73  1  0
 75 74  2  0
 76 75  1  0
 76 71  2  0
 77 78  1  0
 78 79  1  0
 79 80  2  0
 81 80  1  0
 81 85  1  0
 82 81  2  0
 83 78  2  0
 83 82  1  0
 84 83  1  0
 86 87  1  0
 87 90  1  0
 87 89  1  0
 88 86  2  0
 91 66  1  0
 91 92  1  0
 93 91  1  0
M  ISO  4   6 101   7 101  57 100  58 100
M  END
>  <TORSDO>  (65) 
F 23

>  <SCORE>  (65) 
-9.436

>  <name>  (65) 
70

>  <ligand_id>  (65) 
70

>  <original_smiles>  (65) 
[H]c1c([H])c([H])c2c(c1[H])C([H])([H])C([H])([H])C([H])([H])C2([H])N([H])C(=O)C1([H])N(C(=O)C([H])(N([H])C(=O)C([H])(N([H])C([H])([H])[H])C([H])([H])[H])C(C([H])([H])[H])(C([H])([H])[H])C([H])([H])[H])C([H])([H])c2c([H])c(OC([H])([H])C([H])([H])C([H])([H])C(C([H])([H])[H])(C([H])([H])[H])C([H])([H])C([H])([H])n3nnc(C(C(=O)N4C([H])([H])C([H])([H])C([H])([H])C([H])(n5nc(-c6c([H])c([H])c(Oc7c([H])c([H])c(F)c([H])c7F)c([H])c6[H])c(C(=O)N([H])[H])c5N([H])[H])C4([H])[H])(C([H])([H])[H])C([H])([H])[H])c3[H])c([H])c([H])c2C1([H])[H]

>  <smiles>  (65) 
[H]c1c([H])c([H])c2c(c1[H])C([H])([H])C([H])([H])C([H])([H])C2([H])N([H])C(=O)C1([H])N(C(=O)C([H])(N([H])C(=O)C([H])(N([H])C([H])([H])[H])C([H])([H])[H])C(C([H])([H])[H])(C([H])([H])[H])C([H])([H])[H])C([H])([H])c2c([H])c(OC([H])([H])C([H])([H])C([H])([H])C(C([H])([H])[H])(C([H])([H])[H])C([H])([H])C([H])([H])n3nnc(C(C(=O)N4C([H])([H])C([H])([H])C([H])([H])C([H])(n5nc(-c6c([H])c([H])c(Oc7c([H])c([H])c(F)c([H])c7F)c([H])c6[H])c(C(=O)N([H])[H])c5N([H])[H])C4([H])[H])(C([H])([H])[H])C([H])([H])[H])c3[H])c([H])c([H])c2C1([H])[H]

$$$$
71:0:0
     RDKit          3D

 93101  0  0  1  0  0  0  0  0999 V2000
  -28.0570  -17.6230   20.3480 C   0  0  0  0  0  0  0  0  0  0  0  0
  -29.2530  -19.2450   19.4210 C   0  0  0  0  0  0  0  0  0  0  0  0
  -30.2660  -17.4590   20.2670 C   0  0  0  0  0  0  0  0  0  0  0  0
  -26.7230  -17.0610   20.7840 C   0  0  0  0  0  1  0  0  0  0  0  0
  -28.0430  -18.8050   19.7460 N   0  0  0  0  0  4  0  0  0  0  0  0
  -29.1220  -16.8890   20.6270 N   0  0  0  0  0  0  0  0  0  0  0  0
  -30.4070  -18.6300   19.6510 N   0  0  0  0  0  2  0  0  0  0  0  0
  -32.7550  -17.0200   19.7240 C   0  0  0  0  0  1  0  0  0  0  0  0
  -31.4960  -16.5960   20.5160 C   0  0  0  0  0  3  0  0  0  0  0  0
  -31.4380  -14.2180   19.5880 C   0  0  0  0  0  0  0  0  0  0  0  0
  -31.0690  -11.8750   18.9130 C   0  0  0  0  0  2  0  0  0  0  0  0
  -30.0400  -11.7690   17.7740 C   0  0  0  0  0  2  0  0  0  0  0  0
  -28.6150  -11.6690   18.3490 C   0  0  0  0  0  2  0  0  0  0  0  0
  -28.3210  -12.7820   19.3900 C   0  0  0  0  0  3  0  0  0  0  0  0
  -29.4590  -12.8830   20.4300 C   0  0  0  0  0  2  0  0  0  0  0  0
  -30.7430  -13.0580   19.7220 N   0  0  0  0  0  0  0  0  0  0  0  0
  -32.3570  -14.3560   18.7790 O   0  0  0  0  0  0  0  0  0  0  0  0
  -31.0950  -15.1850   20.4420 N   0  0  0  0  0  0  0  0  0  0  0  0
  -30.2800  -14.9910   21.0060 H   0  0  0  0  0  0  0  0  0  0  0  0
  -26.0900  -13.5240   20.4440 C   0  0  0  0  0  0  0  0  0  0  0  0
  -25.0210  -12.8130   20.9140 C   0  0  0  0  0  0  0  0  0  0  0  0
  -25.3600  -11.4340   20.7550 C   0  0  0  0  0  0  0  0  0  0  0  0
  -27.0210  -12.5820   20.0300 N   0  0  0  0  0  0  0  0  0  0  0  0
  -26.5910  -11.3170   20.2720 N   0  0  0  0  0  0  0  0  0  0  0  0
  -24.5630  -10.2210   20.9790 C   0  0  0  0  0  0  0  0  0  0  0  0
  -24.9320   -9.2660   21.9530 C   0  0  0  0  0  3  0  0  0  0  0  0
  -24.1420   -8.1150   22.1630 C   0  0  0  0  0  3  0  0  0  0  0  0
  -22.9680   -7.9120   21.4000 C   0  0  0  0  0  0  0  0  0  0  0  0
  -22.6180   -8.8530   20.4150 C   0  0  0  0  0  3  0  0  0  0  0  0
  -23.4080   -9.9960   20.2030 C   0  0  0  0  0  3  0  0  0  0  0  0
  -22.1550   -6.8120   21.5140 O   0  0  0  0  0  0  0  0  0  0  0  0
  -21.9330   -6.2040   22.7250 C   0  0  0  0  0  0  0  0  0  0  0  0
  -21.3400   -6.8900   23.8070 C   0  0  0  0  0  3  0  0  0  0  0  0
  -21.0720   -6.2100   25.0110 C   0  0  0  0  0  3  0  0  0  0  0  0
  -21.3820   -4.8430   25.1320 C   0  0  0  0  0  0  0  0  0  0  0  0
  -21.9660   -4.1550   24.0540 C   0  0  0  0  0  3  0  0  0  0  0  0
  -22.2400   -4.8340   22.8530 C   0  0  0  0  0  0  0  0  0  0  0  0
  -22.7850   -4.1630   21.8100 F   0  0  0  0  0  0  0  0  0  0  0  0
  -21.1160   -4.1850   26.2850 F   0  0  0  0  0  0  0  0  0  0  0  0
  -23.7150  -13.3750   21.4000 C   0  0  0  0  0  0  0  0  0  0  0  0
  -23.0580  -12.6870   22.3260 N   0  0  0  0  0  0  0  0  0  0  0  0
  -23.2950  -14.4590   20.9940 O   0  0  0  0  0  0  0  0  0  0  0  0
  -23.4140  -11.8060   22.6670 H   0  0  0  0  0  0  0  0  0  0  0  0
  -22.1870  -13.0400   22.6960 H   0  0  0  0  0  0  0  0  0  0  0  0
  -26.3460  -14.8860   20.3130 N   0  0  0  0  0  0  0  0  0  0  0  0
  -25.6390  -15.5860   20.5070 H   0  0  0  0  0  0  0  0  0  0  0  0
  -27.1500  -15.2580   19.8260 H   0  0  0  0  0  0  0  0  0  0  0  0
  -29.2980  -20.5770   18.6830 C   0  0  0  0  0  2  0  0  0  0  0  0
  -29.0580  -21.8140   19.5800 C   0  0  0  0  0  2  0  0  0  0  0  0
  -28.9080  -23.1070   18.7470 C   0  0  0  0  0  2  0  0  0  0  0  0
  -28.5560  -24.3800   19.5450 C   0  0  0  0  0  2  0  0  0  0  0  0
  -28.7350  -25.6470   18.6840 C   0  0  0  0  0  2  0  0  0  0  0  0
  -28.5960  -26.8450   19.4470 O   0  0  0  0  0  0  0  0  0  0  0  0
  -24.7670  -31.4370   23.2600 C   0  0  0  0  0  0  0  0  0  0  0  0
  -27.3790  -27.4860   19.5570 C   0  0  0  0  0  0  0  0  0  0  0  0
  -23.5340  -30.2650   21.4640 C   0  0  0  0  0  3  0  0  0  0  0  0
  -24.9670  -28.9440   19.8250 C   0  0  0  0  0  0  0  0  0  0  0  0
  -26.0540  -30.6690   21.2730 C   0  0  0  0  0  2  0  0  0  0  0  0
  -26.1320  -29.4000   20.4490 C   0  0  0  0  0  0  0  0  0  0  0  0
  -27.3380  -28.6810   20.3110 C   0  0  0  0  0  3  0  0  0  0  0  0
  -26.1840  -27.0260   18.9540 C   0  0  0  0  0  3  0  0  0  0  0  0
  -24.9860  -27.7530   19.0780 C   0  0  0  0  0  3  0  0  0  0  0  0
  -23.7220  -29.7790   20.0030 C   0  0  0  0  0  2  0  0  0  0  0  0
  -24.8030  -30.7980   22.0580 N   0  0  0  0  0  0  0  0  0  0  0  0
  -23.6960  -31.6270   23.8530 O   0  0  0  0  0  0  0  0  0  0  0  0
  -22.9080  -29.1190   22.2880 C   0  0  0  0  0  0  0  0  0  0  0  0
  -21.5870  -28.9240   22.1310 N   0  0  0  0  0  0  0  0  0  0  0  0
  -23.6040  -28.4160   23.0250 O   0  0  0  0  0  0  0  0  0  0  0  0
  -21.0870  -29.5390   21.5040 H   0  0  0  0  0  0  0  0  0  0  0  0
  -18.2420  -27.5980   22.4580 C   0  0  0  0  0  0  0  0  0  0  0  0
  -20.7920  -27.8790   22.7750 C   0  0  0  0  0  3  0  0  0  0  0  0
  -20.9300  -26.5350   22.0260 C   0  0  0  0  0  2  0  0  0  0  0  0
  -19.8420  -26.3180   20.9720 C   0  0  0  0  0  2  0  0  0  0  0  0
  -18.4530  -26.3500   21.6170 C   0  0  0  0  0  2  0  0  0  0  0  0
  -19.3420  -28.3250   22.9870 C   0  0  0  0  0  0  0  0  0  0  0  0
  -19.0930  -29.5000   23.7300 C   0  0  0  0  0  3  0  0  0  0  0  0
  -17.7760  -29.9500   23.9450 C   0  0  0  0  0  3  0  0  0  0  0  0
  -16.6910  -29.2160   23.4310 C   0  0  0  0  0  3  0  0  0  0  0  0
  -16.9260  -28.0410   22.6950 C   0  0  0  0  0  3  0  0  0  0  0  0
  -26.0630  -31.9840   23.9370 C   0  0  0  0  0  3  0  0  0  0  0  0
  -25.7810  -33.3520   24.3880 N   0  0  0  0  0  0  0  0  0  0  0  0
  -26.1580  -34.4610   23.7360 C   0  0  0  0  0  0  0  0  0  0  0  0
  -26.8520  -34.4330   22.7150 O   0  0  0  0  0  0  0  0  0  0  0  0
  -25.1660  -33.4490   25.1820 H   0  0  0  0  0  0  0  0  0  0  0  0
  -24.4860  -36.3250   23.5040 C   0  0  0  0  0  1  0  0  0  0  0  0
  -25.6930  -35.8140   24.3060 C   0  0  0  0  0  3  0  0  0  0  0  0
  -27.8160  -36.5680   25.2820 C   0  0  0  0  0  1  0  0  0  0  0  0
  -26.7540  -36.8430   24.3160 N   0  0  0  0  0  0  0  0  0  0  0  0
  -26.3660  -37.7590   24.5260 H   0  0  0  0  0  0  0  0  0  0  0  0
  -26.5650  -31.0900   25.1380 C   0  0  1  0  0  0  0  0  0  0  0  0
  -25.4580  -30.7550   26.1640 C   0  0  0  0  0  1  0  0  0  0  0  0
  -27.1490  -29.7540   24.6200 C   0  0  0  0  0  1  0  0  0  0  0  0
  -27.7090  -31.8140   25.8860 C   0  0  0  0  0  1  0  0  0  0  0  0
  1  6  1  0
  1  4  1  0
  2  7  1  0
  2  5  2  0
  3  9  1  0
  3  6  2  0
  5  1  2  0
  7  3  1  0
  9  8  1  0
 10 16  1  0
 10 18  1  0
 11 16  1  0
 12 13  1  0
 12 11  1  0
 14 13  1  0
 14 23  1  0
 14 15  1  0
 16 15  1  0
 17 10  2  0
 18  9  1  0
 18 19  1  0
 20 21  2  0
 21 40  1  0
 22 21  1  0
 22 25  1  0
 23 24  1  0
 23 20  1  0
 24 22  2  0
 25 26  1  0
 26 27  2  0
 28 31  1  0
 28 27  1  0
 29 28  2  0
 30 29  1  0
 30 25  2  0
 31 32  1  0
 32 37  2  0
 32 33  1  0
 33 34  2  0
 34 35  1  0
 35 39  1  0
 36 35  2  0
 37 36  1  0
 38 37  1  0
 40 41  1  0
 41 43  1  0
 41 44  1  0
 42 40  2  0
 45 20  1  0
 45 46  1  0
 47 45  1  0
 48  2  1  0
 48 49  1  0
 50 51  1  0
 50 49  1  0
 52 53  1  0
 52 51  1  0
 53 55  1  0
 54 65  2  0
 55 60  1  0
 56 64  1  0
 56 66  1  0
 57 63  1  0
 57 59  1  0
 58 64  1  0
 59 58  1  0
 60 59  2  0
 61 62  1  0
 61 55  2  0
 62 57  2  0
 63 56  1  0
 64 54  1  0
 66 68  2  0
 67 66  1  0
 69 67  1  0
 70 79  2  0
 70 75  1  0
 71 67  1  0
 71 75  1  0
 72 71  1  0
 73 74  1  0
 73 72  1  0
 74 70  1  0
 75 76  2  0
 76 77  1  0
 78 77  2  0
 79 78  1  0
 80 54  1  0
 80 81  1  0
 80 90  1  0
 81 84  1  0
 82 86  1  0
 82 81  1  0
 83 82  2  0
 86 85  1  0
 86 88  1  0
 88 89  1  0
 88 87  1  0
 90 93  1  1
 90 91  1  0
 92 90  1  0
M  ISO  4  10 100  18 100  52 101  53 101
M  END
>  <TORSDO>  (66) 
F 22

>  <SCORE>  (66) 
-10.696

>  <name>  (66) 
71

>  <ligand_id>  (66) 
71

>  <original_smiles>  (66) 
[H]c1c([H])c([H])c2c(c1[H])C([H])([H])C([H])([H])C([H])([H])C2([H])N([H])C(=O)C1([H])N(C(=O)C([H])(N([H])C(=O)C([H])(N([H])C([H])([H])[H])C([H])([H])[H])C(C([H])([H])[H])(C([H])([H])[H])C([H])([H])[H])C([H])([H])c2c([H])c(OC([H])([H])C([H])([H])C([H])([H])C([H])([H])C([H])([H])c3nc(C([H])([H])[H])nc(C([H])(N([H])C(=O)N4C([H])([H])C([H])([H])C([H])([H])C([H])(n5nc(-c6c([H])c([H])c(Oc7c([H])c([H])c(F)c([H])c7F)c([H])c6[H])c(C(=O)N([H])[H])c5N([H])[H])C4([H])[H])C([H])([H])[H])n3)c([H])c([H])c2C1([H])[H]

>  <smiles>  (66) 
[H]c1c([H])c([H])c2c(c1[H])C([H])([H])C([H])([H])C([H])([H])C2([H])N([H])C(=O)C1([H])N(C(=O)C([H])(N([H])C(=O)C([H])(N([H])C([H])([H])[H])C([H])([H])[H])C(C([H])([H])[H])(C([H])([H])[H])C([H])([H])[H])C([H])([H])c2c([H])c(OC([H])([H])C([H])([H])C([H])([H])C([H])([H])C([H])([H])c3nc(C([H])([H])[H])nc(C([H])(N([H])C(=O)N4C([H])([H])C([H])([H])C([H])([H])C([H])(n5nc(-c6c([H])c([H])c(Oc7c([H])c([H])c(F)c([H])c7F)c([H])c6[H])c(C(=O)N([H])[H])c5N([H])[H])C4([H])[H])C([H])([H])[H])n3)c([H])c([H])c2C1([H])[H]

$$$$
72:0:0
     RDKit          3D

 96104  0  0  1  0  0  0  0  0999 V2000
  -31.7260  -21.9080   22.8410 C   0  0  0  0  0  3  0  0  0  0  0  0
  -29.1090  -22.5160   22.4790 C   0  0  0  0  0  0  0  0  0  0  0  0
  -30.1350  -23.4790   22.1790 C   0  0  0  0  0  0  0  0  0  0  0  0
  -30.7080  -20.9660   23.0870 C   0  0  0  0  0  0  0  0  0  0  0  0
  -27.6240  -22.6830   22.1990 C   0  0  0  0  0  1  0  0  0  0  0  0
  -31.4400  -23.1550   22.4060 N   0  0  0  0  0  0  0  0  0  0  0  0
  -29.4050  -21.2790   22.9510 N   0  0  0  0  0  0  0  0  0  0  0  0
  -31.1630  -25.7670   21.7170 C   0  0  0  0  0  1  0  0  0  0  0  0
  -28.7700  -25.6790   21.9700 C   0  0  0  0  0  1  0  0  0  0  0  0
  -29.9550  -24.8320   21.4180 C   0  0  2  0  0  0  0  0  0  0  0  0
  -30.0570  -23.1480   19.3510 C   0  0  0  0  0  1  0  0  0  0  0  0
  -29.9000  -24.6090   19.8400 C   0  0  0  0  0  3  0  0  0  0  0  0
  -28.7030  -25.2340   19.0970 C   0  0  0  0  0  2  0  0  0  0  0  0
  -28.7410  -26.6530   19.2050 O   0  0  0  0  0  0  0  0  0  0  0  0
  -24.7740  -31.2920   22.7660 C   0  0  0  0  0  0  0  0  0  0  0  0
  -27.5300  -27.3000   19.2480 C   0  0  0  0  0  0  0  0  0  0  0  0
  -23.5990  -30.0290   20.9920 C   0  0  0  0  0  3  0  0  0  0  0  0
  -25.0860  -28.6950   19.4140 C   0  0  0  0  0  0  0  0  0  0  0  0
  -26.1030  -30.4940   20.8220 C   0  0  0  0  0  2  0  0  0  0  0  0
  -26.2270  -29.2010   20.0480 C   0  0  0  0  0  0  0  0  0  0  0  0
  -27.4490  -28.5100   19.9650 C   0  0  0  0  0  3  0  0  0  0  0  0
  -26.3710  -26.7990   18.6090 C   0  0  0  0  0  3  0  0  0  0  0  0
  -25.1500  -27.4900   18.6950 C   0  0  0  0  0  3  0  0  0  0  0  0
  -23.8180  -29.5040   19.5480 C   0  0  0  0  0  2  0  0  0  0  0  0
  -24.8430  -30.6140   21.5870 N   0  0  0  0  0  0  0  0  0  0  0  0
  -23.6910  -31.4720   23.3370 O   0  0  0  0  0  0  0  0  0  0  0  0
  -22.9920  -28.8900   21.8450 C   0  0  0  0  0  0  0  0  0  0  0  0
  -21.6650  -28.7110   21.7440 N   0  0  0  0  0  0  0  0  0  0  0  0
  -23.7080  -28.1810   22.5540 O   0  0  0  0  0  0  0  0  0  0  0  0
  -21.1460  -29.3380   21.1450 H   0  0  0  0  0  0  0  0  0  0  0  0
  -18.3150  -27.4680   22.2520 C   0  0  0  0  0  0  0  0  0  0  0  0
  -20.8840  -27.6830   22.4310 C   0  0  0  0  0  3  0  0  0  0  0  0
  -20.9470  -26.3390   21.6700 C   0  0  0  0  0  2  0  0  0  0  0  0
  -19.7930  -26.1520   20.6780 C   0  0  0  0  0  2  0  0  0  0  0  0
  -18.4480  -26.2150   21.4050 C   0  0  0  0  0  2  0  0  0  0  0  0
  -19.4590  -28.1660   22.7220 C   0  0  0  0  0  0  0  0  0  0  0  0
  -19.2800  -29.3450   23.4780 C   0  0  0  0  0  3  0  0  0  0  0  0
  -17.9900  -29.8260   23.7670 C   0  0  0  0  0  3  0  0  0  0  0  0
  -16.8600  -29.1250   23.3110 C   0  0  0  0  0  3  0  0  0  0  0  0
  -17.0230  -27.9460   22.5610 C   0  0  0  0  0  3  0  0  0  0  0  0
  -26.0490  -31.8940   23.4350 C   0  0  0  0  0  3  0  0  0  0  0  0
  -25.6970  -33.2270   23.9350 N   0  0  0  0  0  0  0  0  0  0  0  0
  -25.9900  -34.3760   23.3100 C   0  0  0  0  0  0  0  0  0  0  0  0
  -26.6570  -34.4260   22.2730 O   0  0  0  0  0  0  0  0  0  0  0  0
  -25.1040  -33.2620   24.7520 H   0  0  0  0  0  0  0  0  0  0  0  0
  -24.1970  -36.1330   23.1690 C   0  0  0  0  0  1  0  0  0  0  0  0
  -25.4500  -35.6790   23.9330 C   0  0  0  0  0  3  0  0  0  0  0  0
  -27.5490  -36.5270   24.8820 C   0  0  0  0  0  1  0  0  0  0  0  0
  -26.4430  -36.7740   23.9610 N   0  0  0  0  0  0  0  0  0  0  0  0
  -26.0030  -37.6530   24.2200 H   0  0  0  0  0  0  0  0  0  0  0  0
  -26.6280  -30.9960   24.5950 C   0  0  1  0  0  0  0  0  0  0  0  0
  -25.5720  -30.5900   25.6490 C   0  0  0  0  0  1  0  0  0  0  0  0
  -27.2460  -29.6980   24.0240 C   0  0  0  0  0  1  0  0  0  0  0  0
  -27.7690  -31.7490   25.3220 C   0  0  0  0  0  1  0  0  0  0  0  0
  -30.9750  -19.6450   23.3380 O   0  0  0  0  0  0  0  0  0  0  0  0
  -31.2280  -18.9260   22.1340 C   0  0  0  0  0  2  0  0  0  0  0  0
  -30.9960  -17.4160   22.3190 C   0  0  0  0  0  2  0  0  0  0  0  0
  -30.8220  -16.7320   20.9500 C   0  0  0  0  0  2  0  0  0  0  0  0
  -30.9670  -14.3880   20.1430 C   0  0  0  0  0  0  0  0  0  0  0  0
  -30.4870  -12.3030   18.9170 C   0  0  0  0  0  2  0  0  0  0  0  0
  -29.4990  -12.5790   17.7670 C   0  0  0  0  0  2  0  0  0  0  0  0
  -28.0460  -12.4610   18.2650 C   0  0  0  0  0  2  0  0  0  0  0  0
  -27.7950  -13.2860   19.5570 C   0  0  0  0  0  3  0  0  0  0  0  0
  -28.8950  -13.0170   20.6120 C   0  0  0  0  0  2  0  0  0  0  0  0
  -30.2130  -13.2640   19.9970 N   0  0  0  0  0  0  0  0  0  0  0  0
  -31.9830  -14.6120   19.4730 O   0  0  0  0  0  0  0  0  0  0  0  0
  -30.5030  -15.2990   21.0120 N   0  0  0  0  0  0  0  0  0  0  0  0
  -29.6960  -15.0240   21.5540 H   0  0  0  0  0  0  0  0  0  0  0  0
  -25.4630  -13.9470   20.4350 C   0  0  0  0  0  0  0  0  0  0  0  0
  -24.3940  -13.1960   20.8430 C   0  0  0  0  0  0  0  0  0  0  0  0
  -24.8040  -11.8320   20.7380 C   0  0  0  0  0  0  0  0  0  0  0  0
  -26.4610  -13.0410   20.1060 N   0  0  0  0  0  0  0  0  0  0  0  0
  -26.0710  -11.7620   20.3460 N   0  0  0  0  0  0  0  0  0  0  0  0
  -24.0500  -10.5860   20.9330 C   0  0  0  0  0  0  0  0  0  0  0  0
  -24.4990   -9.5810   21.8190 C   0  0  0  0  0  3  0  0  0  0  0  0
  -23.7490   -8.4000   22.0030 C   0  0  0  0  0  3  0  0  0  0  0  0
  -22.5320   -8.2170   21.3040 C   0  0  0  0  0  0  0  0  0  0  0  0
  -22.0980   -9.2130   20.4110 C   0  0  0  0  0  3  0  0  0  0  0  0
  -22.8490  -10.3850   20.2230 C   0  0  0  0  0  3  0  0  0  0  0  0
  -21.7490   -7.0930   21.4010 O   0  0  0  0  0  0  0  0  0  0  0  0
  -21.7250   -6.3280   22.5390 C   0  0  0  0  0  0  0  0  0  0  0  0
  -21.3660   -6.8680   23.7940 C   0  0  0  0  0  3  0  0  0  0  0  0
  -21.2860   -6.0300   24.9230 C   0  0  0  0  0  3  0  0  0  0  0  0
  -21.5550   -4.6540   24.8000 C   0  0  0  0  0  0  0  0  0  0  0  0
  -21.9090   -4.1140   23.5510 C   0  0  0  0  0  3  0  0  0  0  0  0
  -21.9900   -4.9490   22.4220 C   0  0  0  0  0  0  0  0  0  0  0  0
  -22.3110   -4.4190   21.2170 F   0  0  0  0  0  0  0  0  0  0  0  0
  -21.4700   -3.8470   25.8830 F   0  0  0  0  0  0  0  0  0  0  0  0
  -23.0300  -13.7080   21.2110 C   0  0  0  0  0  0  0  0  0  0  0  0
  -22.3340  -13.0160   22.1050 N   0  0  0  0  0  0  0  0  0  0  0  0
  -22.5910  -14.7550   20.7370 O   0  0  0  0  0  0  0  0  0  0  0  0
  -22.7030  -12.1750   22.5230 H   0  0  0  0  0  0  0  0  0  0  0  0
  -21.4190  -13.3380   22.3820 H   0  0  0  0  0  0  0  0  0  0  0  0
  -25.6570  -15.3170   20.2940 N   0  0  0  0  0  0  0  0  0  0  0  0
  -24.9190  -15.9880   20.4820 H   0  0  0  0  0  0  0  0  0  0  0  0
  -26.5020  -15.7510   19.9490 H   0  0  0  0  0  0  0  0  0  0  0  0
  1  4  1  0
  2  7  1  0
  3  6  1  0
  3  2  2  0
  4 55  1  0
  5  2  1  0
  6  1  2  0
  7  4  2  0
 10  8  1  6
 10  9  1  0
 10  3  1  0
 12 11  1  0
 12 10  1  0
 13 14  1  0
 13 12  1  0
 14 16  1  0
 15 26  2  0
 16 21  1  0
 17 25  1  0
 17 27  1  0
 18 24  1  0
 18 20  1  0
 19 25  1  0
 20 19  1  0
 21 20  2  0
 22 23  1  0
 22 16  2  0
 23 18  2  0
 24 17  1  0
 25 15  1  0
 27 29  2  0
 28 27  1  0
 30 28  1  0
 31 40  2  0
 31 36  1  0
 32 28  1  0
 32 36  1  0
 33 32  1  0
 34 35  1  0
 34 33  1  0
 35 31  1  0
 36 37  2  0
 37 38  1  0
 39 38  2  0
 40 39  1  0
 41 15  1  0
 41 42  1  0
 41 51  1  0
 42 45  1  0
 43 47  1  0
 43 42  1  0
 44 43  2  0
 47 46  1  0
 47 49  1  0
 49 50  1  0
 49 48  1  0
 51 54  1  1
 51 52  1  0
 53 51  1  0
 56 57  1  0
 56 55  1  0
 58 67  1  0
 58 57  1  0
 59 67  1  0
 60 65  1  0
 61 62  1  0
 61 60  1  0
 63 62  1  0
 63 72  1  0
 63 64  1  0
 65 59  1  0
 65 64  1  0
 66 59  2  0
 67 68  1  0
 69 70  2  0
 70 89  1  0
 71 70  1  0
 71 74  1  0
 72 73  1  0
 72 69  1  0
 73 71  2  0
 74 75  1  0
 75 76  2  0
 77 80  1  0
 77 76  1  0
 78 77  2  0
 79 78  1  0
 79 74  2  0
 80 81  1  0
 81 82  1  0
 82 83  2  0
 84 83  1  0
 84 88  1  0
 85 84  2  0
 86 81  2  0
 86 85  1  0
 87 86  1  0
 89 90  1  0
 90 93  1  0
 90 92  1  0
 91 89  2  0
 94 69  1  0
 94 95  1  0
 96 94  1  0
M  ISO  4  13 101  14 101  59 100  67 100
M  END
>  <TORSDO>  (67) 
F 23

>  <SCORE>  (67) 
-9.350

>  <name>  (67) 
72

>  <ligand_id>  (67) 
72

>  <original_smiles>  (67) 
[H]c1nc(C(C([H])([H])[H])(C([H])([H])[H])C([H])(C([H])([H])[H])C([H])([H])Oc2c([H])c([H])c3c(c2[H])C([H])([H])N(C(=O)C([H])(N([H])C(=O)C([H])(N([H])C([H])([H])[H])C([H])([H])[H])C(C([H])([H])[H])(C([H])([H])[H])C([H])([H])[H])C([H])(C(=O)N([H])C2([H])c4c([H])c([H])c([H])c([H])c4C([H])([H])C([H])([H])C2([H])[H])C3([H])[H])c(C([H])([H])[H])nc1OC([H])([H])C([H])([H])C([H])([H])N([H])C(=O)N1C([H])([H])C([H])([H])C([H])([H])C([H])(n2nc(-c3c([H])c([H])c(Oc4c([H])c([H])c(F)c([H])c4F)c([H])c3[H])c(C(=O)N([H])[H])c2N([H])[H])C1([H])[H]

>  <smiles>  (67) 
[H]c1nc(C(C([H])([H])[H])(C([H])([H])[H])C([H])(C([H])([H])[H])C([H])([H])Oc2c([H])c([H])c3c(c2[H])C([H])([H])N(C(=O)C([H])(N([H])C(=O)C([H])(N([H])C([H])([H])[H])C([H])([H])[H])C(C([H])([H])[H])(C([H])([H])[H])C([H])([H])[H])C([H])(C(=O)N([H])C2([H])c4c([H])c([H])c([H])c([H])c4C([H])([H])C([H])([H])C2([H])[H])C3([H])[H])c(C([H])([H])[H])nc1OC([H])([H])C([H])([H])C([H])([H])N([H])C(=O)N1C([H])([H])C([H])([H])C([H])([H])C([H])(n2nc(-c3c([H])c([H])c(Oc4c([H])c([H])c(F)c([H])c4F)c([H])c3[H])c(C(=O)N([H])[H])c2N([H])[H])C1([H])[H]

$$$$
73:0:0
     RDKit          3D

 95103  0  0  1  0  0  0  0  0999 V2000
  -31.9150  -21.3050   22.6210 C   0  0  0  0  0  1  0  0  0  0  0  0
  -32.3130  -21.0980   20.1630 C   0  0  0  0  0  1  0  0  0  0  0  0
  -31.2720  -20.8880   21.2820 C   0  0  1  0  0  0  0  0  0  0  0  0
  -31.1200  -18.3820   20.4180 C   0  0  0  0  0  3  0  0  0  0  0  0
  -30.0450  -17.5480   22.0980 C   0  0  0  0  0  3  0  0  0  0  0  0
  -30.9210  -19.3880   21.3520 C   0  0  0  0  0  0  0  0  0  0  0  0
  -30.2830  -18.8120   22.4560 N   0  0  0  0  0  0  0  0  0  0  0  0
  -30.4250  -17.2410   20.8470 N   0  0  0  0  0  0  0  0  0  0  0  0
  -30.0030  -16.0570   20.0570 C   0  0  0  0  0  3  0  0  0  0  0  0
  -30.8760  -14.7470   20.0390 C   0  0  0  0  0  0  0  0  0  0  0  0
  -30.5740  -12.5490   18.9600 C   0  0  0  0  0  2  0  0  0  0  0  0
  -29.5650  -12.7160   17.7970 C   0  0  0  0  0  2  0  0  0  0  0  0
  -28.1070  -12.6150   18.2960 C   0  0  0  0  0  2  0  0  0  0  0  0
  -27.8280  -13.4200   19.5950 C   0  0  0  0  0  3  0  0  0  0  0  0
  -28.9560  -13.2140   20.6350 C   0  0  0  0  0  2  0  0  0  0  0  0
  -30.2450  -13.5330   20.0050 N   0  0  0  0  0  0  0  0  0  0  0  0
  -32.0610  -14.8610   19.7170 O   0  0  0  0  0  0  0  0  0  0  0  0
  -25.4820  -14.0090   20.4730 C   0  0  0  0  0  0  0  0  0  0  0  0
  -24.4350  -13.2240   20.8730 C   0  0  0  0  0  0  0  0  0  0  0  0
  -24.8900  -11.8760   20.7740 C   0  0  0  0  0  0  0  0  0  0  0  0
  -26.5080  -13.1340   20.1480 N   0  0  0  0  0  0  0  0  0  0  0  0
  -26.1600  -11.8460   20.3930 N   0  0  0  0  0  0  0  0  0  0  0  0
  -24.1730  -10.6100   20.9660 C   0  0  0  0  0  0  0  0  0  0  0  0
  -24.6020   -9.6540   21.9110 C   0  0  0  0  0  3  0  0  0  0  0  0
  -23.8860   -8.4510   22.0890 C   0  0  0  0  0  3  0  0  0  0  0  0
  -22.7250   -8.1980   21.3190 C   0  0  0  0  0  0  0  0  0  0  0  0
  -22.3150   -9.1430   20.3610 C   0  0  0  0  0  3  0  0  0  0  0  0
  -23.0330  -10.3380   20.1840 C   0  0  0  0  0  3  0  0  0  0  0  0
  -21.9820   -7.0460   21.4050 O   0  0  0  0  0  0  0  0  0  0  0  0
  -21.8610   -6.3530   22.5810 C   0  0  0  0  0  0  0  0  0  0  0  0
  -21.3360   -6.9510   23.7480 C   0  0  0  0  0  3  0  0  0  0  0  0
  -21.1670   -6.1820   24.9160 C   0  0  0  0  0  3  0  0  0  0  0  0
  -21.5130   -4.8160   24.9200 C   0  0  0  0  0  0  0  0  0  0  0  0
  -22.0300   -4.2200   23.7570 C   0  0  0  0  0  3  0  0  0  0  0  0
  -22.2020   -4.9860   22.5920 C   0  0  0  0  0  0  0  0  0  0  0  0
  -22.6830   -4.4000   21.4680 F   0  0  0  0  0  0  0  0  0  0  0  0
  -21.3410   -4.0780   26.0400 F   0  0  0  0  0  0  0  0  0  0  0  0
  -23.0570  -13.6980   21.2340 C   0  0  0  0  0  0  0  0  0  0  0  0
  -22.3880  -12.9920   22.1410 N   0  0  0  0  0  0  0  0  0  0  0  0
  -22.5840  -14.7260   20.7500 O   0  0  0  0  0  0  0  0  0  0  0  0
  -22.7880  -12.1610   22.5510 H   0  0  0  0  0  0  0  0  0  0  0  0
  -21.4680  -13.2960   22.4300 H   0  0  0  0  0  0  0  0  0  0  0  0
  -25.6300  -15.3840   20.3440 N   0  0  0  0  0  0  0  0  0  0  0  0
  -24.8490  -16.0100   20.5030 H   0  0  0  0  0  0  0  0  0  0  0  0
  -26.4210  -15.8580   19.9260 H   0  0  0  0  0  0  0  0  0  0  0  0
  -29.7340  -16.4940   18.5880 C   0  0  0  0  0  2  0  0  0  0  0  0
  -28.6290  -17.5470   18.4030 C   0  0  1  0  0  0  0  0  0  0  0  0
  -27.4960  -17.1120   18.9450 F   0  0  0  0  0  0  0  0  0  0  0  0
  -28.9410  -18.7230   18.9410 F   0  0  0  0  0  0  0  0  0  0  0  0
  -28.4280  -17.7310   17.1010 F   0  0  0  0  0  0  0  0  0  0  0  0
  -30.0160  -21.7900   20.9520 C   0  0  0  0  0  3  0  0  0  0  0  0
  -30.1900  -23.3550   21.0110 C   0  0  0  0  0  3  0  0  0  0  0  0
  -29.1260  -24.2350   20.2590 C   0  0  0  0  0  2  0  0  0  0  0  0
  -28.6660  -25.5520   20.9700 C   0  0  0  0  0  2  0  0  0  0  0  0
  -28.5550  -26.6980   20.0950 O   0  0  0  0  0  0  0  0  0  0  0  0
  -24.6030  -31.8140   23.1800 C   0  0  0  0  0  0  0  0  0  0  0  0
  -27.3740  -27.4150   20.1330 C   0  0  0  0  0  0  0  0  0  0  0  0
  -23.4520  -30.4160   21.4930 C   0  0  0  0  0  3  0  0  0  0  0  0
  -24.9590  -28.8980   20.0950 C   0  0  0  0  0  0  0  0  0  0  0  0
  -25.9790  -30.7980   21.3620 C   0  0  0  0  0  2  0  0  0  0  0  0
  -26.0970  -29.4310   20.7140 C   0  0  0  0  0  0  0  0  0  0  0  0
  -27.3090  -28.6980   20.7270 C   0  0  0  0  0  3  0  0  0  0  0  0
  -26.2180  -26.8930   19.5160 C   0  0  0  0  0  3  0  0  0  0  0  0
  -25.0150  -27.6280   19.4920 C   0  0  0  0  0  3  0  0  0  0  0  0
  -23.7040  -29.7440   20.1160 C   0  0  0  0  0  2  0  0  0  0  0  0
  -24.6940  -31.0260   22.0700 N   0  0  0  0  0  0  0  0  0  0  0  0
  -23.5070  -32.0700   23.6970 O   0  0  0  0  0  0  0  0  0  0  0  0
  -22.7850  -29.3860   22.4330 C   0  0  0  0  0  0  0  0  0  0  0  0
  -21.4630  -29.1980   22.2780 N   0  0  0  0  0  0  0  0  0  0  0  0
  -23.4560  -28.7540   23.2530 O   0  0  0  0  0  0  0  0  0  0  0  0
  -20.9850  -29.7570   21.5870 H   0  0  0  0  0  0  0  0  0  0  0  0
  -18.0840  -27.9980   22.7270 C   0  0  0  0  0  0  0  0  0  0  0  0
  -20.6400  -28.2470   23.0220 C   0  0  0  0  0  3  0  0  0  0  0  0
  -20.7440  -26.8280   22.4150 C   0  0  0  0  0  2  0  0  0  0  0  0
  -19.6510  -26.5300   21.3860 C   0  0  0  0  0  2  0  0  0  0  0  0
  -18.2640  -26.6650   22.0210 C   0  0  0  0  0  2  0  0  0  0  0  0
  -19.2010  -28.7470   23.1830 C   0  0  0  0  0  0  0  0  0  0  0  0
  -18.9790  -29.9980   23.8010 C   0  0  0  0  0  3  0  0  0  0  0  0
  -17.6750  -30.4980   23.9680 C   0  0  0  0  0  3  0  0  0  0  0  0
  -16.5720  -29.7450   23.5300 C   0  0  0  0  0  3  0  0  0  0  0  0
  -16.7780  -28.4970   22.9150 C   0  0  0  0  0  3  0  0  0  0  0  0
  -25.8690  -32.4540   23.8350 C   0  0  0  0  0  3  0  0  0  0  0  0
  -26.3490  -31.6940   25.1320 C   0  0  1  0  0  0  0  0  0  0  0  0
  -25.2230  -31.4550   26.1670 C   0  0  0  0  0  1  0  0  0  0  0  0
  -26.9550  -30.3180   24.7680 C   0  0  0  0  0  1  0  0  0  0  0  0
  -27.4730  -32.5010   25.8240 C   0  0  0  0  0  1  0  0  0  0  0  0
  -25.5500  -33.8540   24.1440 N   0  0  0  0  0  0  0  0  0  0  0  0
  -25.9270  -34.9020   23.3980 C   0  0  0  0  0  0  0  0  0  0  0  0
  -26.6510  -34.7910   22.4040 O   0  0  0  0  0  0  0  0  0  0  0  0
  -24.9160  -34.0150   24.9110 H   0  0  0  0  0  0  0  0  0  0  0  0
  -24.2450  -36.7100   22.9310 C   0  0  0  0  0  1  0  0  0  0  0  0
  -25.4240  -36.2940   23.8240 C   0  0  0  0  0  3  0  0  0  0  0  0
  -27.5040  -37.1590   24.8000 C   0  0  0  0  0  1  0  0  0  0  0  0
  -26.4730  -37.3370   23.7810 N   0  0  0  0  0  0  0  0  0  0  0  0
  -26.0650  -38.2610   23.9010 H   0  0  0  0  0  0  0  0  0  0  0  0
  3  2  1  6
  3  6  1  0
  3  1  1  0
  4  8  1  0
  4  6  2  0
  5  7  2  0
  6  7  1  0
  8  5  1  0
  9 46  1  0
  9  8  1  0
 10  9  1  0
 11 16  1  0
 12 13  1  0
 12 11  1  0
 14 13  1  0
 14 21  1  0
 14 15  1  0
 16 10  1  0
 16 15  1  0
 17 10  2  0
 18 19  2  0
 19 38  1  0
 20 19  1  0
 20 23  1  0
 21 22  1  0
 21 18  1  0
 22 20  2  0
 23 24  1  0
 24 25  2  0
 26 29  1  0
 26 25  1  0
 27 26  2  0
 28 27  1  0
 28 23  2  0
 29 30  1  0
 30 35  2  0
 30 31  1  0
 31 32  2  0
 32 33  1  0
 33 37  1  0
 34 33  2  0
 35 34  1  0
 36 35  1  0
 38 39  1  0
 39 42  1  0
 39 41  1  0
 40 38  2  0
 43 18  1  0
 43 44  1  0
 45 43  1  0
 47 46  1  0
 47 49  1  1
 47 48  1  0
 50 47  1  0
 51 52  2  0
 51  3  1  0
 53 54  1  0
 53 52  1  0
 55 57  1  0
 55 54  1  0
 56 67  2  0
 57 62  1  0
 58 66  1  0
 58 68  1  0
 59 65  1  0
 59 61  1  0
 60 66  1  0
 61 62  2  0
 61 60  1  0
 63 57  2  0
 64 63  1  0
 64 59  2  0
 65 58  1  0
 66 56  1  0
 68 70  2  0
 69 68  1  0
 71 69  1  0
 72 81  2  0
 72 77  1  0
 73 69  1  0
 73 77  1  0
 74 73  1  0
 75 76  1  0
 75 74  1  0
 76 72  1  0
 77 78  2  0
 78 79  1  0
 80 79  2  0
 81 80  1  0
 82 56  1  0
 82 87  1  0
 82 83  1  0
 83 86  1  1
 83 84  1  0
 85 83  1  0
 87 90  1  0
 88 92  1  0
 88 87  1  0
 89 88  2  0
 92 91  1  0
 94 92  1  0
 94 95  1  0
 94 93  1  0
M  ISO  4   9 100  10 100  54 101  55 101
M  END
>  <TORSDO>  (68) 
F 24

>  <SCORE>  (68) 
-11.811

>  <name>  (68) 
73

>  <ligand_id>  (68) 
73

>  <original_smiles>  (68) 
[H]c1c([H])c([H])c2c(c1[H])C([H])([H])C([H])([H])C([H])([H])C2([H])N([H])C(=O)C1([H])N(C(=O)C([H])(N([H])C(=O)C([H])(N([H])C([H])([H])[H])C([H])([H])[H])C(C([H])([H])[H])(C([H])([H])[H])C([H])([H])[H])C([H])([H])c2c([H])c(OC([H])([H])C([H])([H])C([H])([H])C([H])([H])C(c3nc([H])n(C([H])(C(=O)N4C([H])([H])C([H])([H])C([H])([H])C([H])(n5nc(-c6c([H])c([H])c(Oc7c([H])c([H])c(F)c([H])c7F)c([H])c6[H])c(C(=O)N([H])[H])c5N([H])[H])C4([H])[H])C([H])([H])C(F)(F)F)c3[H])(C([H])([H])[H])C([H])([H])[H])c([H])c([H])c2C1([H])[H]

>  <smiles>  (68) 
[H]c1c([H])c([H])c2c(c1[H])C([H])([H])C([H])([H])C([H])([H])C2([H])N([H])C(=O)C1([H])N(C(=O)C([H])(N([H])C(=O)C([H])(N([H])C([H])([H])[H])C([H])([H])[H])C(C([H])([H])[H])(C([H])([H])[H])C([H])([H])[H])C([H])([H])c2c([H])c(OC([H])([H])C([H])([H])C([H])([H])C([H])([H])C(c3nc([H])n(C([H])(C(=O)N4C([H])([H])C([H])([H])C([H])([H])C([H])(n5nc(-c6c([H])c([H])c(Oc7c([H])c([H])c(F)c([H])c7F)c([H])c6[H])c(C(=O)N([H])[H])c5N([H])[H])C4([H])[H])C([H])([H])C(F)(F)F)c3[H])(C([H])([H])[H])C([H])([H])[H])c([H])c([H])c2C1([H])[H]

$$$$
74:0:0
     RDKit          3D

 98106  0  0  1  0  0  0  0  0999 V2000
  -29.1340  -17.0200   19.7980 C   0  0  0  0  0  2  0  0  0  0  0  0
  -28.7870  -18.2080   17.9560 C   0  0  0  0  0  2  0  0  0  0  0  0
  -28.3270  -18.0460   19.2180 C   0  0  0  0  0  3  0  0  0  0  0  0
  -30.2100  -16.7670   18.9750 C   0  0  0  0  0  3  0  0  0  0  0  0
  -30.0290  -17.6230   17.8580 N   0  0  0  0  0  0  0  0  0  0  0  0
  -32.2450  -15.3030   18.1820 C   0  0  0  0  0  1  0  0  0  0  0  0
  -32.4620  -17.2620   19.6470 C   0  0  0  0  0  1  0  0  0  0  0  0
  -31.5250  -16.0560   19.3390 C   0  0  1  0  0  0  0  0  0  0  0  0
  -31.5650  -15.0610   20.5850 C   0  0  0  0  0  0  0  0  0  0  0  0
  -31.2620  -12.6660   20.1930 C   0  0  0  0  0  2  0  0  0  0  0  0
  -30.5200  -12.4000   18.8700 C   0  0  0  0  0  2  0  0  0  0  0  0
  -29.0060  -12.3990   19.0990 C   0  0  0  0  0  2  0  0  0  0  0  0
  -28.4950  -13.5880   19.9620 C   0  0  0  0  0  3  0  0  0  0  0  0
  -29.3940  -13.8630   21.1860 C   0  0  0  0  0  2  0  0  0  0  0  0
  -30.7740  -13.9530   20.7060 N   0  0  0  0  0  0  0  0  0  0  0  0
  -32.6800  -15.0290   21.0860 O   0  0  0  0  0  0  0  0  0  0  0  0
  -26.0890  -14.3430   20.4490 C   0  0  0  0  0  0  0  0  0  0  0  0
  -24.9330  -13.6440   20.6660 C   0  0  0  0  0  0  0  0  0  0  0  0
  -25.3010  -12.2620   20.6680 C   0  0  0  0  0  0  0  0  0  0  0  0
  -27.0920  -13.3980   20.3260 N   0  0  0  0  0  0  0  0  0  0  0  0
  -26.6150  -12.1390   20.5280 N   0  0  0  0  0  0  0  0  0  0  0  0
  -24.4710  -11.0500   20.7400 C   0  0  0  0  0  0  0  0  0  0  0  0
  -24.8430   -9.9430   21.5350 C   0  0  0  0  0  3  0  0  0  0  0  0
  -24.0180   -8.8000   21.6020 C   0  0  0  0  0  3  0  0  0  0  0  0
  -22.8050   -8.7540   20.8740 C   0  0  0  0  0  0  0  0  0  0  0  0
  -22.4510   -9.8480   20.0650 C   0  0  0  0  0  3  0  0  0  0  0  0
  -23.2760  -10.9840   19.9940 C   0  0  0  0  0  3  0  0  0  0  0  0
  -21.9540   -7.6760   20.8610 O   0  0  0  0  0  0  0  0  0  0  0  0
  -21.9540   -6.7450   21.8690 C   0  0  0  0  0  0  0  0  0  0  0  0
  -21.7510   -7.1090   23.2170 C   0  0  0  0  0  3  0  0  0  0  0  0
  -21.6870   -6.1160   24.2130 C   0  0  0  0  0  3  0  0  0  0  0  0
  -21.8170   -4.7580   23.8640 C   0  0  0  0  0  0  0  0  0  0  0  0
  -22.0150   -4.3930   22.5200 C   0  0  0  0  0  3  0  0  0  0  0  0
  -22.0790   -5.3850   21.5250 C   0  0  0  0  0  0  0  0  0  0  0  0
  -22.2470   -5.0240   20.2300 F   0  0  0  0  0  0  0  0  0  0  0  0
  -21.7500   -3.8010   24.8200 F   0  0  0  0  0  0  0  0  0  0  0  0
  -23.5480  -14.2120   20.7700 C   0  0  0  0  0  0  0  0  0  0  0  0
  -22.6930  -13.5890   21.5710 N   0  0  0  0  0  0  0  0  0  0  0  0
  -23.2310  -15.2420   20.1760 O   0  0  0  0  0  0  0  0  0  0  0  0
  -22.9670  -12.7530   22.0670 H   0  0  0  0  0  0  0  0  0  0  0  0
  -21.7560  -13.9440   21.6890 H   0  0  0  0  0  0  0  0  0  0  0  0
  -26.3660  -15.7010   20.3150 N   0  0  0  0  0  0  0  0  0  0  0  0
  -25.6420  -16.4070   20.3510 H   0  0  0  0  0  0  0  0  0  0  0  0
  -27.2900  -16.0910   20.1630 H   0  0  0  0  0  0  0  0  0  0  0  0
  -26.3050  -18.1750   20.7340 C   0  0  0  0  0  1  0  0  0  0  0  0
  -27.2610  -18.9430   19.8150 C   0  0  0  0  0  3  0  0  0  0  0  0
  -27.9530  -20.1640   20.5040 C   0  0  0  0  0  2  0  0  0  0  0  0
  -27.3530  -21.5690   20.2070 C   0  0  0  0  0  2  0  0  0  0  0  0
  -28.3790  -22.7240   20.3960 C   0  0  0  0  0  2  0  0  0  0  0  0
  -27.8000  -24.1660   20.4160 C   0  0  0  0  0  2  0  0  0  0  0  0
  -28.7600  -25.2250   19.7950 C   0  0  0  0  0  2  0  0  0  0  0  0
  -28.6400  -26.5810   20.2740 O   0  0  0  0  0  0  0  0  0  0  0  0
  -24.5250  -31.6130   23.1490 C   0  0  0  0  0  0  0  0  0  0  0  0
  -27.4500  -27.2710   20.1680 C   0  0  0  0  0  0  0  0  0  0  0  0
  -23.4560  -30.2010   21.4300 C   0  0  0  0  0  3  0  0  0  0  0  0
  -25.0250  -28.7260   20.0590 C   0  0  0  0  0  0  0  0  0  0  0  0
  -25.9740  -30.6270   21.3730 C   0  0  0  0  0  2  0  0  0  0  0  0
  -26.1320  -29.2690   20.7200 C   0  0  0  0  0  0  0  0  0  0  0  0
  -27.3490  -28.5500   20.7700 C   0  0  0  0  0  3  0  0  0  0  0  0
  -26.3290  -26.7550   19.4790 C   0  0  0  0  0  3  0  0  0  0  0  0
  -25.1200  -27.4720   19.4290 C   0  0  0  0  0  3  0  0  0  0  0  0
  -23.7580  -29.5520   20.0510 C   0  0  0  0  0  2  0  0  0  0  0  0
  -24.6680  -30.8300   22.0440 N   0  0  0  0  0  0  0  0  0  0  0  0
  -23.4100  -31.8400   23.6400 O   0  0  0  0  0  0  0  0  0  0  0  0
  -22.7860  -29.1490   22.3400 C   0  0  0  0  0  0  0  0  0  0  0  0
  -21.4660  -28.9690   22.1780 N   0  0  0  0  0  0  0  0  0  0  0  0
  -23.4530  -28.5000   23.1500 O   0  0  0  0  0  0  0  0  0  0  0  0
  -20.9850  -29.5500   21.5050 H   0  0  0  0  0  0  0  0  0  0  0  0
  -18.0760  -27.8190   22.6400 C   0  0  0  0  0  0  0  0  0  0  0  0
  -20.6380  -28.0020   22.8970 C   0  0  0  0  0  3  0  0  0  0  0  0
  -20.7090  -26.6110   22.2300 C   0  0  0  0  0  2  0  0  0  0  0  0
  -19.5860  -26.3670   21.2160 C   0  0  0  0  0  2  0  0  0  0  0  0
  -18.2160  -26.5090   21.8840 C   0  0  0  0  0  2  0  0  0  0  0  0
  -19.2140  -28.5280   23.1040 C   0  0  0  0  0  0  0  0  0  0  0  0
  -19.0300  -29.7570   23.7740 C   0  0  0  0  0  3  0  0  0  0  0  0
  -17.7400  -30.2740   23.9860 C   0  0  0  0  0  3  0  0  0  0  0  0
  -16.6140  -29.5610   23.5390 C   0  0  0  0  0  3  0  0  0  0  0  0
  -16.7840  -28.3350   22.8720 C   0  0  0  0  0  3  0  0  0  0  0  0
  -25.7570  -32.2780   23.8390 C   0  0  0  0  0  3  0  0  0  0  0  0
  -26.2240  -31.5140   25.1410 C   0  0  1  0  0  0  0  0  0  0  0  0
  -25.0790  -31.2330   26.1430 C   0  0  0  0  0  1  0  0  0  0  0  0
  -26.8700  -30.1580   24.7760 C   0  0  0  0  0  1  0  0  0  0  0  0
  -27.3080  -32.3390   25.8750 C   0  0  0  0  0  1  0  0  0  0  0  0
  -25.3910  -33.6650   24.1510 N   0  0  0  0  0  0  0  0  0  0  0  0
  -25.7180  -34.7220   23.3940 C   0  0  0  0  0  0  0  0  0  0  0  0
  -26.4250  -34.6340   22.3880 O   0  0  0  0  0  0  0  0  0  0  0  0
  -24.7620  -33.8040   24.9280 H   0  0  0  0  0  0  0  0  0  0  0  0
  -23.9370  -36.4450   22.9820 C   0  0  0  0  0  1  0  0  0  0  0  0
  -25.1730  -36.0960   23.8240 C   0  0  0  0  0  3  0  0  0  0  0  0
  -27.2470  -37.0720   24.7010 C   0  0  0  0  0  1  0  0  0  0  0  0
  -26.1700  -37.1810   23.7200 N   0  0  0  0  0  0  0  0  0  0  0  0
  -25.7280  -38.0870   23.8400 H   0  0  0  0  0  0  0  0  0  0  0  0
  -30.3310  -17.5890   15.3950 C   0  0  0  0  0  1  0  0  0  0  0  0
  -30.9250  -18.0000   16.7480 C   0  0  0  0  0  3  0  0  0  0  0  0
  -31.3370  -19.5030   16.7670 C   0  0  1  0  0  0  0  0  0  0  0  0
  -32.4110  -19.6720   15.9940 F   0  0  0  0  0  0  0  0  0  0  0  0
  -30.3790  -20.3080   16.3030 F   0  0  0  0  0  0  0  0  0  0  0  0
  -31.6660  -19.8940   18.0000 F   0  0  0  0  0  0  0  0  0  0  0  0
  2  3  1  0
  3  1  1  0
  3 46  1  0
  4  8  1  0
  4  1  1  0
  5  2  1  0
  5  4  1  0
  8  6  1  6
  8  7  1  0
  8  9  1  0
  9 15  1  0
  9 16  2  0
 10 15  1  0
 11 12  1  0
 11 10  1  0
 13 12  1  0
 13 20  1  0
 13 14  1  0
 15 14  1  0
 17 18  2  0
 18 19  1  0
 18 37  1  0
 19 22  1  0
 20 17  1  0
 20 21  1  0
 21 19  2  0
 22 23  1  0
 23 24  2  0
 25 24  1  0
 26 25  2  0
 27 26  1  0
 27 22  2  0
 28 25  1  0
 28 29  1  0
 29 30  1  0
 30 31  2  0
 32 31  1  0
 32 36  1  0
 33 32  2  0
 34 29  2  0
 34 33  1  0
 35 34  1  0
 37 38  1  0
 38 41  1  0
 38 40  1  0
 39 37  2  0
 42 43  1  0
 42 17  1  0
 44 42  1  0
 46 47  1  0
 46 45  1  0
 48 49  1  0
 48 47  1  0
 49 50  1  0
 51 52  1  0
 51 50  1  0
 53 64  2  0
 54 52  1  0
 54 59  1  0
 55 63  1  0
 55 65  1  0
 56 58  1  0
 57 63  1  0
 58 59  2  0
 58 57  1  0
 60 54  2  0
 61 60  1  0
 61 56  2  0
 62 56  1  0
 62 55  1  0
 63 53  1  0
 65 67  2  0
 66 65  1  0
 68 66  1  0
 69 78  2  0
 69 74  1  0
 70 66  1  0
 70 74  1  0
 71 70  1  0
 72 73  1  0
 72 71  1  0
 73 69  1  0
 74 75  2  0
 75 76  1  0
 77 76  2  0
 78 77  1  0
 79 53  1  0
 79 84  1  0
 79 80  1  0
 80 83  1  1
 80 81  1  0
 82 80  1  0
 84 87  1  0
 85 89  1  0
 85 84  1  0
 86 85  2  0
 89 88  1  0
 91 89  1  0
 91 92  1  0
 91 90  1  0
 94 93  1  0
 94 95  1  0
 94  5  1  0
 95 98  1  1
 96 95  1  0
 97 95  1  0
M  ISO  4   8 100   9 100  51 101  52 101
M  END
>  <TORSDO>  (69) 
F 25

>  <SCORE>  (69) 
-9.130

>  <name>  (69) 
74

>  <ligand_id>  (69) 
74

>  <original_smiles>  (69) 
[H]c1c([H])c([H])c2c(c1[H])C([H])([H])C([H])([H])C([H])([H])C2([H])N([H])C(=O)C1([H])N(C(=O)C([H])(N([H])C(=O)C([H])(N([H])C([H])([H])[H])C([H])([H])[H])C(C([H])([H])[H])(C([H])([H])[H])C([H])([H])[H])C([H])([H])c2c([H])c(OC([H])([H])C([H])([H])C([H])([H])C([H])([H])C([H])([H])C([H])(c3c([H])c(C(C(=O)N4C([H])([H])C([H])([H])C([H])([H])C([H])(n5nc(-c6c([H])c([H])c(Oc7c([H])c([H])c(F)c([H])c7F)c([H])c6[H])c(C(=O)N([H])[H])c5N([H])[H])C4([H])[H])(C([H])([H])[H])C([H])([H])[H])n(C([H])(C([H])([H])[H])C(F)(F)F)c3[H])C([H])([H])[H])c([H])c([H])c2C1([H])[H]

>  <smiles>  (69) 
[H]c1c([H])c([H])c2c(c1[H])C([H])([H])C([H])([H])C([H])([H])C2([H])N([H])C(=O)C1([H])N(C(=O)C([H])(N([H])C(=O)C([H])(N([H])C([H])([H])[H])C([H])([H])[H])C(C([H])([H])[H])(C([H])([H])[H])C([H])([H])[H])C([H])([H])c2c([H])c(OC([H])([H])C([H])([H])C([H])([H])C([H])([H])C([H])([H])C([H])(c3c([H])c(C(C(=O)N4C([H])([H])C([H])([H])C([H])([H])C([H])(n5nc(-c6c([H])c([H])c(Oc7c([H])c([H])c(F)c([H])c7F)c([H])c6[H])c(C(=O)N([H])[H])c5N([H])[H])C4([H])[H])(C([H])([H])[H])C([H])([H])[H])n(C([H])(C([H])([H])[H])C(F)(F)F)c3[H])C([H])([H])[H])c([H])c([H])c2C1([H])[H]

$$$$
75:0:0
     RDKit          3D

101109  0  0  1  0  0  0  0  0999 V2000
  -29.7640  -21.9340   20.7930 C   0  0  0  0  0  2  0  0  0  0  0  0
  -30.1620  -22.9780   18.4890 C   0  0  0  0  0  1  0  0  0  0  0  0
  -30.9640  -24.0840   20.5870 C   0  0  0  0  0  1  0  0  0  0  0  0
  -29.7870  -23.2790   19.9660 C   0  0  2  0  0  0  0  0  0  0  0  0
  -28.4020  -24.1050   20.0310 C   0  0  1  0  0  0  0  0  0  0  0  0
  -26.7720  -21.9960   19.4990 C   0  0  0  0  0  1  0  0  0  0  0  0
  -27.2660  -23.4160   19.1810 C   0  0  0  0  0  2  0  0  0  0  0  0
  -26.5060  -24.6190   21.8820 C   0  0  0  0  0  1  0  0  0  0  0  0
  -27.9630  -24.2530   21.5370 C   0  0  0  0  0  2  0  0  0  0  0  0
  -28.5760  -25.5330   19.3430 C   0  0  0  0  0  2  0  0  0  0  0  0
  -28.4090  -26.7190   20.1360 O   0  0  0  0  0  0  0  0  0  0  0  0
  -24.6130  -31.8700   23.2160 C   0  0  0  0  0  0  0  0  0  0  0  0
  -27.2350  -27.4490   20.0730 C   0  0  0  0  0  0  0  0  0  0  0  0
  -23.4000  -30.4970   21.5550 C   0  0  0  0  0  3  0  0  0  0  0  0
  -24.8460  -28.9740   20.1110 C   0  0  0  0  0  0  0  0  0  0  0  0
  -25.9310  -30.8340   21.3750 C   0  0  0  0  0  2  0  0  0  0  0  0
  -26.0050  -29.4720   20.7170 C   0  0  0  0  0  0  0  0  0  0  0  0
  -27.1960  -28.7110   20.7090 C   0  0  0  0  0  3  0  0  0  0  0  0
  -26.0580  -26.9830   19.4410 C   0  0  0  0  0  3  0  0  0  0  0  0
  -24.8650  -27.7240   19.4770 C   0  0  0  0  0  3  0  0  0  0  0  0
  -23.6080  -29.8370   20.1670 C   0  0  0  0  0  2  0  0  0  0  0  0
  -24.6660  -31.0800   22.1060 N   0  0  0  0  0  0  0  0  0  0  0  0
  -23.5320  -32.1480   23.7530 O   0  0  0  0  0  0  0  0  0  0  0  0
  -22.7410  -29.4660   22.4990 C   0  0  0  0  0  0  0  0  0  0  0  0
  -21.4140  -29.3020   22.3730 N   0  0  0  0  0  0  0  0  0  0  0  0
  -23.4190  -28.8200   23.3020 O   0  0  0  0  0  0  0  0  0  0  0  0
  -20.9290  -29.8810   21.7020 H   0  0  0  0  0  0  0  0  0  0  0  0
  -18.0270  -28.1340   22.8500 C   0  0  0  0  0  0  0  0  0  0  0  0
  -20.5870  -28.3630   23.1300 C   0  0  0  0  0  3  0  0  0  0  0  0
  -20.6760  -26.9370   22.5400 C   0  0  0  0  0  2  0  0  0  0  0  0
  -19.5740  -26.6360   21.5200 C   0  0  0  0  0  2  0  0  0  0  0  0
  -18.1910  -26.7890   22.1620 C   0  0  0  0  0  2  0  0  0  0  0  0
  -19.1530  -28.8800   23.2900 C   0  0  0  0  0  0  0  0  0  0  0  0
  -18.9460  -30.1400   23.8920 C   0  0  0  0  0  3  0  0  0  0  0  0
  -17.6470  -30.6560   24.0550 C   0  0  0  0  0  3  0  0  0  0  0  0
  -16.5360  -29.9070   23.6310 C   0  0  0  0  0  3  0  0  0  0  0  0
  -16.7270  -28.6470   23.0370 C   0  0  0  0  0  3  0  0  0  0  0  0
  -25.9020  -32.4840   23.8440 C   0  0  0  0  0  3  0  0  0  0  0  0
  -26.4460  -31.6620   25.0760 C   0  0  1  0  0  0  0  0  0  0  0  0
  -25.3730  -31.3700   26.1510 C   0  0  0  0  0  1  0  0  0  0  0  0
  -27.0310  -30.3080   24.6120 C   0  0  0  0  0  1  0  0  0  0  0  0
  -27.6040  -32.4360   25.7510 C   0  0  0  0  0  1  0  0  0  0  0  0
  -25.5890  -33.8640   24.2370 N   0  0  0  0  0  0  0  0  0  0  0  0
  -25.9020  -34.9490   23.5150 C   0  0  0  0  0  0  0  0  0  0  0  0
  -26.5580  -34.8920   22.4710 O   0  0  0  0  0  0  0  0  0  0  0  0
  -25.0060  -33.9830   25.0520 H   0  0  0  0  0  0  0  0  0  0  0  0
  -24.1480  -36.7310   23.2640 C   0  0  0  0  0  1  0  0  0  0  0  0
  -25.4100  -36.3120   24.0340 C   0  0  0  0  0  3  0  0  0  0  0  0
  -27.5580  -37.1800   24.8460 C   0  0  0  0  0  1  0  0  0  0  0  0
  -26.4290  -37.3800   23.9410 N   0  0  0  0  0  0  0  0  0  0  0  0
  -26.0180  -38.2880   24.1450 H   0  0  0  0  0  0  0  0  0  0  0  0
  -30.7160  -20.7880   20.3650 C   0  0  0  0  0  2  0  0  0  0  0  0
  -30.0200  -18.3540   20.7530 C   0  0  0  0  0  3  0  0  0  0  0  0
  -30.0360  -17.5970   21.8920 C   0  0  0  0  0  0  0  0  0  0  0  0
  -30.5220  -18.3980   22.9290 N   0  0  0  0  0  0  0  0  0  0  0  0
  -30.8170  -19.5760   22.4740 N   0  0  0  0  0  0  0  0  0  0  0  0
  -30.5080  -19.5830   21.1570 N   0  0  0  0  0  0  0  0  0  0  0  0
  -28.5690  -16.1170   23.2480 C   0  0  0  0  0  1  0  0  0  0  0  0
  -29.6010  -16.1580   22.0940 C   0  0  0  0  0  3  0  0  0  0  0  0
  -30.6000  -14.0390   23.3270 C   0  0  0  0  0  1  0  0  0  0  0  0
  -30.7660  -15.0720   22.1590 C   0  0  1  0  0  0  0  0  0  0  0  0
  -30.8420  -14.3170   20.7780 C   0  0  0  0  0  0  0  0  0  0  0  0
  -30.4040  -12.3000   19.4070 C   0  0  0  0  0  2  0  0  0  0  0  0
  -29.4850  -12.5400   18.1960 C   0  0  0  0  0  2  0  0  0  0  0  0
  -28.0120  -12.3730   18.6020 C   0  0  0  0  0  2  0  0  0  0  0  0
  -27.6620  -13.2040   19.8590 C   0  0  0  0  0  3  0  0  0  0  0  0
  -28.6900  -12.9850   20.9870 C   0  0  0  0  0  2  0  0  0  0  0  0
  -30.0490  -13.2440   20.4820 N   0  0  0  0  0  0  0  0  0  0  0  0
  -31.7270  -14.6490   19.9840 O   0  0  0  0  0  0  0  0  0  0  0  0
  -25.2610  -13.8170   20.5630 C   0  0  0  0  0  0  0  0  0  0  0  0
  -24.1860  -13.0440   20.9160 C   0  0  0  0  0  0  0  0  0  0  0  0
  -24.6410  -11.6910   20.8720 C   0  0  0  0  0  0  0  0  0  0  0  0
  -26.3020  -12.9320   20.3230 N   0  0  0  0  0  0  0  0  0  0  0  0
  -25.9320  -11.6480   20.5680 N   0  0  0  0  0  0  0  0  0  0  0  0
  -23.9070  -10.4290   21.0410 C   0  0  0  0  0  0  0  0  0  0  0  0
  -24.3620   -9.4210   21.9190 C   0  0  0  0  0  3  0  0  0  0  0  0
  -23.6290   -8.2250   22.0760 C   0  0  0  0  0  3  0  0  0  0  0  0
  -22.4270   -8.0280   21.3550 C   0  0  0  0  0  0  0  0  0  0  0  0
  -21.9910   -9.0260   20.4650 C   0  0  0  0  0  3  0  0  0  0  0  0
  -22.7240  -10.2130   20.3060 C   0  0  0  0  0  3  0  0  0  0  0  0
  -21.6640   -6.8870   21.4230 O   0  0  0  0  0  0  0  0  0  0  0  0
  -21.6860   -6.0730   22.5270 C   0  0  0  0  0  0  0  0  0  0  0  0
  -21.4020   -6.5640   23.8210 C   0  0  0  0  0  3  0  0  0  0  0  0
  -21.3660   -5.6790   24.9170 C   0  0  0  0  0  3  0  0  0  0  0  0
  -21.6040   -4.3050   24.7220 C   0  0  0  0  0  0  0  0  0  0  0  0
  -21.8820   -3.8140   23.4350 C   0  0  0  0  0  3  0  0  0  0  0  0
  -21.9190   -4.6960   22.3400 C   0  0  0  0  0  0  0  0  0  0  0  0
  -22.1660   -4.2140   21.0980 F   0  0  0  0  0  0  0  0  0  0  0  0
  -21.5630   -3.4540   25.7740 F   0  0  0  0  0  0  0  0  0  0  0  0
  -22.7880  -13.5250   21.1830 C   0  0  0  0  0  0  0  0  0  0  0  0
  -22.0520  -12.8240   22.0400 N   0  0  0  0  0  0  0  0  0  0  0  0
  -22.3560  -14.5550   20.6690 O   0  0  0  0  0  0  0  0  0  0  0  0
  -22.4140  -11.9890   22.4770 H   0  0  0  0  0  0  0  0  0  0  0  0
  -21.1150  -13.1290   22.2620 H   0  0  0  0  0  0  0  0  0  0  0  0
  -25.4360  -15.1880   20.4070 N   0  0  0  0  0  0  0  0  0  0  0  0
  -24.6780  -15.8490   20.5290 H   0  0  0  0  0  0  0  0  0  0  0  0
  -26.2890  -15.6220   20.0760 H   0  0  0  0  0  0  0  0  0  0  0  0
  -32.1840  -15.7090   22.4500 C   0  0  1  0  0  0  0  0  0  0  0  0
  -32.5980  -16.6110   21.5550 F   0  0  0  0  0  0  0  0  0  0  0  0
  -32.2200  -16.2830   23.6550 F   0  0  0  0  0  0  0  0  0  0  0  0
  -33.1200  -14.7540   22.4740 F   0  0  0  0  0  0  0  0  0  0  0  0
  4  2  1  6
  4  5  1  0
  4  3  1  0
  4  1  1  0
  5  9  1  1
  7  6  1  0
  7  5  1  0
  9  8  1  0
 10  5  1  0
 10 11  1  0
 12 23  2  0
 13 11  1  0
 13 18  1  0
 14 22  1  0
 14 24  1  0
 15 21  1  0
 15 17  1  0
 16 22  1  0
 17 16  1  0
 18 17  2  0
 19 20  1  0
 19 13  2  0
 20 15  2  0
 21 14  1  0
 22 12  1  0
 24 26  2  0
 25 24  1  0
 27 25  1  0
 28 37  2  0
 28 33  1  0
 29 25  1  0
 29 33  1  0
 30 29  1  0
 31 32  1  0
 31 30  1  0
 32 28  1  0
 33 34  2  0
 34 35  1  0
 36 35  2  0
 37 36  1  0
 38 12  1  0
 38 43  1  0
 38 39  1  0
 39 42  1  1
 39 40  1  0
 41 39  1  0
 43 46  1  0
 44 48  1  0
 44 43  1  0
 45 44  2  0
 48 47  1  0
 50 48  1  0
 50 51  1  0
 50 49  1  0
 52  1  1  0
 52 57  1  0
 53 57  1  0
 53 54  2  0
 54 59  1  0
 54 55  1  0
 56 55  2  0
 57 56  1  0
 59 61  1  0
 59 58  1  0
 61 98  1  0
 61 60  1  1
 62 61  1  0
 63 68  1  0
 64 65  1  0
 64 63  1  0
 66 65  1  0
 66 73  1  0
 66 67  1  0
 68 62  1  0
 68 67  1  0
 69 62  2  0
 70 71  2  0
 71 90  1  0
 72 71  1  0
 72 75  1  0
 73 70  1  0
 73 74  1  0
 74 72  2  0
 75 76  1  0
 76 77  2  0
 78 81  1  0
 78 77  1  0
 79 78  2  0
 80 79  1  0
 80 75  2  0
 81 82  1  0
 82 83  1  0
 83 84  2  0
 85 84  1  0
 85 89  1  0
 86 85  2  0
 87 82  2  0
 87 86  1  0
 88 87  1  0
 90 91  1  0
 91 94  1  0
 91 93  1  0
 92 90  2  0
 95 96  1  0
 95 70  1  0
 97 95  1  0
 98101  1  1
 98100  1  0
 99 98  1  0
M  ISO  4  10 101  11 101  61 100  62 100
M  END
>  <TORSDO>  (70) 
F 26

>  <SCORE>  (70) 
4.941

>  <name>  (70) 
75

>  <ligand_id>  (70) 
75

>  <original_smiles>  (70) 
[H]c1c([H])c([H])c2c(c1[H])C([H])([H])C([H])([H])C([H])([H])C2([H])N([H])C(=O)C1([H])N(C(=O)C([H])(N([H])C(=O)C([H])(N([H])C([H])([H])[H])C([H])([H])[H])C(C([H])([H])[H])(C([H])([H])[H])C([H])([H])[H])C([H])([H])c2c([H])c(OC([H])([H])C(C([H])([H])C([H])([H])[H])(C([H])([H])C([H])([H])[H])C(C([H])([H])[H])(C([H])([H])[H])C([H])([H])C([H])([H])n3nnc(C([H])(C([H])([H])[H])C(C(=O)N4C([H])([H])C([H])([H])C([H])([H])C([H])(n5nc(-c6c([H])c([H])c(Oc7c([H])c([H])c(F)c([H])c7F)c([H])c6[H])c(C(=O)N([H])[H])c5N([H])[H])C4([H])[H])(C([H])([H])[H])C(F)(F)F)c3[H])c([H])c([H])c2C1([H])[H]

>  <smiles>  (70) 
[H]c1c([H])c([H])c2c(c1[H])C([H])([H])C([H])([H])C([H])([H])C2([H])N([H])C(=O)C1([H])N(C(=O)C([H])(N([H])C(=O)C([H])(N([H])C([H])([H])[H])C([H])([H])[H])C(C([H])([H])[H])(C([H])([H])[H])C([H])([H])[H])C([H])([H])c2c([H])c(OC([H])([H])C(C([H])([H])C([H])([H])[H])(C([H])([H])C([H])([H])[H])C(C([H])([H])[H])(C([H])([H])[H])C([H])([H])C([H])([H])n3nnc(C([H])(C([H])([H])[H])C(C(=O)N4C([H])([H])C([H])([H])C([H])([H])C([H])(n5nc(-c6c([H])c([H])c(Oc7c([H])c([H])c(F)c([H])c7F)c([H])c6[H])c(C(=O)N([H])[H])c5N([H])[H])C4([H])[H])(C([H])([H])[H])C(F)(F)F)c3[H])c([H])c([H])c2C1([H])[H]

$$$$
76:0:0
     RDKit          3D

 96104  0  0  1  0  0  0  0  0999 V2000
  -27.8420  -21.2280   21.4210 C   0  0  0  0  0  2  0  0  0  0  0  0
  -28.5910  -22.5200   21.0550 C   0  0  0  0  0  2  0  0  0  0  0  0
  -27.8700  -23.3630   19.9790 C   0  0  0  0  0  2  0  0  0  0  0  0
  -27.2150  -25.4830   21.1510 C   0  0  0  0  0  1  0  0  0  0  0  0
  -29.5820  -25.2460   20.3260 C   0  0  0  0  0  1  0  0  0  0  0  0
  -28.1070  -24.9000   20.0310 C   0  0  1  0  0  0  0  0  0  0  0  0
  -27.7500  -25.4810   18.6270 C   0  0  0  0  0  2  0  0  0  0  0  0
  -27.7570  -26.9140   18.5600 O   0  0  0  0  0  0  0  0  0  0  0  0
  -24.5660  -31.4710   22.9670 C   0  0  0  0  0  0  0  0  0  0  0  0
  -26.5920  -27.6060   18.8290 C   0  0  0  0  0  0  0  0  0  0  0  0
  -23.0860  -30.3490   21.3390 C   0  0  0  0  0  3  0  0  0  0  0  0
  -24.2610  -29.0750   19.4720 C   0  0  0  0  0  0  0  0  0  0  0  0
  -25.5570  -30.7500   20.7990 C   0  0  0  0  0  2  0  0  0  0  0  0
  -25.5100  -29.5040   19.9400 C   0  0  0  0  0  0  0  0  0  0  0  0
  -26.6780  -28.7800   19.6140 C   0  0  0  0  0  3  0  0  0  0  0  0
  -25.3190  -27.1950   18.3640 C   0  0  0  0  0  3  0  0  0  0  0  0
  -24.1600  -27.9180   18.6870 C   0  0  0  0  0  3  0  0  0  0  0  0
  -23.0580  -29.9060   19.8530 C   0  0  0  0  0  2  0  0  0  0  0  0
  -24.4320  -30.8600   21.7570 N   0  0  0  0  0  0  0  0  0  0  0  0
  -23.5900  -31.6450   23.7100 O   0  0  0  0  0  0  0  0  0  0  0  0
  -22.5780  -29.1790   22.2100 C   0  0  0  0  0  0  0  0  0  0  0  0
  -21.2620  -28.9190   22.1510 N   0  0  0  0  0  0  0  0  0  0  0  0
  -23.3600  -28.5120   22.8920 O   0  0  0  0  0  0  0  0  0  0  0  0
  -20.6870  -29.5180   21.5750 H   0  0  0  0  0  0  0  0  0  0  0  0
  -18.0430  -27.3420   22.6040 C   0  0  0  0  0  0  0  0  0  0  0  0
  -20.5640  -27.8470   22.8570 C   0  0  0  0  0  3  0  0  0  0  0  0
  -20.8010  -26.4800   22.1740 C   0  0  0  0  0  2  0  0  0  0  0  0
  -19.7190  -26.1200   21.1510 C   0  0  0  0  0  2  0  0  0  0  0  0
  -18.3440  -26.0730   21.8230 C   0  0  0  0  0  2  0  0  0  0  0  0
  -19.0850  -28.1850   23.0740 C   0  0  0  0  0  0  0  0  0  0  0  0
  -18.7500  -29.3710   23.7610 C   0  0  0  0  0  3  0  0  0  0  0  0
  -17.4040  -29.7220   23.9750 C   0  0  0  0  0  3  0  0  0  0  0  0
  -16.3760  -28.8780   23.5200 C   0  0  0  0  0  3  0  0  0  0  0  0
  -16.6960  -27.6870   22.8430 C   0  0  0  0  0  3  0  0  0  0  0  0
  -25.9470  -32.0010   23.4680 C   0  0  0  0  0  3  0  0  0  0  0  0
  -25.7340  -33.3540   23.9990 N   0  0  0  0  0  0  0  0  0  0  0  0
  -26.0450  -34.4840   23.3480 C   0  0  0  0  0  0  0  0  0  0  0  0
  -26.6140  -34.4910   22.2520 O   0  0  0  0  0  0  0  0  0  0  0  0
  -25.2350  -33.4240   24.8730 H   0  0  0  0  0  0  0  0  0  0  0  0
  -24.3830  -36.3670   23.3670 C   0  0  0  0  0  1  0  0  0  0  0  0
  -25.6620  -35.8180   24.0190 C   0  0  0  0  0  3  0  0  0  0  0  0
  -27.8970  -36.4950   24.7740 C   0  0  0  0  0  1  0  0  0  0  0  0
  -26.7340  -36.8360   23.9580 N   0  0  0  0  0  0  0  0  0  0  0  0
  -26.3880  -37.7420   24.2630 H   0  0  0  0  0  0  0  0  0  0  0  0
  -26.6150  -31.0730   24.5550 C   0  0  1  0  0  0  0  0  0  0  0  0
  -25.6730  -30.7110   25.7270 C   0  0  0  0  0  1  0  0  0  0  0  0
  -27.0980  -29.7510   23.9160 C   0  0  0  0  0  1  0  0  0  0  0  0
  -27.8680  -31.7660   25.1380 C   0  0  0  0  0  1  0  0  0  0  0  0
  -28.6460  -20.3050   22.3590 C   0  0  0  0  0  2  0  0  0  0  0  0
  -31.1180  -20.1510   21.7980 C   0  0  0  0  0  2  0  0  0  0  0  0
  -31.0390  -18.5260   20.5240 C   0  0  0  0  0  0  0  0  0  0  0  0
  -31.9370  -19.4160   21.0490 N   0  0  0  0  0  0  0  0  0  0  0  0
  -29.7750  -18.6690   20.9370 N   0  0  0  0  0  2  0  0  0  0  0  0
  -29.8410  -19.7630   21.7340 N   0  0  0  0  0  0  0  0  0  0  0  0
  -31.4270  -17.5030   19.4920 C   0  0  0  0  0  3  0  0  0  0  0  0
  -32.7750  -15.3920   19.6200 C   0  0  0  0  0  0  0  0  0  0  0  0
  -32.2320  -13.1230   18.8140 C   0  0  0  0  0  2  0  0  0  0  0  0
  -31.2270  -13.1490   17.6450 C   0  0  0  0  0  2  0  0  0  0  0  0
  -29.7780  -13.1970   18.1680 C   0  0  0  0  0  2  0  0  0  0  0  0
  -29.5690  -14.2680   19.2710 C   0  0  0  0  0  3  0  0  0  0  0  0
  -30.6770  -14.1930   20.3450 C   0  0  0  0  0  2  0  0  0  0  0  0
  -31.9780  -14.2910   19.6690 N   0  0  0  0  0  0  0  0  0  0  0  0
  -33.8850  -15.3980   19.0870 O   0  0  0  0  0  0  0  0  0  0  0  0
  -32.2950  -16.5170   20.1550 N   0  0  0  0  0  0  0  0  0  0  0  0
  -33.0160  -17.0480   20.6230 H   0  0  0  0  0  0  0  0  0  0  0  0
  -27.4030  -15.2030   20.3020 C   0  0  0  0  0  0  0  0  0  0  0  0
  -26.2410  -14.5940   20.6910 C   0  0  0  0  0  0  0  0  0  0  0  0
  -26.4320  -13.1980   20.4560 C   0  0  0  0  0  0  0  0  0  0  0  0
  -28.2380  -14.1860   19.8640 N   0  0  0  0  0  0  0  0  0  0  0  0
  -27.6610  -12.9660   20.0150 N   0  0  0  0  0  0  0  0  0  0  0  0
  -25.4950  -12.0730   20.5660 C   0  0  0  0  0  0  0  0  0  0  0  0
  -25.7430  -10.9900   21.4350 C   0  0  0  0  0  3  0  0  0  0  0  0
  -24.8190   -9.9270   21.5390 C   0  0  0  0  0  3  0  0  0  0  0  0
  -23.6300   -9.9450   20.7730 C   0  0  0  0  0  0  0  0  0  0  0  0
  -23.3970  -11.0160   19.8900 C   0  0  0  0  0  3  0  0  0  0  0  0
  -24.3220  -12.0670   19.7850 C   0  0  0  0  0  3  0  0  0  0  0  0
  -22.6860   -8.9460   20.7870 O   0  0  0  0  0  0  0  0  0  0  0  0
  -22.3760   -8.2650   21.9360 C   0  0  0  0  0  0  0  0  0  0  0  0
  -21.9360   -8.9300   23.1000 C   0  0  0  0  0  3  0  0  0  0  0  0
  -21.5620   -8.1880   24.2370 C   0  0  0  0  0  3  0  0  0  0  0  0
  -21.6160   -6.7810   24.2090 C   0  0  0  0  0  0  0  0  0  0  0  0
  -22.0460   -6.1170   23.0490 C   0  0  0  0  0  3  0  0  0  0  0  0
  -22.4230   -6.8570   21.9130 C   0  0  0  0  0  0  0  0  0  0  0  0
  -22.8170   -6.2090   20.7910 F   0  0  0  0  0  0  0  0  0  0  0  0
  -21.2480   -6.0690   25.2990 F   0  0  0  0  0  0  0  0  0  0  0  0
  -24.9860  -15.2730   21.1570 C   0  0  0  0  0  0  0  0  0  0  0  0
  -24.2260  -14.6290   22.0330 N   0  0  0  0  0  0  0  0  0  0  0  0
  -24.6950  -16.4090   20.7770 O   0  0  0  0  0  0  0  0  0  0  0  0
  -24.4730  -13.7100   22.3740 H   0  0  0  0  0  0  0  0  0  0  0  0
  -23.3800  -15.0620   22.3770 H   0  0  0  0  0  0  0  0  0  0  0  0
  -27.7960  -16.5380   20.2620 N   0  0  0  0  0  0  0  0  0  0  0  0
  -27.1370  -17.2720   20.4960 H   0  0  0  0  0  0  0  0  0  0  0  0
  -28.6490  -16.8950   19.8510 H   0  0  0  0  0  0  0  0  0  0  0  0
  -32.0290  -17.2440   16.9630 C   0  0  0  0  0  1  0  0  0  0  0  0
  -31.3930  -19.5030   17.7910 C   0  0  0  0  0  1  0  0  0  0  0  0
  -32.0480  -18.1620   18.2020 C   0  0  0  0  0  3  0  0  0  0  0  0
  1 49  1  0
  2  1  1  0
  3  6  1  0
  3  2  1  0
  6  5  1  1
  6  4  1  0
  7  6  1  0
  8  7  1  0
  8 10  1  0
  9 20  2  0
 10 15  1  0
 11 19  1  0
 11 21  1  0
 12 18  1  0
 12 14  1  0
 13 19  1  0
 14 13  1  0
 15 14  2  0
 16 17  1  0
 16 10  2  0
 17 12  2  0
 18 11  1  0
 19  9  1  0
 21 23  2  0
 22 21  1  0
 24 22  1  0
 25 34  2  0
 25 30  1  0
 26 22  1  0
 26 30  1  0
 27 26  1  0
 28 29  1  0
 28 27  1  0
 29 25  1  0
 30 31  2  0
 31 32  1  0
 33 32  2  0
 34 33  1  0
 35  9  1  0
 35 36  1  0
 35 45  1  0
 36 39  1  0
 37 36  1  0
 37 41  1  0
 38 37  2  0
 41 40  1  0
 43 41  1  0
 43 44  1  0
 43 42  1  0
 45 48  1  1
 45 46  1  0
 47 45  1  0
 51 53  1  0
 51 52  2  0
 52 50  1  0
 53 54  1  0
 54 50  1  0
 54 49  1  0
 55 96  1  0
 55 64  1  0
 55 51  1  0
 56 62  1  0
 56 64  1  0
 57 62  1  0
 58 59  1  0
 58 57  1  0
 60 59  1  0
 60 69  1  0
 60 61  1  0
 62 61  1  0
 63 56  2  0
 64 65  1  0
 66 67  2  0
 67 86  1  0
 68 71  1  0
 68 67  1  0
 69 70  1  0
 69 66  1  0
 70 68  2  0
 71 72  1  0
 72 73  2  0
 74 77  1  0
 74 73  1  0
 75 74  2  0
 76 75  1  0
 76 71  2  0
 77 78  1  0
 78 79  1  0
 79 80  2  0
 81 80  1  0
 81 85  1  0
 82 81  2  0
 83 78  2  0
 83 82  1  0
 84 83  1  0
 86 87  1  0
 87 89  1  0
 87 90  1  0
 88 86  2  0
 91 66  1  0
 91 92  1  0
 93 91  1  0
 94 96  1  0
 95 96  1  0
M  ISO  4   7 101   8 101  56 100  64 100
M  END
>  <TORSDO>  (71) 
F 24

>  <SCORE>  (71) 
-5.569

>  <name>  (71) 
76

>  <ligand_id>  (71) 
76

>  <original_smiles>  (71) 
[H]c1c([H])c([H])c2c(c1[H])C([H])([H])C([H])([H])C([H])([H])C2([H])N([H])C(=O)C1([H])N(C(=O)C([H])(N([H])C(=O)C([H])(N([H])C([H])([H])[H])C([H])([H])[H])C(C([H])([H])[H])(C([H])([H])[H])C([H])([H])[H])C([H])([H])c2c([H])c(OC([H])([H])C(C([H])([H])[H])(C([H])([H])[H])C([H])([H])C([H])([H])C([H])([H])C([H])([H])n3nc(C([H])(N([H])C(=O)N4C([H])([H])C([H])([H])C([H])([H])C([H])(n5nc(-c6c([H])c([H])c(Oc7c([H])c([H])c(F)c([H])c7F)c([H])c6[H])c(C(=O)N([H])[H])c5N([H])[H])C4([H])[H])C([H])(C([H])([H])[H])C([H])([H])[H])nc3[H])c([H])c([H])c2C1([H])[H]

>  <smiles>  (71) 
[H]c1c([H])c([H])c2c(c1[H])C([H])([H])C([H])([H])C([H])([H])C2([H])N([H])C(=O)C1([H])N(C(=O)C([H])(N([H])C(=O)C([H])(N([H])C([H])([H])[H])C([H])([H])[H])C(C([H])([H])[H])(C([H])([H])[H])C([H])([H])[H])C([H])([H])c2c([H])c(OC([H])([H])C(C([H])([H])[H])(C([H])([H])[H])C([H])([H])C([H])([H])C([H])([H])C([H])([H])n3nc(C([H])(N([H])C(=O)N4C([H])([H])C([H])([H])C([H])([H])C([H])(n5nc(-c6c([H])c([H])c(Oc7c([H])c([H])c(F)c([H])c7F)c([H])c6[H])c(C(=O)N([H])[H])c5N([H])[H])C4([H])[H])C([H])(C([H])([H])[H])C([H])([H])[H])nc3[H])c([H])c([H])c2C1([H])[H]

$$$$
77:0:0
     RDKit          3D

 92100  0  0  1  0  0  0  0  0999 V2000
  -29.7460  -20.5160   18.8030 C   0  0  0  0  0  2  0  0  0  0  0  0
  -29.4820  -18.8980   20.1440 C   0  0  0  0  0  0  0  0  0  0  0  0
  -30.1170  -19.2300   18.9720 N   0  0  0  0  0  0  0  0  0  0  0  0
  -28.7380  -19.9420   20.6190 N   0  0  0  0  0  2  0  0  0  0  0  0
  -28.9490  -21.0240   19.7580 N   0  0  0  0  0  0  0  0  0  0  0  0
  -28.1490  -22.3370   19.8250 C   0  0  0  0  0  2  0  0  0  0  0  0
  -28.7800  -23.8400   19.7290 C   0  0  0  0  0  3  0  0  0  0  0  0
  -27.7300  -25.0890   19.6330 C   0  0  0  0  0  3  0  0  0  0  0  0
  -28.0360  -26.5700   19.7600 O   0  0  0  0  0  0  0  0  0  0  0  0
  -24.5470  -31.9640   23.2450 C   0  0  0  0  0  0  0  0  0  0  0  0
  -26.9500  -27.4910   19.8230 C   0  0  0  0  0  0  0  0  0  0  0  0
  -23.2560  -30.6730   21.5870 C   0  0  0  0  0  3  0  0  0  0  0  0
  -24.6210  -29.1840   20.0160 C   0  0  0  0  0  0  0  0  0  0  0  0
  -25.7980  -30.9490   21.3170 C   0  0  0  0  0  2  0  0  0  0  0  0
  -25.8290  -29.6050   20.5850 C   0  0  0  0  0  0  0  0  0  0  0  0
  -26.9960  -28.7750   20.4760 C   0  0  0  0  0  3  0  0  0  0  0  0
  -25.7090  -27.1450   19.2390 C   0  0  0  0  0  3  0  0  0  0  0  0
  -24.5660  -27.9620   19.3340 C   0  0  0  0  0  3  0  0  0  0  0  0
  -23.4040  -30.0760   20.1630 C   0  0  0  0  0  2  0  0  0  0  0  0
  -24.5550  -31.2120   22.1040 N   0  0  0  0  0  0  0  0  0  0  0  0
  -23.4900  -32.2280   23.8370 O   0  0  0  0  0  0  0  0  0  0  0  0
  -22.6170  -29.6140   22.5170 C   0  0  0  0  0  0  0  0  0  0  0  0
  -21.2970  -29.3970   22.3740 N   0  0  0  0  0  0  0  0  0  0  0  0
  -23.3080  -28.9930   23.3290 O   0  0  0  0  0  0  0  0  0  0  0  0
  -20.7980  -29.9520   21.6940 H   0  0  0  0  0  0  0  0  0  0  0  0
  -17.9690  -28.0290   22.7680 C   0  0  0  0  0  0  0  0  0  0  0  0
  -20.5010  -28.4160   23.1160 C   0  0  0  0  0  3  0  0  0  0  0  0
  -20.6930  -26.9940   22.5390 C   0  0  0  0  0  2  0  0  0  0  0  0
  -19.6390  -26.6210   21.4910 C   0  0  0  0  0  2  0  0  0  0  0  0
  -18.2340  -26.6940   22.0940 C   0  0  0  0  0  2  0  0  0  0  0  0
  -19.0350  -28.8440   23.2340 C   0  0  0  0  0  0  0  0  0  0  0  0
  -18.7350  -30.0910   23.8240 C   0  0  0  0  0  3  0  0  0  0  0  0
  -17.4020  -30.5250   23.9530 C   0  0  0  0  0  3  0  0  0  0  0  0
  -16.3500  -29.7060   23.5040 C   0  0  0  0  0  3  0  0  0  0  0  0
  -16.6350  -28.4610   22.9180 C   0  0  0  0  0  3  0  0  0  0  0  0
  -25.8630  -32.5450   23.8460 C   0  0  0  0  0  3  0  0  0  0  0  0
  -25.5970  -33.9360   24.2380 N   0  0  0  0  0  0  0  0  0  0  0  0
  -25.9390  -35.0110   23.5150 C   0  0  0  0  0  0  0  0  0  0  0  0
  -26.5810  -34.9340   22.4650 O   0  0  0  0  0  0  0  0  0  0  0  0
  -25.0280  -34.0740   25.0600 H   0  0  0  0  0  0  0  0  0  0  0  0
  -24.2570  -36.8670   23.2680 C   0  0  0  0  0  1  0  0  0  0  0  0
  -25.4980  -36.3920   24.0410 C   0  0  0  0  0  3  0  0  0  0  0  0
  -27.6630  -37.1840   24.8880 C   0  0  0  0  0  1  0  0  0  0  0  0
  -26.5610  -37.4190   23.9590 N   0  0  0  0  0  0  0  0  0  0  0  0
  -26.1820  -38.3430   24.1430 H   0  0  0  0  0  0  0  0  0  0  0  0
  -26.4010  -31.7180   25.0770 C   0  0  1  0  0  0  0  0  0  0  0  0
  -25.3330  -31.4600   26.1650 C   0  0  0  0  0  1  0  0  0  0  0  0
  -26.9500  -30.3470   24.6210 C   0  0  0  0  0  1  0  0  0  0  0  0
  -27.5820  -32.4700   25.7360 C   0  0  0  0  0  1  0  0  0  0  0  0
  -29.7740  -17.5620   20.9760 C   0  0  0  0  0  0  0  0  0  0  0  0
  -30.2250  -15.0580   19.9770 C   0  0  0  0  0  0  0  0  0  0  0  0
  -30.0610  -12.8070   18.8750 C   0  0  0  0  0  2  0  0  0  0  0  0
  -29.0280  -12.8390   17.7280 C   0  0  0  0  0  2  0  0  0  0  0  0
  -27.6200  -12.5370   18.2690 C   0  0  0  0  0  2  0  0  0  0  0  0
  -27.2770  -13.3680   19.5340 C   0  0  0  0  0  3  0  0  0  0  0  0
  -28.4250  -13.3420   20.5690 C   0  0  0  0  0  2  0  0  0  0  0  0
  -29.6400  -13.8100   19.8870 N   0  0  0  0  0  0  0  0  0  0  0  0
  -31.3530  -15.2090   19.5110 O   0  0  0  0  0  0  0  0  0  0  0  0
  -29.4820  -16.1310   20.4600 N   0  0  0  0  0  4  0  0  0  0  0  0
  -28.5320  -15.8620   20.6650 H   0  0  0  0  0  0  0  0  0  0  0  0
  -24.9170  -13.7650   20.4550 C   0  0  0  0  0  0  0  0  0  0  0  0
  -23.9410  -12.9090   20.8850 C   0  0  0  0  0  0  0  0  0  0  0  0
  -24.4960  -11.5950   20.7880 C   0  0  0  0  0  0  0  0  0  0  0  0
  -25.9990  -12.9700   20.1180 N   0  0  0  0  0  0  0  0  0  0  0  0
  -25.7580  -11.6590   20.3820 N   0  0  0  0  0  0  0  0  0  0  0  0
  -23.8770  -10.2800   21.0010 C   0  0  0  0  0  0  0  0  0  0  0  0
  -24.3640   -9.3860   21.9790 C   0  0  0  0  0  3  0  0  0  0  0  0
  -23.7390   -8.1350   22.1790 C   0  0  0  0  0  3  0  0  0  0  0  0
  -22.6150   -7.7720   21.4000 C   0  0  0  0  0  0  0  0  0  0  0  0
  -22.1480   -8.6560   20.4130 C   0  0  0  0  0  3  0  0  0  0  0  0
  -22.7730   -9.8990   20.2120 C   0  0  0  0  0  3  0  0  0  0  0  0
  -21.9620   -6.5680   21.5060 O   0  0  0  0  0  0  0  0  0  0  0  0
  -21.8670   -5.9020   22.7020 C   0  0  0  0  0  0  0  0  0  0  0  0
  -21.2300   -6.4750   23.8240 C   0  0  0  0  0  3  0  0  0  0  0  0
  -21.0930   -5.7290   25.0120 C   0  0  0  0  0  3  0  0  0  0  0  0
  -21.5840   -4.4110   25.0770 C   0  0  0  0  0  0  0  0  0  0  0  0
  -22.2130   -3.8380   23.9580 C   0  0  0  0  0  3  0  0  0  0  0  0
  -22.3520   -4.5810   22.7730 C   0  0  0  0  0  0  0  0  0  0  0  0
  -22.9420   -4.0180   21.6920 F   0  0  0  0  0  0  0  0  0  0  0  0
  -21.4440   -3.6910   26.2150 F   0  0  0  0  0  0  0  0  0  0  0  0
  -22.5360  -13.2790   21.2680 C   0  0  0  0  0  0  0  0  0  0  0  0
  -21.9280  -12.5260   22.1770 N   0  0  0  0  0  0  0  0  0  0  0  0
  -21.9870  -14.2730   20.7960 O   0  0  0  0  0  0  0  0  0  0  0  0
  -22.3880  -11.7250   22.5850 H   0  0  0  0  0  0  0  0  0  0  0  0
  -20.9890  -12.7570   22.4710 H   0  0  0  0  0  0  0  0  0  0  0  0
  -24.9630  -15.1480   20.2980 N   0  0  0  0  0  0  0  0  0  0  0  0
  -24.1450  -15.7240   20.4640 H   0  0  0  0  0  0  0  0  0  0  0  0
  -25.7250  -15.6570   19.8690 H   0  0  0  0  0  0  0  0  0  0  0  0
  -31.0510  -16.5510   22.9990 C   0  0  0  0  0  1  0  0  0  0  0  0
  -30.8620  -19.0040   22.8230 C   0  0  0  0  0  1  0  0  0  0  0  0
  -32.3680  -17.8370   21.2710 C   0  0  0  0  0  1  0  0  0  0  0  0
  -30.9980  -17.7140   21.9770 C   0  0  2  0  0  0  0  0  0  0  0  0
  1  3  1  0
  1  5  1  0
  2  4  1  0
  2 50  1  0
  3  2  2  0
  5  6  1  0
  5  4  1  0
  7  6  1  0
  8  7  2  0
  8  9  1  0
  9 11  1  0
 10 21  2  0
 11 16  1  0
 12 20  1  0
 12 22  1  0
 13 19  1  0
 13 15  1  0
 14 20  1  0
 15 14  1  0
 16 15  2  0
 17 18  1  0
 17 11  2  0
 18 13  2  0
 19 12  1  0
 20 10  1  0
 22 24  2  0
 23 22  1  0
 25 23  1  0
 26 35  2  0
 26 31  1  0
 27 23  1  0
 27 31  1  0
 28 27  1  0
 29 30  1  0
 29 28  1  0
 30 26  1  0
 31 32  2  0
 32 33  1  0
 34 33  2  0
 35 34  1  0
 36 10  1  0
 36 37  1  0
 36 46  1  0
 37 40  1  0
 38 42  1  0
 38 37  1  0
 39 38  2  0
 42 41  1  0
 44 42  1  0
 44 45  1  0
 44 43  1  0
 46 49  1  1
 46 47  1  0
 48 46  1  0
 50 92  1  0
 51 59  1  0
 52 57  1  0
 53 54  1  0
 53 52  1  0
 55 54  1  0
 55 64  1  0
 55 56  1  0
 57 51  1  0
 57 56  1  0
 58 51  2  0
 59 60  1  0
 59 50  2  0
 61 62  2  0
 62 81  1  0
 63 62  1  0
 63 66  1  0
 64 65  1  0
 64 61  1  0
 65 63  2  0
 66 67  1  0
 67 68  2  0
 69 72  1  0
 69 68  1  0
 70 69  2  0
 71 70  1  0
 71 66  2  0
 72 73  1  0
 73 78  2  0
 73 74  1  0
 74 75  2  0
 75 76  1  0
 76 80  1  0
 77 76  2  0
 78 77  1  0
 79 78  1  0
 81 82  1  0
 82 85  1  0
 82 84  1  0
 83 81  2  0
 86 61  1  0
 86 87  1  0
 88 86  1  0
 92 91  1  6
 92 90  1  0
 92 89  1  0
M  ISO  4   8 101   9 101  51 100  59 100
M  END
>  <TORSDO>  (72) 
F 21

>  <SCORE>  (72) 
-11.934

>  <name>  (72) 
77

>  <ligand_id>  (72) 
77

>  <original_smiles>  (72) 
[H]c1c([H])c([H])c2c(c1[H])C([H])([H])C([H])([H])C([H])([H])C2([H])N([H])C(=O)C1([H])N(C(=O)C([H])(N([H])C(=O)C([H])(N([H])C([H])([H])[H])C([H])([H])[H])C(C([H])([H])[H])(C([H])([H])[H])C([H])([H])[H])C([H])([H])c2c([H])c(OC([H])([H])C([H])([H])C([H])([H])n3nc(C([H])(N([H])C(=O)N4C([H])([H])C([H])([H])C([H])([H])C([H])(n5nc(-c6c([H])c([H])c(Oc7c([H])c([H])c(F)c([H])c7F)c([H])c6[H])c(C(=O)N([H])[H])c5N([H])[H])C4([H])[H])C(C([H])([H])[H])(C([H])([H])[H])C([H])([H])[H])nc3[H])c([H])c([H])c2C1([H])[H]

>  <smiles>  (72) 
[H]c1c([H])c([H])c2c(c1[H])C([H])([H])C([H])([H])C([H])([H])C2([H])N([H])C(=O)C1([H])N(C(=O)C([H])(N([H])C(=O)C([H])(N([H])C([H])([H])[H])C([H])([H])[H])C(C([H])([H])[H])(C([H])([H])[H])C([H])([H])[H])C([H])([H])c2c([H])c(OC([H])([H])C([H])([H])C([H])([H])n3nc(C([H])(N([H])C(=O)N4C([H])([H])C([H])([H])C([H])([H])C([H])(n5nc(-c6c([H])c([H])c(Oc7c([H])c([H])c(F)c([H])c7F)c([H])c6[H])c(C(=O)N([H])[H])c5N([H])[H])C4([H])[H])C(C([H])([H])[H])(C([H])([H])[H])C([H])([H])[H])nc3[H])c([H])c([H])c2C1([H])[H]

$$$$
78:0:0
     RDKit          3D

 90 98  0  0  1  0  0  0  0  0999 V2000
  -28.9500  -23.2550   20.7930 C   0  0  0  0  0  2  0  0  0  0  0  0
  -26.6510  -24.3170   21.1940 C   0  0  0  0  0  1  0  0  0  0  0  0
  -28.3560  -24.3110   23.0020 C   0  0  0  0  0  1  0  0  0  0  0  0
  -28.1600  -24.4490   21.4720 C   0  0  1  0  0  0  0  0  0  0  0  0
  -28.6820  -25.9090   21.1030 C   0  0  0  0  0  2  0  0  0  0  0  0
  -28.2880  -26.5640   19.8710 O   0  0  0  0  0  0  0  0  0  0  0  0
  -24.4960  -31.7500   23.1110 C   0  0  0  0  0  0  0  0  0  0  0  0
  -27.1680  -27.3790   19.9190 C   0  0  0  0  0  0  0  0  0  0  0  0
  -23.3030  -30.3730   21.4420 C   0  0  0  0  0  3  0  0  0  0  0  0
  -24.7720  -28.8950   19.9670 C   0  0  0  0  0  0  0  0  0  0  0  0
  -25.8280  -30.7570   21.2510 C   0  0  0  0  0  2  0  0  0  0  0  0
  -25.9280  -29.3990   20.5800 C   0  0  0  0  0  0  0  0  0  0  0  0
  -27.1300  -28.6410   20.5680 C   0  0  0  0  0  3  0  0  0  0  0  0
  -26.0110  -26.9330   19.2530 C   0  0  0  0  0  3  0  0  0  0  0  0
  -24.8090  -27.6600   19.3020 C   0  0  0  0  0  3  0  0  0  0  0  0
  -23.5180  -29.7380   20.0440 C   0  0  0  0  0  2  0  0  0  0  0  0
  -24.5600  -30.9760   21.9930 N   0  0  0  0  0  0  0  0  0  0  0  0
  -23.4120  -31.9940   23.6620 O   0  0  0  0  0  0  0  0  0  0  0  0
  -22.6710  -29.3170   22.3780 C   0  0  0  0  0  0  0  0  0  0  0  0
  -21.3500  -29.1100   22.2440 N   0  0  0  0  0  0  0  0  0  0  0  0
  -23.3640  -28.6890   23.1820 O   0  0  0  0  0  0  0  0  0  0  0  0
  -20.8490  -29.6710   21.5690 H   0  0  0  0  0  0  0  0  0  0  0  0
  -17.9990  -27.8380   22.7200 C   0  0  0  0  0  0  0  0  0  0  0  0
  -20.5520  -28.1400   22.9950 C   0  0  0  0  0  3  0  0  0  0  0  0
  -20.6820  -26.7240   22.3880 C   0  0  0  0  0  2  0  0  0  0  0  0
  -19.5860  -26.4030   21.3670 C   0  0  0  0  0  2  0  0  0  0  0  0
  -18.2010  -26.5070   22.0160 C   0  0  0  0  0  2  0  0  0  0  0  0
  -19.1040  -28.6120   23.1660 C   0  0  0  0  0  0  0  0  0  0  0  0
  -18.8610  -29.8570   23.7860 C   0  0  0  0  0  3  0  0  0  0  0  0
  -17.5470  -30.3310   23.9620 C   0  0  0  0  0  3  0  0  0  0  0  0
  -16.4580  -29.5520   23.5350 C   0  0  0  0  0  3  0  0  0  0  0  0
  -16.6840  -28.3090   22.9190 C   0  0  0  0  0  3  0  0  0  0  0  0
  -25.7740  -32.3850   23.7390 C   0  0  0  0  0  3  0  0  0  0  0  0
  -25.4470  -33.7700   24.1020 N   0  0  0  0  0  0  0  0  0  0  0  0
  -25.7730  -34.8460   23.3720 C   0  0  0  0  0  0  0  0  0  0  0  0
  -26.4510  -34.7770   22.3440 O   0  0  0  0  0  0  0  0  0  0  0  0
  -24.8440  -33.8970   24.9020 H   0  0  0  0  0  0  0  0  0  0  0  0
  -24.0410  -36.6390   23.0340 C   0  0  0  0  0  1  0  0  0  0  0  0
  -25.2660  -36.2150   23.8620 C   0  0  0  0  0  3  0  0  0  0  0  0
  -27.3690  -37.0890   24.7800 C   0  0  0  0  0  1  0  0  0  0  0  0
  -26.2940  -37.2770   23.8090 N   0  0  0  0  0  0  0  0  0  0  0  0
  -25.8780  -38.1900   23.9720 H   0  0  0  0  0  0  0  0  0  0  0  0
  -26.3140  -31.5910   24.9920 C   0  0  1  0  0  0  0  0  0  0  0  0
  -25.2330  -31.3090   26.0610 C   0  0  0  0  0  1  0  0  0  0  0  0
  -26.9180  -30.2340   24.5600 C   0  0  0  0  0  1  0  0  0  0  0  0
  -27.4560  -32.3890   25.6650 C   0  0  0  0  0  1  0  0  0  0  0  0
  -28.3070  -21.8190   20.9340 C   0  0  0  0  0  2  0  0  0  0  0  0
  -28.9970  -19.4360   20.1910 C   0  0  0  0  0  3  0  0  0  0  0  0
  -30.3050  -20.4170   21.6080 C   0  0  0  0  0  3  0  0  0  0  0  0
  -30.0150  -18.5580   20.5320 C   0  0  0  0  0  0  0  0  0  0  0  0
  -30.8500  -19.2090   21.4400 N   0  0  0  0  0  0  0  0  0  0  0  0
  -29.1960  -20.6390   20.8850 N   0  0  0  0  0  0  0  0  0  0  0  0
  -30.3510  -17.1710   19.9870 C   0  0  0  0  0  2  0  0  0  0  0  0
  -30.1180  -15.9360   20.9290 C   0  0  0  0  0  2  0  0  0  0  0  0
  -30.8100  -14.6330   20.4170 C   0  0  0  0  0  0  0  0  0  0  0  0
  -30.5430  -12.4190   19.3460 C   0  0  0  0  0  2  0  0  0  0  0  0
  -29.6210  -12.5850   18.1210 C   0  0  0  0  0  2  0  0  0  0  0  0
  -28.1440  -12.4420   18.5350 C   0  0  0  0  0  2  0  0  0  0  0  0
  -27.7810  -13.3060   19.7740 C   0  0  0  0  0  3  0  0  0  0  0  0
  -28.8290  -13.1420   20.8980 C   0  0  0  0  0  2  0  0  0  0  0  0
  -30.1510  -13.4410   20.3340 N   0  0  0  0  0  0  0  0  0  0  0  0
  -31.9550  -14.7500   19.9740 O   0  0  0  0  0  0  0  0  0  0  0  0
  -25.3770  -13.9020   20.4670 C   0  0  0  0  0  0  0  0  0  0  0  0
  -24.3080  -13.1270   20.8230 C   0  0  0  0  0  0  0  0  0  0  0  0
  -24.7730  -11.7760   20.7970 C   0  0  0  0  0  0  0  0  0  0  0  0
  -26.4260  -13.0250   20.2440 N   0  0  0  0  0  0  0  0  0  0  0  0
  -26.0670  -11.7410   20.5000 N   0  0  0  0  0  0  0  0  0  0  0  0
  -24.0480  -10.5120   20.9780 C   0  0  0  0  0  0  0  0  0  0  0  0
  -24.4490   -9.5610   21.9420 C   0  0  0  0  0  3  0  0  0  0  0  0
  -23.7240   -8.3620   22.1120 C   0  0  0  0  0  3  0  0  0  0  0  0
  -22.5820   -8.1040   21.3170 C   0  0  0  0  0  0  0  0  0  0  0  0
  -22.1990   -9.0440   20.3430 C   0  0  0  0  0  3  0  0  0  0  0  0
  -22.9260  -10.2340   20.1710 C   0  0  0  0  0  3  0  0  0  0  0  0
  -21.8330   -6.9560   21.3930 O   0  0  0  0  0  0  0  0  0  0  0  0
  -21.7240   -6.2430   22.5590 C   0  0  0  0  0  0  0  0  0  0  0  0
  -21.1900   -6.8150   23.7350 C   0  0  0  0  0  3  0  0  0  0  0  0
  -21.0330   -6.0270   24.8920 C   0  0  0  0  0  3  0  0  0  0  0  0
  -21.4000   -4.6670   24.8750 C   0  0  0  0  0  0  0  0  0  0  0  0
  -21.9260   -4.0940   23.7040 C   0  0  0  0  0  3  0  0  0  0  0  0
  -22.0850   -4.8800   22.5490 C   0  0  0  0  0  0  0  0  0  0  0  0
  -22.5730   -4.3180   21.4170 F   0  0  0  0  0  0  0  0  0  0  0  0
  -21.2410   -3.9080   25.9850 F   0  0  0  0  0  0  0  0  0  0  0  0
  -22.9070  -13.6000   21.0850 C   0  0  0  0  0  0  0  0  0  0  0  0
  -22.1730  -12.8980   21.9410 N   0  0  0  0  0  0  0  0  0  0  0  0
  -22.4710  -14.6280   20.5670 O   0  0  0  0  0  0  0  0  0  0  0  0
  -22.5370  -12.0650   22.3800 H   0  0  0  0  0  0  0  0  0  0  0  0
  -21.2330  -13.1960   22.1610 H   0  0  0  0  0  0  0  0  0  0  0  0
  -25.5400  -15.2740   20.2920 N   0  0  0  0  0  0  0  0  0  0  0  0
  -24.7740  -15.9290   20.4000 H   0  0  0  0  0  0  0  0  0  0  0  0
  -26.3980  -15.7150   19.9850 H   0  0  0  0  0  0  0  0  0  0  0  0
  1 47  1  0
  1  4  1  0
  4  2  1  1
  4  3  1  0
  5  4  1  0
  6  8  1  0
  6  5  1  0
  7 18  2  0
  8 13  1  0
  9 17  1  0
  9 19  1  0
 10 16  1  0
 10 12  1  0
 11 17  1  0
 12 11  1  0
 13 12  2  0
 14 15  1  0
 14  8  2  0
 15 10  2  0
 16  9  1  0
 17  7  1  0
 19 21  2  0
 20 19  1  0
 22 20  1  0
 23 32  2  0
 23 28  1  0
 24 20  1  0
 24 28  1  0
 25 24  1  0
 26 27  1  0
 26 25  1  0
 27 23  1  0
 28 29  2  0
 29 30  1  0
 31 30  2  0
 32 31  1  0
 33  7  1  0
 33 34  1  0
 33 43  1  0
 34 37  1  0
 35 39  1  0
 35 34  1  0
 36 35  2  0
 39 38  1  0
 41 39  1  0
 41 42  1  0
 41 40  1  0
 43 46  1  1
 43 44  1  0
 45 43  1  0
 48 50  2  0
 48 52  1  0
 50 51  1  0
 51 49  2  0
 52 47  1  0
 52 49  1  0
 53 50  1  0
 53 54  1  0
 55 54  1  0
 56 61  1  0
 57 58  1  0
 57 56  1  0
 59 58  1  0
 59 66  1  0
 59 60  1  0
 61 55  1  0
 61 60  1  0
 62 55  2  0
 63 64  2  0
 64 83  1  0
 65 64  1  0
 65 68  1  0
 66 63  1  0
 66 67  1  0
 67 65  2  0
 68 69  1  0
 69 70  2  0
 71 74  1  0
 71 70  1  0
 72 71  2  0
 73 72  1  0
 73 68  2  0
 74 75  1  0
 75 76  1  0
 76 77  2  0
 78 77  1  0
 78 82  1  0
 79 78  2  0
 80 75  2  0
 80 79  1  0
 81 80  1  0
 83 84  1  0
 84 87  1  0
 84 86  1  0
 85 83  2  0
 88 89  1  0
 88 63  1  0
 90 88  1  0
M  ISO  4   5 101   6 101  54 100  55 100
M  END
>  <TORSDO>  (73) 
F 22

>  <SCORE>  (73) 
-12.865

>  <name>  (73) 
78

>  <ligand_id>  (73) 
78

>  <original_smiles>  (73) 
[H]c1c([H])c([H])c2c(c1[H])C([H])([H])C([H])([H])C([H])([H])C2([H])N([H])C(=O)C1([H])N(C(=O)C([H])(N([H])C(=O)C([H])(N([H])C([H])([H])[H])C([H])([H])[H])C(C([H])([H])[H])(C([H])([H])[H])C([H])([H])[H])C([H])([H])c2c([H])c(OC([H])([H])C(C([H])([H])[H])(C([H])([H])[H])C([H])([H])C([H])([H])n3c([H])nc(C([H])([H])C([H])([H])C(=O)N4C([H])([H])C([H])([H])C([H])([H])C([H])(n5nc(-c6c([H])c([H])c(Oc7c([H])c([H])c(F)c([H])c7F)c([H])c6[H])c(C(=O)N([H])[H])c5N([H])[H])C4([H])[H])c3[H])c([H])c([H])c2C1([H])[H]

>  <smiles>  (73) 
[H]c1c([H])c([H])c2c(c1[H])C([H])([H])C([H])([H])C([H])([H])C2([H])N([H])C(=O)C1([H])N(C(=O)C([H])(N([H])C(=O)C([H])(N([H])C([H])([H])[H])C([H])([H])[H])C(C([H])([H])[H])(C([H])([H])[H])C([H])([H])[H])C([H])([H])c2c([H])c(OC([H])([H])C(C([H])([H])[H])(C([H])([H])[H])C([H])([H])C([H])([H])n3c([H])nc(C([H])([H])C([H])([H])C(=O)N4C([H])([H])C([H])([H])C([H])([H])C([H])(n5nc(-c6c([H])c([H])c(Oc7c([H])c([H])c(F)c([H])c7F)c([H])c6[H])c(C(=O)N([H])[H])c5N([H])[H])C4([H])[H])c3[H])c([H])c([H])c2C1([H])[H]

$$$$
79:0:0
     RDKit          3D

 97106  0  0  1  0  0  0  0  0999 V2000
  -24.5180  -23.5140   26.0080 C   0  0  0  0  0  3  0  0  0  0  0  0
  -24.8020  -24.8470   26.3280 C   0  0  0  0  0  0  0  0  0  0  0  0
  -23.9020  -23.2600   24.7800 C   0  0  0  0  0  0  0  0  0  0  0  0
  -23.9490  -25.4930   24.3090 C   0  0  0  0  0  0  0  0  0  0  0  0
  -24.5520  -25.8290   25.4400 N   0  0  0  0  0  0  0  0  0  0  0  0
  -23.6340  -24.2600   23.9270 N   0  0  0  0  0  0  0  0  0  0  0  0
  -25.6030  -23.9750   28.5690 C   0  0  0  0  0  1  0  0  0  0  0  0
  -24.6250  -26.2740   28.3510 C   0  0  0  0  0  1  0  0  0  0  0  0
  -25.5060  -25.2150   27.6460 C   0  0  2  0  0  0  0  0  0  0  0  0
  -26.9860  -25.6820   27.3650 C   0  0  0  0  0  2  0  0  0  0  0  0
  -27.1170  -27.6970   28.8050 C   0  0  0  0  0  0  0  0  0  0  0  0
  -26.8440  -29.8660   29.9280 C   0  0  0  0  0  2  0  0  0  0  0  0
  -25.4810  -30.4870   29.5670 C   0  0  0  0  0  2  0  0  0  0  0  0
  -25.5640  -31.2840   28.2510 C   0  0  0  0  0  2  0  0  0  0  0  0
  -26.2660  -30.5030   27.1090 C   0  0  0  0  0  3  0  0  0  0  0  0
  -27.5810  -29.8680   27.6100 C   0  0  0  0  0  2  0  0  0  0  0  0
  -27.2780  -29.0420   28.7940 N   0  0  0  0  0  0  0  0  0  0  0  0
  -26.7790  -27.0550   29.8030 O   0  0  0  0  0  0  0  0  0  0  0  0
  -27.2600  -27.0990   27.6240 N   0  0  0  0  0  0  0  0  0  0  0  0
  -27.5350  -27.6780   26.8450 H   0  0  0  0  0  0  0  0  0  0  0  0
  -25.7580  -31.4310   24.7590 C   0  0  0  0  0  0  0  0  0  0  0  0
  -26.3340  -32.4380   24.0290 C   0  0  0  0  0  0  0  0  0  0  0  0
  -27.4000  -32.9480   24.8290 C   0  0  0  0  0  0  0  0  0  0  0  0
  -26.4830  -31.3560   25.9390 N   0  0  0  0  0  0  0  0  0  0  0  0
  -27.5110  -32.2440   25.9500 N   0  0  0  0  0  0  0  0  0  0  0  0
  -28.2900  -34.0980   24.6210 C   0  0  0  0  0  0  0  0  0  0  0  0
  -29.2040  -34.5140   25.6130 C   0  0  0  0  0  3  0  0  0  0  0  0
  -30.0640  -35.6080   25.3790 C   0  0  0  0  0  3  0  0  0  0  0  0
  -30.0190  -36.2970   24.1430 C   0  0  0  0  0  0  0  0  0  0  0  0
  -29.0900  -35.8920   23.1690 C   0  0  0  0  0  3  0  0  0  0  0  0
  -28.2310  -34.8060   23.4040 C   0  0  0  0  0  3  0  0  0  0  0  0
  -30.7980  -37.3880   23.8370 O   0  0  0  0  0  0  0  0  0  0  0  0
  -31.9030  -37.7160   24.5830 C   0  0  0  0  0  0  0  0  0  0  0  0
  -32.8740  -38.6270   24.1150 C   0  0  0  0  0  3  0  0  0  0  0  0
  -33.9560  -38.9890   24.9410 C   0  0  0  0  0  3  0  0  0  0  0  0
  -34.0650  -38.4480   26.2360 C   0  0  0  0  0  0  0  0  0  0  0  0
  -33.0950  -37.5440   26.7070 C   0  0  0  0  0  3  0  0  0  0  0  0
  -32.0160  -37.1820   25.8830 C   0  0  0  0  0  0  0  0  0  0  0  0
  -31.0740  -36.3270   26.3490 F   0  0  0  0  0  0  0  0  0  0  0  0
  -35.0990  -38.8020   27.0330 F   0  0  0  0  0  0  0  0  0  0  0  0
  -25.8600  -32.9640   22.7060 C   0  0  0  0  0  0  0  0  0  0  0  0
  -25.0670  -34.0300   22.7210 N   0  0  0  0  0  0  0  0  0  0  0  0
  -26.2280  -32.4590   21.6470 O   0  0  0  0  0  0  0  0  0  0  0  0
  -24.7810  -34.4580   23.5890 H   0  0  0  0  0  0  0  0  0  0  0  0
  -24.7470  -34.4280   21.8480 H   0  0  0  0  0  0  0  0  0  0  0  0
  -24.6740  -30.5930   24.5270 N   0  0  0  0  0  0  0  0  0  0  0  0
  -24.1030  -30.6780   23.6940 H   0  0  0  0  0  0  0  0  0  0  0  0
  -24.3030  -29.9270   25.1910 H   0  0  0  0  0  0  0  0  0  0  0  0
  -23.5610  -26.6180   23.3720 C   0  0  0  0  0  2  0  0  0  0  0  0
  -24.7600  -27.5060   22.9840 C   0  0  0  0  0  2  0  0  0  0  0  0
  -24.3990  -28.7060   22.0860 C   0  0  0  0  0  2  0  0  0  0  0  0
  -25.3930  -28.8960   20.9270 C   0  0  0  0  0  2  0  0  0  0  0  0
  -26.1490  -27.7170   20.6750 O   0  0  0  0  0  0  0  0  0  0  0  0
  -29.8530  -26.4330   14.7530 C   0  0  0  0  0  0  0  0  0  0  0  0
  -27.3410  -27.8840   20.0130 C   0  0  0  0  0  0  0  0  0  0  0  0
  -31.1330  -27.4140   16.6280 C   0  0  0  0  0  3  0  0  0  0  0  0
  -29.7460  -28.2630   18.5910 C   0  0  0  0  0  0  0  0  0  0  0  0
  -28.6250  -27.8570   16.3930 C   0  0  0  0  0  3  0  0  0  0  0  0
  -28.5640  -27.9740   17.9010 C   0  0  0  0  0  0  0  0  0  0  0  0
  -27.3540  -27.8040   18.6060 C   0  0  0  0  0  3  0  0  0  0  0  0
  -28.5440  -28.1590   20.7010 C   0  0  0  0  0  3  0  0  0  0  0  0
  -29.7460  -28.3500   19.9950 C   0  0  0  0  0  3  0  0  0  0  0  0
  -30.9900  -28.4700   17.7580 C   0  0  0  0  0  2  0  0  0  0  0  0
  -29.8480  -27.1840   15.8910 N   0  0  0  0  0  0  0  0  0  0  0  0
  -30.9080  -25.9770   14.2910 O   0  0  0  0  0  0  0  0  0  0  0  0
  -31.7360  -26.1250   17.2330 C   0  0  0  0  0  0  0  0  0  0  0  0
  -30.9220  -25.3950   18.0150 N   0  0  0  0  0  0  0  0  0  0  0  0
  -32.8940  -25.7860   16.9750 O   0  0  0  0  0  0  0  0  0  0  0  0
  -29.9890  -25.7440   18.1810 H   0  0  0  0  0  0  0  0  0  0  0  0
  -29.7770  -22.9740   20.4380 C   0  0  0  0  0  0  0  0  0  0  0  0
  -31.2580  -24.1280   18.6620 C   0  0  0  0  0  3  0  0  0  0  0  0
  -30.9180  -22.9290   17.7460 C   0  0  0  0  0  2  0  0  0  0  0  0
  -29.5190  -22.3570   17.9980 C   0  0  0  0  0  2  0  0  0  0  0  0
  -29.3820  -21.8890   19.4490 C   0  0  0  0  0  2  0  0  0  0  0  0
  -30.6440  -24.0340   20.0630 C   0  0  0  0  0  0  0  0  0  0  0  0
  -30.9500  -25.0340   21.0100 C   0  0  0  0  0  3  0  0  0  0  0  0
  -30.4100  -24.9850   22.3090 C   0  0  0  0  0  3  0  0  0  0  0  0
  -29.5630  -23.9260   22.6790 C   0  0  0  0  0  3  0  0  0  0  0  0
  -29.2520  -22.9220   21.7470 C   0  0  0  0  0  3  0  0  0  0  0  0
  -28.5400  -26.1320   13.9640 C   0  0  0  0  0  3  0  0  0  0  0  0
  -28.7240  -24.8530   13.2690 N   0  0  0  0  0  0  0  0  0  0  0  0
  -29.6570  -23.9450   13.5850 C   0  0  0  0  0  0  0  0  0  0  0  0
  -30.5110  -24.1340   14.4560 O   0  0  0  0  0  0  0  0  0  0  0  0
  -28.0330  -24.6120   12.5730 H   0  0  0  0  0  0  0  0  0  0  0  0
  -28.4000  -22.5610   11.9060 C   0  0  0  0  0  1  0  0  0  0  0  0
  -29.6400  -22.6120   12.8110 C   0  0  0  0  0  3  0  0  0  0  0  0
  -31.0280  -20.9840   14.0170 C   0  0  0  0  0  1  0  0  0  0  0  0
  -29.6730  -21.4220   13.6900 N   0  0  0  0  0  0  0  0  0  0  0  0
  -29.1870  -20.6420   13.2550 H   0  0  0  0  0  0  0  0  0  0  0  0
  -27.2590  -26.0910   14.8820 C   0  0  1  0  0  0  0  0  0  0  0  0
  -27.3540  -25.0640   16.0350 C   0  0  0  0  0  1  0  0  0  0  0  0
  -26.9970  -27.4820   15.5070 C   0  0  0  0  0  2  0  0  0  0  0  0
  -26.0140  -25.7400   14.0320 C   0  0  0  0  0  1  0  0  0  0  0  0
  -23.5050  -22.0310   24.3050 O   0  0  0  0  0  0  0  0  0  0  0  0
  -21.0520  -22.2320   23.9040 C   0  0  0  0  0  1  0  0  0  0  0  0
  -22.1160  -19.9560   24.4220 C   0  0  0  0  0  1  0  0  0  0  0  0
  -22.2110  -21.4830   24.5780 C   0  0  0  0  0  3  0  0  0  0  0  0
  1  2  2  0
  2  9  1  0
  3  1  1  0
  4  5  2  0
  5  2  1  0
  6  4  1  0
  6  3  2  0
  9  8  1  1
  9  7  1  0
 10 19  1  0
 10  9  1  0
 11 18  2  0
 13 12  1  0
 14 13  1  0
 15 24  1  0
 15 16  1  0
 15 14  1  0
 16 17  1  0
 17 11  1  0
 17 12  1  0
 19 11  1  0
 20 19  1  0
 21 24  1  0
 22 21  2  0
 22 23  1  0
 23 25  2  0
 24 25  1  0
 26 23  1  0
 26 27  1  0
 28 27  2  0
 29 28  1  0
 30 31  1  0
 30 29  2  0
 31 26  2  0
 32 29  1  0
 32 33  1  0
 33 38  1  0
 34 33  2  0
 34 35  1  0
 35 36  2  0
 36 37  1  0
 36 40  1  0
 38 39  1  0
 38 37  2  0
 41 42  1  0
 41 22  1  0
 42 44  1  0
 43 41  2  0
 45 42  1  0
 46 21  1  0
 46 48  1  0
 47 46  1  0
 49  4  1  0
 50 49  1  0
 51 50  1  0
 52 51  1  0
 53 52  1  0
 54 64  1  0
 55 53  1  0
 55 61  1  0
 56 66  1  0
 56 63  1  0
 57 62  1  0
 58 92  1  0
 58 59  1  0
 59 57  2  0
 59 60  1  0
 60 55  2  0
 62 61  2  0
 63 57  1  0
 64 58  1  0
 64 56  1  0
 65 54  2  0
 66 67  1  0
 67 69  1  0
 68 66  2  0
 70 79  1  0
 71 67  1  0
 71 75  1  0
 72 73  1  0
 72 71  1  0
 73 74  1  0
 74 70  1  0
 75 70  2  0
 75 76  1  0
 76 77  2  0
 77 78  1  0
 79 78  2  0
 80 81  1  0
 80 54  1  0
 80 90  1  0
 81 82  1  0
 82 83  2  0
 84 81  1  0
 86 85  1  0
 86 82  1  0
 86 88  1  0
 88 87  1  0
 89 88  1  0
 90 92  1  0
 90 91  1  1
 93 90  1  0
 94 97  1  0
 94  3  1  0
 95 97  1  0
 96 97  1  0
M  ISO  4  11 100  19 100  52 101  53 101
M  END
>  <TORSDO>  (74) 
F 24

>  <SCORE>  (74) 
22.185

>  <name>  (74) 
79

>  <ligand_id>  (74) 
79

>  <original_smiles>  (74) 
[H]c1c(OC([H])(C([H])([H])[H])C([H])([H])[H])nc(C([H])([H])C([H])([H])C([H])([H])C([H])([H])Oc2c([H])c([H])c3c(c2[H])C([H])([H])N(C(=O)C([H])(N([H])C(=O)C([H])(N([H])C([H])([H])[H])C([H])([H])[H])C(C([H])([H])[H])(C([H])([H])[H])C([H])([H])[H])C([H])(C(=O)N([H])C2([H])c4c([H])c([H])c([H])c([H])c4C([H])([H])C([H])([H])C2([H])[H])C3([H])[H])nc1C(C([H])([H])[H])(C([H])([H])[H])C([H])([H])N([H])C(=O)N1C([H])([H])C([H])([H])C([H])([H])C([H])(n2nc(-c3c([H])c([H])c(Oc4c([H])c([H])c(F)c([H])c4F)c([H])c3[H])c(C(=O)N([H])[H])c2N([H])[H])C1([H])[H]

>  <smiles>  (74) 
[H]c1c(OC([H])(C([H])([H])[H])C([H])([H])[H])nc(C([H])([H])C([H])([H])C([H])([H])C([H])([H])Oc2c([H])c([H])c3c(c2[H])C([H])([H])N(C(=O)C([H])(N([H])C(=O)C([H])(N([H])C([H])([H])[H])C([H])([H])[H])C(C([H])([H])[H])(C([H])([H])[H])C([H])([H])[H])C([H])(C(=O)N([H])C2([H])c4c([H])c([H])c([H])c([H])c4C([H])([H])C([H])([H])C2([H])[H])C3([H])[H])nc1C(C([H])([H])[H])(C([H])([H])[H])C([H])([H])N([H])C(=O)N1C([H])([H])C([H])([H])C([H])([H])C([H])(n2nc(-c3c([H])c([H])c(Oc4c([H])c([H])c(F)c([H])c4F)c([H])c3[H])c(C(=O)N([H])[H])c2N([H])[H])C1([H])[H]

$$$$
80:0:0
     RDKit          3D

 94 99  0  0  1  0  0  0  0  0999 V2000
  -29.7720  -22.5790   19.4630 C   0  0  0  0  0  2  0  0  0  0  0  0
  -28.7400  -21.2440   19.8870 C   0  0  0  0  0  2  0  0  0  0  0  0
  -26.7550  -23.3740   18.7800 C   0  0  0  0  0  3  0  0  0  0  0  0
  -28.0070  -24.4400   17.9020 C   0  0  0  0  0  0  0  0  0  0  0  0
  -29.5770  -23.9380   18.4420 N   0  0  0  0  0  0  0  0  0  0  0  0
  -27.2910  -22.0960   19.8370 N   0  0  0  0  0  2  0  0  0  0  0  0
  -30.0770  -19.1870   21.2980 C   0  0  0  0  0  1  0  0  0  0  0  0
  -27.6810  -18.6700   20.7800 C   0  0  0  0  0  1  0  0  0  0  0  0
  -29.0510  -19.0020   20.1550 C   0  0  0  0  0  2  0  0  0  0  0  0
  -29.7360  -16.8480   19.7250 C   0  0  0  0  0  2  0  0  0  0  0  0
  -30.1400  -14.0140   18.9850 C   0  0  0  0  0  2  0  0  0  0  0  0
  -29.3430  -13.1320   17.9200 C   0  0  0  0  0  2  0  0  0  0  0  0
  -28.0750  -12.5110   18.5030 C   0  0  0  0  0  2  0  0  0  0  0  0
  -27.4440  -13.5470   19.4420 C   0  0  0  0  0  3  0  0  0  0  0  0
  -28.4230  -14.3140   20.4220 C   0  0  0  0  0  2  0  0  0  0  0  0
  -29.3840  -15.2690   19.6870 N   0  0  0  0  0  0  0  0  0  0  0  0
  -30.9580  -16.6020   19.4480 O   0  0  0  0  0  1  0  0  0  0  0  0
  -25.1310  -13.9140   20.3680 C   0  0  0  0  0  0  0  0  0  0  0  0
  -24.1220  -13.0960   20.7850 C   0  0  0  0  0  0  0  0  0  0  0  0
  -24.6280  -11.7610   20.7030 C   0  0  0  0  0  0  0  0  0  0  0  0
  -26.1940  -13.0940   20.0580 N   0  0  0  0  0  0  0  0  0  0  0  0
  -25.9060  -11.7810   20.3070 N   0  0  0  0  0  0  0  0  0  0  0  0
  -23.9320  -10.4800   20.9300 C   0  0  0  0  0  0  0  0  0  0  0  0
  -24.3880   -9.5410   21.8810 C   0  0  0  0  0  3  0  0  0  0  0  0
  -23.6810   -8.3370   22.1020 C   0  0  0  0  0  3  0  0  0  0  0  0
  -22.5020   -8.0590   21.3710 C   0  0  0  0  0  0  0  0  0  0  0  0
  -22.0620   -8.9870   20.4100 C   0  0  0  0  0  3  0  0  0  0  0  0
  -22.7690  -10.1820   20.1880 C   0  0  0  0  0  3  0  0  0  0  0  0
  -21.7650   -6.9040   21.4990 O   0  0  0  0  0  0  0  0  0  0  0  0
  -21.7230   -6.2000   22.6760 C   0  0  0  0  0  0  0  0  0  0  0  0
  -21.2760   -6.7880   23.8790 C   0  0  0  0  0  3  0  0  0  0  0  0
  -21.1840   -6.0110   25.0520 C   0  0  0  0  0  3  0  0  0  0  0  0
  -21.5230   -4.6460   25.0210 C   0  0  0  0  0  0  0  0  0  0  0  0
  -21.9580   -4.0550   23.8220 C   0  0  0  0  0  3  0  0  0  0  0  0
  -22.0550   -4.8300   22.6520 C   0  0  0  0  0  0  0  0  0  0  0  0
  -22.4550   -4.2480   21.4960 F   0  0  0  0  0  0  0  0  0  0  0  0
  -21.4270   -3.8980   26.1460 F   0  0  0  0  0  0  0  0  0  0  0  0
  -22.7310  -13.5380   21.1340 C   0  0  0  0  0  0  0  0  0  0  0  0
  -22.0790  -12.8440   22.0580 N   0  0  0  0  0  0  0  0  0  0  0  0
  -22.2370  -14.5430   20.6240 O   0  0  0  0  0  0  0  0  0  0  0  0
  -22.4930  -12.0340   22.4940 H   0  0  0  0  0  0  0  0  0  0  0  0
  -21.1470  -13.1230   22.3310 H   0  0  0  0  0  0  0  0  0  0  0  0
  -25.2280  -15.2920   20.1840 N   0  0  0  0  0  0  0  0  0  0  0  0
  -24.4340  -15.9020   20.3420 H   0  0  0  0  0  0  0  0  0  0  0  0
  -26.0300  -15.7780   19.8040 H   0  0  0  0  0  0  0  0  0  0  0  0
  -25.7840  -22.8150   17.8190 C   0  0  0  0  0  2  0  0  0  0  0  0
  -26.7930  -21.8690   17.1770 C   0  0  0  0  0  2  0  0  0  0  0  0
  -28.2350  -22.3270   17.6660 C   0  0  0  0  0  1  0  0  0  0  0  0
  -28.1680  -24.4750   19.9380 O   0  0  0  0  0  1  0  0  0  0  0  0
  -24.7220  -31.7120   23.1390 C   0  0  0  0  0  0  0  0  0  0  0  0
  -27.3390  -26.1110   20.0270 C   0  0  0  0  0  0  0  0  0  0  0  0
  -23.5910  -30.3210   21.4830 C   0  0  0  0  0  3  0  0  0  0  0  0
  -25.0820  -28.6090   20.0670 C   0  0  0  0  0  0  0  0  0  0  0  0
  -26.2020  -30.2850   21.4500 C   0  0  0  0  0  2  0  0  0  0  0  0
  -26.2900  -28.7930   20.7500 C   0  0  0  0  0  0  0  0  0  0  0  0
  -27.3560  -27.6120   20.6900 C   0  0  0  0  0  3  0  0  0  0  0  0
  -26.0630  -26.3620   19.3400 C   0  0  0  0  0  3  0  0  0  0  0  0
  -25.0580  -27.4140   19.3310 C   0  0  0  0  0  3  0  0  0  0  0  0
  -23.8820  -29.6220   20.1180 C   0  0  0  0  0  2  0  0  0  0  0  0
  -24.8750  -30.8210   22.0750 N   0  0  0  0  0  0  0  0  0  0  0  0
  -23.6040  -32.0080   23.6150 O   0  0  0  0  0  0  0  0  0  0  0  0
  -22.8310  -29.3580   22.4420 C   0  0  0  0  0  0  0  0  0  0  0  0
  -21.5000  -29.1880   22.2910 N   0  0  0  0  0  0  0  0  0  0  0  0
  -23.4660  -28.7580   23.3110 O   0  0  0  0  0  0  0  0  0  0  0  0
  -21.0190  -29.7230   21.5780 H   0  0  0  0  0  0  0  0  0  0  0  0
  -18.1530  -27.7930   22.7130 C   0  0  0  0  0  0  0  0  0  0  0  0
  -20.6880  -28.2160   23.0430 C   0  0  0  0  0  3  0  0  0  0  0  0
  -20.8840  -26.7850   22.4900 C   0  0  0  0  0  2  0  0  0  0  0  0
  -19.8370  -26.3950   21.4400 C   0  0  0  0  0  2  0  0  0  0  0  0
  -18.4290  -26.4590   22.0400 C   0  0  0  0  0  2  0  0  0  0  0  0
  -19.2130  -28.6250   23.1690 C   0  0  0  0  0  0  0  0  0  0  0  0
  -18.9000  -29.8620   23.7710 C   0  0  0  0  0  3  0  0  0  0  0  0
  -17.5620  -30.2750   23.9160 C   0  0  0  0  0  3  0  0  0  0  0  0
  -16.5170  -29.4470   23.4690 C   0  0  0  0  0  3  0  0  0  0  0  0
  -16.8140  -28.2070   22.8760 C   0  0  0  0  0  3  0  0  0  0  0  0
  -25.9330  -32.4170   23.8240 C   0  0  0  0  0  3  0  0  0  0  0  0
  -25.5730  -33.8290   24.1130 N   0  0  0  0  0  0  0  0  0  0  0  0
  -25.9400  -34.9000   23.3920 C   0  0  0  0  0  0  0  0  0  0  0  0
  -26.6600  -34.8030   22.3970 O   0  0  0  0  0  0  0  0  0  0  0  0
  -24.9290  -33.9720   24.8770 H   0  0  0  0  0  0  0  0  0  0  0  0
  -24.2290  -36.7190   22.9960 C   0  0  0  0  0  1  0  0  0  0  0  0
  -25.4440  -36.2950   23.8380 C   0  0  0  0  0  3  0  0  0  0  0  0
  -27.5560  -37.1900   24.7270 C   0  0  0  0  0  1  0  0  0  0  0  0
  -26.4790  -37.3530   23.7550 N   0  0  0  0  0  0  0  0  0  0  0  0
  -26.0660  -38.2720   23.8930 H   0  0  0  0  0  0  0  0  0  0  0  0
  -26.3610  -31.7170   25.1780 C   0  0  1  0  0  0  0  0  0  0  0  0
  -25.1970  -31.5310   26.1830 C   0  0  0  0  0  1  0  0  0  0  0  0
  -26.9750  -30.3240   24.9240 C   0  0  0  0  0  1  0  0  0  0  0  0
  -27.4630  -32.5500   25.8790 C   0  0  0  0  0  1  0  0  0  0  0  0
  -27.7710  -25.2340   16.7990 O   0  0  0  0  0  0  0  0  0  0  0  0
  -28.8420  -25.9200   16.1670 C   0  0  0  0  0  2  0  0  0  0  0  0
  -29.0830  -25.3990   14.7350 C   0  0  0  0  0  2  0  0  0  0  0  0
  -28.1400  -25.0210   12.3970 C   0  0  0  0  0  1  0  0  0  0  0  0
  -27.8640  -25.5700   13.8040 C   0  0  0  0  0  2  0  0  0  0  0  0
  1  2  1  0
  3 46  1  0
  3  6  1  0
  4  5  2  0
  4  3  1  0
  5  1  1  0
  6  2  1  0
  9  8  1  0
  9  7  1  0
 11 16  1  0
 12 13  1  0
 12 11  1  0
 14 13  1  0
 14 21  1  0
 14 15  1  0
 16 10  1  0
 16 15  1  0
 17 10  1  0
 18 19  2  0
 19 38  1  0
 20 19  1  0
 20 23  1  0
 21 22  1  0
 21 18  1  0
 22 20  2  0
 23 24  1  0
 24 25  2  0
 26 29  1  0
 26 25  1  0
 27 26  2  0
 28 27  1  0
 28 23  2  0
 29 30  1  0
 30 31  1  0
 31 32  2  0
 33 32  1  0
 33 37  1  0
 34 33  2  0
 35 30  2  0
 35 34  1  0
 36 35  1  0
 38 39  1  0
 39 42  1  0
 39 41  1  0
 40 38  2  0
 43 44  1  0
 43 18  1  0
 45 43  1  0
 47 48  1  0
 47 46  1  0
 49 51  1  0
 50 61  2  0
 51 56  1  0
 52 60  1  0
 52 62  1  0
 53 59  1  0
 53 55  1  0
 54 60  1  0
 55 54  1  0
 56 55  2  0
 57 51  2  0
 58 57  1  0
 58 53  2  0
 59 52  1  0
 60 50  1  0
 62 64  2  0
 63 62  1  0
 65 63  1  0
 66 75  2  0
 66 71  1  0
 67 63  1  0
 67 71  1  0
 68 67  1  0
 69 70  1  0
 69 68  1  0
 70 66  1  0
 71 72  2  0
 72 73  1  0
 74 73  2  0
 75 74  1  0
 76 50  1  0
 76 77  1  0
 76 86  1  0
 77 80  1  0
 78 82  1  0
 78 77  1  0
 79 78  2  0
 82 81  1  0
 84 82  1  0
 84 85  1  0
 84 83  1  0
 86 89  1  1
 86 87  1  0
 88 86  1  0
 90  4  1  0
 91 90  1  0
 92 91  1  0
 93 94  1  0
 94 92  1  0
M  ISO  4   9 100  10 100  48 101  49 101
M  END
>  <TORSDO>  (75) 
F 24

>  <SCORE>  (75) 
-12.755

>  <name>  (75) 
80

>  <ligand_id>  (75) 
80

>  <original_smiles>  (75) 
[H]c1nc(OC([H])([H])C([H])([H])C([H])([H])C([H])([H])[H])c(C([H])([H])C([H])([H])C([H])([H])Oc2c([H])c([H])c3c(c2[H])C([H])([H])N(C(=O)C([H])(N([H])C(=O)C([H])(N([H])C([H])([H])[H])C([H])([H])[H])C(C([H])([H])[H])(C([H])([H])[H])C([H])([H])[H])C([H])(C(=O)N([H])C2([H])c4c([H])c([H])c([H])c([H])c4C([H])([H])C([H])([H])C2([H])[H])C3([H])[H])nc1C(C(=O)N1C([H])([H])C([H])([H])C([H])([H])C([H])(n2nc(-c3c([H])c([H])c(Oc4c([H])c([H])c(F)c([H])c4F)c([H])c3[H])c(C(=O)N([H])[H])c2N([H])[H])C1([H])[H])(C([H])([H])[H])C([H])([H])[H]

>  <smiles>  (75) 
[H]c1nc(OC([H])([H])C([H])([H])C([H])([H])C([H])([H])[H])c(C([H])([H])C([H])([H])C([H])([H])Oc2c([H])c([H])c3c(c2[H])C([H])([H])N(C(=O)C([H])(N([H])C(=O)C([H])(N([H])C([H])([H])[H])C([H])([H])[H])C(C([H])([H])[H])(C([H])([H])[H])C([H])([H])[H])C([H])(C(=O)N([H])C2([H])c4c([H])c([H])c([H])c([H])c4C([H])([H])C([H])([H])C2([H])[H])C3([H])[H])nc1C(C(=O)N1C([H])([H])C([H])([H])C([H])([H])C([H])(n2nc(-c3c([H])c([H])c(Oc4c([H])c([H])c(F)c([H])c4F)c([H])c3[H])c(C(=O)N([H])[H])c2N([H])[H])C1([H])[H])(C([H])([H])[H])C([H])([H])[H]

$$$$
81:0:0
     RDKit          3D

 92100  0  0  1  0  0  0  0  0999 V2000
  -29.2220  -21.7080   20.9340 C   0  0  0  0  0  3  0  0  0  0  0  0
  -30.1790  -20.4540   22.9830 C   0  0  0  0  0  1  0  0  0  0  0  0
  -31.6780  -22.0110   21.7090 C   0  0  0  0  0  1  0  0  0  0  0  0
  -29.8420  -22.8810   23.1540 C   0  0  0  0  0  1  0  0  0  0  0  0
  -30.2190  -21.7570   22.1600 C   0  0  1  0  0  0  0  0  0  0  0  0
  -29.1020  -23.1280   20.2200 C   0  0  0  0  0  2  0  0  0  0  0  0
  -27.9990  -24.1370   20.7170 C   0  0  0  0  0  2  0  0  0  0  0  0
  -28.4500  -25.5910   21.1100 C   0  0  0  0  0  2  0  0  0  0  0  0
  -28.3190  -26.6490   20.1300 O   0  0  0  0  0  0  0  0  0  0  0  0
  -24.5500  -31.9040   23.2680 C   0  0  0  0  0  0  0  0  0  0  0  0
  -27.1710  -27.4150   20.1890 C   0  0  0  0  0  0  0  0  0  0  0  0
  -23.3450  -30.4990   21.6280 C   0  0  0  0  0  3  0  0  0  0  0  0
  -24.7930  -28.9560   20.2000 C   0  0  0  0  0  0  0  0  0  0  0  0
  -25.8730  -30.8460   21.4310 C   0  0  0  0  0  2  0  0  0  0  0  0
  -25.9550  -29.4660   20.7970 C   0  0  0  0  0  0  0  0  0  0  0  0
  -27.1500  -28.7020   20.7890 C   0  0  0  0  0  3  0  0  0  0  0  0
  -25.9960  -26.9310   19.5810 C   0  0  0  0  0  3  0  0  0  0  0  0
  -24.8120  -27.6910   19.5890 C   0  0  0  0  0  3  0  0  0  0  0  0
  -23.5520  -29.8210   20.2480 C   0  0  0  0  0  2  0  0  0  0  0  0
  -24.6070  -31.0990   22.1670 N   0  0  0  0  0  0  0  0  0  0  0  0
  -23.4670  -32.1780   23.8040 O   0  0  0  0  0  0  0  0  0  0  0  0
  -22.6890  -29.4810   22.5880 C   0  0  0  0  0  0  0  0  0  0  0  0
  -21.3660  -29.2900   22.4480 N   0  0  0  0  0  0  0  0  0  0  0  0
  -23.3670  -28.8650   23.4140 O   0  0  0  0  0  0  0  0  0  0  0  0
  -20.8820  -29.8400   21.7520 H   0  0  0  0  0  0  0  0  0  0  0  0
  -17.9960  -28.0540   22.8850 C   0  0  0  0  0  0  0  0  0  0  0  0
  -20.5440  -28.3520   23.2130 C   0  0  0  0  0  3  0  0  0  0  0  0
  -20.6800  -26.9150   22.6570 C   0  0  0  0  0  2  0  0  0  0  0  0
  -19.6050  -26.5640   21.6220 C   0  0  0  0  0  2  0  0  0  0  0  0
  -18.2070  -26.6990   22.2330 C   0  0  0  0  0  2  0  0  0  0  0  0
  -19.0940  -28.8380   23.3290 C   0  0  0  0  0  0  0  0  0  0  0  0
  -18.8420  -30.1070   23.8960 C   0  0  0  0  0  3  0  0  0  0  0  0
  -17.5260  -30.5890   24.0260 C   0  0  0  0  0  3  0  0  0  0  0  0
  -16.4430  -29.8000   23.5980 C   0  0  0  0  0  3  0  0  0  0  0  0
  -16.6800  -28.5350   23.0320 C   0  0  0  0  0  3  0  0  0  0  0  0
  -25.8350  -32.5340   23.8900 C   0  0  0  0  0  3  0  0  0  0  0  0
  -25.5370  -33.9380   24.2030 N   0  0  0  0  0  0  0  0  0  0  0  0
  -25.8960  -34.9770   23.4380 C   0  0  0  0  0  0  0  0  0  0  0  0
  -26.5790  -34.8550   22.4190 O   0  0  0  0  0  0  0  0  0  0  0  0
  -24.9310  -34.1080   24.9920 H   0  0  0  0  0  0  0  0  0  0  0  0
  -24.1960  -36.7850   23.0330 C   0  0  0  0  0  1  0  0  0  0  0  0
  -25.4190  -36.3770   23.8720 C   0  0  0  0  0  3  0  0  0  0  0  0
  -27.5490  -37.2390   24.7330 C   0  0  0  0  0  1  0  0  0  0  0  0
  -26.4680  -37.4150   23.7670 N   0  0  0  0  0  0  0  0  0  0  0  0
  -26.0730  -38.3430   23.9000 H   0  0  0  0  0  0  0  0  0  0  0  0
  -26.3370  -31.7720   25.1770 C   0  0  1  0  0  0  0  0  0  0  0  0
  -25.2330  -31.5500   26.2380 C   0  0  0  0  0  1  0  0  0  0  0  0
  -26.9110  -30.3890   24.7990 C   0  0  0  0  0  1  0  0  0  0  0  0
  -27.4970  -32.5580   25.8340 C   0  0  0  0  0  1  0  0  0  0  0  0
  -29.5070  -20.5470   19.8810 C   0  0  0  0  0  2  0  0  0  0  0  0
  -28.0960  -18.4500   20.3120 C   0  0  0  0  0  2  0  0  0  0  0  0
  -29.5980  -17.0380   20.6300 C   0  0  0  0  0  0  0  0  0  0  0  0
  -28.2320  -17.1420   20.5470 N   0  0  0  0  0  0  0  0  0  0  0  0
  -30.2510  -18.1960   20.4030 N   0  0  0  0  0  2  0  0  0  0  0  0
  -29.2480  -19.1250   20.2390 N   0  0  0  0  0  0  0  0  0  0  0  0
  -30.2760  -15.8040   21.2280 C   0  0  0  0  0  2  0  0  0  0  0  0
  -30.7790  -14.6630   20.2780 C   0  0  0  0  0  0  0  0  0  0  0  0
  -30.4670  -12.5180   19.0570 C   0  0  0  0  0  2  0  0  0  0  0  0
  -29.5040  -12.7190   17.8670 C   0  0  0  0  0  2  0  0  0  0  0  0
  -28.0380  -12.5700   18.3150 C   0  0  0  0  0  2  0  0  0  0  0  0
  -27.7220  -13.3900   19.5920 C   0  0  0  0  0  3  0  0  0  0  0  0
  -28.7890  -13.1500   20.6810 C   0  0  0  0  0  2  0  0  0  0  0  0
  -30.1000  -13.4880   20.1080 N   0  0  0  0  0  0  0  0  0  0  0  0
  -31.8540  -14.8460   19.6900 O   0  0  0  0  0  0  0  0  0  0  0  0
  -25.3350  -13.9980   20.3180 C   0  0  0  0  0  0  0  0  0  0  0  0
  -24.2690  -13.2280   20.7000 C   0  0  0  0  0  0  0  0  0  0  0  0
  -24.7320  -11.8780   20.6890 C   0  0  0  0  0  0  0  0  0  0  0  0
  -26.3770  -13.1150   20.0900 N   0  0  0  0  0  0  0  0  0  0  0  0
  -26.0210  -11.8330   20.3690 N   0  0  0  0  0  0  0  0  0  0  0  0
  -24.0060  -10.6190   20.9070 C   0  0  0  0  0  0  0  0  0  0  0  0
  -24.4450   -9.6670   21.8530 C   0  0  0  0  0  3  0  0  0  0  0  0
  -23.7230   -8.4720   22.0540 C   0  0  0  0  0  3  0  0  0  0  0  0
  -22.5460   -8.2200   21.3080 C   0  0  0  0  0  0  0  0  0  0  0  0
  -22.1290   -9.1600   20.3480 C   0  0  0  0  0  3  0  0  0  0  0  0
  -22.8520  -10.3480   20.1460 C   0  0  0  0  0  3  0  0  0  0  0  0
  -21.7890   -7.0790   21.4200 O   0  0  0  0  0  0  0  0  0  0  0  0
  -21.7400   -6.3580   22.5870 C   0  0  0  0  0  0  0  0  0  0  0  0
  -21.3110   -6.9380   23.8010 C   0  0  0  0  0  3  0  0  0  0  0  0
  -21.2120   -6.1450   24.9610 C   0  0  0  0  0  3  0  0  0  0  0  0
  -21.5300   -4.7740   24.9070 C   0  0  0  0  0  0  0  0  0  0  0  0
  -21.9510   -4.1930   23.6970 C   0  0  0  0  0  3  0  0  0  0  0  0
  -22.0560   -4.9850   22.5400 C   0  0  0  0  0  0  0  0  0  0  0  0
  -22.4420   -4.4180   21.3720 F   0  0  0  0  0  0  0  0  0  0  0  0
  -21.4260   -4.0100   26.0180 F   0  0  0  0  0  0  0  0  0  0  0  0
  -22.8750  -13.7090   20.9830 C   0  0  0  0  0  0  0  0  0  0  0  0
  -22.1600  -13.0220   21.8680 N   0  0  0  0  0  0  0  0  0  0  0  0
  -22.4310  -14.7270   20.4550 O   0  0  0  0  0  0  0  0  0  0  0  0
  -22.5340  -12.2000   22.3170 H   0  0  0  0  0  0  0  0  0  0  0  0
  -21.2270  -13.3250   22.1040 H   0  0  0  0  0  0  0  0  0  0  0  0
  -25.5000  -15.3680   20.1370 N   0  0  0  0  0  0  0  0  0  0  0  0
  -24.7480  -16.0300   20.2860 H   0  0  0  0  0  0  0  0  0  0  0  0
  -26.3970  -15.8210   19.9810 H   0  0  0  0  0  0  0  0  0  0  0  0
  1 50  1  0
  1  5  1  0
  5  3  1  6
  5  2  1  0
  5  4  1  0
  6  7  1  0
  6  1  1  0
  7  8  1  0
  9 11  1  0
  9  8  1  0
 10 21  2  0
 11 16  1  0
 12 20  1  0
 12 22  1  0
 13 19  1  0
 13 15  1  0
 14 20  1  0
 15 14  1  0
 16 15  2  0
 17 18  1  0
 17 11  2  0
 18 13  2  0
 19 12  1  0
 20 10  1  0
 22 24  2  0
 23 22  1  0
 25 23  1  0
 26 35  2  0
 26 31  1  0
 27 23  1  0
 27 31  1  0
 28 27  1  0
 29 30  1  0
 29 28  1  0
 30 26  1  0
 31 32  2  0
 32 33  1  0
 34 33  2  0
 35 34  1  0
 36 10  1  0
 36 37  1  0
 36 46  1  0
 37 40  1  0
 38 42  1  0
 38 37  1  0
 39 38  2  0
 42 41  1  0
 44 42  1  0
 44 45  1  0
 44 43  1  0
 46 49  1  1
 46 47  1  0
 48 46  1  0
 50 55  1  0
 51 53  1  0
 52 56  1  0
 53 52  2  0
 54 52  1  0
 55 51  1  0
 55 54  1  0
 57 56  1  0
 58 63  1  0
 59 60  1  0
 59 58  1  0
 61 60  1  0
 61 68  1  0
 61 62  1  0
 63 57  1  0
 63 62  1  0
 64 57  2  0
 65 66  2  0
 66 85  1  0
 67 66  1  0
 67 70  1  0
 68 65  1  0
 68 69  1  0
 69 67  2  0
 70 71  1  0
 71 72  2  0
 73 76  1  0
 73 72  1  0
 74 73  2  0
 75 74  1  0
 75 70  2  0
 76 77  1  0
 77 78  1  0
 78 79  2  0
 80 79  1  0
 80 84  1  0
 81 80  2  0
 82 77  2  0
 82 81  1  0
 83 82  1  0
 85 86  1  0
 86 89  1  0
 86 88  1  0
 87 85  2  0
 90 91  1  0
 90 65  1  0
 92 90  1  0
M  ISO  4   8 101   9 101  56 100  57 100
M  END
>  <TORSDO>  (76) 
F 23

>  <SCORE>  (76) 
-12.783

>  <name>  (76) 
81

>  <ligand_id>  (76) 
81

>  <original_smiles>  (76) 
[H]c1c([H])c([H])c2c(c1[H])C([H])([H])C([H])([H])C([H])([H])C2([H])N([H])C(=O)C1([H])N(C(=O)C([H])(N([H])C(=O)C([H])(N([H])C([H])([H])[H])C([H])([H])[H])C(C([H])([H])[H])(C([H])([H])[H])C([H])([H])[H])C([H])([H])c2c([H])c(OC([H])([H])C([H])([H])C([H])([H])C([H])(C([H])([H])n3nc(C([H])([H])C(=O)N4C([H])([H])C([H])([H])C([H])([H])C([H])(n5nc(-c6c([H])c([H])c(Oc7c([H])c([H])c(F)c([H])c7F)c([H])c6[H])c(C(=O)N([H])[H])c5N([H])[H])C4([H])[H])nc3[H])C(C([H])([H])[H])(C([H])([H])[H])C([H])([H])[H])c([H])c([H])c2C1([H])[H]

>  <smiles>  (76) 
[H]c1c([H])c([H])c2c(c1[H])C([H])([H])C([H])([H])C([H])([H])C2([H])N([H])C(=O)C1([H])N(C(=O)C([H])(N([H])C(=O)C([H])(N([H])C([H])([H])[H])C([H])([H])[H])C(C([H])([H])[H])(C([H])([H])[H])C([H])([H])[H])C([H])([H])c2c([H])c(OC([H])([H])C([H])([H])C([H])([H])C([H])(C([H])([H])n3nc(C([H])([H])C(=O)N4C([H])([H])C([H])([H])C([H])([H])C([H])(n5nc(-c6c([H])c([H])c(Oc7c([H])c([H])c(F)c([H])c7F)c([H])c6[H])c(C(=O)N([H])[H])c5N([H])[H])C4([H])[H])nc3[H])C(C([H])([H])[H])(C([H])([H])[H])C([H])([H])[H])c([H])c([H])c2C1([H])[H]

$$$$
82:0:0
     RDKit          3D

 94102  0  0  1  0  0  0  0  0999 V2000
  -29.1630  -22.2730   21.3240 C   0  0  0  0  0  0  0  0  0  0  0  0
  -30.2320  -21.4640   21.5860 C   0  0  0  0  0  0  0  0  0  0  0  0
  -31.1590  -21.4440   22.7610 C   0  0  0  0  0  1  0  0  0  0  0  0
  -28.6220  -21.9070   20.0920 N   0  0  0  0  0  0  0  0  0  0  0  0
  -29.2990  -20.9080   19.6070 N   0  0  0  0  0  0  0  0  0  0  0  0
  -30.2570  -20.5820   20.5140 N   0  0  0  0  0  0  0  0  0  0  0  0
  -32.1480  -19.7420   19.1590 C   0  0  0  0  0  1  0  0  0  0  0  0
  -31.1410  -19.4270   20.2910 C   0  0  0  0  0  3  0  0  0  0  0  0
  -29.0380  -18.0650   20.8940 C   0  0  0  0  0  1  0  0  0  0  0  0
  -30.1440  -17.6640   18.6830 C   0  0  0  0  0  1  0  0  0  0  0  0
  -30.4000  -18.0360   20.1630 C   0  0  1  0  0  0  0  0  0  0  0  0
  -31.2650  -16.9280   20.8310 C   0  0  0  0  0  2  0  0  0  0  0  0
  -31.1740  -14.5330   20.1630 C   0  0  0  0  0  0  0  0  0  0  0  0
  -30.7310  -12.3600   19.1020 C   0  0  0  0  0  2  0  0  0  0  0  0
  -29.7780  -12.5350   17.9060 C   0  0  0  0  0  2  0  0  0  0  0  0
  -28.3100  -12.4510   18.3640 C   0  0  0  0  0  2  0  0  0  0  0  0
  -28.0100  -13.3540   19.5910 C   0  0  0  0  0  3  0  0  0  0  0  0
  -29.0890  -13.1910   20.6870 C   0  0  0  0  0  2  0  0  0  0  0  0
  -30.4150  -13.4110   20.0850 N   0  0  0  0  0  0  0  0  0  0  0  0
  -32.2610  -14.6370   19.5930 O   0  0  0  0  0  0  0  0  0  0  0  0
  -30.6500  -15.5850   20.8120 N   0  0  0  0  0  0  0  0  0  0  0  0
  -29.7400  -15.4680   21.2330 H   0  0  0  0  0  0  0  0  0  0  0  0
  -25.6600  -14.0390   20.3840 C   0  0  0  0  0  0  0  0  0  0  0  0
  -24.5750  -13.3010   20.7770 C   0  0  0  0  0  0  0  0  0  0  0  0
  -24.9840  -11.9330   20.7180 C   0  0  0  0  0  0  0  0  0  0  0  0
  -26.6640  -13.1220   20.1110 N   0  0  0  0  0  0  0  0  0  0  0  0
  -26.2600  -11.8490   20.3660 N   0  0  0  0  0  0  0  0  0  0  0  0
  -24.2140  -10.6980   20.9150 C   0  0  0  0  0  0  0  0  0  0  0  0
  -24.6050   -9.7290   21.8670 C   0  0  0  0  0  3  0  0  0  0  0  0
  -23.8410   -8.5580   22.0530 C   0  0  0  0  0  3  0  0  0  0  0  0
  -22.6690   -8.3480   21.2890 C   0  0  0  0  0  0  0  0  0  0  0  0
  -22.2980   -9.2990   20.3230 C   0  0  0  0  0  3  0  0  0  0  0  0
  -23.0630  -10.4640   20.1350 C   0  0  0  0  0  3  0  0  0  0  0  0
  -21.8780   -7.2290   21.3800 O   0  0  0  0  0  0  0  0  0  0  0  0
  -21.7490   -6.5300   22.5530 C   0  0  0  0  0  0  0  0  0  0  0  0
  -21.2470   -7.1300   23.7280 C   0  0  0  0  0  3  0  0  0  0  0  0
  -21.0720   -6.3590   24.8930 C   0  0  0  0  0  3  0  0  0  0  0  0
  -21.3830   -4.9860   24.8830 C   0  0  0  0  0  0  0  0  0  0  0  0
  -21.8780   -4.3850   23.7110 C   0  0  0  0  0  3  0  0  0  0  0  0
  -22.0560   -5.1550   22.5480 C   0  0  0  0  0  0  0  0  0  0  0  0
  -22.5120   -4.5650   21.4170 F   0  0  0  0  0  0  0  0  0  0  0  0
  -21.2050   -4.2420   25.9990 F   0  0  0  0  0  0  0  0  0  0  0  0
  -23.2050  -13.8230   21.1020 C   0  0  0  0  0  0  0  0  0  0  0  0
  -22.4860  -13.1550   21.9980 N   0  0  0  0  0  0  0  0  0  0  0  0
  -22.7810  -14.8600   20.5950 O   0  0  0  0  0  0  0  0  0  0  0  0
  -22.8370  -12.3130   22.4300 H   0  0  0  0  0  0  0  0  0  0  0  0
  -21.5690  -13.4910   22.2560 H   0  0  0  0  0  0  0  0  0  0  0  0
  -25.8660  -15.4060   20.2220 N   0  0  0  0  0  0  0  0  0  0  0  0
  -25.1230  -16.0830   20.3660 H   0  0  0  0  0  0  0  0  0  0  0  0
  -26.7150  -15.8260   19.8650 H   0  0  0  0  0  0  0  0  0  0  0  0
  -28.5590  -23.3320   22.2020 C   0  0  0  0  0  2  0  0  0  0  0  0
  -28.9130  -24.7840   21.8210 C   0  0  0  0  0  2  0  0  0  0  0  0
  -28.2920  -25.2560   20.4930 C   0  0  0  0  0  2  0  0  0  0  0  0
  -28.4360  -26.6770   20.3410 O   0  0  0  0  0  0  0  0  0  0  0  0
  -24.5910  -31.8820   23.2620 C   0  0  0  0  0  0  0  0  0  0  0  0
  -27.2730  -27.4140   20.2790 C   0  0  0  0  0  0  0  0  0  0  0  0
  -23.4110  -30.4720   21.6070 C   0  0  0  0  0  3  0  0  0  0  0  0
  -24.8890  -28.9300   20.2140 C   0  0  0  0  0  0  0  0  0  0  0  0
  -25.9420  -30.8250   21.4560 C   0  0  0  0  0  2  0  0  0  0  0  0
  -26.0350  -29.4510   20.8270 C   0  0  0  0  0  0  0  0  0  0  0  0
  -27.2310  -28.7010   20.8560 C   0  0  0  0  0  3  0  0  0  0  0  0
  -26.1160  -26.9150   19.6350 C   0  0  0  0  0  3  0  0  0  0  0  0
  -24.9260  -27.6620   19.6090 C   0  0  0  0  0  3  0  0  0  0  0  0
  -23.6440  -29.7850   20.2350 C   0  0  0  0  0  2  0  0  0  0  0  0
  -24.6640  -31.0740   22.1650 N   0  0  0  0  0  0  0  0  0  0  0  0
  -23.4990  -32.1580   23.7790 O   0  0  0  0  0  0  0  0  0  0  0  0
  -22.7410  -29.4570   22.5610 C   0  0  0  0  0  0  0  0  0  0  0  0
  -21.4220  -29.2660   22.3970 N   0  0  0  0  0  0  0  0  0  0  0  0
  -23.4070  -28.8460   23.4010 O   0  0  0  0  0  0  0  0  0  0  0  0
  -20.9510  -29.8080   21.6860 H   0  0  0  0  0  0  0  0  0  0  0  0
  -18.0350  -28.0780   22.8250 C   0  0  0  0  0  0  0  0  0  0  0  0
  -20.5870  -28.3360   23.1570 C   0  0  0  0  0  3  0  0  0  0  0  0
  -20.7050  -26.9020   22.5940 C   0  0  0  0  0  2  0  0  0  0  0  0
  -19.6260  -26.5730   21.5580 C   0  0  0  0  0  2  0  0  0  0  0  0
  -18.2280  -26.7230   22.1660 C   0  0  0  0  0  2  0  0  0  0  0  0
  -19.1450  -28.8410   23.2770 C   0  0  0  0  0  0  0  0  0  0  0  0
  -18.9130  -30.1110   23.8520 C   0  0  0  0  0  3  0  0  0  0  0  0
  -17.6050  -30.6150   23.9820 C   0  0  0  0  0  3  0  0  0  0  0  0
  -16.5110  -29.8470   23.5490 C   0  0  0  0  0  3  0  0  0  0  0  0
  -16.7270  -28.5820   22.9740 C   0  0  0  0  0  3  0  0  0  0  0  0
  -25.8650  -32.5140   23.9020 C   0  0  0  0  0  3  0  0  0  0  0  0
  -25.5570  -33.9180   24.1990 N   0  0  0  0  0  0  0  0  0  0  0  0
  -25.9270  -34.9560   23.4360 C   0  0  0  0  0  0  0  0  0  0  0  0
  -26.6330  -34.8300   22.4320 O   0  0  0  0  0  0  0  0  0  0  0  0
  -24.9340  -34.0910   24.9740 H   0  0  0  0  0  0  0  0  0  0  0  0
  -24.2380  -36.7620   22.9860 C   0  0  0  0  0  1  0  0  0  0  0  0
  -25.4390  -36.3540   23.8550 C   0  0  0  0  0  3  0  0  0  0  0  0
  -27.5430  -37.2290   24.7700 C   0  0  0  0  0  1  0  0  0  0  0  0
  -26.4880  -37.3940   23.7720 N   0  0  0  0  0  0  0  0  0  0  0  0
  -26.0870  -38.3210   23.8870 H   0  0  0  0  0  0  0  0  0  0  0  0
  -26.3460  -31.7590   25.2020 C   0  0  1  0  0  0  0  0  0  0  0  0
  -25.2230  -31.5410   26.2420 C   0  0  0  0  0  1  0  0  0  0  0  0
  -26.9370  -30.3760   24.8440 C   0  0  0  0  0  1  0  0  0  0  0  0
  -27.4800  -32.5620   25.8810 C   0  0  0  0  0  1  0  0  0  0  0  0
  1  2  2  0
  1 51  1  0
  2  3  1  0
  4  1  1  0
  5  4  2  0
  5  6  1  0
  6  2  1  0
  8  7  1  0
  8  6  1  0
 11 10  1  6
 11  8  1  0
 11 12  1  0
 11  9  1  0
 13 21  1  0
 14 19  1  0
 15 16  1  0
 15 14  1  0
 17 16  1  0
 17 26  1  0
 17 18  1  0
 19 13  1  0
 19 18  1  0
 20 13  2  0
 21 12  1  0
 21 22  1  0
 23 24  2  0
 24 43  1  0
 25 24  1  0
 25 28  1  0
 26 27  1  0
 26 23  1  0
 27 25  2  0
 28 29  1  0
 29 30  2  0
 31 34  1  0
 31 30  1  0
 32 31  2  0
 33 32  1  0
 33 28  2  0
 34 35  1  0
 35 36  1  0
 36 37  2  0
 38 37  1  0
 38 42  1  0
 39 38  2  0
 40 35  2  0
 40 39  1  0
 41 40  1  0
 43 44  1  0
 44 47  1  0
 44 46  1  0
 45 43  2  0
 48 49  1  0
 48 23  1  0
 50 48  1  0
 52 51  1  0
 53 52  1  0
 54 53  1  0
 55 66  2  0
 56 54  1  0
 56 61  1  0
 57 65  1  0
 57 67  1  0
 58 64  1  0
 58 60  1  0
 59 65  1  0
 60 61  2  0
 60 59  1  0
 62 56  2  0
 63 62  1  0
 63 58  2  0
 64 57  1  0
 65 55  1  0
 67 69  2  0
 68 67  1  0
 70 68  1  0
 71 80  2  0
 71 76  1  0
 72 68  1  0
 72 76  1  0
 73 72  1  0
 74 75  1  0
 74 73  1  0
 75 71  1  0
 76 77  2  0
 77 78  1  0
 79 78  2  0
 80 79  1  0
 81 55  1  0
 81 82  1  0
 81 91  1  0
 82 85  1  0
 83 87  1  0
 83 82  1  0
 84 83  2  0
 87 86  1  0
 89 87  1  0
 89 90  1  0
 89 88  1  0
 91 94  1  1
 91 92  1  0
 93 91  1  0
M  ISO  4  13 100  21 100  53 101  54 101
M  END
>  <TORSDO>  (77) 
F 22

>  <SCORE>  (77) 
-13.210

>  <name>  (77) 
82

>  <ligand_id>  (77) 
82

>  <original_smiles>  (77) 
[H]c1c([H])c([H])c2c(c1[H])C([H])([H])C([H])([H])C([H])([H])C2([H])N([H])C(=O)C1([H])N(C(=O)C([H])(N([H])C(=O)C([H])(N([H])C([H])([H])[H])C([H])([H])[H])C(C([H])([H])[H])(C([H])([H])[H])C([H])([H])[H])C([H])([H])c2c([H])c(OC([H])([H])C([H])([H])C([H])([H])c3nnn(C([H])(C([H])([H])[H])C(C([H])([H])[H])(C([H])([H])[H])C([H])([H])N([H])C(=O)N4C([H])([H])C([H])([H])C([H])([H])C([H])(n5nc(-c6c([H])c([H])c(Oc7c([H])c([H])c(F)c([H])c7F)c([H])c6[H])c(C(=O)N([H])[H])c5N([H])[H])C4([H])[H])c3C([H])([H])[H])c([H])c([H])c2C1([H])[H]

>  <smiles>  (77) 
[H]c1c([H])c([H])c2c(c1[H])C([H])([H])C([H])([H])C([H])([H])C2([H])N([H])C(=O)C1([H])N(C(=O)C([H])(N([H])C(=O)C([H])(N([H])C([H])([H])[H])C([H])([H])[H])C(C([H])([H])[H])(C([H])([H])[H])C([H])([H])[H])C([H])([H])c2c([H])c(OC([H])([H])C([H])([H])C([H])([H])c3nnn(C([H])(C([H])([H])[H])C(C([H])([H])[H])(C([H])([H])[H])C([H])([H])N([H])C(=O)N4C([H])([H])C([H])([H])C([H])([H])C([H])(n5nc(-c6c([H])c([H])c(Oc7c([H])c([H])c(F)c([H])c7F)c([H])c6[H])c(C(=O)N([H])[H])c5N([H])[H])C4([H])[H])c3C([H])([H])[H])c([H])c([H])c2C1([H])[H]

$$$$
83:0:0
     RDKit          3D

 95103  0  0  1  0  0  0  0  0999 V2000
  -29.2350  -22.2410   20.2980 C   0  0  0  0  0  0  0  0  0  0  0  0
  -29.3250  -21.3790   19.1830 C   0  0  0  0  0  0  0  0  0  0  0  0
  -29.4970  -21.6270   21.5470 C   0  0  0  0  0  0  0  0  0  0  0  0
  -29.7260  -19.5640   20.5380 C   0  0  0  0  0  0  0  0  0  0  0  0
  -29.0590  -21.8490   17.7710 C   0  0  0  0  0  1  0  0  0  0  0  0
  -29.5590  -20.0560   19.3170 N   0  0  0  0  0  0  0  0  0  0  0  0
  -29.7340  -20.3020   21.6480 N   0  0  0  0  0  0  0  0  0  0  0  0
  -28.1860  -17.5910   20.2510 C   0  0  0  0  0  1  0  0  0  0  0  0
  -29.5860  -18.0350   20.7120 C   0  0  0  0  0  3  0  0  0  0  0  0
  -30.7420  -17.1690   20.1090 C   0  0  0  0  0  2  0  0  0  0  0  0
  -31.1380  -14.7670   19.5390 C   0  0  0  0  0  0  0  0  0  0  0  0
  -30.8020  -12.5310   18.4990 C   0  0  0  0  0  2  0  0  0  0  0  0
  -29.7260  -12.5650   17.3920 C   0  0  0  0  0  2  0  0  0  0  0  0
  -28.3130  -12.4080   17.9850 C   0  0  0  0  0  2  0  0  0  0  0  0
  -28.0680  -13.3480   19.1940 C   0  0  0  0  0  3  0  0  0  0  0  0
  -29.2220  -13.2320   20.1980 C   0  0  0  0  0  2  0  0  0  0  0  0
  -30.4830  -13.5670   19.5050 N   0  0  0  0  0  0  0  0  0  0  0  0
  -32.0560  -15.0300   18.7490 O   0  0  0  0  0  0  0  0  0  0  0  0
  -30.7440  -15.4250   21.8560 C   0  0  0  0  0  1  0  0  0  0  0  0
  -30.6760  -15.7070   20.4130 N   0  0  0  0  0  0  0  0  0  0  0  0
  -25.8090  -13.9650   20.2690 C   0  0  0  0  0  0  0  0  0  0  0  0
  -24.7830  -13.1940   20.7460 C   0  0  0  0  0  0  0  0  0  0  0  0
  -25.2030  -11.8400   20.5850 C   0  0  0  0  0  0  0  0  0  0  0  0
  -26.7870  -13.0780   19.8410 N   0  0  0  0  0  0  0  0  0  0  0  0
  -26.4350  -11.7910   20.0920 N   0  0  0  0  0  0  0  0  0  0  0  0
  -24.4760  -10.5830   20.8120 C   0  0  0  0  0  0  0  0  0  0  0  0
  -24.9110   -9.6400   21.7700 C   0  0  0  0  0  3  0  0  0  0  0  0
  -24.1860   -8.4470   21.9790 C   0  0  0  0  0  3  0  0  0  0  0  0
  -23.0120   -8.1900   21.2330 C   0  0  0  0  0  0  0  0  0  0  0  0
  -22.5950   -9.1190   20.2660 C   0  0  0  0  0  3  0  0  0  0  0  0
  -23.3220  -10.3030   20.0530 C   0  0  0  0  0  3  0  0  0  0  0  0
  -22.2610   -7.0470   21.3480 O   0  0  0  0  0  0  0  0  0  0  0  0
  -22.0450   -6.4450   22.5630 C   0  0  0  0  0  0  0  0  0  0  0  0
  -21.4380   -7.1270   23.6380 C   0  0  0  0  0  3  0  0  0  0  0  0
  -21.1790   -6.4510   24.8470 C   0  0  0  0  0  3  0  0  0  0  0  0
  -21.5180   -5.0910   24.9800 C   0  0  0  0  0  0  0  0  0  0  0  0
  -22.1230   -4.4080   23.9110 C   0  0  0  0  0  3  0  0  0  0  0  0
  -22.3850   -5.0850   22.7050 C   0  0  0  0  0  0  0  0  0  0  0  0
  -22.9490   -4.4170   21.6690 F   0  0  0  0  0  0  0  0  0  0  0  0
  -21.2660   -4.4370   26.1380 F   0  0  0  0  0  0  0  0  0  0  0  0
  -23.4520  -13.6890   21.2350 C   0  0  0  0  0  0  0  0  0  0  0  0
  -22.8450  -12.9930   22.1960 N   0  0  0  0  0  0  0  0  0  0  0  0
  -22.9600  -14.7290   20.8010 O   0  0  0  0  0  0  0  0  0  0  0  0
  -23.2530  -12.1500   22.5660 H   0  0  0  0  0  0  0  0  0  0  0  0
  -21.9510  -13.3010   22.5540 H   0  0  0  0  0  0  0  0  0  0  0  0
  -25.9840  -15.3380   20.1510 N   0  0  0  0  0  0  0  0  0  0  0  0
  -25.2680  -15.9920   20.4520 H   0  0  0  0  0  0  0  0  0  0  0  0
  -26.8230  -15.7860   19.8080 H   0  0  0  0  0  0  0  0  0  0  0  0
  -28.7090  -23.6930   20.1820 C   0  0  0  0  0  2  0  0  0  0  0  0
  -29.7570  -24.8410   20.1780 C   0  0  0  0  0  2  0  0  0  0  0  0
  -29.2200  -26.2250   20.6640 C   0  0  0  0  0  2  0  0  0  0  0  0
  -28.9680  -27.1720   19.6140 O   0  0  0  0  0  0  0  0  0  0  0  0
  -24.5850  -31.6860   23.0120 C   0  0  0  0  0  0  0  0  0  0  0  0
  -27.7440  -27.8010   19.6820 C   0  0  0  0  0  0  0  0  0  0  0  0
  -23.5530  -30.2800   21.2550 C   0  0  0  0  0  3  0  0  0  0  0  0
  -25.1890  -29.0150   19.7480 C   0  0  0  0  0  0  0  0  0  0  0  0
  -26.0210  -30.9360   21.1170 C   0  0  0  0  0  2  0  0  0  0  0  0
  -26.2720  -29.6260   20.3950 C   0  0  0  0  0  0  0  0  0  0  0  0
  -27.5550  -29.0260   20.3660 C   0  0  0  0  0  3  0  0  0  0  0  0
  -26.6480  -27.2010   19.0290 C   0  0  0  0  0  3  0  0  0  0  0  0
  -25.3710  -27.7970   19.0640 C   0  0  0  0  0  3  0  0  0  0  0  0
  -23.8480  -29.7200   19.8340 C   0  0  0  0  0  2  0  0  0  0  0  0
  -24.7350  -30.9820   21.8540 N   0  0  0  0  0  0  0  0  0  0  0  0
  -23.4780  -31.7970   23.5530 O   0  0  0  0  0  0  0  0  0  0  0  0
  -23.0140  -29.1300   22.1370 C   0  0  0  0  0  0  0  0  0  0  0  0
  -21.7170  -28.8220   21.9900 N   0  0  0  0  0  0  0  0  0  0  0  0
  -23.7580  -28.5180   22.9070 O   0  0  0  0  0  0  0  0  0  0  0  0
  -21.1700  -29.3870   21.3540 H   0  0  0  0  0  0  0  0  0  0  0  0
  -18.5180  -27.1790   22.3140 C   0  0  0  0  0  0  0  0  0  0  0  0
  -21.0110  -27.7430   22.6850 C   0  0  0  0  0  3  0  0  0  0  0  0
  -21.3060  -26.3670   22.0410 C   0  0  0  0  0  2  0  0  0  0  0  0
  -20.2850  -25.9670   20.9710 C   0  0  0  0  0  2  0  0  0  0  0  0
  -18.8790  -25.9000   21.5760 C   0  0  0  0  0  2  0  0  0  0  0  0
  -19.5170  -28.0490   22.8220 C   0  0  0  0  0  0  0  0  0  0  0  0
  -19.1230  -29.2430   23.4670 C   0  0  0  0  0  3  0  0  0  0  0  0
  -17.7580  -29.5600   23.6170 C   0  0  0  0  0  3  0  0  0  0  0  0
  -16.7730  -28.6870   23.1190 C   0  0  0  0  0  3  0  0  0  0  0  0
  -17.1520  -27.4960   22.4780 C   0  0  0  0  0  3  0  0  0  0  0  0
  -25.7910  -32.4080   23.6940 C   0  0  0  0  0  3  0  0  0  0  0  0
  -25.3760  -33.7930   23.9600 N   0  0  0  0  0  0  0  0  0  0  0  0
  -25.6750  -34.8380   23.1780 C   0  0  0  0  0  0  0  0  0  0  0  0
  -26.3980  -34.7490   22.1820 O   0  0  0  0  0  0  0  0  0  0  0  0
  -24.7430  -33.9370   24.7320 H   0  0  0  0  0  0  0  0  0  0  0  0
  -23.8440  -36.4940   22.6950 C   0  0  0  0  0  1  0  0  0  0  0  0
  -25.0760  -36.2050   23.5630 C   0  0  0  0  0  3  0  0  0  0  0  0
  -27.1070  -37.2690   24.4390 C   0  0  0  0  0  1  0  0  0  0  0  0
  -26.0370  -37.3200   23.4480 N   0  0  0  0  0  0  0  0  0  0  0  0
  -25.5670  -38.2170   23.5330 H   0  0  0  0  0  0  0  0  0  0  0  0
  -26.2690  -31.7020   25.0200 C   0  0  1  0  0  0  0  0  0  0  0  0
  -25.1310  -31.4370   26.0300 C   0  0  0  0  0  1  0  0  0  0  0  0
  -26.9480  -30.3480   24.7030 C   0  0  0  0  0  1  0  0  0  0  0  0
  -27.3330  -32.5770   25.7240 C   0  0  0  0  0  1  0  0  0  0  0  0
  -29.4340  -22.3800   22.8750 C   0  0  0  0  0  3  0  0  0  0  0  0
  -27.1320  -23.2860   21.9900 C   0  0  0  0  0  1  0  0  0  0  0  0
  -28.2210  -23.3200   23.0790 C   0  0  0  0  0  3  0  0  0  0  0  0
  1  3  1  0
  2  6  1  0
  2  1  2  0
  3  7  2  0
  3 93  1  0
  4  9  1  0
  4  7  1  0
  5  2  1  0
  6  4  2  0
  9  8  1  0
 10 20  1  0
 10  9  1  0
 11 20  1  0
 12 17  1  0
 13 14  1  0
 13 12  1  0
 15 14  1  0
 15 24  1  0
 15 16  1  0
 17 11  1  0
 17 16  1  0
 18 11  2  0
 20 19  1  0
 21 22  2  0
 22 41  1  0
 23 22  1  0
 23 26  1  0
 24 25  1  0
 24 21  1  0
 25 23  2  0
 26 27  1  0
 27 28  2  0
 29 32  1  0
 29 28  1  0
 30 29  2  0
 31 30  1  0
 31 26  2  0
 32 33  1  0
 33 38  2  0
 33 34  1  0
 34 35  2  0
 35 36  1  0
 36 40  1  0
 37 36  2  0
 38 37  1  0
 39 38  1  0
 41 42  1  0
 42 45  1  0
 42 44  1  0
 43 41  2  0
 46 21  1  0
 46 47  1  0
 48 46  1  0
 49  1  1  0
 50 49  1  0
 50 51  1  0
 52 54  1  0
 52 51  1  0
 53 64  2  0
 54 59  1  0
 55 63  1  0
 55 65  1  0
 56 62  1  0
 56 58  1  0
 57 63  1  0
 58 57  1  0
 59 58  2  0
 60 61  1  0
 60 54  2  0
 61 56  2  0
 62 55  1  0
 63 53  1  0
 65 67  2  0
 66 65  1  0
 68 66  1  0
 69 78  2  0
 69 74  1  0
 70 66  1  0
 70 74  1  0
 71 70  1  0
 72 73  1  0
 72 71  1  0
 73 69  1  0
 74 75  2  0
 75 76  1  0
 77 76  2  0
 78 77  1  0
 79 53  1  0
 79 80  1  0
 79 89  1  0
 80 83  1  0
 81 85  1  0
 81 80  1  0
 82 81  2  0
 85 84  1  0
 87 88  1  0
 87 85  1  0
 87 86  1  0
 89 92  1  1
 89 90  1  0
 91 89  1  0
 93 95  2  0
 94 95  1  0
M  ISO  4  11 100  20 100  51 101  52 101
M  END
>  <TORSDO>  (78) 
F 23

>  <SCORE>  (78) 
-9.714

>  <name>  (78) 
83

>  <ligand_id>  (78) 
83

>  <original_smiles>  (78) 
[H]c1c([H])c([H])c2c(c1[H])C([H])([H])C([H])([H])C([H])([H])C2([H])N([H])C(=O)C1([H])N(C(=O)C([H])(N([H])C(=O)C([H])(N([H])C([H])([H])[H])C([H])([H])[H])C(C([H])([H])[H])(C([H])([H])[H])C([H])([H])[H])C([H])([H])c2c([H])c(OC([H])([H])C([H])([H])C([H])([H])c3c(C([H])([H])[H])nc(C([H])(C([H])([H])[H])C([H])([H])N(C(=O)N4C([H])([H])C([H])([H])C([H])([H])C([H])(n5nc(-c6c([H])c([H])c(Oc7c([H])c([H])c(F)c([H])c7F)c([H])c6[H])c(C(=O)N([H])[H])c5N([H])[H])C4([H])[H])C([H])([H])[H])nc3C([H])([H])C([H])([H])C([H])([H])[H])c([H])c([H])c2C1([H])[H]

>  <smiles>  (78) 
[H]c1c([H])c([H])c2c(c1[H])C([H])([H])C([H])([H])C([H])([H])C2([H])N([H])C(=O)C1([H])N(C(=O)C([H])(N([H])C(=O)C([H])(N([H])C([H])([H])[H])C([H])([H])[H])C(C([H])([H])[H])(C([H])([H])[H])C([H])([H])[H])C([H])([H])c2c([H])c(OC([H])([H])C([H])([H])C([H])([H])c3c(C([H])([H])[H])nc(C([H])(C([H])([H])[H])C([H])([H])N(C(=O)N4C([H])([H])C([H])([H])C([H])([H])C([H])(n5nc(-c6c([H])c([H])c(Oc7c([H])c([H])c(F)c([H])c7F)c([H])c6[H])c(C(=O)N([H])[H])c5N([H])[H])C4([H])[H])C([H])([H])[H])nc3C([H])([H])C([H])([H])C([H])([H])[H])c([H])c([H])c2C1([H])[H]

$$$$
84:0:0
     RDKit          3D

 94102  0  0  1  0  0  0  0  0999 V2000
  -28.4080  -17.5940   20.7740 C   0  0  0  0  0  3  0  0  0  0  0  0
  -27.6580  -19.4950   19.7420 C   0  0  0  0  0  3  0  0  0  0  0  0
  -29.7530  -17.9220   20.4840 C   0  0  0  0  0  0  0  0  0  0  0  0
  -28.9780  -19.9090   19.3990 C   0  0  0  0  0  0  0  0  0  0  0  0
  -27.3680  -18.3600   20.4050 N   0  0  0  0  0  0  0  0  0  0  0  0
  -30.0320  -19.0790   19.7600 N   0  0  0  0  0  0  0  0  0  0  0  0
  -29.1050  -20.7380   17.0130 C   0  0  0  0  0  1  0  0  0  0  0  0
  -27.9480  -22.1730   18.7090 C   0  0  0  0  0  1  0  0  0  0  0  0
  -29.1490  -21.2010   18.4820 C   0  0  1  0  0  0  0  0  0  0  0  0
  -30.4740  -22.0400   18.6760 C   0  0  0  0  0  2  0  0  0  0  0  0
  -30.4460  -23.6150   18.9520 C   0  0  0  0  0  3  0  0  0  0  0  0
  -29.6170  -24.5940   18.0380 C   0  0  0  0  0  3  0  0  0  0  0  0
  -29.5750  -26.0080   18.4500 O   0  0  0  0  0  0  0  0  0  0  0  0
  -25.4490  -29.9260   22.8080 C   0  0  0  0  0  0  0  0  0  0  0  0
  -28.3510  -26.6690   18.6050 C   0  0  0  0  0  0  0  0  0  0  0  0
  -24.3050  -28.8780   20.8850 C   0  0  0  0  0  3  0  0  0  0  0  0
  -25.8280  -27.9290   19.0600 C   0  0  0  0  0  0  0  0  0  0  0  0
  -26.7770  -29.5240   20.7300 C   0  0  0  0  0  2  0  0  0  0  0  0
  -26.9650  -28.3820   19.7400 C   0  0  0  0  0  0  0  0  0  0  0  0
  -28.2230  -27.7610   19.5130 C   0  0  0  0  0  3  0  0  0  0  0  0
  -27.1870  -26.2730   17.9020 C   0  0  0  0  0  3  0  0  0  0  0  0
  -25.9370  -26.8760   18.1370 C   0  0  0  0  0  3  0  0  0  0  0  0
  -24.5090  -28.6070   19.3700 C   0  0  0  0  0  2  0  0  0  0  0  0
  -25.5280  -29.4460   21.5310 N   0  0  0  0  0  0  0  0  0  0  0  0
  -24.3740  -29.9310   23.4270 O   0  0  0  0  0  0  0  0  0  0  0  0
  -23.8060  -27.5780   21.5580 C   0  0  0  0  0  0  0  0  0  0  0  0
  -22.5130  -27.2690   21.3820 N   0  0  0  0  0  0  0  0  0  0  0  0
  -24.5820  -26.8620   22.1950 O   0  0  0  0  0  0  0  0  0  0  0  0
  -21.9450  -27.9050   20.8390 H   0  0  0  0  0  0  0  0  0  0  0  0
  -19.3350  -25.5480   21.5130 C   0  0  0  0  0  0  0  0  0  0  0  0
  -21.8370  -26.0750   21.8910 C   0  0  0  0  0  3  0  0  0  0  0  0
  -22.1280  -24.8510   20.9950 C   0  0  0  0  0  2  0  0  0  0  0  0
  -21.0680  -24.6380   19.9090 C   0  0  0  0  0  2  0  0  0  0  0  0
  -19.6870  -24.4350   20.5400 C   0  0  0  0  0  2  0  0  0  0  0  0
  -20.3450  -26.3310   22.1350 C   0  0  0  0  0  0  0  0  0  0  0  0
  -19.9640  -27.3780   23.0010 C   0  0  0  0  0  3  0  0  0  0  0  0
  -18.6050  -27.6460   23.2520 C   0  0  0  0  0  3  0  0  0  0  0  0
  -17.6100  -26.8570   22.6490 C   0  0  0  0  0  3  0  0  0  0  0  0
  -17.9770  -25.8100   21.7860 C   0  0  0  0  0  3  0  0  0  0  0  0
  -26.6950  -30.5090   23.5420 C   0  0  0  0  0  3  0  0  0  0  0  0
  -26.2780  -31.7540   24.2000 N   0  0  0  0  0  0  0  0  0  0  0  0
  -26.5400  -32.9840   23.7380 C   0  0  0  0  0  0  0  0  0  0  0  0
  -27.2290  -33.1890   22.7350 O   0  0  0  0  0  0  0  0  0  0  0  0
  -25.6590  -31.6590   24.9930 H   0  0  0  0  0  0  0  0  0  0  0  0
  -24.6970  -34.6910   23.7730 C   0  0  0  0  0  1  0  0  0  0  0  0
  -25.9450  -34.1760   24.5090 C   0  0  0  0  0  3  0  0  0  0  0  0
  -27.9870  -34.9530   25.6270 C   0  0  0  0  0  1  0  0  0  0  0  0
  -26.9020  -35.2840   24.7070 N   0  0  0  0  0  0  0  0  0  0  0  0
  -26.4300  -36.1130   25.0570 H   0  0  0  0  0  0  0  0  0  0  0  0
  -27.3250  -29.5100   24.5890 C   0  0  1  0  0  0  0  0  0  0  0  0
  -26.3010  -28.9280   25.5920 C   0  0  0  0  0  1  0  0  0  0  0  0
  -28.0090  -28.3240   23.8710 C   0  0  0  0  0  1  0  0  0  0  0  0
  -28.4320  -30.2310   25.3950 C   0  0  0  0  0  1  0  0  0  0  0  0
  -30.8500  -16.9930   21.1230 C   0  0  0  0  0  0  0  0  0  0  0  0
  -31.3060  -14.3830   21.0030 C   0  0  0  0  0  0  0  0  0  0  0  0
  -31.1540  -11.9800   20.3940 C   0  0  0  0  0  2  0  0  0  0  0  0
  -30.3960  -11.8250   19.0600 C   0  0  0  0  0  2  0  0  0  0  0  0
  -28.8760  -11.7460   19.3000 C   0  0  0  0  0  2  0  0  0  0  0  0
  -28.3610  -12.8690   20.2380 C   0  0  0  0  0  3  0  0  0  0  0  0
  -29.2460  -12.9880   21.4990 C   0  0  0  0  0  2  0  0  0  0  0  0
  -30.6340  -13.1920   21.0570 N   0  0  0  0  0  0  0  0  0  0  0  0
  -32.5130  -14.4160   20.7760 O   0  0  0  0  0  0  0  0  0  0  0  0
  -30.5390  -15.5120   21.0490 N   0  0  0  0  0  4  0  0  0  0  0  0
  -29.5640  -15.3010   21.1710 H   0  0  0  0  0  0  0  0  0  0  0  0
  -25.9470  -13.6260   20.6710 C   0  0  0  0  0  0  0  0  0  0  0  0
  -24.7990  -12.9320   20.9400 C   0  0  0  0  0  0  0  0  0  0  0  0
  -25.1770  -11.5560   21.0030 C   0  0  0  0  0  0  0  0  0  0  0  0
  -26.9550  -12.6810   20.5790 N   0  0  0  0  0  0  0  0  0  0  0  0
  -26.4900  -11.4310   20.8430 N   0  0  0  0  0  0  0  0  0  0  0  0
  -24.3580  -10.3450   21.1500 C   0  0  0  0  0  0  0  0  0  0  0  0
  -24.6630   -9.3600   22.1160 C   0  0  0  0  0  3  0  0  0  0  0  0
  -23.8530   -8.2120   22.2440 C   0  0  0  0  0  3  0  0  0  0  0  0
  -22.7210   -8.0430   21.4100 C   0  0  0  0  0  0  0  0  0  0  0  0
  -22.4350   -9.0160   20.4370 C   0  0  0  0  0  3  0  0  0  0  0  0
  -23.2460  -10.1560   20.3050 C   0  0  0  0  0  3  0  0  0  0  0  0
  -21.8900   -6.9510   21.4510 O   0  0  0  0  0  0  0  0  0  0  0  0
  -21.7620   -6.1870   22.5820 C   0  0  0  0  0  0  0  0  0  0  0  0
  -21.3420   -6.7410   23.8120 C   0  0  0  0  0  3  0  0  0  0  0  0
  -21.1610   -5.9080   24.9330 C   0  0  0  0  0  3  0  0  0  0  0  0
  -21.3810   -4.5220   24.8250 C   0  0  0  0  0  0  0  0  0  0  0  0
  -21.7910   -3.9660   23.5990 C   0  0  0  0  0  3  0  0  0  0  0  0
  -21.9780   -4.7980   22.4810 C   0  0  0  0  0  0  0  0  0  0  0  0
  -22.3530   -4.2560   21.2970 F   0  0  0  0  0  0  0  0  0  0  0  0
  -21.1980   -3.7170   25.8990 F   0  0  0  0  0  0  0  0  0  0  0  0
  -23.4120  -13.4980   21.0290 C   0  0  0  0  0  0  0  0  0  0  0  0
  -22.5530  -12.8920   21.8410 N   0  0  0  0  0  0  0  0  0  0  0  0
  -23.0950  -14.5160   20.4150 O   0  0  0  0  0  0  0  0  0  0  0  0
  -22.8160  -12.0690   22.3640 H   0  0  0  0  0  0  0  0  0  0  0  0
  -21.6140  -13.2540   21.9400 H   0  0  0  0  0  0  0  0  0  0  0  0
  -26.2160  -14.9770   20.4750 N   0  0  0  0  0  0  0  0  0  0  0  0
  -25.4850  -15.6780   20.4830 H   0  0  0  0  0  0  0  0  0  0  0  0
  -27.1100  -15.3400   20.1730 H   0  0  0  0  0  0  0  0  0  0  0  0
  -32.7330  -18.7260   21.4930 C   0  0  0  0  0  1  0  0  0  0  0  0
  -32.3200  -17.4080   20.8120 C   0  0  0  0  0  2  0  0  0  0  0  0
  2  5  1  0
  3  1  1  0
  3 54  1  0
  4  2  2  0
  4  6  1  0
  5  1  2  0
  6  3  2  0
  9  7  1  6
  9 10  1  0
  9  8  1  0
  9  4  1  0
 10 11  1  0
 12 13  1  0
 12 11  2  0
 13 15  1  0
 14 25  2  0
 15 20  1  0
 16 24  1  0
 16 26  1  0
 17 23  1  0
 17 19  1  0
 18 24  1  0
 19 18  1  0
 20 19  2  0
 21 22  1  0
 21 15  2  0
 22 17  2  0
 23 16  1  0
 24 14  1  0
 26 28  2  0
 27 26  1  0
 29 27  1  0
 30 39  2  0
 30 35  1  0
 31 27  1  0
 31 35  1  0
 32 31  1  0
 33 34  1  0
 33 32  1  0
 34 30  1  0
 35 36  2  0
 36 37  1  0
 38 37  2  0
 39 38  1  0
 40 14  1  0
 40 41  1  0
 40 50  1  0
 41 44  1  0
 42 41  1  0
 42 46  1  0
 43 42  2  0
 46 45  1  0
 46 48  1  0
 48 49  1  0
 48 47  1  0
 50 53  1  1
 50 51  1  0
 52 50  1  0
 55 63  1  0
 55 61  1  0
 56 61  1  0
 57 58  1  0
 57 56  1  0
 59 58  1  0
 59 68  1  0
 59 60  1  0
 61 60  1  0
 62 55  2  0
 63 54  2  0
 63 64  1  0
 65 66  2  0
 66 67  1  0
 66 85  1  0
 67 70  1  0
 68 65  1  0
 68 69  1  0
 69 67  2  0
 70 71  1  0
 71 72  2  0
 73 76  1  0
 73 72  1  0
 74 73  2  0
 75 74  1  0
 75 70  2  0
 76 77  1  0
 77 78  1  0
 78 79  2  0
 80 79  1  0
 80 84  1  0
 81 80  2  0
 82 77  2  0
 82 81  1  0
 83 82  1  0
 85 86  1  0
 86 89  1  0
 86 88  1  0
 87 85  2  0
 90 91  1  0
 90 65  1  0
 92 90  1  0
 94 54  1  0
 94 93  1  0
M  ISO  4  12 101  13 101  55 100  63 100
M  END
>  <TORSDO>  (79) 
F 22

>  <SCORE>  (79) 
-9.100

>  <name>  (79) 
84

>  <ligand_id>  (79) 
84

>  <original_smiles>  (79) 
[H]c1nc([H])c(C(C([H])([H])[H])(C([H])([H])[H])C([H])([H])C([H])([H])C([H])([H])Oc2c([H])c([H])c3c(c2[H])C([H])([H])N(C(=O)C([H])(N([H])C(=O)C([H])(N([H])C([H])([H])[H])C([H])([H])[H])C(C([H])([H])[H])(C([H])([H])[H])C([H])([H])[H])C([H])(C(=O)N([H])C2([H])c4c([H])c([H])c([H])c([H])c4C([H])([H])C([H])([H])C2([H])[H])C3([H])[H])nc1C([H])(N([H])C(=O)N1C([H])([H])C([H])([H])C([H])([H])C([H])(n2nc(-c3c([H])c([H])c(Oc4c([H])c([H])c(F)c([H])c4F)c([H])c3[H])c(C(=O)N([H])[H])c2N([H])[H])C1([H])[H])C([H])([H])C([H])([H])[H]

>  <smiles>  (79) 
[H]c1nc([H])c(C(C([H])([H])[H])(C([H])([H])[H])C([H])([H])C([H])([H])C([H])([H])Oc2c([H])c([H])c3c(c2[H])C([H])([H])N(C(=O)C([H])(N([H])C(=O)C([H])(N([H])C([H])([H])[H])C([H])([H])[H])C(C([H])([H])[H])(C([H])([H])[H])C([H])([H])[H])C([H])(C(=O)N([H])C2([H])c4c([H])c([H])c([H])c([H])c4C([H])([H])C([H])([H])C2([H])[H])C3([H])[H])nc1C([H])(N([H])C(=O)N1C([H])([H])C([H])([H])C([H])([H])C([H])(n2nc(-c3c([H])c([H])c(Oc4c([H])c([H])c(F)c([H])c4F)c([H])c3[H])c(C(=O)N([H])[H])c2N([H])[H])C1([H])[H])C([H])([H])C([H])([H])[H]

$$$$
85:0:0
     RDKit          3D

 96104  0  0  1  0  0  0  0  0999 V2000
  -30.0510  -20.9970   21.8010 C   0  0  0  0  0  1  0  0  0  0  0  0
  -31.7850  -22.1700   20.4280 C   0  0  0  0  0  1  0  0  0  0  0  0
  -30.2890  -21.8330   20.5160 C   0  0  1  0  0  0  0  0  0  0  0  0
  -29.9060  -20.9590   19.2710 C   0  0  0  0  0  2  0  0  0  0  0  0
  -30.9450  -19.9470   18.6760 C   0  0  0  0  0  2  0  0  0  0  0  0
  -32.3460  -18.4360   20.3400 C   0  0  0  0  0  3  0  0  0  0  0  0
  -30.5290  -17.5270   19.5240 C   0  0  0  0  0  3  0  0  0  0  0  0
  -31.2360  -18.7000   19.4840 C   0  0  0  0  0  0  0  0  0  0  0  0
  -32.2680  -17.2580   20.9270 N   0  0  0  0  0  0  0  0  0  0  0  0
  -31.1590  -16.6660   20.4120 N   0  0  0  0  0  0  0  0  0  0  0  0
  -29.3760  -15.6620   21.6340 C   0  0  0  0  0  1  0  0  0  0  0  0
  -31.6970  -14.7480   21.9200 C   0  0  0  0  0  1  0  0  0  0  0  0
  -30.6950  -15.3430   20.8980 C   0  0  2  0  0  0  0  0  0  0  0  0
  -30.6670  -14.3330   19.6950 C   0  0  0  0  0  0  0  0  0  0  0  0
  -30.0370  -12.2880   18.4540 C   0  0  0  0  0  2  0  0  0  0  0  0
  -28.9560  -12.5420   17.3870 C   0  0  0  0  0  2  0  0  0  0  0  0
  -27.5620  -12.3830   18.0200 C   0  0  0  0  0  2  0  0  0  0  0  0
  -27.4030  -13.2190   19.3150 C   0  0  0  0  0  3  0  0  0  0  0  0
  -28.5860  -12.9370   20.2650 C   0  0  0  0  0  2  0  0  0  0  0  0
  -29.8400  -13.2490   19.5610 N   0  0  0  0  0  0  0  0  0  0  0  0
  -31.5610  -14.5100   18.8600 O   0  0  0  0  0  0  0  0  0  0  0  0
  -25.0970  -13.8290   20.2890 C   0  0  0  0  0  0  0  0  0  0  0  0
  -24.0780  -13.0530   20.7830 C   0  0  0  0  0  0  0  0  0  0  0  0
  -24.5370  -11.7060   20.7100 C   0  0  0  0  0  0  0  0  0  0  0  0
  -26.1150  -12.9480   19.9560 N   0  0  0  0  0  0  0  0  0  0  0  0
  -25.7870  -11.6680   20.2670 N   0  0  0  0  0  0  0  0  0  0  0  0
  -23.8370  -10.4420   20.9810 C   0  0  0  0  0  0  0  0  0  0  0  0
  -24.3310   -9.5160   21.9240 C   0  0  0  0  0  3  0  0  0  0  0  0
  -23.6370   -8.3150   22.1830 C   0  0  0  0  0  3  0  0  0  0  0  0
  -22.4340   -8.0280   21.4970 C   0  0  0  0  0  0  0  0  0  0  0  0
  -21.9560   -8.9460   20.5450 C   0  0  0  0  0  3  0  0  0  0  0  0
  -22.6500  -10.1390   20.2830 C   0  0  0  0  0  3  0  0  0  0  0  0
  -21.6970   -6.8810   21.6740 O   0  0  0  0  0  0  0  0  0  0  0  0
  -21.6910   -6.2060   22.8690 C   0  0  0  0  0  0  0  0  0  0  0  0
  -21.2830   -6.8260   24.0700 C   0  0  0  0  0  3  0  0  0  0  0  0
  -21.2230   -6.0760   25.2620 C   0  0  0  0  0  3  0  0  0  0  0  0
  -21.5580   -4.7080   25.2540 C   0  0  0  0  0  0  0  0  0  0  0  0
  -21.9550   -4.0870   24.0560 C   0  0  0  0  0  3  0  0  0  0  0  0
  -22.0190   -4.8360   22.8670 C   0  0  0  0  0  0  0  0  0  0  0  0
  -22.3800   -4.2290   21.7110 F   0  0  0  0  0  0  0  0  0  0  0  0
  -21.4930   -3.9830   26.3950 F   0  0  0  0  0  0  0  0  0  0  0  0
  -22.7200  -13.5290   21.2090 C   0  0  0  0  0  0  0  0  0  0  0  0
  -22.1140  -12.8590   22.1840 N   0  0  0  0  0  0  0  0  0  0  0  0
  -22.2070  -14.5290   20.7130 O   0  0  0  0  0  0  0  0  0  0  0  0
  -22.5330  -12.0480   22.6130 H   0  0  0  0  0  0  0  0  0  0  0  0
  -21.2100  -13.1730   22.5080 H   0  0  0  0  0  0  0  0  0  0  0  0
  -25.2340  -15.1970   20.0800 N   0  0  0  0  0  0  0  0  0  0  0  0
  -24.4930  -15.8620   20.2720 H   0  0  0  0  0  0  0  0  0  0  0  0
  -26.0380  -15.6290   19.6440 H   0  0  0  0  0  0  0  0  0  0  0  0
  -29.3530  -23.1080   20.6830 C   0  0  0  0  0  2  0  0  0  0  0  0
  -29.7970  -24.2690   18.4390 C   0  0  0  0  0  1  0  0  0  0  0  0
  -29.5150  -24.4880   19.9370 C   0  0  2  0  0  0  0  0  0  0  0  0
  -30.5050  -25.8600   21.9740 C   0  0  0  0  0  1  0  0  0  0  0  0
  -30.6540  -25.3770   20.5200 C   0  0  0  0  0  2  0  0  0  0  0  0
  -28.1520  -25.2540   20.0660 C   0  0  0  0  0  2  0  0  0  0  0  0
  -28.2000  -26.6390   19.6620 O   0  0  0  0  0  0  0  0  0  0  0  0
  -24.5040  -31.7020   23.0920 C   0  0  0  0  0  0  0  0  0  0  0  0
  -27.0220  -27.3580   19.7510 C   0  0  0  0  0  0  0  0  0  0  0  0
  -23.2340  -30.3640   21.4440 C   0  0  0  0  0  3  0  0  0  0  0  0
  -24.6290  -28.8700   19.9180 C   0  0  0  0  0  0  0  0  0  0  0  0
  -25.7550  -30.7190   21.1700 C   0  0  0  0  0  2  0  0  0  0  0  0
  -25.8120  -29.3690   20.4790 C   0  0  0  0  0  0  0  0  0  0  0  0
  -27.0100  -28.6220   20.3900 C   0  0  0  0  0  3  0  0  0  0  0  0
  -25.8170  -26.8760   19.1900 C   0  0  0  0  0  3  0  0  0  0  0  0
  -24.6280  -27.6230   19.2730 C   0  0  0  0  0  3  0  0  0  0  0  0
  -23.3920  -29.7310   20.0360 C   0  0  0  0  0  2  0  0  0  0  0  0
  -24.5180  -30.9420   21.9590 N   0  0  0  0  0  0  0  0  0  0  0  0
  -23.4430  -31.9560   23.6810 O   0  0  0  0  0  0  0  0  0  0  0  0
  -22.6120  -29.3120   22.3900 C   0  0  0  0  0  0  0  0  0  0  0  0
  -21.2910  -29.1010   22.2660 N   0  0  0  0  0  0  0  0  0  0  0  0
  -23.3130  -28.6890   23.1900 O   0  0  0  0  0  0  0  0  0  0  0  0
  -20.7840  -29.6580   21.5920 H   0  0  0  0  0  0  0  0  0  0  0  0
  -17.9560  -27.7890   22.7360 C   0  0  0  0  0  0  0  0  0  0  0  0
  -20.5020  -28.1280   23.0220 C   0  0  0  0  0  3  0  0  0  0  0  0
  -20.6550  -26.7080   22.4330 C   0  0  0  0  0  2  0  0  0  0  0  0
  -19.5700  -26.3590   21.4100 C   0  0  0  0  0  2  0  0  0  0  0  0
  -18.1790  -26.4520   22.0470 C   0  0  0  0  0  2  0  0  0  0  0  0
  -19.0470  -28.5830   23.1780 C   0  0  0  0  0  0  0  0  0  0  0  0
  -18.7850  -29.8320   23.7820 C   0  0  0  0  0  3  0  0  0  0  0  0
  -17.4660  -30.2910   23.9450 C   0  0  0  0  0  3  0  0  0  0  0  0
  -16.3890  -29.4950   23.5190 C   0  0  0  0  0  3  0  0  0  0  0  0
  -16.6340  -28.2450   22.9220 C   0  0  0  0  0  3  0  0  0  0  0  0
  -25.8130  -32.3070   23.6880 C   0  0  0  0  0  3  0  0  0  0  0  0
  -25.5260  -33.6930   24.0770 N   0  0  0  0  0  0  0  0  0  0  0  0
  -25.8660  -34.7700   23.3550 C   0  0  0  0  0  0  0  0  0  0  0  0
  -26.5240  -34.6970   22.3140 O   0  0  0  0  0  0  0  0  0  0  0  0
  -24.9460  -33.8250   24.8920 H   0  0  0  0  0  0  0  0  0  0  0  0
  -24.1690  -36.6030   23.0680 C   0  0  0  0  0  1  0  0  0  0  0  0
  -25.3990  -36.1470   23.8680 C   0  0  0  0  0  3  0  0  0  0  0  0
  -27.5480  -36.9540   24.7410 C   0  0  0  0  0  1  0  0  0  0  0  0
  -26.4500  -37.1860   23.8050 N   0  0  0  0  0  0  0  0  0  0  0  0
  -26.0610  -38.1050   23.9960 H   0  0  0  0  0  0  0  0  0  0  0  0
  -26.3740  -31.4870   24.9160 C   0  0  1  0  0  0  0  0  0  0  0  0
  -25.3160  -31.1880   26.0040 C   0  0  0  0  0  1  0  0  0  0  0  0
  -26.9590  -30.1350   24.4450 C   0  0  0  0  0  1  0  0  0  0  0  0
  -27.5350  -32.2660   25.5770 C   0  0  0  0  0  1  0  0  0  0  0  0
  3  2  1  6
  3 50  1  0
  3  1  1  0
  4  3  1  0
  5  4  1  0
  5  8  1  0
  6  9  2  0
  7 10  1  0
  8  7  2  0
  8  6  1  0
 10 13  1  0
 10  9  1  0
 13 11  1  1
 13 12  1  0
 14 13  1  0
 15 20  1  0
 16 17  1  0
 16 15  1  0
 18 17  1  0
 18 25  1  0
 18 19  1  0
 20 14  1  0
 20 19  1  0
 21 14  2  0
 22 23  2  0
 23 42  1  0
 24 23  1  0
 24 27  1  0
 25 26  1  0
 25 22  1  0
 26 24  2  0
 27 28  1  0
 28 29  2  0
 30 33  1  0
 30 29  1  0
 31 30  2  0
 32 31  1  0
 32 27  2  0
 33 34  1  0
 34 35  1  0
 35 36  2  0
 37 36  1  0
 37 41  1  0
 38 37  2  0
 39 34  2  0
 39 38  1  0
 40 39  1  0
 42 43  1  0
 43 46  1  0
 43 45  1  0
 44 42  2  0
 47 48  1  0
 47 22  1  0
 49 47  1  0
 52 51  1  6
 52 55  1  0
 52 54  1  0
 52 50  1  0
 54 53  1  0
 56 58  1  0
 56 55  1  0
 57 68  2  0
 58 63  1  0
 59 67  1  0
 59 69  1  0
 60 66  1  0
 60 62  1  0
 61 67  1  0
 62 61  1  0
 63 62  2  0
 64 65  1  0
 64 58  2  0
 65 60  2  0
 66 59  1  0
 67 57  1  0
 69 71  2  0
 70 69  1  0
 72 70  1  0
 73 82  2  0
 73 78  1  0
 74 70  1  0
 74 78  1  0
 75 74  1  0
 76 77  1  0
 76 75  1  0
 77 73  1  0
 78 79  2  0
 79 80  1  0
 81 80  2  0
 82 81  1  0
 83 57  1  0
 83 84  1  0
 83 93  1  0
 84 87  1  0
 85 89  1  0
 85 84  1  0
 86 85  2  0
 89 88  1  0
 91 89  1  0
 91 92  1  0
 91 90  1  0
 93 96  1  1
 93 94  1  0
 95 93  1  0
M  ISO  4  13 100  14 100  55 101  56 101
M  END
>  <TORSDO>  (80) 
F 24

>  <SCORE>  (80) 
-10.902

>  <name>  (80) 
85

>  <ligand_id>  (80) 
85

>  <original_smiles>  (80) 
[H]c1nn(C(C(=O)N2C([H])([H])C([H])([H])C([H])([H])C([H])(n3nc(-c4c([H])c([H])c(Oc5c([H])c([H])c(F)c([H])c5F)c([H])c4[H])c(C(=O)N([H])[H])c3N([H])[H])C2([H])[H])(C([H])([H])[H])C([H])([H])[H])c([H])c1C([H])([H])C([H])([H])C(C([H])([H])[H])(C([H])([H])[H])C([H])([H])C(C([H])([H])[H])(C([H])([H])Oc1c([H])c([H])c2c(c1[H])C([H])([H])N(C(=O)C([H])(N([H])C(=O)C([H])(N([H])C([H])([H])[H])C([H])([H])[H])C(C([H])([H])[H])(C([H])([H])[H])C([H])([H])[H])C([H])(C(=O)N([H])C1([H])c3c([H])c([H])c([H])c([H])c3C([H])([H])C([H])([H])C1([H])[H])C2([H])[H])C([H])([H])C([H])([H])[H]

>  <smiles>  (80) 
[H]c1nn(C(C(=O)N2C([H])([H])C([H])([H])C([H])([H])C([H])(n3nc(-c4c([H])c([H])c(Oc5c([H])c([H])c(F)c([H])c5F)c([H])c4[H])c(C(=O)N([H])[H])c3N([H])[H])C2([H])[H])(C([H])([H])[H])C([H])([H])[H])c([H])c1C([H])([H])C([H])([H])C(C([H])([H])[H])(C([H])([H])[H])C([H])([H])C(C([H])([H])[H])(C([H])([H])Oc1c([H])c([H])c2c(c1[H])C([H])([H])N(C(=O)C([H])(N([H])C(=O)C([H])(N([H])C([H])([H])[H])C([H])([H])[H])C(C([H])([H])[H])(C([H])([H])[H])C([H])([H])[H])C([H])(C(=O)N([H])C1([H])c3c([H])c([H])c([H])c([H])c3C([H])([H])C([H])([H])C1([H])[H])C2([H])[H])C([H])([H])C([H])([H])[H]

$$$$
86:0:0
     RDKit          3D

 92100  0  0  1  0  0  0  0  0999 V2000
  -30.3810  -21.4610   19.2480 C   0  0  0  0  0  3  0  0  0  0  0  0
  -29.4130  -20.4350   19.1620 C   0  0  0  0  0  0  0  0  0  0  0  0
  -27.7290  -22.0120   19.2340 C   0  0  0  0  0  0  0  0  0  0  0  0
  -28.7040  -23.0470   19.2530 C   0  0  0  0  0  0  0  0  0  0  0  0
  -26.2350  -22.2840   19.2020 C   0  0  0  0  0  1  0  0  0  0  0  0
  -30.0310  -22.7670   19.2930 N   0  0  0  0  0  0  0  0  0  0  0  0
  -28.0850  -20.7060   19.1860 N   0  0  0  0  0  0  0  0  0  0  0  0
  -29.8130  -19.0020   18.8730 C   0  0  0  0  0  2  0  0  0  0  0  0
  -29.7770  -18.0360   20.0710 C   0  0  0  0  0  2  0  0  0  0  0  0
  -29.8890  -16.5840   19.5500 C   0  0  0  0  0  2  0  0  0  0  0  0
  -30.8870  -14.4490   20.1180 C   0  0  0  0  0  0  0  0  0  0  0  0
  -30.5000  -12.3280   18.9320 C   0  0  0  0  0  2  0  0  0  0  0  0
  -29.5110  -12.5860   17.7760 C   0  0  0  0  0  2  0  0  0  0  0  0
  -28.0560  -12.4520   18.2660 C   0  0  0  0  0  2  0  0  0  0  0  0
  -27.7840  -13.2610   19.5620 C   0  0  0  0  0  3  0  0  0  0  0  0
  -28.8820  -12.9980   20.6150 C   0  0  0  0  0  2  0  0  0  0  0  0
  -30.1870  -13.2890   19.9980 N   0  0  0  0  0  0  0  0  0  0  0  0
  -31.9940  -14.6220   19.5980 O   0  0  0  0  0  0  0  0  0  0  0  0
  -30.1390  -15.8570   21.9570 C   0  0  0  0  0  1  0  0  0  0  0  0
  -30.1610  -15.5140   20.5320 N   0  0  0  0  0  0  0  0  0  0  0  0
  -25.4270  -13.8860   20.3900 C   0  0  0  0  0  0  0  0  0  0  0  0
  -24.3660  -13.1160   20.7920 C   0  0  0  0  0  0  0  0  0  0  0  0
  -24.8130  -11.7620   20.7190 C   0  0  0  0  0  0  0  0  0  0  0  0
  -26.4510  -12.9960   20.0970 N   0  0  0  0  0  0  0  0  0  0  0  0
  -26.0870  -11.7140   20.3520 N   0  0  0  0  0  0  0  0  0  0  0  0
  -24.0860  -10.5020   20.9210 C   0  0  0  0  0  0  0  0  0  0  0  0
  -24.5290   -9.5350   21.8490 C   0  0  0  0  0  3  0  0  0  0  0  0
  -23.8030   -8.3390   22.0390 C   0  0  0  0  0  3  0  0  0  0  0  0
  -22.6200   -8.1010   21.2990 C   0  0  0  0  0  0  0  0  0  0  0  0
  -22.1990   -9.0550   20.3560 C   0  0  0  0  0  3  0  0  0  0  0  0
  -22.9250  -10.2420   20.1660 C   0  0  0  0  0  3  0  0  0  0  0  0
  -21.8640   -6.9580   21.4010 O   0  0  0  0  0  0  0  0  0  0  0  0
  -21.7950   -6.2430   22.5690 C   0  0  0  0  0  0  0  0  0  0  0  0
  -21.3380   -6.8220   23.7730 C   0  0  0  0  0  3  0  0  0  0  0  0
  -21.2160   -6.0300   24.9330 C   0  0  0  0  0  3  0  0  0  0  0  0
  -21.5390   -4.6610   24.8880 C   0  0  0  0  0  0  0  0  0  0  0  0
  -21.9890   -4.0810   23.6880 C   0  0  0  0  0  3  0  0  0  0  0  0
  -22.1130   -4.8710   22.5310 C   0  0  0  0  0  0  0  0  0  0  0  0
  -22.5260   -4.3030   21.3730 F   0  0  0  0  0  0  0  0  0  0  0  0
  -21.4140   -3.8980   25.9990 F   0  0  0  0  0  0  0  0  0  0  0  0
  -22.9860  -13.6000   21.1340 C   0  0  0  0  0  0  0  0  0  0  0  0
  -22.2910  -12.8940   22.0200 N   0  0  0  0  0  0  0  0  0  0  0  0
  -22.5350  -14.6360   20.6490 O   0  0  0  0  0  0  0  0  0  0  0  0
  -22.6680  -12.0550   22.4350 H   0  0  0  0  0  0  0  0  0  0  0  0
  -21.3660  -13.1990   22.2880 H   0  0  0  0  0  0  0  0  0  0  0  0
  -25.5960  -15.2560   20.2280 N   0  0  0  0  0  0  0  0  0  0  0  0
  -24.8440  -15.9190   20.3840 H   0  0  0  0  0  0  0  0  0  0  0  0
  -26.4520  -15.6960   19.9080 H   0  0  0  0  0  0  0  0  0  0  0  0
  -28.3450  -24.5200   19.1080 C   0  0  0  0  0  2  0  0  0  0  0  0
  -27.5460  -24.9250   21.5770 C   0  0  0  0  0  1  0  0  0  0  0  0
  -28.4540  -25.3570   20.4040 C   0  0  0  0  0  3  0  0  0  0  0  0
  -28.4170  -26.7690   20.1420 O   0  0  0  0  0  0  0  0  0  0  0  0
  -24.5790  -31.8630   23.2230 C   0  0  0  0  0  0  0  0  0  0  0  0
  -27.2170  -27.4490   20.1260 C   0  0  0  0  0  0  0  0  0  0  0  0
  -23.3710  -30.4710   21.5750 C   0  0  0  0  0  3  0  0  0  0  0  0
  -24.8200  -28.9470   20.1420 C   0  0  0  0  0  0  0  0  0  0  0  0
  -25.8950  -30.8380   21.3740 C   0  0  0  0  0  2  0  0  0  0  0  0
  -25.9780  -29.4730   20.7280 C   0  0  0  0  0  0  0  0  0  0  0  0
  -27.1780  -28.7310   20.7120 C   0  0  0  0  0  3  0  0  0  0  0  0
  -26.0400  -26.9380   19.5320 C   0  0  0  0  0  3  0  0  0  0  0  0
  -24.8460  -27.6790   19.5400 C   0  0  0  0  0  3  0  0  0  0  0  0
  -23.5770  -29.8030   20.1910 C   0  0  0  0  0  2  0  0  0  0  0  0
  -24.6340  -31.0720   22.1150 N   0  0  0  0  0  0  0  0  0  0  0  0
  -23.4990  -32.1310   23.7660 O   0  0  0  0  0  0  0  0  0  0  0  0
  -22.7220  -29.4430   22.5280 C   0  0  0  0  0  0  0  0  0  0  0  0
  -21.3970  -29.2690   22.4070 N   0  0  0  0  0  0  0  0  0  0  0  0
  -23.4080  -28.8030   23.3290 O   0  0  0  0  0  0  0  0  0  0  0  0
  -20.9050  -29.8370   21.7300 H   0  0  0  0  0  0  0  0  0  0  0  0
  -18.0130  -28.1160   22.9250 C   0  0  0  0  0  0  0  0  0  0  0  0
  -20.5770  -28.3310   23.1710 C   0  0  0  0  0  3  0  0  0  0  0  0
  -20.6530  -26.9090   22.5700 C   0  0  0  0  0  2  0  0  0  0  0  0
  -19.5330  -26.6190   21.5640 C   0  0  0  0  0  2  0  0  0  0  0  0
  -18.1620  -26.7750   22.2260 C   0  0  0  0  0  2  0  0  0  0  0  0
  -19.1470  -28.8530   23.3530 C   0  0  0  0  0  0  0  0  0  0  0  0
  -18.9550  -30.1130   23.9650 C   0  0  0  0  0  3  0  0  0  0  0  0
  -17.6600  -30.6300   24.1520 C   0  0  0  0  0  3  0  0  0  0  0  0
  -16.5400  -29.8890   23.7400 C   0  0  0  0  0  3  0  0  0  0  0  0
  -16.7170  -28.6320   23.1320 C   0  0  0  0  0  3  0  0  0  0  0  0
  -25.8680  -32.4860   23.8460 C   0  0  0  0  0  3  0  0  0  0  0  0
  -25.5590  -33.8780   24.1970 N   0  0  0  0  0  0  0  0  0  0  0  0
  -25.8860  -34.9410   23.4510 C   0  0  0  0  0  0  0  0  0  0  0  0
  -26.5520  -34.8540   22.4150 O   0  0  0  0  0  0  0  0  0  0  0  0
  -24.9710  -34.0200   25.0050 H   0  0  0  0  0  0  0  0  0  0  0  0
  -24.1520  -36.7320   23.1230 C   0  0  0  0  0  1  0  0  0  0  0  0
  -25.3950  -36.3200   23.9280 C   0  0  0  0  0  3  0  0  0  0  0  0
  -27.5260  -37.1980   24.7730 C   0  0  0  0  0  1  0  0  0  0  0  0
  -26.4240  -37.3770   23.8310 N   0  0  0  0  0  0  0  0  0  0  0  0
  -26.0140  -38.2940   23.9940 H   0  0  0  0  0  0  0  0  0  0  0  0
  -26.3990  -31.6950   25.1030 C   0  0  1  0  0  0  0  0  0  0  0  0
  -25.3150  -31.4320   26.1740 C   0  0  0  0  0  1  0  0  0  0  0  0
  -26.9850  -30.3280   24.6790 C   0  0  0  0  0  1  0  0  0  0  0  0
  -27.5480  -32.4850   25.7740 C   0  0  0  0  0  1  0  0  0  0  0  0
  1  6  1  0
  2  7  1  0
  2  1  2  0
  3  4  1  0
  4  6  2  0
  5  3  1  0
  7  3  2  0
  8  2  1  0
  8  9  1  0
 10  9  1  0
 10 20  1  0
 11 20  1  0
 12 17  1  0
 13 14  1  0
 13 12  1  0
 15 14  1  0
 15 24  1  0
 15 16  1  0
 17 11  1  0
 17 16  1  0
 18 11  2  0
 20 19  1  0
 21 22  2  0
 22 41  1  0
 23 22  1  0
 23 26  1  0
 24 25  1  0
 24 21  1  0
 25 23  2  0
 26 27  1  0
 27 28  2  0
 29 32  1  0
 29 28  1  0
 30 29  2  0
 31 30  1  0
 31 26  2  0
 32 33  1  0
 33 34  1  0
 34 35  2  0
 36 35  1  0
 36 40  1  0
 37 36  2  0
 38 33  2  0
 38 37  1  0
 39 38  1  0
 41 42  1  0
 42 45  1  0
 42 44  1  0
 43 41  2  0
 46 47  1  0
 46 21  1  0
 48 46  1  0
 49  4  1  0
 49 51  1  0
 51 50  1  0
 52 51  1  0
 53 64  2  0
 54 52  1  0
 54 59  1  0
 55 63  1  0
 55 65  1  0
 56 62  1  0
 56 58  1  0
 57 63  1  0
 58 57  1  0
 59 58  2  0
 60 61  1  0
 60 54  2  0
 61 56  2  0
 62 55  1  0
 63 53  1  0
 65 67  2  0
 66 65  1  0
 68 66  1  0
 69 78  2  0
 69 74  1  0
 70 66  1  0
 70 74  1  0
 71 70  1  0
 72 73  1  0
 72 71  1  0
 73 69  1  0
 74 75  2  0
 75 76  1  0
 77 76  2  0
 78 77  1  0
 79 53  1  0
 79 80  1  0
 79 89  1  0
 80 83  1  0
 81 85  1  0
 81 80  1  0
 82 81  2  0
 85 84  1  0
 87 85  1  0
 87 88  1  0
 87 86  1  0
 89 92  1  1
 89 90  1  0
 91 89  1  0
M  ISO  4  11 100  20 100  51 101  52 101
M  END
>  <TORSDO>  (81) 
F 21

>  <SCORE>  (81) 
-13.193

>  <name>  (81) 
86

>  <ligand_id>  (81) 
86

>  <original_smiles>  (81) 
[H]c1nc(C([H])([H])C([H])(Oc2c([H])c([H])c3c(c2[H])C([H])([H])N(C(=O)C([H])(N([H])C(=O)C([H])(N([H])C([H])([H])[H])C([H])([H])[H])C(C([H])([H])[H])(C([H])([H])[H])C([H])([H])[H])C([H])(C(=O)N([H])C2([H])c4c([H])c([H])c([H])c([H])c4C([H])([H])C([H])([H])C2([H])[H])C3([H])[H])C([H])([H])[H])c(C([H])([H])[H])nc1C([H])([H])C([H])([H])C([H])([H])N(C(=O)N1C([H])([H])C([H])([H])C([H])([H])C([H])(n2nc(-c3c([H])c([H])c(Oc4c([H])c([H])c(F)c([H])c4F)c([H])c3[H])c(C(=O)N([H])[H])c2N([H])[H])C1([H])[H])C([H])([H])[H]

>  <smiles>  (81) 
[H]c1nc(C([H])([H])C([H])(Oc2c([H])c([H])c3c(c2[H])C([H])([H])N(C(=O)C([H])(N([H])C(=O)C([H])(N([H])C([H])([H])[H])C([H])([H])[H])C(C([H])([H])[H])(C([H])([H])[H])C([H])([H])[H])C([H])(C(=O)N([H])C2([H])c4c([H])c([H])c([H])c([H])c4C([H])([H])C([H])([H])C2([H])[H])C3([H])[H])C([H])([H])[H])c(C([H])([H])[H])nc1C([H])([H])C([H])([H])C([H])([H])N(C(=O)N1C([H])([H])C([H])([H])C([H])([H])C([H])(n2nc(-c3c([H])c([H])c(Oc4c([H])c([H])c(F)c([H])c4F)c([H])c3[H])c(C(=O)N([H])[H])c2N([H])[H])C1([H])[H])C([H])([H])[H]

$$$$
88:0:0
     RDKit          3D

 93101  0  0  1  0  0  0  0  0999 V2000
  -30.2360  -23.2480   20.6590 C   0  0  0  0  0  2  0  0  0  0  0  0
  -30.3480  -25.6060   21.6460 C   0  0  0  0  0  1  0  0  0  0  0  0
  -29.4010  -24.5100   21.1130 C   0  0  0  0  0  3  0  0  0  0  0  0
  -28.8640  -24.9700   18.6280 C   0  0  0  0  0  1  0  0  0  0  0  0
  -27.0500  -24.3110   20.2880 C   0  0  0  0  0  1  0  0  0  0  0  0
  -28.3640  -25.1100   20.0750 C   0  0  1  0  0  0  0  0  0  0  0  0
  -28.2970  -26.5700   20.2560 O   0  0  0  0  0  0  0  0  0  0  0  0
  -24.5550  -31.8490   23.1950 C   0  0  0  0  0  0  0  0  0  0  0  0
  -27.1530  -27.3490   20.1240 C   0  0  0  0  0  0  0  0  0  0  0  0
  -23.3400  -30.4520   21.5570 C   0  0  0  0  0  3  0  0  0  0  0  0
  -24.7830  -28.9170   20.1120 C   0  0  0  0  0  0  0  0  0  0  0  0
  -25.8670  -30.7860   21.3600 C   0  0  0  0  0  2  0  0  0  0  0  0
  -25.9390  -29.4090   20.7260 C   0  0  0  0  0  0  0  0  0  0  0  0
  -27.1170  -28.6220   20.7470 C   0  0  0  0  0  3  0  0  0  0  0  0
  -26.0120  -26.9440   19.4000 C   0  0  0  0  0  3  0  0  0  0  0  0
  -24.8180  -27.6860   19.4350 C   0  0  0  0  0  3  0  0  0  0  0  0
  -23.5410  -29.7750   20.1730 C   0  0  0  0  0  2  0  0  0  0  0  0
  -24.6070  -31.0470   22.0950 N   0  0  0  0  0  0  0  0  0  0  0  0
  -23.4780  -32.1250   23.7400 O   0  0  0  0  0  0  0  0  0  0  0  0
  -22.6890  -29.4320   22.5190 C   0  0  0  0  0  0  0  0  0  0  0  0
  -21.3640  -29.2530   22.3970 N   0  0  0  0  0  0  0  0  0  0  0  0
  -23.3740  -28.8050   23.3310 O   0  0  0  0  0  0  0  0  0  0  0  0
  -20.8710  -29.8090   21.7120 H   0  0  0  0  0  0  0  0  0  0  0  0
  -17.9940  -28.0570   22.9100 C   0  0  0  0  0  0  0  0  0  0  0  0
  -20.5510  -28.3170   23.1730 C   0  0  0  0  0  3  0  0  0  0  0  0
  -20.6530  -26.8850   22.6000 C   0  0  0  0  0  2  0  0  0  0  0  0
  -19.5480  -26.5610   21.5880 C   0  0  0  0  0  2  0  0  0  0  0  0
  -18.1670  -26.7080   22.2340 C   0  0  0  0  0  2  0  0  0  0  0  0
  -19.1130  -28.8200   23.3370 C   0  0  0  0  0  0  0  0  0  0  0  0
  -18.8970  -30.0850   23.9260 C   0  0  0  0  0  3  0  0  0  0  0  0
  -17.5930  -30.5870   24.0960 C   0  0  0  0  0  3  0  0  0  0  0  0
  -16.4880  -29.8220   23.6860 C   0  0  0  0  0  3  0  0  0  0  0  0
  -16.6880  -28.5600   23.0990 C   0  0  0  0  0  3  0  0  0  0  0  0
  -25.8470  -32.4790   23.8100 C   0  0  0  0  0  3  0  0  0  0  0  0
  -25.5390  -33.8730   24.1550 N   0  0  0  0  0  0  0  0  0  0  0  0
  -25.8540  -34.9320   23.3970 C   0  0  0  0  0  0  0  0  0  0  0  0
  -26.5080  -34.8390   22.3540 O   0  0  0  0  0  0  0  0  0  0  0  0
  -24.9650  -34.0210   24.9700 H   0  0  0  0  0  0  0  0  0  0  0  0
  -24.1140  -36.7200   23.0790 C   0  0  0  0  0  1  0  0  0  0  0  0
  -25.3670  -36.3140   23.8710 C   0  0  0  0  0  3  0  0  0  0  0  0
  -27.5090  -37.2020   24.6750 C   0  0  0  0  0  1  0  0  0  0  0  0
  -26.3910  -37.3740   23.7520 N   0  0  0  0  0  0  0  0  0  0  0  0
  -25.9830  -38.2910   23.9170 H   0  0  0  0  0  0  0  0  0  0  0  0
  -26.3780  -31.6930   25.0710 C   0  0  1  0  0  0  0  0  0  0  0  0
  -25.2980  -31.4450   26.1490 C   0  0  0  0  0  1  0  0  0  0  0  0
  -26.9580  -30.3200   24.6580 C   0  0  0  0  0  1  0  0  0  0  0  0
  -27.5350  -32.4840   25.7260 C   0  0  0  0  0  1  0  0  0  0  0  0
  -29.6710  -21.8010   20.8410 C   0  0  0  0  0  2  0  0  0  0  0  0
  -30.7960  -20.7430   20.5920 C   0  0  0  0  0  2  0  0  0  0  0  0
  -30.5820  -18.1960   21.2110 C   0  0  0  0  0  3  0  0  0  0  0  0
  -29.9400  -17.4740   19.2740 C   0  0  0  0  0  3  0  0  0  0  0  0
  -30.4200  -19.2820   20.3730 C   0  0  0  0  0  0  0  0  0  0  0  0
  -29.9890  -18.8020   19.1350 N   0  0  0  0  0  0  0  0  0  0  0  0
  -30.3280  -17.0180   20.4800 N   0  0  0  0  0  0  0  0  0  0  0  0
  -29.1450  -15.4890   21.9310 C   0  0  0  0  0  1  0  0  0  0  0  0
  -31.6180  -15.4730   21.9030 C   0  0  0  0  0  1  0  0  0  0  0  0
  -30.3650  -15.6190   21.0040 C   0  0  2  0  0  0  0  0  0  0  0  0
  -30.5480  -14.5250   19.8640 C   0  0  0  0  0  0  0  0  0  0  0  0
  -30.0720  -12.4860   18.5210 C   0  0  0  0  0  2  0  0  0  0  0  0
  -29.0180  -12.7850   17.4330 C   0  0  0  0  0  2  0  0  0  0  0  0
  -27.5860  -12.6310   17.9810 C   0  0  0  0  0  2  0  0  0  0  0  0
  -27.3970  -13.3250   19.3570 C   0  0  0  0  0  3  0  0  0  0  0  0
  -28.5510  -12.9380   20.3020 C   0  0  0  0  0  2  0  0  0  0  0  0
  -29.8110  -13.3770   19.6770 N   0  0  0  0  0  0  0  0  0  0  0  0
  -31.4920  -14.7530   19.1000 O   0  0  0  0  0  0  0  0  0  0  0  0
  -25.0730  -13.8820   20.3050 C   0  0  0  0  0  0  0  0  0  0  0  0
  -24.0540  -13.0890   20.7490 C   0  0  0  0  0  0  0  0  0  0  0  0
  -24.5170  -11.7430   20.6250 C   0  0  0  0  0  0  0  0  0  0  0  0
  -26.0950  -13.0190   19.9440 N   0  0  0  0  0  0  0  0  0  0  0  0
  -25.7690  -11.7250   20.1850 N   0  0  0  0  0  0  0  0  0  0  0  0
  -23.8170  -10.4700   20.8450 C   0  0  0  0  0  0  0  0  0  0  0  0
  -24.3400   -9.4780   21.7000 C   0  0  0  0  0  3  0  0  0  0  0  0
  -23.6440   -8.2690   21.9070 C   0  0  0  0  0  3  0  0  0  0  0  0
  -22.4070   -8.0420   21.2560 C   0  0  0  0  0  0  0  0  0  0  0  0
  -21.9020   -9.0240   20.3870 C   0  0  0  0  0  3  0  0  0  0  0  0
  -22.5980  -10.2250   20.1790 C   0  0  0  0  0  3  0  0  0  0  0  0
  -21.6710   -6.8870   21.3770 O   0  0  0  0  0  0  0  0  0  0  0  0
  -21.7390   -6.1060   22.5020 C   0  0  0  0  0  0  0  0  0  0  0  0
  -21.4550   -6.6200   23.7870 C   0  0  0  0  0  3  0  0  0  0  0  0
  -21.4720   -5.7630   24.9060 C   0  0  0  0  0  3  0  0  0  0  0  0
  -21.7580   -4.3950   24.7430 C   0  0  0  0  0  0  0  0  0  0  0  0
  -22.0280   -3.8790   23.4640 C   0  0  0  0  0  3  0  0  0  0  0  0
  -22.0190   -4.7330   22.3480 C   0  0  0  0  0  0  0  0  0  0  0  0
  -22.2620   -4.2290   21.1130 F   0  0  0  0  0  0  0  0  0  0  0  0
  -21.7650   -3.5700   25.8160 F   0  0  0  0  0  0  0  0  0  0  0  0
  -22.6870  -13.5430   21.1750 C   0  0  0  0  0  0  0  0  0  0  0  0
  -22.0560  -12.8230   22.0950 N   0  0  0  0  0  0  0  0  0  0  0  0
  -22.1890  -14.5730   20.7220 O   0  0  0  0  0  0  0  0  0  0  0  0
  -22.4770  -11.9930   22.4880 H   0  0  0  0  0  0  0  0  0  0  0  0
  -21.1420  -13.1100   22.4170 H   0  0  0  0  0  0  0  0  0  0  0  0
  -25.2190  -15.2610   20.1610 N   0  0  0  0  0  0  0  0  0  0  0  0
  -24.4740  -15.9150   20.3640 H   0  0  0  0  0  0  0  0  0  0  0  0
  -26.0420  -15.7080   19.7790 H   0  0  0  0  0  0  0  0  0  0  0  0
  1 48  1  0
  1  3  1  0
  3  2  1  0
  6  4  1  6
  6  7  1  0
  6  5  1  0
  6  3  1  0
  8 19  2  0
  9  7  1  0
  9 14  1  0
 10 18  1  0
 10 20  1  0
 11 17  1  0
 11 13  1  0
 12 18  1  0
 13 14  2  0
 13 12  1  0
 15 16  1  0
 15  9  2  0
 16 11  2  0
 17 10  1  0
 18  8  1  0
 20 22  2  0
 21 20  1  0
 23 21  1  0
 24 33  2  0
 24 29  1  0
 25 21  1  0
 25 29  1  0
 26 25  1  0
 27 28  1  0
 27 26  1  0
 28 24  1  0
 29 30  2  0
 30 31  1  0
 32 31  2  0
 33 32  1  0
 34  8  1  0
 34 35  1  0
 34 44  1  0
 35 38  1  0
 36 40  1  0
 36 35  1  0
 37 36  2  0
 40 39  1  0
 42 40  1  0
 42 43  1  0
 42 41  1  0
 44 47  1  1
 44 45  1  0
 46 44  1  0
 49 48  1  0
 51 54  1  0
 52 49  1  0
 52 50  2  0
 53 51  2  0
 53 52  1  0
 54 57  1  0
 54 50  1  0
 57 56  1  1
 57 55  1  0
 58 57  1  0
 59 64  1  0
 60 61  1  0
 60 59  1  0
 62 61  1  0
 62 69  1  0
 62 63  1  0
 64 58  1  0
 64 63  1  0
 65 58  2  0
 66 67  2  0
 67 86  1  0
 68 67  1  0
 68 71  1  0
 69 70  1  0
 69 66  1  0
 70 68  2  0
 71 72  1  0
 72 73  2  0
 74 77  1  0
 74 73  1  0
 75 74  2  0
 76 75  1  0
 76 71  2  0
 77 78  1  0
 78 79  1  0
 79 80  2  0
 81 80  1  0
 81 85  1  0
 82 81  2  0
 83 78  2  0
 83 82  1  0
 84 83  1  0
 86 87  1  0
 87 90  1  0
 87 89  1  0
 88 86  2  0
 91 66  1  0
 91 92  1  0
 93 91  1  0
M  ISO  4   6 101   7 101  57 100  58 100
M  END
>  <TORSDO>  (82) 
F 22

>  <SCORE>  (82) 
-11.112

>  <name>  (82) 
88

>  <ligand_id>  (82) 
88

>  <original_smiles>  (82) 
[H]c1c([H])c([H])c2c(c1[H])C([H])([H])C([H])([H])C([H])([H])C2([H])N([H])C(=O)C1([H])N(C(=O)C([H])(N([H])C(=O)C([H])(N([H])C([H])([H])[H])C([H])([H])[H])C(C([H])([H])[H])(C([H])([H])[H])C([H])([H])[H])C([H])([H])c2c([H])c(OC(C([H])([H])[H])(C([H])([H])[H])C([H])(C([H])([H])[H])C([H])([H])C([H])([H])C([H])([H])c3nc([H])n(C(C(=O)N4C([H])([H])C([H])([H])C([H])([H])C([H])(n5nc(-c6c([H])c([H])c(Oc7c([H])c([H])c(F)c([H])c7F)c([H])c6[H])c(C(=O)N([H])[H])c5N([H])[H])C4([H])[H])(C([H])([H])[H])C([H])([H])[H])c3[H])c([H])c([H])c2C1([H])[H]

>  <smiles>  (82) 
[H]c1c([H])c([H])c2c(c1[H])C([H])([H])C([H])([H])C([H])([H])C2([H])N([H])C(=O)C1([H])N(C(=O)C([H])(N([H])C(=O)C([H])(N([H])C([H])([H])[H])C([H])([H])[H])C(C([H])([H])[H])(C([H])([H])[H])C([H])([H])[H])C([H])([H])c2c([H])c(OC(C([H])([H])[H])(C([H])([H])[H])C([H])(C([H])([H])[H])C([H])([H])C([H])([H])C([H])([H])c3nc([H])n(C(C(=O)N4C([H])([H])C([H])([H])C([H])([H])C([H])(n5nc(-c6c([H])c([H])c(Oc7c([H])c([H])c(F)c([H])c7F)c([H])c6[H])c(C(=O)N([H])[H])c5N([H])[H])C4([H])[H])(C([H])([H])[H])C([H])([H])[H])c3[H])c([H])c([H])c2C1([H])[H]

$$$$
89:0:0
     RDKit          3D

 99107  0  0  1  0  0  0  0  0999 V2000
  -28.7870  -20.9160   20.4870 C   0  0  0  0  0  3  0  0  0  0  0  0
  -28.8430  -20.5590   18.3500 C   0  0  0  0  0  3  0  0  0  0  0  0
  -29.0100  -22.1110   19.8300 C   0  0  0  0  0  0  0  0  0  0  0  0
  -29.0800  -21.8650   18.4600 N   0  0  0  0  0  0  0  0  0  0  0  0
  -28.5930  -19.9380   19.5150 N   0  0  0  0  0  0  0  0  0  0  0  0
  -27.0700  -18.1640   18.7290 C   0  0  0  0  0  1  0  0  0  0  0  0
  -28.1820  -18.5450   19.7270 C   0  0  0  0  0  3  0  0  0  0  0  0
  -29.3610  -17.5320   19.6830 C   0  0  0  0  0  2  0  0  0  0  0  0
  -29.8530  -16.9980   21.0640 C   0  0  0  0  0  3  0  0  0  0  0  0
  -30.5210  -14.5810   20.5980 C   0  0  0  0  0  0  0  0  0  0  0  0
  -30.3130  -12.4390   19.4050 C   0  0  0  0  0  2  0  0  0  0  0  0
  -29.3730  -12.6560   18.2010 C   0  0  0  0  0  2  0  0  0  0  0  0
  -27.8980  -12.4720   18.6150 C   0  0  0  0  0  2  0  0  0  0  0  0
  -27.5300  -13.2610   19.9010 C   0  0  0  0  0  3  0  0  0  0  0  0
  -28.5860  -13.0180   21.0070 C   0  0  0  0  0  2  0  0  0  0  0  0
  -29.9080  -13.3760   20.4620 N   0  0  0  0  0  0  0  0  0  0  0  0
  -31.6210  -14.8290   20.1030 O   0  0  0  0  0  0  0  0  0  0  0  0
  -29.7500  -15.5290   21.1490 N   0  0  0  0  0  0  0  0  0  0  0  0
  -28.9020  -15.1830   21.5710 H   0  0  0  0  0  0  0  0  0  0  0  0
  -25.0990  -13.7800   20.5760 C   0  0  0  0  0  0  0  0  0  0  0  0
  -24.0550  -12.9690   20.9350 C   0  0  0  0  0  0  0  0  0  0  0  0
  -24.5660  -11.6370   20.9100 C   0  0  0  0  0  0  0  0  0  0  0  0
  -26.1790  -12.9380   20.3590 N   0  0  0  0  0  0  0  0  0  0  0  0
  -25.8600  -11.6430   20.6150 N   0  0  0  0  0  0  0  0  0  0  0  0
  -23.8830  -10.3480   21.0910 C   0  0  0  0  0  0  0  0  0  0  0  0
  -24.3290   -9.4080   22.0440 C   0  0  0  0  0  3  0  0  0  0  0  0
  -23.6480   -8.1840   22.2150 C   0  0  0  0  0  3  0  0  0  0  0  0
  -22.5080   -7.8920   21.4300 C   0  0  0  0  0  0  0  0  0  0  0  0
  -22.0820   -8.8220   20.4650 C   0  0  0  0  0  3  0  0  0  0  0  0
  -22.7640  -10.0380   20.2930 C   0  0  0  0  0  3  0  0  0  0  0  0
  -21.7950   -6.7190   21.5090 O   0  0  0  0  0  0  0  0  0  0  0  0
  -21.7370   -5.9900   22.6690 C   0  0  0  0  0  0  0  0  0  0  0  0
  -21.2230   -6.5330   23.8660 C   0  0  0  0  0  3  0  0  0  0  0  0
  -21.1210   -5.7270   25.0180 C   0  0  0  0  0  3  0  0  0  0  0  0
  -21.5180   -4.3770   24.9710 C   0  0  0  0  0  0  0  0  0  0  0  0
  -22.0230   -3.8330   23.7780 C   0  0  0  0  0  3  0  0  0  0  0  0
  -22.1300   -4.6370   22.6290 C   0  0  0  0  0  0  0  0  0  0  0  0
  -22.5970   -4.1010   21.4760 F   0  0  0  0  0  0  0  0  0  0  0  0
  -21.4130   -3.6000   26.0740 F   0  0  0  0  0  0  0  0  0  0  0  0
  -22.6370  -13.3970   21.1900 C   0  0  0  0  0  0  0  0  0  0  0  0
  -21.9290  -12.6810   22.0570 N   0  0  0  0  0  0  0  0  0  0  0  0
  -22.1660  -14.3990   20.6570 O   0  0  0  0  0  0  0  0  0  0  0  0
  -22.3170  -11.8650   22.5050 H   0  0  0  0  0  0  0  0  0  0  0  0
  -20.9780  -12.9500   22.2710 H   0  0  0  0  0  0  0  0  0  0  0  0
  -25.2110  -15.1540   20.4020 N   0  0  0  0  0  0  0  0  0  0  0  0
  -24.4060  -15.7660   20.4790 H   0  0  0  0  0  0  0  0  0  0  0  0
  -26.0350  -15.6280   20.0580 H   0  0  0  0  0  0  0  0  0  0  0  0
  -31.2240  -17.5780   21.4970 C   0  0  1  0  0  0  0  0  0  0  0  0
  -31.6260  -17.0070   22.6330 F   0  0  0  0  0  0  0  0  0  0  0  0
  -32.1700  -17.4340   20.5710 F   0  0  0  0  0  0  0  0  0  0  0  0
  -31.0810  -18.8820   21.7240 F   0  0  0  0  0  0  0  0  0  0  0  0
  -29.2150  -23.4970   20.3970 C   0  0  0  0  0  2  0  0  0  0  0  0
  -28.0470  -24.5360   20.2390 C   0  0  0  0  0  3  0  0  0  0  0  0
  -25.9180  -23.0600   20.1610 C   0  0  0  0  0  1  0  0  0  0  0  0
  -25.6910  -25.3000   21.0870 C   0  0  0  0  0  1  0  0  0  0  0  0
  -26.9610  -23.5810   22.3800 C   0  0  0  0  0  1  0  0  0  0  0  0
  -26.6960  -24.1290   20.9620 C   0  0  2  0  0  0  0  0  0  0  0  0
  -28.5920  -25.9540   20.6500 C   0  0  0  0  0  2  0  0  0  0  0  0
  -28.4700  -26.9720   19.6440 O   0  0  0  0  0  0  0  0  0  0  0  0
  -24.5020  -31.7780   23.1080 C   0  0  0  0  0  0  0  0  0  0  0  0
  -27.3000  -27.6900   19.7000 C   0  0  0  0  0  0  0  0  0  0  0  0
  -23.3480  -30.4710   21.3520 C   0  0  0  0  0  3  0  0  0  0  0  0
  -24.8590  -29.1010   19.8170 C   0  0  0  0  0  0  0  0  0  0  0  0
  -25.8600  -30.9260   21.2020 C   0  0  0  0  0  2  0  0  0  0  0  0
  -25.9940  -29.6150   20.4580 C   0  0  0  0  0  0  0  0  0  0  0  0
  -27.2200  -28.9120   20.4050 C   0  0  0  0  0  3  0  0  0  0  0  0
  -26.1650  -27.2100   19.0240 C   0  0  0  0  0  3  0  0  0  0  0  0
  -24.9380  -27.8950   19.0990 C   0  0  0  0  0  3  0  0  0  0  0  0
  -23.5850  -29.9090   19.9240 C   0  0  0  0  0  2  0  0  0  0  0  0
  -24.5870  -31.0700   21.9460 N   0  0  0  0  0  0  0  0  0  0  0  0
  -23.4100  -31.9730   23.6610 O   0  0  0  0  0  0  0  0  0  0  0  0
  -22.7290  -29.3570   22.2260 C   0  0  0  0  0  0  0  0  0  0  0  0
  -21.4050  -29.1640   22.1010 N   0  0  0  0  0  0  0  0  0  0  0  0
  -23.4330  -28.6730   22.9730 O   0  0  0  0  0  0  0  0  0  0  0  0
  -20.8940  -29.7720   21.4770 H   0  0  0  0  0  0  0  0  0  0  0  0
  -18.0480  -27.9260   22.5990 C   0  0  0  0  0  0  0  0  0  0  0  0
  -20.6160  -28.1480   22.7980 C   0  0  0  0  0  3  0  0  0  0  0  0
  -20.6860  -26.7870   22.0690 C   0  0  0  0  0  2  0  0  0  0  0  0
  -19.5470  -26.5820   21.0670 C   0  0  0  0  0  2  0  0  0  0  0  0
  -18.1910  -26.6590   21.7740 C   0  0  0  0  0  2  0  0  0  0  0  0
  -19.1870  -28.6340   23.0660 C   0  0  0  0  0  0  0  0  0  0  0  0
  -19.0010  -29.8260   23.7970 C   0  0  0  0  0  3  0  0  0  0  0  0
  -17.7060  -30.3090   24.0680 C   0  0  0  0  0  3  0  0  0  0  0  0
  -16.5820  -29.5960   23.6170 C   0  0  0  0  0  3  0  0  0  0  0  0
  -16.7540  -28.4060   22.8890 C   0  0  0  0  0  3  0  0  0  0  0  0
  -25.7660  -32.3990   23.7810 C   0  0  0  0  0  3  0  0  0  0  0  0
  -26.2530  -31.5970   25.0500 C   0  0  1  0  0  0  0  0  0  0  0  0
  -25.1340  -31.3310   26.0820 C   0  0  0  0  0  1  0  0  0  0  0  0
  -26.8500  -30.2300   24.6380 C   0  0  0  0  0  1  0  0  0  0  0  0
  -27.3810  -32.3780   25.7640 C   0  0  0  0  0  1  0  0  0  0  0  0
  -25.4410  -33.7860   24.1350 N   0  0  0  0  0  0  0  0  0  0  0  0
  -25.7620  -34.8570   23.3960 C   0  0  0  0  0  0  0  0  0  0  0  0
  -26.4370  -34.7820   22.3670 O   0  0  0  0  0  0  0  0  0  0  0  0
  -24.8420  -33.9180   24.9380 H   0  0  0  0  0  0  0  0  0  0  0  0
  -24.0000  -36.6240   23.0820 C   0  0  0  0  0  1  0  0  0  0  0  0
  -25.2540  -36.2290   23.8780 C   0  0  0  0  0  3  0  0  0  0  0  0
  -27.3750  -37.1440   24.7100 C   0  0  0  0  0  1  0  0  0  0  0  0
  -26.2660  -37.3020   23.7730 N   0  0  0  0  0  0  0  0  0  0  0  0
  -25.8430  -38.2120   23.9330 H   0  0  0  0  0  0  0  0  0  0  0  0
  2  4  2  0
  2  5  1  0
  3 52  1  0
  3  1  2  0
  4  3  1  0
  5  7  1  0
  5  1  1  0
  7  6  1  0
  8  7  1  0
  9  8  1  0
  9 18  1  0
  9 48  1  0
 10 18  1  0
 11 16  1  0
 12 13  1  0
 12 11  1  0
 14 13  1  0
 14 23  1  0
 14 15  1  0
 16 10  1  0
 16 15  1  0
 17 10  2  0
 18 19  1  0
 20 21  2  0
 21 40  1  0
 22 21  1  0
 22 25  1  0
 23 20  1  0
 23 24  1  0
 24 22  2  0
 25 26  1  0
 26 27  2  0
 28 31  1  0
 28 27  1  0
 29 28  2  0
 30 29  1  0
 30 25  2  0
 31 32  1  0
 32 33  1  0
 33 34  2  0
 35 34  1  0
 35 39  1  0
 36 35  2  0
 37 32  2  0
 37 36  1  0
 38 37  1  0
 40 41  1  0
 41 44  1  0
 41 43  1  0
 42 40  2  0
 45 46  1  0
 45 20  1  0
 47 45  1  0
 48 51  1  1
 48 49  1  0
 50 48  1  0
 53 52  1  0
 53 58  1  0
 53 57  1  0
 57 54  1  6
 57 55  1  0
 57 56  1  0
 59 61  1  0
 59 58  1  0
 60 71  2  0
 61 66  1  0
 62 70  1  0
 62 72  1  0
 63 69  1  0
 63 65  1  0
 64 70  1  0
 65 64  1  0
 66 65  2  0
 67 68  1  0
 67 61  2  0
 68 63  2  0
 69 62  1  0
 70 60  1  0
 72 74  2  0
 73 72  1  0
 75 73  1  0
 76 85  2  0
 76 81  1  0
 77 73  1  0
 77 81  1  0
 78 77  1  0
 79 80  1  0
 79 78  1  0
 80 76  1  0
 81 82  2  0
 82 83  1  0
 84 83  2  0
 85 84  1  0
 86 60  1  0
 86 91  1  0
 86 87  1  0
 87 90  1  1
 87 88  1  0
 89 87  1  0
 91 94  1  0
 92 96  1  0
 92 91  1  0
 93 92  2  0
 96 95  1  0
 98 96  1  0
 98 99  1  0
 98 97  1  0
M  ISO  4  10 100  18 100  58 101  59 101
M  END
>  <TORSDO>  (83) 
F 24

>  <SCORE>  (83) 
-11.993

>  <name>  (83) 
89

>  <ligand_id>  (83) 
89

>  <original_smiles>  (83) 
[H]c1c([H])c([H])c2c(c1[H])C([H])([H])C([H])([H])C([H])([H])C2([H])N([H])C(=O)C1([H])N(C(=O)C([H])(N([H])C(=O)C([H])(N([H])C([H])([H])[H])C([H])([H])[H])C(C([H])([H])[H])(C([H])([H])[H])C([H])([H])[H])C([H])([H])c2c([H])c(OC([H])([H])C([H])(C([H])([H])c3nc([H])n(C([H])(C([H])([H])[H])C([H])([H])C([H])(N([H])C(=O)N4C([H])([H])C([H])([H])C([H])([H])C([H])(n5nc(-c6c([H])c([H])c(Oc7c([H])c([H])c(F)c([H])c7F)c([H])c6[H])c(C(=O)N([H])[H])c5N([H])[H])C4([H])[H])C(F)(F)F)c3[H])C(C([H])([H])[H])(C([H])([H])[H])C([H])([H])[H])c([H])c([H])c2C1([H])[H]

>  <smiles>  (83) 
[H]c1c([H])c([H])c2c(c1[H])C([H])([H])C([H])([H])C([H])([H])C2([H])N([H])C(=O)C1([H])N(C(=O)C([H])(N([H])C(=O)C([H])(N([H])C([H])([H])[H])C([H])([H])[H])C(C([H])([H])[H])(C([H])([H])[H])C([H])([H])[H])C([H])([H])c2c([H])c(OC([H])([H])C([H])(C([H])([H])c3nc([H])n(C([H])(C([H])([H])[H])C([H])([H])C([H])(N([H])C(=O)N4C([H])([H])C([H])([H])C([H])([H])C([H])(n5nc(-c6c([H])c([H])c(Oc7c([H])c([H])c(F)c([H])c7F)c([H])c6[H])c(C(=O)N([H])[H])c5N([H])[H])C4([H])[H])C(F)(F)F)c3[H])C(C([H])([H])[H])(C([H])([H])[H])C([H])([H])[H])c([H])c([H])c2C1([H])[H]

$$$$
90:0:0
     RDKit          3D

 98106  0  0  1  0  0  0  0  0999 V2000
  -32.0490  -23.8480   17.5530 C   0  0  0  0  0  1  0  0  0  0  0  0
  -34.3860  -24.0720   18.3700 C   0  0  0  0  0  1  0  0  0  0  0  0
  -32.9140  -23.9390   18.8400 C   0  0  1  0  0  0  0  0  0  0  0  0
  -32.8630  -26.5350   19.0300 C   0  0  0  0  0  1  0  0  0  0  0  0
  -33.1710  -25.1850   21.0940 C   0  0  0  0  0  1  0  0  0  0  0  0
  -32.4650  -25.1990   19.7160 C   0  0  2  0  0  0  0  0  0  0  0  0
  -30.9130  -25.2110   19.9410 C   0  0  0  0  0  2  0  0  0  0  0  0
  -30.3430  -26.2940   20.8860 C   0  0  0  0  0  2  0  0  0  0  0  0
  -28.8130  -26.2620   21.0040 C   0  0  0  0  0  2  0  0  0  0  0  0
  -28.2120  -26.5890   19.7510 O   0  0  0  0  0  0  0  0  0  0  0  0
  -24.4350  -31.6380   23.0690 C   0  0  0  0  0  0  0  0  0  0  0  0
  -27.0540  -27.3210   19.8320 C   0  0  0  0  0  0  0  0  0  0  0  0
  -23.2090  -30.2870   21.3970 C   0  0  0  0  0  3  0  0  0  0  0  0
  -24.6490  -28.7930   19.9130 C   0  0  0  0  0  0  0  0  0  0  0  0
  -25.7270  -30.6610   21.1820 C   0  0  0  0  0  2  0  0  0  0  0  0
  -25.8070  -29.3090   20.5080 C   0  0  0  0  0  0  0  0  0  0  0  0
  -27.0120  -28.5790   20.4710 C   0  0  0  0  0  3  0  0  0  0  0  0
  -25.8870  -26.8120   19.2270 C   0  0  0  0  0  3  0  0  0  0  0  0
  -24.6810  -27.5390   19.2730 C   0  0  0  0  0  3  0  0  0  0  0  0
  -23.4030  -29.6450   19.9960 C   0  0  0  0  0  2  0  0  0  0  0  0
  -24.4750  -30.8750   21.9410 N   0  0  0  0  0  0  0  0  0  0  0  0
  -23.3610  -31.8950   23.6300 O   0  0  0  0  0  0  0  0  0  0  0  0
  -22.5690  -29.2390   22.3340 C   0  0  0  0  0  0  0  0  0  0  0  0
  -21.2420  -29.0640   22.2180 N   0  0  0  0  0  0  0  0  0  0  0  0
  -23.2610  -28.5830   23.1190 O   0  0  0  0  0  0  0  0  0  0  0  0
  -20.7440  -29.6420   21.5540 H   0  0  0  0  0  0  0  0  0  0  0  0
  -17.8690  -27.8780   22.7260 C   0  0  0  0  0  0  0  0  0  0  0  0
  -20.4320  -28.1050   22.9670 C   0  0  0  0  0  3  0  0  0  0  0  0
  -20.5160  -26.6960   22.3380 C   0  0  0  0  0  2  0  0  0  0  0  0
  -19.3960  -26.4200   21.3300 C   0  0  0  0  0  2  0  0  0  0  0  0
  -18.0250  -26.5540   22.0000 C   0  0  0  0  0  2  0  0  0  0  0  0
  -19.0010  -28.6150   23.1660 C   0  0  0  0  0  0  0  0  0  0  0  0
  -18.8030  -29.8590   23.8050 C   0  0  0  0  0  3  0  0  0  0  0  0
  -17.5060  -30.3670   24.0060 C   0  0  0  0  0  3  0  0  0  0  0  0
  -16.3890  -29.6250   23.5830 C   0  0  0  0  0  3  0  0  0  0  0  0
  -16.5710  -28.3830   22.9490 C   0  0  0  0  0  3  0  0  0  0  0  0
  -25.7300  -32.2460   23.6930 C   0  0  0  0  0  3  0  0  0  0  0  0
  -25.4350  -33.6370   24.0550 N   0  0  0  0  0  0  0  0  0  0  0  0
  -25.7740  -34.7030   23.3170 C   0  0  0  0  0  0  0  0  0  0  0  0
  -26.4400  -34.6160   22.2810 O   0  0  0  0  0  0  0  0  0  0  0  0
  -24.8440  -33.7800   24.8610 H   0  0  0  0  0  0  0  0  0  0  0  0
  -24.0700  -36.5210   22.9900 C   0  0  0  0  0  1  0  0  0  0  0  0
  -25.2980  -36.0840   23.8040 C   0  0  0  0  0  3  0  0  0  0  0  0
  -27.4270  -36.9280   24.6880 C   0  0  0  0  0  1  0  0  0  0  0  0
  -26.3440  -37.1270   23.7300 N   0  0  0  0  0  0  0  0  0  0  0  0
  -25.9460  -38.0490   23.8880 H   0  0  0  0  0  0  0  0  0  0  0  0
  -26.2570  -31.4420   24.9440 C   0  0  1  0  0  0  0  0  0  0  0  0
  -25.1720  -31.1830   26.0150 C   0  0  0  0  0  1  0  0  0  0  0  0
  -26.8310  -30.0720   24.5120 C   0  0  0  0  0  1  0  0  0  0  0  0
  -27.4170  -32.2160   25.6150 C   0  0  0  0  0  1  0  0  0  0  0  0
  -32.7950  -22.5980   19.6510 C   0  0  0  0  0  2  0  0  0  0  0  0
  -32.9010  -21.2770   18.8390 C   0  0  0  0  0  2  0  0  0  0  0  0
  -33.0750  -18.8510   19.6240 C   0  0  0  0  0  3  0  0  0  0  0  0
  -32.3150  -20.0260   19.4990 C   0  0  0  0  0  0  0  0  0  0  0  0
  -30.9680  -19.9160   19.8810 C   0  0  0  0  0  0  0  0  0  0  0  0
  -31.2190  -17.6330   20.2670 C   0  0  0  0  0  0  0  0  0  0  0  0
  -29.9600  -21.0470   19.7780 C   0  0  0  0  0  1  0  0  0  0  0  0
  -32.5210  -17.6750   19.9780 N   0  0  0  0  0  0  0  0  0  0  0  0
  -30.4650  -18.7400   20.2820 N   0  0  0  0  0  0  0  0  0  0  0  0
  -29.6380  -16.5070   18.7970 C   0  0  0  0  0  1  0  0  0  0  0  0
  -29.3960  -16.3230   21.3830 C   0  0  0  0  0  1  0  0  0  0  0  0
  -30.3660  -16.3140   20.1640 C   0  0  2  0  0  0  0  0  0  0  0  0
  -31.1220  -14.9050   20.0860 C   0  0  0  0  0  0  0  0  0  0  0  0
  -30.8270  -12.6630   19.0920 C   0  0  0  0  0  2  0  0  0  0  0  0
  -29.8650  -12.7900   17.8900 C   0  0  0  0  0  2  0  0  0  0  0  0
  -28.3840  -12.6970   18.3320 C   0  0  0  0  0  2  0  0  0  0  0  0
  -28.0580  -13.5280   19.6040 C   0  0  0  0  0  3  0  0  0  0  0  0
  -29.1570  -13.3340   20.6740 C   0  0  0  0  0  2  0  0  0  0  0  0
  -30.4540  -13.7000   20.0760 N   0  0  0  0  0  0  0  0  0  0  0  0
  -32.3110  -14.9030   19.7660 O   0  0  0  0  0  0  0  0  0  0  0  0
  -25.6820  -14.1570   20.3460 C   0  0  0  0  0  0  0  0  0  0  0  0
  -24.6170  -13.3930   20.7320 C   0  0  0  0  0  0  0  0  0  0  0  0
  -25.0710  -12.0400   20.6980 C   0  0  0  0  0  0  0  0  0  0  0  0
  -26.7190  -13.2650   20.1100 N   0  0  0  0  0  0  0  0  0  0  0  0
  -26.3570  -11.9880   20.3770 N   0  0  0  0  0  0  0  0  0  0  0  0
  -24.3430  -10.7840   20.8970 C   0  0  0  0  0  0  0  0  0  0  0  0
  -24.7420   -9.8530   21.8810 C   0  0  0  0  0  3  0  0  0  0  0  0
  -24.0200   -8.6570   22.0680 C   0  0  0  0  0  3  0  0  0  0  0  0
  -22.8830   -8.3830   21.2690 C   0  0  0  0  0  0  0  0  0  0  0  0
  -22.5040   -9.3020   20.2760 C   0  0  0  0  0  3  0  0  0  0  0  0
  -23.2280  -10.4910   20.0880 C   0  0  0  0  0  3  0  0  0  0  0  0
  -22.1330   -7.2370   21.3640 O   0  0  0  0  0  0  0  0  0  0  0  0
  -21.9770   -6.5770   22.5570 C   0  0  0  0  0  0  0  0  0  0  0  0
  -21.3780   -7.1940   23.6780 C   0  0  0  0  0  3  0  0  0  0  0  0
  -21.1760   -6.4560   24.8620 C   0  0  0  0  0  3  0  0  0  0  0  0
  -21.5620   -5.1040   24.9220 C   0  0  0  0  0  0  0  0  0  0  0  0
  -22.1520   -4.4870   23.8060 C   0  0  0  0  0  3  0  0  0  0  0  0
  -22.3560   -5.2220   22.6250 C   0  0  0  0  0  0  0  0  0  0  0  0
  -22.9070   -4.6190   21.5450 F   0  0  0  0  0  0  0  0  0  0  0  0
  -21.3580   -4.3930   26.0550 F   0  0  0  0  0  0  0  0  0  0  0  0
  -23.2250  -13.8790   21.0230 C   0  0  0  0  0  0  0  0  0  0  0  0
  -22.5070  -13.1920   21.9030 N   0  0  0  0  0  0  0  0  0  0  0  0
  -22.7860  -14.9050   20.5050 O   0  0  0  0  0  0  0  0  0  0  0  0
  -22.8740  -12.3650   22.3500 H   0  0  0  0  0  0  0  0  0  0  0  0
  -21.5740  -13.5030   22.1380 H   0  0  0  0  0  0  0  0  0  0  0  0
  -25.8430  -15.5280   20.1590 N   0  0  0  0  0  0  0  0  0  0  0  0
  -25.0750  -16.1780   20.2830 H   0  0  0  0  0  0  0  0  0  0  0  0
  -26.6870  -15.9720   19.8250 H   0  0  0  0  0  0  0  0  0  0  0  0
  3  1  1  6
  2  3  1  0
  3 51  1  0
  3  6  1  0
  6  4  1  6
  6  7  1  0
  6  5  1  0
  7  8  1  0
  8  9  1  0
 10 12  1  0
 10  9  1  0
 11 22  2  0
 12 17  1  0
 13 21  1  0
 13 23  1  0
 14 20  1  0
 14 16  1  0
 15 21  1  0
 16 15  1  0
 17 16  2  0
 18 19  1  0
 18 12  2  0
 19 14  2  0
 20 13  1  0
 21 11  1  0
 23 25  2  0
 24 23  1  0
 26 24  1  0
 27 36  2  0
 27 32  1  0
 28 24  1  0
 28 32  1  0
 29 28  1  0
 30 31  1  0
 30 29  1  0
 31 27  1  0
 32 33  2  0
 33 34  1  0
 35 34  2  0
 36 35  1  0
 37 11  1  0
 37 38  1  0
 37 47  1  0
 38 41  1  0
 39 43  1  0
 39 38  1  0
 40 39  2  0
 43 42  1  0
 45 43  1  0
 45 46  1  0
 45 44  1  0
 47 50  1  1
 47 48  1  0
 49 47  1  0
 52 54  1  0
 52 51  1  0
 53 58  1  0
 54 53  2  0
 54 55  1  0
 55 59  2  0
 56 59  1  0
 57 55  1  0
 58 56  2  0
 62 60  1  6
 62 56  1  0
 62 61  1  0
 63 62  1  0
 64 69  1  0
 65 66  1  0
 65 64  1  0
 67 66  1  0
 67 74  1  0
 67 68  1  0
 69 63  1  0
 69 68  1  0
 70 63  2  0
 71 72  2  0
 72 91  1  0
 73 72  1  0
 73 76  1  0
 74 71  1  0
 74 75  1  0
 75 73  2  0
 76 77  1  0
 77 78  2  0
 79 82  1  0
 79 78  1  0
 80 79  2  0
 81 80  1  0
 81 76  2  0
 82 83  1  0
 83 88  2  0
 83 84  1  0
 84 85  2  0
 85 86  1  0
 86 90  1  0
 87 86  2  0
 88 87  1  0
 89 88  1  0
 91 92  1  0
 92 95  1  0
 92 94  1  0
 93 91  2  0
 96 97  1  0
 96 71  1  0
 98 96  1  0
M  ISO  4   9 101  10 101  62 100  63 100
M  END
>  <TORSDO>  (84) 
F 24

>  <SCORE>  (84) 
-11.081

>  <name>  (84) 
90

>  <ligand_id>  (84) 
90

>  <original_smiles>  (84) 
[H]c1nc(C(C(=O)N2C([H])([H])C([H])([H])C([H])([H])C([H])(n3nc(-c4c([H])c([H])c(Oc5c([H])c([H])c(F)c([H])c5F)c([H])c4[H])c(C(=O)N([H])[H])c3N([H])[H])C2([H])[H])(C([H])([H])[H])C([H])([H])[H])nc(C([H])([H])[H])c1C([H])([H])C([H])([H])C(C([H])([H])[H])(C([H])([H])[H])C(C([H])([H])[H])(C([H])([H])[H])C([H])([H])C([H])([H])C([H])([H])Oc1c([H])c([H])c2c(c1[H])C([H])([H])N(C(=O)C([H])(N([H])C(=O)C([H])(N([H])C([H])([H])[H])C([H])([H])[H])C(C([H])([H])[H])(C([H])([H])[H])C([H])([H])[H])C([H])(C(=O)N([H])C1([H])c3c([H])c([H])c([H])c([H])c3C([H])([H])C([H])([H])C1([H])[H])C2([H])[H]

>  <smiles>  (84) 
[H]c1nc(C(C(=O)N2C([H])([H])C([H])([H])C([H])([H])C([H])(n3nc(-c4c([H])c([H])c(Oc5c([H])c([H])c(F)c([H])c5F)c([H])c4[H])c(C(=O)N([H])[H])c3N([H])[H])C2([H])[H])(C([H])([H])[H])C([H])([H])[H])nc(C([H])([H])[H])c1C([H])([H])C([H])([H])C(C([H])([H])[H])(C([H])([H])[H])C(C([H])([H])[H])(C([H])([H])[H])C([H])([H])C([H])([H])C([H])([H])Oc1c([H])c([H])c2c(c1[H])C([H])([H])N(C(=O)C([H])(N([H])C(=O)C([H])(N([H])C([H])([H])[H])C([H])([H])[H])C(C([H])([H])[H])(C([H])([H])[H])C([H])([H])[H])C([H])(C(=O)N([H])C1([H])c3c([H])c([H])c([H])c([H])c3C([H])([H])C([H])([H])C1([H])[H])C2([H])[H]

$$$$
91:0:0
     RDKit          3D

 91 99  0  0  1  0  0  0  0  0999 V2000
  -27.0420  -20.7350   20.2420 C   0  0  0  0  0  1  0  0  0  0  0  0
  -28.2130  -21.0690   18.0790 C   0  0  0  0  0  1  0  0  0  0  0  0
  -28.4320  -20.9200   19.5980 C   0  0  2  0  0  0  0  0  0  0  0  0
  -28.8970  -18.3710   20.4510 C   0  0  0  0  0  3  0  0  0  0  0  0
  -29.2380  -19.5590   19.8120 C   0  0  0  0  0  0  0  0  0  0  0  0
  -30.4520  -19.2530   19.1760 N   0  0  0  0  0  0  0  0  0  0  0  0
  -30.8210  -18.0070   19.4010 N   0  0  0  0  0  0  0  0  0  0  0  0
  -29.8950  -17.3940   20.1940 N   0  0  0  0  0  0  0  0  0  0  0  0
  -29.0210  -15.7800   21.8650 C   0  0  0  0  0  1  0  0  0  0  0  0
  -31.4040  -16.2700   21.7630 C   0  0  0  0  0  1  0  0  0  0  0  0
  -30.1660  -16.0270   20.8600 C   0  0  2  0  0  0  0  0  0  0  0  0
  -30.5760  -14.7230   19.9550 C   0  0  0  0  0  0  0  0  0  0  0  0
  -30.2480  -12.5170   18.7760 C   0  0  0  0  0  2  0  0  0  0  0  0
  -29.2020  -12.6510   17.6430 C   0  0  0  0  0  2  0  0  0  0  0  0
  -27.7650  -12.4870   18.1770 C   0  0  0  0  0  2  0  0  0  0  0  0
  -27.5260  -13.2980   19.4760 C   0  0  0  0  0  3  0  0  0  0  0  0
  -28.6690  -13.0330   20.4740 C   0  0  0  0  0  2  0  0  0  0  0  0
  -29.9160  -13.5010   19.8450 N   0  0  0  0  0  0  0  0  0  0  0  0
  -31.6290  -14.8340   19.3120 O   0  0  0  0  0  0  0  0  0  0  0  0
  -25.2200  -13.9190   20.4190 C   0  0  0  0  0  0  0  0  0  0  0  0
  -24.1710  -13.1560   20.8520 C   0  0  0  0  0  0  0  0  0  0  0  0
  -24.5920  -11.7970   20.7270 C   0  0  0  0  0  0  0  0  0  0  0  0
  -26.2170  -13.0250   20.0600 N   0  0  0  0  0  0  0  0  0  0  0  0
  -25.8500  -11.7410   20.3020 N   0  0  0  0  0  0  0  0  0  0  0  0
  -23.8520  -10.5450   20.9300 C   0  0  0  0  0  0  0  0  0  0  0  0
  -24.3300   -9.5360   21.7960 C   0  0  0  0  0  3  0  0  0  0  0  0
  -23.5890   -8.3500   21.9890 C   0  0  0  0  0  3  0  0  0  0  0  0
  -22.3590   -8.1640   21.3150 C   0  0  0  0  0  0  0  0  0  0  0  0
  -21.9000   -9.1610   20.4360 C   0  0  0  0  0  3  0  0  0  0  0  0
  -22.6410  -10.3390   20.2410 C   0  0  0  0  0  3  0  0  0  0  0  0
  -21.5850   -7.0320   21.4200 O   0  0  0  0  0  0  0  0  0  0  0  0
  -21.5900   -6.2610   22.5540 C   0  0  0  0  0  0  0  0  0  0  0  0
  -21.2750   -6.7970   23.8210 C   0  0  0  0  0  3  0  0  0  0  0  0
  -21.2240   -5.9540   24.9490 C   0  0  0  0  0  3  0  0  0  0  0  0
  -21.4770   -4.5760   24.8130 C   0  0  0  0  0  0  0  0  0  0  0  0
  -21.7860   -4.0400   23.5500 C   0  0  0  0  0  3  0  0  0  0  0  0
  -21.8400   -4.8800   22.4240 C   0  0  0  0  0  0  0  0  0  0  0  0
  -22.1170   -4.3530   21.2060 F   0  0  0  0  0  0  0  0  0  0  0  0
  -21.4200   -3.7640   25.8940 F   0  0  0  0  0  0  0  0  0  0  0  0
  -22.8160  -13.6540   21.2650 C   0  0  0  0  0  0  0  0  0  0  0  0
  -22.1510  -12.9420   22.1680 N   0  0  0  0  0  0  0  0  0  0  0  0
  -22.3590  -14.7060   20.8210 O   0  0  0  0  0  0  0  0  0  0  0  0
  -22.5350  -12.0900   22.5470 H   0  0  0  0  0  0  0  0  0  0  0  0
  -21.2460  -13.2570   22.4870 H   0  0  0  0  0  0  0  0  0  0  0  0
  -25.4020  -15.2920   20.2800 N   0  0  0  0  0  0  0  0  0  0  0  0
  -24.6650  -15.9570   20.4830 H   0  0  0  0  0  0  0  0  0  0  0  0
  -26.2240  -15.7230   19.8770 H   0  0  0  0  0  0  0  0  0  0  0  0
  -28.9960  -22.3310   20.1740 C   0  0  0  0  0  2  0  0  0  0  0  0
  -28.4080  -23.7530   19.6300 C   0  0  0  0  0  2  0  0  0  0  0  0
  -28.3910  -25.0710   20.5590 C   0  0  0  0  0  2  0  0  0  0  0  0
  -28.4190  -26.4630   20.0150 O   0  0  0  0  0  0  0  0  0  0  0  0
  -24.6530  -31.8280   23.1440 C   0  0  0  0  0  0  0  0  0  0  0  0
  -27.2810  -27.2840   20.0640 C   0  0  0  0  0  0  0  0  0  0  0  0
  -23.4490  -30.4270   21.5040 C   0  0  0  0  0  3  0  0  0  0  0  0
  -24.9020  -28.8820   20.0700 C   0  0  0  0  0  0  0  0  0  0  0  0
  -25.9850  -30.7630   21.3040 C   0  0  0  0  0  2  0  0  0  0  0  0
  -26.0720  -29.3820   20.6570 C   0  0  0  0  0  0  0  0  0  0  0  0
  -27.2660  -28.5970   20.6360 C   0  0  0  0  0  3  0  0  0  0  0  0
  -26.0880  -26.8300   19.4680 C   0  0  0  0  0  3  0  0  0  0  0  0
  -24.9130  -27.6110   19.4680 C   0  0  0  0  0  3  0  0  0  0  0  0
  -23.6600  -29.7500   20.1230 C   0  0  0  0  0  2  0  0  0  0  0  0
  -24.7150  -31.0240   22.0410 N   0  0  0  0  0  0  0  0  0  0  0  0
  -23.5710  -32.0960   23.6870 O   0  0  0  0  0  0  0  0  0  0  0  0
  -22.7980  -29.4070   22.4670 C   0  0  0  0  0  0  0  0  0  0  0  0
  -21.4690  -29.2330   22.3590 N   0  0  0  0  0  0  0  0  0  0  0  0
  -23.4870  -28.7710   23.2700 O   0  0  0  0  0  0  0  0  0  0  0  0
  -20.9720  -29.7970   21.6840 H   0  0  0  0  0  0  0  0  0  0  0  0
  -18.1000  -28.0290   22.8920 C   0  0  0  0  0  0  0  0  0  0  0  0
  -20.6620  -28.2870   23.1300 C   0  0  0  0  0  3  0  0  0  0  0  0
  -20.7570  -26.8620   22.5360 C   0  0  0  0  0  2  0  0  0  0  0  0
  -19.6400  -26.5500   21.5340 C   0  0  0  0  0  2  0  0  0  0  0  0
  -18.2680  -26.6870   22.2010 C   0  0  0  0  0  2  0  0  0  0  0  0
  -19.2240  -28.7860   23.3140 C   0  0  0  0  0  0  0  0  0  0  0  0
  -19.0130  -30.0430   23.9220 C   0  0  0  0  0  3  0  0  0  0  0  0
  -17.7120  -30.5420   24.1100 C   0  0  0  0  0  3  0  0  0  0  0  0
  -16.6020  -29.7810   23.7040 C   0  0  0  0  0  3  0  0  0  0  0  0
  -16.7970  -28.5260   23.1000 C   0  0  0  0  0  3  0  0  0  0  0  0
  -25.9350  -32.4670   23.7620 C   0  0  0  0  0  3  0  0  0  0  0  0
  -25.6110  -33.8560   24.1190 N   0  0  0  0  0  0  0  0  0  0  0  0
  -25.9160  -34.9270   23.3730 C   0  0  0  0  0  0  0  0  0  0  0  0
  -26.5690  -34.8490   22.3290 O   0  0  0  0  0  0  0  0  0  0  0  0
  -25.0270  -33.9890   24.9320 H   0  0  0  0  0  0  0  0  0  0  0  0
  -24.1540  -36.7000   23.0840 C   0  0  0  0  0  1  0  0  0  0  0  0
  -25.4200  -36.3010   23.8610 C   0  0  0  0  0  3  0  0  0  0  0  0
  -27.5600  -37.2060   24.6560 C   0  0  0  0  0  1  0  0  0  0  0  0
  -26.4340  -37.3710   23.7410 N   0  0  0  0  0  0  0  0  0  0  0  0
  -26.0180  -38.2830   23.9110 H   0  0  0  0  0  0  0  0  0  0  0  0
  -26.4730  -31.6840   25.0220 C   0  0  1  0  0  0  0  0  0  0  0  0
  -25.3960  -31.4220   26.1010 C   0  0  0  0  0  1  0  0  0  0  0  0
  -27.0650  -30.3180   24.6060 C   0  0  0  0  0  1  0  0  0  0  0  0
  -27.6240  -32.4800   25.6830 C   0  0  0  0  0  1  0  0  0  0  0  0
  3  2  1  6
  3  5  1  0
  3 48  1  0
  3  1  1  0
  5  4  2  0
  6  7  2  0
  6  5  1  0
  7  8  1  0
  8  4  1  0
  8 11  1  0
 11 10  1  1
 11  9  1  0
 12 11  1  0
 13 18  1  0
 14 15  1  0
 14 13  1  0
 16 15  1  0
 16 23  1  0
 16 17  1  0
 18 12  1  0
 18 17  1  0
 19 12  2  0
 20 21  2  0
 21 40  1  0
 22 21  1  0
 22 25  1  0
 23 24  1  0
 23 20  1  0
 24 22  2  0
 25 26  1  0
 26 27  2  0
 28 31  1  0
 28 27  1  0
 29 28  2  0
 30 29  1  0
 30 25  2  0
 31 32  1  0
 32 33  1  0
 33 34  2  0
 35 34  1  0
 35 39  1  0
 36 35  2  0
 37 32  2  0
 37 36  1  0
 38 37  1  0
 40 41  1  0
 41 44  1  0
 41 43  1  0
 42 40  2  0
 45 20  1  0
 45 46  1  0
 47 45  1  0
 49 48  1  0
 49 50  1  0
 51 53  1  0
 51 50  1  0
 52 63  2  0
 53 58  1  0
 54 62  1  0
 54 64  1  0
 55 61  1  0
 55 57  1  0
 56 62  1  0
 57 56  1  0
 58 57  2  0
 59 53  2  0
 60 59  1  0
 60 55  2  0
 61 54  1  0
 62 52  1  0
 64 66  2  0
 65 64  1  0
 67 65  1  0
 68 77  2  0
 68 73  1  0
 69 65  1  0
 69 73  1  0
 70 69  1  0
 71 72  1  0
 71 70  1  0
 72 68  1  0
 73 74  2  0
 74 75  1  0
 76 75  2  0
 77 76  1  0
 78 52  1  0
 78 79  1  0
 78 88  1  0
 79 82  1  0
 80 84  1  0
 80 79  1  0
 81 80  2  0
 84 83  1  0
 86 84  1  0
 86 87  1  0
 86 85  1  0
 88 91  1  1
 88 89  1  0
 90 88  1  0
M  ISO  4  11 100  12 100  50 101  51 101
M  END
>  <TORSDO>  (85) 
F 21

>  <SCORE>  (85) 
-11.575

>  <name>  (85) 
91

>  <ligand_id>  (85) 
91

>  <original_smiles>  (85) 
[H]c1c([H])c([H])c2c(c1[H])C([H])([H])C([H])([H])C([H])([H])C2([H])N([H])C(=O)C1([H])N(C(=O)C([H])(N([H])C(=O)C([H])(N([H])C([H])([H])[H])C([H])([H])[H])C(C([H])([H])[H])(C([H])([H])[H])C([H])([H])[H])C([H])([H])c2c([H])c(OC([H])([H])C([H])([H])C([H])([H])C(c3nnn(C(C(=O)N4C([H])([H])C([H])([H])C([H])([H])C([H])(n5nc(-c6c([H])c([H])c(Oc7c([H])c([H])c(F)c([H])c7F)c([H])c6[H])c(C(=O)N([H])[H])c5N([H])[H])C4([H])[H])(C([H])([H])[H])C([H])([H])[H])c3[H])(C([H])([H])[H])C([H])([H])[H])c([H])c([H])c2C1([H])[H]

>  <smiles>  (85) 
[H]c1c([H])c([H])c2c(c1[H])C([H])([H])C([H])([H])C([H])([H])C2([H])N([H])C(=O)C1([H])N(C(=O)C([H])(N([H])C(=O)C([H])(N([H])C([H])([H])[H])C([H])([H])[H])C(C([H])([H])[H])(C([H])([H])[H])C([H])([H])[H])C([H])([H])c2c([H])c(OC([H])([H])C([H])([H])C([H])([H])C(c3nnn(C(C(=O)N4C([H])([H])C([H])([H])C([H])([H])C([H])(n5nc(-c6c([H])c([H])c(Oc7c([H])c([H])c(F)c([H])c7F)c([H])c6[H])c(C(=O)N([H])[H])c5N([H])[H])C4([H])[H])(C([H])([H])[H])C([H])([H])[H])c3[H])(C([H])([H])[H])C([H])([H])[H])c([H])c([H])c2C1([H])[H]

$$$$
92:0:0
     RDKit          3D

 95103  0  0  1  0  0  0  0  0999 V2000
  -28.7730  -22.2470   21.0750 C   0  0  0  0  0  2  0  0  0  0  0  0
  -30.6720  -23.2380   22.0830 C   0  0  0  0  0  3  0  0  0  0  0  0
  -29.3960  -23.4340   21.5140 C   0  0  0  0  0  0  0  0  0  0  0  0
  -30.5030  -20.9780   21.8590 C   0  0  0  0  0  0  0  0  0  0  0  0
  -29.3260  -21.0280   21.2460 N   0  0  0  0  0  0  0  0  0  0  0  0
  -31.2060  -22.0170   22.2690 N   0  0  0  0  0  0  0  0  0  0  0  0
  -27.2450  -24.6640   21.9790 C   0  0  0  0  0  1  0  0  0  0  0  0
  -29.3780  -25.7870   22.4610 C   0  0  0  0  0  1  0  0  0  0  0  0
  -28.6950  -24.8260   21.4560 C   0  0  1  0  0  0  0  0  0  0  0  0
  -27.9800  -24.6600   18.9350 C   0  0  0  0  0  1  0  0  0  0  0  0
  -30.1780  -25.5980   19.4940 C   0  0  0  0  0  1  0  0  0  0  0  0
  -28.7200  -25.4840   20.0110 C   0  0  2  0  0  0  0  0  0  0  0  0
  -28.3830  -26.8960   20.0370 O   0  0  0  0  0  0  0  0  0  0  0  0
  -24.5470  -31.9500   23.2480 C   0  0  0  0  0  0  0  0  0  0  0  0
  -27.1340  -27.4930   20.1220 C   0  0  0  0  0  0  0  0  0  0  0  0
  -23.2980  -30.5520   21.6290 C   0  0  0  0  0  3  0  0  0  0  0  0
  -24.7180  -28.9920   20.1930 C   0  0  0  0  0  0  0  0  0  0  0  0
  -25.8160  -30.9060   21.3710 C   0  0  0  0  0  2  0  0  0  0  0  0
  -25.8850  -29.5230   20.7500 C   0  0  0  0  0  0  0  0  0  0  0  0
  -27.0850  -28.7830   20.7090 C   0  0  0  0  0  3  0  0  0  0  0  0
  -25.9390  -26.9740   19.5690 C   0  0  0  0  0  3  0  0  0  0  0  0
  -24.7380  -27.7140   19.6060 C   0  0  0  0  0  3  0  0  0  0  0  0
  -23.4770  -29.8570   20.2500 C   0  0  0  0  0  2  0  0  0  0  0  0
  -24.5730  -31.1550   22.1410 N   0  0  0  0  0  0  0  0  0  0  0  0
  -23.4800  -32.2230   23.8170 O   0  0  0  0  0  0  0  0  0  0  0  0
  -22.6670  -29.5370   22.6070 C   0  0  0  0  0  0  0  0  0  0  0  0
  -21.3500  -29.3190   22.4740 N   0  0  0  0  0  0  0  0  0  0  0  0
  -23.3600  -28.9430   23.4410 O   0  0  0  0  0  0  0  0  0  0  0  0
  -20.8530  -29.8560   21.7760 H   0  0  0  0  0  0  0  0  0  0  0  0
  -18.0130  -28.0090   22.9270 C   0  0  0  0  0  0  0  0  0  0  0  0
  -20.5510  -28.3730   23.2550 C   0  0  0  0  0  3  0  0  0  0  0  0
  -20.7220  -26.9300   22.7300 C   0  0  0  0  0  2  0  0  0  0  0  0
  -19.6580  -26.5350   21.6980 C   0  0  0  0  0  2  0  0  0  0  0  0
  -18.2570  -26.6470   22.3030 C   0  0  0  0  0  2  0  0  0  0  0  0
  -19.0910  -28.8260   23.3600 C   0  0  0  0  0  0  0  0  0  0  0  0
  -18.8110  -30.0970   23.9040 C   0  0  0  0  0  3  0  0  0  0  0  0
  -17.4850  -30.5550   24.0210 C   0  0  0  0  0  3  0  0  0  0  0  0
  -16.4200  -29.7370   23.6020 C   0  0  0  0  0  3  0  0  0  0  0  0
  -16.6870  -28.4660   23.0630 C   0  0  0  0  0  3  0  0  0  0  0  0
  -25.8490  -32.5760   23.8410 C   0  0  0  0  0  3  0  0  0  0  0  0
  -25.5560  -33.9790   24.1650 N   0  0  0  0  0  0  0  0  0  0  0  0
  -25.8960  -35.0240   23.4010 C   0  0  0  0  0  0  0  0  0  0  0  0
  -26.5610  -34.9080   22.3690 O   0  0  0  0  0  0  0  0  0  0  0  0
  -24.9650  -34.1390   24.9660 H   0  0  0  0  0  0  0  0  0  0  0  0
  -24.1990  -36.8420   23.0170 C   0  0  0  0  0  1  0  0  0  0  0  0
  -25.4210  -36.4210   23.8500 C   0  0  0  0  0  3  0  0  0  0  0  0
  -27.5520  -37.2770   24.7150 C   0  0  0  0  0  1  0  0  0  0  0  0
  -26.4690  -37.4580   23.7530 N   0  0  0  0  0  0  0  0  0  0  0  0
  -26.0750  -38.3850   23.8960 H   0  0  0  0  0  0  0  0  0  0  0  0
  -26.3840  -31.8090   25.1120 C   0  0  1  0  0  0  0  0  0  0  0  0
  -25.3120  -31.5820   26.2010 C   0  0  0  0  0  1  0  0  0  0  0  0
  -26.9530  -30.4270   24.7110 C   0  0  0  0  0  1  0  0  0  0  0  0
  -27.5490  -32.6000   25.7540 C   0  0  0  0  0  1  0  0  0  0  0  0
  -31.0660  -19.7800   22.1620 O   0  0  0  0  0  0  0  0  0  0  0  0
  -30.5510  -18.6020   21.5380 C   0  0  0  0  0  2  0  0  0  0  0  0
  -31.3180  -17.3260   21.9720 C   0  0  0  0  0  2  0  0  0  0  0  0
  -30.5460  -15.9760   21.9300 C   0  0  0  0  0  2  0  0  0  0  0  0
  -30.7880  -14.4340   20.0330 C   0  0  0  0  0  0  0  0  0  0  0  0
  -30.4080  -12.3020   18.8770 C   0  0  0  0  0  2  0  0  0  0  0  0
  -29.3740  -12.4710   17.7460 C   0  0  0  0  0  2  0  0  0  0  0  0
  -27.9370  -12.3090   18.2820 C   0  0  0  0  0  2  0  0  0  0  0  0
  -27.6610  -13.1740   19.5370 C   0  0  0  0  0  3  0  0  0  0  0  0
  -28.7890  -12.9850   20.5780 C   0  0  0  0  0  2  0  0  0  0  0  0
  -30.0830  -13.2760   19.9280 N   0  0  0  0  0  0  0  0  0  0  0  0
  -31.8910  -14.6120   19.5050 O   0  0  0  0  0  0  0  0  0  0  0  0
  -29.3050  -16.3090   19.7560 C   0  0  0  0  0  1  0  0  0  0  0  0
  -30.1410  -15.4620   20.6100 N   0  0  0  0  0  0  0  0  0  0  0  0
  -25.3380  -13.8260   20.4260 C   0  0  0  0  0  0  0  0  0  0  0  0
  -24.2790  -13.0690   20.8430 C   0  0  0  0  0  0  0  0  0  0  0  0
  -24.7060  -11.7070   20.7460 C   0  0  0  0  0  0  0  0  0  0  0  0
  -26.3420  -12.9250   20.1020 N   0  0  0  0  0  0  0  0  0  0  0  0
  -25.9700  -11.6460   20.3530 N   0  0  0  0  0  0  0  0  0  0  0  0
  -23.9680  -10.4560   20.9450 C   0  0  0  0  0  0  0  0  0  0  0  0
  -24.4060   -9.4830   21.8700 C   0  0  0  0  0  3  0  0  0  0  0  0
  -23.6710   -8.2950   22.0610 C   0  0  0  0  0  3  0  0  0  0  0  0
  -22.4840   -8.0700   21.3240 C   0  0  0  0  0  0  0  0  0  0  0  0
  -22.0650   -9.0340   20.3890 C   0  0  0  0  0  3  0  0  0  0  0  0
  -22.8020  -10.2140   20.1960 C   0  0  0  0  0  3  0  0  0  0  0  0
  -21.7170   -6.9350   21.4260 O   0  0  0  0  0  0  0  0  0  0  0  0
  -21.6320   -6.2240   22.5960 C   0  0  0  0  0  0  0  0  0  0  0  0
  -21.1460   -6.8040   23.7890 C   0  0  0  0  0  3  0  0  0  0  0  0
  -21.0040   -6.0150   24.9480 C   0  0  0  0  0  3  0  0  0  0  0  0
  -21.3420   -4.6490   24.9180 C   0  0  0  0  0  0  0  0  0  0  0  0
  -21.8250   -4.0700   23.7330 C   0  0  0  0  0  3  0  0  0  0  0  0
  -21.9650   -4.8550   22.5740 C   0  0  0  0  0  0  0  0  0  0  0  0
  -22.4070   -4.2860   21.4270 F   0  0  0  0  0  0  0  0  0  0  0  0
  -21.2080   -3.8890   26.0310 F   0  0  0  0  0  0  0  0  0  0  0  0
  -22.9130  -13.5670   21.2210 C   0  0  0  0  0  0  0  0  0  0  0  0
  -22.2240  -12.8570   22.1100 N   0  0  0  0  0  0  0  0  0  0  0  0
  -22.4660  -14.6170   20.7650 O   0  0  0  0  0  0  0  0  0  0  0  0
  -22.5970  -12.0070   22.5070 H   0  0  0  0  0  0  0  0  0  0  0  0
  -21.3100  -13.1750   22.4000 H   0  0  0  0  0  0  0  0  0  0  0  0
  -25.5200  -15.2000   20.2810 N   0  0  0  0  0  0  0  0  0  0  0  0
  -24.7830  -15.8740   20.4660 H   0  0  0  0  0  0  0  0  0  0  0  0
  -26.3820  -15.6370   19.9810 H   0  0  0  0  0  0  0  0  0  0  0  0
  1  5  1  0
  1  3  1  0
  2  6  1  0
  3  2  2  0
  4 54  1  0
  4  6  2  0
  5  4  2  0
  9  3  1  0
  9  7  1  1
  9  8  1  0
 12 10  1  6
 11 12  1  0
 12 13  1  0
 12  9  1  0
 13 15  1  0
 14 25  2  0
 15 20  1  0
 16 24  1  0
 16 26  1  0
 17 23  1  0
 17 19  1  0
 18 24  1  0
 19 18  1  0
 20 19  2  0
 21 22  1  0
 21 15  2  0
 22 17  2  0
 23 16  1  0
 24 14  1  0
 26 28  2  0
 27 26  1  0
 29 27  1  0
 30 39  2  0
 30 35  1  0
 31 27  1  0
 31 35  1  0
 32 31  1  0
 33 34  1  0
 33 32  1  0
 34 30  1  0
 35 36  2  0
 36 37  1  0
 38 37  2  0
 39 38  1  0
 40 14  1  0
 40 41  1  0
 40 50  1  0
 41 44  1  0
 42 46  1  0
 42 41  1  0
 43 42  2  0
 46 45  1  0
 48 46  1  0
 48 49  1  0
 48 47  1  0
 50 53  1  1
 50 51  1  0
 52 50  1  0
 55 56  1  0
 55 54  1  0
 57 56  1  0
 58 67  1  0
 59 64  1  0
 60 61  1  0
 60 59  1  0
 62 61  1  0
 62 71  1  0
 62 63  1  0
 64 58  1  0
 64 63  1  0
 65 58  2  0
 66 67  1  0
 67 57  1  0
 68 69  2  0
 69 88  1  0
 70 69  1  0
 70 73  1  0
 71 72  1  0
 71 68  1  0
 72 70  2  0
 73 74  1  0
 74 75  2  0
 76 79  1  0
 76 75  1  0
 77 76  2  0
 78 77  1  0
 78 73  2  0
 79 80  1  0
 80 81  1  0
 81 82  2  0
 83 82  1  0
 83 87  1  0
 84 83  2  0
 85 80  2  0
 85 84  1  0
 86 85  1  0
 88 89  1  0
 89 92  1  0
 89 91  1  0
 90 88  2  0
 93 68  1  0
 93 94  1  0
 95 93  1  0
M  ISO  4  12 101  13 101  58 100  67 100
M  END
>  <TORSDO>  (86) 
F 22

>  <SCORE>  (86) 
-13.068

>  <name>  (86) 
92

>  <ligand_id>  (86) 
92

>  <original_smiles>  (86) 
[H]c1nc(OC([H])([H])C([H])([H])C([H])([H])N(C(=O)N2C([H])([H])C([H])([H])C([H])([H])C([H])(n3nc(-c4c([H])c([H])c(Oc5c([H])c([H])c(F)c([H])c5F)c([H])c4[H])c(C(=O)N([H])[H])c3N([H])[H])C2([H])[H])C([H])([H])[H])nc([H])c1C(C([H])([H])[H])(C([H])([H])[H])C(Oc1c([H])c([H])c2c(c1[H])C([H])([H])N(C(=O)C([H])(N([H])C(=O)C([H])(N([H])C([H])([H])[H])C([H])([H])[H])C(C([H])([H])[H])(C([H])([H])[H])C([H])([H])[H])C([H])(C(=O)N([H])C1([H])c3c([H])c([H])c([H])c([H])c3C([H])([H])C([H])([H])C1([H])[H])C2([H])[H])(C([H])([H])[H])C([H])([H])[H]

>  <smiles>  (86) 
[H]c1nc(OC([H])([H])C([H])([H])C([H])([H])N(C(=O)N2C([H])([H])C([H])([H])C([H])([H])C([H])(n3nc(-c4c([H])c([H])c(Oc5c([H])c([H])c(F)c([H])c5F)c([H])c4[H])c(C(=O)N([H])[H])c3N([H])[H])C2([H])[H])C([H])([H])[H])nc([H])c1C(C([H])([H])[H])(C([H])([H])[H])C(Oc1c([H])c([H])c2c(c1[H])C([H])([H])N(C(=O)C([H])(N([H])C(=O)C([H])(N([H])C([H])([H])[H])C([H])([H])[H])C(C([H])([H])[H])(C([H])([H])[H])C([H])([H])[H])C([H])(C(=O)N([H])C1([H])c3c([H])c([H])c([H])c([H])c3C([H])([H])C([H])([H])C1([H])[H])C2([H])[H])(C([H])([H])[H])C([H])([H])[H]

$$$$
93:0:0
     RDKit          3D

101109  0  0  1  0  0  0  0  0999 V2000
  -28.2650  -24.1500   21.0410 C   0  0  0  0  0  1  0  0  0  0  0  0
  -29.6050  -23.5870   20.7270 N   0  0  2  0  0  4  0  0  0  0  0  0
  -29.5970  -22.6440   21.0850 H   0  0  0  0  0  0  0  0  0  0  0  0
  -31.9990  -23.4960   21.5930 C   0  0  0  0  0  1  0  0  0  0  0  0
  -30.6930  -24.3140   21.4840 C   0  0  0  0  0  3  0  0  0  0  0  0
  -29.1400  -24.0380   23.5530 C   0  0  0  0  0  1  0  0  0  0  0  0
  -30.2910  -24.8470   22.9130 C   0  0  0  0  0  3  0  0  0  0  0  0
  -30.0340  -26.3740   23.0980 C   0  0  0  0  0  2  0  0  0  0  0  0
  -30.9940  -27.3820   22.4120 C   0  0  0  0  0  2  0  0  0  0  0  0
  -30.3330  -28.7540   22.2060 C   0  0  0  0  0  2  0  0  0  0  0  0
  -29.1880  -28.5510   21.3670 O   0  0  0  0  0  0  0  0  0  0  0  0
  -24.5000  -28.3040   26.7550 C   0  0  0  0  0  0  0  0  0  0  0  0
  -27.9210  -28.7890   21.8530 C   0  0  0  0  0  0  0  0  0  0  0  0
  -23.5540  -28.7830   24.5150 C   0  0  0  0  0  3  0  0  0  0  0  0
  -25.2590  -29.2810   22.6830 C   0  0  0  0  0  0  0  0  0  0  0  0
  -25.9570  -29.4300   25.0840 C   0  0  0  0  0  2  0  0  0  0  0  0
  -26.2910  -29.2190   23.6250 C   0  0  0  0  0  0  0  0  0  0  0  0
  -27.6160  -28.9690   23.2210 C   0  0  0  0  0  3  0  0  0  0  0  0
  -26.8680  -28.8270   20.9140 C   0  0  0  0  0  3  0  0  0  0  0  0
  -25.5400  -29.0730   21.3190 C   0  0  0  0  0  3  0  0  0  0  0  0
  -23.8740  -29.5720   23.2160 C   0  0  0  0  0  2  0  0  0  0  0  0
  -24.6850  -28.7990   25.4990 N   0  0  0  0  0  0  0  0  0  0  0  0
  -23.3940  -27.8830   27.1180 O   0  0  0  0  0  0  0  0  0  0  0  0
  -23.1060  -27.3590   24.1190 C   0  0  0  0  0  0  0  0  0  0  0  0
  -22.1140  -27.2750   23.2190 N   0  0  0  0  0  0  0  0  0  0  0  0
  -23.6650  -26.3660   24.5920 O   0  0  0  0  0  0  0  0  0  0  0  0
  -21.7030  -28.1360   22.8860 H   0  0  0  0  0  0  0  0  0  0  0  0
  -20.0920  -25.9420   20.5420 C   0  0  0  0  0  0  0  0  0  0  0  0
  -21.5590  -26.0400   22.6660 C   0  0  0  0  0  3  0  0  0  0  0  0
  -22.6200  -25.2720   21.8460 C   0  0  0  0  0  2  0  0  0  0  0  0
  -22.5950  -25.6140   20.3540 C   0  0  0  0  0  2  0  0  0  0  0  0
  -21.2210  -25.2980   19.7540 C   0  0  0  0  0  2  0  0  0  0  0  0
  -20.2560  -26.3040   21.9050 C   0  0  0  0  0  0  0  0  0  0  0  0
  -19.1880  -26.9320   22.5810 C   0  0  0  0  0  3  0  0  0  0  0  0
  -17.9730  -27.1950   21.9210 C   0  0  0  0  0  3  0  0  0  0  0  0
  -17.8100  -26.8200   20.5760 C   0  0  0  0  0  3  0  0  0  0  0  0
  -18.8650  -26.1920   19.8910 C   0  0  0  0  0  3  0  0  0  0  0  0
  -25.6580  -28.2630   27.8010 C   0  0  0  0  0  3  0  0  0  0  0  0
  -25.0490  -28.1900   29.1360 N   0  0  0  0  0  0  0  0  0  0  0  0
  -25.0310  -29.1990   30.0180 C   0  0  0  0  0  0  0  0  0  0  0  0
  -25.6000  -30.2760   29.8160 O   0  0  0  0  0  0  0  0  0  0  0  0
  -24.5210  -27.3570   29.3460 H   0  0  0  0  0  0  0  0  0  0  0  0
  -22.8790  -29.6480   31.2380 C   0  0  0  0  0  1  0  0  0  0  0  0
  -24.2600  -28.9780   31.3330 C   0  0  0  0  0  3  0  0  0  0  0  0
  -26.1710  -28.7050   32.8500 C   0  0  0  0  0  1  0  0  0  0  0  0
  -24.9750  -29.4790   32.5270 N   0  0  0  0  0  0  0  0  0  0  0  0
  -24.3660  -29.4780   33.3400 H   0  0  0  0  0  0  0  0  0  0  0  0
  -26.6590  -27.0630   27.5770 C   0  0  1  0  0  0  0  0  0  0  0  0
  -25.9760  -25.6760   27.5630 C   0  0  0  0  0  1  0  0  0  0  0  0
  -27.4220  -27.2320   26.2430 C   0  0  0  0  0  1  0  0  0  0  0  0
  -27.7270  -27.0540   28.6980 C   0  0  0  0  0  1  0  0  0  0  0  0
  -29.8450  -23.4740   19.2430 C   0  0  0  0  0  3  0  0  0  0  0  0
  -28.9450  -22.4430   18.5010 C   0  0  0  0  0  3  0  0  0  0  0  0
  -28.9310  -22.4710   16.9530 C   0  0  0  0  0  2  0  0  0  0  0  0
  -29.7550  -24.2700   15.3630 C   0  0  0  0  0  3  0  0  0  0  0  0
  -30.0480  -23.2130   16.2340 C   0  0  0  0  0  0  0  0  0  0  0  0
  -31.3910  -22.8110   16.2790 C   0  0  0  0  0  0  0  0  0  0  0  0
  -31.9610  -24.4400   14.7370 C   0  0  0  0  0  0  0  0  0  0  0  0
  -31.8620  -21.6330   17.1080 C   0  0  0  0  0  1  0  0  0  0  0  0
  -30.7000  -24.8660   14.6200 N   0  0  0  0  0  0  0  0  0  0  0  0
  -32.3230  -23.4530   15.5620 N   0  0  0  0  0  0  0  0  0  0  0  0
  -33.0060  -26.5680   15.3020 C   0  0  0  0  0  1  0  0  0  0  0  0
  -33.0950  -25.3930   14.2760 C   0  0  2  0  0  0  0  0  0  0  0  0
  -32.8570  -25.9530   12.8270 C   0  0  0  0  0  0  0  0  0  0  0  0
  -33.2050  -26.0280   10.3720 C   0  0  0  0  0  2  0  0  0  0  0  0
  -32.0360  -25.3550    9.6320 C   0  0  0  0  0  2  0  0  0  0  0  0
  -32.3250  -23.8600    9.4320 C   0  0  0  0  0  2  0  0  0  0  0  0
  -32.7660  -23.1700   10.7460 C   0  0  0  0  0  3  0  0  0  0  0  0
  -33.8320  -23.9850   11.5090 C   0  0  0  0  0  2  0  0  0  0  0  0
  -33.3410  -25.3670   11.6850 N   0  0  0  0  0  0  0  0  0  0  0  0
  -32.2520  -27.0320   12.7470 O   0  0  0  0  0  0  0  0  0  0  0  0
  -32.8040  -20.6310   11.1180 C   0  0  0  0  0  0  0  0  0  0  0  0
  -33.4460  -19.6170   10.4660 C   0  0  0  0  0  0  0  0  0  0  0  0
  -34.2140  -20.2360    9.4310 C   0  0  0  0  0  0  0  0  0  0  0  0
  -33.2020  -21.8000   10.4930 N   0  0  0  0  0  0  0  0  0  0  0  0
  -34.0950  -21.5580    9.4990 N   0  0  0  0  0  0  0  0  0  0  0  0
  -35.0090  -19.6390    8.3510 C   0  0  0  0  0  0  0  0  0  0  0  0
  -36.3750  -19.9510    8.1750 C   0  0  0  0  0  3  0  0  0  0  0  0
  -37.1230  -19.3520    7.1380 C   0  0  0  0  0  3  0  0  0  0  0  0
  -36.5070  -18.4210    6.2670 C   0  0  0  0  0  0  0  0  0  0  0  0
  -35.1410  -18.1310    6.4330 C   0  0  0  0  0  3  0  0  0  0  0  0
  -34.3990  -18.7320    7.4610 C   0  0  0  0  0  3  0  0  0  0  0  0
  -37.1470  -17.8100    5.2190 O   0  0  0  0  0  0  0  0  0  0  0  0
  -38.4980  -17.5640    5.2490 C   0  0  0  0  0  0  0  0  0  0  0  0
  -39.0860  -16.7680    6.2560 C   0  0  0  0  0  3  0  0  0  0  0  0
  -40.4650  -16.4840    6.2070 C   0  0  0  0  0  3  0  0  0  0  0  0
  -41.2500  -16.9850    5.1530 C   0  0  0  0  0  0  0  0  0  0  0  0
  -40.6630  -17.7690    4.1450 C   0  0  0  0  0  3  0  0  0  0  0  0
  -39.2880  -18.0570    4.1930 C   0  0  0  0  0  0  0  0  0  0  0  0
  -38.7210  -18.8010    3.2130 F   0  0  0  0  0  0  0  0  0  0  0  0
  -42.5740  -16.7050    5.0970 F   0  0  0  0  0  0  0  0  0  0  0  0
  -33.2880  -18.1440   10.7230 C   0  0  0  0  0  0  0  0  0  0  0  0
  -34.3510  -17.3720   10.5320 N   0  0  0  0  0  0  0  0  0  0  0  0
  -32.2310  -17.6830   11.1480 O   0  0  0  0  0  0  0  0  0  0  0  0
  -35.2250  -17.7550   10.1940 H   0  0  0  0  0  0  0  0  0  0  0  0
  -34.2920  -16.3790   10.7080 H   0  0  0  0  0  0  0  0  0  0  0  0
  -31.9010  -20.6640   12.1780 N   0  0  0  0  0  0  0  0  0  0  0  0
  -31.6050  -19.8350   12.6850 H   0  0  0  0  0  0  0  0  0  0  0  0
  -31.4080  -21.5000   12.4590 H   0  0  0  0  0  0  0  0  0  0  0  0
  -35.7150  -25.6950   14.7000 C   0  0  0  0  0  1  0  0  0  0  0  0
  -34.5430  -24.7560   14.3370 C   0  0  0  0  0  2  0  0  0  0  0  0
  2  1  1  0
  2  3  1  1
  2  5  1  0
  5  4  1  0
  5  7  1  0
  7  8  1  0
  7  6  1  0
  9  8  1  0
 10  9  1  0
 11 13  1  0
 11 10  1  0
 12 23  2  0
 13 18  1  0
 14 24  1  0
 14 22  1  0
 15 21  1  0
 15 17  1  0
 16 22  1  0
 17 16  1  0
 18 17  2  0
 19 20  1  0
 19 13  2  0
 20 15  2  0
 21 14  1  0
 22 12  1  0
 24 26  2  0
 25 24  1  0
 27 25  1  0
 28 33  1  0
 29 25  1  0
 30 29  1  0
 31 30  1  0
 32 31  1  0
 32 28  1  0
 33 34  2  0
 33 29  1  0
 35 34  1  0
 36 35  2  0
 37 28  2  0
 37 36  1  0
 38 12  1  0
 38 39  1  0
 39 42  1  0
 39 40  1  0
 40 44  1  0
 41 40  2  0
 44 43  1  0
 44 46  1  0
 46 45  1  0
 46 47  1  0
 48 38  1  0
 48 51  1  1
 49 48  1  0
 50 48  1  0
 52  2  1  0
 53 52  2  0
 54 53  1  0
 55 56  2  0
 56 57  1  0
 56 54  1  0
 57 59  1  0
 58 61  1  0
 60 58  2  0
 60 55  1  0
 61 57  2  0
 63101  1  0
 63 58  1  0
 63 62  1  1
 64 63  1  0
 65 70  1  0
 66 65  1  0
 67 66  1  0
 68 67  1  0
 68 69  1  0
 69 70  1  0
 70 64  1  0
 71 64  2  0
 72 97  1  0
 73 92  1  0
 73 72  2  0
 74 76  2  0
 74 73  1  0
 75 68  1  0
 75 72  1  0
 76 75  1  0
 77 74  1  0
 78 77  1  0
 79 78  2  0
 80 81  2  0
 80 79  1  0
 81 82  1  0
 82 77  2  0
 83 84  1  0
 83 80  1  0
 84 85  1  0
 86 85  2  0
 87 86  1  0
 88 89  1  0
 88 87  2  0
 89 84  2  0
 90 89  1  0
 91 87  1  0
 92 94  2  0
 93 96  1  0
 93 92  1  0
 95 93  1  0
 97 99  1  0
 97 98  1  0
101100  1  0
M  ISO  4  10 101  11 101  63 100  64 100
M  END
>  <TORSDO>  (87) 
F 27

>  <SCORE>  (87) 
-1.648

>  <name>  (87) 
93

>  <ligand_id>  (87) 
93

>  <original_smiles>  (87) 
[H]c1nc(C(C(=O)N2C([H])([H])C([H])([H])C([H])([H])C([H])(n3nc(-c4c([H])c([H])c(Oc5c([H])c([H])c(F)c([H])c5F)c([H])c4[H])c(C(=O)N([H])[H])c3N([H])[H])C2([H])[H])(C([H])([H])[H])C([H])([H])C([H])([H])[H])nc(C([H])([H])[H])c1C([H])([H])C([H])([H])C([H])([H])[N+]([H])(C([H])([H])[H])C([H])(C([H])([H])[H])C([H])(C([H])([H])[H])C([H])([H])C([H])([H])C([H])([H])Oc1c([H])c([H])c2c(c1[H])C([H])([H])N(C(=O)C([H])(N([H])C(=O)C([H])(N([H])C([H])([H])[H])C([H])([H])[H])C(C([H])([H])[H])(C([H])([H])[H])C([H])([H])[H])C([H])(C(=O)N([H])C1([H])c3c([H])c([H])c([H])c([H])c3C([H])([H])C([H])([H])C1([H])[H])C2([H])[H]

>  <smiles>  (87) 
[H]c1nc(C(C(=O)N2C([H])([H])C([H])([H])C([H])([H])C([H])(n3nc(-c4c([H])c([H])c(Oc5c([H])c([H])c(F)c([H])c5F)c([H])c4[H])c(C(=O)N([H])[H])c3N([H])[H])C2([H])[H])(C([H])([H])[H])C([H])([H])C([H])([H])[H])nc(C([H])([H])[H])c1C([H])([H])C([H])([H])C([H])([H])[N+]([H])(C([H])([H])[H])C([H])(C([H])([H])[H])C([H])(C([H])([H])[H])C([H])([H])C([H])([H])C([H])([H])Oc1c([H])c([H])c2c(c1[H])C([H])([H])N(C(=O)C([H])(N([H])C(=O)C([H])(N([H])C([H])([H])[H])C([H])([H])[H])C(C([H])([H])[H])(C([H])([H])[H])C([H])([H])[H])C([H])(C(=O)N([H])C1([H])c3c([H])c([H])c([H])c([H])c3C([H])([H])C([H])([H])C1([H])[H])C2([H])[H]

$$$$
94:0:0
     RDKit          3D

 93101  0  0  1  0  0  0  0  0999 V2000
  -29.0160  -21.9780   20.5140 C   0  0  0  0  0  2  0  0  0  0  0  0
  -29.3480  -20.6580   20.6070 C   0  0  0  0  0  0  0  0  0  0  0  0
  -28.1780  -19.9160   20.7760 N   0  0  0  0  0  0  0  0  0  0  0  0
  -27.1610  -20.7190   20.7810 N   0  0  0  0  0  2  0  0  0  0  0  0
  -27.6360  -21.9770   20.6360 N   0  0  0  0  0  0  0  0  0  0  0  0
  -26.6780  -23.0750   20.6190 C   0  0  0  0  0  2  0  0  0  0  0  0
  -27.2890  -24.4580   20.3370 C   0  0  0  0  0  2  0  0  0  0  0  0
  -27.4520  -24.7700   18.8380 C   0  0  0  0  0  2  0  0  0  0  0  0
  -28.5000  -25.8660   18.6070 C   0  0  0  0  0  2  0  0  0  0  0  0
  -28.4090  -26.5360   17.2280 C   0  0  0  0  0  2  0  0  0  0  0  0
  -28.0680  -27.9070   17.3930 O   0  0  0  0  0  0  0  0  0  0  0  0
  -24.4100  -30.9060   22.6910 C   0  0  0  0  0  0  0  0  0  0  0  0
  -26.8220  -28.2470   17.8690 C   0  0  0  0  0  0  0  0  0  0  0  0
  -23.0460  -29.8640   20.9070 C   0  0  0  0  0  3  0  0  0  0  0  0
  -24.3170  -29.1440   18.8200 C   0  0  0  0  0  0  0  0  0  0  0  0
  -25.3900  -30.7530   20.4060 C   0  0  0  0  0  2  0  0  0  0  0  0
  -25.4980  -29.6860   19.3390 C   0  0  0  0  0  0  0  0  0  0  0  0
  -26.7510  -29.2440   18.8630 C   0  0  0  0  0  3  0  0  0  0  0  0
  -25.6210  -27.6980   17.3610 C   0  0  0  0  0  3  0  0  0  0  0  0
  -24.3720  -28.1440   17.8330 C   0  0  0  0  0  3  0  0  0  0  0  0
  -23.0190  -29.6920   19.3650 C   0  0  0  0  0  2  0  0  0  0  0  0
  -24.3110  -30.5080   21.3910 N   0  0  0  0  0  0  0  0  0  0  0  0
  -23.4550  -30.7870   23.4700 O   0  0  0  0  0  0  0  0  0  0  0  0
  -22.7690  -28.4930   21.5630 C   0  0  0  0  0  0  0  0  0  0  0  0
  -21.5130  -28.0300   21.4670 N   0  0  0  0  0  0  0  0  0  0  0  0
  -23.6740  -27.8600   22.1150 O   0  0  0  0  0  0  0  0  0  0  0  0
  -20.8300  -28.6150   21.0040 H   0  0  0  0  0  0  0  0  0  0  0  0
  -18.6020  -25.8980   21.6760 C   0  0  0  0  0  0  0  0  0  0  0  0
  -21.0250  -26.7480   21.9730 C   0  0  0  0  0  3  0  0  0  0  0  0
  -21.4390  -25.5880   21.0400 C   0  0  0  0  0  2  0  0  0  0  0  0
  -20.3750  -25.2490   19.9910 C   0  0  0  0  0  2  0  0  0  0  0  0
  -19.0580  -24.8570   20.6680 C   0  0  0  0  0  2  0  0  0  0  0  0
  -19.5240  -26.7970   22.2760 C   0  0  0  0  0  0  0  0  0  0  0  0
  -19.0450  -27.7690   23.1810 C   0  0  0  0  0  3  0  0  0  0  0  0
  -17.6750  -27.8500   23.4920 C   0  0  0  0  0  3  0  0  0  0  0  0
  -16.7690  -26.9490   22.9070 C   0  0  0  0  0  3  0  0  0  0  0  0
  -17.2320  -25.9730   22.0050 C   0  0  0  0  0  3  0  0  0  0  0  0
  -25.7150  -31.5510   23.2500 C   0  0  0  0  0  3  0  0  0  0  0  0
  -26.5030  -30.6070   24.2400 C   0  0  1  0  0  0  0  0  0  0  0  0
  -25.6200  -29.9910   25.3500 C   0  0  0  0  0  1  0  0  0  0  0  0
  -27.1720  -29.4450   23.4670 C   0  0  0  0  0  1  0  0  0  0  0  0
  -27.6410  -31.4000   24.9250 C   0  0  0  0  0  1  0  0  0  0  0  0
  -25.3380  -32.8070   23.9130 N   0  0  0  0  0  0  0  0  0  0  0  0
  -25.4880  -34.0250   23.3770 C   0  0  0  0  0  0  0  0  0  0  0  0
  -26.0370  -34.2160   22.2890 O   0  0  0  0  0  0  0  0  0  0  0  0
  -24.8340  -32.7220   24.7860 H   0  0  0  0  0  0  0  0  0  0  0  0
  -23.5980  -35.6710   23.5820 C   0  0  0  0  0  1  0  0  0  0  0  0
  -24.9430  -35.2250   24.1750 C   0  0  0  0  0  3  0  0  0  0  0  0
  -27.0740  -36.1160   25.0090 C   0  0  0  0  0  1  0  0  0  0  0  0
  -25.8730  -36.3740   24.2180 N   0  0  0  0  0  0  0  0  0  0  0  0
  -25.4140  -37.1960   24.6010 H   0  0  0  0  0  0  0  0  0  0  0  0
  -30.5930  -20.1190   20.5580 O   0  0  0  0  0  0  0  0  0  0  0  0
  -30.7020  -18.8410   19.9300 C   0  0  0  0  0  2  0  0  0  0  0  0
  -31.9510  -18.0840   20.4100 C   0  0  0  0  0  2  0  0  0  0  0  0
  -33.0330  -17.8870   19.3260 C   0  0  0  0  0  2  0  0  0  0  0  0
  -34.2690  -15.8140   18.9540 C   0  0  0  0  0  0  0  0  0  0  0  0
  -33.8580  -13.3930   18.6870 C   0  0  0  0  0  2  0  0  0  0  0  0
  -32.8980  -13.0870   17.5220 C   0  0  0  0  0  2  0  0  0  0  0  0
  -31.4340  -13.1580   17.9890 C   0  0  0  0  0  2  0  0  0  0  0  0
  -31.1240  -14.4590   18.7730 C   0  0  0  0  0  3  0  0  0  0  0  0
  -32.1870  -14.7030   19.8690 C   0  0  0  0  0  2  0  0  0  0  0  0
  -33.5200  -14.7140   19.2430 N   0  0  0  0  0  0  0  0  0  0  0  0
  -35.2450  -15.7710   18.1950 O   0  0  0  0  0  0  0  0  0  0  0  0
  -35.2410  -17.5490   20.3180 C   0  0  0  0  0  1  0  0  0  0  0  0
  -34.0580  -16.9040   19.7290 N   0  0  0  0  0  0  0  0  0  0  0  0
  -28.9330  -15.4920   19.6530 C   0  0  0  0  0  0  0  0  0  0  0  0
  -27.7560  -14.9260   20.0640 C   0  0  0  0  0  0  0  0  0  0  0  0
  -27.9370  -13.5140   19.9530 C   0  0  0  0  0  0  0  0  0  0  0  0
  -29.7700  -14.4360   19.3260 N   0  0  0  0  0  0  0  0  0  0  0  0
  -29.1740  -13.2380   19.5600 N   0  0  0  0  0  0  0  0  0  0  0  0
  -26.9860  -12.4100   20.1430 C   0  0  0  0  0  0  0  0  0  0  0  0
  -27.0920  -11.5250   21.2390 C   0  0  0  0  0  3  0  0  0  0  0  0
  -26.1570  -10.4830   21.4110 C   0  0  0  0  0  3  0  0  0  0  0  0
  -25.1000  -10.3170   20.4860 C   0  0  0  0  0  0  0  0  0  0  0  0
  -25.0120  -11.1860   19.3830 C   0  0  0  0  0  3  0  0  0  0  0  0
  -25.9470  -12.2210   19.2100 C   0  0  0  0  0  3  0  0  0  0  0  0
  -24.1610   -9.3180   20.5580 O   0  0  0  0  0  0  0  0  0  0  0  0
  -23.5770   -8.9630   21.7480 C   0  0  0  0  0  0  0  0  0  0  0  0
  -22.8600   -9.8930   22.5320 C   0  0  0  0  0  3  0  0  0  0  0  0
  -22.2180   -9.4700   23.7120 C   0  0  0  0  0  3  0  0  0  0  0  0
  -22.2820   -8.1190   24.1050 C   0  0  0  0  0  0  0  0  0  0  0  0
  -22.9910   -7.1910   23.3240 C   0  0  0  0  0  3  0  0  0  0  0  0
  -23.6340   -7.6120   22.1460 C   0  0  0  0  0  0  0  0  0  0  0  0
  -24.2980   -6.7100   21.3840 F   0  0  0  0  0  0  0  0  0  0  0  0
  -21.6580   -7.7120   25.2360 F   0  0  0  0  0  0  0  0  0  0  0  0
  -26.4980  -15.6530   20.4440 C   0  0  0  0  0  0  0  0  0  0  0  0
  -25.7280  -15.1010   21.3770 N   0  0  0  0  0  0  0  0  0  0  0  0
  -26.2130  -16.7430   19.9480 O   0  0  0  0  0  0  0  0  0  0  0  0
  -25.9710  -14.2180   21.8000 H   0  0  0  0  0  0  0  0  0  0  0  0
  -24.8850  -15.5710   21.6730 H   0  0  0  0  0  0  0  0  0  0  0  0
  -29.3560  -16.8110   19.5110 N   0  0  0  0  0  0  0  0  0  0  0  0
  -28.7310  -17.5940   19.6690 H   0  0  0  0  0  0  0  0  0  0  0  0
  -30.2440  -17.0850   19.1100 H   0  0  0  0  0  0  0  0  0  0  0  0
  1  2  1  0
  1  5  1  0
  2  3  2  0
  3  4  1  0
  5  4  1  0
  6  5  1  0
  7  6  1  0
  8  7  1  0
  9  8  1  0
 10 11  1  0
 10  9  1  0
 11 13  1  0
 12 23  2  0
 13 18  1  0
 14 22  1  0
 14 24  1  0
 15 17  1  0
 15 21  1  0
 16 22  1  0
 17 16  1  0
 18 17  2  0
 19 20  1  0
 19 13  2  0
 20 15  2  0
 21 14  1  0
 22 12  1  0
 24 26  2  0
 25 24  1  0
 27 25  1  0
 28 37  2  0
 28 33  1  0
 29 25  1  0
 29 33  1  0
 30 29  1  0
 31 32  1  0
 31 30  1  0
 32 28  1  0
 33 34  2  0
 34 35  1  0
 36 35  2  0
 37 36  1  0
 38 12  1  0
 38 43  1  0
 38 39  1  0
 39 42  1  1
 39 40  1  0
 41 39  1  0
 43 46  1  0
 44 43  1  0
 44 48  1  0
 45 44  2  0
 48 47  1  0
 48 50  1  0
 50 51  1  0
 50 49  1  0
 52  2  1  0
 53 54  1  0
 53 52  1  0
 55 65  1  0
 55 54  1  0
 56 62  1  0
 56 65  1  0
 57 62  1  0
 58 59  1  0
 58 57  1  0
 60 59  1  0
 60 69  1  0
 60 61  1  0
 62 61  1  0
 63 56  2  0
 65 64  1  0
 66 67  2  0
 67 86  1  0
 68 67  1  0
 68 71  1  0
 69 70  1  0
 69 66  1  0
 70 68  2  0
 71 72  1  0
 72 73  2  0
 74 77  1  0
 74 73  1  0
 75 74  2  0
 76 75  1  0
 76 71  2  0
 77 78  1  0
 78 83  2  0
 78 79  1  0
 79 80  2  0
 80 81  1  0
 81 85  1  0
 82 81  2  0
 83 82  1  0
 84 83  1  0
 86 87  1  0
 87 90  1  0
 87 89  1  0
 88 86  2  0
 91 66  1  0
 91 92  1  0
 93 91  1  0
M  ISO  4  10 101  11 101  56 100  65 100
M  END
>  <TORSDO>  (88) 
F 25

>  <SCORE>  (88) 
-1.520

>  <name>  (88) 
94

>  <ligand_id>  (88) 
94

>  <original_smiles>  (88) 
[H]c1c([H])c([H])c2c(c1[H])C([H])([H])C([H])([H])C([H])([H])C2([H])N([H])C(=O)C1([H])N(C(=O)C([H])(N([H])C(=O)C([H])(N([H])C([H])([H])[H])C([H])([H])[H])C(C([H])([H])[H])(C([H])([H])[H])C([H])([H])[H])C([H])([H])c2c([H])c(OC([H])([H])C([H])([H])C([H])([H])C([H])([H])C([H])([H])n3nnc(OC([H])([H])C([H])([H])C([H])([H])N(C(=O)N4C([H])([H])C([H])([H])C([H])([H])C([H])(n5nc(-c6c([H])c([H])c(Oc7c([H])c([H])c(F)c([H])c7F)c([H])c6[H])c(C(=O)N([H])[H])c5N([H])[H])C4([H])[H])C([H])([H])[H])c3[H])c([H])c([H])c2C1([H])[H]

>  <smiles>  (88) 
[H]c1c([H])c([H])c2c(c1[H])C([H])([H])C([H])([H])C([H])([H])C2([H])N([H])C(=O)C1([H])N(C(=O)C([H])(N([H])C(=O)C([H])(N([H])C([H])([H])[H])C([H])([H])[H])C(C([H])([H])[H])(C([H])([H])[H])C([H])([H])[H])C([H])([H])c2c([H])c(OC([H])([H])C([H])([H])C([H])([H])C([H])([H])C([H])([H])n3nnc(OC([H])([H])C([H])([H])C([H])([H])N(C(=O)N4C([H])([H])C([H])([H])C([H])([H])C([H])(n5nc(-c6c([H])c([H])c(Oc7c([H])c([H])c(F)c([H])c7F)c([H])c6[H])c(C(=O)N([H])[H])c5N([H])[H])C4([H])[H])C([H])([H])[H])c3[H])c([H])c([H])c2C1([H])[H]

$$$$
