0:0:0
     RDKit          3D

 94102  0  0  1  0  0  0  0  0999 V2000
  -30.3560  -25.0130   21.3950 C   0  0  0  0  0  3  0  0  0  0  0  0
  -30.8440  -23.7090   21.3910 C   0  0  0  0  0  0  0  0  0  0  0  0
  -29.1780  -25.2660   20.6820 C   0  0  0  0  0  0  0  0  0  0  0  0
  -29.0840  -23.0440   20.0860 C   0  0  0  0  0  0  0  0  0  0  0  0
  -32.0040  -23.2830   22.2620 C   0  0  0  0  0  1  0  0  0  0  0  0
  -30.2240  -22.7460   20.6960 N   0  0  0  0  0  0  0  0  0  0  0  0
  -28.5270  -24.2580   20.0390 N   0  0  0  0  0  0  0  0  0  0  0  0
  -28.5350  -26.6500   20.7740 C   0  0  0  0  0  2  0  0  0  0  0  0
  -27.9020  -27.1010   19.5810 O   0  0  0  0  0  0  0  0  0  0  0  0
  -24.5560  -32.1400   23.4190 C   0  0  0  0  0  0  0  0  0  0  0  0
  -26.8020  -27.9020   19.7850 C   0  0  0  0  0  0  0  0  0  0  0  0
  -23.1650  -30.8710   21.8150 C   0  0  0  0  0  3  0  0  0  0  0  0
  -24.4450  -29.4190   20.1490 C   0  0  0  0  0  0  0  0  0  0  0  0
  -25.6670  -31.2080   21.3970 C   0  0  0  0  0  2  0  0  0  0  0  0
  -25.6630  -29.8850   20.6610 C   0  0  0  0  0  0  0  0  0  0  0  0
  -26.8450  -29.1300   20.4870 C   0  0  0  0  0  3  0  0  0  0  0  0
  -25.5720  -27.4560   19.2610 C   0  0  0  0  0  3  0  0  0  0  0  0
  -24.3920  -28.2010   19.4520 C   0  0  0  0  0  3  0  0  0  0  0  0
  -23.2260  -30.2880   20.3770 C   0  0  0  0  0  2  0  0  0  0  0  0
  -24.4850  -31.4180   22.2670 N   0  0  0  0  0  0  0  0  0  0  0  0
  -23.5390  -32.3890   24.0830 O   0  0  0  0  0  0  0  0  0  0  0  0
  -22.5930  -29.7920   22.7620 C   0  0  0  0  0  0  0  0  0  0  0  0
  -21.2820  -29.5260   22.6430 N   0  0  0  0  0  0  0  0  0  0  0  0
  -23.3250  -29.2000   23.5600 O   0  0  0  0  0  0  0  0  0  0  0  0
  -20.7500  -30.0560   21.9670 H   0  0  0  0  0  0  0  0  0  0  0  0
  -18.0350  -28.0000   23.0420 C   0  0  0  0  0  0  0  0  0  0  0  0
  -20.5380  -28.5270   23.4070 C   0  0  0  0  0  3  0  0  0  0  0  0
  -20.8130  -27.1030   22.8730 C   0  0  0  0  0  2  0  0  0  0  0  0
  -19.7930  -26.6450   21.8260 C   0  0  0  0  0  2  0  0  0  0  0  0
  -18.3770  -26.6610   22.4100 C   0  0  0  0  0  2  0  0  0  0  0  0
  -19.0490  -28.8830   23.4950 C   0  0  0  0  0  0  0  0  0  0  0  0
  -18.6780  -30.1290   24.0420 C   0  0  0  0  0  3  0  0  0  0  0  0
  -17.3230  -30.4980   24.1430 C   0  0  0  0  0  3  0  0  0  0  0  0
  -16.3210  -29.6130   23.7070 C   0  0  0  0  0  3  0  0  0  0  0  0
  -16.6770  -28.3670   23.1610 C   0  0  0  0  0  3  0  0  0  0  0  0
  -25.9110  -32.7100   23.9450 C   0  0  0  0  0  3  0  0  0  0  0  0
  -25.7060  -34.1350   24.2400 N   0  0  0  0  0  0  0  0  0  0  0  0
  -26.0300  -35.1360   23.4110 C   0  0  0  0  0  0  0  0  0  0  0  0
  -26.6040  -34.9560   22.3340 O   0  0  0  0  0  0  0  0  0  0  0  0
  -25.1980  -34.3530   25.0840 H   0  0  0  0  0  0  0  0  0  0  0  0
  -24.3650  -36.9980   23.1320 C   0  0  0  0  0  1  0  0  0  0  0  0
  -25.6540  -36.5660   23.8460 C   0  0  0  0  0  3  0  0  0  0  0  0
  -27.8900  -37.3800   24.4530 C   0  0  0  0  0  1  0  0  0  0  0  0
  -26.7230  -37.5570   23.5930 N   0  0  0  0  0  0  0  0  0  0  0  0
  -26.3740  -38.5030   23.7220 H   0  0  0  0  0  0  0  0  0  0  0  0
  -26.4560  -31.9500   25.2150 C   0  0  1  0  0  0  0  0  0  0  0  0
  -25.4100  -31.7990   26.3430 C   0  0  0  0  0  1  0  0  0  0  0  0
  -26.9500  -30.5330   24.8380 C   0  0  0  0  0  1  0  0  0  0  0  0
  -27.6810  -32.6990   25.7890 C   0  0  0  0  0  1  0  0  0  0  0  0
  -28.3360  -21.8300   19.5270 C   0  0  0  0  0  2  0  0  0  0  0  0
  -27.9970  -20.7910   20.6420 C   0  0  0  0  0  2  0  0  0  0  0  0
  -30.3520  -19.9740   20.5210 C   0  0  0  0  0  1  0  0  0  0  0  0
  -28.9290  -19.6280   20.7790 N   0  0  2  0  0  4  0  0  0  0  0  0
  -28.8950  -19.4280   21.7660 H   0  0  0  0  0  0  0  0  0  0  0  0
  -28.4850  -18.3650   20.1180 C   0  0  0  0  0  2  0  0  0  0  0  0
  -29.4530  -17.1510   20.3650 C   0  0  0  0  0  2  0  0  0  0  0  0
  -29.9340  -14.8060   19.8570 C   0  0  0  0  0  0  0  0  0  0  0  0
  -29.9210  -12.4590   19.1190 C   0  0  0  0  0  2  0  0  0  0  0  0
  -28.9340  -12.2850   17.9450 C   0  0  0  0  0  2  0  0  0  0  0  0
  -27.5100  -12.0250   18.4790 C   0  0  0  0  0  2  0  0  0  0  0  0
  -27.0680  -13.0270   19.5780 C   0  0  0  0  0  3  0  0  0  0  0  0
  -28.1650  -13.1980   20.6520 C   0  0  0  0  0  2  0  0  0  0  0  0
  -29.4150  -13.5510   19.9630 N   0  0  0  0  0  0  0  0  0  0  0  0
  -31.1160  -15.0050   19.5560 O   0  0  0  0  0  0  0  0  0  0  0  0
  -28.3280  -16.0070   18.5360 C   0  0  0  0  0  1  0  0  0  0  0  0
  -29.0420  -15.8360   19.8130 N   0  0  0  0  0  0  0  0  0  0  0  0
  -24.6910  -13.4790   20.4440 C   0  0  0  0  0  0  0  0  0  0  0  0
  -23.7030  -12.6390   20.8770 C   0  0  0  0  0  0  0  0  0  0  0  0
  -24.2630  -11.3250   20.8380 C   0  0  0  0  0  0  0  0  0  0  0  0
  -25.7780  -12.6670   20.1530 N   0  0  0  0  0  0  0  0  0  0  0  0
  -25.5310  -11.3700   20.4550 N   0  0  0  0  0  0  0  0  0  0  0  0
  -23.6490  -10.0170   21.0790 C   0  0  0  0  0  0  0  0  0  0  0  0
  -24.1210   -9.1560   22.0920 C   0  0  0  0  0  3  0  0  0  0  0  0
  -23.5040   -7.9070   22.3140 C   0  0  0  0  0  3  0  0  0  0  0  0
  -22.4010   -7.5090   21.5190 C   0  0  0  0  0  0  0  0  0  0  0  0
  -21.9500   -8.3620   20.4980 C   0  0  0  0  0  3  0  0  0  0  0  0
  -22.5690   -9.6030   20.2760 C   0  0  0  0  0  3  0  0  0  0  0  0
  -21.7540   -6.3060   21.6490 O   0  0  0  0  0  0  0  0  0  0  0  0
  -21.6390   -5.6790   22.8650 C   0  0  0  0  0  0  0  0  0  0  0  0
  -20.9650   -6.2800   23.9510 C   0  0  0  0  0  3  0  0  0  0  0  0
  -20.8010   -5.5710   25.1570 C   0  0  0  0  0  3  0  0  0  0  0  0
  -21.3050   -4.2630   25.2800 C   0  0  0  0  0  0  0  0  0  0  0  0
  -21.9770   -3.6630   24.2010 C   0  0  0  0  0  3  0  0  0  0  0  0
  -22.1400   -4.3680   22.9960 C   0  0  0  0  0  0  0  0  0  0  0  0
  -22.7650   -3.7780   21.9510 F   0  0  0  0  0  0  0  0  0  0  0  0
  -21.1460   -3.5810   26.4390 F   0  0  0  0  0  0  0  0  0  0  0  0
  -22.2910  -13.0170   21.2220 C   0  0  0  0  0  0  0  0  0  0  0  0
  -21.6600  -12.2810   22.1300 N   0  0  0  0  0  0  0  0  0  0  0  0
  -21.7530  -14.0040   20.7220 O   0  0  0  0  0  0  0  0  0  0  0  0
  -22.1070  -11.4890   22.5660 H   0  0  0  0  0  0  0  0  0  0  0  0
  -20.7180  -12.5210   22.4050 H   0  0  0  0  0  0  0  0  0  0  0  0
  -24.7450  -14.8560   20.2510 N   0  0  0  0  0  0  0  0  0  0  0  0
  -23.9340  -15.4470   20.4010 H   0  0  0  0  0  0  0  0  0  0  0  0
  -25.5340  -15.3500   19.8560 H   0  0  0  0  0  0  0  0  0  0  0  0
  2  1  2  0
  2  5  1  0
  3  8  1  0
  3  1  1  0
  4  6  2  0
  6  2  1  0
  7  4  1  0
  7  3  2  0
  9 11  1  0
  9  8  1  0
 10 21  2  0
 11 16  1  0
 12 20  1  0
 12 22  1  0
 13 19  1  0
 13 15  1  0
 14 20  1  0
 15 14  1  0
 16 15  2  0
 17 18  1  0
 17 11  2  0
 18 13  2  0
 19 12  1  0
 20 10  1  0
 22 24  2  0
 23 22  1  0
 25 23  1  0
 26 35  2  0
 26 31  1  0
 27 23  1  0
 27 31  1  0
 28 27  1  0
 29 30  1  0
 29 28  1  0
 30 26  1  0
 31 32  2  0
 32 33  1  0
 34 33  2  0
 35 34  1  0
 36 10  1  0
 36 37  1  0
 36 46  1  0
 37 40  1  0
 38 42  1  0
 38 37  1  0
 39 38  2  0
 42 41  1  0
 44 45  1  0
 44 42  1  0
 44 43  1  0
 46 49  1  1
 46 47  1  0
 48 46  1  0
 50  4  1  0
 50 51  1  0
 51 53  1  0
 52 53  1  0
 53 54  1  1
 55 56  1  0
 55 53  1  0
 57 63  1  0
 58 63  1  0
 59 60  1  0
 59 58  1  0
 61 60  1  0
 61 70  1  0
 61 62  1  0
 63 62  1  0
 64 57  2  0
 65 66  1  0
 66 57  1  0
 66 56  1  0
 67 68  2  0
 68 87  1  0
 69 68  1  0
 69 72  1  0
 70 67  1  0
 70 71  1  0
 71 69  2  0
 72 73  1  0
 73 74  2  0
 75 78  1  0
 75 74  1  0
 76 75  2  0
 77 76  1  0
 77 72  2  0
 78 79  1  0
 79 84  2  0
 79 80  1  0
 80 81  2  0
 81 82  1  0
 82 86  1  0
 83 82  2  0
 84 83  1  0
 85 84  1  0
 87 88  1  0
 88 91  1  0
 88 90  1  0
 89 87  2  0
 92 93  1  0
 92 67  1  0
 94 92  1  0
M  ISO  4   8 101   9 101  57 100  66 100
M  END
>  <TORSDO>  (1) 
F 22

>  <SCORE>  (1) 
-9.294

>  <name>  (1) 
0

>  <ligand_id>  (1) 
0

>  <original_smiles>  (1) 
[H]c1c(C([H])([H])[H])nc(C([H])([H])C([H])([H])[N+]([H])(C([H])([H])[H])C([H])([H])C([H])([H])N(C(=O)N2C([H])([H])C([H])([H])C([H])([H])C([H])(n3nc(-c4c([H])c([H])c(Oc5c([H])c([H])c(F)c([H])c5F)c([H])c4[H])c(C(=O)N([H])[H])c3N([H])[H])C2([H])[H])C([H])([H])[H])nc1C([H])([H])Oc1c([H])c([H])c2c(c1[H])C([H])([H])N(C(=O)C([H])(N([H])C(=O)C([H])(N([H])C([H])([H])[H])C([H])([H])[H])C(C([H])([H])[H])(C([H])([H])[H])C([H])([H])[H])C([H])(C(=O)N([H])C1([H])c3c([H])c([H])c([H])c([H])c3C([H])([H])C([H])([H])C1([H])[H])C2([H])[H]

>  <smiles>  (1) 
[H]c1c(C([H])([H])[H])nc(C([H])([H])C([H])([H])[N+]([H])(C([H])([H])[H])C([H])([H])C([H])([H])N(C(=O)N2C([H])([H])C([H])([H])C([H])([H])C([H])(n3nc(-c4c([H])c([H])c(Oc5c([H])c([H])c(F)c([H])c5F)c([H])c4[H])c(C(=O)N([H])[H])c3N([H])[H])C2([H])[H])C([H])([H])[H])nc1C([H])([H])Oc1c([H])c([H])c2c(c1[H])C([H])([H])N(C(=O)C([H])(N([H])C(=O)C([H])(N([H])C([H])([H])[H])C([H])([H])[H])C(C([H])([H])[H])(C([H])([H])[H])C([H])([H])[H])C([H])(C(=O)N([H])C1([H])c3c([H])c([H])c([H])c([H])c3C([H])([H])C([H])([H])C1([H])[H])C2([H])[H]

$$$$
1:0:0
     RDKit          3D

 90 98  0  0  1  0  0  0  0  0999 V2000
  -29.2360  -22.1090   22.2170 C   0  0  0  0  0  1  0  0  0  0  0  0
  -30.8540  -22.5130   20.3670 C   0  0  0  0  0  1  0  0  0  0  0  0
  -29.4130  -22.0130   20.6770 C   0  0  1  0  0  0  0  0  0  0  0  0
  -30.0430  -19.2550   20.9360 C   0  0  0  0  0  3  0  0  0  0  0  0
  -29.3670  -20.3520   20.3420 C   0  0  0  0  0  0  0  0  0  0  0  0
  -28.7180  -19.6610   19.2910 N   0  0  0  0  0  0  0  0  0  0  0  0
  -28.9020  -18.3250   19.3250 N   0  0  0  0  0  0  0  0  0  0  0  0
  -29.7820  -17.9660   20.3150 N   0  0  0  0  0  0  0  0  0  0  0  0
  -28.8680  -16.1730   21.7760 C   0  0  0  0  0  1  0  0  0  0  0  0
  -31.2610  -16.6360   21.7890 C   0  0  0  0  0  1  0  0  0  0  0  0
  -30.0510  -16.4620   20.8430 C   0  0  2  0  0  0  0  0  0  0  0  0
  -30.5340  -15.0450   20.0240 C   0  0  0  0  0  0  0  0  0  0  0  0
  -30.3490  -12.7090   18.9840 C   0  0  0  0  0  2  0  0  0  0  0  0
  -29.3550  -12.7290   17.7960 C   0  0  0  0  0  2  0  0  0  0  0  0
  -27.9050  -12.5360   18.2910 C   0  0  0  0  0  2  0  0  0  0  0  0
  -27.5880  -13.3820   19.5590 C   0  0  0  0  0  3  0  0  0  0  0  0
  -28.7080  -13.2470   20.6020 C   0  0  0  0  0  2  0  0  0  0  0  0
  -29.9400  -13.7640   19.9730 N   0  0  0  0  0  0  0  0  0  0  0  0
  -31.6350  -15.1010   19.4460 O   0  0  0  0  0  0  0  0  0  0  0  0
  -25.2610  -13.9420   20.4630 C   0  0  0  0  0  0  0  0  0  0  0  0
  -24.2270  -13.1590   20.8860 C   0  0  0  0  0  0  0  0  0  0  0  0
  -24.6890  -11.8070   20.7890 C   0  0  0  0  0  0  0  0  0  0  0  0
  -26.2840  -13.0720   20.1280 N   0  0  0  0  0  0  0  0  0  0  0  0
  -25.9560  -11.7800   20.3860 N   0  0  0  0  0  0  0  0  0  0  0  0
  -23.9740  -10.5430   20.9940 C   0  0  0  0  0  0  0  0  0  0  0  0
  -24.4440   -9.5620   21.8960 C   0  0  0  0  0  3  0  0  0  0  0  0
  -23.7250   -8.3640   22.0920 C   0  0  0  0  0  3  0  0  0  0  0  0
  -22.5220   -8.1360   21.3850 C   0  0  0  0  0  0  0  0  0  0  0  0
  -22.0690   -9.1040   20.4720 C   0  0  0  0  0  3  0  0  0  0  0  0
  -22.7870  -10.2950   20.2740 C   0  0  0  0  0  3  0  0  0  0  0  0
  -21.7680   -6.9920   21.4960 O   0  0  0  0  0  0  0  0  0  0  0  0
  -21.7460   -6.2500   22.6500 C   0  0  0  0  0  0  0  0  0  0  0  0
  -21.3620   -6.8070   23.8890 C   0  0  0  0  0  3  0  0  0  0  0  0
  -21.2930   -5.9910   25.0360 C   0  0  0  0  0  3  0  0  0  0  0  0
  -21.5910   -4.6190   24.9490 C   0  0  0  0  0  0  0  0  0  0  0  0
  -21.9610   -4.0610   23.7140 C   0  0  0  0  0  3  0  0  0  0  0  0
  -22.0370   -4.8730   22.5690 C   0  0  0  0  0  0  0  0  0  0  0  0
  -22.3790   -4.3230   21.3770 F   0  0  0  0  0  0  0  0  0  0  0  0
  -21.5090   -3.8340   26.0480 F   0  0  0  0  0  0  0  0  0  0  0  0
  -22.8500  -13.6250   21.2650 C   0  0  0  0  0  0  0  0  0  0  0  0
  -22.1820  -12.9120   22.1660 N   0  0  0  0  0  0  0  0  0  0  0  0
  -22.3760  -14.6590   20.7930 O   0  0  0  0  0  0  0  0  0  0  0  0
  -22.5810  -12.0790   22.5760 H   0  0  0  0  0  0  0  0  0  0  0  0
  -21.2530  -13.1970   22.4450 H   0  0  0  0  0  0  0  0  0  0  0  0
  -25.4130  -15.3200   20.3110 N   0  0  0  0  0  0  0  0  0  0  0  0
  -24.6660  -15.9740   20.5290 H   0  0  0  0  0  0  0  0  0  0  0  0
  -26.2600  -15.7730   20.0000 H   0  0  0  0  0  0  0  0  0  0  0  0
  -28.3210  -23.2110   20.1260 C   0  0  0  0  0  2  0  0  0  0  0  0
  -28.5450  -24.8580   19.6650 C   0  0  0  0  0  2  0  0  0  0  0  0
  -28.3440  -26.2620   20.3160 O   0  0  0  0  0  0  0  0  0  0  0  0
  -24.6160  -31.8940   23.2180 C   0  0  0  0  0  0  0  0  0  0  0  0
  -27.2540  -27.2010   20.1740 C   0  0  0  0  0  0  0  0  0  0  0  0
  -23.4240  -30.4690   21.5940 C   0  0  0  0  0  3  0  0  0  0  0  0
  -24.8840  -28.9020   20.1570 C   0  0  0  0  0  0  0  0  0  0  0  0
  -25.9720  -30.7630   21.4130 C   0  0  0  0  0  2  0  0  0  0  0  0
  -26.0570  -29.3720   20.7560 C   0  0  0  0  0  0  0  0  0  0  0  0
  -27.2320  -28.5330   20.7520 C   0  0  0  0  0  3  0  0  0  0  0  0
  -26.0550  -26.8340   19.5210 C   0  0  0  0  0  3  0  0  0  0  0  0
  -24.8960  -27.6440   19.5250 C   0  0  0  0  0  3  0  0  0  0  0  0
  -23.6390  -29.7780   20.2200 C   0  0  0  0  0  2  0  0  0  0  0  0
  -24.6900  -31.0670   22.1260 N   0  0  0  0  0  0  0  0  0  0  0  0
  -23.5280  -32.1760   23.7430 O   0  0  0  0  0  0  0  0  0  0  0  0
  -22.7660  -29.4660   22.5720 C   0  0  0  0  0  0  0  0  0  0  0  0
  -21.4430  -29.2680   22.4390 N   0  0  0  0  0  0  0  0  0  0  0  0
  -23.4480  -28.8640   23.4040 O   0  0  0  0  0  0  0  0  0  0  0  0
  -20.9580  -29.8000   21.7310 H   0  0  0  0  0  0  0  0  0  0  0  0
  -18.0830  -28.0110   22.9530 C   0  0  0  0  0  0  0  0  0  0  0  0
  -20.6350  -28.3260   23.2160 C   0  0  0  0  0  3  0  0  0  0  0  0
  -20.7640  -26.8910   22.6530 C   0  0  0  0  0  2  0  0  0  0  0  0
  -19.6680  -26.5360   21.6420 C   0  0  0  0  0  2  0  0  0  0  0  0
  -18.2850  -26.6610   22.2860 C   0  0  0  0  0  2  0  0  0  0  0  0
  -19.1870  -28.7990   23.3730 C   0  0  0  0  0  0  0  0  0  0  0  0
  -18.9440  -30.0600   23.9570 C   0  0  0  0  0  3  0  0  0  0  0  0
  -17.6290  -30.5340   24.1270 C   0  0  0  0  0  3  0  0  0  0  0  0
  -16.5400  -29.7440   23.7220 C   0  0  0  0  0  3  0  0  0  0  0  0
  -16.7680  -28.4840   23.1430 C   0  0  0  0  0  3  0  0  0  0  0  0
  -25.8890  -32.5470   23.8390 C   0  0  0  0  0  3  0  0  0  0  0  0
  -26.4180  -31.7940   25.1250 C   0  0  1  0  0  0  0  0  0  0  0  0
  -25.3300  -31.5490   26.1980 C   0  0  0  0  0  1  0  0  0  0  0  0
  -27.0210  -30.4210   24.7490 C   0  0  0  0  0  1  0  0  0  0  0  0
  -27.5580  -32.6120   25.7790 C   0  0  0  0  0  1  0  0  0  0  0  0
  -25.5610  -33.9430   24.1700 N   0  0  0  0  0  0  0  0  0  0  0  0
  -25.8720  -35.0050   23.4130 C   0  0  0  0  0  0  0  0  0  0  0  0
  -26.5340  -34.9080   22.3770 O   0  0  0  0  0  0  0  0  0  0  0  0
  -24.9760  -34.0910   24.9770 H   0  0  0  0  0  0  0  0  0  0  0  0
  -24.1150  -36.7770   23.0810 C   0  0  0  0  0  1  0  0  0  0  0  0
  -25.3700  -36.3850   23.8780 C   0  0  0  0  0  3  0  0  0  0  0  0
  -27.5010  -37.2960   24.6890 C   0  0  0  0  0  1  0  0  0  0  0  0
  -26.3880  -37.4520   23.7570 N   0  0  0  0  0  0  0  0  0  0  0  0
  -25.9720  -38.3680   23.9080 H   0  0  0  0  0  0  0  0  0  0  0  0
  3  2  1  1
  3  1  1  0
  5  3  1  0
  5  4  2  0
  6  7  2  0
  6  5  1  0
  7  8  1  0
  8 11  1  0
  8  4  1  0
 11  9  1  1
 11 10  1  0
 12 11  1  0
 13 18  1  0
 14 15  1  0
 14 13  1  0
 16 15  1  0
 16 23  1  0
 16 17  1  0
 18 12  1  0
 18 17  1  0
 19 12  2  0
 20 21  2  0
 21 40  1  0
 22 21  1  0
 22 25  1  0
 23 24  1  0
 23 20  1  0
 24 22  2  0
 25 26  1  0
 26 27  2  0
 28 31  1  0
 28 27  1  0
 29 28  2  0
 30 29  1  0
 30 25  2  0
 31 32  1  0
 32 33  1  0
 33 34  2  0
 35 34  1  0
 35 39  1  0
 36 35  2  0
 37 32  2  0
 37 36  1  0
 38 37  1  0
 40 41  1  0
 41 44  1  0
 41 43  1  0
 42 40  2  0
 45 20  1  0
 45 46  1  0
 47 45  1  0
 48  3  1  0
 49 48  1  0
 49 50  1  0
 51 62  2  0
 52 50  1  0
 52 57  1  0
 53 61  1  0
 53 63  1  0
 54 60  1  0
 54 56  1  0
 55 61  1  0
 56 55  1  0
 57 56  2  0
 58 59  1  0
 58 52  2  0
 59 54  2  0
 60 53  1  0
 61 51  1  0
 63 65  2  0
 64 63  1  0
 66 64  1  0
 67 76  2  0
 67 72  1  0
 68 64  1  0
 68 72  1  0
 69 68  1  0
 70 71  1  0
 70 69  1  0
 71 67  1  0
 72 73  2  0
 73 74  1  0
 75 74  2  0
 76 75  1  0
 77 51  1  0
 77 82  1  0
 77 78  1  0
 78 81  1  1
 78 79  1  0
 80 78  1  0
 82 85  1  0
 83 87  1  0
 83 82  1  0
 84 83  2  0
 87 86  1  0
 89 87  1  0
 89 90  1  0
 89 88  1  0
M  ISO  4  11 100  12 100  49 101  50 101
M  END
>  <TORSDO>  (2) 
F 20

>  <SCORE>  (2) 
-14.759

>  <name>  (2) 
1

>  <ligand_id>  (2) 
1

>  <original_smiles>  (2) 
[H]c1c([H])c([H])c2c(c1[H])C([H])([H])C([H])([H])C([H])([H])C2([H])N([H])C(=O)C1([H])N(C(=O)C([H])(N([H])C(=O)C([H])(N([H])C([H])([H])[H])C([H])([H])[H])C(C([H])([H])[H])(C([H])([H])[H])C([H])([H])[H])C([H])([H])c2c([H])c(OC([H])([H])C([H])([H])C(c3nnn(C(C(=O)N4C([H])([H])C([H])([H])C([H])([H])C([H])(n5nc(-c6c([H])c([H])c(Oc7c([H])c([H])c(F)c([H])c7F)c([H])c6[H])c(C(=O)N([H])[H])c5N([H])[H])C4([H])[H])(C([H])([H])[H])C([H])([H])[H])c3[H])(C([H])([H])[H])C([H])([H])[H])c([H])c([H])c2C1([H])[H]

>  <smiles>  (2) 
[H]c1c([H])c([H])c2c(c1[H])C([H])([H])C([H])([H])C([H])([H])C2([H])N([H])C(=O)C1([H])N(C(=O)C([H])(N([H])C(=O)C([H])(N([H])C([H])([H])[H])C([H])([H])[H])C(C([H])([H])[H])(C([H])([H])[H])C([H])([H])[H])C([H])([H])c2c([H])c(OC([H])([H])C([H])([H])C(c3nnn(C(C(=O)N4C([H])([H])C([H])([H])C([H])([H])C([H])(n5nc(-c6c([H])c([H])c(Oc7c([H])c([H])c(F)c([H])c7F)c([H])c6[H])c(C(=O)N([H])[H])c5N([H])[H])C4([H])[H])(C([H])([H])[H])C([H])([H])[H])c3[H])(C([H])([H])[H])C([H])([H])[H])c([H])c([H])c2C1([H])[H]

$$$$
2:0:0
     RDKit          3D

 92100  0  0  1  0  0  0  0  0999 V2000
  -27.4140  -22.9130   19.5180 C   0  0  0  0  0  3  0  0  0  0  0  0
  -28.4390  -23.3360   20.3060 C   0  0  0  0  0  0  0  0  0  0  0  0
  -28.6320  -20.9440   19.7760 C   0  0  0  0  0  3  0  0  0  0  0  0
  -27.4870  -21.5450   19.2890 N   0  0  0  0  0  0  0  0  0  0  0  0
  -29.1890  -22.0760   20.4170 N   0  0  0  0  0  0  0  0  0  0  0  0
  -30.0470  -22.0110   20.9510 H   0  0  0  0  0  0  0  0  0  0  0  0
  -27.8480  -18.4580   20.1730 C   0  0  0  0  0  1  0  0  0  0  0  0
  -28.9190  -19.2150   17.9170 C   0  0  0  0  0  1  0  0  0  0  0  0
  -28.9680  -19.2750   19.4680 C   0  0  1  0  0  0  0  0  0  0  0  0
  -30.2560  -18.1560   19.8080 C   0  0  0  0  0  2  0  0  0  0  0  0
  -30.9100  -15.3650   20.0550 C   0  0  0  0  0  0  0  0  0  0  0  0
  -30.8440  -12.9130   19.3470 C   0  0  0  0  0  2  0  0  0  0  0  0
  -29.9100  -12.6620   18.1400 C   0  0  0  0  0  2  0  0  0  0  0  0
  -28.4550  -12.4630   18.6030 C   0  0  0  0  0  2  0  0  0  0  0  0
  -28.0180  -13.5000   19.6710 C   0  0  0  0  0  3  0  0  0  0  0  0
  -29.0760  -13.6920   20.7740 C   0  0  0  0  0  2  0  0  0  0  0  0
  -30.3140  -14.0930   20.0920 N   0  0  0  0  0  0  0  0  0  0  0  0
  -32.1470  -15.3720   20.0410 O   0  0  0  0  0  0  0  0  0  0  0  0
  -30.0770  -16.3290   18.1050 C   0  0  0  0  0  1  0  0  0  0  0  0
  -30.1800  -16.5310   19.5720 N   0  0  0  0  0  0  0  0  0  0  0  0
  -25.7010  -14.1290   20.5390 C   0  0  0  0  0  0  0  0  0  0  0  0
  -24.6100  -13.3810   20.8830 C   0  0  0  0  0  0  0  0  0  0  0  0
  -25.0090  -12.0150   20.7510 C   0  0  0  0  0  0  0  0  0  0  0  0
  -26.6920  -13.2220   20.2060 N   0  0  0  0  0  0  0  0  0  0  0  0
  -26.2890  -11.9410   20.4060 N   0  0  0  0  0  0  0  0  0  0  0  0
  -24.2310  -10.7760   20.8740 C   0  0  0  0  0  0  0  0  0  0  0  0
  -24.6320   -9.7330   21.7390 C   0  0  0  0  0  3  0  0  0  0  0  0
  -23.8520   -8.5620   21.8560 C   0  0  0  0  0  3  0  0  0  0  0  0
  -22.6590   -8.4260   21.1090 C   0  0  0  0  0  0  0  0  0  0  0  0
  -22.2780   -9.4570   20.2310 C   0  0  0  0  0  3  0  0  0  0  0  0
  -23.0560  -10.6190   20.1100 C   0  0  0  0  0  3  0  0  0  0  0  0
  -21.8530   -7.3140   21.1380 O   0  0  0  0  0  0  0  0  0  0  0  0
  -21.7680   -6.5150   22.2500 C   0  0  0  0  0  0  0  0  0  0  0  0
  -21.3490   -7.0230   23.4990 C   0  0  0  0  0  3  0  0  0  0  0  0
  -21.2090   -6.1550   24.6010 C   0  0  0  0  0  3  0  0  0  0  0  0
  -21.4760   -4.7810   24.4540 C   0  0  0  0  0  0  0  0  0  0  0  0
  -21.8870   -4.2730   23.2090 C   0  0  0  0  0  3  0  0  0  0  0  0
  -22.0290   -5.1370   22.1090 C   0  0  0  0  0  0  0  0  0  0  0  0
  -22.4050   -4.6390   20.9070 F   0  0  0  0  0  0  0  0  0  0  0  0
  -21.3340   -3.9460   25.5100 F   0  0  0  0  0  0  0  0  0  0  0  0
  -23.2430  -13.9020   21.2170 C   0  0  0  0  0  0  0  0  0  0  0  0
  -22.5090  -13.1950   22.0680 N   0  0  0  0  0  0  0  0  0  0  0  0
  -22.8410  -14.9720   20.7640 O   0  0  0  0  0  0  0  0  0  0  0  0
  -22.8500  -12.3280   22.4550 H   0  0  0  0  0  0  0  0  0  0  0  0
  -21.5920  -13.5240   22.3340 H   0  0  0  0  0  0  0  0  0  0  0  0
  -25.9300  -15.5010   20.4490 N   0  0  0  0  0  0  0  0  0  0  0  0
  -25.2100  -16.1880   20.6480 H   0  0  0  0  0  0  0  0  0  0  0  0
  -26.7980  -15.9230   20.1470 H   0  0  0  0  0  0  0  0  0  0  0  0
  -25.0020  -21.5800   18.9410 C   0  0  0  0  0  1  0  0  0  0  0  0
  -26.3420  -20.9280   18.5630 C   0  0  0  0  0  2  0  0  0  0  0  0
  -28.5040  -24.7980   21.1060 C   0  0  0  0  0  2  0  0  0  0  0  0
  -28.4020  -26.3040   20.6300 O   0  0  0  0  0  0  0  0  0  0  0  0
  -24.6000  -32.0500   23.5410 C   0  0  0  0  0  0  0  0  0  0  0  0
  -27.3040  -27.2490   20.7080 C   0  0  0  0  0  0  0  0  0  0  0  0
  -23.4670  -30.6150   21.8890 C   0  0  0  0  0  3  0  0  0  0  0  0
  -24.9710  -29.0040   20.5610 C   0  0  0  0  0  0  0  0  0  0  0  0
  -26.0250  -30.8800   21.8080 C   0  0  0  0  0  2  0  0  0  0  0  0
  -26.1300  -29.4660   21.1980 C   0  0  0  0  0  0  0  0  0  0  0  0
  -27.3000  -28.6090   21.2460 C   0  0  0  0  0  3  0  0  0  0  0  0
  -26.1160  -26.8920   20.0410 C   0  0  0  0  0  3  0  0  0  0  0  0
  -24.9780  -27.7300   19.9700 C   0  0  0  0  0  3  0  0  0  0  0  0
  -23.7430  -29.9060   20.5360 C   0  0  0  0  0  2  0  0  0  0  0  0
  -24.7170  -31.2080   22.4680 N   0  0  0  0  0  0  0  0  0  0  0  0
  -23.4950  -32.3370   24.0260 O   0  0  0  0  0  0  0  0  0  0  0  0
  -22.7570  -29.6260   22.8470 C   0  0  0  0  0  0  0  0  0  0  0  0
  -21.4500  -29.3880   22.6330 N   0  0  0  0  0  0  0  0  0  0  0  0
  -23.3910  -29.0680   23.7480 O   0  0  0  0  0  0  0  0  0  0  0  0
  -20.9920  -29.8880   21.8840 H   0  0  0  0  0  0  0  0  0  0  0  0
  -18.1020  -28.0390   22.9380 C   0  0  0  0  0  0  0  0  0  0  0  0
  -20.6160  -28.4460   23.3850 C   0  0  0  0  0  3  0  0  0  0  0  0
  -20.8300  -26.9940   22.8960 C   0  0  0  0  0  2  0  0  0  0  0  0
  -19.8290  -26.5640   21.8210 C   0  0  0  0  0  2  0  0  0  0  0  0
  -18.3950  -26.6700   22.3480 C   0  0  0  0  0  2  0  0  0  0  0  0
  -19.1450  -28.8780   23.4120 C   0  0  0  0  0  0  0  0  0  0  0  0
  -18.8170  -30.1540   23.9240 C   0  0  0  0  0  3  0  0  0  0  0  0
  -17.4810  -30.5920   23.9630 C   0  0  0  0  0  3  0  0  0  0  0  0
  -16.4510  -29.7510   23.5030 C   0  0  0  0  0  3  0  0  0  0  0  0
  -16.7630  -28.4760   22.9960 C   0  0  0  0  0  3  0  0  0  0  0  0
  -25.8520  -32.7070   24.1980 C   0  0  0  0  0  3  0  0  0  0  0  0
  -26.3080  -31.9820   25.5250 C   0  0  1  0  0  0  0  0  0  0  0  0
  -25.1520  -31.7180   26.5170 C   0  0  0  0  0  1  0  0  0  0  0  0
  -26.9720  -30.6230   25.2100 C   0  0  0  0  0  1  0  0  0  0  0  0
  -27.3730  -32.8370   26.2510 C   0  0  0  0  0  1  0  0  0  0  0  0
  -25.5270  -34.1170   24.4750 N   0  0  0  0  0  0  0  0  0  0  0  0
  -25.8550  -35.1470   23.6840 C   0  0  0  0  0  0  0  0  0  0  0  0
  -26.5280  -35.0130   22.6590 O   0  0  0  0  0  0  0  0  0  0  0  0
  -24.9310  -34.2950   25.2700 H   0  0  0  0  0  0  0  0  0  0  0  0
  -24.0960  -36.9030   23.2910 C   0  0  0  0  0  1  0  0  0  0  0  0
  -25.3590  -36.5490   24.0920 C   0  0  0  0  0  3  0  0  0  0  0  0
  -27.4960  -37.4990   24.8430 C   0  0  0  0  0  1  0  0  0  0  0  0
  -26.3750  -37.6090   23.9130 N   0  0  0  0  0  0  0  0  0  0  0  0
  -25.9600  -38.5300   24.0280 H   0  0  0  0  0  0  0  0  0  0  0  0
  1  2  2  0
  2  5  1  0
  2 51  1  0
  3  9  1  0
  3  5  1  0
  4  1  1  0
  4  3  1  0
  5  6  1  0
  9  8  1  6
  9 10  1  0
  9  7  1  0
 11 17  1  0
 12 17  1  0
 13 14  1  0
 13 12  1  0
 15 14  1  0
 15 24  1  0
 15 16  1  0
 17 16  1  0
 18 11  2  0
 19 20  1  0
 20 10  1  0
 20 11  1  0
 21 22  2  0
 22 41  1  0
 23 26  1  0
 23 22  1  0
 24 25  1  0
 24 21  1  0
 25 23  2  0
 26 27  1  0
 27 28  2  0
 29 32  1  0
 29 28  1  0
 30 29  2  0
 31 30  1  0
 31 26  2  0
 32 33  1  0
 33 34  1  0
 34 35  2  0
 36 35  1  0
 36 40  1  0
 37 36  2  0
 38 33  2  0
 38 37  1  0
 39 38  1  0
 41 42  1  0
 42 45  1  0
 42 44  1  0
 43 41  2  0
 46 21  1  0
 46 47  1  0
 48 46  1  0
 50 49  1  0
 50  4  1  0
 52 54  1  0
 52 51  1  0
 53 64  2  0
 54 59  1  0
 55 63  1  0
 55 65  1  0
 56 58  1  0
 57 63  1  0
 58 59  2  0
 58 57  1  0
 60 54  2  0
 61 60  1  0
 61 56  2  0
 62 56  1  0
 62 55  1  0
 63 53  1  0
 65 67  2  0
 66 65  1  0
 68 66  1  0
 69 78  2  0
 69 74  1  0
 70 66  1  0
 70 74  1  0
 71 70  1  0
 72 73  1  0
 72 71  1  0
 73 69  1  0
 74 75  2  0
 75 76  1  0
 77 76  2  0
 78 77  1  0
 79 53  1  0
 79 84  1  0
 79 80  1  0
 80 83  1  1
 80 81  1  0
 82 80  1  0
 84 87  1  0
 85 89  1  0
 85 84  1  0
 86 85  2  0
 89 88  1  0
 91 92  1  0
 91 89  1  0
 91 90  1  0
M  ISO  4  11 100  20 100  51 101  52 101
M  END
>  <TORSDO>  (3) 
F 20

>  <SCORE>  (3) 
-13.116

>  <name>  (3) 
2

>  <ligand_id>  (3) 
2

>  <original_smiles>  (3) 
[H]c1c([H])c([H])c2c(c1[H])C([H])([H])C([H])([H])C([H])([H])C2([H])N([H])C(=O)C1([H])N(C(=O)C([H])(N([H])C(=O)C([H])(N([H])C([H])([H])[H])C([H])([H])[H])C(C([H])([H])[H])(C([H])([H])[H])C([H])([H])[H])C([H])([H])c2c([H])c(OC([H])([H])c3c([H])n(C([H])([H])C([H])([H])[H])c(C(C([H])([H])[H])(C([H])([H])[H])C([H])([H])N(C(=O)N4C([H])([H])C([H])([H])C([H])([H])C([H])(n5nc(-c6c([H])c([H])c(Oc7c([H])c([H])c(F)c([H])c7F)c([H])c6[H])c(C(=O)N([H])[H])c5N([H])[H])C4([H])[H])C([H])([H])[H])[n+]3[H])c([H])c([H])c2C1([H])[H]

>  <smiles>  (3) 
[H]c1c([H])c([H])c2c(c1[H])C([H])([H])C([H])([H])C([H])([H])C2([H])N([H])C(=O)C1([H])N(C(=O)C([H])(N([H])C(=O)C([H])(N([H])C([H])([H])[H])C([H])([H])[H])C(C([H])([H])[H])(C([H])([H])[H])C([H])([H])[H])C([H])([H])c2c([H])c(OC([H])([H])c3c([H])n(C([H])([H])C([H])([H])[H])c(C(C([H])([H])[H])(C([H])([H])[H])C([H])([H])N(C(=O)N4C([H])([H])C([H])([H])C([H])([H])C([H])(n5nc(-c6c([H])c([H])c(Oc7c([H])c([H])c(F)c([H])c7F)c([H])c6[H])c(C(=O)N([H])[H])c5N([H])[H])C4([H])[H])C([H])([H])[H])[n+]3[H])c([H])c([H])c2C1([H])[H]

$$$$
3:0:0
     RDKit          3D

 97105  0  0  1  0  0  0  0  0999 V2000
  -29.4350  -21.6010   20.4970 C   0  0  0  0  0  0  0  0  0  0  0  0
  -30.3940  -21.1030   22.4390 C   0  0  0  0  0  0  0  0  0  0  0  0
  -30.4010  -19.5680   20.8000 C   0  0  0  0  0  0  0  0  0  0  0  0
  -29.7220  -21.9920   21.7240 N   0  0  0  0  0  4  0  0  0  0  0  0
  -29.7350  -20.3950   19.9690 N   0  0  0  0  0  0  0  0  0  0  0  0
  -30.6990  -19.8700   22.0600 N   0  0  0  0  0  2  0  0  0  0  0  0
  -29.5470  -21.6610   24.7500 C   0  0  0  0  0  1  0  0  0  0  0  0
  -31.5180  -22.9180   23.7860 C   0  0  0  0  0  1  0  0  0  0  0  0
  -31.7840  -20.5540   24.5230 C   0  0  0  0  0  1  0  0  0  0  0  0
  -30.7990  -21.5510   23.8580 C   0  0  2  0  0  0  0  0  0  0  0  0
  -31.9440  -17.5800   21.3130 C   0  0  0  0  0  1  0  0  0  0  0  0
  -31.5820  -18.2490   18.9720 C   0  0  0  0  0  1  0  0  0  0  0  0
  -30.8690  -18.1240   20.3330 C   0  0  2  0  0  0  0  0  0  0  0  0
  -29.7000  -17.0610   20.2170 C   0  0  0  0  0  2  0  0  0  0  0  0
  -30.6420  -14.6260   20.2600 C   0  0  0  0  0  0  0  0  0  0  0  0
  -30.4350  -12.3310   19.3410 C   0  0  0  0  0  2  0  0  0  0  0  0
  -29.4940  -12.3970   18.1150 C   0  0  0  0  0  2  0  0  0  0  0  0
  -28.0170  -12.2730   18.5420 C   0  0  0  0  0  2  0  0  0  0  0  0
  -27.6580  -13.2150   19.7240 C   0  0  0  0  0  3  0  0  0  0  0  0
  -28.7100  -13.1050   20.8530 C   0  0  0  0  0  2  0  0  0  0  0  0
  -30.0350  -13.3990   20.2760 N   0  0  0  0  0  0  0  0  0  0  0  0
  -31.7390  -14.8080   19.7290 O   0  0  0  0  0  0  0  0  0  0  0  0
  -29.8750  -15.6520   20.7120 N   0  0  0  0  0  0  0  0  0  0  0  0
  -29.0820  -15.3220   21.2400 H   0  0  0  0  0  0  0  0  0  0  0  0
  -25.2880  -13.8840   20.4650 C   0  0  0  0  0  0  0  0  0  0  0  0
  -24.2010  -13.1370   20.8380 C   0  0  0  0  0  0  0  0  0  0  0  0
  -24.6210  -11.7730   20.7860 C   0  0  0  0  0  0  0  0  0  0  0  0
  -26.3030  -12.9730   20.2110 N   0  0  0  0  0  0  0  0  0  0  0  0
  -25.9060  -11.6990   20.4580 N   0  0  0  0  0  0  0  0  0  0  0  0
  -23.8580  -10.5320   20.9690 C   0  0  0  0  0  0  0  0  0  0  0  0
  -24.2390   -9.5660   21.9260 C   0  0  0  0  0  3  0  0  0  0  0  0
  -23.4770   -8.3900   22.0980 C   0  0  0  0  0  3  0  0  0  0  0  0
  -22.3220   -8.1710   21.3120 C   0  0  0  0  0  0  0  0  0  0  0  0
  -21.9590   -9.1260   20.3460 C   0  0  0  0  0  3  0  0  0  0  0  0
  -22.7220  -10.2940   20.1720 C   0  0  0  0  0  3  0  0  0  0  0  0
  -21.5370   -7.0460   21.3900 O   0  0  0  0  0  0  0  0  0  0  0  0
  -21.3940   -6.3490   22.5630 C   0  0  0  0  0  0  0  0  0  0  0  0
  -20.8820   -6.9540   23.7300 C   0  0  0  0  0  3  0  0  0  0  0  0
  -20.6840   -6.1820   24.8940 C   0  0  0  0  0  3  0  0  0  0  0  0
  -20.9900   -4.8090   24.8900 C   0  0  0  0  0  0  0  0  0  0  0  0
  -21.4950   -4.2040   23.7260 C   0  0  0  0  0  3  0  0  0  0  0  0
  -21.6930   -4.9710   22.5650 C   0  0  0  0  0  0  0  0  0  0  0  0
  -22.1600   -4.3790   21.4390 F   0  0  0  0  0  0  0  0  0  0  0  0
  -20.7930   -4.0650   26.0050 F   0  0  0  0  0  0  0  0  0  0  0  0
  -22.8230  -13.6570   21.1340 C   0  0  0  0  0  0  0  0  0  0  0  0
  -22.0940  -12.9860   22.0200 N   0  0  0  0  0  0  0  0  0  0  0  0
  -22.4020  -14.6890   20.6140 O   0  0  0  0  0  0  0  0  0  0  0  0
  -22.4480  -12.1520   22.4640 H   0  0  0  0  0  0  0  0  0  0  0  0
  -21.1690  -13.3160   22.2590 H   0  0  0  0  0  0  0  0  0  0  0  0
  -25.4910  -15.2510   20.3060 N   0  0  0  0  0  0  0  0  0  0  0  0
  -24.7450  -15.9260   20.4330 H   0  0  0  0  0  0  0  0  0  0  0  0
  -26.3480  -15.6700   19.9670 H   0  0  0  0  0  0  0  0  0  0  0  0
  -28.5470  -22.6020   19.7120 C   0  0  0  0  0  2  0  0  0  0  0  0
  -30.4470  -24.4130   19.8480 C   0  0  0  0  0  1  0  0  0  0  0  0
  -28.9620  -24.1320   19.5650 C   0  0  0  0  0  3  0  0  0  0  0  0
  -28.0370  -25.1460   20.3310 C   0  0  0  0  0  2  0  0  0  0  0  0
  -28.1960  -26.5690   20.0000 O   0  0  0  0  0  0  0  0  0  0  0  0
  -24.4990  -31.8710   23.1660 C   0  0  0  0  0  0  0  0  0  0  0  0
  -27.0530  -27.3700   20.0180 C   0  0  0  0  0  0  0  0  0  0  0  0
  -23.2580  -30.4820   21.5430 C   0  0  0  0  0  3  0  0  0  0  0  0
  -24.6770  -28.9440   20.0810 C   0  0  0  0  0  0  0  0  0  0  0  0
  -25.7910  -30.8090   21.3090 C   0  0  0  0  0  2  0  0  0  0  0  0
  -25.8550  -29.4380   20.6550 C   0  0  0  0  0  0  0  0  0  0  0  0
  -27.0450  -28.6610   20.6190 C   0  0  0  0  0  3  0  0  0  0  0  0
  -25.8560  -26.9270   19.4080 C   0  0  0  0  0  3  0  0  0  0  0  0
  -24.6770  -27.6890   19.4540 C   0  0  0  0  0  3  0  0  0  0  0  0
  -23.4410  -29.8150   20.1560 C   0  0  0  0  0  2  0  0  0  0  0  0
  -24.5360  -31.0720   22.0610 N   0  0  0  0  0  0  0  0  0  0  0  0
  -23.4290  -32.1460   23.7250 O   0  0  0  0  0  0  0  0  0  0  0  0
  -22.6180  -29.4580   22.5090 C   0  0  0  0  0  0  0  0  0  0  0  0
  -21.2960  -29.2560   22.3840 N   0  0  0  0  0  0  0  0  0  0  0  0
  -23.3090  -28.8490   23.3300 O   0  0  0  0  0  0  0  0  0  0  0  0
  -20.7980  -29.8010   21.6930 H   0  0  0  0  0  0  0  0  0  0  0  0
  -17.9500  -27.9650   22.8420 C   0  0  0  0  0  0  0  0  0  0  0  0
  -20.4930  -28.3120   23.1610 C   0  0  0  0  0  3  0  0  0  0  0  0
  -20.6520  -26.8710   22.6250 C   0  0  0  0  0  2  0  0  0  0  0  0
  -19.5830  -26.4870   21.5970 C   0  0  0  0  0  2  0  0  0  0  0  0
  -18.1830  -26.6040   22.2080 C   0  0  0  0  0  2  0  0  0  0  0  0
  -19.0340  -28.7730   23.2750 C   0  0  0  0  0  0  0  0  0  0  0  0
  -18.7620  -30.0440   23.8270 C   0  0  0  0  0  3  0  0  0  0  0  0
  -17.4380  -30.5060   23.9520 C   0  0  0  0  0  3  0  0  0  0  0  0
  -16.3680  -29.6950   23.5350 C   0  0  0  0  0  3  0  0  0  0  0  0
  -16.6250  -28.4260   22.9860 C   0  0  0  0  0  3  0  0  0  0  0  0
  -25.7970  -32.4960   23.7630 C   0  0  0  0  0  3  0  0  0  0  0  0
  -25.4990  -33.8940   24.1030 N   0  0  0  0  0  0  0  0  0  0  0  0
  -25.8200  -34.9490   23.3420 C   0  0  0  0  0  0  0  0  0  0  0  0
  -26.4710  -34.8450   22.2990 O   0  0  0  0  0  0  0  0  0  0  0  0
  -24.9190  -34.0480   24.9160 H   0  0  0  0  0  0  0  0  0  0  0  0
  -24.0970  -36.7520   23.0170 C   0  0  0  0  0  1  0  0  0  0  0  0
  -25.3450  -36.3380   23.8130 C   0  0  0  0  0  3  0  0  0  0  0  0
  -27.4920  -37.2080   24.6250 C   0  0  0  0  0  1  0  0  0  0  0  0
  -26.3820  -37.3860   23.6930 N   0  0  0  0  0  0  0  0  0  0  0  0
  -25.9810  -38.3070   23.8460 H   0  0  0  0  0  0  0  0  0  0  0  0
  -26.3360  -31.7180   25.0260 C   0  0  1  0  0  0  0  0  0  0  0  0
  -25.2630  -31.4810   26.1140 C   0  0  0  0  0  1  0  0  0  0  0  0
  -26.9080  -30.3400   24.6200 C   0  0  0  0  0  1  0  0  0  0  0  0
  -27.4990  -32.5090   25.6690 C   0  0  0  0  0  1  0  0  0  0  0  0
  1  4  2  0
  2 10  1  0
  3  6  1  0
  4  2  2  0
  5  1  1  0
  5  3  2  0
  6  2  1  0
 10  8  1  6
 10  9  1  0
 10  7  1  0
 13 12  1  6
 13  3  1  0
 13 11  1  0
 14 13  1  0
 14 23  1  0
 15 21  1  0
 15 23  1  0
 16 21  1  0
 17 18  1  0
 17 16  1  0
 19 18  1  0
 19 28  1  0
 19 20  1  0
 21 20  1  0
 22 15  2  0
 23 24  1  0
 25 26  2  0
 26 45  1  0
 27 26  1  0
 27 30  1  0
 28 29  1  0
 28 25  1  0
 29 27  2  0
 30 31  1  0
 31 32  2  0
 33 36  1  0
 33 32  1  0
 34 33  2  0
 35 34  1  0
 35 30  2  0
 36 37  1  0
 37 42  2  0
 37 38  1  0
 38 39  2  0
 40 39  1  0
 40 44  1  0
 41 40  2  0
 42 41  1  0
 43 42  1  0
 45 46  1  0
 46 49  1  0
 46 48  1  0
 47 45  2  0
 50 51  1  0
 50 25  1  0
 52 50  1  0
 53  1  1  0
 55 53  1  0
 55 54  1  0
 55 56  1  0
 57 59  1  0
 57 56  1  0
 58 69  2  0
 59 64  1  0
 60 68  1  0
 60 70  1  0
 61 67  1  0
 61 63  1  0
 62 68  1  0
 63 62  1  0
 64 63  2  0
 65 66  1  0
 65 59  2  0
 66 61  2  0
 67 60  1  0
 68 58  1  0
 70 72  2  0
 71 70  1  0
 73 71  1  0
 74 83  2  0
 74 79  1  0
 75 71  1  0
 75 79  1  0
 76 75  1  0
 77 78  1  0
 77 76  1  0
 78 74  1  0
 79 80  2  0
 80 81  1  0
 82 81  2  0
 83 82  1  0
 84 58  1  0
 84 85  1  0
 84 94  1  0
 85 88  1  0
 86 90  1  0
 86 85  1  0
 87 86  2  0
 90 89  1  0
 92 90  1  0
 92 93  1  0
 92 91  1  0
 94 97  1  1
 94 95  1  0
 96 94  1  0
M  ISO  4  15 100  23 100  56 101  57 101
M  END
>  <TORSDO>  (4) 
F 22

>  <SCORE>  (4) 
-10.836

>  <name>  (4) 
3

>  <ligand_id>  (4) 
3

>  <original_smiles>  (4) 
[H]c1c([H])c([H])c2c(c1[H])C([H])([H])C([H])([H])C([H])([H])C2([H])N([H])C(=O)C1([H])N(C(=O)C([H])(N([H])C(=O)C([H])(N([H])C([H])([H])[H])C([H])([H])[H])C(C([H])([H])[H])(C([H])([H])[H])C([H])([H])[H])C([H])([H])c2c([H])c(OC([H])([H])C([H])(C([H])([H])[H])C([H])([H])c3nc(C(C([H])([H])[H])(C([H])([H])[H])C([H])([H])[H])nc(C(C([H])([H])[H])(C([H])([H])[H])C([H])([H])N([H])C(=O)N4C([H])([H])C([H])([H])C([H])([H])C([H])(n5nc(-c6c([H])c([H])c(Oc7c([H])c([H])c(F)c([H])c7F)c([H])c6[H])c(C(=O)N([H])[H])c5N([H])[H])C4([H])[H])n3)c([H])c([H])c2C1([H])[H]

>  <smiles>  (4) 
[H]c1c([H])c([H])c2c(c1[H])C([H])([H])C([H])([H])C([H])([H])C2([H])N([H])C(=O)C1([H])N(C(=O)C([H])(N([H])C(=O)C([H])(N([H])C([H])([H])[H])C([H])([H])[H])C(C([H])([H])[H])(C([H])([H])[H])C([H])([H])[H])C([H])([H])c2c([H])c(OC([H])([H])C([H])(C([H])([H])[H])C([H])([H])c3nc(C(C([H])([H])[H])(C([H])([H])[H])C([H])([H])[H])nc(C(C([H])([H])[H])(C([H])([H])[H])C([H])([H])N([H])C(=O)N4C([H])([H])C([H])([H])C([H])([H])C([H])(n5nc(-c6c([H])c([H])c(Oc7c([H])c([H])c(F)c([H])c7F)c([H])c6[H])c(C(=O)N([H])[H])c5N([H])[H])C4([H])[H])n3)c([H])c([H])c2C1([H])[H]

$$$$
4:0:0
     RDKit          3D

103111  0  0  1  0  0  0  0  0999 V2000
  -29.6050  -22.3440   20.6800 C   0  0  0  0  0  1  0  0  0  0  0  0
  -28.5310  -20.9810   22.4790 C   0  0  0  0  0  1  0  0  0  0  0  0
  -29.8170  -21.7750   22.1100 C   0  0  2  0  0  0  0  0  0  0  0  0
  -30.3370  -22.3930   24.5850 C   0  0  0  0  0  1  0  0  0  0  0  0
  -31.3840  -23.7240   22.7750 C   0  0  0  0  0  1  0  0  0  0  0  0
  -30.0870  -22.9530   23.1580 C   0  0  1  0  0  0  0  0  0  0  0  0
  -28.8460  -23.9230   23.2910 C   0  0  0  0  0  2  0  0  0  0  0  0
  -29.4340  -26.0900   24.3580 C   0  0  0  0  0  1  0  0  0  0  0  0
  -29.1420  -25.3750   23.0840 N   0  0  2  0  0  4  0  0  0  0  0  0
  -30.0150  -25.3930   22.5720 H   0  0  0  0  0  0  0  0  0  0  0  0
  -26.7390  -26.1290   22.8850 C   0  0  0  0  0  1  0  0  0  0  0  0
  -28.1480  -26.1090   22.2310 C   0  0  0  0  0  3  0  0  0  0  0  0
  -28.1420  -25.6040   20.7520 C   0  0  0  0  0  2  0  0  0  0  0  0
  -28.1190  -26.6360   19.7630 O   0  0  0  0  0  0  0  0  0  0  0  0
  -24.5290  -31.7630   23.0030 C   0  0  0  0  0  0  0  0  0  0  0  0
  -26.9720  -27.3780   19.7540 C   0  0  0  0  0  0  0  0  0  0  0  0
  -23.2320  -30.4300   21.3690 C   0  0  0  0  0  3  0  0  0  0  0  0
  -24.6010  -28.8910   19.8670 C   0  0  0  0  0  0  0  0  0  0  0  0
  -25.7500  -30.7560   21.0810 C   0  0  0  0  0  2  0  0  0  0  0  0
  -25.7860  -29.4010   20.4140 C   0  0  0  0  0  0  0  0  0  0  0  0
  -26.9780  -28.6570   20.3410 C   0  0  0  0  0  3  0  0  0  0  0  0
  -25.7800  -26.8660   19.2000 C   0  0  0  0  0  3  0  0  0  0  0  0
  -24.5930  -27.6220   19.2540 C   0  0  0  0  0  3  0  0  0  0  0  0
  -23.3760  -29.7690   19.9710 C   0  0  0  0  0  2  0  0  0  0  0  0
  -24.5250  -30.9920   21.8800 N   0  0  0  0  0  0  0  0  0  0  0  0
  -23.4740  -32.0470   23.5880 O   0  0  0  0  0  0  0  0  0  0  0  0
  -22.5870  -29.4080   22.3310 C   0  0  0  0  0  0  0  0  0  0  0  0
  -21.2510  -29.2830   22.2580 N   0  0  0  0  0  0  0  0  0  0  0  0
  -23.2800  -28.7300   23.0930 O   0  0  0  0  0  0  0  0  0  0  0  0
  -20.7540  -29.8750   21.6070 H   0  0  0  0  0  0  0  0  0  0  0  0
  -17.8570  -28.2230   22.8710 C   0  0  0  0  0  0  0  0  0  0  0  0
  -20.4320  -28.3550   23.0330 C   0  0  0  0  0  3  0  0  0  0  0  0
  -20.4420  -26.9430   22.4060 C   0  0  0  0  0  2  0  0  0  0  0  0
  -19.2820  -26.7060   21.4340 C   0  0  0  0  0  2  0  0  0  0  0  0
  -17.9400  -26.8910   22.1450 C   0  0  0  0  0  2  0  0  0  0  0  0
  -19.0270  -28.9190   23.2740 C   0  0  0  0  0  0  0  0  0  0  0  0
  -18.8940  -30.1680   23.9150 C   0  0  0  0  0  3  0  0  0  0  0  0
  -17.6240  -30.7230   24.1580 C   0  0  0  0  0  3  0  0  0  0  0  0
  -16.4690  -30.0240   23.7700 C   0  0  0  0  0  3  0  0  0  0  0  0
  -16.5860  -28.7760   23.1320 C   0  0  0  0  0  3  0  0  0  0  0  0
  -25.8530  -32.3410   23.5960 C   0  0  0  0  0  3  0  0  0  0  0  0
  -26.4250  -31.4820   24.7890 C   0  0  1  0  0  0  0  0  0  0  0  0
  -25.3900  -31.1950   25.9010 C   0  0  0  0  0  1  0  0  0  0  0  0
  -26.9540  -30.1220   24.2740 C   0  0  0  0  0  1  0  0  0  0  0  0
  -27.6290  -32.2110   25.4320 C   0  0  0  0  0  1  0  0  0  0  0  0
  -25.5800  -33.7170   24.0270 N   0  0  0  0  0  0  0  0  0  0  0  0
  -25.9000  -34.8120   23.3220 C   0  0  0  0  0  0  0  0  0  0  0  0
  -26.5310  -34.7640   22.2630 O   0  0  0  0  0  0  0  0  0  0  0  0
  -25.0210  -33.8280   24.8620 H   0  0  0  0  0  0  0  0  0  0  0  0
  -24.1880  -36.6390   23.1350 C   0  0  0  0  0  1  0  0  0  0  0  0
  -25.4490  -36.1740   23.8810 C   0  0  0  0  0  3  0  0  0  0  0  0
  -27.6180  -36.9820   24.7000 C   0  0  0  0  0  1  0  0  0  0  0  0
  -26.4930  -37.2180   23.7980 N   0  0  0  0  0  0  0  0  0  0  0  0
  -26.1040  -38.1330   24.0130 H   0  0  0  0  0  0  0  0  0  0  0  0
  -31.0240  -20.7690   22.0200 C   0  0  0  0  0  2  0  0  0  0  0  0
  -31.0390  -19.5120   19.7850 C   0  0  0  0  0  3  0  0  0  0  0  0
  -30.6420  -18.2650   19.3920 C   0  0  0  0  0  0  0  0  0  0  0  0
  -30.2660  -17.6360   20.6190 C   0  0  0  0  0  0  0  0  0  0  0  0
  -30.3690  -18.4570   21.6550 N   0  0  0  0  0  0  0  0  0  0  0  0
  -30.8180  -19.6200   21.1420 N   0  0  0  0  0  0  0  0  0  0  0  0
  -30.6250  -17.7260   17.9840 C   0  0  1  0  0  0  0  0  0  0  0  0
  -30.2360  -18.6890   17.1470 F   0  0  0  0  0  0  0  0  0  0  0  0
  -31.8460  -17.3300   17.6330 F   0  0  0  0  0  0  0  0  0  0  0  0
  -29.7800  -16.7020   17.8710 F   0  0  0  0  0  0  0  0  0  0  0  0
  -29.7940  -16.2270   20.8830 C   0  0  0  0  0  2  0  0  0  0  0  0
  -31.2050  -14.4460   19.9870 C   0  0  0  0  0  0  0  0  0  0  0  0
  -30.8320  -12.2280   18.9640 C   0  0  0  0  0  2  0  0  0  0  0  0
  -29.8510  -12.2800   17.7800 C   0  0  0  0  0  2  0  0  0  0  0  0
  -28.3960  -12.1650   18.2720 C   0  0  0  0  0  2  0  0  0  0  0  0
  -28.0830  -13.1530   19.4240 C   0  0  0  0  0  3  0  0  0  0  0  0
  -29.1620  -13.0560   20.5260 C   0  0  0  0  0  2  0  0  0  0  0  0
  -30.4800  -13.2990   19.9100 N   0  0  0  0  0  0  0  0  0  0  0  0
  -32.2140  -14.6460   19.3030 O   0  0  0  0  0  0  0  0  0  0  0  0
  -31.9460  -15.6630   21.9520 C   0  0  0  0  0  1  0  0  0  0  0  0
  -30.8940  -15.2610   21.0140 N   0  0  0  0  0  0  0  0  0  0  0  0
  -25.7380  -13.8640   20.2200 C   0  0  0  0  0  0  0  0  0  0  0  0
  -24.6630  -13.1370   20.6520 C   0  0  0  0  0  0  0  0  0  0  0  0
  -25.0750  -11.7680   20.6300 C   0  0  0  0  0  0  0  0  0  0  0  0
  -26.7420  -12.9410   19.9630 N   0  0  0  0  0  0  0  0  0  0  0  0
  -26.3470  -11.6780   20.2660 N   0  0  0  0  0  0  0  0  0  0  0  0
  -24.3170  -10.5360   20.8760 C   0  0  0  0  0  0  0  0  0  0  0  0
  -24.7030   -9.6230   21.8830 C   0  0  0  0  0  3  0  0  0  0  0  0
  -23.9480   -8.4520   22.1150 C   0  0  0  0  0  3  0  0  0  0  0  0
  -22.7940   -8.1880   21.3390 C   0  0  0  0  0  0  0  0  0  0  0  0
  -22.4280   -9.0890   20.3250 C   0  0  0  0  0  3  0  0  0  0  0  0
  -23.1820  -10.2500   20.0920 C   0  0  0  0  0  3  0  0  0  0  0  0
  -22.0140   -7.0650   21.4750 O   0  0  0  0  0  0  0  0  0  0  0  0
  -21.8590   -6.4400   22.6860 C   0  0  0  0  0  0  0  0  0  0  0  0
  -21.3340   -7.1140   23.8110 C   0  0  0  0  0  3  0  0  0  0  0  0
  -21.1250   -6.4140   25.0160 C   0  0  0  0  0  3  0  0  0  0  0  0
  -21.4330   -5.0430   25.0990 C   0  0  0  0  0  0  0  0  0  0  0  0
  -21.9500   -4.3690   23.9780 C   0  0  0  0  0  3  0  0  0  0  0  0
  -22.1590   -5.0660   22.7750 C   0  0  0  0  0  0  0  0  0  0  0  0
  -22.6380   -4.4070   21.6920 F   0  0  0  0  0  0  0  0  0  0  0  0
  -21.2250   -4.3690   26.2540 F   0  0  0  0  0  0  0  0  0  0  0  0
  -23.2940  -13.6650   20.9740 C   0  0  0  0  0  0  0  0  0  0  0  0
  -22.5870  -13.0200   21.8940 N   0  0  0  0  0  0  0  0  0  0  0  0
  -22.8630  -14.6880   20.4430 O   0  0  0  0  0  0  0  0  0  0  0  0
  -22.9460  -12.1900   22.3430 H   0  0  0  0  0  0  0  0  0  0  0  0
  -21.6690  -13.3570   22.1490 H   0  0  0  0  0  0  0  0  0  0  0  0
  -25.9410  -15.2230   20.0040 N   0  0  0  0  0  0  0  0  0  0  0  0
  -25.1940  -15.8990   20.1240 H   0  0  0  0  0  0  0  0  0  0  0  0
  -26.7690  -15.6210   19.5780 H   0  0  0  0  0  0  0  0  0  0  0  0
  3  1  1  6
  3  2  1  0
  3  6  1  0
  6  5  1  6
  6  7  1  0
  6  4  1  0
  9  7  1  0
  9  8  1  0
  9 10  1  6
 12 11  1  0
 12  9  1  0
 13 12  1  0
 14 13  1  0
 15 26  2  0
 16 14  1  0
 16 21  1  0
 17 25  1  0
 17 27  1  0
 18 24  1  0
 18 20  1  0
 19 25  1  0
 20 19  1  0
 21 20  2  0
 22 23  1  0
 22 16  2  0
 23 18  2  0
 24 17  1  0
 25 15  1  0
 27 29  2  0
 28 27  1  0
 30 28  1  0
 31 40  2  0
 31 36  1  0
 32 28  1  0
 32 36  1  0
 33 32  1  0
 34 35  1  0
 34 33  1  0
 35 31  1  0
 36 37  2  0
 37 38  1  0
 39 38  2  0
 40 39  1  0
 41 15  1  0
 41 46  1  0
 41 42  1  0
 42 45  1  1
 42 43  1  0
 44 42  1  0
 46 49  1  0
 47 51  1  0
 47 46  1  0
 48 47  2  0
 51 50  1  0
 53 51  1  0
 53 54  1  0
 53 52  1  0
 55  3  1  0
 56 60  1  0
 57 56  2  0
 57 58  1  0
 58 65  1  0
 58 59  2  0
 60 59  1  0
 60 55  1  0
 61 57  1  0
 61 62  1  6
 63 61  1  0
 64 61  1  0
 65 75  1  0
 66 75  1  0
 67 72  1  0
 68 69  1  0
 68 67  1  0
 70 69  1  0
 70 79  1  0
 70 71  1  0
 72 66  1  0
 72 71  1  0
 73 66  2  0
 75 74  1  0
 76 77  2  0
 77 96  1  0
 78 77  1  0
 78 81  1  0
 79 76  1  0
 79 80  1  0
 80 78  2  0
 81 82  1  0
 82 83  2  0
 84 87  1  0
 84 83  1  0
 85 84  2  0
 86 85  1  0
 86 81  2  0
 87 88  1  0
 88 93  2  0
 88 89  1  0
 89 90  2  0
 90 91  1  0
 91 95  1  0
 92 91  2  0
 93 92  1  0
 94 93  1  0
 96 97  1  0
 97100  1  0
 97 99  1  0
 98 96  2  0
101102  1  0
101 76  1  0
103101  1  0
M  ISO  4  13 101  14 101  66 100  75 100
M  END
>  <TORSDO>  (5) 
F 25

>  <SCORE>  (5) 
-7.681

>  <name>  (5) 
4

>  <ligand_id>  (5) 
4

>  <original_smiles>  (5) 
[H]c1c([H])c([H])c2c(c1[H])C([H])([H])C([H])([H])C([H])([H])C2([H])N([H])C(=O)C1([H])N(C(=O)C([H])(N([H])C(=O)C([H])(N([H])C([H])([H])[H])C([H])([H])[H])C(C([H])([H])[H])(C([H])([H])[H])C([H])([H])[H])C([H])([H])c2c([H])c(OC([H])([H])C([H])(C([H])([H])[H])[N+]([H])(C([H])([H])[H])C([H])([H])C(C([H])([H])[H])(C([H])([H])[H])C(C([H])([H])[H])(C([H])([H])[H])C([H])([H])n3nc(C([H])([H])N(C(=O)N4C([H])([H])C([H])([H])C([H])([H])C([H])(n5nc(-c6c([H])c([H])c(Oc7c([H])c([H])c(F)c([H])c7F)c([H])c6[H])c(C(=O)N([H])[H])c5N([H])[H])C4([H])[H])C([H])([H])[H])c(C(F)(F)F)c3[H])c([H])c([H])c2C1([H])[H]

>  <smiles>  (5) 
[H]c1c([H])c([H])c2c(c1[H])C([H])([H])C([H])([H])C([H])([H])C2([H])N([H])C(=O)C1([H])N(C(=O)C([H])(N([H])C(=O)C([H])(N([H])C([H])([H])[H])C([H])([H])[H])C(C([H])([H])[H])(C([H])([H])[H])C([H])([H])[H])C([H])([H])c2c([H])c(OC([H])([H])C([H])(C([H])([H])[H])[N+]([H])(C([H])([H])[H])C([H])([H])C(C([H])([H])[H])(C([H])([H])[H])C(C([H])([H])[H])(C([H])([H])[H])C([H])([H])n3nc(C([H])([H])N(C(=O)N4C([H])([H])C([H])([H])C([H])([H])C([H])(n5nc(-c6c([H])c([H])c(Oc7c([H])c([H])c(F)c([H])c7F)c([H])c6[H])c(C(=O)N([H])[H])c5N([H])[H])C4([H])[H])C([H])([H])[H])c(C(F)(F)F)c3[H])c([H])c([H])c2C1([H])[H]

$$$$
5:0:0
     RDKit          3D

 88 96  0  0  1  0  0  0  0  0999 V2000
  -30.0560  -20.5170   19.2340 C   0  0  0  0  0  2  0  0  0  0  0  0
  -29.0620  -21.2730   19.9870 C   0  0  0  0  0  0  0  0  0  0  0  0
  -29.5070  -18.2710   20.0430 C   0  0  0  0  0  0  0  0  0  0  0  0
  -30.2740  -19.1120   19.2750 N   0  0  0  0  0  0  0  0  0  0  0  0
  -28.3420  -20.3650   20.7480 N   0  0  0  0  0  0  0  0  0  0  0  0
  -28.5550  -18.9810   20.7690 N   0  0  0  0  0  2  0  0  0  0  0  0
  -28.7570  -16.2430   21.5150 C   0  0  0  0  0  1  0  0  0  0  0  0
  -31.1140  -16.9190   21.4670 C   0  0  0  0  0  1  0  0  0  0  0  0
  -29.8950  -16.6460   20.5470 C   0  0  2  0  0  0  0  0  0  0  0  0
  -30.3920  -15.1580   19.7550 C   0  0  0  0  0  0  0  0  0  0  0  0
  -30.2570  -12.7670   18.7490 C   0  0  0  0  0  2  0  0  0  0  0  0
  -29.2100  -12.6560   17.6080 C   0  0  0  0  0  2  0  0  0  0  0  0
  -27.7940  -12.3970   18.1630 C   0  0  0  0  0  2  0  0  0  0  0  0
  -27.4930  -13.2860   19.3930 C   0  0  0  0  0  3  0  0  0  0  0  0
  -28.6530  -13.2590   20.4030 C   0  0  0  0  0  2  0  0  0  0  0  0
  -29.8320  -13.8410   19.7240 N   0  0  0  0  0  0  0  0  0  0  0  0
  -31.4910  -15.1790   19.1730 O   0  0  0  0  0  0  0  0  0  0  0  0
  -25.2180  -13.8500   20.4100 C   0  0  0  0  0  0  0  0  0  0  0  0
  -24.1890  -13.0720   20.8630 C   0  0  0  0  0  0  0  0  0  0  0  0
  -24.6240  -11.7190   20.7210 C   0  0  0  0  0  0  0  0  0  0  0  0
  -26.2120  -12.9720   20.0160 N   0  0  0  0  0  0  0  0  0  0  0  0
  -25.8720  -11.6810   20.2650 N   0  0  0  0  0  0  0  0  0  0  0  0
  -23.8980  -10.4600   20.9320 C   0  0  0  0  0  0  0  0  0  0  0  0
  -24.3720   -9.4730   21.8240 C   0  0  0  0  0  3  0  0  0  0  0  0
  -23.6430   -8.2810   22.0260 C   0  0  0  0  0  3  0  0  0  0  0  0
  -22.4270   -8.0680   21.3330 C   0  0  0  0  0  0  0  0  0  0  0  0
  -21.9720   -9.0420   20.4270 C   0  0  0  0  0  3  0  0  0  0  0  0
  -22.7020  -10.2260   20.2240 C   0  0  0  0  0  3  0  0  0  0  0  0
  -21.6670   -6.9280   21.4460 O   0  0  0  0  0  0  0  0  0  0  0  0
  -21.6250   -6.2010   22.6090 C   0  0  0  0  0  0  0  0  0  0  0  0
  -21.1990   -6.7680   23.8290 C   0  0  0  0  0  3  0  0  0  0  0  0
  -21.1060   -5.9680   24.9840 C   0  0  0  0  0  3  0  0  0  0  0  0
  -21.4290   -4.5990   24.9210 C   0  0  0  0  0  0  0  0  0  0  0  0
  -21.8460   -4.0290   23.7050 C   0  0  0  0  0  3  0  0  0  0  0  0
  -21.9410   -4.8270   22.5520 C   0  0  0  0  0  0  0  0  0  0  0  0
  -22.3270   -4.2690   21.3790 F   0  0  0  0  0  0  0  0  0  0  0  0
  -21.3300   -3.8280   26.0290 F   0  0  0  0  0  0  0  0  0  0  0  0
  -22.8380  -13.5580   21.3030 C   0  0  0  0  0  0  0  0  0  0  0  0
  -22.1960  -12.8390   22.2170 N   0  0  0  0  0  0  0  0  0  0  0  0
  -22.3630  -14.6090   20.8710 O   0  0  0  0  0  0  0  0  0  0  0  0
  -22.5950  -11.9920   22.5920 H   0  0  0  0  0  0  0  0  0  0  0  0
  -21.2910  -13.1430   22.5460 H   0  0  0  0  0  0  0  0  0  0  0  0
  -25.3800  -15.2240   20.2710 N   0  0  0  0  0  0  0  0  0  0  0  0
  -24.6350  -15.8770   20.4870 H   0  0  0  0  0  0  0  0  0  0  0  0
  -26.1710  -15.6680   19.8240 H   0  0  0  0  0  0  0  0  0  0  0  0
  -29.0570  -22.9790   20.2540 C   0  0  0  0  0  3  0  0  0  0  0  0
  -27.9960  -24.3440   19.9250 C   0  0  0  0  0  3  0  0  0  0  0  0
  -28.1990  -25.9300   20.2000 O   0  0  0  0  0  0  0  0  0  0  0  0
  -24.5900  -31.8010   23.1440 C   0  0  0  0  0  0  0  0  0  0  0  0
  -27.1700  -26.9840   20.1290 C   0  0  0  0  0  0  0  0  0  0  0  0
  -23.4050  -30.4110   21.4900 C   0  0  0  0  0  3  0  0  0  0  0  0
  -24.8640  -28.8190   20.0750 C   0  0  0  0  0  0  0  0  0  0  0  0
  -25.9670  -30.6370   21.3620 C   0  0  0  0  0  2  0  0  0  0  0  0
  -26.0440  -29.2360   20.7030 C   0  0  0  0  0  0  0  0  0  0  0  0
  -27.1930  -28.3370   20.7080 C   0  0  0  0  0  3  0  0  0  0  0  0
  -25.9590  -26.6970   19.4620 C   0  0  0  0  0  3  0  0  0  0  0  0
  -24.8420  -27.5680   19.4360 C   0  0  0  0  0  3  0  0  0  0  0  0
  -23.6430  -29.7330   20.1130 C   0  0  0  0  0  2  0  0  0  0  0  0
  -24.6740  -30.9770   22.0520 N   0  0  0  0  0  0  0  0  0  0  0  0
  -23.4980  -32.0890   23.6590 O   0  0  0  0  0  0  0  0  0  0  0  0
  -22.7080  -29.4090   22.4460 C   0  0  0  0  0  0  0  0  0  0  0  0
  -21.3770  -29.2570   22.3220 N   0  0  0  0  0  0  0  0  0  0  0  0
  -23.3700  -28.7690   23.2670 O   0  0  0  0  0  0  0  0  0  0  0  0
  -20.8960  -29.8240   21.6380 H   0  0  0  0  0  0  0  0  0  0  0  0
  -17.9790  -28.1050   22.8450 C   0  0  0  0  0  0  0  0  0  0  0  0
  -20.5460  -28.3230   23.0880 C   0  0  0  0  0  3  0  0  0  0  0  0
  -20.6170  -26.8980   22.4890 C   0  0  0  0  0  2  0  0  0  0  0  0
  -19.4970  -26.6120   21.4810 C   0  0  0  0  0  2  0  0  0  0  0  0
  -18.1260  -26.7670   22.1420 C   0  0  0  0  0  2  0  0  0  0  0  0
  -19.1140  -28.8430   23.2750 C   0  0  0  0  0  0  0  0  0  0  0  0
  -18.9180  -30.0970   23.8940 C   0  0  0  0  0  3  0  0  0  0  0  0
  -17.6220  -30.6120   24.0870 C   0  0  0  0  0  3  0  0  0  0  0  0
  -16.5020  -29.8700   23.6700 C   0  0  0  0  0  3  0  0  0  0  0  0
  -16.6830  -28.6180   23.0570 C   0  0  0  0  0  3  0  0  0  0  0  0
  -25.8590  -32.4380   23.7870 C   0  0  0  0  0  3  0  0  0  0  0  0
  -26.3620  -31.6600   25.0660 C   0  0  1  0  0  0  0  0  0  0  0  0
  -25.2580  -31.4180   26.1210 C   0  0  0  0  0  1  0  0  0  0  0  0
  -26.9530  -30.2850   24.6810 C   0  0  0  0  0  1  0  0  0  0  0  0
  -27.5020  -32.4540   25.7480 C   0  0  0  0  0  1  0  0  0  0  0  0
  -25.5400  -33.8330   24.1340 N   0  0  0  0  0  0  0  0  0  0  0  0
  -25.8540  -34.9020   23.3900 C   0  0  0  0  0  0  0  0  0  0  0  0
  -26.5090  -34.8170   22.3480 O   0  0  0  0  0  0  0  0  0  0  0  0
  -24.9570  -33.9700   24.9470 H   0  0  0  0  0  0  0  0  0  0  0  0
  -24.1030  -36.6890   23.1010 C   0  0  0  0  0  1  0  0  0  0  0  0
  -25.3670  -36.2820   23.8750 C   0  0  0  0  0  3  0  0  0  0  0  0
  -27.5090  -37.1840   24.6700 C   0  0  0  0  0  1  0  0  0  0  0  0
  -26.3880  -37.3450   23.7490 N   0  0  0  0  0  0  0  0  0  0  0  0
  -25.9760  -38.2610   23.9110 H   0  0  0  0  0  0  0  0  0  0  0  0
  1  4  1  0
  1  2  1  0
  2 46  1  0
  2  5  2  0
  3  9  1  0
  3  6  1  0
  4  3  2  0
  5  6  1  0
  9  8  1  1
  9  7  1  0
 10  9  1  0
 11 16  1  0
 12 13  1  0
 12 11  1  0
 14 13  1  0
 14 21  1  0
 14 15  1  0
 16 10  1  0
 16 15  1  0
 17 10  2  0
 18 19  2  0
 19 38  1  0
 20 19  1  0
 20 23  1  0
 21 22  1  0
 21 18  1  0
 22 20  2  0
 23 24  1  0
 24 25  2  0
 26 29  1  0
 26 25  1  0
 27 26  2  0
 28 27  1  0
 28 23  2  0
 29 30  1  0
 30 31  1  0
 31 32  2  0
 33 32  1  0
 33 37  1  0
 34 33  2  0
 35 30  2  0
 35 34  1  0
 36 35  1  0
 38 39  1  0
 39 42  1  0
 39 41  1  0
 40 38  2  0
 43 18  1  0
 43 44  1  0
 45 43  1  0
 47 48  1  0
 47 46  2  0
 49 60  2  0
 50 48  1  0
 50 55  1  0
 51 59  1  0
 51 61  1  0
 52 58  1  0
 52 54  1  0
 53 59  1  0
 54 55  2  0
 54 53  1  0
 56 50  2  0
 57 56  1  0
 57 52  2  0
 58 51  1  0
 59 49  1  0
 61 63  2  0
 62 61  1  0
 64 62  1  0
 65 74  2  0
 65 70  1  0
 66 62  1  0
 66 70  1  0
 67 66  1  0
 68 69  1  0
 68 67  1  0
 69 65  1  0
 70 71  2  0
 71 72  1  0
 73 72  2  0
 74 73  1  0
 75 49  1  0
 75 80  1  0
 75 76  1  0
 76 79  1  1
 76 77  1  0
 78 76  1  0
 80 83  1  0
 81 85  1  0
 81 80  1  0
 82 81  2  0
 85 84  1  0
 87 85  1  0
 87 88  1  0
 87 86  1  0
M  ISO  4   9 100  10 100  47 101  48 101
M  END
>  <TORSDO>  (6) 
F 19

>  <SCORE>  (6) 
-15.102

>  <name>  (6) 
5

>  <ligand_id>  (6) 
5

>  <original_smiles>  (6) 
[H]c1nc(C(C(=O)N2C([H])([H])C([H])([H])C([H])([H])C([H])(n3nc(-c4c([H])c([H])c(Oc5c([H])c([H])c(F)c([H])c5F)c([H])c4[H])c(C(=O)N([H])[H])c3N([H])[H])C2([H])[H])(C([H])([H])[H])C([H])([H])[H])nnc1C([H])([H])C([H])([H])Oc1c([H])c([H])c2c(c1[H])C([H])([H])N(C(=O)C([H])(N([H])C(=O)C([H])(N([H])C([H])([H])[H])C([H])([H])[H])C(C([H])([H])[H])(C([H])([H])[H])C([H])([H])[H])C([H])(C(=O)N([H])C1([H])c3c([H])c([H])c([H])c([H])c3C([H])([H])C([H])([H])C1([H])[H])C2([H])[H]

>  <smiles>  (6) 
[H]c1nc(C(C(=O)N2C([H])([H])C([H])([H])C([H])([H])C([H])(n3nc(-c4c([H])c([H])c(Oc5c([H])c([H])c(F)c([H])c5F)c([H])c4[H])c(C(=O)N([H])[H])c3N([H])[H])C2([H])[H])(C([H])([H])[H])C([H])([H])[H])nnc1C([H])([H])C([H])([H])Oc1c([H])c([H])c2c(c1[H])C([H])([H])N(C(=O)C([H])(N([H])C(=O)C([H])(N([H])C([H])([H])[H])C([H])([H])[H])C(C([H])([H])[H])(C([H])([H])[H])C([H])([H])[H])C([H])(C(=O)N([H])C1([H])c3c([H])c([H])c([H])c([H])c3C([H])([H])C([H])([H])C1([H])[H])C2([H])[H]

$$$$
6:0:0
     RDKit          3D

 93101  0  0  1  0  0  0  0  0999 V2000
  -30.4910  -21.3090   18.8710 C   0  0  0  0  0  0  0  0  0  0  0  0
  -31.0720  -19.0740   19.2540 C   0  0  0  0  0  0  0  0  0  0  0  0
  -30.2320  -20.3690   20.8890 C   0  0  0  0  0  0  0  0  0  0  0  0
  -30.9820  -20.1260   18.3790 N   0  0  0  0  0  4  0  0  0  0  0  0
  -30.0930  -21.4560   20.1220 N   0  0  0  0  0  0  0  0  0  0  0  0
  -30.6760  -19.1710   20.5060 N   0  0  0  0  0  2  0  0  0  0  0  0
  -29.7430  -20.4540   22.3460 C   0  0  1  0  0  0  0  0  0  0  0  0
  -29.4760  -21.7110   22.7170 F   0  0  0  0  0  0  0  0  0  0  0  0
  -28.6310  -19.7280   22.4800 F   0  0  0  0  0  0  0  0  0  0  0  0
  -30.6630  -19.9650   23.1840 F   0  0  0  0  0  0  0  0  0  0  0  0
  -30.1570  -22.5560   17.9260 C   0  0  0  0  0  2  0  0  0  0  0  0
  -29.9190  -24.0630   18.5020 C   0  0  0  0  0  3  0  0  0  0  0  0
  -29.2510  -25.2030   17.5610 C   0  0  0  0  0  3  0  0  0  0  0  0
  -28.9860  -26.6090   18.0280 O   0  0  0  0  0  0  0  0  0  0  0  0
  -24.7740  -30.6690   22.3240 C   0  0  0  0  0  0  0  0  0  0  0  0
  -27.7150  -27.2010   18.2300 C   0  0  0  0  0  0  0  0  0  0  0  0
  -23.6210  -29.3320   20.5980 C   0  0  0  0  0  3  0  0  0  0  0  0
  -25.1190  -28.3190   18.7800 C   0  0  0  0  0  0  0  0  0  0  0  0
  -26.0260  -30.1450   20.2150 C   0  0  0  0  0  2  0  0  0  0  0  0
  -26.2570  -28.9220   19.3250 C   0  0  0  0  0  0  0  0  0  0  0  0
  -27.5490  -28.3740   19.0430 C   0  0  0  0  0  3  0  0  0  0  0  0
  -26.5350  -26.6520   17.6790 C   0  0  0  0  0  3  0  0  0  0  0  0
  -25.2590  -27.1890   17.9570 C   0  0  0  0  0  3  0  0  0  0  0  0
  -23.7670  -28.9280   19.1070 C   0  0  0  0  0  2  0  0  0  0  0  0
  -24.8280  -30.0650   21.1010 N   0  0  0  0  0  0  0  0  0  0  0  0
  -23.7380  -30.6550   23.0070 O   0  0  0  0  0  0  0  0  0  0  0  0
  -23.2720  -28.0770   21.4310 C   0  0  0  0  0  0  0  0  0  0  0  0
  -22.0040  -27.6370   21.3570 N   0  0  0  0  0  0  0  0  0  0  0  0
  -24.1340  -27.5080   22.1030 O   0  0  0  0  0  0  0  0  0  0  0  0
  -21.3560  -28.1600   20.7850 H   0  0  0  0  0  0  0  0  0  0  0  0
  -19.0060  -25.6660   21.8200 C   0  0  0  0  0  0  0  0  0  0  0  0
  -21.4640  -26.4460   22.0130 C   0  0  0  0  0  3  0  0  0  0  0  0
  -21.8260  -25.1680   21.2200 C   0  0  0  0  0  2  0  0  0  0  0  0
  -20.7420  -24.7530   20.2200 C   0  0  0  0  0  2  0  0  0  0  0  0
  -19.4150  -24.4950   20.9420 C   0  0  0  0  0  2  0  0  0  0  0  0
  -19.9660  -26.5920   22.3070 C   0  0  0  0  0  0  0  0  0  0  0  0
  -19.5270  -27.6840   23.0880 C   0  0  0  0  0  3  0  0  0  0  0  0
  -18.1630  -27.8530   23.3890 C   0  0  0  0  0  3  0  0  0  0  0  0
  -17.2200  -26.9230   22.9210 C   0  0  0  0  0  3  0  0  0  0  0  0
  -17.6420  -25.8300   22.1420 C   0  0  0  0  0  3  0  0  0  0  0  0
  -26.0030  -31.4260   22.9170 C   0  0  0  0  0  3  0  0  0  0  0  0
  -25.4950  -32.6030   23.6340 N   0  0  0  0  0  0  0  0  0  0  0  0
  -25.5260  -33.8570   23.1630 C   0  0  0  0  0  0  0  0  0  0  0  0
  -26.0530  -34.1570   22.0900 O   0  0  0  0  0  0  0  0  0  0  0  0
  -24.9920  -32.4280   24.4910 H   0  0  0  0  0  0  0  0  0  0  0  0
  -23.4740  -35.2870   23.4640 C   0  0  0  0  0  1  0  0  0  0  0  0
  -24.8660  -34.9520   24.0240 C   0  0  0  0  0  3  0  0  0  0  0  0
  -26.8940  -36.0240   24.9020 C   0  0  0  0  0  1  0  0  0  0  0  0
  -25.6680  -36.1900   24.1260 N   0  0  0  0  0  0  0  0  0  0  0  0
  -25.1230  -36.9330   24.5520 H   0  0  0  0  0  0  0  0  0  0  0  0
  -26.8820  -30.5310   23.8770 C   0  0  1  0  0  0  0  0  0  0  0  0
  -26.0630  -29.8010   24.9650 C   0  0  0  0  0  1  0  0  0  0  0  0
  -27.6520  -29.4590   23.0710 C   0  0  0  0  0  1  0  0  0  0  0  0
  -27.9450  -31.4070   24.5850 C   0  0  0  0  0  1  0  0  0  0  0  0
  -31.6470  -17.6340   18.8210 C   0  0  0  0  0  2  0  0  0  0  0  0
  -32.1430  -15.1460   19.2520 C   0  0  0  0  0  0  0  0  0  0  0  0
  -31.7300  -12.7820   18.5300 C   0  0  0  0  0  2  0  0  0  0  0  0
  -30.6000  -12.7400   17.4780 C   0  0  0  0  0  2  0  0  0  0  0  0
  -29.2260  -12.6410   18.1650 C   0  0  0  0  0  2  0  0  0  0  0  0
  -29.0620  -13.6550   19.3280 C   0  0  0  0  0  3  0  0  0  0  0  0
  -30.2970  -13.6720   20.2560 C   0  0  0  0  0  2  0  0  0  0  0  0
  -31.4790  -13.9450   19.4200 N   0  0  0  0  0  0  0  0  0  0  0  0
  -33.1670  -15.1720   18.5650 O   0  0  0  0  0  0  0  0  0  0  0  0
  -31.6530  -16.5640   21.1260 C   0  0  0  0  0  1  0  0  0  0  0  0
  -31.5710  -16.3440   19.6740 N   0  0  0  0  0  0  0  0  0  0  0  0
  -27.0430  -14.3510   20.7560 C   0  0  0  0  0  0  0  0  0  0  0  0
  -25.9470  -13.6620   21.1950 C   0  0  0  0  0  0  0  0  0  0  0  0
  -26.1140  -12.3170   20.7370 C   0  0  0  0  0  0  0  0  0  0  0  0
  -27.8210  -13.4350   20.0660 N   0  0  0  0  0  0  0  0  0  0  0  0
  -27.2780  -12.1890   20.1090 N   0  0  0  0  0  0  0  0  0  0  0  0
  -25.2070  -11.1630   20.8090 C   0  0  0  0  0  0  0  0  0  0  0  0
  -25.4640  -10.0710   21.6680 C   0  0  0  0  0  3  0  0  0  0  0  0
  -24.5630   -8.9870   21.7360 C   0  0  0  0  0  3  0  0  0  0  0  0
  -23.3890   -8.9870   20.9450 C   0  0  0  0  0  0  0  0  0  0  0  0
  -23.1510  -10.0640   20.0740 C   0  0  0  0  0  3  0  0  0  0  0  0
  -24.0520  -11.1410   20.0030 C   0  0  0  0  0  3  0  0  0  0  0  0
  -22.4720   -7.9640   20.9240 O   0  0  0  0  0  0  0  0  0  0  0  0
  -22.0060   -7.3920   22.0810 C   0  0  0  0  0  0  0  0  0  0  0  0
  -21.3380   -8.1490   23.0690 C   0  0  0  0  0  3  0  0  0  0  0  0
  -20.8150   -7.5100   24.2120 C   0  0  0  0  0  3  0  0  0  0  0  0
  -20.9490   -6.1170   24.3640 C   0  0  0  0  0  0  0  0  0  0  0  0
  -21.6080   -5.3620   23.3790 C   0  0  0  0  0  3  0  0  0  0  0  0
  -22.1320   -5.9970   22.2390 C   0  0  0  0  0  0  0  0  0  0  0  0
  -22.7470   -5.2610   21.2830 F   0  0  0  0  0  0  0  0  0  0  0  0
  -20.4400   -5.5020   25.4570 F   0  0  0  0  0  0  0  0  0  0  0  0
  -24.7610  -14.2350   21.9170 C   0  0  0  0  0  0  0  0  0  0  0  0
  -24.1550  -13.4620   22.8110 N   0  0  0  0  0  0  0  0  0  0  0  0
  -24.3950  -15.3940   21.7230 O   0  0  0  0  0  0  0  0  0  0  0  0
  -24.4720  -12.5190   22.9840 H   0  0  0  0  0  0  0  0  0  0  0  0
  -23.3670  -13.8180   23.3330 H   0  0  0  0  0  0  0  0  0  0  0  0
  -27.4380  -15.6810   20.8680 N   0  0  0  0  0  0  0  0  0  0  0  0
  -26.8710  -16.3770   21.3420 H   0  0  0  0  0  0  0  0  0  0  0  0
  -28.2980  -16.0590   20.4930 H   0  0  0  0  0  0  0  0  0  0  0  0
  1  5  1  0
  2  6  1  0
  3  7  1  0
  4  1  2  0
  4  2  2  0
  5  3  2  0
  6  3  1  0
  7  9  1  6
  7  8  1  0
  7 10  1  0
 11 12  1  0
 11  1  1  0
 13 14  1  0
 13 12  2  0
 14 16  1  0
 15 26  2  0
 16 21  1  0
 17 25  1  0
 17 27  1  0
 18 24  1  0
 18 20  1  0
 19 25  1  0
 20 19  1  0
 21 20  2  0
 22 23  1  0
 22 16  2  0
 23 18  2  0
 24 17  1  0
 25 15  1  0
 27 29  2  0
 28 27  1  0
 30 28  1  0
 31 40  2  0
 31 36  1  0
 32 28  1  0
 32 36  1  0
 33 32  1  0
 34 35  1  0
 34 33  1  0
 35 31  1  0
 36 37  2  0
 37 38  1  0
 39 38  2  0
 40 39  1  0
 41 15  1  0
 41 42  1  0
 41 51  1  0
 42 45  1  0
 43 42  1  0
 43 47  1  0
 44 43  2  0
 47 46  1  0
 47 49  1  0
 49 50  1  0
 49 48  1  0
 51 54  1  1
 51 52  1  0
 53 51  1  0
 55  2  1  0
 55 65  1  0
 56 62  1  0
 56 65  1  0
 57 62  1  0
 58 59  1  0
 58 57  1  0
 60 59  1  0
 60 69  1  0
 60 61  1  0
 62 61  1  0
 63 56  2  0
 65 64  1  0
 66 91  1  0
 66 67  2  0
 67 86  1  0
 68 71  1  0
 68 67  1  0
 69 70  1  0
 69 66  1  0
 70 68  2  0
 71 72  1  0
 72 73  2  0
 74 73  1  0
 75 74  2  0
 76 75  1  0
 76 71  2  0
 77 74  1  0
 77 78  1  0
 78 83  2  0
 78 79  1  0
 79 80  2  0
 80 81  1  0
 81 85  1  0
 82 81  2  0
 83 82  1  0
 84 83  1  0
 86 87  1  0
 87 89  1  0
 87 90  1  0
 88 86  2  0
 91 92  1  0
 93 91  1  0
M  ISO  4  13 101  14 101  56 100  65 100
M  END
>  <TORSDO>  (7) 
F 21

>  <SCORE>  (7) 
-3.723

>  <name>  (7) 
6

>  <ligand_id>  (7) 
6

>  <original_smiles>  (7) 
[H]c1c([H])c([H])c2c(c1[H])C([H])([H])C([H])([H])C([H])([H])C2([H])N([H])C(=O)C1([H])N(C(=O)C([H])(N([H])C(=O)C([H])(N([H])C([H])([H])[H])C([H])([H])[H])C(C([H])([H])[H])(C([H])([H])[H])C([H])([H])[H])C([H])([H])c2c([H])c(OC([H])([H])C([H])([H])C([H])([H])c3nc(C(F)(F)F)nc(C([H])([H])N(C(=O)N4C([H])([H])C([H])([H])C([H])([H])C([H])(n5nc(-c6c([H])c([H])c(Oc7c([H])c([H])c(F)c([H])c7F)c([H])c6[H])c(C(=O)N([H])[H])c5N([H])[H])C4([H])[H])C([H])([H])[H])n3)c([H])c([H])c2C1([H])[H]

>  <smiles>  (7) 
[H]c1c([H])c([H])c2c(c1[H])C([H])([H])C([H])([H])C([H])([H])C2([H])N([H])C(=O)C1([H])N(C(=O)C([H])(N([H])C(=O)C([H])(N([H])C([H])([H])[H])C([H])([H])[H])C(C([H])([H])[H])(C([H])([H])[H])C([H])([H])[H])C([H])([H])c2c([H])c(OC([H])([H])C([H])([H])C([H])([H])c3nc(C(F)(F)F)nc(C([H])([H])N(C(=O)N4C([H])([H])C([H])([H])C([H])([H])C([H])(n5nc(-c6c([H])c([H])c(Oc7c([H])c([H])c(F)c([H])c7F)c([H])c6[H])c(C(=O)N([H])[H])c5N([H])[H])C4([H])[H])C([H])([H])[H])n3)c([H])c([H])c2C1([H])[H]

$$$$
7:0:0
     RDKit          3D

 98105  0  0  1  0  0  0  0  0999 V2000
  -29.0060  -17.7680   19.5000 C   0  0  0  0  0  0  0  0  0  0  0  0
  -30.2320  -17.9060   20.2120 C   0  0  0  0  0  0  0  0  0  0  0  0
  -28.2280  -18.9510   19.3530 C   0  0  0  0  0  0  0  0  0  0  0  0
  -29.8260  -20.1820   20.4730 C   0  0  0  0  0  0  0  0  0  0  0  0
  -30.6030  -19.1270   20.6840 N   0  0  0  0  0  0  0  0  0  0  0  0
  -28.6750  -20.1310   19.8340 N   0  0  0  0  0  0  0  0  0  0  0  0
  -26.8350  -19.0280   18.6930 C   0  0  1  0  0  0  0  0  0  0  0  0
  -25.9750  -18.1970   19.2810 F   0  0  0  0  0  0  0  0  0  0  0  0
  -26.3150  -20.2530   18.8220 F   0  0  0  0  0  0  0  0  0  0  0  0
  -26.8970  -18.7730   17.3820 F   0  0  0  0  0  0  0  0  0  0  0  0
  -28.5100  -16.4530   18.9150 C   0  0  0  0  0  3  0  0  0  0  0  0
  -28.0950  -15.6600   19.8950 F   0  0  0  0  0  0  0  0  0  0  0  0
  -27.5300  -16.5690   18.0280 F   0  0  0  0  0  0  0  0  0  0  0  0
  -29.5040  -15.8860   18.2680 F   0  0  0  0  0  0  0  0  0  0  0  0
  -31.3040  -16.8320   20.5540 C   0  0  0  0  0  2  0  0  0  0  0  0
  -31.6490  -14.4810   21.0090 C   0  0  0  0  0  0  0  0  0  0  0  0
  -31.3840  -12.1000   20.3880 C   0  0  0  0  0  2  0  0  0  0  0  0
  -30.6140  -11.9340   19.0630 C   0  0  0  0  0  2  0  0  0  0  0  0
  -29.0980  -11.9050   19.3310 C   0  0  0  0  0  2  0  0  0  0  0  0
  -28.6250  -13.0760   20.2370 C   0  0  0  0  0  3  0  0  0  0  0  0
  -29.5180  -13.1720   21.5020 C   0  0  0  0  0  2  0  0  0  0  0  0
  -30.9150  -13.3290   21.0640 N   0  0  0  0  0  0  0  0  0  0  0  0
  -32.7790  -14.5020   20.5090 O   0  0  0  0  0  0  0  0  0  0  0  0
  -31.3140  -15.9350   22.8530 C   0  0  0  0  0  1  0  0  0  0  0  0
  -31.0920  -15.6470   21.4330 N   0  0  0  0  0  0  0  0  0  0  0  0
  -26.2200  -13.9190   20.6250 C   0  0  0  0  0  0  0  0  0  0  0  0
  -25.0570  -13.2610   20.9270 C   0  0  0  0  0  0  0  0  0  0  0  0
  -25.3940  -11.8770   20.9900 C   0  0  0  0  0  0  0  0  0  0  0  0
  -27.2060  -12.9440   20.5710 N   0  0  0  0  0  0  0  0  0  0  0  0
  -26.7020  -11.7110   20.8290 N   0  0  0  0  0  0  0  0  0  0  0  0
  -24.5370  -10.6940   21.1240 C   0  0  0  0  0  0  0  0  0  0  0  0
  -24.8580   -9.6490   22.0180 C   0  0  0  0  0  3  0  0  0  0  0  0
  -24.0090   -8.5300   22.1400 C   0  0  0  0  0  3  0  0  0  0  0  0
  -22.8270   -8.4470   21.3690 C   0  0  0  0  0  0  0  0  0  0  0  0
  -22.5250   -9.4780   20.4630 C   0  0  0  0  0  3  0  0  0  0  0  0
  -23.3740  -10.5890   20.3370 C   0  0  0  0  0  3  0  0  0  0  0  0
  -21.9590   -7.3830   21.4040 O   0  0  0  0  0  0  0  0  0  0  0  0
  -21.7910   -6.6260   22.5360 C   0  0  0  0  0  0  0  0  0  0  0  0
  -21.3690   -7.1970   23.7560 C   0  0  0  0  0  3  0  0  0  0  0  0
  -21.1400   -6.3750   24.8770 C   0  0  0  0  0  3  0  0  0  0  0  0
  -21.3310   -4.9820   24.7810 C   0  0  0  0  0  0  0  0  0  0  0  0
  -21.7520   -4.4120   23.5660 C   0  0  0  0  0  3  0  0  0  0  0  0
  -21.9770   -5.2310   22.4460 C   0  0  0  0  0  0  0  0  0  0  0  0
  -22.3580   -4.6740   21.2700 F   0  0  0  0  0  0  0  0  0  0  0  0
  -21.1070   -4.1910   25.8550 F   0  0  0  0  0  0  0  0  0  0  0  0
  -23.6900  -13.8740   21.0370 C   0  0  0  0  0  0  0  0  0  0  0  0
  -22.8400  -13.3240   21.8960 N   0  0  0  0  0  0  0  0  0  0  0  0
  -23.3880  -14.8820   20.4000 O   0  0  0  0  0  0  0  0  0  0  0  0
  -23.0930  -12.5040   22.4260 H   0  0  0  0  0  0  0  0  0  0  0  0
  -21.9270  -13.7360   22.0300 H   0  0  0  0  0  0  0  0  0  0  0  0
  -26.5050  -15.2470   20.3520 N   0  0  0  0  0  2  0  0  0  0  0  0
  -25.8100  -15.9820   20.3750 H   0  0  0  0  0  0  0  0  0  0  0  0
  -27.4120  -15.5600   20.0310 H   0  0  0  0  0  0  0  0  0  0  0  0
  -30.2450  -21.5530   21.0430 C   0  0  0  0  0  2  0  0  0  0  0  0
  -29.1680  -22.6630   20.8730 C   0  0  0  0  0  2  0  0  0  0  0  0
  -29.5750  -24.1230   21.2050 C   0  0  0  0  0  2  0  0  0  0  0  0
  -28.4430  -25.0830   20.7770 C   0  0  0  0  0  2  0  0  0  0  0  0
  -28.6140  -26.5020   20.9890 O   0  0  0  0  0  0  0  0  0  0  0  0
  -24.5910  -31.9650   23.2630 C   0  0  0  0  0  0  0  0  0  0  0  0
  -27.4580  -27.2560   20.8160 C   0  0  0  0  0  0  0  0  0  0  0  0
  -23.5060  -30.3980   21.6910 C   0  0  0  0  0  3  0  0  0  0  0  0
  -25.0610  -28.7520   20.5270 C   0  0  0  0  0  0  0  0  0  0  0  0
  -26.0400  -30.7670   21.6200 C   0  0  0  0  0  2  0  0  0  0  0  0
  -26.1810  -29.3380   21.1290 C   0  0  0  0  0  0  0  0  0  0  0  0
  -27.3850  -28.5970   21.2720 C   0  0  0  0  0  3  0  0  0  0  0  0
  -26.3080  -26.7030   20.1960 C   0  0  0  0  0  3  0  0  0  0  0  0
  -25.1210  -27.4360   20.0540 C   0  0  0  0  0  3  0  0  0  0  0  0
  -23.8140  -29.5950   20.4020 C   0  0  0  0  0  2  0  0  0  0  0  0
  -24.7280  -31.0610   22.2510 N   0  0  0  0  0  0  0  0  0  0  0  0
  -23.4730  -32.2780   23.6950 O   0  0  0  0  0  0  0  0  0  0  0  0
  -22.7950  -29.4630   22.7000 C   0  0  0  0  0  0  0  0  0  0  0  0
  -21.4760  -29.2860   22.5270 N   0  0  0  0  0  0  0  0  0  0  0  0
  -23.4310  -28.8960   23.5940 O   0  0  0  0  0  0  0  0  0  0  0  0
  -21.0240  -29.7970   21.7790 H   0  0  0  0  0  0  0  0  0  0  0  0
  -18.0490  -28.2460   23.0370 C   0  0  0  0  0  0  0  0  0  0  0  0
  -20.6120  -28.4210   23.3270 C   0  0  0  0  0  3  0  0  0  0  0  0
  -20.6710  -26.9550   22.8420 C   0  0  0  0  0  2  0  0  0  0  0  0
  -19.5630  -26.5990   21.8430 C   0  0  0  0  0  2  0  0  0  0  0  0
  -18.1830  -26.8410   22.4650 C   0  0  0  0  0  2  0  0  0  0  0  0
  -19.1920  -28.9890   23.4340 C   0  0  0  0  0  0  0  0  0  0  0  0
  -19.0160  -30.2970   23.9370 C   0  0  0  0  0  3  0  0  0  0  0  0
  -17.7300  -30.8580   24.0480 C   0  0  0  0  0  3  0  0  0  0  0  0
  -16.6020  -30.1100   23.6730 C   0  0  0  0  0  3  0  0  0  0  0  0
  -16.7620  -28.8060   23.1700 C   0  0  0  0  0  3  0  0  0  0  0  0
  -25.8270  -32.6680   23.9020 C   0  0  0  0  0  3  0  0  0  0  0  0
  -26.3700  -31.9260   25.1830 C   0  0  1  0  0  0  0  0  0  0  0  0
  -25.2750  -31.5920   26.2200 C   0  0  0  0  0  1  0  0  0  0  0  0
  -27.0650  -30.6020   24.7880 C   0  0  0  0  0  1  0  0  0  0  0  0
  -27.4430  -32.7970   25.8780 C   0  0  0  0  0  1  0  0  0  0  0  0
  -25.4350  -34.0480   24.2210 N   0  0  0  0  0  0  0  0  0  0  0  0
  -25.7200  -35.1130   23.4600 C   0  0  0  0  0  0  0  0  0  0  0  0
  -26.4100  -35.0430   22.4370 O   0  0  0  0  0  0  0  0  0  0  0  0
  -24.8200  -34.1750   25.0110 H   0  0  0  0  0  0  0  0  0  0  0  0
  -23.8800  -36.7870   23.0840 C   0  0  0  0  0  1  0  0  0  0  0  0
  -25.1450  -36.4740   23.8990 C   0  0  0  0  0  3  0  0  0  0  0  0
  -27.2100  -37.5130   24.7260 C   0  0  0  0  0  1  0  0  0  0  0  0
  -26.1100  -37.5870   23.7680 N   0  0  0  0  0  0  0  0  0  0  0  0
  -25.6460  -38.4830   23.8900 H   0  0  0  0  0  0  0  0  0  0  0  0
  1  2  2  0
  2 15  1  0
  2  5  1  0
  3  1  1  0
  3  6  2  0
  4  5  2  0
  4 54  1  0
  6  4  1  0
  7  9  1  6
  7  8  1  0
  7  3  1  0
 10  7  1  0
 11  1  1  0
 12 53  1  0
 13 11  1  0
 14 11  1  0
 15 25  1  0
 16 22  1  0
 16 25  1  0
 17 22  1  0
 18 19  1  0
 18 17  1  0
 20 19  1  0
 20 29  1  0
 20 21  1  0
 22 21  1  0
 23 16  2  0
 25 24  1  0
 26 27  2  0
 27 28  1  0
 27 46  1  0
 28 31  1  0
 29 26  1  0
 29 30  1  0
 30 28  2  0
 31 32  1  0
 32 33  2  0
 34 37  1  0
 34 33  1  0
 35 34  2  0
 36 35  1  0
 36 31  2  0
 37 38  1  0
 38 39  1  0
 39 40  2  0
 41 40  1  0
 41 45  1  0
 42 41  2  0
 43 38  2  0
 43 42  1  0
 44 43  1  0
 46 47  1  0
 47 50  1  0
 47 49  1  0
 48 46  2  0
 51 52  1  0
 51 26  1  0
 55 54  1  0
 55 56  1  0
 57 58  1  0
 57 56  1  0
 59 70  2  0
 60 58  1  0
 60 65  1  0
 61 69  1  0
 61 71  1  0
 62 64  1  0
 63 69  1  0
 64 65  2  0
 64 63  1  0
 66 60  2  0
 67 66  1  0
 67 62  2  0
 68 62  1  0
 68 61  1  0
 69 59  1  0
 71 73  2  0
 72 71  1  0
 74 72  1  0
 75 84  2  0
 75 80  1  0
 76 72  1  0
 76 80  1  0
 77 76  1  0
 78 79  1  0
 78 77  1  0
 79 75  1  0
 80 81  2  0
 81 82  1  0
 83 82  2  0
 84 83  1  0
 85 59  1  0
 85 90  1  0
 85 86  1  0
 86 89  1  1
 86 87  1  0
 88 86  1  0
 90 93  1  0
 91 95  1  0
 91 90  1  0
 92 91  2  0
 95 94  1  0
 97 98  1  0
 97 95  1  0
 97 96  1  0
M  ISO  4  16 100  25 100  57 101  58 101
M  END
>  <TORSDO>  (8) 
F 23

>  <SCORE>  (8) 
-10.647

>  <name>  (8) 
7

>  <ligand_id>  (8) 
7

>  <original_smiles>  (8) 
[H]c1c([H])c([H])c2c(c1[H])C([H])([H])C([H])([H])C([H])([H])C2([H])N([H])C(=O)C1([H])N(C(=O)C([H])(N([H])C(=O)C([H])(N([H])C([H])([H])[H])C([H])([H])[H])C(C([H])([H])[H])(C([H])([H])[H])C([H])([H])[H])C([H])([H])c2c([H])c(OC([H])([H])C([H])([H])C([H])([H])C([H])([H])c3nc(C(F)(F)F)c(C(F)(F)F)c(C([H])([H])N(C(=O)N4C([H])([H])C([H])([H])C([H])([H])C([H])(n5nc(-c6c([H])c([H])c(Oc7c([H])c([H])c(F)c([H])c7F)c([H])c6[H])c(C(=O)N([H])[H])c5N([H])[H])C4([H])[H])C([H])([H])[H])n3)c([H])c([H])c2C1([H])[H]

>  <smiles>  (8) 
[H]c1c([H])c([H])c2c(c1[H])C([H])([H])C([H])([H])C([H])([H])C2([H])N([H])C(=O)C1([H])N(C(=O)C([H])(N([H])C(=O)C([H])(N([H])C([H])([H])[H])C([H])([H])[H])C(C([H])([H])[H])(C([H])([H])[H])C([H])([H])[H])C([H])([H])c2c([H])c(OC([H])([H])C([H])([H])C([H])([H])C([H])([H])c3nc(C(F)(F)F)c(C(F)(F)F)c(C([H])([H])N(C(=O)N4C([H])([H])C([H])([H])C([H])([H])C([H])(n5nc(-c6c([H])c([H])c(Oc7c([H])c([H])c(F)c([H])c7F)c([H])c6[H])c(C(=O)N([H])[H])c5N([H])[H])C4([H])[H])C([H])([H])[H])n3)c([H])c([H])c2C1([H])[H]

$$$$
8:0:0
     RDKit          3D

 97105  0  0  1  0  0  0  0  0999 V2000
  -29.1000  -20.4250   21.2570 C   0  0  0  0  0  2  0  0  0  0  0  0
  -30.0370  -18.5310   19.8310 C   0  0  0  0  0  3  0  0  0  0  0  0
  -29.0460  -17.9540   21.9150 C   0  0  0  0  0  3  0  0  0  0  0  0
  -29.3790  -18.9520   20.9910 C   0  0  0  0  0  0  0  0  0  0  0  0
  -30.0900  -16.3610   20.6130 C   0  0  0  0  0  0  0  0  0  0  0  0
  -30.3820  -17.2460   19.6530 N   0  0  0  0  0  0  0  0  0  0  0  0
  -29.4050  -16.6730   21.7190 N   0  0  0  0  0  0  0  0  0  0  0  0
  -30.7200  -14.9440   20.5450 C   0  0  1  0  0  0  0  0  0  0  0  0
  -30.2130  -14.1760   21.5200 F   0  0  0  0  0  0  0  0  0  0  0  0
  -30.4870  -14.2420   19.1640 C   0  0  0  0  0  0  0  0  0  0  0  0
  -29.7110  -12.2910   17.8550 C   0  0  0  0  0  2  0  0  0  0  0  0
  -28.5260  -12.5740   16.9190 C   0  0  0  0  0  2  0  0  0  0  0  0
  -27.2000  -12.3750   17.6700 C   0  0  0  0  0  2  0  0  0  0  0  0
  -27.1680  -13.1480   19.0110 C   0  0  0  0  0  3  0  0  0  0  0  0
  -28.4420  -12.8930   19.8450 C   0  0  0  0  0  2  0  0  0  0  0  0
  -29.6300  -13.1890   19.0210 N   0  0  0  0  0  0  0  0  0  0  0  0
  -31.2000  -14.5850   18.2100 O   0  0  0  0  0  0  0  0  0  0  0  0
  -25.0210  -13.7040   20.3180 C   0  0  0  0  0  0  0  0  0  0  0  0
  -24.0550  -12.9070   20.8730 C   0  0  0  0  0  0  0  0  0  0  0  0
  -24.4680  -11.5610   20.6310 C   0  0  0  0  0  0  0  0  0  0  0  0
  -25.9610  -12.8410   19.7770 N   0  0  0  0  0  0  0  0  0  0  0  0
  -25.6460  -11.5430   20.0210 N   0  0  0  0  0  0  0  0  0  0  0  0
  -23.7820  -10.2890   20.8940 C   0  0  0  0  0  0  0  0  0  0  0  0
  -24.2930   -9.3500   21.8160 C   0  0  0  0  0  3  0  0  0  0  0  0
  -23.6040   -8.1430   22.0650 C   0  0  0  0  0  3  0  0  0  0  0  0
  -22.3920   -7.8660   21.3900 C   0  0  0  0  0  0  0  0  0  0  0  0
  -21.8990   -8.7940   20.4560 C   0  0  0  0  0  3  0  0  0  0  0  0
  -22.5880   -9.9920   20.2060 C   0  0  0  0  0  3  0  0  0  0  0  0
  -21.6680   -6.7080   21.5480 O   0  0  0  0  0  0  0  0  0  0  0  0
  -21.6060   -6.0570   22.7540 C   0  0  0  0  0  0  0  0  0  0  0  0
  -21.1010   -6.6830   23.9150 C   0  0  0  0  0  3  0  0  0  0  0  0
  -20.9910   -5.9550   25.1150 C   0  0  0  0  0  3  0  0  0  0  0  0
  -21.3750   -4.6020   25.1580 C   0  0  0  0  0  0  0  0  0  0  0  0
  -21.8730   -3.9750   24.0020 C   0  0  0  0  0  3  0  0  0  0  0  0
  -21.9850   -4.7000   22.8020 C   0  0  0  0  0  0  0  0  0  0  0  0
  -22.4450   -4.0850   21.6860 F   0  0  0  0  0  0  0  0  0  0  0  0
  -21.2620   -3.8990   26.3090 F   0  0  0  0  0  0  0  0  0  0  0  0
  -22.7730  -13.3650   21.5050 C   0  0  0  0  0  0  0  0  0  0  0  0
  -22.2990  -12.6460   22.5170 N   0  0  0  0  0  0  0  0  0  0  0  0
  -22.2100  -14.3940   21.1360 O   0  0  0  0  0  0  0  0  0  0  0  0
  -22.7720  -11.8130   22.8340 H   0  0  0  0  0  0  0  0  0  0  0  0
  -21.4490  -12.9340   22.9820 H   0  0  0  0  0  0  0  0  0  0  0  0
  -25.1680  -15.0830   20.2080 N   0  0  0  0  0  0  0  0  0  0  0  0
  -24.4540  -15.7270   20.5300 H   0  0  0  0  0  0  0  0  0  0  0  0
  -25.9160  -15.5420   19.7030 H   0  0  0  0  0  0  0  0  0  0  0  0
  -32.2400  -14.9910   20.8960 C   0  0  1  0  0  0  0  0  0  0  0  0
  -32.4320  -15.4600   22.1340 F   0  0  0  0  0  0  0  0  0  0  0  0
  -32.7810  -13.7680   20.8410 F   0  0  0  0  0  0  0  0  0  0  0  0
  -32.9430  -15.7710   20.0690 F   0  0  0  0  0  0  0  0  0  0  0  0
  -28.0340  -21.0350   20.3240 C   0  0  0  0  0  2  0  0  0  0  0  0
  -26.4300  -22.8990   20.3220 C   0  0  0  0  0  1  0  0  0  0  0  0
  -27.8330  -22.4870   20.5800 N   0  0  2  0  0  4  0  0  0  0  0  0
  -27.9810  -22.6140   21.5700 H   0  0  0  0  0  0  0  0  0  0  0  0
  -28.8250  -23.3430   19.8670 C   0  0  0  0  0  2  0  0  0  0  0  0
  -28.9020  -24.7850   20.4180 C   0  0  0  0  0  2  0  0  0  0  0  0
  -29.6000  -25.7570   19.4400 C   0  0  0  0  0  2  0  0  0  0  0  0
  -29.3950  -27.1290   19.7910 O   0  0  0  0  0  0  0  0  0  0  0  0
  -24.7070  -31.2510   23.1690 C   0  0  0  0  0  0  0  0  0  0  0  0
  -28.1180  -27.6530   19.7630 C   0  0  0  0  0  0  0  0  0  0  0  0
  -23.8020  -29.9290   21.2860 C   0  0  0  0  0  3  0  0  0  0  0  0
  -25.5310  -28.8020   19.7920 C   0  0  0  0  0  0  0  0  0  0  0  0
  -26.2580  -30.6450   21.3160 C   0  0  0  0  0  2  0  0  0  0  0  0
  -26.5700  -29.3950   20.5210 C   0  0  0  0  0  0  0  0  0  0  0  0
  -27.8610  -28.8280   20.5050 C   0  0  0  0  0  3  0  0  0  0  0  0
  -27.0550  -27.0710   19.0290 C   0  0  0  0  0  3  0  0  0  0  0  0
  -25.7690  -27.6360   19.0460 C   0  0  0  0  0  3  0  0  0  0  0  0
  -24.1790  -29.4740   19.8530 C   0  0  0  0  0  2  0  0  0  0  0  0
  -24.9360  -30.6170   21.9850 N   0  0  0  0  0  0  0  0  0  0  0  0
  -23.5710  -31.3040   23.6590 O   0  0  0  0  0  0  0  0  0  0  0  0
  -23.2530  -28.7130   22.0630 C   0  0  0  0  0  0  0  0  0  0  0  0
  -21.9800  -28.3660   21.8080 N   0  0  0  0  0  0  0  0  0  0  0  0
  -23.9690  -28.0900   22.8500 O   0  0  0  0  0  0  0  0  0  0  0  0
  -21.4560  -28.9320   21.1560 H   0  0  0  0  0  0  0  0  0  0  0  0
  -18.8000  -26.6550   21.8770 C   0  0  0  0  0  0  0  0  0  0  0  0
  -21.2640  -27.2350   22.3960 C   0  0  0  0  0  3  0  0  0  0  0  0
  -21.6200  -25.9150   21.6740 C   0  0  0  0  0  2  0  0  0  0  0  0
  -20.6510  -25.5670   20.5400 C   0  0  0  0  0  2  0  0  0  0  0  0
  -19.2220  -25.4370   21.0740 C   0  0  0  0  0  2  0  0  0  0  0  0
  -19.7590  -27.5080   22.4860 C   0  0  0  0  0  0  0  0  0  0  0  0
  -19.3140  -28.6470   23.1910 C   0  0  0  0  0  3  0  0  0  0  0  0
  -17.9410  -28.9370   23.2970 C   0  0  0  0  0  3  0  0  0  0  0  0
  -16.9950  -28.0820   22.7060 C   0  0  0  0  0  3  0  0  0  0  0  0
  -17.4240  -26.9420   22.0020 C   0  0  0  0  0  3  0  0  0  0  0  0
  -25.8570  -31.9590   23.9510 C   0  0  0  0  0  3  0  0  0  0  0  0
  -26.3280  -31.1590   25.2270 C   0  0  1  0  0  0  0  0  0  0  0  0
  -25.1650  -30.7120   26.1430 C   0  0  0  0  0  1  0  0  0  0  0  0
  -27.1220  -29.8970   24.8180 C   0  0  0  0  0  1  0  0  0  0  0  0
  -27.2890  -32.0320   26.0660 C   0  0  0  0  0  1  0  0  0  0  0  0
  -25.3770  -33.2970   24.3220 N   0  0  0  0  0  0  0  0  0  0  0  0
  -25.6680  -34.4210   23.6540 C   0  0  0  0  0  0  0  0  0  0  0  0
  -26.4360  -34.4470   22.6890 O   0  0  0  0  0  0  0  0  0  0  0  0
  -24.6980  -33.3430   25.0690 H   0  0  0  0  0  0  0  0  0  0  0  0
  -23.7890  -36.0410   23.2370 C   0  0  0  0  0  1  0  0  0  0  0  0
  -24.9980  -35.7240   24.1320 C   0  0  0  0  0  3  0  0  0  0  0  0
  -26.9550  -36.7740   25.1790 C   0  0  0  0  0  1  0  0  0  0  0  0
  -25.9170  -36.8820   24.1570 N   0  0  0  0  0  0  0  0  0  0  0  0
  -25.4040  -37.7450   24.3170 H   0  0  0  0  0  0  0  0  0  0  0  0
  2  4  2  0
  4  1  1  0
  4  3  1  0
  5  7  1  0
  6  2  1  0
  6  5  2  0
  7  3  2  0
  8  5  1  0
  8 46  1  0
  8  9  1  1
 10  8  1  0
 11 16  1  0
 12 13  1  0
 12 11  1  0
 14 13  1  0
 14 21  1  0
 14 15  1  0
 16 10  1  0
 16 15  1  0
 17 10  2  0
 18 19  2  0
 19 38  1  0
 20 19  1  0
 20 23  1  0
 21 22  1  0
 21 18  1  0
 22 20  2  0
 23 24  1  0
 24 25  2  0
 26 29  1  0
 26 25  1  0
 27 26  2  0
 28 27  1  0
 28 23  2  0
 29 30  1  0
 30 35  2  0
 30 31  1  0
 31 32  2  0
 32 33  1  0
 33 37  1  0
 34 33  2  0
 35 34  1  0
 36 35  1  0
 38 39  1  0
 39 41  1  0
 39 42  1  0
 40 38  2  0
 43 18  1  0
 43 44  1  0
 45 43  1  0
 46 47  1  1
 48 46  1  0
 49 46  1  0
 50 52  1  0
 50  1  1  0
 51 52  1  0
 52 53  1  1
 54 55  1  0
 54 52  1  0
 56 57  1  0
 56 55  1  0
 58 69  2  0
 59 57  1  0
 59 64  1  0
 60 68  1  0
 60 70  1  0
 61 67  1  0
 61 63  1  0
 62 68  1  0
 63 62  1  0
 64 63  2  0
 65 66  1  0
 65 59  2  0
 66 61  2  0
 67 60  1  0
 68 58  1  0
 70 72  2  0
 71 70  1  0
 73 71  1  0
 74 83  2  0
 74 79  1  0
 75 71  1  0
 75 79  1  0
 76 75  1  0
 77 78  1  0
 77 76  1  0
 78 74  1  0
 79 80  2  0
 80 81  1  0
 82 81  2  0
 83 82  1  0
 84 58  1  0
 84 89  1  0
 84 85  1  0
 85 88  1  1
 85 86  1  0
 87 85  1  0
 89 92  1  0
 90 94  1  0
 90 89  1  0
 91 90  2  0
 94 93  1  0
 94 96  1  0
 96 97  1  0
 96 95  1  0
M  ISO  4   8 100  10 100  56 101  57 101
M  END
>  <TORSDO>  (9) 
F 24

>  <SCORE>  (9) 
-5.896

>  <name>  (9) 
8

>  <ligand_id>  (9) 
8

>  <original_smiles>  (9) 
[H]c1nc(C(F)(C(=O)N2C([H])([H])C([H])([H])C([H])([H])C([H])(n3nc(-c4c([H])c([H])c(Oc5c([H])c([H])c(F)c([H])c5F)c([H])c4[H])c(C(=O)N([H])[H])c3N([H])[H])C2([H])[H])C(F)(F)F)nc([H])c1C([H])([H])C([H])([H])[N+]([H])(C([H])([H])[H])C([H])([H])C([H])([H])C([H])([H])Oc1c([H])c([H])c2c(c1[H])C([H])([H])N(C(=O)C([H])(N([H])C(=O)C([H])(N([H])C([H])([H])[H])C([H])([H])[H])C(C([H])([H])[H])(C([H])([H])[H])C([H])([H])[H])C([H])(C(=O)N([H])C1([H])c3c([H])c([H])c([H])c([H])c3C([H])([H])C([H])([H])C1([H])[H])C2([H])[H]

>  <smiles>  (9) 
[H]c1nc(C(F)(C(=O)N2C([H])([H])C([H])([H])C([H])([H])C([H])(n3nc(-c4c([H])c([H])c(Oc5c([H])c([H])c(F)c([H])c5F)c([H])c4[H])c(C(=O)N([H])[H])c3N([H])[H])C2([H])[H])C(F)(F)F)nc([H])c1C([H])([H])C([H])([H])[N+]([H])(C([H])([H])[H])C([H])([H])C([H])([H])C([H])([H])Oc1c([H])c([H])c2c(c1[H])C([H])([H])N(C(=O)C([H])(N([H])C(=O)C([H])(N([H])C([H])([H])[H])C([H])([H])[H])C(C([H])([H])[H])(C([H])([H])[H])C([H])([H])[H])C([H])(C(=O)N([H])C1([H])c3c([H])c([H])c([H])c([H])c3C([H])([H])C([H])([H])C1([H])[H])C2([H])[H]

$$$$
9:0:0
     RDKit          3D

 90 98  0  0  1  0  0  0  0  0999 V2000
  -29.7770  -22.2610   22.7080 C   0  0  0  0  0  3  0  0  0  0  0  0
  -29.2600  -23.3800   22.0170 C   0  0  0  0  0  3  0  0  0  0  0  0
  -29.8130  -20.9740   22.1210 C   0  0  0  0  0  3  0  0  0  0  0  0
  -28.7730  -23.2560   20.7050 C   0  0  0  0  0  0  0  0  0  0  0  0
  -29.3240  -20.7550   20.8160 C   0  0  0  0  0  0  0  0  0  0  0  0
  -28.8130  -21.9280   20.1520 N   0  0  0  0  0  0  0  0  0  0  0  0
  -27.7840  -18.8000   20.1440 C   0  0  0  0  0  1  0  0  0  0  0  0
  -29.2710  -19.1740   20.2320 C   0  0  1  0  0  0  0  0  0  0  0  0
  -29.6890  -19.2560   18.9680 F   0  0  0  0  0  0  0  0  0  0  0  0
  -30.1210  -17.8070   20.8470 C   0  0  0  0  0  2  0  0  0  0  0  0
  -30.6400  -15.0700   20.3360 C   0  0  0  0  0  0  0  0  0  0  0  0
  -30.5490  -12.7020   19.3660 C   0  0  0  0  0  2  0  0  0  0  0  0
  -29.6340  -12.6570   18.1190 C   0  0  0  0  0  2  0  0  0  0  0  0
  -28.1660  -12.4380   18.5270 C   0  0  0  0  0  2  0  0  0  0  0  0
  -27.7500  -13.3680   19.6960 C   0  0  0  0  0  3  0  0  0  0  0  0
  -28.7840  -13.3620   20.8410 C   0  0  0  0  0  2  0  0  0  0  0  0
  -30.0590  -13.8000   20.2560 N   0  0  0  0  0  0  0  0  0  0  0  0
  -31.8440  -15.1430   20.0460 O   0  0  0  0  0  0  0  0  0  0  0  0
  -29.8470  -16.2420   20.5760 N   0  0  0  0  0  0  0  0  0  0  0  0
  -28.8870  -15.9870   20.7580 H   0  0  0  0  0  0  0  0  0  0  0  0
  -25.3720  -13.9780   20.4000 C   0  0  0  0  0  0  0  0  0  0  0  0
  -24.3010  -13.2190   20.7800 C   0  0  0  0  0  0  0  0  0  0  0  0
  -24.7530  -11.8640   20.7680 C   0  0  0  0  0  0  0  0  0  0  0  0
  -26.4060  -13.0850   20.1780 N   0  0  0  0  0  0  0  0  0  0  0  0
  -26.0450  -11.8080   20.4660 N   0  0  0  0  0  0  0  0  0  0  0  0
  -24.0150  -10.6120   20.9650 C   0  0  0  0  0  0  0  0  0  0  0  0
  -24.4330   -9.6430   21.9040 C   0  0  0  0  0  3  0  0  0  0  0  0
  -23.6930   -8.4560   22.0880 C   0  0  0  0  0  3  0  0  0  0  0  0
  -22.5170   -8.2290   21.3360 C   0  0  0  0  0  0  0  0  0  0  0  0
  -22.1190   -9.1830   20.3820 C   0  0  0  0  0  3  0  0  0  0  0  0
  -22.8610  -10.3600   20.1950 C   0  0  0  0  0  3  0  0  0  0  0  0
  -21.7460   -7.0950   21.4320 O   0  0  0  0  0  0  0  0  0  0  0  0
  -21.6920   -6.3570   22.5880 C   0  0  0  0  0  0  0  0  0  0  0  0
  -21.2910   -6.9240   23.8170 C   0  0  0  0  0  3  0  0  0  0  0  0
  -21.1830   -6.1140   24.9650 C   0  0  0  0  0  3  0  0  0  0  0  0
  -21.4660   -4.7380   24.8870 C   0  0  0  0  0  0  0  0  0  0  0  0
  -21.8600   -4.1700   23.6620 C   0  0  0  0  0  3  0  0  0  0  0  0
  -21.9700   -4.9780   22.5170 C   0  0  0  0  0  0  0  0  0  0  0  0
  -22.3300   -4.4210   21.3350 F   0  0  0  0  0  0  0  0  0  0  0  0
  -21.3530   -3.9570   25.9870 F   0  0  0  0  0  0  0  0  0  0  0  0
  -22.9080  -13.7110   21.0350 C   0  0  0  0  0  0  0  0  0  0  0  0
  -22.1720  -13.0320   21.9070 N   0  0  0  0  0  0  0  0  0  0  0  0
  -22.4820  -14.7310   20.4960 O   0  0  0  0  0  0  0  0  0  0  0  0
  -22.5280  -12.2080   22.3690 H   0  0  0  0  0  0  0  0  0  0  0  0
  -21.2340  -13.3400   22.1160 H   0  0  0  0  0  0  0  0  0  0  0  0
  -25.5490  -15.3450   20.1880 N   0  0  0  0  0  0  0  0  0  0  0  0
  -24.7710  -15.9950   20.2180 H   0  0  0  0  0  0  0  0  0  0  0  0
  -26.3520  -15.7160   19.6970 H   0  0  0  0  0  0  0  0  0  0  0  0
  -28.0590  -24.5980   20.0030 C   0  0  0  0  0  2  0  0  0  0  0  0
  -28.2980  -26.1270   20.3350 O   0  0  0  0  0  0  0  0  0  0  0  0
  -24.6680  -31.8770   23.1970 C   0  0  0  0  0  0  0  0  0  0  0  0
  -27.2710  -27.1480   20.1970 C   0  0  0  0  0  0  0  0  0  0  0  0
  -23.4820  -30.4730   21.5560 C   0  0  0  0  0  3  0  0  0  0  0  0
  -24.9480  -28.9140   20.1230 C   0  0  0  0  0  0  0  0  0  0  0  0
  -26.0350  -30.7500   21.3970 C   0  0  0  0  0  2  0  0  0  0  0  0
  -26.1190  -29.3560   20.7480 C   0  0  0  0  0  0  0  0  0  0  0  0
  -27.2800  -28.4890   20.7700 C   0  0  0  0  0  3  0  0  0  0  0  0
  -26.0840  -26.8320   19.4990 C   0  0  0  0  0  3  0  0  0  0  0  0
  -24.9480  -27.6690   19.4770 C   0  0  0  0  0  3  0  0  0  0  0  0
  -23.7110  -29.8010   20.1750 C   0  0  0  0  0  2  0  0  0  0  0  0
  -24.7480  -31.0590   22.1040 N   0  0  0  0  0  0  0  0  0  0  0  0
  -23.5780  -32.1540   23.7230 O   0  0  0  0  0  0  0  0  0  0  0  0
  -22.8080  -29.4590   22.5180 C   0  0  0  0  0  0  0  0  0  0  0  0
  -21.4780  -29.2890   22.4010 N   0  0  0  0  0  0  0  0  0  0  0  0
  -23.4840  -28.8290   23.3350 O   0  0  0  0  0  0  0  0  0  0  0  0
  -20.9830  -29.8530   21.7220 H   0  0  0  0  0  0  0  0  0  0  0  0
  -18.1010  -28.0860   22.9270 C   0  0  0  0  0  0  0  0  0  0  0  0
  -20.6630  -28.3480   23.1730 C   0  0  0  0  0  3  0  0  0  0  0  0
  -20.7590  -26.9190   22.5880 C   0  0  0  0  0  2  0  0  0  0  0  0
  -19.6480  -26.6040   21.5820 C   0  0  0  0  0  2  0  0  0  0  0  0
  -18.2720  -26.7420   22.2380 C   0  0  0  0  0  2  0  0  0  0  0  0
  -19.2230  -28.8460   23.3520 C   0  0  0  0  0  0  0  0  0  0  0  0
  -19.0070  -30.1020   23.9600 C   0  0  0  0  0  3  0  0  0  0  0  0
  -17.7030  -30.5990   24.1470 C   0  0  0  0  0  3  0  0  0  0  0  0
  -16.5960  -29.8360   23.7360 C   0  0  0  0  0  3  0  0  0  0  0  0
  -16.7950  -28.5800   23.1320 C   0  0  0  0  0  3  0  0  0  0  0  0
  -25.9400  -32.5250   23.8280 C   0  0  0  0  0  3  0  0  0  0  0  0
  -26.4530  -31.7580   25.1080 C   0  0  1  0  0  0  0  0  0  0  0  0
  -25.3530  -31.5250   26.1700 C   0  0  0  0  0  1  0  0  0  0  0  0
  -27.0420  -30.3800   24.7270 C   0  0  0  0  0  1  0  0  0  0  0  0
  -27.5950  -32.5570   25.7750 C   0  0  0  0  0  1  0  0  0  0  0  0
  -25.6110  -33.9190   24.1660 N   0  0  0  0  0  0  0  0  0  0  0  0
  -25.9280  -34.9840   23.4180 C   0  0  0  0  0  0  0  0  0  0  0  0
  -26.5930  -34.8970   22.3820 O   0  0  0  0  0  0  0  0  0  0  0  0
  -25.0200  -34.0610   24.9710 H   0  0  0  0  0  0  0  0  0  0  0  0
  -24.1730  -36.7600   23.1040 C   0  0  0  0  0  1  0  0  0  0  0  0
  -25.4310  -36.3630   23.8920 C   0  0  0  0  0  3  0  0  0  0  0  0
  -27.5690  -37.2680   24.6940 C   0  0  0  0  0  1  0  0  0  0  0  0
  -26.4480  -37.4310   23.7730 N   0  0  0  0  0  0  0  0  0  0  0  0
  -26.0310  -38.3420   23.9420 H   0  0  0  0  0  0  0  0  0  0  0  0
  2  1  2  0
  3  1  1  0
  4  2  1  0
  5  3  2  0
  6  4  2  0
  6  5  1  0
  8  7  1  6
  8  5  1  0
  8 10  1  0
  9  8  1  0
 11 19  1  0
 12 17  1  0
 13 14  1  0
 13 12  1  0
 15 14  1  0
 15 24  1  0
 15 16  1  0
 17 11  1  0
 17 16  1  0
 18 11  2  0
 19 20  1  0
 19 10  1  0
 21 22  2  0
 22 41  1  0
 23 22  1  0
 23 26  1  0
 24 21  1  0
 24 25  1  0
 25 23  2  0
 26 27  1  0
 27 28  2  0
 29 32  1  0
 29 28  1  0
 30 29  2  0
 31 30  1  0
 31 26  2  0
 32 33  1  0
 33 34  1  0
 34 35  2  0
 36 35  1  0
 36 40  1  0
 37 36  2  0
 38 33  2  0
 38 37  1  0
 39 38  1  0
 41 42  1  0
 42 45  1  0
 42 44  1  0
 43 41  2  0
 46 47  1  0
 46 21  1  0
 48 46  1  0
 49 50  1  0
 49  4  1  0
 51 62  2  0
 52 50  1  0
 52 57  1  0
 53 61  1  0
 53 63  1  0
 54 60  1  0
 54 56  1  0
 55 61  1  0
 56 57  2  0
 56 55  1  0
 58 52  2  0
 59 58  1  0
 59 54  2  0
 60 53  1  0
 61 51  1  0
 63 65  2  0
 64 63  1  0
 66 64  1  0
 67 76  2  0
 67 72  1  0
 68 64  1  0
 68 72  1  0
 69 68  1  0
 70 71  1  0
 70 69  1  0
 71 67  1  0
 72 73  2  0
 73 74  1  0
 75 74  2  0
 76 75  1  0
 77 51  1  0
 77 82  1  0
 77 78  1  0
 78 81  1  1
 78 79  1  0
 80 78  1  0
 82 85  1  0
 83 87  1  0
 83 82  1  0
 84 83  2  0
 87 86  1  0
 89 87  1  0
 89 90  1  0
 89 88  1  0
M  ISO  4  11 100  19 100  49 101  50 101
M  END
>  <TORSDO>  (10) 
F 19

>  <SCORE>  (10) 
-15.060

>  <name>  (10) 
9

>  <ligand_id>  (10) 
9

>  <original_smiles>  (10) 
[H]c1c(C([H])([H])Oc2c([H])c([H])c3c(c2[H])C([H])([H])N(C(=O)C([H])(N([H])C(=O)C([H])(N([H])C([H])([H])[H])C([H])([H])[H])C(C([H])([H])[H])(C([H])([H])[H])C([H])([H])[H])C([H])(C(=O)N([H])C2([H])c4c([H])c([H])c([H])c([H])c4C([H])([H])C([H])([H])C2([H])[H])C3([H])[H])nc(C(F)(C([H])([H])[H])C([H])([H])N([H])C(=O)N2C([H])([H])C([H])([H])C([H])([H])C([H])(n3nc(-c4c([H])c([H])c(Oc5c([H])c([H])c(F)c([H])c5F)c([H])c4[H])c(C(=O)N([H])[H])c3N([H])[H])C2([H])[H])c([H])c1[H]

>  <smiles>  (10) 
[H]c1c(C([H])([H])Oc2c([H])c([H])c3c(c2[H])C([H])([H])N(C(=O)C([H])(N([H])C(=O)C([H])(N([H])C([H])([H])[H])C([H])([H])[H])C(C([H])([H])[H])(C([H])([H])[H])C([H])([H])[H])C([H])(C(=O)N([H])C2([H])c4c([H])c([H])c([H])c([H])c4C([H])([H])C([H])([H])C2([H])[H])C3([H])[H])nc(C(F)(C([H])([H])[H])C([H])([H])N([H])C(=O)N2C([H])([H])C([H])([H])C([H])([H])C([H])(n3nc(-c4c([H])c([H])c(Oc5c([H])c([H])c(F)c([H])c5F)c([H])c4[H])c(C(=O)N([H])[H])c3N([H])[H])C2([H])[H])c([H])c1[H]

$$$$
10:0:0
     RDKit          3D

 95103  0  0  1  0  0  0  0  0999 V2000
  -29.0630  -18.0350   19.7610 C   0  0  0  0  0  3  0  0  0  0  0  0
  -29.0570  -19.3920   19.4450 C   0  0  0  0  0  0  0  0  0  0  0  0
  -30.4260  -19.8570   19.6210 C   0  0  0  0  0  0  0  0  0  0  0  0
  -31.0960  -18.7180   20.1480 N   0  0  0  0  0  0  0  0  0  0  0  0
  -30.2700  -17.5470   20.2410 N   0  0  0  0  0  0  0  0  0  0  0  0
  -27.5350  -21.4390   19.7640 C   0  0  0  0  0  1  0  0  0  0  0  0
  -26.5230  -19.2530   19.3700 C   0  0  0  0  0  1  0  0  0  0  0  0
  -27.7580  -20.1170   19.0130 C   0  0  2  0  0  0  0  0  0  0  0  0
  -28.2000  -19.3140   16.5460 C   0  0  0  0  0  1  0  0  0  0  0  0
  -27.7280  -20.4290   17.4910 C   0  0  0  0  0  2  0  0  0  0  0  0
  -30.4520  -21.6130   17.7400 C   0  0  0  0  0  1  0  0  0  0  0  0
  -32.5730  -20.8340   18.6330 C   0  0  0  0  0  1  0  0  0  0  0  0
  -31.1600  -21.2790   19.0710 C   0  0  2  0  0  0  0  0  0  0  0  0
  -32.7990  -22.9970   20.3310 C   0  0  0  0  0  1  0  0  0  0  0  0
  -31.3460  -22.8090   19.8650 C   0  0  0  0  0  3  0  0  0  0  0  0
  -30.8160  -24.3160   19.2390 C   0  0  0  0  0  2  0  0  0  0  0  0
  -31.0850  -25.7920   19.7230 O   0  0  0  0  0  0  0  0  0  0  0  0
  -27.0880  -29.9370   24.3410 C   0  0  0  0  0  0  0  0  0  0  0  0
  -30.0390  -26.7800   19.9280 C   0  0  0  0  0  0  0  0  0  0  0  0
  -26.0870  -29.3440   22.1700 C   0  0  0  0  0  3  0  0  0  0  0  0
  -27.7000  -28.4620   20.3710 C   0  0  0  0  0  0  0  0  0  0  0  0
  -28.6370  -29.6050   22.3740 C   0  0  0  0  0  2  0  0  0  0  0  0
  -28.8020  -28.5900   21.2250 C   0  0  0  0  0  0  0  0  0  0  0  0
  -29.9720  -27.7690   20.9990 C   0  0  0  0  0  3  0  0  0  0  0  0
  -28.9230  -26.7820   19.0660 C   0  0  0  0  0  3  0  0  0  0  0  0
  -27.7750  -27.5790   19.2830 C   0  0  0  0  0  3  0  0  0  0  0  0
  -26.4540  -29.2830   20.6610 C   0  0  0  0  0  2  0  0  0  0  0  0
  -27.2850  -29.6280   23.0230 N   0  0  0  0  0  0  0  0  0  0  0  0
  -25.9500  -29.9970   24.8310 O   0  0  0  0  0  0  0  0  0  0  0  0
  -25.3470  -28.0430   22.5730 C   0  0  0  0  0  0  0  0  0  0  0  0
  -24.0860  -27.8870   22.1310 N   0  0  0  0  0  0  0  0  0  0  0  0
  -25.9190  -27.1860   23.2490 O   0  0  0  0  0  0  0  0  0  0  0  0
  -23.6730  -28.6390   21.5950 H   0  0  0  0  0  0  0  0  0  0  0  0
  -20.8870  -26.3880   21.3270 C   0  0  0  0  0  0  0  0  0  0  0  0
  -23.2360  -26.7130   22.3560 C   0  0  0  0  0  3  0  0  0  0  0  0
  -23.6770  -25.5280   21.4660 C   0  0  0  0  0  2  0  0  0  0  0  0
  -22.9200  -25.4590   20.1360 C   0  0  0  0  0  2  0  0  0  0  0  0
  -21.4130  -25.3220   20.3810 C   0  0  0  0  0  2  0  0  0  0  0  0
  -21.7460  -27.0510   22.2410 C   0  0  0  0  0  0  0  0  0  0  0  0
  -21.2120  -28.0590   23.0750 C   0  0  0  0  0  3  0  0  0  0  0  0
  -19.8510  -28.4060   23.0000 C   0  0  0  0  0  3  0  0  0  0  0  0
  -19.0010  -27.7390   22.1000 C   0  0  0  0  0  3  0  0  0  0  0  0
  -19.5180  -26.7300   21.2680 C   0  0  0  0  0  3  0  0  0  0  0  0
  -28.2820  -30.2460   25.2940 C   0  0  0  0  0  3  0  0  0  0  0  0
  -27.9150  -31.4120   26.1140 N   0  0  0  0  0  0  0  0  0  0  0  0
  -28.4630  -32.6290   26.0060 C   0  0  0  0  0  0  0  0  0  0  0  0
  -29.3920  -32.8730   25.2320 O   0  0  0  0  0  0  0  0  0  0  0  0
  -27.1290  -31.2970   26.7370 H   0  0  0  0  0  0  0  0  0  0  0  0
  -27.0110  -34.6830   26.0450 C   0  0  0  0  0  1  0  0  0  0  0  0
  -27.8910  -33.7510   26.8940 C   0  0  0  0  0  3  0  0  0  0  0  0
  -29.6430  -33.7930   28.6140 C   0  0  0  0  0  1  0  0  0  0  0  0
  -28.9320  -34.5440   27.5840 N   0  0  0  0  0  0  0  0  0  0  0  0
  -28.5280  -35.3730   28.0110 H   0  0  0  0  0  0  0  0  0  0  0  0
  -28.6700  -29.0250   26.2190 C   0  0  1  0  0  0  0  0  0  0  0  0
  -27.4760  -28.4360   27.0040 C   0  0  0  0  0  1  0  0  0  0  0  0
  -29.3020  -27.8860   25.3900 C   0  0  0  0  0  1  0  0  0  0  0  0
  -29.7420  -29.4670   27.2440 C   0  0  0  0  0  1  0  0  0  0  0  0
  -30.8220  -16.7120   22.5290 C   0  0  0  0  0  1  0  0  0  0  0  0
  -30.3650  -16.2140   21.1420 C   0  0  0  0  0  3  0  0  0  0  0  0
  -30.9990  -14.6630   20.9500 C   0  0  0  0  0  0  0  0  0  0  0  0
  -31.0980  -12.1080   20.8560 C   0  0  0  0  0  2  0  0  0  0  0  0
  -30.4560  -11.5650   19.5590 C   0  0  0  0  0  2  0  0  0  0  0  0
  -28.9440  -11.3720   19.7560 C   0  0  0  0  0  2  0  0  0  0  0  0
  -28.2870  -12.5980   20.4360 C   0  0  0  0  0  3  0  0  0  0  0  0
  -29.0730  -13.0950   21.6700 C   0  0  0  0  0  2  0  0  0  0  0  0
  -30.4350  -13.4050   21.2210 N   0  0  0  0  0  0  0  0  0  0  0  0
  -32.2030  -14.6120   20.6570 O   0  0  0  0  0  0  0  0  0  0  0  0
  -25.8410  -13.2730   20.7400 C   0  0  0  0  0  0  0  0  0  0  0  0
  -24.7100  -12.5540   21.0030 C   0  0  0  0  0  0  0  0  0  0  0  0
  -25.1310  -11.1990   21.1650 C   0  0  0  0  0  0  0  0  0  0  0  0
  -26.8810  -12.3620   20.7420 N   0  0  0  0  0  0  0  0  0  0  0  0
  -26.4530  -11.1130   21.0630 N   0  0  0  0  0  0  0  0  0  0  0  0
  -24.3460   -9.9710   21.3510 C   0  0  0  0  0  0  0  0  0  0  0  0
  -24.6510   -9.0480   22.3730 C   0  0  0  0  0  3  0  0  0  0  0  0
  -23.8650   -7.8870   22.5470 C   0  0  0  0  0  3  0  0  0  0  0  0
  -22.7620   -7.6420   21.6950 C   0  0  0  0  0  0  0  0  0  0  0  0
  -22.4800   -8.5540   20.6630 C   0  0  0  0  0  3  0  0  0  0  0  0
  -23.2630   -9.7040   20.4870 C   0  0  0  0  0  3  0  0  0  0  0  0
  -21.9630   -6.5280   21.7700 O   0  0  0  0  0  0  0  0  0  0  0  0
  -21.8250   -5.8190   22.9370 C   0  0  0  0  0  0  0  0  0  0  0  0
  -21.3860   -6.4290   24.1320 C   0  0  0  0  0  3  0  0  0  0  0  0
  -21.1880   -5.6500   25.2890 C   0  0  0  0  0  3  0  0  0  0  0  0
  -21.4220   -4.2610   25.2530 C   0  0  0  0  0  0  0  0  0  0  0  0
  -21.8570   -3.6520   24.0630 C   0  0  0  0  0  3  0  0  0  0  0  0
  -22.0540   -4.4290   22.9070 C   0  0  0  0  0  0  0  0  0  0  0  0
  -22.4520   -3.8320   21.7570 F   0  0  0  0  0  0  0  0  0  0  0  0
  -21.2270   -3.5110   26.3620 F   0  0  0  0  0  0  0  0  0  0  0  0
  -23.3050  -13.0810   21.0120 C   0  0  0  0  0  0  0  0  0  0  0  0
  -22.4480  -12.5250   21.8600 N   0  0  0  0  0  0  0  0  0  0  0  0
  -22.9720  -14.0250   20.2960 O   0  0  0  0  0  0  0  0  0  0  0  0
  -22.7310  -11.7630   22.4590 H   0  0  0  0  0  0  0  0  0  0  0  0
  -21.4980  -12.8650   21.9120 H   0  0  0  0  0  0  0  0  0  0  0  0
  -26.0740  -14.6150   20.4690 N   0  0  0  0  0  0  0  0  0  0  0  0
  -25.3180  -15.2850   20.3950 H   0  0  0  0  0  0  0  0  0  0  0  0
  -26.9710  -14.9990   20.2020 H   0  0  0  0  0  0  0  0  0  0  0  0
  1  5  1  0
  2  3  1  0
  2  1  2  0
  3  4  2  0
  4  5  1  0
  5 59  1  0
  8  7  1  6
  8  2  1  0
  8  6  1  0
  9 10  1  0
 10  8  1  0
 13 11  1  6
 12 13  1  0
 13  3  1  0
 13 15  1  0
 15 14  1  0
 16 17  1  0
 16 15  1  0
 17 19  1  0
 18 29  2  0
 19 24  1  0
 20 30  1  0
 20 28  1  0
 21 27  1  0
 21 23  1  0
 22 28  1  0
 23 22  1  0
 24 23  2  0
 25 26  1  0
 25 19  2  0
 26 21  2  0
 27 20  1  0
 28 18  1  0
 30 32  2  0
 31 30  1  0
 33 31  1  0
 34 39  1  0
 35 31  1  0
 36 35  1  0
 37 38  1  0
 37 36  1  0
 38 34  1  0
 39 35  1  0
 39 40  2  0
 41 40  1  0
 42 41  2  0
 43 34  2  0
 43 42  1  0
 44 18  1  0
 44 45  1  0
 44 54  1  0
 45 48  1  0
 46 45  1  0
 46 50  1  0
 47 46  2  0
 50 49  1  0
 50 52  1  0
 52 53  1  0
 52 51  1  0
 54 55  1  1
 54 57  1  0
 56 54  1  0
 59 58  1  0
 60 59  1  0
 60 66  1  0
 61 66  1  0
 62 63  1  0
 62 61  1  0
 64 63  1  0
 64 71  1  0
 64 65  1  0
 66 65  1  0
 67 60  2  0
 68 71  1  0
 68 69  2  0
 69 88  1  0
 69 70  1  0
 70 73  1  0
 71 72  1  0
 72 70  2  0
 73 74  1  0
 74 75  2  0
 76 79  1  0
 76 75  1  0
 77 76  2  0
 78 77  1  0
 78 73  2  0
 79 80  1  0
 80 81  1  0
 81 82  2  0
 83 82  1  0
 83 87  1  0
 84 83  2  0
 85 80  2  0
 85 84  1  0
 86 85  1  0
 88 89  1  0
 89 92  1  0
 89 91  1  0
 90 88  2  0
 93 68  1  0
 94 93  1  0
 95 93  1  0
M  ISO  4  16 101  17 101  59 100  60 100
M  END
>  <TORSDO>  (11) 
F 22

>  <SCORE>  (11) 
-9.450

>  <name>  (11) 
10

>  <ligand_id>  (11) 
10

>  <original_smiles>  (11) 
[H]c1c([H])c([H])c2c(c1[H])C([H])([H])C([H])([H])C([H])([H])C2([H])N([H])C(=O)C1([H])N(C(=O)C([H])(N([H])C(=O)C([H])(N([H])C([H])([H])[H])C([H])([H])[H])C(C([H])([H])[H])(C([H])([H])[H])C([H])([H])[H])C([H])([H])c2c([H])c(OC([H])([H])C([H])(C([H])([H])[H])C(c3nn(C([H])(C(=O)N4C([H])([H])C([H])([H])C([H])([H])C([H])(n5nc(-c6c([H])c([H])c(Oc7c([H])c([H])c(F)c([H])c7F)c([H])c6[H])c(C(=O)N([H])[H])c5N([H])[H])C4([H])[H])C([H])([H])[H])c([H])c3C(C([H])([H])[H])(C([H])([H])[H])C([H])([H])C([H])([H])[H])(C([H])([H])[H])C([H])([H])[H])c([H])c([H])c2C1([H])[H]

>  <smiles>  (11) 
[H]c1c([H])c([H])c2c(c1[H])C([H])([H])C([H])([H])C([H])([H])C2([H])N([H])C(=O)C1([H])N(C(=O)C([H])(N([H])C(=O)C([H])(N([H])C([H])([H])[H])C([H])([H])[H])C(C([H])([H])[H])(C([H])([H])[H])C([H])([H])[H])C([H])([H])c2c([H])c(OC([H])([H])C([H])(C([H])([H])[H])C(c3nn(C([H])(C(=O)N4C([H])([H])C([H])([H])C([H])([H])C([H])(n5nc(-c6c([H])c([H])c(Oc7c([H])c([H])c(F)c([H])c7F)c([H])c6[H])c(C(=O)N([H])[H])c5N([H])[H])C4([H])[H])C([H])([H])[H])c([H])c3C(C([H])([H])[H])(C([H])([H])[H])C([H])([H])C([H])([H])[H])(C([H])([H])[H])C([H])([H])[H])c([H])c([H])c2C1([H])[H]

$$$$
11:0:0
     RDKit          3D

 91 99  0  0  1  0  0  0  0  0999 V2000
  -29.9630  -19.6200   20.1340 C   0  0  0  0  0  0  0  0  0  0  0  0
  -30.3720  -17.4560   20.3190 C   0  0  0  0  0  0  0  0  0  0  0  0
  -30.1070  -19.1370   18.8950 N   0  0  0  0  0  0  0  0  0  0  0  0
  -30.3700  -17.7720   19.0120 N   0  0  0  0  0  0  0  0  0  0  0  0
  -30.0210  -18.5970   21.0560 N   0  0  0  0  0  0  0  0  0  0  0  0
  -32.3770  -16.3800   21.3590 C   0  0  0  0  0  1  0  0  0  0  0  0
  -30.1970  -15.6070   22.1600 C   0  0  0  0  0  1  0  0  0  0  0  0
  -30.9330  -16.0620   20.8820 C   0  0  1  0  0  0  0  0  0  0  0  0
  -31.1630  -14.8360   19.8120 C   0  0  0  0  0  0  0  0  0  0  0  0
  -30.6800  -12.7340   18.5000 C   0  0  0  0  0  2  0  0  0  0  0  0
  -29.6140  -12.9590   17.4010 C   0  0  0  0  0  2  0  0  0  0  0  0
  -28.1840  -12.8290   17.9600 C   0  0  0  0  0  2  0  0  0  0  0  0
  -28.0100  -13.5870   19.3020 C   0  0  0  0  0  3  0  0  0  0  0  0
  -29.1560  -13.2310   20.2610 C   0  0  0  0  0  2  0  0  0  0  0  0
  -30.4170  -13.6720   19.6330 N   0  0  0  0  0  0  0  0  0  0  0  0
  -32.1780  -14.9320   19.1090 O   0  0  0  0  0  0  0  0  0  0  0  0
  -25.7520  -14.2490   20.3260 C   0  0  0  0  0  0  0  0  0  0  0  0
  -24.6890  -13.5020   20.7570 C   0  0  0  0  0  0  0  0  0  0  0  0
  -25.0650  -12.1360   20.5780 C   0  0  0  0  0  0  0  0  0  0  0  0
  -26.7080  -13.3360   19.9100 N   0  0  0  0  0  0  0  0  0  0  0  0
  -26.3100  -12.0560   20.1210 N   0  0  0  0  0  0  0  0  0  0  0  0
  -24.2930  -10.9020   20.7550 C   0  0  0  0  0  0  0  0  0  0  0  0
  -24.7390   -9.8630   21.6000 C   0  0  0  0  0  3  0  0  0  0  0  0
  -23.9660   -8.6950   21.7710 C   0  0  0  0  0  3  0  0  0  0  0  0
  -22.7290   -8.5600   21.0960 C   0  0  0  0  0  0  0  0  0  0  0  0
  -22.2990   -9.5890   20.2400 C   0  0  0  0  0  3  0  0  0  0  0  0
  -23.0740  -10.7460   20.0660 C   0  0  0  0  0  3  0  0  0  0  0  0
  -21.9220   -7.4510   21.1820 O   0  0  0  0  0  0  0  0  0  0  0  0
  -21.8840   -6.6750   22.3130 C   0  0  0  0  0  0  0  0  0  0  0  0
  -21.5520   -7.2130   23.5760 C   0  0  0  0  0  3  0  0  0  0  0  0
  -21.4520   -6.3660   24.6970 C   0  0  0  0  0  3  0  0  0  0  0  0
  -21.6750   -4.9830   24.5580 C   0  0  0  0  0  0  0  0  0  0  0  0
  -22.0020   -4.4460   23.3010 C   0  0  0  0  0  3  0  0  0  0  0  0
  -22.1010   -5.2890   22.1810 C   0  0  0  0  0  0  0  0  0  0  0  0
  -22.3950   -4.7630   20.9680 F   0  0  0  0  0  0  0  0  0  0  0  0
  -21.5710   -4.1660   25.6330 F   0  0  0  0  0  0  0  0  0  0  0  0
  -23.3600  -14.0280   21.2150 C   0  0  0  0  0  0  0  0  0  0  0  0
  -22.6920  -13.3150   22.1160 N   0  0  0  0  0  0  0  0  0  0  0  0
  -22.9250  -15.1040   20.8080 O   0  0  0  0  0  0  0  0  0  0  0  0
  -23.0580  -12.4460   22.4740 H   0  0  0  0  0  0  0  0  0  0  0  0
  -21.7990  -13.6450   22.4520 H   0  0  0  0  0  0  0  0  0  0  0  0
  -25.9750  -15.6180   20.2340 N   0  0  0  0  0  0  0  0  0  0  0  0
  -25.2550  -16.2890   20.4800 H   0  0  0  0  0  0  0  0  0  0  0  0
  -26.8120  -16.0520   19.8640 H   0  0  0  0  0  0  0  0  0  0  0  0
  -31.0000  -19.0850   23.3390 C   0  0  0  0  0  1  0  0  0  0  0  0
  -29.7550  -18.8030   22.4840 C   0  0  0  0  0  2  0  0  0  0  0  0
  -29.9890  -21.1650   20.4730 C   0  0  0  0  0  3  0  0  0  0  0  0
  -28.8240  -22.2180   20.1210 C   0  0  0  0  0  3  0  0  0  0  0  0
  -29.0920  -23.7880   20.4290 C   0  0  0  0  0  3  0  0  0  0  0  0
  -28.0460  -24.9110   19.9510 C   0  0  0  0  0  3  0  0  0  0  0  0
  -28.2460  -26.3650   20.2680 O   0  0  0  0  0  0  0  0  0  0  0  0
  -24.5080  -31.8360   23.2200 C   0  0  0  0  0  0  0  0  0  0  0  0
  -27.1430  -27.2460   20.1890 C   0  0  0  0  0  0  0  0  0  0  0  0
  -23.3200  -30.4240   21.5850 C   0  0  0  0  0  3  0  0  0  0  0  0
  -24.7820  -28.8770   20.1650 C   0  0  0  0  0  0  0  0  0  0  0  0
  -25.8630  -30.7400   21.4170 C   0  0  0  0  0  2  0  0  0  0  0  0
  -25.9500  -29.3590   20.7720 C   0  0  0  0  0  0  0  0  0  0  0  0
  -27.1300  -28.5520   20.7800 C   0  0  0  0  0  3  0  0  0  0  0  0
  -25.9570  -26.8390   19.5360 C   0  0  0  0  0  3  0  0  0  0  0  0
  -24.7900  -27.6240   19.5380 C   0  0  0  0  0  3  0  0  0  0  0  0
  -23.5410  -29.7460   20.2080 C   0  0  0  0  0  2  0  0  0  0  0  0
  -24.5830  -31.0210   22.1290 N   0  0  0  0  0  0  0  0  0  0  0  0
  -23.4200  -32.1120   23.7490 O   0  0  0  0  0  0  0  0  0  0  0  0
  -22.6580  -29.4090   22.5470 C   0  0  0  0  0  0  0  0  0  0  0  0
  -21.3420  -29.1870   22.3820 N   0  0  0  0  0  0  0  0  0  0  0  0
  -23.3290  -28.8210   23.3990 O   0  0  0  0  0  0  0  0  0  0  0  0
  -20.8590  -29.7120   21.6670 H   0  0  0  0  0  0  0  0  0  0  0  0
  -17.9990  -27.8610   22.7670 C   0  0  0  0  0  0  0  0  0  0  0  0
  -20.5270  -28.2430   23.1490 C   0  0  0  0  0  3  0  0  0  0  0  0
  -20.7180  -26.7980   22.6340 C   0  0  0  0  0  2  0  0  0  0  0  0
  -19.6820  -26.3900   21.5820 C   0  0  0  0  0  2  0  0  0  0  0  0
  -18.2650  -26.4970   22.1520 C   0  0  0  0  0  2  0  0  0  0  0  0
  -19.0620  -28.6870   23.2190 C   0  0  0  0  0  0  0  0  0  0  0  0
  -18.7610  -29.9590   23.7510 C   0  0  0  0  0  3  0  0  0  0  0  0
  -17.4300  -30.4070   23.8390 C   0  0  0  0  0  3  0  0  0  0  0  0
  -16.3800  -29.5800   23.4050 C   0  0  0  0  0  3  0  0  0  0  0  0
  -16.6640  -28.3090   22.8730 C   0  0  0  0  0  3  0  0  0  0  0  0
  -25.7840  -32.4780   23.8450 C   0  0  0  0  0  3  0  0  0  0  0  0
  -25.4660  -33.8790   24.1610 N   0  0  0  0  0  0  0  0  0  0  0  0
  -25.7860  -34.9260   23.3900 C   0  0  0  0  0  0  0  0  0  0  0  0
  -26.4500  -34.8160   22.3560 O   0  0  0  0  0  0  0  0  0  0  0  0
  -24.8740  -34.0350   24.9630 H   0  0  0  0  0  0  0  0  0  0  0  0
  -24.0360  -36.7010   23.0400 C   0  0  0  0  0  1  0  0  0  0  0  0
  -25.2920  -36.3180   23.8370 C   0  0  0  0  0  3  0  0  0  0  0  0
  -27.4320  -37.2340   24.6230 C   0  0  0  0  0  1  0  0  0  0  0  0
  -26.3140  -37.3770   23.6930 N   0  0  0  0  0  0  0  0  0  0  0  0
  -25.9020  -38.2970   23.8350 H   0  0  0  0  0  0  0  0  0  0  0  0
  -26.2920  -31.7220   25.1360 C   0  0  1  0  0  0  0  0  0  0  0  0
  -25.1900  -31.4850   26.1950 C   0  0  0  0  0  1  0  0  0  0  0  0
  -26.8910  -30.3460   24.7660 C   0  0  0  0  0  1  0  0  0  0  0  0
  -27.4280  -32.5310   25.8040 C   0  0  0  0  0  1  0  0  0  0  0  0
  1 47  1  0
  1  5  1  0
  2  8  1  0
  2  5  1  0
  3  4  1  0
  3  1  2  0
  4  2  2  0
  5 46  1  0
  8  6  1  1
  8  7  1  0
  9  8  1  0
 10 15  1  0
 11 12  1  0
 11 10  1  0
 13 12  1  0
 13 20  1  0
 13 14  1  0
 15  9  1  0
 15 14  1  0
 16  9  2  0
 17 18  2  0
 18 37  1  0
 19 22  1  0
 19 18  1  0
 20 21  1  0
 20 17  1  0
 21 19  2  0
 22 23  1  0
 23 24  2  0
 25 28  1  0
 25 24  1  0
 26 25  2  0
 27 26  1  0
 27 22  2  0
 28 29  1  0
 29 30  1  0
 30 31  2  0
 32 31  1  0
 32 36  1  0
 33 32  2  0
 34 29  2  0
 34 33  1  0
 35 34  1  0
 37 38  1  0
 38 41  1  0
 38 40  1  0
 39 37  2  0
 42 17  1  0
 42 43  1  0
 44 42  1  0
 46 45  1  0
 48 49  1  0
 48 47  2  0
 50 51  1  0
 50 49  2  0
 52 63  2  0
 53 51  1  0
 53 58  1  0
 54 62  1  0
 54 64  1  0
 55 61  1  0
 55 57  1  0
 56 62  1  0
 57 58  2  0
 57 56  1  0
 59 60  1  0
 59 53  2  0
 60 55  2  0
 61 54  1  0
 62 52  1  0
 64 66  2  0
 65 64  1  0
 67 65  1  0
 68 77  2  0
 68 73  1  0
 69 65  1  0
 69 73  1  0
 70 69  1  0
 71 72  1  0
 71 70  1  0
 72 68  1  0
 73 74  2  0
 74 75  1  0
 76 75  2  0
 77 76  1  0
 78 52  1  0
 78 79  1  0
 78 88  1  0
 79 82  1  0
 80 84  1  0
 80 79  1  0
 81 80  2  0
 84 83  1  0
 86 87  1  0
 86 84  1  0
 86 85  1  0
 88 91  1  1
 88 89  1  0
 90 88  1  0
M  ISO  4   8 100   9 100  50 101  51 101
M  END
>  <TORSDO>  (12) 
F 22

>  <SCORE>  (12) 
-9.084

>  <name>  (12) 
11

>  <ligand_id>  (12) 
11

>  <original_smiles>  (12) 
[H]c1c([H])c([H])c2c(c1[H])C([H])([H])C([H])([H])C([H])([H])C2([H])N([H])C(=O)C1([H])N(C(=O)C([H])(N([H])C(=O)C([H])(N([H])C([H])([H])[H])C([H])([H])[H])C(C([H])([H])[H])(C([H])([H])[H])C([H])([H])[H])C([H])([H])c2c([H])c(OC([H])([H])C([H])([H])C([H])([H])C([H])([H])c3nnc(C(C(=O)N4C([H])([H])C([H])([H])C([H])([H])C([H])(n5nc(-c6c([H])c([H])c(Oc7c([H])c([H])c(F)c([H])c7F)c([H])c6[H])c(C(=O)N([H])[H])c5N([H])[H])C4([H])[H])(C([H])([H])[H])C([H])([H])[H])n3C([H])([H])C([H])([H])[H])c([H])c([H])c2C1([H])[H]

>  <smiles>  (12) 
[H]c1c([H])c([H])c2c(c1[H])C([H])([H])C([H])([H])C([H])([H])C2([H])N([H])C(=O)C1([H])N(C(=O)C([H])(N([H])C(=O)C([H])(N([H])C([H])([H])[H])C([H])([H])[H])C(C([H])([H])[H])(C([H])([H])[H])C([H])([H])[H])C([H])([H])c2c([H])c(OC([H])([H])C([H])([H])C([H])([H])C([H])([H])c3nnc(C(C(=O)N4C([H])([H])C([H])([H])C([H])([H])C([H])(n5nc(-c6c([H])c([H])c(Oc7c([H])c([H])c(F)c([H])c7F)c([H])c6[H])c(C(=O)N([H])[H])c5N([H])[H])C4([H])[H])(C([H])([H])[H])C([H])([H])[H])n3C([H])([H])C([H])([H])[H])c([H])c([H])c2C1([H])[H]

$$$$
12:0:0
     RDKit          3D

 88 96  0  0  1  0  0  0  0  0999 V2000
  -29.8490  -23.4310   18.7260 C   0  0  0  0  0  1  0  0  0  0  0  0
  -30.2680  -23.4590   21.1590 C   0  0  0  0  0  1  0  0  0  0  0  0
  -29.2150  -23.0980   20.0920 C   0  0  2  0  0  0  0  0  0  0  0  0
  -29.2360  -20.4440   19.0120 C   0  0  0  0  0  2  0  0  0  0  0  0
  -29.1220  -21.3590   20.1400 C   0  0  0  0  0  0  0  0  0  0  0  0
  -29.6000  -18.3620   20.2450 C   0  0  0  0  0  0  0  0  0  0  0  0
  -29.4380  -19.0420   19.0670 N   0  0  0  0  0  0  0  0  0  0  0  0
  -29.2510  -20.5880   21.2980 N   0  0  0  0  0  0  0  0  0  0  0  0
  -29.4530  -19.1950   21.3470 N   0  0  0  0  0  2  0  0  0  0  0  0
  -29.4840  -16.6460   20.4000 C   0  0  0  0  0  2  0  0  0  0  0  0
  -30.4250  -15.2320   20.0690 C   0  0  0  0  0  0  0  0  0  0  0  0
  -30.4050  -12.8260   19.1180 C   0  0  0  0  0  2  0  0  0  0  0  0
  -29.4230  -12.7240   17.9220 C   0  0  0  0  0  2  0  0  0  0  0  0
  -27.9860  -12.4530   18.4080 C   0  0  0  0  0  2  0  0  0  0  0  0
  -27.5970  -13.3600   19.6000 C   0  0  0  0  0  3  0  0  0  0  0  0
  -28.6940  -13.4120   20.6820 C   0  0  0  0  0  2  0  0  0  0  0  0
  -29.9220  -13.9080   20.0410 N   0  0  0  0  0  0  0  0  0  0  0  0
  -31.6160  -15.3080   19.7270 O   0  0  0  0  0  0  0  0  0  0  0  0
  -25.2530  -13.8990   20.4630 C   0  0  0  0  0  0  0  0  0  0  0  0
  -24.2100  -13.1100   20.8590 C   0  0  0  0  0  0  0  0  0  0  0  0
  -24.6790  -11.7630   20.7760 C   0  0  0  0  0  0  0  0  0  0  0  0
  -26.2870  -13.0330   20.1520 N   0  0  0  0  0  0  0  0  0  0  0  0
  -25.9560  -11.7400   20.4090 N   0  0  0  0  0  0  0  0  0  0  0  0
  -23.9650  -10.4930   20.9680 C   0  0  0  0  0  0  0  0  0  0  0  0
  -24.4060   -9.5290   21.9020 C   0  0  0  0  0  3  0  0  0  0  0  0
  -23.6890   -8.3260   22.0830 C   0  0  0  0  0  3  0  0  0  0  0  0
  -22.5160   -8.0790   21.3290 C   0  0  0  0  0  0  0  0  0  0  0  0
  -22.0950   -9.0320   20.3850 C   0  0  0  0  0  3  0  0  0  0  0  0
  -22.8120  -10.2250   20.2030 C   0  0  0  0  0  3  0  0  0  0  0  0
  -21.7720   -6.9280   21.4180 O   0  0  0  0  0  0  0  0  0  0  0  0
  -21.6890   -6.2120   22.5850 C   0  0  0  0  0  0  0  0  0  0  0  0
  -21.1940   -6.7850   23.7760 C   0  0  0  0  0  3  0  0  0  0  0  0
  -21.0610   -5.9960   24.9360 C   0  0  0  0  0  3  0  0  0  0  0  0
  -21.4110   -4.6330   24.9040 C   0  0  0  0  0  0  0  0  0  0  0  0
  -21.8980   -4.0580   23.7170 C   0  0  0  0  0  3  0  0  0  0  0  0
  -22.0340   -4.8460   22.5590 C   0  0  0  0  0  0  0  0  0  0  0  0
  -22.4830   -4.2810   21.4130 F   0  0  0  0  0  0  0  0  0  0  0  0
  -21.2760   -3.8710   26.0160 F   0  0  0  0  0  0  0  0  0  0  0  0
  -22.8230  -13.5740   21.1960 C   0  0  0  0  0  0  0  0  0  0  0  0
  -22.1360  -12.8600   22.0800 N   0  0  0  0  0  0  0  0  0  0  0  0
  -22.3590  -14.6050   20.7100 O   0  0  0  0  0  0  0  0  0  0  0  0
  -22.5250  -12.0270   22.4960 H   0  0  0  0  0  0  0  0  0  0  0  0
  -21.2070  -13.1540   22.3470 H   0  0  0  0  0  0  0  0  0  0  0  0
  -25.4030  -15.2740   20.3100 N   0  0  0  0  0  0  0  0  0  0  0  0
  -24.6350  -15.9200   20.4670 H   0  0  0  0  0  0  0  0  0  0  0  0
  -26.2250  -15.7270   19.9330 H   0  0  0  0  0  0  0  0  0  0  0  0
  -28.0320  -24.3970   20.2380 C   0  0  0  0  0  2  0  0  0  0  0  0
  -28.2520  -26.0090   20.2050 O   0  0  0  0  0  0  0  0  0  0  0  0
  -24.6560  -31.8680   23.2090 C   0  0  0  0  0  0  0  0  0  0  0  0
  -27.2090  -27.0530   20.1710 C   0  0  0  0  0  0  0  0  0  0  0  0
  -23.4550  -30.4780   21.5700 C   0  0  0  0  0  3  0  0  0  0  0  0
  -24.8980  -28.8850   20.1400 C   0  0  0  0  0  0  0  0  0  0  0  0
  -26.0160  -30.7080   21.4100 C   0  0  0  0  0  2  0  0  0  0  0  0
  -26.0850  -29.3050   20.7520 C   0  0  0  0  0  0  0  0  0  0  0  0
  -27.2380  -28.4100   20.7420 C   0  0  0  0  0  3  0  0  0  0  0  0
  -25.9910  -26.7650   19.5190 C   0  0  0  0  0  3  0  0  0  0  0  0
  -24.8720  -27.6340   19.5050 C   0  0  0  0  0  3  0  0  0  0  0  0
  -23.6770  -29.7990   20.1910 C   0  0  0  0  0  2  0  0  0  0  0  0
  -24.7300  -31.0420   22.1180 N   0  0  0  0  0  0  0  0  0  0  0  0
  -23.5700  -32.1560   23.7360 O   0  0  0  0  0  0  0  0  0  0  0  0
  -22.7680  -29.4770   22.5350 C   0  0  0  0  0  0  0  0  0  0  0  0
  -21.4380  -29.3120   22.4110 N   0  0  0  0  0  0  0  0  0  0  0  0
  -23.4360  -28.8490   23.3600 O   0  0  0  0  0  0  0  0  0  0  0  0
  -20.9520  -29.8690   21.7220 H   0  0  0  0  0  0  0  0  0  0  0  0
  -18.0550  -28.1110   22.9260 C   0  0  0  0  0  0  0  0  0  0  0  0
  -20.6150  -28.3740   23.1820 C   0  0  0  0  0  3  0  0  0  0  0  0
  -20.7130  -26.9430   22.6020 C   0  0  0  0  0  2  0  0  0  0  0  0
  -19.6060  -26.6250   21.5910 C   0  0  0  0  0  2  0  0  0  0  0  0
  -18.2280  -26.7660   22.2420 C   0  0  0  0  0  2  0  0  0  0  0  0
  -19.1740  -28.8740   23.3530 C   0  0  0  0  0  0  0  0  0  0  0  0
  -18.9550  -30.1310   23.9560 C   0  0  0  0  0  3  0  0  0  0  0  0
  -17.6510  -30.6270   24.1360 C   0  0  0  0  0  3  0  0  0  0  0  0
  -16.5460  -29.8630   23.7220 C   0  0  0  0  0  3  0  0  0  0  0  0
  -16.7480  -28.6070   23.1240 C   0  0  0  0  0  3  0  0  0  0  0  0
  -25.9320  -32.5050   23.8390 C   0  0  0  0  0  3  0  0  0  0  0  0
  -26.4490  -31.7270   25.1120 C   0  0  1  0  0  0  0  0  0  0  0  0
  -25.3570  -31.4820   26.1800 C   0  0  0  0  0  1  0  0  0  0  0  0
  -27.0330  -30.3520   24.7180 C   0  0  0  0  0  1  0  0  0  0  0  0
  -27.6000  -32.5180   25.7770 C   0  0  0  0  0  1  0  0  0  0  0  0
  -25.6140  -33.9000   24.1900 N   0  0  0  0  0  0  0  0  0  0  0  0
  -25.9100  -34.9680   23.4370 C   0  0  0  0  0  0  0  0  0  0  0  0
  -26.5420  -34.8830   22.3810 O   0  0  0  0  0  0  0  0  0  0  0  0
  -25.0470  -34.0380   25.0140 H   0  0  0  0  0  0  0  0  0  0  0  0
  -24.1400  -36.7420   23.1930 C   0  0  0  0  0  1  0  0  0  0  0  0
  -25.4300  -36.3490   23.9300 C   0  0  0  0  0  3  0  0  0  0  0  0
  -27.5930  -37.2650   24.6520 C   0  0  0  0  0  1  0  0  0  0  0  0
  -26.4410  -37.4180   23.7670 N   0  0  0  0  0  0  0  0  0  0  0  0
  -26.0300  -38.3320   23.9360 H   0  0  0  0  0  0  0  0  0  0  0  0
  3  1  1  6
  3  5  1  0
  3 47  1  0
  3  2  1  0
  4  7  1  0
  4  5  1  0
  5  8  2  0
  6 10  1  0
  6  9  1  0
  7  6  2  0
  8  9  1  0
 11 10  1  0
 12 17  1  0
 13 14  1  0
 13 12  1  0
 15 14  1  0
 15 22  1  0
 15 16  1  0
 17 11  1  0
 17 16  1  0
 18 11  2  0
 19 20  2  0
 20 39  1  0
 21 20  1  0
 21 24  1  0
 22 23  1  0
 22 19  1  0
 23 21  2  0
 24 25  1  0
 25 26  2  0
 27 30  1  0
 27 26  1  0
 28 27  2  0
 29 28  1  0
 29 24  2  0
 30 31  1  0
 31 32  1  0
 32 33  2  0
 34 33  1  0
 34 38  1  0
 35 34  2  0
 36 31  2  0
 36 35  1  0
 37 36  1  0
 39 40  1  0
 40 43  1  0
 40 42  1  0
 41 39  2  0
 44 19  1  0
 44 45  1  0
 46 44  1  0
 48 47  1  0
 49 60  2  0
 50 48  1  0
 50 55  1  0
 51 59  1  0
 51 61  1  0
 52 58  1  0
 52 54  1  0
 53 59  1  0
 54 53  1  0
 55 54  2  0
 56 50  2  0
 57 56  1  0
 57 52  2  0
 58 51  1  0
 59 49  1  0
 61 63  2  0
 62 61  1  0
 64 62  1  0
 65 74  2  0
 65 70  1  0
 66 62  1  0
 66 70  1  0
 67 66  1  0
 68 69  1  0
 68 67  1  0
 69 65  1  0
 70 71  2  0
 71 72  1  0
 73 72  2  0
 74 73  1  0
 75 49  1  0
 75 80  1  0
 75 76  1  0
 76 79  1  1
 76 77  1  0
 78 76  1  0
 80 83  1  0
 81 85  1  0
 81 80  1  0
 82 81  2  0
 85 84  1  0
 87 85  1  0
 87 88  1  0
 87 86  1  0
M  ISO  4  10 100  11 100  47 101  48 101
M  END
>  <TORSDO>  (13) 
F 19

>  <SCORE>  (13) 
-15.912

>  <name>  (13) 
12

>  <ligand_id>  (13) 
12

>  <original_smiles>  (13) 
[H]c1nc(C([H])([H])C(=O)N2C([H])([H])C([H])([H])C([H])([H])C([H])(n3nc(-c4c([H])c([H])c(Oc5c([H])c([H])c(F)c([H])c5F)c([H])c4[H])c(C(=O)N([H])[H])c3N([H])[H])C2([H])[H])nnc1C(C([H])([H])[H])(C([H])([H])[H])C([H])([H])Oc1c([H])c([H])c2c(c1[H])C([H])([H])N(C(=O)C([H])(N([H])C(=O)C([H])(N([H])C([H])([H])[H])C([H])([H])[H])C(C([H])([H])[H])(C([H])([H])[H])C([H])([H])[H])C([H])(C(=O)N([H])C1([H])c3c([H])c([H])c([H])c([H])c3C([H])([H])C([H])([H])C1([H])[H])C2([H])[H]

>  <smiles>  (13) 
[H]c1nc(C([H])([H])C(=O)N2C([H])([H])C([H])([H])C([H])([H])C([H])(n3nc(-c4c([H])c([H])c(Oc5c([H])c([H])c(F)c([H])c5F)c([H])c4[H])c(C(=O)N([H])[H])c3N([H])[H])C2([H])[H])nnc1C(C([H])([H])[H])(C([H])([H])[H])C([H])([H])Oc1c([H])c([H])c2c(c1[H])C([H])([H])N(C(=O)C([H])(N([H])C(=O)C([H])(N([H])C([H])([H])[H])C([H])([H])[H])C(C([H])([H])[H])(C([H])([H])[H])C([H])([H])[H])C([H])(C(=O)N([H])C1([H])c3c([H])c([H])c([H])c([H])c3C([H])([H])C([H])([H])C1([H])[H])C2([H])[H]

$$$$
13:0:0
     RDKit          3D

 96104  0  0  1  0  0  0  0  0999 V2000
  -26.5560  -23.1400   20.6450 C   0  0  0  0  0  2  0  0  0  0  0  0
  -27.7650  -22.7310   20.0510 C   0  0  0  0  0  2  0  0  0  0  0  0
  -26.3850  -25.5500   19.5440 C   0  0  0  0  0  3  0  0  0  0  0  0
  -25.8290  -24.3590   20.1210 N   0  0  2  0  0  4  0  0  0  0  0  0
  -27.5920  -24.3910   19.5900 N   0  0  1  0  0  4  0  0  0  0  0  0
  -28.3600  -24.6910   18.9910 H   0  0  0  0  0  0  0  0  0  0  0  0
  -25.8790  -29.5180   16.8440 C   0  0  0  0  0  1  0  0  0  0  0  0
  -24.3450  -27.7390   15.9410 C   0  0  0  0  0  1  0  0  0  0  0  0
  -26.6120  -27.7900   15.6060 C   0  0  0  0  0  1  0  0  0  0  0  0
  -25.6330  -27.9180   16.9400 C   0  0  1  0  0  0  0  0  0  0  0  0
  -28.8370  -20.7220   19.8700 C   0  0  0  0  0 15  0  0  0  0  0  0
  -29.9420  -16.9940   19.8960 C   0  0  0  0  0  0  0  0  0  0  0  0
  -30.4260  -14.2050   19.1360 C   0  0  0  0  0  2  0  0  0  0  0  0
  -29.6930  -13.2670   18.0780 C   0  0  0  0  0  2  0  0  0  0  0  0
  -28.4030  -12.6710   18.6300 C   0  0  0  0  0  2  0  0  0  0  0  0
  -27.7460  -13.7410   19.5100 C   0  0  0  0  0  3  0  0  0  0  0  0
  -28.6720  -14.4810   20.5360 C   0  0  0  0  0  2  0  0  0  0  0  0
  -29.6050  -15.4320   19.8070 N   0  0  0  0  0  0  0  0  0  0  0  0
  -31.1780  -16.8120   19.6340 O   0  0  0  0  0  0  0  0  0  0  0  0
  -29.3520  -18.7760   21.5830 C   0  0  0  0  0  1  0  0  0  0  0  0
  -29.1630  -18.6210   20.1470 N   0  0  0  0  0  2  0  0  0  0  0  0
  -25.4710  -14.2090   20.4530 C   0  0  0  0  0  0  0  0  0  0  0  0
  -24.4210  -13.4300   20.8380 C   0  0  0  0  0  0  0  0  0  0  0  0
  -24.8480  -12.0770   20.6730 C   0  0  0  0  0  0  0  0  0  0  0  0
  -26.4730  -13.3400   20.0780 N   0  0  0  0  0  0  0  0  0  0  0  0
  -26.1180  -12.0390   20.2630 N   0  0  0  0  0  0  0  0  0  0  0  0
  -24.0870  -10.8270   20.8230 C   0  0  0  0  0  0  0  0  0  0  0  0
  -24.5240   -9.7880   21.6730 C   0  0  0  0  0  3  0  0  0  0  0  0
  -23.7550   -8.6140   21.8230 C   0  0  0  0  0  3  0  0  0  0  0  0
  -22.5330   -8.4700   21.1240 C   0  0  0  0  0  0  0  0  0  0  0  0
  -22.1140   -9.4980   20.2610 C   0  0  0  0  0  3  0  0  0  0  0  0
  -22.8840  -10.6640   20.1090 C   0  0  0  0  0  3  0  0  0  0  0  0
  -21.7350   -7.3530   21.1870 O   0  0  0  0  0  0  0  0  0  0  0  0
  -21.6810   -6.5650   22.3080 C   0  0  0  0  0  0  0  0  0  0  0  0
  -21.2180   -7.0620   23.5460 C   0  0  0  0  0  3  0  0  0  0  0  0
  -21.1160   -6.2020   24.6570 C   0  0  0  0  0  3  0  0  0  0  0  0
  -21.4660   -4.8440   24.5320 C   0  0  0  0  0  0  0  0  0  0  0  0
  -21.9200   -4.3450   23.2990 C   0  0  0  0  0  3  0  0  0  0  0  0
  -22.0260   -5.2020   22.1900 C   0  0  0  0  0  0  0  0  0  0  0  0
  -22.4440   -4.7110   20.9980 F   0  0  0  0  0  0  0  0  0  0  0  0
  -21.3610   -4.0150   25.5970 F   0  0  0  0  0  0  0  0  0  0  0  0
  -23.0660  -13.9330   21.2330 C   0  0  0  0  0  0  0  0  0  0  0  0
  -22.3840  -13.2190   22.1180 N   0  0  0  0  0  0  0  0  0  0  0  0
  -22.6300  -14.9990   20.7990 O   0  0  0  0  0  0  0  0  0  0  0  0
  -22.7570  -12.3580   22.4950 H   0  0  0  0  0  0  0  0  0  0  0  0
  -21.4730  -13.5340   22.4220 H   0  0  0  0  0  0  0  0  0  0  0  0
  -25.6550  -15.5870   20.3620 N   0  0  0  0  0  0  0  0  0  0  0  0
  -24.9090  -16.2390   20.5820 H   0  0  0  0  0  0  0  0  0  0  0  0
  -26.4860  -16.0440   20.0120 H   0  0  0  0  0  0  0  0  0  0  0  0
  -24.5160  -23.9940   19.7880 C   0  0  0  0  0  3  0  0  0  0  0  0
  -24.1120  -23.9870   22.4010 C   0  0  0  0  0  1  0  0  0  0  0  0
  -23.9010  -23.2250   21.0270 C   0  0  0  0  0  2  0  0  0  0  0  0
  -24.6590  -23.6080   18.1880 C   0  0  0  0  0  2  0  0  0  0  0  0
  -25.9870  -23.9770   17.1910 C   0  0  0  0  0  2  0  0  0  0  0  0
  -27.0860  -25.2890   17.0500 C   0  0  0  0  0  2  0  0  0  0  0  0
  -27.7970  -26.2080   18.0900 O   0  0  0  0  0  0  0  0  0  0  0  0
  -24.6660  -31.9440   23.1700 C   0  0  0  0  0  0  0  0  0  0  0  0
  -26.9830  -27.1180   18.6160 C   0  0  2  0  0  0  0  0  0  0  0  0
  -23.2460  -30.6140   21.6550 C   0  0  0  0  0  3  0  0  0  0  0  0
  -24.3820  -28.5610   20.2370 C   0  0  0  0  0  3  0  0  0  0  0  0
  -25.8010  -30.3230   21.4700 C   0  0  0  0  0  2  0  0  0  0  0  0
  -25.7770  -28.8560   20.7190 C   0  0  0  0  0  3  0  0  0  0  0  0
  -27.0580  -28.0700   20.0530 C   0  0  0  0  0  2  0  0  0  0  0  0
  -25.2860  -26.8100   18.1850 C   0  0  0  0  0  3  0  0  0  0  0  0
  -24.1690  -27.4820   19.1660 C   0  0  0  0  0  2  0  0  0  0  0  0
  -23.3620  -29.7970   20.3270 C   0  0  0  0  0  2  0  0  0  0  0  0
  -24.6010  -31.0470   22.0980 N   0  0  0  0  0  0  0  0  0  0  0  0
  -23.6650  -32.2960   23.8110 O   0  0  0  0  0  0  0  0  0  0  0  0
  -22.5740  -29.7200   22.7050 C   0  0  0  0  0  0  0  0  0  0  0  0
  -21.2670  -29.4440   22.6000 N   0  0  0  0  0  0  0  0  0  0  0  0
  -23.2830  -29.2420   23.5960 O   0  0  0  0  0  0  0  0  0  0  0  0
  -20.7140  -29.8850   21.8820 H   0  0  0  0  0  0  0  0  0  0  0  0
  -18.2510  -27.4490   22.8980 C   0  0  0  0  0  0  0  0  0  0  0  0
  -20.5850  -28.4360   23.4140 C   0  0  0  0  0  3  0  0  0  0  0  0
  -21.1420  -27.0270   23.1190 C   0  0  0  0  0  2  0  0  0  0  0  0
  -20.3390  -26.2760   22.0540 C   0  0  0  0  0  2  0  0  0  0  0  0
  -18.8790  -26.1160   22.4980 C   0  0  0  0  0  2  0  0  0  0  0  0
  -19.0600  -28.5400   23.3070 C   0  0  0  0  0  0  0  0  0  0  0  0
  -18.4470  -29.7690   23.6290 C   0  0  0  0  0  3  0  0  0  0  0  0
  -17.0460  -29.9120   23.5720 C   0  0  0  0  0  3  0  0  0  0  0  0
  -16.2430  -28.8220   23.1880 C   0  0  0  0  0  3  0  0  0  0  0  0
  -16.8480  -27.5980   22.8460 C   0  0  0  0  0  3  0  0  0  0  0  0
  -26.0110  -32.5790   23.6500 C   0  0  0  0  0  3  0  0  0  0  0  0
  -25.7530  -33.9870   24.0590 N   0  0  0  0  0  0  0  0  0  0  0  0
  -26.0170  -35.0810   23.3370 C   0  0  0  0  0  0  0  0  0  0  0  0
  -26.5210  -35.0340   22.2150 O   0  0  0  0  0  0  0  0  0  0  0  0
  -25.2260  -34.1070   24.9120 H   0  0  0  0  0  0  0  0  0  0  0  0
  -24.3180  -36.9430   23.4570 C   0  0  0  0  0  1  0  0  0  0  0  0
  -25.6760  -36.4410   23.9660 C   0  0  0  0  0  3  0  0  0  0  0  0
  -27.9380  -37.2920   24.4260 C   0  0  0  0  0  1  0  0  0  0  0  0
  -26.6830  -37.4880   23.7110 N   0  0  0  0  0  0  0  0  0  0  0  0
  -26.3050  -38.3950   23.9600 H   0  0  0  0  0  0  0  0  0  0  0  0
  -26.6690  -31.8220   24.8710 C   0  0  1  0  0  0  0  0  0  0  0  0
  -25.6780  -31.5680   26.0350 C   0  0  0  0  0  1  0  0  0  0  0  0
  -27.2650  -30.4680   24.4740 C   0  0  0  0  0  1  0  0  0  0  0  0
  -27.8800  -32.6060   25.4100 C   0  0  0  0  0  1  0  0  0  0  0  0
  2  1  1  0
  3  5  1  0
  3  4  1  0
  4  1  1  1
  5  2  1  0
  5  4  1  0
  5  6  1  1
 10  7  1  1
  8 10  1  0
  9 10  1  0
 10 64  1  0
 12 21  1  0
 13 18  1  0
 14 15  1  0
 14 13  1  0
 15 16  1  0
 16 25  1  0
 16 17  1  0
 18 12  1  0
 18 17  1  0
 19 12  2  0
 21 20  1  0
 22 23  2  0
 23 42  1  0
 24 27  1  0
 24 23  1  0
 25 26  1  0
 25 22  1  0
 26 24  2  0
 27 28  1  0
 28 29  2  0
 30 33  1  0
 30 29  1  0
 31 30  2  0
 32 31  1  0
 32 27  2  0
 33 34  1  0
 34 35  1  0
 35 36  2  0
 37 36  1  0
 37 41  1  0
 38 37  2  0
 39 34  2  0
 39 38  1  0
 40 39  1  0
 42 43  1  0
 43 46  1  0
 43 45  1  0
 44 42  2  0
 47 22  1  0
 47 48  1  0
 49 47  1  0
 50  4  1  0
 50 52  1  0
 52 51  1  0
 53 50  1  0
 54 53  1  0
 55 54  1  0
 55 56  1  0
 56 58  1  0
 57 83  1  0
 57 68  2  0
 58  3  1  0
 58 63  1  1
 59 67  1  0
 59 69  1  0
 60 66  1  0
 60 62  1  0
 61 67  1  0
 62 61  1  0
 63 62  1  0
 64 58  1  0
 64 65  1  0
 65 60  1  0
 66 59  1  0
 67 57  1  0
 69 71  2  0
 70 69  1  0
 70 74  1  0
 72 70  1  0
 73 78  1  0
 75 74  1  0
 76 77  1  0
 76 75  1  0
 77 73  1  0
 78 74  1  0
 78 79  2  0
 80 79  1  0
 81 80  2  0
 82 73  2  0
 82 81  1  0
 83 84  1  0
 83 93  1  0
 84 87  1  0
 85 89  1  0
 85 84  1  0
 86 85  2  0
 88 89  1  0
 91 92  1  0
 91 89  1  0
 91 90  1  0
 93 96  1  1
 93 94  1  0
 95 93  1  0
M  ISO  4  12 100  21 100  55 101  56 101
M  END
>  <TORSDO>  (14) 
F 23

>  <SCORE>  (14) 
-12.796

>  <name>  (14) 
13

>  <ligand_id>  (14) 
13

>  <original_smiles>  (14) 
[H]c1c([H])c([H])c2c(c1[H])C([H])([H])C([H])([H])C([H])([H])C2([H])N([H])C(=O)C1([H])N(C(=O)C([H])(N([H])C(=O)C([H])(N([H])C([H])([H])[H])C([H])([H])[H])C(C([H])([H])[H])(C([H])([H])[H])C([H])([H])[H])C([H])([H])c2c([H])c(OC([H])([H])C([H])([H])C([H])([H])C([H])(n3c([H])c(C([H])([H])N(C(=O)N4C([H])([H])C([H])([H])C([H])([H])C([H])(n5nc(-c6c([H])c([H])c(Oc7c([H])c([H])c(F)c([H])c7F)c([H])c6[H])c(C(=O)N([H])[H])c5N([H])[H])C4([H])[H])C([H])([H])[H])[n+]([H])c3C(C([H])([H])[H])(C([H])([H])[H])C([H])([H])[H])C([H])([H])C([H])([H])[H])c([H])c([H])c2C1([H])[H]

>  <smiles>  (14) 
[H]c1c([H])c([H])c2c(c1[H])C([H])([H])C([H])([H])C([H])([H])C2([H])N([H])C(=O)C1([H])N(C(=O)C([H])(N([H])C(=O)C([H])(N([H])C([H])([H])[H])C([H])([H])[H])C(C([H])([H])[H])(C([H])([H])[H])C([H])([H])[H])C([H])([H])c2c([H])c(OC([H])([H])C([H])([H])C([H])([H])C([H])(n3c([H])c(C([H])([H])N(C(=O)N4C([H])([H])C([H])([H])C([H])([H])C([H])(n5nc(-c6c([H])c([H])c(Oc7c([H])c([H])c(F)c([H])c7F)c([H])c6[H])c(C(=O)N([H])[H])c5N([H])[H])C4([H])[H])C([H])([H])[H])[n+]([H])c3C(C([H])([H])[H])(C([H])([H])[H])C([H])([H])[H])C([H])([H])C([H])([H])[H])c([H])c([H])c2C1([H])[H]

$$$$
14:0:0
     RDKit          3D

 92100  0  0  1  0  0  0  0  0999 V2000
  -29.2910  -20.7920   20.2720 C   0  0  0  0  0  0  0  0  0  0  0  0
  -29.8600  -18.6730   20.1550 C   0  0  0  0  0  3  0  0  0  0  0  0
  -28.7770  -19.4870   20.3500 N   0  0  0  0  0  0  0  0  0  0  0  0
  -30.6100  -20.7910   20.0980 N   0  0  0  0  0  2  0  0  0  0  0  0
  -30.9630  -19.4570   20.0700 N   0  0  0  0  0  0  0  0  0  0  0  0
  -33.3680  -20.0130   20.4700 C   0  0  0  0  0  1  0  0  0  0  0  0
  -32.5800  -19.0480   18.2440 C   0  0  0  0  0  1  0  0  0  0  0  0
  -32.3500  -19.0920   19.7670 C   0  0  0  0  0  3  0  0  0  0  0  0
  -28.9240  -16.9300   18.5310 C   0  0  0  0  0  1  0  0  0  0  0  0
  -29.8990  -17.1400   19.7000 C   0  0  0  0  0  3  0  0  0  0  0  0
  -30.5730  -14.7840   20.5210 C   0  0  0  0  0  0  0  0  0  0  0  0
  -30.3960  -12.4840   19.5750 C   0  0  0  0  0  2  0  0  0  0  0  0
  -29.5130  -12.5580   18.3100 C   0  0  0  0  0  2  0  0  0  0  0  0
  -28.0210  -12.4160   18.6780 C   0  0  0  0  0  2  0  0  0  0  0  0
  -27.6110  -13.2980   19.8900 C   0  0  0  0  0  3  0  0  0  0  0  0
  -28.6330  -13.2140   21.0470 C   0  0  0  0  0  2  0  0  0  0  0  0
  -29.9490  -13.5550   20.4980 N   0  0  0  0  0  0  0  0  0  0  0  0
  -31.7550  -14.8700   20.1870 O   0  0  0  0  0  0  0  0  0  0  0  0
  -29.7970  -15.9300   20.6310 N   0  0  0  0  0  0  0  0  0  0  0  0
  -28.8810  -15.7900   21.0310 H   0  0  0  0  0  0  0  0  0  0  0  0
  -25.2020  -13.8820   20.5440 C   0  0  0  0  0  0  0  0  0  0  0  0
  -24.1290  -13.1070   20.8910 C   0  0  0  0  0  0  0  0  0  0  0  0
  -24.5960  -11.7580   20.8850 C   0  0  0  0  0  0  0  0  0  0  0  0
  -26.2550  -13.0050   20.3410 N   0  0  0  0  0  0  0  0  0  0  0  0
  -25.8960  -11.7220   20.6120 N   0  0  0  0  0  0  0  0  0  0  0  0
  -23.8670  -10.4950   21.0650 C   0  0  0  0  0  0  0  0  0  0  0  0
  -24.2810   -9.5300   22.0090 C   0  0  0  0  0  3  0  0  0  0  0  0
  -23.5510   -8.3340   22.1810 C   0  0  0  0  0  3  0  0  0  0  0  0
  -22.3900   -8.0940   21.4080 C   0  0  0  0  0  0  0  0  0  0  0  0
  -21.9930   -9.0490   20.4550 C   0  0  0  0  0  3  0  0  0  0  0  0
  -22.7240  -10.2360   20.2810 C   0  0  0  0  0  3  0  0  0  0  0  0
  -21.6320   -6.9510   21.4880 O   0  0  0  0  0  0  0  0  0  0  0  0
  -21.5720   -6.2060   22.6380 C   0  0  0  0  0  0  0  0  0  0  0  0
  -21.1390   -6.7580   23.8630 C   0  0  0  0  0  3  0  0  0  0  0  0
  -21.0250   -5.9380   25.0040 C   0  0  0  0  0  3  0  0  0  0  0  0
  -21.3370   -4.5680   24.9200 C   0  0  0  0  0  0  0  0  0  0  0  0
  -21.7630   -4.0160   23.7000 C   0  0  0  0  0  3  0  0  0  0  0  0
  -21.8780   -4.8320   22.5610 C   0  0  0  0  0  0  0  0  0  0  0  0
  -22.2690   -4.2890   21.3830 F   0  0  0  0  0  0  0  0  0  0  0  0
  -21.2200   -3.7800   26.0140 F   0  0  0  0  0  0  0  0  0  0  0  0
  -22.7230  -13.5840   21.1160 C   0  0  0  0  0  0  0  0  0  0  0  0
  -21.9700  -12.8960   21.9660 N   0  0  0  0  0  0  0  0  0  0  0  0
  -22.3000  -14.6030   20.5720 O   0  0  0  0  0  0  0  0  0  0  0  0
  -22.3270  -12.0740   22.4310 H   0  0  0  0  0  0  0  0  0  0  0  0
  -21.0260  -13.1970   22.1550 H   0  0  0  0  0  0  0  0  0  0  0  0
  -25.3650  -15.2510   20.3590 N   0  0  0  0  0  0  0  0  0  0  0  0
  -24.5890  -15.9000   20.4520 H   0  0  0  0  0  0  0  0  0  0  0  0
  -26.2140  -15.6930   20.0340 H   0  0  0  0  0  0  0  0  0  0  0  0
  -28.4350  -22.1150   20.0950 C   0  0  0  0  0  2  0  0  0  0  0  0
  -28.9630  -23.6280   20.4100 C   0  0  0  0  0  3  0  0  0  0  0  0
  -27.9880  -24.8820   20.0310 C   0  0  0  0  0  3  0  0  0  0  0  0
  -28.2660  -26.3540   20.2730 O   0  0  0  0  0  0  0  0  0  0  0  0
  -24.6130  -31.9100   23.2630 C   0  0  0  0  0  0  0  0  0  0  0  0
  -27.1860  -27.2800   20.2070 C   0  0  0  0  0  0  0  0  0  0  0  0
  -23.4030  -30.5180   21.6260 C   0  0  0  0  0  3  0  0  0  0  0  0
  -24.8430  -28.9600   20.1920 C   0  0  0  0  0  0  0  0  0  0  0  0
  -25.9500  -30.8040   21.4470 C   0  0  0  0  0  2  0  0  0  0  0  0
  -26.0200  -29.4220   20.7960 C   0  0  0  0  0  0  0  0  0  0  0  0
  -27.1930  -28.5940   20.7940 C   0  0  0  0  0  3  0  0  0  0  0  0
  -25.9860  -26.9030   19.5580 C   0  0  0  0  0  3  0  0  0  0  0  0
  -24.8360  -27.7110   19.5580 C   0  0  0  0  0  3  0  0  0  0  0  0
  -23.6140  -29.8470   20.2440 C   0  0  0  0  0  2  0  0  0  0  0  0
  -24.6750  -31.0960   22.1680 N   0  0  0  0  0  0  0  0  0  0  0  0
  -23.5310  -32.1920   23.7990 O   0  0  0  0  0  0  0  0  0  0  0  0
  -22.7350  -29.5050   22.5880 C   0  0  0  0  0  0  0  0  0  0  0  0
  -21.4070  -29.3260   22.4610 N   0  0  0  0  0  0  0  0  0  0  0  0
  -23.4100  -28.8810   23.4110 O   0  0  0  0  0  0  0  0  0  0  0  0
  -20.9200  -29.8770   21.7680 H   0  0  0  0  0  0  0  0  0  0  0  0
  -18.0300  -28.1250   22.9590 C   0  0  0  0  0  0  0  0  0  0  0  0
  -20.5880  -28.3930   23.2360 C   0  0  0  0  0  3  0  0  0  0  0  0
  -20.6960  -26.9580   22.6690 C   0  0  0  0  0  2  0  0  0  0  0  0
  -19.5990  -26.6260   21.6550 C   0  0  0  0  0  2  0  0  0  0  0  0
  -18.2140  -26.7710   22.2920 C   0  0  0  0  0  2  0  0  0  0  0  0
  -19.1450  -28.8920   23.3890 C   0  0  0  0  0  0  0  0  0  0  0  0
  -18.9190  -30.1570   23.9740 C   0  0  0  0  0  3  0  0  0  0  0  0
  -17.6110  -30.6540   24.1330 C   0  0  0  0  0  3  0  0  0  0  0  0
  -16.5120  -29.8840   23.7190 C   0  0  0  0  0  3  0  0  0  0  0  0
  -16.7220  -28.6200   23.1360 C   0  0  0  0  0  3  0  0  0  0  0  0
  -25.8980  -32.5390   23.8830 C   0  0  0  0  0  3  0  0  0  0  0  0
  -25.5960  -33.9420   24.2040 N   0  0  0  0  0  0  0  0  0  0  0  0
  -25.9320  -34.9880   23.4390 C   0  0  0  0  0  0  0  0  0  0  0  0
  -26.5950  -34.8740   22.4050 O   0  0  0  0  0  0  0  0  0  0  0  0
  -25.0060  -34.1040   25.0070 H   0  0  0  0  0  0  0  0  0  0  0  0
  -24.2120  -36.7910   23.0830 C   0  0  0  0  0  1  0  0  0  0  0  0
  -25.4550  -36.3830   23.8900 C   0  0  0  0  0  3  0  0  0  0  0  0
  -27.6020  -37.2610   24.7010 C   0  0  0  0  0  1  0  0  0  0  0  0
  -26.4950  -37.4290   23.7630 N   0  0  0  0  0  0  0  0  0  0  0  0
  -26.0950  -38.3530   23.9030 H   0  0  0  0  0  0  0  0  0  0  0  0
  -26.4030  -31.7760   25.1670 C   0  0  1  0  0  0  0  0  0  0  0  0
  -25.3020  -31.5600   26.2320 C   0  0  0  0  0  1  0  0  0  0  0  0
  -26.9740  -30.3900   24.7920 C   0  0  0  0  0  1  0  0  0  0  0  0
  -27.5600  -32.5650   25.8240 C   0  0  0  0  0  1  0  0  0  0  0  0
  1  3  2  0
  2 10  1  0
  2  3  1  0
  4  1  1  0
  5  4  1  0
  5  2  1  0
  7  8  1  0
  8  5  1  0
  8  6  1  0
 10  9  1  0
 10 19  1  0
 11 19  1  0
 12 17  1  0
 13 14  1  0
 13 12  1  0
 15 14  1  0
 15 24  1  0
 15 16  1  0
 17 11  1  0
 17 16  1  0
 18 11  2  0
 19 20  1  0
 21 22  2  0
 22 41  1  0
 23 22  1  0
 23 26  1  0
 24 21  1  0
 24 25  1  0
 25 23  2  0
 26 27  1  0
 27 28  2  0
 29 32  1  0
 29 28  1  0
 30 29  2  0
 31 30  1  0
 31 26  2  0
 32 33  1  0
 33 34  1  0
 34 35  2  0
 36 35  1  0
 36 40  1  0
 37 36  2  0
 38 33  2  0
 38 37  1  0
 39 38  1  0
 41 42  1  0
 42 45  1  0
 42 44  1  0
 43 41  2  0
 46 47  1  0
 46 21  1  0
 48 46  1  0
 49  1  1  0
 49 50  1  0
 51 52  1  0
 51 50  2  0
 53 64  2  0
 54 52  1  0
 54 59  1  0
 55 63  1  0
 55 65  1  0
 56 62  1  0
 56 58  1  0
 57 63  1  0
 58 57  1  0
 59 58  2  0
 60 54  2  0
 61 60  1  0
 61 56  2  0
 62 55  1  0
 63 53  1  0
 65 67  2  0
 66 65  1  0
 68 66  1  0
 69 78  2  0
 69 74  1  0
 70 66  1  0
 70 74  1  0
 71 70  1  0
 72 73  1  0
 72 71  1  0
 73 69  1  0
 74 75  2  0
 75 76  1  0
 77 76  2  0
 78 77  1  0
 79 53  1  0
 79 80  1  0
 79 89  1  0
 80 83  1  0
 81 85  1  0
 81 80  1  0
 82 81  2  0
 85 84  1  0
 87 85  1  0
 87 88  1  0
 87 86  1  0
 89 92  1  1
 89 90  1  0
 91 89  1  0
M  ISO  4  11 100  19 100  51 101  52 101
M  END
>  <TORSDO>  (15) 
F 21

>  <SCORE>  (15) 
-13.444

>  <name>  (15) 
14

>  <ligand_id>  (15) 
14

>  <original_smiles>  (15) 
[H]c1c([H])c([H])c2c(c1[H])C([H])([H])C([H])([H])C([H])([H])C2([H])N([H])C(=O)C1([H])N(C(=O)C([H])(N([H])C(=O)C([H])(N([H])C([H])([H])[H])C([H])([H])[H])C(C([H])([H])[H])(C([H])([H])[H])C([H])([H])[H])C([H])([H])c2c([H])c(OC([H])([H])C([H])([H])C([H])([H])c3nc(C([H])(N([H])C(=O)N4C([H])([H])C([H])([H])C([H])([H])C([H])(n5nc(-c6c([H])c([H])c(Oc7c([H])c([H])c(F)c([H])c7F)c([H])c6[H])c(C(=O)N([H])[H])c5N([H])[H])C4([H])[H])C([H])([H])[H])n(C([H])(C([H])([H])[H])C([H])([H])[H])n3)c([H])c([H])c2C1([H])[H]

>  <smiles>  (15) 
[H]c1c([H])c([H])c2c(c1[H])C([H])([H])C([H])([H])C([H])([H])C2([H])N([H])C(=O)C1([H])N(C(=O)C([H])(N([H])C(=O)C([H])(N([H])C([H])([H])[H])C([H])([H])[H])C(C([H])([H])[H])(C([H])([H])[H])C([H])([H])[H])C([H])([H])c2c([H])c(OC([H])([H])C([H])([H])C([H])([H])c3nc(C([H])(N([H])C(=O)N4C([H])([H])C([H])([H])C([H])([H])C([H])(n5nc(-c6c([H])c([H])c(Oc7c([H])c([H])c(F)c([H])c7F)c([H])c6[H])c(C(=O)N([H])[H])c5N([H])[H])C4([H])[H])C([H])([H])[H])n(C([H])(C([H])([H])[H])C([H])([H])[H])n3)c([H])c([H])c2C1([H])[H]

$$$$
15:0:0
     RDKit          3D

 95103  0  0  1  0  0  0  0  0999 V2000
  -29.6880  -17.6790   21.9420 C   0  0  0  0  0  0  0  0  0  0  0  0
  -28.0110  -18.7420   22.5960 C   0  0  0  0  0  3  0  0  0  0  0  0
  -28.6750  -17.6090   22.8420 N   0  0  0  0  0  0  0  0  0  0  0  0
  -29.6430  -18.7260   21.1200 N   0  0  0  0  0  2  0  0  0  0  0  0
  -28.5920  -19.4510   21.5940 N   0  0  0  0  0  0  0  0  0  0  0  0
  -25.9680  -17.9240   23.7940 C   0  0  0  0  0  1  0  0  0  0  0  0
  -25.9210  -20.2390   22.9490 C   0  0  0  0  0  1  0  0  0  0  0  0
  -27.4360  -19.6630   24.8470 C   0  0  0  0  0  1  0  0  0  0  0  0
  -26.8600  -19.1550   23.5120 C   0  0  2  0  0  0  0  0  0  0  0  0
  -32.0710  -17.1490   21.2640 C   0  0  0  0  0  1  0  0  0  0  0  0
  -30.7610  -16.6260   21.9010 C   0  0  0  0  0  3  0  0  0  0  0  0
  -30.7610  -14.4160   20.6100 C   0  0  0  0  0  0  0  0  0  0  0  0
  -30.4040  -12.2880   19.4160 C   0  0  0  0  0  2  0  0  0  0  0  0
  -29.4820  -12.5050   18.2030 C   0  0  0  0  0  2  0  0  0  0  0  0
  -28.0070  -12.3620   18.6210 C   0  0  0  0  0  2  0  0  0  0  0  0
  -27.6600  -13.2070   19.8750 C   0  0  0  0  0  3  0  0  0  0  0  0
  -28.7010  -12.9940   20.9980 C   0  0  0  0  0  2  0  0  0  0  0  0
  -30.0370  -13.2760   20.4440 N   0  0  0  0  0  0  0  0  0  0  0  0
  -31.8340  -14.5980   20.0350 O   0  0  0  0  0  0  0  0  0  0  0  0
  -30.2230  -15.3400   21.4200 N   0  0  0  0  0  0  0  0  0  0  0  0
  -29.3170  -15.1160   21.8010 H   0  0  0  0  0  0  0  0  0  0  0  0
  -25.2580  -13.8170   20.5700 C   0  0  0  0  0  0  0  0  0  0  0  0
  -24.1820  -13.0450   20.9180 C   0  0  0  0  0  0  0  0  0  0  0  0
  -24.6370  -11.6910   20.8740 C   0  0  0  0  0  0  0  0  0  0  0  0
  -26.3010  -12.9340   20.3390 N   0  0  0  0  0  0  0  0  0  0  0  0
  -25.9300  -11.6510   20.5780 N   0  0  0  0  0  0  0  0  0  0  0  0
  -23.9040  -10.4290   21.0410 C   0  0  0  0  0  0  0  0  0  0  0  0
  -24.3610   -9.4210   21.9190 C   0  0  0  0  0  3  0  0  0  0  0  0
  -23.6290   -8.2250   22.0750 C   0  0  0  0  0  3  0  0  0  0  0  0
  -22.4270   -8.0280   21.3540 C   0  0  0  0  0  0  0  0  0  0  0  0
  -21.9900   -9.0250   20.4650 C   0  0  0  0  0  3  0  0  0  0  0  0
  -22.7220  -10.2130   20.3060 C   0  0  0  0  0  3  0  0  0  0  0  0
  -21.6630   -6.8880   21.4240 O   0  0  0  0  0  0  0  0  0  0  0  0
  -21.6840   -6.0740   22.5280 C   0  0  0  0  0  0  0  0  0  0  0  0
  -21.4010   -6.5650   23.8210 C   0  0  0  0  0  3  0  0  0  0  0  0
  -21.3660   -5.6800   24.9180 C   0  0  0  0  0  3  0  0  0  0  0  0
  -21.6050   -4.3060   24.7220 C   0  0  0  0  0  0  0  0  0  0  0  0
  -21.8810   -3.8150   23.4350 C   0  0  0  0  0  3  0  0  0  0  0  0
  -21.9180   -4.6960   22.3400 C   0  0  0  0  0  0  0  0  0  0  0  0
  -22.1660   -4.2150   21.0980 F   0  0  0  0  0  0  0  0  0  0  0  0
  -21.5630   -3.4550   25.7740 F   0  0  0  0  0  0  0  0  0  0  0  0
  -22.7850  -13.5250   21.1850 C   0  0  0  0  0  0  0  0  0  0  0  0
  -22.0500  -12.8240   22.0410 N   0  0  0  0  0  0  0  0  0  0  0  0
  -22.3540  -14.5560   20.6700 O   0  0  0  0  0  0  0  0  0  0  0  0
  -22.4110  -11.9890   22.4790 H   0  0  0  0  0  0  0  0  0  0  0  0
  -21.1130  -13.1290   22.2650 H   0  0  0  0  0  0  0  0  0  0  0  0
  -25.4310  -15.1900   20.4120 N   0  0  0  0  0  0  0  0  0  0  0  0
  -24.6710  -15.8500   20.5310 H   0  0  0  0  0  0  0  0  0  0  0  0
  -26.2930  -15.6280   20.1160 H   0  0  0  0  0  0  0  0  0  0  0  0
  -28.3630  -20.7870   21.0250 C   0  0  0  0  0  2  0  0  0  0  0  0
  -29.0670  -21.8840   21.8590 C   0  0  0  0  0  2  0  0  0  0  0  0
  -28.3830  -23.2700   21.9270 C   0  0  0  0  0  2  0  0  0  0  0  0
  -28.6590  -24.2640   20.7760 C   0  0  0  0  0  2  0  0  0  0  0  0
  -28.2900  -25.7040   21.2030 C   0  0  0  0  0  2  0  0  0  0  0  0
  -28.3530  -26.6630   20.1370 O   0  0  0  0  0  0  0  0  0  0  0  0
  -24.6110  -31.8690   23.2100 C   0  0  0  0  0  0  0  0  0  0  0  0
  -27.2300  -27.4530   20.0930 C   0  0  0  0  0  0  0  0  0  0  0  0
  -23.4000  -30.4910   21.5500 C   0  0  0  0  0  3  0  0  0  0  0  0
  -24.8470  -28.9610   20.1080 C   0  0  0  0  0  0  0  0  0  0  0  0
  -25.9260  -30.8410   21.3590 C   0  0  0  0  0  2  0  0  0  0  0  0
  -26.0060  -29.4770   20.7050 C   0  0  0  0  0  0  0  0  0  0  0  0
  -27.2050  -28.7290   20.6950 C   0  0  0  0  0  3  0  0  0  0  0  0
  -26.0620  -26.9460   19.4910 C   0  0  0  0  0  3  0  0  0  0  0  0
  -24.8690  -27.6940   19.4980 C   0  0  0  0  0  3  0  0  0  0  0  0
  -23.6060  -29.8240   20.1630 C   0  0  0  0  0  2  0  0  0  0  0  0
  -24.6640  -31.0810   22.0990 N   0  0  0  0  0  0  0  0  0  0  0  0
  -23.5310  -32.1440   23.7510 O   0  0  0  0  0  0  0  0  0  0  0  0
  -22.7390  -29.4660   22.4990 C   0  0  0  0  0  0  0  0  0  0  0  0
  -21.4110  -29.3040   22.3760 N   0  0  0  0  0  0  0  0  0  0  0  0
  -23.4180  -28.8180   23.3000 O   0  0  0  0  0  0  0  0  0  0  0  0
  -20.9240  -29.8800   21.7030 H   0  0  0  0  0  0  0  0  0  0  0  0
  -18.0270  -28.1360   22.8490 C   0  0  0  0  0  0  0  0  0  0  0  0
  -20.5850  -28.3650   23.1330 C   0  0  0  0  0  3  0  0  0  0  0  0
  -20.6760  -26.9390   22.5420 C   0  0  0  0  0  2  0  0  0  0  0  0
  -19.5740  -26.6360   21.5220 C   0  0  0  0  0  2  0  0  0  0  0  0
  -18.1920  -26.7900   22.1630 C   0  0  0  0  0  2  0  0  0  0  0  0
  -19.1510  -28.8810   23.2910 C   0  0  0  0  0  0  0  0  0  0  0  0
  -18.9440  -30.1420   23.8910 C   0  0  0  0  0  3  0  0  0  0  0  0
  -17.6450  -30.6560   24.0560 C   0  0  0  0  0  3  0  0  0  0  0  0
  -16.5340  -29.9060   23.6320 C   0  0  0  0  0  3  0  0  0  0  0  0
  -16.7260  -28.6480   23.0320 C   0  0  0  0  0  3  0  0  0  0  0  0
  -25.9010  -32.4820   23.8390 C   0  0  0  0  0  3  0  0  0  0  0  0
  -25.5880  -33.8620   24.2340 N   0  0  0  0  0  0  0  0  0  0  0  0
  -25.9040  -34.9480   23.5150 C   0  0  0  0  0  0  0  0  0  0  0  0
  -26.5610  -34.8930   22.4710 O   0  0  0  0  0  0  0  0  0  0  0  0
  -25.0020  -33.9790   25.0470 H   0  0  0  0  0  0  0  0  0  0  0  0
  -24.1500  -36.7300   23.2640 C   0  0  0  0  0  1  0  0  0  0  0  0
  -25.4120  -36.3120   24.0350 C   0  0  0  0  0  3  0  0  0  0  0  0
  -27.5580  -37.1820   24.8480 C   0  0  0  0  0  1  0  0  0  0  0  0
  -26.4310  -37.3800   23.9410 N   0  0  0  0  0  0  0  0  0  0  0  0
  -26.0200  -38.2880   24.1430 H   0  0  0  0  0  0  0  0  0  0  0  0
  -26.4430  -31.6570   25.0700 C   0  0  1  0  0  0  0  0  0  0  0  0
  -25.3720  -31.3650   26.1460 C   0  0  0  0  0  1  0  0  0  0  0  0
  -27.0250  -30.3020   24.6020 C   0  0  0  0  0  1  0  0  0  0  0  0
  -27.6020  -32.4220   25.7480 C   0  0  0  0  0  1  0  0  0  0  0  0
  1  3  2  0
  2  3  1  0
  2  9  1  0
  4  5  1  0
  4  1  1  0
  5  2  1  0
  9  7  1  6
  9  6  1  0
  9  8  1  0
 11 10  1  0
 11  1  1  0
 12 20  1  0
 13 18  1  0
 14 15  1  0
 14 13  1  0
 16 15  1  0
 16 25  1  0
 16 17  1  0
 18 12  1  0
 18 17  1  0
 19 12  2  0
 20 21  1  0
 20 11  1  0
 22 23  2  0
 23 42  1  0
 24 23  1  0
 24 27  1  0
 25 22  1  0
 25 26  1  0
 26 24  2  0
 27 28  1  0
 28 29  2  0
 30 33  1  0
 30 29  1  0
 31 30  2  0
 32 31  1  0
 32 27  2  0
 33 34  1  0
 34 35  1  0
 35 36  2  0
 37 36  1  0
 37 41  1  0
 38 37  2  0
 39 34  2  0
 39 38  1  0
 40 39  1  0
 42 43  1  0
 43 46  1  0
 43 45  1  0
 44 42  2  0
 47 48  1  0
 47 22  1  0
 49 47  1  0
 50  5  1  0
 50 51  1  0
 51 52  1  0
 53 54  1  0
 53 52  1  0
 55 54  1  0
 56 67  2  0
 57 55  1  0
 57 62  1  0
 58 66  1  0
 58 68  1  0
 59 65  1  0
 59 61  1  0
 60 66  1  0
 61 60  1  0
 62 61  2  0
 63 64  1  0
 63 57  2  0
 64 59  2  0
 65 58  1  0
 66 56  1  0
 68 70  2  0
 69 68  1  0
 71 69  1  0
 72 81  2  0
 72 77  1  0
 73 69  1  0
 73 77  1  0
 74 73  1  0
 75 76  1  0
 75 74  1  0
 76 72  1  0
 77 78  2  0
 78 79  1  0
 80 79  2  0
 81 80  1  0
 82 56  1  0
 82 83  1  0
 82 92  1  0
 83 86  1  0
 84 88  1  0
 84 83  1  0
 85 84  2  0
 88 87  1  0
 90 88  1  0
 90 91  1  0
 90 89  1  0
 92 95  1  1
 92 93  1  0
 94 92  1  0
M  ISO  4  12 100  20 100  54 101  55 101
M  END
>  <TORSDO>  (16) 
F 23

>  <SCORE>  (16) 
37.486

>  <name>  (16) 
15

>  <ligand_id>  (16) 
15

>  <original_smiles>  (16) 
[H]c1c([H])c([H])c2c(c1[H])C([H])([H])C([H])([H])C([H])([H])C2([H])N([H])C(=O)C1([H])N(C(=O)C([H])(N([H])C(=O)C([H])(N([H])C([H])([H])[H])C([H])([H])[H])C(C([H])([H])[H])(C([H])([H])[H])C([H])([H])[H])C([H])([H])c2c([H])c(OC([H])([H])C([H])([H])C([H])([H])C([H])([H])C([H])([H])n3nc(C([H])(N([H])C(=O)N4C([H])([H])C([H])([H])C([H])([H])C([H])(n5nc(-c6c([H])c([H])c(Oc7c([H])c([H])c(F)c([H])c7F)c([H])c6[H])c(C(=O)N([H])[H])c5N([H])[H])C4([H])[H])C([H])([H])[H])nc3C(C([H])([H])[H])(C([H])([H])[H])C([H])([H])[H])c([H])c([H])c2C1([H])[H]

>  <smiles>  (16) 
[H]c1c([H])c([H])c2c(c1[H])C([H])([H])C([H])([H])C([H])([H])C2([H])N([H])C(=O)C1([H])N(C(=O)C([H])(N([H])C(=O)C([H])(N([H])C([H])([H])[H])C([H])([H])[H])C(C([H])([H])[H])(C([H])([H])[H])C([H])([H])[H])C([H])([H])c2c([H])c(OC([H])([H])C([H])([H])C([H])([H])C([H])([H])C([H])([H])n3nc(C([H])(N([H])C(=O)N4C([H])([H])C([H])([H])C([H])([H])C([H])(n5nc(-c6c([H])c([H])c(Oc7c([H])c([H])c(F)c([H])c7F)c([H])c6[H])c(C(=O)N([H])[H])c5N([H])[H])C4([H])[H])C([H])([H])[H])nc3C(C([H])([H])[H])(C([H])([H])[H])C([H])([H])[H])c([H])c([H])c2C1([H])[H]

$$$$
16:0:0
     RDKit          3D

 93101  0  0  1  0  0  0  0  0999 V2000
  -30.8760  -22.2610   20.4320 C   0  0  0  0  0  2  0  0  0  0  0  0
  -30.9240  -23.7790   18.3830 C   0  0  0  0  0  1  0  0  0  0  0  0
  -28.8230  -22.4570   18.9780 C   0  0  0  0  0  1  0  0  0  0  0  0
  -30.0400  -23.2330   19.5310 C   0  0  1  0  0  0  0  0  0  0  0  0
  -29.5490  -24.4660   20.3590 C   0  0  0  0  0  2  0  0  0  0  0  0
  -28.4270  -25.3220   19.7080 C   0  0  0  0  0  2  0  0  0  0  0  0
  -28.3840  -26.6650   20.2170 O   0  0  0  0  0  0  0  0  0  0  0  0
  -24.5620  -31.8420   23.2440 C   0  0  0  0  0  0  0  0  0  0  0  0
  -27.1990  -27.3830   20.1610 C   0  0  0  0  0  0  0  0  0  0  0  0
  -23.3560  -30.4450   21.6010 C   0  0  0  0  0  3  0  0  0  0  0  0
  -24.8040  -28.9090   20.1690 C   0  0  0  0  0  0  0  0  0  0  0  0
  -25.8830  -30.7930   21.4070 C   0  0  0  0  0  2  0  0  0  0  0  0
  -25.9650  -29.4230   20.7590 C   0  0  0  0  0  0  0  0  0  0  0  0
  -27.1600  -28.6690   20.7530 C   0  0  0  0  0  3  0  0  0  0  0  0
  -26.0180  -26.8910   19.5510 C   0  0  0  0  0  3  0  0  0  0  0  0
  -24.8270  -27.6400   19.5640 C   0  0  0  0  0  3  0  0  0  0  0  0
  -23.5660  -29.7760   20.2160 C   0  0  0  0  0  2  0  0  0  0  0  0
  -24.6210  -31.0370   22.1440 N   0  0  0  0  0  0  0  0  0  0  0  0
  -23.4780  -32.1220   23.7740 O   0  0  0  0  0  0  0  0  0  0  0  0
  -22.6950  -29.4250   22.5540 C   0  0  0  0  0  0  0  0  0  0  0  0
  -21.3730  -29.2360   22.4120 N   0  0  0  0  0  0  0  0  0  0  0  0
  -23.3700  -28.8080   23.3850 O   0  0  0  0  0  0  0  0  0  0  0  0
  -20.8820  -29.7940   21.7280 H   0  0  0  0  0  0  0  0  0  0  0  0
  -18.0010  -28.0250   22.8770 C   0  0  0  0  0  0  0  0  0  0  0  0
  -20.5530  -28.2990   23.1790 C   0  0  0  0  0  3  0  0  0  0  0  0
  -20.6680  -26.8630   22.6170 C   0  0  0  0  0  2  0  0  0  0  0  0
  -19.5830  -26.5260   21.5890 C   0  0  0  0  0  2  0  0  0  0  0  0
  -18.1940  -26.6710   22.2140 C   0  0  0  0  0  2  0  0  0  0  0  0
  -19.1100  -28.7960   23.3170 C   0  0  0  0  0  0  0  0  0  0  0  0
  -18.8790  -30.0620   23.8970 C   0  0  0  0  0  3  0  0  0  0  0  0
  -17.5700  -30.5600   24.0370 C   0  0  0  0  0  3  0  0  0  0  0  0
  -16.4750  -29.7870   23.6110 C   0  0  0  0  0  3  0  0  0  0  0  0
  -16.6920  -28.5210   23.0400 C   0  0  0  0  0  3  0  0  0  0  0  0
  -25.8470  -32.4660   23.8710 C   0  0  0  0  0  3  0  0  0  0  0  0
  -25.5480  -33.8700   24.1910 N   0  0  0  0  0  0  0  0  0  0  0  0
  -25.9010  -34.9120   23.4270 C   0  0  0  0  0  0  0  0  0  0  0  0
  -26.5830  -34.7950   22.4050 O   0  0  0  0  0  0  0  0  0  0  0  0
  -24.9410  -34.0410   24.9800 H   0  0  0  0  0  0  0  0  0  0  0  0
  -24.2020  -36.7190   23.0250 C   0  0  0  0  0  1  0  0  0  0  0  0
  -25.4200  -36.3080   23.8670 C   0  0  0  0  0  3  0  0  0  0  0  0
  -27.5440  -37.1690   24.7430 C   0  0  0  0  0  1  0  0  0  0  0  0
  -26.4680  -37.3460   23.7720 N   0  0  0  0  0  0  0  0  0  0  0  0
  -26.0700  -38.2720   23.9020 H   0  0  0  0  0  0  0  0  0  0  0  0
  -26.3550  -31.6980   25.1510 C   0  0  1  0  0  0  0  0  0  0  0  0
  -25.2550  -31.4660   26.2140 C   0  0  0  0  0  1  0  0  0  0  0  0
  -26.9340  -30.3170   24.7630 C   0  0  0  0  0  1  0  0  0  0  0  0
  -27.5100  -32.4850   25.8140 C   0  0  0  0  0  1  0  0  0  0  0  0
  -31.7020  -21.1600   19.7010 C   0  0  0  0  0  2  0  0  0  0  0  0
  -30.7030  -18.8250   19.5000 C   0  0  0  0  0  3  0  0  0  0  0  0
  -31.9090  -19.1920   21.2670 C   0  0  0  0  0  3  0  0  0  0  0  0
  -30.7290  -17.6920   20.2830 C   0  0  0  0  0  0  0  0  0  0  0  0
  -31.5130  -17.9290   21.4120 N   0  0  0  0  0  0  0  0  0  0  0  0
  -31.4510  -19.7960   20.1590 N   0  0  0  0  0  0  0  0  0  0  0  0
  -28.5490  -16.6460   20.7790 C   0  0  0  0  0  1  0  0  0  0  0  0
  -29.9140  -16.4370   20.1110 C   0  0  0  0  0  3  0  0  0  0  0  0
  -31.0740  -14.2590   19.9380 C   0  0  0  0  0  0  0  0  0  0  0  0
  -30.7000  -12.0240   18.9610 C   0  0  0  0  0  2  0  0  0  0  0  0
  -29.7250  -12.1920   17.7730 C   0  0  0  0  0  2  0  0  0  0  0  0
  -28.2560  -12.1580   18.2440 C   0  0  0  0  0  2  0  0  0  0  0  0
  -27.9990  -13.0830   19.4620 C   0  0  0  0  0  3  0  0  0  0  0  0
  -29.0730  -12.8550   20.5510 C   0  0  0  0  0  2  0  0  0  0  0  0
  -30.4050  -13.0740   19.9450 N   0  0  0  0  0  0  0  0  0  0  0  0
  -32.0850  -14.4720   19.2580 O   0  0  0  0  0  0  0  0  0  0  0  0
  -30.4860  -15.2100   20.6680 N   0  0  0  0  0  0  0  0  0  0  0  0
  -29.8990  -14.8180   21.3860 H   0  0  0  0  0  0  0  0  0  0  0  0
  -25.6750  -13.8680   20.2530 C   0  0  0  0  0  0  0  0  0  0  0  0
  -24.5700  -13.1750   20.6740 C   0  0  0  0  0  0  0  0  0  0  0  0
  -24.9310  -11.7950   20.6270 C   0  0  0  0  0  0  0  0  0  0  0  0
  -26.6450  -12.9140   19.9870 N   0  0  0  0  0  0  0  0  0  0  0  0
  -26.1990  -11.6600   20.2600 N   0  0  0  0  0  0  0  0  0  0  0  0
  -24.1260  -10.5880   20.8530 C   0  0  0  0  0  0  0  0  0  0  0  0
  -24.5210   -9.6040   21.7840 C   0  0  0  0  0  3  0  0  0  0  0  0
  -23.7220   -8.4610   21.9980 C   0  0  0  0  0  3  0  0  0  0  0  0
  -22.5140   -8.2940   21.2810 C   0  0  0  0  0  0  0  0  0  0  0  0
  -22.1370   -9.2670   20.3380 C   0  0  0  0  0  3  0  0  0  0  0  0
  -22.9350  -10.4020   20.1230 C   0  0  0  0  0  3  0  0  0  0  0  0
  -21.6880   -7.2040   21.4040 O   0  0  0  0  0  0  0  0  0  0  0  0
  -21.6090   -6.4890   22.5730 C   0  0  0  0  0  0  0  0  0  0  0  0
  -21.2350   -7.0940   23.7920 C   0  0  0  0  0  3  0  0  0  0  0  0
  -21.0970   -6.3080   24.9540 C   0  0  0  0  0  3  0  0  0  0  0  0
  -21.3250   -4.9200   24.8970 C   0  0  0  0  0  0  0  0  0  0  0  0
  -21.6920   -4.3160   23.6820 C   0  0  0  0  0  3  0  0  0  0  0  0
  -21.8300   -5.0990   22.5220 C   0  0  0  0  0  0  0  0  0  0  0  0
  -22.1630   -4.5090   21.3490 F   0  0  0  0  0  0  0  0  0  0  0  0
  -21.1860   -4.1640   26.0100 F   0  0  0  0  0  0  0  0  0  0  0  0
  -23.2260  -13.7540   21.0130 C   0  0  0  0  0  0  0  0  0  0  0  0
  -22.5040  -13.1180   21.9300 N   0  0  0  0  0  0  0  0  0  0  0  0
  -22.8300  -14.8000   20.5040 O   0  0  0  0  0  0  0  0  0  0  0  0
  -22.8420  -12.2730   22.3650 H   0  0  0  0  0  0  0  0  0  0  0  0
  -21.6030  -13.4830   22.2070 H   0  0  0  0  0  0  0  0  0  0  0  0
  -25.9230  -15.2210   20.0570 N   0  0  0  0  0  0  0  0  0  0  0  0
  -25.2010  -15.9200   20.1870 H   0  0  0  0  0  0  0  0  0  0  0  0
  -26.7740  -15.5980   19.6620 H   0  0  0  0  0  0  0  0  0  0  0  0
  4  2  1  6
  3  4  1  0
  4  5  1  0
  4  1  1  0
  6  7  1  0
  6  5  1  0
  8 19  2  0
  9  7  1  0
  9 14  1  0
 10 18  1  0
 10 20  1  0
 11 17  1  0
 11 13  1  0
 12 18  1  0
 13 12  1  0
 14 13  2  0
 15 16  1  0
 15  9  2  0
 16 11  2  0
 17 10  1  0
 18  8  1  0
 20 22  2  0
 21 20  1  0
 23 21  1  0
 24 33  2  0
 24 29  1  0
 25 21  1  0
 25 29  1  0
 26 25  1  0
 27 28  1  0
 27 26  1  0
 28 24  1  0
 29 30  2  0
 30 31  1  0
 32 31  2  0
 33 32  1  0
 34  8  1  0
 34 35  1  0
 34 44  1  0
 35 38  1  0
 36 40  1  0
 36 35  1  0
 37 36  2  0
 40 39  1  0
 42 40  1  0
 42 43  1  0
 42 41  1  0
 44 47  1  1
 44 45  1  0
 46 44  1  0
 48 53  1  0
 48  1  1  0
 49 53  1  0
 49 51  2  0
 50 52  2  0
 51 52  1  0
 53 50  1  0
 55 51  1  0
 55 64  1  0
 55 54  1  0
 56 62  1  0
 56 64  1  0
 57 62  1  0
 58 59  1  0
 58 57  1  0
 60 59  1  0
 60 69  1  0
 60 61  1  0
 62 61  1  0
 63 56  2  0
 64 65  1  0
 66 67  2  0
 67 86  1  0
 68 67  1  0
 68 71  1  0
 69 66  1  0
 69 70  1  0
 70 68  2  0
 71 72  1  0
 72 73  2  0
 74 77  1  0
 74 73  1  0
 75 74  2  0
 76 75  1  0
 76 71  2  0
 77 78  1  0
 78 79  1  0
 79 80  2  0
 81 80  1  0
 81 85  1  0
 82 81  2  0
 83 78  2  0
 83 82  1  0
 84 83  1  0
 86 87  1  0
 87 90  1  0
 87 89  1  0
 88 86  2  0
 91 92  1  0
 91 66  1  0
 93 91  1  0
M  ISO  4   6 101   7 101  56 100  64 100
M  END
>  <TORSDO>  (17) 
F 22

>  <SCORE>  (17) 
-12.947

>  <name>  (17) 
16

>  <ligand_id>  (17) 
16

>  <original_smiles>  (17) 
[H]c1c([H])c([H])c2c(c1[H])C([H])([H])C([H])([H])C([H])([H])C2([H])N([H])C(=O)C1([H])N(C(=O)C([H])(N([H])C(=O)C([H])(N([H])C([H])([H])[H])C([H])([H])[H])C(C([H])([H])[H])(C([H])([H])[H])C([H])([H])[H])C([H])([H])c2c([H])c(OC([H])([H])C([H])([H])C(C([H])([H])[H])(C([H])([H])[H])C([H])([H])C([H])([H])n3c([H])nc(C([H])(N([H])C(=O)N4C([H])([H])C([H])([H])C([H])([H])C([H])(n5nc(-c6c([H])c([H])c(Oc7c([H])c([H])c(F)c([H])c7F)c([H])c6[H])c(C(=O)N([H])[H])c5N([H])[H])C4([H])[H])C([H])([H])[H])c3[H])c([H])c([H])c2C1([H])[H]

>  <smiles>  (17) 
[H]c1c([H])c([H])c2c(c1[H])C([H])([H])C([H])([H])C([H])([H])C2([H])N([H])C(=O)C1([H])N(C(=O)C([H])(N([H])C(=O)C([H])(N([H])C([H])([H])[H])C([H])([H])[H])C(C([H])([H])[H])(C([H])([H])[H])C([H])([H])[H])C([H])([H])c2c([H])c(OC([H])([H])C([H])([H])C(C([H])([H])[H])(C([H])([H])[H])C([H])([H])C([H])([H])n3c([H])nc(C([H])(N([H])C(=O)N4C([H])([H])C([H])([H])C([H])([H])C([H])(n5nc(-c6c([H])c([H])c(Oc7c([H])c([H])c(F)c([H])c7F)c([H])c6[H])c(C(=O)N([H])[H])c5N([H])[H])C4([H])[H])C([H])([H])[H])c3[H])c([H])c([H])c2C1([H])[H]

$$$$
17:0:0
     RDKit          3D

 98106  0  0  1  0  0  0  0  0999 V2000
  -28.9710  -23.1110   22.7770 C   0  0  0  0  0  3  0  0  0  0  0  0
  -30.0010  -22.2260   22.4340 C   0  0  0  0  0  0  0  0  0  0  0  0
  -28.6880  -24.1380   21.8620 C   0  0  0  0  0  0  0  0  0  0  0  0
  -30.3240  -23.3550   20.4740 C   0  0  0  0  0  0  0  0  0  0  0  0
  -30.3800  -21.0650   23.3290 C   0  0  0  0  0  1  0  0  0  0  0  0
  -30.6960  -22.3710   21.2920 N   0  0  0  0  0  0  0  0  0  0  0  0
  -29.3510  -24.2300   20.7040 N   0  0  0  0  0  0  0  0  0  0  0  0
  -30.3030  -24.2330   18.0590 C   0  0  0  0  0  1  0  0  0  0  0  0
  -31.1840  -21.9700   18.6180 C   0  0  0  0  0  1  0  0  0  0  0  0
  -31.0750  -23.4260   19.1410 C   0  0  2  0  0  0  0  0  0  0  0  0
  -33.5410  -23.6010   18.6010 C   0  0  0  0  0  1  0  0  0  0  0  0
  -32.4110  -24.0380   19.4690 N   0  0  1  0  0  4  0  0  0  0  0  0
  -32.5540  -23.6200   20.3860 H   0  0  0  0  0  0  0  0  0  0  0  0
  -32.3630  -25.5180   19.7230 C   0  0  0  0  0  2  0  0  0  0  0  0
  -33.7270  -26.2420   19.7230 C   0  0  0  0  0  2  0  0  0  0  0  0
  -33.6550  -27.7120   20.1900 C   0  0  0  0  0  2  0  0  0  0  0  0
  -34.2910  -29.8140   19.0340 C   0  0  0  0  0  0  0  0  0  0  0  0
  -34.2900  -31.4770   17.2100 C   0  0  0  0  0  2  0  0  0  0  0  0
  -32.8800  -31.6600   16.6120 C   0  0  0  0  0  2  0  0  0  0  0  0
  -32.5750  -30.5900   15.5450 C   0  0  0  0  0  2  0  0  0  0  0  0
  -32.9080  -29.1550   16.0270 C   0  0  0  0  0  3  0  0  0  0  0  0
  -34.3330  -29.1140   16.6200 C   0  0  0  0  0  2  0  0  0  0  0  0
  -34.4240  -30.1040   17.7170 N   0  0  0  0  0  0  0  0  0  0  0  0
  -34.0250  -30.6450   19.9100 O   0  0  0  0  0  0  0  0  0  0  0  0
  -34.4860  -28.5210   19.3070 N   0  0  0  0  0  0  0  0  0  0  0  0
  -34.9280  -28.0190   18.5530 H   0  0  0  0  0  0  0  0  0  0  0  0
  -31.9700  -27.0290   14.9070 C   0  0  0  0  0  0  0  0  0  0  0  0
  -32.1190  -26.5220   13.6450 C   0  0  0  0  0  0  0  0  0  0  0  0
  -32.9870  -27.4250   12.9570 C   0  0  0  0  0  0  0  0  0  0  0  0
  -32.7400  -28.1810   14.9490 N   0  0  0  0  0  0  0  0  0  0  0  0
  -33.3940  -28.3860   13.7770 N   0  0  0  0  0  0  0  0  0  0  0  0
  -33.4140  -27.4610   11.5530 C   0  0  0  0  0  0  0  0  0  0  0  0
  -34.7780  -27.4250   11.1950 C   0  0  0  0  0  3  0  0  0  0  0  0
  -35.1640  -27.4480    9.8380 C   0  0  0  0  0  3  0  0  0  0  0  0
  -34.1810  -27.4960    8.8210 C   0  0  0  0  0  0  0  0  0  0  0  0
  -32.8230  -27.5550    9.1830 C   0  0  0  0  0  3  0  0  0  0  0  0
  -32.4420  -27.5400   10.5360 C   0  0  0  0  0  3  0  0  0  0  0  0
  -34.4620  -27.5410    7.4780 O   0  0  0  0  0  0  0  0  0  0  0  0
  -35.5890  -26.9570    6.9570 C   0  0  0  0  0  0  0  0  0  0  0  0
  -35.8570  -25.5800    7.1140 C   0  0  0  0  0  3  0  0  0  0  0  0
  -36.9910  -25.0100    6.5040 C   0  0  0  0  0  3  0  0  0  0  0  0
  -37.8540  -25.8110    5.7310 C   0  0  0  0  0  0  0  0  0  0  0  0
  -37.5850  -27.1810    5.5700 C   0  0  0  0  0  3  0  0  0  0  0  0
  -36.4540  -27.7520    6.1780 C   0  0  0  0  0  0  0  0  0  0  0  0
  -36.1890  -29.0680    6.0010 F   0  0  0  0  0  0  0  0  0  0  0  0
  -38.9390  -25.2600    5.1380 F   0  0  0  0  0  0  0  0  0  0  0  0
  -31.4200  -25.3230   13.0700 C   0  0  0  0  0  0  0  0  0  0  0  0
  -32.0840  -24.5950   12.1800 N   0  0  0  0  0  0  0  0  0  0  0  0
  -30.2970  -24.9960   13.4490 O   0  0  0  0  0  0  0  0  0  0  0  0
  -33.0140  -24.8490   11.8800 H   0  0  0  0  0  0  0  0  0  0  0  0
  -31.6480  -23.7720   11.7890 H   0  0  0  0  0  0  0  0  0  0  0  0
  -31.2350  -26.6190   16.0170 N   0  0  0  0  0  0  0  0  0  0  0  0
  -30.5470  -25.8800   15.9330 H   0  0  0  0  0  0  0  0  0  0  0  0
  -31.0920  -27.2080   16.8260 H   0  0  0  0  0  0  0  0  0  0  0  0
  -27.7650  -25.1420   22.0310 O   0  0  0  0  0  0  0  0  0  0  0  0
  -26.5040  -24.7930   22.5750 C   0  0  0  0  0  2  0  0  0  0  0  0
  -25.7900  -26.0660   23.0400 C   0  0  0  0  0  2  0  0  0  0  0  0
  -24.6010  -26.2610   22.2770 O   0  0  0  0  0  0  0  0  0  0  0  0
  -22.3340  -26.2840   15.5500 C   0  0  0  0  0  0  0  0  0  0  0  0
  -24.6440  -26.9230   21.0690 C   0  0  0  0  0  0  0  0  0  0  0  0
  -23.9830  -28.0370   16.1220 C   0  0  0  0  0  3  0  0  0  0  0  0
  -24.5060  -28.3010   18.6020 C   0  0  0  0  0  0  0  0  0  0  0  0
  -22.4420  -27.0680   17.9160 C   0  0  0  0  0  2  0  0  0  0  0  0
  -23.5440  -27.3360   18.9190 C   0  0  0  0  0  0  0  0  0  0  0  0
  -23.6090  -26.6500   20.1500 C   0  0  0  0  0  3  0  0  0  0  0  0
  -25.6200  -27.8900   20.7290 C   0  0  0  0  0  3  0  0  0  0  0  0
  -25.5500  -28.5800   19.5020 C   0  0  0  0  0  3  0  0  0  0  0  0
  -24.3510  -29.0090   17.2750 C   0  0  0  0  0  2  0  0  0  0  0  0
  -22.9040  -27.0710   16.5070 N   0  0  0  0  0  0  0  0  0  0  0  0
  -22.6650  -26.3830   14.3610 O   0  0  0  0  0  0  0  0  0  0  0  0
  -25.2750  -27.3490   15.6280 C   0  0  0  0  0  0  0  0  0  0  0  0
  -26.0270  -28.0420   14.7570 N   0  0  0  0  0  0  0  0  0  0  0  0
  -25.5980  -26.2340   16.0470 O   0  0  0  0  0  0  0  0  0  0  0  0
  -25.6880  -28.9440   14.4540 H   0  0  0  0  0  0  0  0  0  0  0  0
  -28.6290  -28.9620   12.4290 C   0  0  0  0  0  0  0  0  0  0  0  0
  -27.3020  -27.6110   14.1880 C   0  0  0  0  0  3  0  0  0  0  0  0
  -28.4710  -27.9140   15.1540 C   0  0  0  0  0  2  0  0  0  0  0  0
  -29.1390  -29.2670   14.8890 C   0  0  0  0  0  2  0  0  0  0  0  0
  -29.6850  -29.3260   13.4590 C   0  0  0  0  0  2  0  0  0  0  0  0
  -27.5020  -28.1700   12.7740 C   0  0  0  0  0  0  0  0  0  0  0  0
  -26.5310  -27.8940   11.7880 C   0  0  0  0  0  3  0  0  0  0  0  0
  -26.6780  -28.3840   10.4760 C   0  0  0  0  0  3  0  0  0  0  0  0
  -27.8050  -29.1530   10.1360 C   0  0  0  0  0  3  0  0  0  0  0  0
  -28.7770  -29.4400   11.1100 C   0  0  0  0  0  3  0  0  0  0  0  0
  -21.2270  -25.2400   15.8980 C   0  0  0  0  0  3  0  0  0  0  0  0
  -20.3750  -25.0840   14.7110 N   0  0  0  0  0  0  0  0  0  0  0  0
  -19.1930  -25.6920   14.5410 C   0  0  0  0  0  0  0  0  0  0  0  0
  -18.6680  -26.3930   15.4110 O   0  0  0  0  0  0  0  0  0  0  0  0
  -20.7640  -24.5670   13.9370 H   0  0  0  0  0  0  0  0  0  0  0  0
  -18.7700  -26.6830   12.2680 C   0  0  0  0  0  1  0  0  0  0  0  0
  -18.4800  -25.4890   13.1910 C   0  0  0  0  0  3  0  0  0  0  0  0
  -16.6510  -24.0280   13.9320 C   0  0  0  0  0  1  0  0  0  0  0  0
  -17.0170  -25.3030   13.3210 N   0  0  0  0  0  0  0  0  0  0  0  0
  -16.5650  -25.3600   12.4130 H   0  0  0  0  0  0  0  0  0  0  0  0
  -21.8110  -23.8460   16.3550 C   0  0  1  0  0  0  0  0  0  0  0  0
  -22.9150  -23.2960   15.4220 C   0  0  0  0  0  1  0  0  0  0  0  0
  -22.4020  -23.9470   17.7790 C   0  0  0  0  0  1  0  0  0  0  0  0
  -20.6750  -22.7990   16.4210 C   0  0  0  0  0  1  0  0  0  0  0  0
  2  1  2  0
  2  5  1  0
  3 55  1  0
  3  1  1  0
  4  7  1  0
  4  6  2  0
  6  2  1  0
  7  3  2  0
 10  8  1  6
  9 10  1  0
 10 12  1  0
 10  4  1  0
 11 12  1  0
 12 14  1  0
 12 13  1  1
 15 14  1  0
 15 16  1  0
 17 25  1  0
 17 24  2  0
 18 23  1  0
 19 18  1  0
 20 21  1  0
 20 19  1  0
 21 30  1  0
 21 22  1  0
 22 23  1  0
 23 17  1  0
 25 16  1  0
 26 25  1  0
 27 30  1  0
 27 52  1  0
 28 27  2  0
 29 28  1  0
 29 31  2  0
 31 30  1  0
 32 29  1  0
 33 32  1  0
 34 33  2  0
 35 36  2  0
 35 34  1  0
 36 37  1  0
 37 32  2  0
 38 35  1  0
 39 40  1  0
 39 38  1  0
 41 40  2  0
 42 41  1  0
 43 42  2  0
 43 44  1  0
 44 39  2  0
 45 44  1  0
 46 42  1  0
 47 49  2  0
 47 28  1  0
 48 47  1  0
 50 48  1  0
 51 48  1  0
 52 54  1  0
 53 52  1  0
 55 56  1  0
 56 57  1  0
 58 57  1  0
 59 69  1  0
 60 58  1  0
 61 71  1  0
 61 69  1  0
 61 68  1  0
 62 64  2  0
 62 67  1  0
 63 64  1  0
 64 65  1  0
 65 60  2  0
 66 60  1  0
 67 66  2  0
 68 62  1  0
 69 63  1  0
 70 59  2  0
 71 73  2  0
 72 71  1  0
 74 72  1  0
 75 80  1  0
 75 79  1  0
 76 72  1  0
 76 77  1  0
 78 77  1  0
 79 78  1  0
 80 76  1  0
 81 80  2  0
 82 81  1  0
 83 82  2  0
 83 84  1  0
 84 75  2  0
 85 59  1  0
 85 95  1  0
 86 85  1  0
 87 86  1  0
 87 88  2  0
 89 86  1  0
 91 90  1  0
 91 93  1  0
 91 87  1  0
 93 92  1  0
 94 93  1  0
 95 98  1  1
 95 97  1  0
 96 95  1  0
M  ISO  4  17 100  25 100  57 101  58 101
M  END
>  <TORSDO>  (18) 
F 24

>  <SCORE>  (18) 
-4.444

>  <name>  (18) 
17

>  <ligand_id>  (18) 
17

>  <original_smiles>  (18) 
[H]c1c(OC([H])([H])C([H])([H])Oc2c([H])c([H])c3c(c2[H])C([H])([H])N(C(=O)C([H])(N([H])C(=O)C([H])(N([H])C([H])([H])[H])C([H])([H])[H])C(C([H])([H])[H])(C([H])([H])[H])C([H])([H])[H])C([H])(C(=O)N([H])C2([H])c4c([H])c([H])c([H])c([H])c4C([H])([H])C([H])([H])C2([H])[H])C3([H])[H])nc(C(C([H])([H])[H])(C([H])([H])[H])[N+]([H])(C([H])([H])[H])C([H])([H])C([H])([H])C([H])([H])N([H])C(=O)N2C([H])([H])C([H])([H])C([H])([H])C([H])(n3nc(-c4c([H])c([H])c(Oc5c([H])c([H])c(F)c([H])c5F)c([H])c4[H])c(C(=O)N([H])[H])c3N([H])[H])C2([H])[H])nc1C([H])([H])[H]

>  <smiles>  (18) 
[H]c1c(OC([H])([H])C([H])([H])Oc2c([H])c([H])c3c(c2[H])C([H])([H])N(C(=O)C([H])(N([H])C(=O)C([H])(N([H])C([H])([H])[H])C([H])([H])[H])C(C([H])([H])[H])(C([H])([H])[H])C([H])([H])[H])C([H])(C(=O)N([H])C2([H])c4c([H])c([H])c([H])c([H])c4C([H])([H])C([H])([H])C2([H])[H])C3([H])[H])nc(C(C([H])([H])[H])(C([H])([H])[H])[N+]([H])(C([H])([H])[H])C([H])([H])C([H])([H])C([H])([H])N([H])C(=O)N2C([H])([H])C([H])([H])C([H])([H])C([H])(n3nc(-c4c([H])c([H])c(Oc5c([H])c([H])c(F)c([H])c5F)c([H])c4[H])c(C(=O)N([H])[H])c3N([H])[H])C2([H])[H])nc1C([H])([H])[H]

$$$$
18:0:0
     RDKit          3D

 92100  0  0  1  0  0  0  0  0999 V2000
  -30.8700  -20.4200   19.8810 C   0  0  0  0  0  1  0  0  0  0  0  0
  -31.2210  -21.2340   22.2130 C   0  0  0  0  0  1  0  0  0  0  0  0
  -30.1450  -20.7950   21.1900 C   0  0  2  0  0  0  0  0  0  0  0  0
  -29.3350  -19.5750   21.7970 C   0  0  0  0  0  2  0  0  0  0  0  0
  -29.9140  -16.1090   20.5870 C   0  0  0  0  0  0  0  0  0  0  0  0
  -28.4090  -17.1390   19.2890 C   0  0  0  0  0  0  0  0  0  0  0  0
  -29.2700  -18.2360   21.0150 C   0  0  0  0  0  0  0  0  0  0  0  0
  -27.3990  -17.0470   18.1660 C   0  0  0  0  0  1  0  0  0  0  0  0
  -29.1670  -16.0810   19.4840 N   0  0  0  0  0  4  0  0  0  0  0  0
  -30.0390  -17.1920   21.3830 N   0  0  0  0  0  0  0  0  0  0  0  0
  -28.3970  -18.2380   20.0170 N   0  0  0  0  0  2  0  0  0  0  0  0
  -30.7730  -14.8060   20.7690 C   0  0  0  0  0  0  0  0  0  0  0  0
  -30.5710  -12.6310   19.6700 C   0  0  0  0  0  2  0  0  0  0  0  0
  -29.6960  -12.8650   18.4140 C   0  0  0  0  0  2  0  0  0  0  0  0
  -28.2010  -12.6910   18.7500 C   0  0  0  0  0  2  0  0  0  0  0  0
  -27.7730  -13.4740   20.0170 C   0  0  0  0  0  3  0  0  0  0  0  0
  -28.7830  -13.3020   21.1730 C   0  0  0  0  0  2  0  0  0  0  0  0
  -30.1430  -13.5950   20.6990 N   0  0  0  0  0  0  0  0  0  0  0  0
  -31.9940  -14.9290   20.6220 O   0  0  0  0  0  0  0  0  0  0  0  0
  -25.3380  -14.0360   20.5940 C   0  0  0  0  0  0  0  0  0  0  0  0
  -24.2690  -13.2410   20.9050 C   0  0  0  0  0  0  0  0  0  0  0  0
  -24.7660  -11.9030   20.9220 C   0  0  0  0  0  0  0  0  0  0  0  0
  -26.4120  -13.1730   20.4310 N   0  0  0  0  0  0  0  0  0  0  0  0
  -26.0730  -11.8890   20.6940 N   0  0  0  0  0  0  0  0  0  0  0  0
  -24.0650  -10.6250   21.0820 C   0  0  0  0  0  0  0  0  0  0  0  0
  -24.4450   -9.6970   22.0760 C   0  0  0  0  0  3  0  0  0  0  0  0
  -23.7440   -8.4810   22.2220 C   0  0  0  0  0  3  0  0  0  0  0  0
  -22.6510   -8.1860   21.3720 C   0  0  0  0  0  0  0  0  0  0  0  0
  -22.2930   -9.1030   20.3690 C   0  0  0  0  0  3  0  0  0  0  0  0
  -22.9950  -10.3110   20.2220 C   0  0  0  0  0  3  0  0  0  0  0  0
  -21.9260   -7.0200   21.4240 O   0  0  0  0  0  0  0  0  0  0  0  0
  -21.7810   -6.3170   22.5920 C   0  0  0  0  0  0  0  0  0  0  0  0
  -21.1960   -6.8920   23.7410 C   0  0  0  0  0  3  0  0  0  0  0  0
  -21.0020   -6.1120   24.8970 C   0  0  0  0  0  3  0  0  0  0  0  0
  -21.3840   -4.7560   24.9050 C   0  0  0  0  0  0  0  0  0  0  0  0
  -21.9640   -4.1810   23.7620 C   0  0  0  0  0  3  0  0  0  0  0  0
  -22.1600   -4.9590   22.6070 C   0  0  0  0  0  0  0  0  0  0  0  0
  -22.7000   -4.3950   21.5000 F   0  0  0  0  0  0  0  0  0  0  0  0
  -21.1910   -4.0040   26.0140 F   0  0  0  0  0  0  0  0  0  0  0  0
  -22.8470  -13.6870   21.0810 C   0  0  0  0  0  0  0  0  0  0  0  0
  -22.0810  -12.9810   21.9050 N   0  0  0  0  0  0  0  0  0  0  0  0
  -22.4190  -14.6960   20.5210 O   0  0  0  0  0  0  0  0  0  0  0  0
  -22.4390  -12.1670   22.3830 H   0  0  0  0  0  0  0  0  0  0  0  0
  -21.1230  -13.2610   22.0640 H   0  0  0  0  0  0  0  0  0  0  0  0
  -25.4810  -15.4090   20.4170 N   0  0  0  0  0  0  0  0  0  0  0  0
  -24.6940  -16.0430   20.4950 H   0  0  0  0  0  0  0  0  0  0  0  0
  -26.3490  -15.8790   20.1980 H   0  0  0  0  0  0  0  0  0  0  0  0
  -29.2800  -21.8980   20.7600 O   0  0  0  0  0  0  0  0  0  0  0  0
  -29.2120  -23.1610   21.4700 C   0  0  0  0  0  2  0  0  0  0  0  0
  -28.7090  -24.3460   20.5770 C   0  0  0  0  0  2  0  0  0  0  0  0
  -28.7110  -25.7360   21.2920 C   0  0  0  0  0  2  0  0  0  0  0  0
  -28.7000  -26.9040   20.4350 O   0  0  0  0  0  0  0  0  0  0  0  0
  -24.6700  -32.0340   23.3660 C   0  0  0  0  0  0  0  0  0  0  0  0
  -27.5270  -27.6300   20.4130 C   0  0  0  0  0  0  0  0  0  0  0  0
  -23.5550  -30.5850   21.7020 C   0  0  0  0  0  3  0  0  0  0  0  0
  -25.0950  -29.0790   20.3310 C   0  0  0  0  0  0  0  0  0  0  0  0
  -26.0740  -31.0180   21.5700 C   0  0  0  0  0  2  0  0  0  0  0  0
  -26.2210  -29.6430   20.9450 C   0  0  0  0  0  0  0  0  0  0  0  0
  -27.4440  -28.9280   20.9750 C   0  0  0  0  0  3  0  0  0  0  0  0
  -26.3850  -27.0840   19.7920 C   0  0  0  0  0  3  0  0  0  0  0  0
  -25.1730  -27.8010   19.7490 C   0  0  0  0  0  3  0  0  0  0  0  0
  -23.8250  -29.9020   20.3340 C   0  0  0  0  0  2  0  0  0  0  0  0
  -24.7830  -31.2290   22.2720 N   0  0  0  0  0  0  0  0  0  0  0  0
  -23.5670  -32.2760   23.8740 O   0  0  0  0  0  0  0  0  0  0  0  0
  -22.9070  -29.5520   22.6510 C   0  0  0  0  0  0  0  0  0  0  0  0
  -21.5990  -29.3090   22.4700 N   0  0  0  0  0  0  0  0  0  0  0  0
  -23.5820  -28.9710   23.5060 O   0  0  0  0  0  0  0  0  0  0  0  0
  -21.1140  -29.8300   21.7540 H   0  0  0  0  0  0  0  0  0  0  0  0
  -18.2660  -27.9570   22.8310 C   0  0  0  0  0  0  0  0  0  0  0  0
  -20.7920  -28.3480   23.2220 C   0  0  0  0  0  3  0  0  0  0  0  0
  -20.9930  -26.9120   22.6830 C   0  0  0  0  0  2  0  0  0  0  0  0
  -19.9600  -26.5150   21.6230 C   0  0  0  0  0  2  0  0  0  0  0  0
  -18.5420  -26.6040   22.1960 C   0  0  0  0  0  2  0  0  0  0  0  0
  -19.3230  -28.7820   23.2990 C   0  0  0  0  0  0  0  0  0  0  0  0
  -19.0150  -30.0440   23.8500 C   0  0  0  0  0  3  0  0  0  0  0  0
  -17.6800  -30.4840   23.9390 C   0  0  0  0  0  3  0  0  0  0  0  0
  -16.6370  -29.6560   23.4890 C   0  0  0  0  0  3  0  0  0  0  0  0
  -16.9300  -28.3950   22.9410 C   0  0  0  0  0  3  0  0  0  0  0  0
  -25.9190  -32.7100   24.0160 C   0  0  0  0  0  3  0  0  0  0  0  0
  -25.5730  -34.1110   24.2880 N   0  0  0  0  0  0  0  0  0  0  0  0
  -25.9180  -35.1430   23.5070 C   0  0  0  0  0  0  0  0  0  0  0  0
  -26.6310  -35.0180   22.5080 O   0  0  0  0  0  0  0  0  0  0  0  0
  -24.9420  -34.2810   25.0590 H   0  0  0  0  0  0  0  0  0  0  0  0
  -24.1740  -36.8890   23.0220 C   0  0  0  0  0  1  0  0  0  0  0  0
  -25.3880  -36.5370   23.8970 C   0  0  0  0  0  3  0  0  0  0  0  0
  -27.4690  -37.4910   24.7850 C   0  0  0  0  0  1  0  0  0  0  0  0
  -26.4070  -37.6040   23.7890 N   0  0  0  0  0  0  0  0  0  0  0  0
  -25.9800  -38.5210   23.8840 H   0  0  0  0  0  0  0  0  0  0  0  0
  -26.3980  -31.9880   25.3350 C   0  0  1  0  0  0  0  0  0  0  0  0
  -25.2670  -31.7600   26.3650 C   0  0  0  0  0  1  0  0  0  0  0  0
  -27.0240  -30.6120   25.0110 C   0  0  0  0  0  1  0  0  0  0  0  0
  -27.5030  -32.8270   26.0190 C   0  0  0  0  0  1  0  0  0  0  0  0
  3  1  1  6
  3  4  1  0
  3  2  1  0
  5 12  1  0
  5 10  1  0
  6  9  2  0
  6 11  1  0
  7 10  2  0
  7  4  1  0
  8  6  1  0
  9  5  2  0
 11  7  1  0
 13 18  1  0
 14 15  1  0
 14 13  1  0
 16 15  1  0
 16 23  1  0
 16 17  1  0
 18 12  1  0
 18 17  1  0
 19 12  2  0
 20 21  2  0
 21 22  1  0
 21 40  1  0
 22 25  1  0
 23 20  1  0
 23 24  1  0
 24 22  2  0
 25 26  1  0
 26 27  2  0
 28 31  1  0
 28 27  1  0
 29 28  2  0
 30 29  1  0
 30 25  2  0
 31 32  1  0
 32 37  2  0
 32 33  1  0
 33 34  2  0
 34 35  1  0
 35 39  1  0
 36 35  2  0
 37 36  1  0
 38 37  1  0
 40 41  1  0
 41 44  1  0
 41 43  1  0
 42 40  2  0
 45 46  1  0
 45 20  1  0
 47 45  1  0
 48  3  1  0
 48 49  1  0
 50 51  1  0
 50 49  1  0
 52 51  1  0
 53 64  2  0
 54 52  1  0
 54 59  1  0
 55 63  1  0
 55 65  1  0
 56 62  1  0
 56 58  1  0
 57 63  1  0
 58 59  2  0
 58 57  1  0
 60 54  2  0
 61 60  1  0
 61 56  2  0
 62 55  1  0
 63 53  1  0
 65 67  2  0
 66 65  1  0
 68 66  1  0
 69 78  2  0
 69 74  1  0
 70 66  1  0
 70 74  1  0
 71 70  1  0
 72 73  1  0
 72 71  1  0
 73 69  1  0
 74 75  2  0
 75 76  1  0
 77 76  2  0
 78 77  1  0
 79 53  1  0
 79 80  1  0
 79 89  1  0
 80 83  1  0
 81 85  1  0
 81 80  1  0
 82 81  2  0
 85 84  1  0
 87 88  1  0
 87 85  1  0
 87 86  1  0
 89 92  1  1
 89 90  1  0
 91 89  1  0
M  ISO  4   5 100  12 100  51 101  52 101
M  END
>  <TORSDO>  (19) 
F 22

>  <SCORE>  (19) 
-11.816

>  <name>  (19) 
18

>  <ligand_id>  (19) 
18

>  <original_smiles>  (19) 
[H]c1c([H])c([H])c2c(c1[H])C([H])([H])C([H])([H])C([H])([H])C2([H])N([H])C(=O)C1([H])N(C(=O)C([H])(N([H])C(=O)C([H])(N([H])C([H])([H])[H])C([H])([H])[H])C(C([H])([H])[H])(C([H])([H])[H])C([H])([H])[H])C([H])([H])c2c([H])c(OC([H])([H])C([H])([H])C([H])([H])OC(C([H])([H])[H])(C([H])([H])[H])C([H])([H])c3nc(C(=O)N4C([H])([H])C([H])([H])C([H])([H])C([H])(n5nc(-c6c([H])c([H])c(Oc7c([H])c([H])c(F)c([H])c7F)c([H])c6[H])c(C(=O)N([H])[H])c5N([H])[H])C4([H])[H])nc(C([H])([H])[H])n3)c([H])c([H])c2C1([H])[H]

>  <smiles>  (19) 
[H]c1c([H])c([H])c2c(c1[H])C([H])([H])C([H])([H])C([H])([H])C2([H])N([H])C(=O)C1([H])N(C(=O)C([H])(N([H])C(=O)C([H])(N([H])C([H])([H])[H])C([H])([H])[H])C(C([H])([H])[H])(C([H])([H])[H])C([H])([H])[H])C([H])([H])c2c([H])c(OC([H])([H])C([H])([H])C([H])([H])OC(C([H])([H])[H])(C([H])([H])[H])C([H])([H])c3nc(C(=O)N4C([H])([H])C([H])([H])C([H])([H])C([H])(n5nc(-c6c([H])c([H])c(Oc7c([H])c([H])c(F)c([H])c7F)c([H])c6[H])c(C(=O)N([H])[H])c5N([H])[H])C4([H])[H])nc(C([H])([H])[H])n3)c([H])c([H])c2C1([H])[H]

$$$$
19:0:0
     RDKit          3D

 91 99  0  0  1  0  0  0  0  0999 V2000
  -28.0130  -21.5270   20.3180 C   0  0  0  0  0  3  0  0  0  0  0  0
  -30.1500  -21.3010   20.3300 C   0  0  0  0  0  3  0  0  0  0  0  0
  -29.2000  -22.3260   20.2870 C   0  0  0  0  0  0  0  0  0  0  0  0
  -28.2330  -20.1960   20.3870 N   0  0  0  0  0  0  0  0  0  0  0  0
  -29.5780  -20.0030   20.3860 N   0  0  0  0  0  0  0  0  0  0  0  0
  -30.2180  -24.2050   18.9520 C   0  0  0  0  0  1  0  0  0  0  0  0
  -30.2620  -24.3200   21.4500 C   0  0  0  0  0  1  0  0  0  0  0  0
  -29.4100  -23.9170   20.2300 C   0  0  2  0  0  0  0  0  0  0  0  0
  -28.1330  -24.9170   20.1990 C   0  0  0  0  0  2  0  0  0  0  0  0
  -28.3310  -26.4140   20.2010 O   0  0  0  0  0  0  0  0  0  0  0  0
  -24.5980  -31.8830   23.2040 C   0  0  0  0  0  0  0  0  0  0  0  0
  -27.2090  -27.2790   20.1650 C   0  0  0  0  0  0  0  0  0  0  0  0
  -23.3920  -30.4670   21.5810 C   0  0  0  0  0  3  0  0  0  0  0  0
  -24.8400  -28.9100   20.1570 C   0  0  0  0  0  0  0  0  0  0  0  0
  -25.9310  -30.7880   21.3810 C   0  0  0  0  0  2  0  0  0  0  0  0
  -26.0140  -29.4020   20.7400 C   0  0  0  0  0  0  0  0  0  0  0  0
  -27.2020  -28.6010   20.7280 C   0  0  0  0  0  3  0  0  0  0  0  0
  -26.0070  -26.8530   19.5580 C   0  0  0  0  0  3  0  0  0  0  0  0
  -24.8410  -27.6430   19.5560 C   0  0  0  0  0  3  0  0  0  0  0  0
  -23.6010  -29.7830   20.2050 C   0  0  0  0  0  2  0  0  0  0  0  0
  -24.6600  -31.0650   22.1110 N   0  0  0  0  0  0  0  0  0  0  0  0
  -23.5160  -32.1600   23.7420 O   0  0  0  0  0  0  0  0  0  0  0  0
  -22.7370  -29.4570   22.5540 C   0  0  0  0  0  0  0  0  0  0  0  0
  -21.4100  -29.2740   22.4360 N   0  0  0  0  0  0  0  0  0  0  0  0
  -23.4210  -28.8390   23.3730 O   0  0  0  0  0  0  0  0  0  0  0  0
  -20.9150  -29.8240   21.7480 H   0  0  0  0  0  0  0  0  0  0  0  0
  -18.0430  -28.0520   22.9520 C   0  0  0  0  0  0  0  0  0  0  0  0
  -20.6000  -28.3390   23.2180 C   0  0  0  0  0  3  0  0  0  0  0  0
  -20.7130  -26.9000   22.6600 C   0  0  0  0  0  2  0  0  0  0  0  0
  -19.6140  -26.5560   21.6500 C   0  0  0  0  0  2  0  0  0  0  0  0
  -18.2320  -26.6970   22.2920 C   0  0  0  0  0  2  0  0  0  0  0  0
  -19.1550  -28.8290   23.3730 C   0  0  0  0  0  0  0  0  0  0  0  0
  -18.9240  -30.0960   23.9530 C   0  0  0  0  0  3  0  0  0  0  0  0
  -17.6140  -30.5870   24.1130 C   0  0  0  0  0  3  0  0  0  0  0  0
  -16.5170  -29.8070   23.7090 C   0  0  0  0  0  3  0  0  0  0  0  0
  -16.7330  -28.5410   23.1350 C   0  0  0  0  0  3  0  0  0  0  0  0
  -25.8800  -32.5270   23.8150 C   0  0  0  0  0  3  0  0  0  0  0  0
  -26.4160  -31.7560   25.0840 C   0  0  1  0  0  0  0  0  0  0  0  0
  -25.3370  -31.5040   26.1610 C   0  0  0  0  0  1  0  0  0  0  0  0
  -27.0090  -30.3870   24.6810 C   0  0  0  0  0  1  0  0  0  0  0  0
  -27.5680  -32.5580   25.7350 C   0  0  0  0  0  1  0  0  0  0  0  0
  -25.5590  -33.9210   24.1580 N   0  0  0  0  0  0  0  0  0  0  0  0
  -25.8770  -34.9830   23.4050 C   0  0  0  0  0  0  0  0  0  0  0  0
  -26.5420  -34.8930   22.3700 O   0  0  0  0  0  0  0  0  0  0  0  0
  -24.9670  -34.0650   24.9620 H   0  0  0  0  0  0  0  0  0  0  0  0
  -24.1370  -36.7670   23.0740 C   0  0  0  0  0  1  0  0  0  0  0  0
  -25.3820  -36.3640   23.8780 C   0  0  0  0  0  3  0  0  0  0  0  0
  -27.5160  -37.2520   24.7070 C   0  0  0  0  0  1  0  0  0  0  0  0
  -26.4070  -37.4250   23.7720 N   0  0  0  0  0  0  0  0  0  0  0  0
  -25.9970  -38.3400   23.9350 H   0  0  0  0  0  0  0  0  0  0  0  0
  -31.7350  -18.7160   20.6430 C   0  0  0  0  0  1  0  0  0  0  0  0
  -30.2030  -18.6310   20.7140 C   0  0  0  0  0  3  0  0  0  0  0  0
  -29.7480  -17.2570   19.9660 C   0  0  0  0  0  2  0  0  0  0  0  0
  -30.6900  -14.7750   20.0450 C   0  0  0  0  0  0  0  0  0  0  0  0
  -30.4110  -12.5380   18.9320 C   0  0  0  0  0  2  0  0  0  0  0  0
  -29.4110  -12.6570   17.7610 C   0  0  0  0  0  2  0  0  0  0  0  0
  -27.9610  -12.4840   18.2530 C   0  0  0  0  0  2  0  0  0  0  0  0
  -27.6620  -13.3260   19.5210 C   0  0  0  0  0  3  0  0  0  0  0  0
  -28.7700  -13.1640   20.5800 C   0  0  0  0  0  2  0  0  0  0  0  0
  -30.0450  -13.5520   19.9550 N   0  0  0  0  0  0  0  0  0  0  0  0
  -31.7780  -14.9250   19.4790 O   0  0  0  0  0  0  0  0  0  0  0  0
  -29.8890  -15.9070   22.0580 C   0  0  0  0  0  1  0  0  0  0  0  0
  -30.0210  -15.8730   20.5960 N   0  0  0  0  0  0  0  0  0  0  0  0
  -25.3170  -13.9190   20.3760 C   0  0  0  0  0  0  0  0  0  0  0  0
  -24.2660  -13.1450   20.7900 C   0  0  0  0  0  0  0  0  0  0  0  0
  -24.7180  -11.7920   20.7170 C   0  0  0  0  0  0  0  0  0  0  0  0
  -26.3400  -13.0360   20.0740 N   0  0  0  0  0  0  0  0  0  0  0  0
  -25.9920  -11.7520   20.3410 N   0  0  0  0  0  0  0  0  0  0  0  0
  -23.9950  -10.5310   20.9290 C   0  0  0  0  0  0  0  0  0  0  0  0
  -24.4530   -9.5620   21.8470 C   0  0  0  0  0  3  0  0  0  0  0  0
  -23.7310   -8.3650   22.0470 C   0  0  0  0  0  3  0  0  0  0  0  0
  -22.5350   -8.1310   21.3270 C   0  0  0  0  0  0  0  0  0  0  0  0
  -22.0940   -9.0880   20.3970 C   0  0  0  0  0  3  0  0  0  0  0  0
  -22.8180  -10.2750   20.1960 C   0  0  0  0  0  3  0  0  0  0  0  0
  -21.7810   -6.9860   21.4370 O   0  0  0  0  0  0  0  0  0  0  0  0
  -21.7380   -6.2620   22.6010 C   0  0  0  0  0  0  0  0  0  0  0  0
  -21.3340   -6.8400   23.8240 C   0  0  0  0  0  3  0  0  0  0  0  0
  -21.2370   -6.0420   24.9810 C   0  0  0  0  0  3  0  0  0  0  0  0
  -21.5340   -4.6670   24.9160 C   0  0  0  0  0  0  0  0  0  0  0  0
  -21.9300   -4.0900   23.6980 C   0  0  0  0  0  3  0  0  0  0  0  0
  -22.0290   -4.8850   22.5430 C   0  0  0  0  0  0  0  0  0  0  0  0
  -22.3900   -4.3200   21.3660 F   0  0  0  0  0  0  0  0  0  0  0  0
  -21.4340   -3.8960   26.0240 F   0  0  0  0  0  0  0  0  0  0  0  0
  -22.8880  -13.6260   21.1410 C   0  0  0  0  0  0  0  0  0  0  0  0
  -22.2080  -12.9230   22.0400 N   0  0  0  0  0  0  0  0  0  0  0  0
  -22.4240  -14.6560   20.6510 O   0  0  0  0  0  0  0  0  0  0  0  0
  -22.5960  -12.0900   22.4580 H   0  0  0  0  0  0  0  0  0  0  0  0
  -21.2840  -13.2250   22.3160 H   0  0  0  0  0  0  0  0  0  0  0  0
  -25.4840  -15.2900   20.2110 N   0  0  0  0  0  0  0  0  0  0  0  0
  -24.7410  -15.9580   20.3840 H   0  0  0  0  0  0  0  0  0  0  0  0
  -26.3320  -15.7270   19.8670 H   0  0  0  0  0  0  0  0  0  0  0  0
  1  4  2  0
  2  5  1  0
  3  1  1  0
  3  2  2  0
  5  4  1  0
  5 52  1  0
  8  6  1  6
  8  3  1  0
  8  7  1  0
  9 10  1  0
  9  8  1  0
 11 22  2  0
 12 10  1  0
 12 17  1  0
 13 21  1  0
 13 23  1  0
 14 20  1  0
 14 16  1  0
 15 21  1  0
 16 15  1  0
 17 16  2  0
 18 12  2  0
 19 18  1  0
 19 14  2  0
 20 13  1  0
 21 11  1  0
 23 25  2  0
 24 23  1  0
 26 24  1  0
 27 36  2  0
 27 32  1  0
 28 24  1  0
 28 32  1  0
 29 28  1  0
 30 31  1  0
 30 29  1  0
 31 27  1  0
 32 33  2  0
 33 34  1  0
 35 34  2  0
 36 35  1  0
 37 11  1  0
 37 42  1  0
 37 38  1  0
 38 41  1  1
 38 39  1  0
 40 38  1  0
 42 45  1  0
 43 47  1  0
 43 42  1  0
 44 43  2  0
 47 46  1  0
 49 47  1  0
 49 50  1  0
 49 48  1  0
 52 51  1  0
 53 63  1  0
 53 52  1  0
 54 63  1  0
 55 60  1  0
 56 57  1  0
 56 55  1  0
 58 57  1  0
 58 67  1  0
 58 59  1  0
 60 54  1  0
 60 59  1  0
 61 54  2  0
 63 62  1  0
 64 65  2  0
 65 84  1  0
 66 65  1  0
 66 69  1  0
 67 68  1  0
 67 64  1  0
 68 66  2  0
 69 70  1  0
 70 71  2  0
 72 75  1  0
 72 71  1  0
 73 72  2  0
 74 73  1  0
 74 69  2  0
 75 76  1  0
 76 77  1  0
 77 78  2  0
 79 78  1  0
 79 83  1  0
 80 79  2  0
 81 76  2  0
 81 80  1  0
 82 81  1  0
 84 85  1  0
 85 88  1  0
 85 87  1  0
 86 84  2  0
 89 64  1  0
 89 90  1  0
 91 89  1  0
M  ISO  4   9 101  10 101  54 100  63 100
M  END
>  <TORSDO>  (20) 
F 20

>  <SCORE>  (20) 
-13.516

>  <name>  (20) 
19

>  <ligand_id>  (20) 
19

>  <original_smiles>  (20) 
[H]c1nn(C([H])(C([H])([H])[H])C([H])([H])N(C(=O)N2C([H])([H])C([H])([H])C([H])([H])C([H])(n3nc(-c4c([H])c([H])c(Oc5c([H])c([H])c(F)c([H])c5F)c([H])c4[H])c(C(=O)N([H])[H])c3N([H])[H])C2([H])[H])C([H])([H])[H])c([H])c1C(C([H])([H])[H])(C([H])([H])[H])C([H])([H])Oc1c([H])c([H])c2c(c1[H])C([H])([H])N(C(=O)C([H])(N([H])C(=O)C([H])(N([H])C([H])([H])[H])C([H])([H])[H])C(C([H])([H])[H])(C([H])([H])[H])C([H])([H])[H])C([H])(C(=O)N([H])C1([H])c3c([H])c([H])c([H])c([H])c3C([H])([H])C([H])([H])C1([H])[H])C2([H])[H]

>  <smiles>  (20) 
[H]c1nn(C([H])(C([H])([H])[H])C([H])([H])N(C(=O)N2C([H])([H])C([H])([H])C([H])([H])C([H])(n3nc(-c4c([H])c([H])c(Oc5c([H])c([H])c(F)c([H])c5F)c([H])c4[H])c(C(=O)N([H])[H])c3N([H])[H])C2([H])[H])C([H])([H])[H])c([H])c1C(C([H])([H])[H])(C([H])([H])[H])C([H])([H])Oc1c([H])c([H])c2c(c1[H])C([H])([H])N(C(=O)C([H])(N([H])C(=O)C([H])(N([H])C([H])([H])[H])C([H])([H])[H])C(C([H])([H])[H])(C([H])([H])[H])C([H])([H])[H])C([H])(C(=O)N([H])C1([H])c3c([H])c([H])c([H])c([H])c3C([H])([H])C([H])([H])C1([H])[H])C2([H])[H]

$$$$
20:0:0
     RDKit          3D

 92100  0  0  1  0  0  0  0  0999 V2000
  -28.0960  -21.2950   20.4370 C   0  0  0  0  0  2  0  0  0  0  0  0
  -29.3450  -19.7840   21.1180 C   0  0  0  0  0  0  0  0  0  0  0  0
  -28.2420  -19.9770   20.3260 N   0  0  0  0  0  0  0  0  0  0  0  0
  -29.8690  -20.9090   21.6290 N   0  0  0  0  0  2  0  0  0  0  0  0
  -29.0300  -21.8890   21.1830 N   0  0  0  0  0  0  0  0  0  0  0  0
  -29.9600  -18.4120   21.3540 C   0  0  1  0  0  0  0  0  0  0  0  0
  -30.4990  -18.3980   22.5760 F   0  0  0  0  0  0  0  0  0  0  0  0
  -29.0020  -17.4820   21.3160 F   0  0  0  0  0  0  0  0  0  0  0  0
  -31.0440  -18.0340   20.3170 C   0  0  0  0  0  2  0  0  0  0  0  0
  -31.8630  -16.7400   20.6030 C   0  0  0  0  0  2  0  0  0  0  0  0
  -31.6400  -14.4210   19.6520 C   0  0  0  0  0  0  0  0  0  0  0  0
  -31.2470  -12.0910   18.9090 C   0  0  0  0  0  2  0  0  0  0  0  0
  -30.2640  -12.0490   17.7230 C   0  0  0  0  0  2  0  0  0  0  0  0
  -28.8050  -12.0200   18.2160 C   0  0  0  0  0  2  0  0  0  0  0  0
  -28.5200  -13.1160   19.2780 C   0  0  0  0  0  3  0  0  0  0  0  0
  -29.6040  -13.1120   20.3800 C   0  0  0  0  0  2  0  0  0  0  0  0
  -30.9190  -13.2680   19.7320 N   0  0  0  0  0  0  0  0  0  0  0  0
  -32.6720  -14.5180   18.9840 O   0  0  0  0  0  0  0  0  0  0  0  0
  -31.1670  -15.4630   20.3620 N   0  0  0  0  0  0  0  0  0  0  0  0
  -30.3210  -15.2940   20.8870 H   0  0  0  0  0  0  0  0  0  0  0  0
  -26.2410  -13.9600   20.1210 C   0  0  0  0  0  0  0  0  0  0  0  0
  -25.1280  -13.2950   20.5630 C   0  0  0  0  0  0  0  0  0  0  0  0
  -25.4530  -11.9050   20.5150 C   0  0  0  0  0  0  0  0  0  0  0  0
  -27.1790  -12.9790   19.8360 N   0  0  0  0  0  0  0  0  0  0  0  0
  -26.7100  -11.7390   20.1280 N   0  0  0  0  0  0  0  0  0  0  0  0
  -24.6210  -10.7210   20.7610 C   0  0  0  0  0  0  0  0  0  0  0  0
  -24.9650   -9.7680   21.7450 C   0  0  0  0  0  3  0  0  0  0  0  0
  -24.1380   -8.6470   21.9760 C   0  0  0  0  0  3  0  0  0  0  0  0
  -22.9550   -8.4720   21.2230 C   0  0  0  0  0  0  0  0  0  0  0  0
  -22.6290   -9.4110   20.2270 C   0  0  0  0  0  3  0  0  0  0  0  0
  -23.4540  -10.5240   19.9960 C   0  0  0  0  0  3  0  0  0  0  0  0
  -22.1060   -7.4000   21.3580 O   0  0  0  0  0  0  0  0  0  0  0  0
  -21.9160   -6.7830   22.5680 C   0  0  0  0  0  0  0  0  0  0  0  0
  -21.4540   -7.4880   23.7000 C   0  0  0  0  0  3  0  0  0  0  0  0
  -21.2060   -6.7990   24.9050 C   0  0  0  0  0  3  0  0  0  0  0  0
  -21.4090   -5.4090   24.9770 C   0  0  0  0  0  0  0  0  0  0  0  0
  -21.8620   -4.7040   23.8480 C   0  0  0  0  0  3  0  0  0  0  0  0
  -22.1110   -5.3890   22.6450 C   0  0  0  0  0  0  0  0  0  0  0  0
  -22.5280   -4.7020   21.5550 F   0  0  0  0  0  0  0  0  0  0  0  0
  -21.1620   -4.7460   26.1310 F   0  0  0  0  0  0  0  0  0  0  0  0
  -23.8040  -13.9090   20.9190 C   0  0  0  0  0  0  0  0  0  0  0  0
  -23.0870  -13.3080   21.8620 N   0  0  0  0  0  0  0  0  0  0  0  0
  -23.4190  -14.9530   20.3940 O   0  0  0  0  0  0  0  0  0  0  0  0
  -23.4130  -12.4610   22.3010 H   0  0  0  0  0  0  0  0  0  0  0  0
  -22.2010  -13.7010   22.1460 H   0  0  0  0  0  0  0  0  0  0  0  0
  -26.5310  -15.3070   19.9250 N   0  0  0  0  0  0  0  0  0  0  0  0
  -25.8530  -16.0400   20.0980 H   0  0  0  0  0  0  0  0  0  0  0  0
  -27.4150  -15.6590   19.5760 H   0  0  0  0  0  0  0  0  0  0  0  0
  -29.2040  -23.2900   21.5860 C   0  0  0  0  0  2  0  0  0  0  0  0
  -28.6210  -24.3290   20.5840 C   0  0  0  0  0  2  0  0  0  0  0  0
  -28.7960  -25.8140   20.9940 C   0  0  0  0  0  2  0  0  0  0  0  0
  -28.5830  -26.7030   19.8830 O   0  0  0  0  0  0  0  0  0  0  0  0
  -24.6410  -31.6930   23.0840 C   0  0  0  0  0  0  0  0  0  0  0  0
  -27.4060  -27.4120   19.9130 C   0  0  0  0  0  0  0  0  0  0  0  0
  -23.4720  -30.3010   21.4010 C   0  0  0  0  0  3  0  0  0  0  0  0
  -24.9720  -28.8440   19.9380 C   0  0  0  0  0  0  0  0  0  0  0  0
  -25.9840  -30.7450   21.2100 C   0  0  0  0  0  2  0  0  0  0  0  0
  -26.1110  -29.3910   20.5430 C   0  0  0  0  0  0  0  0  0  0  0  0
  -27.3330  -28.6810   20.5300 C   0  0  0  0  0  3  0  0  0  0  0  0
  -26.2570  -26.8820   19.2930 C   0  0  0  0  0  3  0  0  0  0  0  0
  -25.0400  -27.5880   19.3080 C   0  0  0  0  0  3  0  0  0  0  0  0
  -23.7010  -29.6610   20.0040 C   0  0  0  0  0  2  0  0  0  0  0  0
  -24.7160  -30.9260   21.9580 N   0  0  0  0  0  0  0  0  0  0  0  0
  -23.5520  -31.9170   23.6330 O   0  0  0  0  0  0  0  0  0  0  0  0
  -22.8520  -29.2360   22.3340 C   0  0  0  0  0  0  0  0  0  0  0  0
  -21.5300  -29.0300   22.2110 N   0  0  0  0  0  0  0  0  0  0  0  0
  -23.5560  -28.5980   23.1210 O   0  0  0  0  0  0  0  0  0  0  0  0
  -21.0210  -29.5960   21.5450 H   0  0  0  0  0  0  0  0  0  0  0  0
  -18.1890  -27.7410   22.6830 C   0  0  0  0  0  0  0  0  0  0  0  0
  -20.7410  -28.0480   22.9540 C   0  0  0  0  0  3  0  0  0  0  0  0
  -20.8760  -26.6390   22.3330 C   0  0  0  0  0  2  0  0  0  0  0  0
  -19.7780  -26.3220   21.3130 C   0  0  0  0  0  2  0  0  0  0  0  0
  -18.3960  -26.4170   21.9670 C   0  0  0  0  0  2  0  0  0  0  0  0
  -19.2920  -28.5140   23.1330 C   0  0  0  0  0  0  0  0  0  0  0  0
  -19.0460  -29.7550   23.7600 C   0  0  0  0  0  3  0  0  0  0  0  0
  -17.7290  -30.2200   23.9470 C   0  0  0  0  0  3  0  0  0  0  0  0
  -16.6430  -29.4420   23.5150 C   0  0  0  0  0  3  0  0  0  0  0  0
  -16.8730  -28.2050   22.8860 C   0  0  0  0  0  3  0  0  0  0  0  0
  -25.9100  -32.3420   23.7210 C   0  0  0  0  0  3  0  0  0  0  0  0
  -25.5670  -33.7220   24.0840 N   0  0  0  0  0  0  0  0  0  0  0  0
  -25.8750  -34.8010   23.3500 C   0  0  0  0  0  0  0  0  0  0  0  0
  -26.5490  -34.7390   22.3180 O   0  0  0  0  0  0  0  0  0  0  0  0
  -24.9700  -33.8450   24.8880 H   0  0  0  0  0  0  0  0  0  0  0  0
  -24.1020  -36.5540   23.0360 C   0  0  0  0  0  1  0  0  0  0  0  0
  -25.3520  -36.1630   23.8380 C   0  0  0  0  0  3  0  0  0  0  0  0
  -27.4610  -37.0820   24.6990 C   0  0  0  0  0  1  0  0  0  0  0  0
  -26.3580  -37.2460   23.7560 N   0  0  0  0  0  0  0  0  0  0  0  0
  -25.9280  -38.1500   23.9280 H   0  0  0  0  0  0  0  0  0  0  0  0
  -26.4540  -31.5510   24.9730 C   0  0  1  0  0  0  0  0  0  0  0  0
  -25.3710  -31.2550   26.0360 C   0  0  0  0  0  1  0  0  0  0  0  0
  -27.0710  -30.2010   24.5390 C   0  0  0  0  0  1  0  0  0  0  0  0
  -27.5860  -32.3580   25.6510 C   0  0  0  0  0  1  0  0  0  0  0  0
  1  5  1  0
  2  6  1  0
  2  4  1  0
  3  1  1  0
  3  2  2  0
  5 49  1  0
  5  4  1  0
  6  7  1  1
  8  6  1  0
  9 10  1  0
  9  6  1  0
 11 17  1  0
 11 19  1  0
 12 17  1  0
 13 14  1  0
 13 12  1  0
 15 14  1  0
 15 24  1  0
 15 16  1  0
 17 16  1  0
 18 11  2  0
 19 10  1  0
 19 20  1  0
 21 22  2  0
 22 41  1  0
 23 22  1  0
 23 26  1  0
 24 21  1  0
 24 25  1  0
 25 23  2  0
 26 27  1  0
 27 28  2  0
 29 32  1  0
 29 28  1  0
 30 29  2  0
 31 30  1  0
 31 26  2  0
 32 33  1  0
 33 38  2  0
 33 34  1  0
 34 35  2  0
 35 36  1  0
 36 40  1  0
 37 36  2  0
 38 37  1  0
 39 38  1  0
 41 42  1  0
 42 45  1  0
 42 44  1  0
 43 41  2  0
 46 47  1  0
 46 21  1  0
 48 46  1  0
 50 51  1  0
 50 49  1  0
 52 54  1  0
 52 51  1  0
 53 64  2  0
 54 59  1  0
 55 63  1  0
 55 65  1  0
 56 62  1  0
 56 58  1  0
 57 63  1  0
 58 57  1  0
 59 58  2  0
 60 61  1  0
 60 54  2  0
 61 56  2  0
 62 55  1  0
 63 53  1  0
 65 67  2  0
 66 65  1  0
 68 66  1  0
 69 78  2  0
 69 74  1  0
 70 66  1  0
 70 74  1  0
 71 70  1  0
 72 73  1  0
 72 71  1  0
 73 69  1  0
 74 75  2  0
 75 76  1  0
 77 76  2  0
 78 77  1  0
 79 53  1  0
 79 80  1  0
 79 89  1  0
 80 83  1  0
 81 85  1  0
 81 80  1  0
 82 81  2  0
 85 84  1  0
 87 85  1  0
 87 88  1  0
 87 86  1  0
 89 92  1  1
 89 90  1  0
 91 89  1  0
M  ISO  4  11 100  19 100  51 101  52 101
M  END
>  <TORSDO>  (21) 
F 22

>  <SCORE>  (21) 
-11.813

>  <name>  (21) 
20

>  <ligand_id>  (21) 
20

>  <original_smiles>  (21) 
[H]c1c([H])c([H])c2c(c1[H])C([H])([H])C([H])([H])C([H])([H])C2([H])N([H])C(=O)C1([H])N(C(=O)C([H])(N([H])C(=O)C([H])(N([H])C([H])([H])[H])C([H])([H])[H])C(C([H])([H])[H])(C([H])([H])[H])C([H])([H])[H])C([H])([H])c2c([H])c(OC([H])([H])C([H])([H])C([H])([H])n3nc(C(F)(F)C([H])([H])C([H])([H])N([H])C(=O)N4C([H])([H])C([H])([H])C([H])([H])C([H])(n5nc(-c6c([H])c([H])c(Oc7c([H])c([H])c(F)c([H])c7F)c([H])c6[H])c(C(=O)N([H])[H])c5N([H])[H])C4([H])[H])nc3[H])c([H])c([H])c2C1([H])[H]

>  <smiles>  (21) 
[H]c1c([H])c([H])c2c(c1[H])C([H])([H])C([H])([H])C([H])([H])C2([H])N([H])C(=O)C1([H])N(C(=O)C([H])(N([H])C(=O)C([H])(N([H])C([H])([H])[H])C([H])([H])[H])C(C([H])([H])[H])(C([H])([H])[H])C([H])([H])[H])C([H])([H])c2c([H])c(OC([H])([H])C([H])([H])C([H])([H])n3nc(C(F)(F)C([H])([H])C([H])([H])N([H])C(=O)N4C([H])([H])C([H])([H])C([H])([H])C([H])(n5nc(-c6c([H])c([H])c(Oc7c([H])c([H])c(F)c([H])c7F)c([H])c6[H])c(C(=O)N([H])[H])c5N([H])[H])C4([H])[H])nc3[H])c([H])c([H])c2C1([H])[H]

$$$$
21:0:0
     RDKit          3D

 96105  0  0  1  0  0  0  0  0999 V2000
  -27.3130  -23.8370   21.4630 C   0  0  0  0  0  0  0  0  0  0  0  0
  -28.4780  -24.5320   21.0350 C   0  0  0  0  0  0  0  0  0  0  0  0
  -28.3730  -21.7780   21.1260 C   0  0  0  0  0  0  0  0  0  0  0  0
  -29.5370  -22.4730   20.7010 C   0  0  0  0  0  0  0  0  0  0  0  0
  -26.0850  -24.5600   22.0010 C   0  0  0  0  0  1  0  0  0  0  0  0
  -27.2540  -22.4760   21.4870 N   0  0  0  0  0  0  0  0  0  0  0  0
  -29.5730  -23.8330   20.6330 N   0  0  0  0  0  0  0  0  0  0  0  0
  -31.0100  -21.6420   20.3570 Cl  0  0  0  0  0  0  0  0  0  0  0  0
  -28.3510  -20.2580   21.4160 C   0  0  0  0  0  2  0  0  0  0  0  0
  -28.7270  -19.3920   19.0020 C   0  0  0  0  0  3  0  0  0  0  0  0
  -29.2770  -18.3980   18.1830 C   0  0  0  0  0  3  0  0  0  0  0  0
  -28.9050  -19.2500   20.3840 C   0  0  0  0  0  0  0  0  0  0  0  0
  -30.0260  -17.2240   20.0190 C   0  0  0  0  0  0  0  0  0  0  0  0
  -29.9220  -17.3280   18.6960 N   0  0  0  0  0  0  0  0  0  0  0  0
  -29.5520  -18.1580   20.8660 N   0  0  0  0  0  0  0  0  0  0  0  0
  -32.3550  -16.8410   20.7730 C   0  0  0  0  0  1  0  0  0  0  0  0
  -30.5340  -15.7940   22.0830 C   0  0  0  0  0  1  0  0  0  0  0  0
  -30.9720  -16.1340   20.6360 C   0  0  1  0  0  0  0  0  0  0  0  0
  -31.2360  -14.8250   19.7470 C   0  0  0  0  0  0  0  0  0  0  0  0
  -30.7290  -12.6460   18.6520 C   0  0  0  0  0  2  0  0  0  0  0  0
  -29.7090  -12.8320   17.5100 C   0  0  0  0  0  2  0  0  0  0  0  0
  -28.2650  -12.7530   18.0370 C   0  0  0  0  0  2  0  0  0  0  0  0
  -28.0540  -13.6170   19.3070 C   0  0  0  0  0  3  0  0  0  0  0  0
  -29.1820  -13.3790   20.3300 C   0  0  0  0  0  2  0  0  0  0  0  0
  -30.4650  -13.6840   19.6810 N   0  0  0  0  0  0  0  0  0  0  0  0
  -32.2590  -14.8590   19.0520 O   0  0  0  0  0  0  0  0  0  0  0  0
  -25.7760  -14.3140   20.2770 C   0  0  0  0  0  0  0  0  0  0  0  0
  -24.7000  -13.5820   20.7060 C   0  0  0  0  0  0  0  0  0  0  0  0
  -25.0690  -12.2100   20.5610 C   0  0  0  0  0  0  0  0  0  0  0  0
  -26.7350  -13.3880   19.8970 N   0  0  0  0  0  0  0  0  0  0  0  0
  -26.3190  -12.1160   20.1230 N   0  0  0  0  0  0  0  0  0  0  0  0
  -24.2820  -10.9870   20.7590 C   0  0  0  0  0  0  0  0  0  0  0  0
  -24.7050   -9.9670   21.6400 C   0  0  0  0  0  3  0  0  0  0  0  0
  -23.9210   -8.8050   21.8200 C   0  0  0  0  0  3  0  0  0  0  0  0
  -22.7000   -8.6580   21.1190 C   0  0  0  0  0  0  0  0  0  0  0  0
  -22.2980   -9.6660   20.2240 C   0  0  0  0  0  3  0  0  0  0  0  0
  -23.0810  -10.8170   20.0420 C   0  0  0  0  0  3  0  0  0  0  0  0
  -21.8850   -7.5560   21.2140 O   0  0  0  0  0  0  0  0  0  0  0  0
  -21.8150   -6.8100   22.3620 C   0  0  0  0  0  0  0  0  0  0  0  0
  -21.4580   -7.3830   23.6020 C   0  0  0  0  0  3  0  0  0  0  0  0
  -21.3360   -6.5670   24.7460 C   0  0  0  0  0  3  0  0  0  0  0  0
  -21.5540   -5.1790   24.6480 C   0  0  0  0  0  0  0  0  0  0  0  0
  -21.8970   -4.6060   23.4110 C   0  0  0  0  0  3  0  0  0  0  0  0
  -22.0280   -5.4200   22.2720 C   0  0  0  0  0  0  0  0  0  0  0  0
  -22.3410   -4.8580   21.0800 F   0  0  0  0  0  0  0  0  0  0  0  0
  -21.4250   -4.3930   25.7430 F   0  0  0  0  0  0  0  0  0  0  0  0
  -23.3680  -14.1280   21.1320 C   0  0  0  0  0  0  0  0  0  0  0  0
  -22.6870  -13.4420   22.0460 N   0  0  0  0  0  0  0  0  0  0  0  0
  -22.9380  -15.1910   20.6850 O   0  0  0  0  0  0  0  0  0  0  0  0
  -23.0530  -12.5820   22.4250 H   0  0  0  0  0  0  0  0  0  0  0  0
  -21.7870  -13.7780   22.3590 H   0  0  0  0  0  0  0  0  0  0  0  0
  -26.0200  -15.6770   20.1590 N   0  0  0  0  0  0  0  0  0  0  0  0
  -25.3170  -16.3730   20.3800 H   0  0  0  0  0  0  0  0  0  0  0  0
  -26.8580  -16.0740   19.7520 H   0  0  0  0  0  0  0  0  0  0  0  0
  -28.6530  -26.0640   21.1530 C   0  0  0  0  0  2  0  0  0  0  0  0
  -28.3340  -26.8280   19.9800 O   0  0  0  0  0  0  0  0  0  0  0  0
  -24.5130  -31.9420   23.2300 C   0  0  0  0  0  0  0  0  0  0  0  0
  -27.1860  -27.5840   20.0470 C   0  0  0  0  0  0  0  0  0  0  0  0
  -23.3160  -30.5580   21.5670 C   0  0  0  0  0  3  0  0  0  0  0  0
  -24.7810  -29.0690   20.0990 C   0  0  0  0  0  0  0  0  0  0  0  0
  -25.8380  -30.9460   21.3660 C   0  0  0  0  0  2  0  0  0  0  0  0
  -25.9360  -29.5850   20.7050 C   0  0  0  0  0  0  0  0  0  0  0  0
  -27.1410  -28.8440   20.6890 C   0  0  0  0  0  3  0  0  0  0  0  0
  -26.0290  -27.0980   19.4110 C   0  0  0  0  0  3  0  0  0  0  0  0
  -24.8210  -27.8220   19.4520 C   0  0  0  0  0  3  0  0  0  0  0  0
  -23.5260  -29.9110   20.1730 C   0  0  0  0  0  2  0  0  0  0  0  0
  -24.5750  -31.1640   22.1130 N   0  0  0  0  0  0  0  0  0  0  0  0
  -23.4300  -32.1890   23.7810 O   0  0  0  0  0  0  0  0  0  0  0  0
  -22.6830  -29.5090   22.5080 C   0  0  0  0  0  0  0  0  0  0  0  0
  -21.3630  -29.3000   22.3720 N   0  0  0  0  0  0  0  0  0  0  0  0
  -23.3750  -28.8840   23.3170 O   0  0  0  0  0  0  0  0  0  0  0  0
  -20.8640  -29.8550   21.6900 H   0  0  0  0  0  0  0  0  0  0  0  0
  -18.0150  -28.0110   22.8110 C   0  0  0  0  0  0  0  0  0  0  0  0
  -20.5620  -28.3350   23.1240 C   0  0  0  0  0  3  0  0  0  0  0  0
  -20.7120  -26.9110   22.5380 C   0  0  0  0  0  2  0  0  0  0  0  0
  -19.6330  -26.5680   21.5060 C   0  0  0  0  0  2  0  0  0  0  0  0
  -18.2380  -26.6720   22.1300 C   0  0  0  0  0  2  0  0  0  0  0  0
  -19.1060  -28.7990   23.2640 C   0  0  0  0  0  0  0  0  0  0  0  0
  -18.8440  -30.0520   23.8590 C   0  0  0  0  0  3  0  0  0  0  0  0
  -17.5240  -30.5180   24.0070 C   0  0  0  0  0  3  0  0  0  0  0  0
  -16.4470  -29.7240   23.5730 C   0  0  0  0  0  3  0  0  0  0  0  0
  -16.6940  -28.4730   22.9800 C   0  0  0  0  0  3  0  0  0  0  0  0
  -25.7930  -32.5750   23.8570 C   0  0  0  0  0  3  0  0  0  0  0  0
  -26.3220  -31.7910   25.1190 C   0  0  1  0  0  0  0  0  0  0  0  0
  -25.2340  -31.5180   26.1840 C   0  0  0  0  0  1  0  0  0  0  0  0
  -26.9240  -30.4290   24.7010 C   0  0  0  0  0  1  0  0  0  0  0  0
  -27.4670  -32.5870   25.7900 C   0  0  0  0  0  1  0  0  0  0  0  0
  -25.4760  -33.9660   24.2070 N   0  0  0  0  0  0  0  0  0  0  0  0
  -25.8040  -35.0310   23.4630 C   0  0  0  0  0  0  0  0  0  0  0  0
  -26.4780  -34.9460   22.4310 O   0  0  0  0  0  0  0  0  0  0  0  0
  -24.8770  -34.1030   25.0070 H   0  0  0  0  0  0  0  0  0  0  0  0
  -24.0690  -36.8180   23.1140 C   0  0  0  0  0  1  0  0  0  0  0  0
  -25.3030  -36.4100   23.9340 C   0  0  0  0  0  3  0  0  0  0  0  0
  -27.4250  -37.2850   24.8010 C   0  0  0  0  0  1  0  0  0  0  0  0
  -26.3310  -37.4680   23.8510 N   0  0  0  0  0  0  0  0  0  0  0  0
  -25.9210  -38.3820   24.0160 H   0  0  0  0  0  0  0  0  0  0  0  0
  1  6  1  0
  1  5  1  0
  2 55  1  0
  2  1  2  0
  3  9  1  0
  3  6  2  0
  4  3  1  0
  7  4  2  0
  7  2  1  0
  8  4  1  0
 10 12  1  0
 11 14  1  0
 11 10  2  0
 12 15  2  0
 12  9  1  0
 13 18  1  0
 13 15  1  0
 14 13  2  0
 18 16  1  1
 18 17  1  0
 19 18  1  0
 20 25  1  0
 21 22  1  0
 21 20  1  0
 23 22  1  0
 23 30  1  0
 23 24  1  0
 25 19  1  0
 25 24  1  0
 26 19  2  0
 27 28  2  0
 28 47  1  0
 29 28  1  0
 29 32  1  0
 30 31  1  0
 30 27  1  0
 31 29  2  0
 32 33  1  0
 33 34  2  0
 35 38  1  0
 35 34  1  0
 36 35  2  0
 37 36  1  0
 37 32  2  0
 38 39  1  0
 39 40  1  0
 40 41  2  0
 42 41  1  0
 42 46  1  0
 43 42  2  0
 44 39  2  0
 44 43  1  0
 45 44  1  0
 47 48  1  0
 48 51  1  0
 48 50  1  0
 49 47  2  0
 52 27  1  0
 52 53  1  0
 54 52  1  0
 56 58  1  0
 56 55  1  0
 57 68  2  0
 58 63  1  0
 59 67  1  0
 59 69  1  0
 60 66  1  0
 60 62  1  0
 61 67  1  0
 62 61  1  0
 63 62  2  0
 64 65  1  0
 64 58  2  0
 65 60  2  0
 66 59  1  0
 67 57  1  0
 69 71  2  0
 70 69  1  0
 72 70  1  0
 73 82  2  0
 73 78  1  0
 74 70  1  0
 74 78  1  0
 75 74  1  0
 76 77  1  0
 76 75  1  0
 77 73  1  0
 78 79  2  0
 79 80  1  0
 81 80  2  0
 82 81  1  0
 83 57  1  0
 83 88  1  0
 83 84  1  0
 84 87  1  1
 84 85  1  0
 86 84  1  0
 88 91  1  0
 89 93  1  0
 89 88  1  0
 90 89  2  0
 93 92  1  0
 95 93  1  0
 95 96  1  0
 95 94  1  0
M  ISO  4  18 100  19 100  55 101  56 101
M  END
>  <TORSDO>  (22) 
F 20

>  <SCORE>  (22) 
-12.346

>  <name>  (22) 
21

>  <ligand_id>  (22) 
21

>  <original_smiles>  (22) 
[H]c1nc(C(C(=O)N2C([H])([H])C([H])([H])C([H])([H])C([H])(n3nc(-c4c([H])c([H])c(Oc5c([H])c([H])c(F)c([H])c5F)c([H])c4[H])c(C(=O)N([H])[H])c3N([H])[H])C2([H])[H])(C([H])([H])[H])C([H])([H])[H])nc(C([H])([H])c2nc(C([H])([H])[H])c(C([H])([H])Oc3c([H])c([H])c4c(c3[H])C([H])([H])N(C(=O)C([H])(N([H])C(=O)C([H])(N([H])C([H])([H])[H])C([H])([H])[H])C(C([H])([H])[H])(C([H])([H])[H])C([H])([H])[H])C([H])(C(=O)N([H])C3([H])c5c([H])c([H])c([H])c([H])c5C([H])([H])C([H])([H])C3([H])[H])C4([H])[H])nc2Cl)c1[H]

>  <smiles>  (22) 
[H]c1nc(C(C(=O)N2C([H])([H])C([H])([H])C([H])([H])C([H])(n3nc(-c4c([H])c([H])c(Oc5c([H])c([H])c(F)c([H])c5F)c([H])c4[H])c(C(=O)N([H])[H])c3N([H])[H])C2([H])[H])(C([H])([H])[H])C([H])([H])[H])nc(C([H])([H])c2nc(C([H])([H])[H])c(C([H])([H])Oc3c([H])c([H])c4c(c3[H])C([H])([H])N(C(=O)C([H])(N([H])C(=O)C([H])(N([H])C([H])([H])[H])C([H])([H])[H])C(C([H])([H])[H])(C([H])([H])[H])C([H])([H])[H])C([H])(C(=O)N([H])C3([H])c5c([H])c([H])c([H])c([H])c5C([H])([H])C([H])([H])C3([H])[H])C4([H])[H])nc2Cl)c1[H]

$$$$
22:0:0
     RDKit          3D

 92100  0  0  1  0  0  0  0  0999 V2000
  -30.1950  -18.9230   20.3170 C   0  0  0  0  0  0  0  0  0  0  0  0
  -30.7900  -19.6420   21.4140 C   0  0  0  0  0  0  0  0  0  0  0  0
  -29.4480  -19.8240   19.6700 N   0  0  0  0  0  0  0  0  0  0  0  0
  -30.3770  -20.9100   21.4360 N   0  0  0  0  0  0  0  0  0  0  0  0
  -29.5850  -21.0400   20.3380 N   0  0  0  0  0  0  0  0  0  0  0  0
  -31.8000  -19.1310   22.4200 C   0  0  1  0  0  0  0  0  0  0  0  0
  -32.1210  -17.8540   22.2200 F   0  0  0  0  0  0  0  0  0  0  0  0
  -32.9370  -19.8280   22.3600 F   0  0  0  0  0  0  0  0  0  0  0  0
  -31.3340  -19.2330   23.6650 F   0  0  0  0  0  0  0  0  0  0  0  0
  -30.4590  -17.4520   19.7450 C   0  0  0  0  0  2  0  0  0  0  0  0
  -30.8200  -14.9050   20.0810 C   0  0  0  0  0  0  0  0  0  0  0  0
  -30.5640  -12.6490   18.9980 C   0  0  0  0  0  2  0  0  0  0  0  0
  -29.5720  -12.7610   17.8190 C   0  0  0  0  0  2  0  0  0  0  0  0
  -28.1210  -12.5680   18.3070 C   0  0  0  0  0  2  0  0  0  0  0  0
  -27.8100  -13.3930   19.5850 C   0  0  0  0  0  3  0  0  0  0  0  0
  -28.9250  -13.2200   20.6360 C   0  0  0  0  0  2  0  0  0  0  0  0
  -30.1750  -13.6740   20.0060 N   0  0  0  0  0  0  0  0  0  0  0  0
  -31.9450  -14.9860   19.5750 O   0  0  0  0  0  0  0  0  0  0  0  0
  -29.2100  -16.1860   21.5440 C   0  0  0  0  0  1  0  0  0  0  0  0
  -30.1370  -16.0960   20.4090 N   0  0  0  0  0  0  0  0  0  0  0  0
  -25.4600  -13.9630   20.4350 C   0  0  0  0  0  0  0  0  0  0  0  0
  -24.4120  -13.1810   20.8330 C   0  0  0  0  0  0  0  0  0  0  0  0
  -24.8660  -11.8300   20.7310 C   0  0  0  0  0  0  0  0  0  0  0  0
  -26.4890  -13.0900   20.1220 N   0  0  0  0  0  0  0  0  0  0  0  0
  -26.1400  -11.7990   20.3580 N   0  0  0  0  0  0  0  0  0  0  0  0
  -24.1450  -10.5660   20.9200 C   0  0  0  0  0  0  0  0  0  0  0  0
  -24.5840   -9.5940   21.8470 C   0  0  0  0  0  3  0  0  0  0  0  0
  -23.8620   -8.3950   22.0250 C   0  0  0  0  0  3  0  0  0  0  0  0
  -22.6860   -8.1570   21.2750 C   0  0  0  0  0  0  0  0  0  0  0  0
  -22.2630   -9.1170   20.3380 C   0  0  0  0  0  3  0  0  0  0  0  0
  -22.9860  -10.3090   20.1600 C   0  0  0  0  0  3  0  0  0  0  0  0
  -21.9350   -7.0100   21.3590 O   0  0  0  0  0  0  0  0  0  0  0  0
  -21.8520   -6.2870   22.5230 C   0  0  0  0  0  0  0  0  0  0  0  0
  -21.3240   -6.8450   23.7060 C   0  0  0  0  0  3  0  0  0  0  0  0
  -21.1930   -6.0490   24.8620 C   0  0  0  0  0  3  0  0  0  0  0  0
  -21.5780   -4.6950   24.8310 C   0  0  0  0  0  0  0  0  0  0  0  0
  -22.0990   -4.1370   23.6510 C   0  0  0  0  0  3  0  0  0  0  0  0
  -22.2330   -4.9310   22.4990 C   0  0  0  0  0  0  0  0  0  0  0  0
  -22.7160   -4.3830   21.3580 F   0  0  0  0  0  0  0  0  0  0  0  0
  -21.4440   -3.9280   25.9380 F   0  0  0  0  0  0  0  0  0  0  0  0
  -23.0340  -13.6520   21.1950 C   0  0  0  0  0  0  0  0  0  0  0  0
  -22.3560  -12.9380   22.0840 N   0  0  0  0  0  0  0  0  0  0  0  0
  -22.5700  -14.6930   20.7260 O   0  0  0  0  0  0  0  0  0  0  0  0
  -22.7470  -12.0960   22.4830 H   0  0  0  0  0  0  0  0  0  0  0  0
  -21.4360  -13.2330   22.3730 H   0  0  0  0  0  0  0  0  0  0  0  0
  -25.6120  -15.3400   20.2940 N   0  0  0  0  0  0  0  0  0  0  0  0
  -24.8420  -15.9820   20.4620 H   0  0  0  0  0  0  0  0  0  0  0  0
  -26.4370  -15.7990   19.9330 H   0  0  0  0  0  0  0  0  0  0  0  0
  -28.8140  -22.3000   19.9380 C   0  0  0  0  0  2  0  0  0  0  0  0
  -29.1100  -23.8020   20.4840 C   0  0  0  0  0  3  0  0  0  0  0  0
  -28.0590  -24.9700   20.0470 C   0  0  0  0  0  3  0  0  0  0  0  0
  -28.2750  -26.4510   20.2370 O   0  0  0  0  0  0  0  0  0  0  0  0
  -24.6310  -31.9680   23.2190 C   0  0  0  0  0  0  0  0  0  0  0  0
  -27.1740  -27.3430   20.1550 C   0  0  0  0  0  0  0  0  0  0  0  0
  -23.3930  -30.5630   21.6070 C   0  0  0  0  0  3  0  0  0  0  0  0
  -24.8150  -28.9990   20.1570 C   0  0  0  0  0  0  0  0  0  0  0  0
  -25.9320  -30.8580   21.3850 C   0  0  0  0  0  2  0  0  0  0  0  0
  -25.9960  -29.4740   20.7430 C   0  0  0  0  0  0  0  0  0  0  0  0
  -27.1720  -28.6580   20.7350 C   0  0  0  0  0  3  0  0  0  0  0  0
  -25.9740  -26.9460   19.5170 C   0  0  0  0  0  3  0  0  0  0  0  0
  -24.8120  -27.7450   19.5250 C   0  0  0  0  0  3  0  0  0  0  0  0
  -23.5820  -29.8810   20.2250 C   0  0  0  0  0  2  0  0  0  0  0  0
  -24.6710  -31.1520   22.1240 N   0  0  0  0  0  0  0  0  0  0  0  0
  -23.5600  -32.2540   23.7730 O   0  0  0  0  0  0  0  0  0  0  0  0
  -22.7420  -29.5590   22.5890 C   0  0  0  0  0  0  0  0  0  0  0  0
  -21.4250  -29.3370   22.4460 N   0  0  0  0  0  0  0  0  0  0  0  0
  -23.4240  -28.9810   23.4390 O   0  0  0  0  0  0  0  0  0  0  0  0
  -20.9320  -29.8600   21.7360 H   0  0  0  0  0  0  0  0  0  0  0  0
  -18.0900  -28.0000   22.8820 C   0  0  0  0  0  0  0  0  0  0  0  0
  -20.6220  -28.3980   23.2310 C   0  0  0  0  0  3  0  0  0  0  0  0
  -20.8120  -26.9460   22.7310 C   0  0  0  0  0  2  0  0  0  0  0  0
  -19.7660  -26.5230   21.6930 C   0  0  0  0  0  2  0  0  0  0  0  0
  -18.3550  -26.6310   22.2780 C   0  0  0  0  0  2  0  0  0  0  0  0
  -19.1550  -28.8350   23.3150 C   0  0  0  0  0  0  0  0  0  0  0  0
  -18.8530  -30.1090   23.8400 C   0  0  0  0  0  3  0  0  0  0  0  0
  -17.5190  -30.5510   23.9380 C   0  0  0  0  0  3  0  0  0  0  0  0
  -16.4700  -29.7150   23.5210 C   0  0  0  0  0  3  0  0  0  0  0  0
  -16.7560  -28.4410   22.9970 C   0  0  0  0  0  3  0  0  0  0  0  0
  -25.9280  -32.6010   23.8130 C   0  0  0  0  0  3  0  0  0  0  0  0
  -25.6190  -33.9920   24.1770 N   0  0  0  0  0  0  0  0  0  0  0  0
  -25.9030  -35.0610   23.4220 C   0  0  0  0  0  0  0  0  0  0  0  0
  -26.5210  -34.9810   22.3570 O   0  0  0  0  0  0  0  0  0  0  0  0
  -25.0640  -34.1280   25.0100 H   0  0  0  0  0  0  0  0  0  0  0  0
  -24.1370  -36.8390   23.1900 C   0  0  0  0  0  1  0  0  0  0  0  0
  -25.4240  -36.4360   23.9260 C   0  0  0  0  0  3  0  0  0  0  0  0
  -27.5810  -37.3460   24.6660 C   0  0  0  0  0  1  0  0  0  0  0  0
  -26.4350  -37.5040   23.7750 N   0  0  0  0  0  0  0  0  0  0  0  0
  -26.0250  -38.4180   23.9450 H   0  0  0  0  0  0  0  0  0  0  0  0
  -26.4890  -31.8160   25.0630 C   0  0  1  0  0  0  0  0  0  0  0  0
  -25.4230  -31.5270   26.1450 C   0  0  0  0  0  1  0  0  0  0  0  0
  -27.0970  -30.4630   24.6310 C   0  0  0  0  0  1  0  0  0  0  0  0
  -27.6330  -32.6250   25.7200 C   0  0  0  0  0  1  0  0  0  0  0  0
  1  2  1  0
  2  4  2  0
  2  6  1  0
  3  1  2  0
  3  5  1  0
  5  4  1  0
  6  9  1  1
  7  6  1  0
  8  6  1  0
 10  1  1  0
 10 20  1  0
 11 20  1  0
 12 17  1  0
 13 14  1  0
 13 12  1  0
 15 14  1  0
 15 24  1  0
 15 16  1  0
 17 11  1  0
 17 16  1  0
 18 11  2  0
 20 19  1  0
 21 22  2  0
 22 41  1  0
 23 22  1  0
 23 26  1  0
 24 25  1  0
 24 21  1  0
 25 23  2  0
 26 27  1  0
 27 28  2  0
 29 32  1  0
 29 28  1  0
 30 29  2  0
 31 30  1  0
 31 26  2  0
 32 33  1  0
 33 34  1  0
 34 35  2  0
 36 35  1  0
 36 40  1  0
 37 36  2  0
 38 33  2  0
 38 37  1  0
 39 38  1  0
 41 42  1  0
 42 45  1  0
 42 44  1  0
 43 41  2  0
 46 21  1  0
 46 47  1  0
 48 46  1  0
 49  5  1  0
 49 50  1  0
 51 52  1  0
 51 50  2  0
 53 64  2  0
 54 52  1  0
 54 59  1  0
 55 63  1  0
 55 65  1  0
 56 62  1  0
 56 58  1  0
 57 63  1  0
 58 57  1  0
 59 58  2  0
 60 61  1  0
 60 54  2  0
 61 56  2  0
 62 55  1  0
 63 53  1  0
 65 67  2  0
 66 65  1  0
 68 66  1  0
 69 78  2  0
 69 74  1  0
 70 66  1  0
 70 74  1  0
 71 70  1  0
 72 73  1  0
 72 71  1  0
 73 69  1  0
 74 75  2  0
 75 76  1  0
 77 76  2  0
 78 77  1  0
 79 53  1  0
 79 80  1  0
 79 89  1  0
 80 83  1  0
 81 85  1  0
 81 80  1  0
 82 81  2  0
 85 84  1  0
 87 85  1  0
 87 88  1  0
 87 86  1  0
 89 92  1  1
 89 90  1  0
 91 89  1  0
M  ISO  4  11 100  20 100  51 101  52 101
M  END
>  <TORSDO>  (23) 
F 21

>  <SCORE>  (23) 
-13.015

>  <name>  (23) 
22

>  <ligand_id>  (23) 
22

>  <original_smiles>  (23) 
[H]c1c([H])c([H])c2c(c1[H])C([H])([H])C([H])([H])C([H])([H])C2([H])N([H])C(=O)C1([H])N(C(=O)C([H])(N([H])C(=O)C([H])(N([H])C([H])([H])[H])C([H])([H])[H])C(C([H])([H])[H])(C([H])([H])[H])C([H])([H])[H])C([H])([H])c2c([H])c(OC([H])([H])C([H])([H])C([H])([H])n3nc(C(F)(F)F)c(C([H])([H])N(C(=O)N4C([H])([H])C([H])([H])C([H])([H])C([H])(n5nc(-c6c([H])c([H])c(Oc7c([H])c([H])c(F)c([H])c7F)c([H])c6[H])c(C(=O)N([H])[H])c5N([H])[H])C4([H])[H])C([H])([H])[H])n3)c([H])c([H])c2C1([H])[H]

>  <smiles>  (23) 
[H]c1c([H])c([H])c2c(c1[H])C([H])([H])C([H])([H])C([H])([H])C2([H])N([H])C(=O)C1([H])N(C(=O)C([H])(N([H])C(=O)C([H])(N([H])C([H])([H])[H])C([H])([H])[H])C(C([H])([H])[H])(C([H])([H])[H])C([H])([H])[H])C([H])([H])c2c([H])c(OC([H])([H])C([H])([H])C([H])([H])n3nc(C(F)(F)F)c(C([H])([H])N(C(=O)N4C([H])([H])C([H])([H])C([H])([H])C([H])(n5nc(-c6c([H])c([H])c(Oc7c([H])c([H])c(F)c([H])c7F)c([H])c6[H])c(C(=O)N([H])[H])c5N([H])[H])C4([H])[H])C([H])([H])[H])n3)c([H])c([H])c2C1([H])[H]

$$$$
23:0:0
     RDKit          3D

 90 98  0  0  1  0  0  0  0  0999 V2000
  -29.9800  -19.6430   20.1540 C   0  0  0  0  0  0  0  0  0  0  0  0
  -30.0140  -18.6110   21.0800 C   0  0  0  0  0  0  0  0  0  0  0  0
  -29.8840  -18.7730   22.5660 C   0  0  0  0  0  1  0  0  0  0  0  0
  -30.1290  -19.0080   18.9130 N   0  0  0  0  0  0  0  0  0  0  0  0
  -30.3080  -17.7110   19.0520 N   0  0  0  0  0  0  0  0  0  0  0  0
  -30.2780  -17.3880   20.3760 N   0  0  0  0  0  0  0  0  0  0  0  0
  -29.7590  -15.5900   22.0550 C   0  0  0  0  0  1  0  0  0  0  0  0
  -32.0870  -16.1370   21.4770 C   0  0  0  0  0  1  0  0  0  0  0  0
  -30.6670  -15.9730   20.8700 C   0  0  2  0  0  0  0  0  0  0  0  0
  -30.8710  -14.7540   19.7970 C   0  0  0  0  0  0  0  0  0  0  0  0
  -30.3760  -12.6540   18.4960 C   0  0  0  0  0  2  0  0  0  0  0  0
  -29.3130  -12.9040   17.4010 C   0  0  0  0  0  2  0  0  0  0  0  0
  -27.8850  -12.7590   17.9650 C   0  0  0  0  0  2  0  0  0  0  0  0
  -27.7100  -13.5040   19.3120 C   0  0  0  0  0  3  0  0  0  0  0  0
  -28.8640  -13.1520   20.2670 C   0  0  0  0  0  2  0  0  0  0  0  0
  -30.1230  -13.5900   19.6320 N   0  0  0  0  0  0  0  0  0  0  0  0
  -31.8710  -14.8660   19.0790 O   0  0  0  0  0  0  0  0  0  0  0  0
  -25.4360  -14.1470   20.3190 C   0  0  0  0  0  0  0  0  0  0  0  0
  -24.3790  -13.3940   20.7550 C   0  0  0  0  0  0  0  0  0  0  0  0
  -24.7730  -12.0310   20.5910 C   0  0  0  0  0  0  0  0  0  0  0  0
  -26.4060  -13.2430   19.9170 N   0  0  0  0  0  0  0  0  0  0  0  0
  -26.0190  -11.9610   20.1390 N   0  0  0  0  0  0  0  0  0  0  0  0
  -24.0120  -10.7890   20.7820 C   0  0  0  0  0  0  0  0  0  0  0  0
  -24.4790   -9.7610   21.6300 C   0  0  0  0  0  3  0  0  0  0  0  0
  -23.7200   -8.5830   21.8110 C   0  0  0  0  0  3  0  0  0  0  0  0
  -22.4820   -8.4290   21.1460 C   0  0  0  0  0  0  0  0  0  0  0  0
  -22.0320   -9.4470   20.2860 C   0  0  0  0  0  3  0  0  0  0  0  0
  -22.7910  -10.6140   20.1020 C   0  0  0  0  0  3  0  0  0  0  0  0
  -21.6880   -7.3120   21.2420 O   0  0  0  0  0  0  0  0  0  0  0  0
  -21.6820   -6.5290   22.3690 C   0  0  0  0  0  0  0  0  0  0  0  0
  -21.3680   -7.0570   23.6400 C   0  0  0  0  0  3  0  0  0  0  0  0
  -21.3030   -6.2020   24.7600 C   0  0  0  0  0  3  0  0  0  0  0  0
  -21.5430   -4.8230   24.6100 C   0  0  0  0  0  0  0  0  0  0  0  0
  -21.8500   -4.2970   23.3420 C   0  0  0  0  0  3  0  0  0  0  0  0
  -21.9160   -5.1460   22.2250 C   0  0  0  0  0  0  0  0  0  0  0  0
  -22.1920   -4.6300   21.0030 F   0  0  0  0  0  0  0  0  0  0  0  0
  -21.4730   -4.0020   25.6830 F   0  0  0  0  0  0  0  0  0  0  0  0
  -23.0420  -13.9070   21.2060 C   0  0  0  0  0  0  0  0  0  0  0  0
  -22.3880  -13.1960   22.1160 N   0  0  0  0  0  0  0  0  0  0  0  0
  -22.5910  -14.9720   20.7850 O   0  0  0  0  0  0  0  0  0  0  0  0
  -22.7690  -12.3340   22.4800 H   0  0  0  0  0  0  0  0  0  0  0  0
  -21.4930  -13.5180   22.4560 H   0  0  0  0  0  0  0  0  0  0  0  0
  -25.6430  -15.5190   20.2130 N   0  0  0  0  0  0  0  0  0  0  0  0
  -24.9240  -16.1920   20.4570 H   0  0  0  0  0  0  0  0  0  0  0  0
  -26.4750  -15.9500   19.8300 H   0  0  0  0  0  0  0  0  0  0  0  0
  -30.0870  -21.2100   20.3460 C   0  0  0  0  0  3  0  0  0  0  0  0
  -28.8750  -22.2510   20.1880 C   0  0  0  0  0  3  0  0  0  0  0  0
  -29.1960  -23.8290   20.3780 C   0  0  0  0  0  3  0  0  0  0  0  0
  -28.0530  -24.9300   20.1190 C   0  0  0  0  0  3  0  0  0  0  0  0
  -28.2920  -26.3950   20.3180 O   0  0  0  0  0  0  0  0  0  0  0  0
  -24.5940  -31.8840   23.2930 C   0  0  0  0  0  0  0  0  0  0  0  0
  -27.1850  -27.2740   20.2600 C   0  0  0  0  0  0  0  0  0  0  0  0
  -23.3830  -30.4770   21.6670 C   0  0  0  0  0  3  0  0  0  0  0  0
  -24.8260  -28.9130   20.2480 C   0  0  0  0  0  0  0  0  0  0  0  0
  -25.9270  -30.7810   21.4780 C   0  0  0  0  0  2  0  0  0  0  0  0
  -26.0010  -29.3960   20.8370 C   0  0  0  0  0  0  0  0  0  0  0  0
  -27.1830  -28.5890   20.8320 C   0  0  0  0  0  3  0  0  0  0  0  0
  -25.9820  -26.8560   19.6430 C   0  0  0  0  0  3  0  0  0  0  0  0
  -24.8200  -27.6490   19.6410 C   0  0  0  0  0  3  0  0  0  0  0  0
  -23.5920  -29.7930   20.2920 C   0  0  0  0  0  2  0  0  0  0  0  0
  -24.6540  -31.0660   22.2020 N   0  0  0  0  0  0  0  0  0  0  0  0
  -23.5120  -32.1690   23.8270 O   0  0  0  0  0  0  0  0  0  0  0  0
  -22.7210  -29.4700   22.6370 C   0  0  0  0  0  0  0  0  0  0  0  0
  -21.3960  -29.2820   22.5040 N   0  0  0  0  0  0  0  0  0  0  0  0
  -23.3970  -28.8590   23.4690 O   0  0  0  0  0  0  0  0  0  0  0  0
  -20.9090  -29.8260   21.8060 H   0  0  0  0  0  0  0  0  0  0  0  0
  -18.0240  -28.0620   22.9900 C   0  0  0  0  0  0  0  0  0  0  0  0
  -20.5780  -28.3510   23.2830 C   0  0  0  0  0  3  0  0  0  0  0  0
  -20.6990  -26.9100   22.7360 C   0  0  0  0  0  2  0  0  0  0  0  0
  -19.6120  -26.5580   21.7150 C   0  0  0  0  0  2  0  0  0  0  0  0
  -18.2220  -26.7020   22.3410 C   0  0  0  0  0  2  0  0  0  0  0  0
  -19.1310  -28.8420   23.4170 C   0  0  0  0  0  0  0  0  0  0  0  0
  -18.8930  -30.1130   23.9850 C   0  0  0  0  0  3  0  0  0  0  0  0
  -17.5820  -30.6040   24.1290 C   0  0  0  0  0  3  0  0  0  0  0  0
  -16.4900  -29.8200   23.7170 C   0  0  0  0  0  3  0  0  0  0  0  0
  -16.7120  -28.5510   23.1530 C   0  0  0  0  0  3  0  0  0  0  0  0
  -25.8790  -32.5190   23.9080 C   0  0  0  0  0  3  0  0  0  0  0  0
  -25.5690  -33.9180   24.2370 N   0  0  0  0  0  0  0  0  0  0  0  0
  -25.8820  -34.9690   23.4680 C   0  0  0  0  0  0  0  0  0  0  0  0
  -26.5330  -34.8650   22.4240 O   0  0  0  0  0  0  0  0  0  0  0  0
  -24.9890  -34.0720   25.0480 H   0  0  0  0  0  0  0  0  0  0  0  0
  -24.1320  -36.7510   23.1540 C   0  0  0  0  0  1  0  0  0  0  0  0
  -25.4000  -36.3590   23.9300 C   0  0  0  0  0  3  0  0  0  0  0  0
  -27.5510  -37.2650   24.6940 C   0  0  0  0  0  1  0  0  0  0  0  0
  -26.4210  -37.4170   23.7800 N   0  0  0  0  0  0  0  0  0  0  0  0
  -26.0130  -38.3350   23.9310 H   0  0  0  0  0  0  0  0  0  0  0  0
  -26.4010  -31.7510   25.1840 C   0  0  1  0  0  0  0  0  0  0  0  0
  -25.3120  -31.5100   26.2540 C   0  0  0  0  0  1  0  0  0  0  0  0
  -26.9890  -30.3740   24.7950 C   0  0  0  0  0  1  0  0  0  0  0  0
  -27.5500  -32.5520   25.8420 C   0  0  0  0  0  1  0  0  0  0  0  0
  1 46  1  0
  1  2  2  0
  2  3  1  0
  4  5  2  0
  4  1  1  0
  5  6  1  0
  6  9  1  0
  6  2  1  0
  9  8  1  1
  9  7  1  0
 10  9  1  0
 11 16  1  0
 12 13  1  0
 12 11  1  0
 14 13  1  0
 14 21  1  0
 14 15  1  0
 16 10  1  0
 16 15  1  0
 17 10  2  0
 18 19  2  0
 19 38  1  0
 20 19  1  0
 20 23  1  0
 21 22  1  0
 21 18  1  0
 22 20  2  0
 23 24  1  0
 24 25  2  0
 26 29  1  0
 26 25  1  0
 27 26  2  0
 28 27  1  0
 28 23  2  0
 29 30  1  0
 30 31  1  0
 31 32  2  0
 33 32  1  0
 33 37  1  0
 34 33  2  0
 35 30  2  0
 35 34  1  0
 36 35  1  0
 38 39  1  0
 39 42  1  0
 39 41  1  0
 40 38  2  0
 43 18  1  0
 43 44  1  0
 45 43  1  0
 47 46  2  0
 47 48  1  0
 49 50  1  0
 49 48  2  0
 51 62  2  0
 52 50  1  0
 52 57  1  0
 53 61  1  0
 53 63  1  0
 54 60  1  0
 54 56  1  0
 55 61  1  0
 56 55  1  0
 57 56  2  0
 58 52  2  0
 59 58  1  0
 59 54  2  0
 60 53  1  0
 61 51  1  0
 63 65  2  0
 64 63  1  0
 66 64  1  0
 67 76  2  0
 67 72  1  0
 68 64  1  0
 68 72  1  0
 69 68  1  0
 70 71  1  0
 70 69  1  0
 71 67  1  0
 72 73  2  0
 73 74  1  0
 75 74  2  0
 76 75  1  0
 77 51  1  0
 77 78  1  0
 77 87  1  0
 78 81  1  0
 79 83  1  0
 79 78  1  0
 80 79  2  0
 83 82  1  0
 85 83  1  0
 85 86  1  0
 85 84  1  0
 87 90  1  1
 87 88  1  0
 89 87  1  0
M  ISO  4   9 100  10 100  49 101  50 101
M  END
>  <TORSDO>  (24) 
F 21

>  <SCORE>  (24) 
-9.926

>  <name>  (24) 
23

>  <ligand_id>  (24) 
23

>  <original_smiles>  (24) 
[H]c1c([H])c([H])c2c(c1[H])C([H])([H])C([H])([H])C([H])([H])C2([H])N([H])C(=O)C1([H])N(C(=O)C([H])(N([H])C(=O)C([H])(N([H])C([H])([H])[H])C([H])([H])[H])C(C([H])([H])[H])(C([H])([H])[H])C([H])([H])[H])C([H])([H])c2c([H])c(OC([H])([H])C([H])([H])C([H])([H])C([H])([H])c3nnn(C(C(=O)N4C([H])([H])C([H])([H])C([H])([H])C([H])(n5nc(-c6c([H])c([H])c(Oc7c([H])c([H])c(F)c([H])c7F)c([H])c6[H])c(C(=O)N([H])[H])c5N([H])[H])C4([H])[H])(C([H])([H])[H])C([H])([H])[H])c3C([H])([H])[H])c([H])c([H])c2C1([H])[H]

>  <smiles>  (24) 
[H]c1c([H])c([H])c2c(c1[H])C([H])([H])C([H])([H])C([H])([H])C2([H])N([H])C(=O)C1([H])N(C(=O)C([H])(N([H])C(=O)C([H])(N([H])C([H])([H])[H])C([H])([H])[H])C(C([H])([H])[H])(C([H])([H])[H])C([H])([H])[H])C([H])([H])c2c([H])c(OC([H])([H])C([H])([H])C([H])([H])C([H])([H])c3nnn(C(C(=O)N4C([H])([H])C([H])([H])C([H])([H])C([H])(n5nc(-c6c([H])c([H])c(Oc7c([H])c([H])c(F)c([H])c7F)c([H])c6[H])c(C(=O)N([H])[H])c5N([H])[H])C4([H])[H])(C([H])([H])[H])C([H])([H])[H])c3C([H])([H])[H])c([H])c([H])c2C1([H])[H]

$$$$
24:0:0
     RDKit          3D

 95103  0  0  1  0  0  0  0  0999 V2000
  -30.9200  -20.7720   20.0650 C   0  0  0  0  0  3  0  0  0  0  0  0
  -29.5980  -21.2600   19.8730 C   0  0  0  0  0  0  0  0  0  0  0  0
  -30.1990  -18.5600   20.4390 C   0  0  0  0  0  0  0  0  0  0  0  0
  -28.8570  -19.0340   20.2140 C   0  0  0  0  0  0  0  0  0  0  0  0
  -31.2130  -19.4690   20.3590 N   0  0  0  0  0  0  0  0  0  0  0  0
  -28.5730  -20.3650   19.9610 N   0  0  0  0  0  0  0  0  0  0  0  0
  -27.6350  -18.1060   20.3140 C   0  0  1  0  0  0  0  0  0  0  0  0
  -26.6930  -18.4800   19.4460 F   0  0  0  0  0  0  0  0  0  0  0  0
  -27.9330  -16.8350   20.0500 F   0  0  0  0  0  0  0  0  0  0  0  0
  -27.1270  -18.1760   21.5450 F   0  0  0  0  0  0  0  0  0  0  0  0
  -29.3170  -22.8140   19.8070 C   0  0  0  0  0  2  0  0  0  0  0  0
  -28.1990  -23.4450   18.8700 C   0  0  0  0  0  2  0  0  0  0  0  0
  -28.4210  -24.9100   18.2580 C   0  0  0  0  0  2  0  0  0  0  0  0
  -28.3700  -26.1570   19.0460 O   0  0  0  0  0  0  0  0  0  0  0  0
  -24.8680  -31.2310   22.7490 C   0  0  0  0  0  0  0  0  0  0  0  0
  -27.2360  -26.9780   19.1130 C   0  0  0  0  0  0  0  0  0  0  0  0
  -23.5520  -30.0180   21.0460 C   0  0  0  0  0  3  0  0  0  0  0  0
  -24.8940  -28.6000   19.3930 C   0  0  0  0  0  0  0  0  0  0  0  0
  -26.0810  -30.3260   20.7540 C   0  0  0  0  0  2  0  0  0  0  0  0
  -26.0990  -29.0180   19.9690 C   0  0  0  0  0  0  0  0  0  0  0  0
  -27.2670  -28.2170   19.8230 C   0  0  0  0  0  3  0  0  0  0  0  0
  -26.0040  -26.6020   18.5300 C   0  0  0  0  0  3  0  0  0  0  0  0
  -24.8470  -27.3980   18.6680 C   0  0  0  0  0  3  0  0  0  0  0  0
  -23.6770  -29.4800   19.5960 C   0  0  0  0  0  2  0  0  0  0  0  0
  -24.8560  -30.5360   21.5740 N   0  0  0  0  0  0  0  0  0  0  0  0
  -23.8200  -31.4670   23.3690 O   0  0  0  0  0  0  0  0  0  0  0  0
  -22.9230  -28.9210   21.9370 C   0  0  0  0  0  0  0  0  0  0  0  0
  -21.5840  -28.8210   21.9180 N   0  0  0  0  0  0  0  0  0  0  0  0
  -23.6370  -28.1670   22.6040 O   0  0  0  0  0  0  0  0  0  0  0  0
  -21.0680  -29.4810   21.3530 H   0  0  0  0  0  0  0  0  0  0  0  0
  -18.2010  -27.7530   22.6200 C   0  0  0  0  0  0  0  0  0  0  0  0
  -20.7850  -27.8340   22.6450 C   0  0  0  0  0  3  0  0  0  0  0  0
  -20.7320  -26.4900   21.8810 C   0  0  0  0  0  2  0  0  0  0  0  0
  -19.5150  -26.3690   20.9590 C   0  0  0  0  0  2  0  0  0  0  0  0
  -18.2170  -26.5010   21.7610 C   0  0  0  0  0  2  0  0  0  0  0  0
  -19.4060  -28.3870   23.0220 C   0  0  0  0  0  0  0  0  0  0  0  0
  -19.3340  -29.5690   23.7920 C   0  0  0  0  0  3  0  0  0  0  0  0
  -18.0900  -30.1120   24.1620 C   0  0  0  0  0  3  0  0  0  0  0  0
  -16.9000  -29.4720   23.7740 C   0  0  0  0  0  3  0  0  0  0  0  0
  -16.9570  -28.2940   23.0080 C   0  0  0  0  0  3  0  0  0  0  0  0
  -26.1940  -31.7790   23.3590 C   0  0  0  0  0  3  0  0  0  0  0  0
  -25.9050  -33.1010   23.9340 N   0  0  0  0  0  0  0  0  0  0  0  0
  -26.2220  -34.2680   23.3590 C   0  0  0  0  0  0  0  0  0  0  0  0
  -26.8590  -34.3430   22.3040 O   0  0  0  0  0  0  0  0  0  0  0  0
  -25.3340  -33.1170   24.7660 H   0  0  0  0  0  0  0  0  0  0  0  0
  -24.5030  -36.1050   23.3710 C   0  0  0  0  0  1  0  0  0  0  0  0
  -25.7610  -35.5590   24.0640 C   0  0  0  0  0  3  0  0  0  0  0  0
  -27.9230  -36.2740   24.9800 C   0  0  0  0  0  1  0  0  0  0  0  0
  -26.8000  -36.6100   24.1090 N   0  0  0  0  0  0  0  0  0  0  0  0
  -26.4060  -37.4920   24.4250 H   0  0  0  0  0  0  0  0  0  0  0  0
  -26.8180  -30.8240   24.4500 C   0  0  1  0  0  0  0  0  0  0  0  0
  -25.8220  -30.4110   25.5590 C   0  0  0  0  0  1  0  0  0  0  0  0
  -27.3610  -29.5320   23.7980 C   0  0  0  0  0  1  0  0  0  0  0  0
  -28.0220  -31.5200   25.1290 C   0  0  0  0  0  1  0  0  0  0  0  0
  -30.6010  -17.0970   20.9380 C   0  0  0  0  0  2  0  0  0  0  0  0
  -31.2110  -14.7030   20.4840 C   0  0  0  0  0  0  0  0  0  0  0  0
  -31.0350  -12.2720   19.9570 C   0  0  0  0  0  2  0  0  0  0  0  0
  -30.2050  -12.0170   18.6840 C   0  0  0  0  0  2  0  0  0  0  0  0
  -28.6890  -12.0450   18.9670 C   0  0  0  0  0  2  0  0  0  0  0  0
  -28.2370  -13.1550   19.9560 C   0  0  0  0  0  3  0  0  0  0  0  0
  -29.1980  -13.3020   21.1490 C   0  0  0  0  0  2  0  0  0  0  0  0
  -30.5360  -13.5110   20.5880 N   0  0  0  0  0  0  0  0  0  0  0  0
  -32.4440  -14.7030   20.4380 O   0  0  0  0  0  0  0  0  0  0  0  0
  -30.5120  -15.8410   20.0750 N   0  0  0  0  0  0  0  0  0  0  0  0
  -25.8620  -13.9220   20.5620 C   0  0  0  0  0  0  0  0  0  0  0  0
  -24.7220  -13.2250   20.8560 C   0  0  0  0  0  0  0  0  0  0  0  0
  -25.0880  -11.8450   20.8410 C   0  0  0  0  0  0  0  0  0  0  0  0
  -26.8520  -12.9690   20.3800 N   0  0  0  0  0  0  0  0  0  0  0  0
  -26.3910  -11.7160   20.6190 N   0  0  0  0  0  0  0  0  0  0  0  0
  -24.2650  -10.6350   20.9690 C   0  0  0  0  0  0  0  0  0  0  0  0
  -24.5680   -9.6320   21.9150 C   0  0  0  0  0  3  0  0  0  0  0  0
  -23.7500   -8.4870   22.0320 C   0  0  0  0  0  3  0  0  0  0  0  0
  -22.6140   -8.3390   21.2010 C   0  0  0  0  0  0  0  0  0  0  0  0
  -22.3310   -9.3300   20.2440 C   0  0  0  0  0  3  0  0  0  0  0  0
  -23.1490  -10.4650   20.1250 C   0  0  0  0  0  3  0  0  0  0  0  0
  -21.7770   -7.2500   21.2280 O   0  0  0  0  0  0  0  0  0  0  0  0
  -21.5820   -6.5200   22.3720 C   0  0  0  0  0  0  0  0  0  0  0  0
  -21.0960   -7.1090   23.5590 C   0  0  0  0  0  3  0  0  0  0  0  0
  -20.8450   -6.3090   24.6910 C   0  0  0  0  0  3  0  0  0  0  0  0
  -21.0700   -4.9200   24.6370 C   0  0  0  0  0  0  0  0  0  0  0  0
  -21.5480   -4.3300   23.4540 C   0  0  0  0  0  3  0  0  0  0  0  0
  -21.8000   -5.1280   22.3240 C   0  0  0  0  0  0  0  0  0  0  0  0
  -22.2410   -4.5510   21.1800 F   0  0  0  0  0  0  0  0  0  0  0  0
  -20.8220   -4.1500   25.7220 F   0  0  0  0  0  0  0  0  0  0  0  0
  -23.3490  -13.7980   21.0460 C   0  0  0  0  0  0  0  0  0  0  0  0
  -22.5270  -13.1580   21.8720 N   0  0  0  0  0  0  0  0  0  0  0  0
  -23.0130  -14.8490   20.5020 O   0  0  0  0  0  0  0  0  0  0  0  0
  -22.8100  -12.3080   22.3340 H   0  0  0  0  0  0  0  0  0  0  0  0
  -21.6010  -13.5240   22.0410 H   0  0  0  0  0  0  0  0  0  0  0  0
  -26.1360  -15.2760   20.4100 N   0  0  0  0  0  0  0  0  0  0  0  0
  -25.4220  -15.9880   20.5050 H   0  0  0  0  0  0  0  0  0  0  0  0
  -27.0570  -15.6560   20.2350 H   0  0  0  0  0  0  0  0  0  0  0  0
  -31.1970  -15.3680   17.5830 C   0  0  0  0  0  1  0  0  0  0  0  0
  -29.0180  -16.4280   18.1090 C   0  0  0  0  0  1  0  0  0  0  0  0
  -30.4640  -16.2380   18.6250 C   0  0  0  0  0  3  0  0  0  0  0  0
  1  5  1  0
  2  6  1  0
  2  1  2  0
  3 55  1  0
  4  7  1  0
  4  3  1  0
  5  3  2  0
  6  4  2  0
  7 10  1  1
  8  7  1  0
  9  7  1  0
 11  2  1  0
 12 11  1  0
 13 12  1  0
 13 14  1  0
 14 16  1  0
 15 26  2  0
 16 21  1  0
 17 25  1  0
 17 27  1  0
 18 24  1  0
 18 20  1  0
 19 25  1  0
 20 19  1  0
 21 20  2  0
 22 23  1  0
 22 16  2  0
 23 18  2  0
 24 17  1  0
 25 15  1  0
 27 29  2  0
 28 27  1  0
 30 28  1  0
 31 40  2  0
 31 36  1  0
 32 28  1  0
 32 36  1  0
 33 32  1  0
 34 35  1  0
 34 33  1  0
 35 31  1  0
 36 37  2  0
 37 38  1  0
 39 38  2  0
 40 39  1  0
 41 15  1  0
 41 42  1  0
 41 51  1  0
 42 45  1  0
 43 42  1  0
 43 47  1  0
 44 43  2  0
 47 46  1  0
 47 49  1  0
 49 50  1  0
 49 48  1  0
 51 54  1  1
 51 52  1  0
 53 51  1  0
 56 62  1  0
 57 62  1  0
 58 59  1  0
 58 57  1  0
 60 59  1  0
 60 68  1  0
 60 61  1  0
 62 61  1  0
 63 56  2  0
 64 56  1  0
 64 55  1  0
 65 66  2  0
 66 85  1  0
 67 66  1  0
 67 70  1  0
 68 65  1  0
 68 69  1  0
 69 67  2  0
 70 71  1  0
 71 72  2  0
 73 76  1  0
 73 72  1  0
 74 73  2  0
 75 74  1  0
 75 70  2  0
 76 77  1  0
 77 78  1  0
 78 79  2  0
 80 79  1  0
 80 84  1  0
 81 80  2  0
 82 77  2  0
 82 81  1  0
 83 82  1  0
 85 86  1  0
 86 89  1  0
 86 88  1  0
 87 85  2  0
 90 91  1  0
 90 65  1  0
 92 90  1  0
 93 95  1  0
 94 95  1  0
 95 64  1  0
M  ISO  4  13 101  14 101  56 100  64 100
M  END
>  <TORSDO>  (25) 
F 22

>  <SCORE>  (25) 
-9.129

>  <name>  (25) 
24

>  <ligand_id>  (25) 
24

>  <original_smiles>  (25) 
[H]c1nc(C([H])([H])N(C(=O)N2C([H])([H])C([H])([H])C([H])([H])C([H])(n3nc(-c4c([H])c([H])c(Oc5c([H])c([H])c(F)c([H])c5F)c([H])c4[H])c(C(=O)N([H])[H])c3N([H])[H])C2([H])[H])C([H])(C([H])([H])[H])C([H])([H])[H])c(C(F)(F)F)nc1C([H])([H])C([H])([H])C([H])([H])Oc1c([H])c([H])c2c(c1[H])C([H])([H])N(C(=O)C([H])(N([H])C(=O)C([H])(N([H])C([H])([H])[H])C([H])([H])[H])C(C([H])([H])[H])(C([H])([H])[H])C([H])([H])[H])C([H])(C(=O)N([H])C1([H])c3c([H])c([H])c([H])c([H])c3C([H])([H])C([H])([H])C1([H])[H])C2([H])[H]

>  <smiles>  (25) 
[H]c1nc(C([H])([H])N(C(=O)N2C([H])([H])C([H])([H])C([H])([H])C([H])(n3nc(-c4c([H])c([H])c(Oc5c([H])c([H])c(F)c([H])c5F)c([H])c4[H])c(C(=O)N([H])[H])c3N([H])[H])C2([H])[H])C([H])(C([H])([H])[H])C([H])([H])[H])c(C(F)(F)F)nc1C([H])([H])C([H])([H])C([H])([H])Oc1c([H])c([H])c2c(c1[H])C([H])([H])N(C(=O)C([H])(N([H])C(=O)C([H])(N([H])C([H])([H])[H])C([H])([H])[H])C(C([H])([H])[H])(C([H])([H])[H])C([H])([H])[H])C([H])(C(=O)N([H])C1([H])c3c([H])c([H])c([H])c([H])c3C([H])([H])C([H])([H])C1([H])[H])C2([H])[H]

$$$$
25:0:0
     RDKit          3D

 93101  0  0  1  0  0  0  0  0999 V2000
  -30.2940  -19.0660   20.5090 C   0  0  0  0  0  3  0  0  0  0  0  0
  -29.4640  -20.2030   20.1990 C   0  0  0  0  0  0  0  0  0  0  0  0
  -28.5240  -18.2010   19.5910 C   0  0  0  0  0  3  0  0  0  0  0  0
  -29.6960  -17.8000   20.1520 N   0  0  0  0  0  0  0  0  0  0  0  0
  -28.4300  -19.5530   19.5820 N   0  0  0  0  0  0  0  0  0  0  0  0
  -27.5710  -20.0050   19.2880 H   0  0  0  0  0  0  0  0  0  0  0  0
  -29.3420  -21.7940   20.6460 C   0  0  0  0  0  3  0  0  0  0  0  0
  -28.7710  -23.1700   19.8230 C   0  0  0  0  0  3  0  0  0  0  0  0
  -27.0710  -24.4320   21.3620 C   0  0  0  0  0  1  0  0  0  0  0  0
  -29.5030  -24.9420   21.5630 C   0  0  0  0  0  1  0  0  0  0  0  0
  -28.3690  -24.6600   20.5630 C   0  0  1  0  0  0  0  0  0  0  0  0
  -28.2810  -26.0920   19.9260 O   0  0  0  0  0  0  0  0  0  0  0  0
  -24.6280  -31.7270   23.0760 C   0  0  0  0  0  0  0  0  0  0  0  0
  -27.1910  -27.0380   19.9980 C   0  0  0  0  0  0  0  0  0  0  0  0
  -23.4170  -30.3540   21.4230 C   0  0  0  0  0  3  0  0  0  0  0  0
  -24.8570  -28.7810   19.9860 C   0  0  0  0  0  0  0  0  0  0  0  0
  -25.9700  -30.6150   21.2500 C   0  0  0  0  0  2  0  0  0  0  0  0
  -26.0400  -29.2250   20.5930 C   0  0  0  0  0  0  0  0  0  0  0  0
  -27.2080  -28.3720   20.5770 C   0  0  0  0  0  3  0  0  0  0  0  0
  -25.9820  -26.6920   19.3590 C   0  0  0  0  0  3  0  0  0  0  0  0
  -24.8400  -27.5270   19.3540 C   0  0  0  0  0  3  0  0  0  0  0  0
  -23.6330  -29.6860   20.0380 C   0  0  0  0  0  2  0  0  0  0  0  0
  -24.6920  -30.9200   21.9720 N   0  0  0  0  0  0  0  0  0  0  0  0
  -23.5440  -32.0100   23.6110 O   0  0  0  0  0  0  0  0  0  0  0  0
  -22.7360  -29.3420   22.3770 C   0  0  0  0  0  0  0  0  0  0  0  0
  -21.4010  -29.2070   22.2790 N   0  0  0  0  0  0  0  0  0  0  0  0
  -23.4090  -28.6780   23.1690 O   0  0  0  0  0  0  0  0  0  0  0  0
  -20.9130  -29.7940   21.6160 H   0  0  0  0  0  0  0  0  0  0  0  0
  -18.0000  -28.1020   22.8570 C   0  0  0  0  0  0  0  0  0  0  0  0
  -20.5750  -28.2700   23.0430 C   0  0  0  0  0  3  0  0  0  0  0  0
  -20.6080  -26.8570   22.4160 C   0  0  0  0  0  2  0  0  0  0  0  0
  -19.4620  -26.6080   21.4290 C   0  0  0  0  0  2  0  0  0  0  0  0
  -18.1080  -26.7740   22.1260 C   0  0  0  0  0  2  0  0  0  0  0  0
  -19.1580  -28.8110   23.2730 C   0  0  0  0  0  0  0  0  0  0  0  0
  -19.0010  -30.0560   23.9210 C   0  0  0  0  0  3  0  0  0  0  0  0
  -17.7200  -30.5910   24.1530 C   0  0  0  0  0  3  0  0  0  0  0  0
  -16.5770  -29.8780   23.7500 C   0  0  0  0  0  3  0  0  0  0  0  0
  -16.7180  -28.6350   23.1080 C   0  0  0  0  0  3  0  0  0  0  0  0
  -25.9100  -32.3480   23.7090 C   0  0  0  0  0  3  0  0  0  0  0  0
  -25.5990  -33.7370   24.0830 N   0  0  0  0  0  0  0  0  0  0  0  0
  -25.9230  -34.8160   23.3580 C   0  0  0  0  0  0  0  0  0  0  0  0
  -26.5810  -34.7470   22.3160 O   0  0  0  0  0  0  0  0  0  0  0  0
  -25.0120  -33.8650   24.8950 H   0  0  0  0  0  0  0  0  0  0  0  0
  -24.1830  -36.6160   23.0900 C   0  0  0  0  0  1  0  0  0  0  0  0
  -25.4400  -36.1900   23.8650 C   0  0  0  0  0  3  0  0  0  0  0  0
  -27.5900  -37.0580   24.6790 C   0  0  0  0  0  1  0  0  0  0  0  0
  -26.4690  -37.2490   23.7630 N   0  0  0  0  0  0  0  0  0  0  0  0
  -26.0640  -38.1640   23.9430 H   0  0  0  0  0  0  0  0  0  0  0  0
  -26.4340  -31.5450   24.9630 C   0  0  1  0  0  0  0  0  0  0  0  0
  -25.3480  -31.2860   26.0330 C   0  0  0  0  0  1  0  0  0  0  0  0
  -27.0070  -30.1730   24.5360 C   0  0  0  0  0  1  0  0  0  0  0  0
  -27.5910  -32.3180   25.6360 C   0  0  0  0  0  1  0  0  0  0  0  0
  -27.3220  -17.4120   19.1930 C   0  0  0  0  0  2  0  0  0  0  0  0
  -25.9330  -17.6640   21.1490 C   0  0  0  0  0  1  0  0  0  0  0  0
  -24.9170  -17.4310   19.0230 C   0  0  0  0  0  1  0  0  0  0  0  0
  -26.0730  -17.9800   19.7270 N   0  0  0  0  0  0  0  0  0  0  0  0
  -29.9510  -16.2400   20.6000 C   0  0  0  0  0  2  0  0  0  0  0  0
  -30.4910  -14.8440   19.8400 C   0  0  0  0  0  0  0  0  0  0  0  0
  -30.3570  -12.4360   18.9750 C   0  0  0  0  0  2  0  0  0  0  0  0
  -29.3410  -12.2970   17.8160 C   0  0  0  0  0  2  0  0  0  0  0  0
  -27.9220  -12.0590   18.3600 C   0  0  0  0  0  2  0  0  0  0  0  0
  -27.5750  -13.0250   19.5200 C   0  0  0  0  0  3  0  0  0  0  0  0
  -28.7060  -13.1210   20.5700 C   0  0  0  0  0  2  0  0  0  0  0  0
  -29.9240  -13.5590   19.8700 N   0  0  0  0  0  0  0  0  0  0  0  0
  -31.5800  -14.9130   19.2570 O   0  0  0  0  0  0  0  0  0  0  0  0
  -25.2640  -13.5760   20.4660 C   0  0  0  0  0  0  0  0  0  0  0  0
  -24.2420  -12.8100   20.9400 C   0  0  0  0  0  0  0  0  0  0  0  0
  -24.6840  -11.4590   20.8120 C   0  0  0  0  0  0  0  0  0  0  0  0
  -26.2820  -12.7090   20.1200 N   0  0  0  0  0  0  0  0  0  0  0  0
  -25.9420  -11.4210   20.3820 N   0  0  0  0  0  0  0  0  0  0  0  0
  -23.9560  -10.2020   21.0110 C   0  0  0  0  0  0  0  0  0  0  0  0
  -24.4350   -9.2020   21.8840 C   0  0  0  0  0  3  0  0  0  0  0  0
  -23.7050   -8.0110   22.0740 C   0  0  0  0  0  3  0  0  0  0  0  0
  -22.4800   -7.8120   21.3910 C   0  0  0  0  0  0  0  0  0  0  0  0
  -22.0200   -8.8010   20.5050 C   0  0  0  0  0  3  0  0  0  0  0  0
  -22.7510   -9.9850   20.3120 C   0  0  0  0  0  3  0  0  0  0  0  0
  -21.7160   -6.6760   21.4970 O   0  0  0  0  0  0  0  0  0  0  0  0
  -21.7020   -5.9240   22.6450 C   0  0  0  0  0  0  0  0  0  0  0  0
  -21.3310   -6.4740   23.8920 C   0  0  0  0  0  3  0  0  0  0  0  0
  -21.2630   -5.6490   25.0320 C   0  0  0  0  0  3  0  0  0  0  0  0
  -21.5570   -4.2770   24.9280 C   0  0  0  0  0  0  0  0  0  0  0  0
  -21.9210   -3.7250   23.6860 C   0  0  0  0  0  3  0  0  0  0  0  0
  -21.9910   -4.5480   22.5480 C   0  0  0  0  0  0  0  0  0  0  0  0
  -22.3230   -4.0090   21.3490 F   0  0  0  0  0  0  0  0  0  0  0  0
  -21.4850   -3.4820   26.0210 F   0  0  0  0  0  0  0  0  0  0  0  0
  -22.8860  -13.3000   21.3610 C   0  0  0  0  0  0  0  0  0  0  0  0
  -22.2340  -12.5860   22.2720 N   0  0  0  0  0  0  0  0  0  0  0  0
  -22.4230  -14.3500   20.9200 O   0  0  0  0  0  0  0  0  0  0  0  0
  -22.6240  -11.7350   22.6470 H   0  0  0  0  0  0  0  0  0  0  0  0
  -21.3270  -12.8940   22.5940 H   0  0  0  0  0  0  0  0  0  0  0  0
  -25.3880  -14.9340   20.2420 N   0  0  0  0  0  0  0  0  0  0  0  0
  -24.5130  -15.4430   20.2690 H   0  0  0  0  0  0  0  0  0  0  0  0
  -25.9430  -15.1880   19.4370 H   0  0  0  0  0  0  0  0  0  0  0  0
  2  1  2  0
  2  7  1  0
  3 53  1  0
  3  4  1  0
  4  1  1  0
  4 57  1  0
  5  3  1  0
  5  2  1  0
  6  5  1  0
  8 11  1  0
  8  7  2  0
 11  9  1  1
 11 10  1  0
 12 14  1  0
 12 11  1  0
 13 24  2  0
 14 19  1  0
 15 23  1  0
 15 25  1  0
 16 22  1  0
 16 18  1  0
 17 23  1  0
 18 17  1  0
 19 18  2  0
 20 14  2  0
 21 20  1  0
 21 16  2  0
 22 15  1  0
 23 13  1  0
 25 27  2  0
 26 25  1  0
 28 26  1  0
 29 38  2  0
 29 34  1  0
 30 26  1  0
 30 34  1  0
 31 30  1  0
 32 33  1  0
 32 31  1  0
 33 29  1  0
 34 35  2  0
 35 36  1  0
 37 36  2  0
 38 37  1  0
 39 13  1  0
 39 40  1  0
 39 49  1  0
 40 43  1  0
 41 45  1  0
 41 40  1  0
 42 41  2  0
 45 44  1  0
 47 45  1  0
 47 48  1  0
 47 46  1  0
 49 52  1  1
 49 50  1  0
 51 49  1  0
 53 56  1  0
 55 56  1  0
 56 54  1  0
 58 64  1  0
 58 57  1  0
 59 64  1  0
 60 61  1  0
 60 59  1  0
 62 61  1  0
 62 69  1  0
 62 63  1  0
 64 63  1  0
 65 58  2  0
 66 67  2  0
 67 86  1  0
 68 67  1  0
 68 71  1  0
 69 70  1  0
 69 66  1  0
 70 68  2  0
 71 72  1  0
 72 73  2  0
 74 77  1  0
 74 73  1  0
 75 74  2  0
 76 75  1  0
 76 71  2  0
 77 78  1  0
 78 79  1  0
 79 80  2  0
 81 80  1  0
 81 85  1  0
 82 81  2  0
 83 78  2  0
 83 82  1  0
 84 83  1  0
 86 87  1  0
 87 90  1  0
 87 89  1  0
 88 86  2  0
 91 92  1  0
 91 66  1  0
 93 91  1  0
M  ISO  4  11 101  12 101  57 100  58 100
M  END
>  <TORSDO>  (26) 
F 22

>  <SCORE>  (26) 
-10.247

>  <name>  (26) 
25

>  <ligand_id>  (26) 
25

>  <original_smiles>  (26) 
[H]c1c([H])c([H])c2c(c1[H])C([H])([H])C([H])([H])C([H])([H])C2([H])N([H])C(=O)C1([H])N(C(=O)C([H])(N([H])C(=O)C([H])(N([H])C([H])([H])[H])C([H])([H])[H])C(C([H])([H])[H])(C([H])([H])[H])C([H])([H])[H])C([H])([H])c2c([H])c(OC(C([H])([H])[H])(C([H])([H])[H])C([H])([H])C([H])([H])c3c([H])n(C([H])([H])C(=O)N4C([H])([H])C([H])([H])C([H])([H])C([H])(n5nc(-c6c([H])c([H])c(Oc7c([H])c([H])c(F)c([H])c7F)c([H])c6[H])c(C(=O)N([H])[H])c5N([H])[H])C4([H])[H])c(C([H])([H])N(C([H])([H])[H])C([H])([H])[H])[n+]3[H])c([H])c([H])c2C1([H])[H]

>  <smiles>  (26) 
[H]c1c([H])c([H])c2c(c1[H])C([H])([H])C([H])([H])C([H])([H])C2([H])N([H])C(=O)C1([H])N(C(=O)C([H])(N([H])C(=O)C([H])(N([H])C([H])([H])[H])C([H])([H])[H])C(C([H])([H])[H])(C([H])([H])[H])C([H])([H])[H])C([H])([H])c2c([H])c(OC(C([H])([H])[H])(C([H])([H])[H])C([H])([H])C([H])([H])c3c([H])n(C([H])([H])C(=O)N4C([H])([H])C([H])([H])C([H])([H])C([H])(n5nc(-c6c([H])c([H])c(Oc7c([H])c([H])c(F)c([H])c7F)c([H])c6[H])c(C(=O)N([H])[H])c5N([H])[H])C4([H])[H])c(C([H])([H])N(C([H])([H])[H])C([H])([H])[H])[n+]3[H])c([H])c([H])c2C1([H])[H]

$$$$
26:0:0
     RDKit          3D

 94102  0  0  1  0  0  0  0  0999 V2000
  -29.5760  -23.3080   22.4790 C   0  0  0  0  0  1  0  0  0  0  0  0
  -29.0550  -23.1920   21.0270 C   0  0  1  0  0  0  0  0  0  0  0  0
  -30.3270  -20.2980   19.1080 C   0  0  0  0  0  3  0  0  0  0  0  0
  -29.8360  -21.5770   19.1380 C   0  0  0  0  0  3  0  0  0  0  0  0
  -30.3800  -19.8730   20.4680 C   0  0  0  0  0  0  0  0  0  0  0  0
  -29.9220  -20.8520   21.2530 N   0  0  0  0  0  0  0  0  0  0  0  0
  -29.6130  -21.9270   20.4550 N   0  0  0  0  0  0  0  0  0  0  0  0
  -31.8570  -18.6440   22.1150 C   0  0  0  0  0  1  0  0  0  0  0  0
  -29.4960  -17.9220   21.7640 C   0  0  0  0  0  1  0  0  0  0  0  0
  -30.7500  -18.4830   21.0490 C   0  0  1  0  0  0  0  0  0  0  0  0
  -31.3530  -17.5090   19.9460 C   0  0  0  0  0  2  0  0  0  0  0  0
  -31.4740  -14.9930   19.8560 C   0  0  0  0  0  0  0  0  0  0  0  0
  -31.1210  -12.6680   19.1080 C   0  0  0  0  0  2  0  0  0  0  0  0
  -30.2020  -12.7120   17.8630 C   0  0  0  0  0  2  0  0  0  0  0  0
  -28.7110  -12.9710   18.1940 C   0  0  0  0  0  2  0  0  0  0  0  0
  -28.4480  -13.1630   19.6970 C   0  0  0  0  0  3  0  0  0  0  0  0
  -29.5050  -13.7050   20.6600 C   0  0  0  0  0  2  0  0  0  0  0  0
  -30.7790  -13.8280   19.9530 N   0  0  0  0  0  0  0  0  0  0  0  0
  -32.6860  -14.9940   19.6300 O   0  0  0  0  0  0  0  0  0  0  0  0
  -29.7150  -16.2680   18.7420 C   0  0  0  0  0  1  0  0  0  0  0  0
  -30.7410  -16.1580   19.7930 N   0  0  0  0  0  0  0  0  0  0  0  0
  -26.1330  -14.3070   20.3260 C   0  0  0  0  0  0  0  0  0  0  0  0
  -24.9740  -13.6630   20.6880 C   0  0  0  0  0  0  0  0  0  0  0  0
  -25.2750  -12.2720   20.6450 C   0  0  0  0  0  0  0  0  0  0  0  0
  -27.0600  -13.2840   20.1100 N   0  0  0  0  0  0  0  0  0  0  0  0
  -26.5210  -12.0790   20.3320 N   0  0  0  0  0  0  0  0  0  0  0  0
  -24.4770  -11.0740   20.8210 C   0  0  0  0  0  0  0  0  0  0  0  0
  -24.8550  -10.0870   21.7570 C   0  0  0  0  0  3  0  0  0  0  0  0
  -24.0750   -8.9250   21.9110 C   0  0  0  0  0  3  0  0  0  0  0  0
  -22.9110   -8.7510   21.1250 C   0  0  0  0  0  0  0  0  0  0  0  0
  -22.5640   -9.7260   20.1740 C   0  0  0  0  0  3  0  0  0  0  0  0
  -23.3450  -10.8780   20.0150 C   0  0  0  0  0  3  0  0  0  0  0  0
  -22.0980   -7.6480   21.1940 O   0  0  0  0  0  0  0  0  0  0  0  0
  -21.9230   -6.9620   22.3670 C   0  0  0  0  0  0  0  0  0  0  0  0
  -21.4570   -7.5950   23.5390 C   0  0  0  0  0  3  0  0  0  0  0  0
  -21.2170   -6.8340   24.7020 C   0  0  0  0  0  3  0  0  0  0  0  0
  -21.4440   -5.4450   24.6910 C   0  0  0  0  0  0  0  0  0  0  0  0
  -21.9060   -4.8150   23.5230 C   0  0  0  0  0  3  0  0  0  0  0  0
  -22.1460   -5.5720   22.3640 C   0  0  0  0  0  0  0  0  0  0  0  0
  -22.5720   -4.9590   21.2340 F   0  0  0  0  0  0  0  0  0  0  0  0
  -21.2070   -4.7120   25.8020 F   0  0  0  0  0  0  0  0  0  0  0  0
  -23.6300  -14.2590   20.9920 C   0  0  0  0  0  0  0  0  0  0  0  0
  -22.8680  -13.6130   21.8670 N   0  0  0  0  0  0  0  0  0  0  0  0
  -23.2630  -15.3160   20.4830 O   0  0  0  0  0  0  0  0  0  0  0  0
  -23.1710  -12.7440   22.2850 H   0  0  0  0  0  0  0  0  0  0  0  0
  -21.9610  -13.9870   22.1160 H   0  0  0  0  0  0  0  0  0  0  0  0
  -26.4500  -15.6550   20.1700 N   0  0  0  0  0  0  0  0  0  0  0  0
  -25.7810  -16.3920   20.3580 H   0  0  0  0  0  0  0  0  0  0  0  0
  -27.3870  -15.9980   19.9930 H   0  0  0  0  0  0  0  0  0  0  0  0
  -26.8010  -21.8640   21.5030 C   0  0  0  0  0  1  0  0  0  0  0  0
  -27.4910  -23.1610   21.0420 C   0  0  0  0  0  2  0  0  0  0  0  0
  -29.4970  -24.4780   20.2080 C   0  0  0  0  0  2  0  0  0  0  0  0
  -29.2710  -25.8770   20.8950 C   0  0  0  0  0  2  0  0  0  0  0  0
  -29.2180  -27.0450   20.0410 O   0  0  0  0  0  0  0  0  0  0  0  0
  -24.9040  -31.7840   23.2440 C   0  0  0  0  0  0  0  0  0  0  0  0
  -28.0200  -27.7340   20.0430 C   0  0  0  0  0  0  0  0  0  0  0  0
  -23.8870  -30.4070   21.4590 C   0  0  0  0  0  3  0  0  0  0  0  0
  -25.5200  -29.0680   20.0210 C   0  0  0  0  0  0  0  0  0  0  0  0
  -26.3860  -30.9550   21.4140 C   0  0  0  0  0  2  0  0  0  0  0  0
  -26.6090  -29.6360   20.6970 C   0  0  0  0  0  0  0  0  0  0  0  0
  -27.8640  -28.9770   20.7040 C   0  0  0  0  0  3  0  0  0  0  0  0
  -26.9160  -27.1810   19.3620 C   0  0  0  0  0  3  0  0  0  0  0  0
  -25.6720  -27.8420   19.3470 C   0  0  0  0  0  3  0  0  0  0  0  0
  -24.2130  -29.8300   20.0540 C   0  0  0  0  0  2  0  0  0  0  0  0
  -25.0730  -31.0630   22.0990 N   0  0  0  0  0  0  0  0  0  0  0  0
  -23.7800  -31.9410   23.7420 O   0  0  0  0  0  0  0  0  0  0  0  0
  -23.2700  -29.2830   22.3230 C   0  0  0  0  0  0  0  0  0  0  0  0
  -21.9630  -29.0320   22.1390 N   0  0  0  0  0  0  0  0  0  0  0  0
  -23.9660  -28.6420   23.1140 O   0  0  0  0  0  0  0  0  0  0  0  0
  -21.4560  -29.6080   21.4810 H   0  0  0  0  0  0  0  0  0  0  0  0
  -18.6490  -27.6330   22.4820 C   0  0  0  0  0  0  0  0  0  0  0  0
  -21.1870  -27.9910   22.8140 C   0  0  0  0  0  3  0  0  0  0  0  0
  -21.3680  -26.6230   22.1170 C   0  0  0  0  0  2  0  0  0  0  0  0
  -20.2950  -26.3370   21.0620 C   0  0  0  0  0  2  0  0  0  0  0  0
  -18.9000  -26.3570   21.6940 C   0  0  0  0  0  2  0  0  0  0  0  0
  -19.7220  -28.4070   22.9950 C   0  0  0  0  0  0  0  0  0  0  0  0
  -19.4370  -29.6010   23.6900 C   0  0  0  0  0  3  0  0  0  0  0  0
  -18.1070  -30.0240   23.8780 C   0  0  0  0  0  3  0  0  0  0  0  0
  -17.0460  -29.2470   23.3820 C   0  0  0  0  0  3  0  0  0  0  0  0
  -17.3180  -28.0520   22.6900 C   0  0  0  0  0  3  0  0  0  0  0  0
  -26.1050  -32.4700   23.9660 C   0  0  0  0  0  3  0  0  0  0  0  0
  -25.6910  -33.8360   24.3170 N   0  0  0  0  0  0  0  0  0  0  0  0
  -26.0120  -34.9310   23.6150 C   0  0  0  0  0  0  0  0  0  0  0  0
  -26.7580  -34.9020   22.6310 O   0  0  0  0  0  0  0  0  0  0  0  0
  -25.0300  -33.9260   25.0740 H   0  0  0  0  0  0  0  0  0  0  0  0
  -24.2070  -36.6330   23.1960 C   0  0  0  0  0  1  0  0  0  0  0  0
  -25.4140  -36.2730   24.0790 C   0  0  0  0  0  3  0  0  0  0  0  0
  -27.4330  -37.2480   25.0780 C   0  0  0  0  0  1  0  0  0  0  0  0
  -26.3870  -37.3870   24.0680 N   0  0  0  0  0  0  0  0  0  0  0  0
  -25.9200  -38.2770   24.2160 H   0  0  0  0  0  0  0  0  0  0  0  0
  -26.5880  -31.6880   25.2490 C   0  0  1  0  0  0  0  0  0  0  0  0
  -25.4450  -31.3420   26.2320 C   0  0  0  0  0  1  0  0  0  0  0  0
  -27.2830  -30.3650   24.8520 C   0  0  0  0  0  1  0  0  0  0  0  0
  -27.6360  -32.5300   26.0100 C   0  0  0  0  0  1  0  0  0  0  0  0
  2 51  1  0
  2  1  1  1
  3  4  2  0
  3  5  1  0
  4  7  1  0
  5 10  1  0
  5  6  2  0
  7  2  1  0
  7  6  1  0
 10  9  1  1
 10  8  1  0
 11 10  1  0
 12 18  1  0
 13 18  1  0
 14 15  1  0
 14 13  1  0
 16 15  1  0
 16 25  1  0
 16 17  1  0
 18 17  1  0
 19 12  2  0
 20 21  1  0
 21 12  1  0
 21 11  1  0
 22 23  2  0
 23 42  1  0
 24 23  1  0
 24 27  1  0
 25 22  1  0
 25 26  1  0
 26 24  2  0
 27 28  1  0
 28 29  2  0
 30 33  1  0
 30 29  1  0
 31 30  2  0
 32 31  1  0
 32 27  2  0
 33 34  1  0
 34 35  1  0
 35 36  2  0
 37 36  1  0
 37 41  1  0
 38 37  2  0
 39 34  2  0
 39 38  1  0
 40 39  1  0
 42 43  1  0
 43 46  1  0
 43 45  1  0
 44 42  2  0
 47 22  1  0
 47 48  1  0
 49 47  1  0
 51 50  1  0
 52 53  1  0
 52  2  1  0
 54 56  1  0
 54 53  1  0
 55 66  2  0
 56 61  1  0
 57 65  1  0
 57 67  1  0
 58 64  1  0
 58 60  1  0
 59 65  1  0
 60 61  2  0
 60 59  1  0
 62 56  2  0
 63 62  1  0
 63 58  2  0
 64 57  1  0
 65 55  1  0
 67 69  2  0
 68 67  1  0
 70 68  1  0
 71 80  2  0
 71 76  1  0
 72 68  1  0
 72 76  1  0
 73 72  1  0
 74 75  1  0
 74 73  1  0
 75 71  1  0
 76 77  2  0
 77 78  1  0
 79 78  2  0
 80 79  1  0
 81 55  1  0
 81 82  1  0
 81 91  1  0
 82 85  1  0
 83 87  1  0
 83 82  1  0
 84 83  2  0
 87 86  1  0
 89 87  1  0
 89 90  1  0
 89 88  1  0
 91 94  1  1
 91 92  1  0
 93 91  1  0
M  ISO  4  12 100  21 100  53 101  54 101
M  END
>  <TORSDO>  (27) 
F 22

>  <SCORE>  (27) 
-9.743

>  <name>  (27) 
26

>  <ligand_id>  (27) 
26

>  <original_smiles>  (27) 
[H]c1c([H])c([H])c2c(c1[H])C([H])([H])C([H])([H])C([H])([H])C2([H])N([H])C(=O)C1([H])N(C(=O)C([H])(N([H])C(=O)C([H])(N([H])C([H])([H])[H])C([H])([H])[H])C(C([H])([H])[H])(C([H])([H])[H])C([H])([H])[H])C([H])([H])c2c([H])c(OC([H])([H])C([H])([H])C(n3nc(C(C([H])([H])[H])(C([H])([H])[H])C([H])([H])N(C(=O)N4C([H])([H])C([H])([H])C([H])([H])C([H])(n5nc(-c6c([H])c([H])c(Oc7c([H])c([H])c(F)c([H])c7F)c([H])c6[H])c(C(=O)N([H])[H])c5N([H])[H])C4([H])[H])C([H])([H])[H])c([H])c3[H])(C([H])([H])[H])C([H])([H])C([H])([H])[H])c([H])c([H])c2C1([H])[H]

>  <smiles>  (27) 
[H]c1c([H])c([H])c2c(c1[H])C([H])([H])C([H])([H])C([H])([H])C2([H])N([H])C(=O)C1([H])N(C(=O)C([H])(N([H])C(=O)C([H])(N([H])C([H])([H])[H])C([H])([H])[H])C(C([H])([H])[H])(C([H])([H])[H])C([H])([H])[H])C([H])([H])c2c([H])c(OC([H])([H])C([H])([H])C(n3nc(C(C([H])([H])[H])(C([H])([H])[H])C([H])([H])N(C(=O)N4C([H])([H])C([H])([H])C([H])([H])C([H])(n5nc(-c6c([H])c([H])c(Oc7c([H])c([H])c(F)c([H])c7F)c([H])c6[H])c(C(=O)N([H])[H])c5N([H])[H])C4([H])[H])C([H])([H])[H])c([H])c3[H])(C([H])([H])[H])C([H])([H])C([H])([H])[H])c([H])c([H])c2C1([H])[H]

$$$$
27:0:0
     RDKit          3D

 92100  0  0  1  0  0  0  0  0999 V2000
  -28.4210  -21.8480   21.2550 C   0  0  0  0  0  3  0  0  0  0  0  0
  -29.0010  -22.1030   19.0940 C   0  0  0  0  0  3  0  0  0  0  0  0
  -28.4730  -22.8580   20.2100 C   0  0  0  0  0  0  0  0  0  0  0  0
  -29.3120  -19.8500   20.0910 C   0  0  0  0  0  0  0  0  0  0  0  0
  -28.8210  -20.4820   21.2040 N   0  0  0  0  0  0  0  0  0  0  0  0
  -29.4120  -20.7430   19.0570 N   0  0  0  0  0  0  0  0  0  0  0  0
  -27.6650  -24.4010   20.1790 C   0  0  0  0  0  2  0  0  0  0  0  0
  -28.0690  -25.9750   20.3080 O   0  0  0  0  0  0  0  0  0  0  0  0
  -24.5950  -31.9660   23.2530 C   0  0  0  0  0  0  0  0  0  0  0  0
  -27.0780  -27.0830   20.2380 C   0  0  0  0  0  0  0  0  0  0  0  0
  -23.3700  -30.5760   21.6310 C   0  0  0  0  0  3  0  0  0  0  0  0
  -24.7930  -28.9640   20.2010 C   0  0  0  0  0  0  0  0  0  0  0  0
  -25.9340  -30.7770   21.4510 C   0  0  0  0  0  2  0  0  0  0  0  0
  -25.9890  -29.3670   20.8080 C   0  0  0  0  0  0  0  0  0  0  0  0
  -27.1270  -28.4450   20.8060 C   0  0  0  0  0  3  0  0  0  0  0  0
  -25.8530  -26.8330   19.5750 C   0  0  0  0  0  3  0  0  0  0  0  0
  -24.7500  -27.7190   19.5610 C   0  0  0  0  0  3  0  0  0  0  0  0
  -23.5790  -29.8890   20.2540 C   0  0  0  0  0  2  0  0  0  0  0  0
  -24.6560  -31.1340   22.1660 N   0  0  0  0  0  0  0  0  0  0  0  0
  -23.5140  -32.2610   23.7910 O   0  0  0  0  0  0  0  0  0  0  0  0
  -22.6840  -29.5840   22.6080 C   0  0  0  0  0  0  0  0  0  0  0  0
  -21.3540  -29.4110   22.4860 N   0  0  0  0  0  0  0  0  0  0  0  0
  -23.3560  -28.9730   23.4410 O   0  0  0  0  0  0  0  0  0  0  0  0
  -20.8660  -29.9570   21.7900 H   0  0  0  0  0  0  0  0  0  0  0  0
  -17.9840  -28.1760   22.9900 C   0  0  0  0  0  0  0  0  0  0  0  0
  -20.5380  -28.4780   23.2680 C   0  0  0  0  0  3  0  0  0  0  0  0
  -20.6610  -27.0360   22.7220 C   0  0  0  0  0  2  0  0  0  0  0  0
  -19.5710  -26.6810   21.7060 C   0  0  0  0  0  2  0  0  0  0  0  0
  -18.1840  -26.8180   22.3360 C   0  0  0  0  0  2  0  0  0  0  0  0
  -19.0880  -28.9620   23.4130 C   0  0  0  0  0  0  0  0  0  0  0  0
  -18.8450  -30.2300   23.9840 C   0  0  0  0  0  3  0  0  0  0  0  0
  -17.5310  -30.7120   24.1340 C   0  0  0  0  0  3  0  0  0  0  0  0
  -16.4400  -29.9240   23.7240 C   0  0  0  0  0  3  0  0  0  0  0  0
  -16.6680  -28.6580   23.1580 C   0  0  0  0  0  3  0  0  0  0  0  0
  -25.8790  -32.6000   23.8680 C   0  0  0  0  0  3  0  0  0  0  0  0
  -26.4000  -31.8280   25.1440 C   0  0  1  0  0  0  0  0  0  0  0  0
  -25.3110  -31.5920   26.2150 C   0  0  0  0  0  1  0  0  0  0  0  0
  -26.9790  -30.4480   24.7530 C   0  0  0  0  0  1  0  0  0  0  0  0
  -27.5570  -32.6170   25.7990 C   0  0  0  0  0  1  0  0  0  0  0  0
  -25.5790  -34.0010   24.2100 N   0  0  0  0  0  0  0  0  0  0  0  0
  -25.8850  -35.0590   23.4480 C   0  0  0  0  0  0  0  0  0  0  0  0
  -26.5190  -34.9590   22.3940 O   0  0  0  0  0  0  0  0  0  0  0  0
  -25.0170  -34.1530   25.0340 H   0  0  0  0  0  0  0  0  0  0  0  0
  -24.1380  -36.8510   23.1830 C   0  0  0  0  0  1  0  0  0  0  0  0
  -25.4190  -36.4480   23.9290 C   0  0  0  0  0  3  0  0  0  0  0  0
  -27.5900  -37.3460   24.6510 C   0  0  0  0  0  1  0  0  0  0  0  0
  -26.4420  -37.5060   23.7620 N   0  0  0  0  0  0  0  0  0  0  0  0
  -26.0400  -38.4240   23.9270 H   0  0  0  0  0  0  0  0  0  0  0  0
  -30.1430  -18.3100   20.0730 C   0  0  0  0  0  3  0  0  0  0  0  0
  -30.3690  -15.3980   19.9680 C   0  0  0  0  0  0  0  0  0  0  0  0
  -30.3130  -12.9760   19.0250 C   0  0  0  0  0  2  0  0  0  0  0  0
  -29.3120  -12.7400   17.8630 C   0  0  0  0  0  2  0  0  0  0  0  0
  -27.9020  -12.4320   18.3970 C   0  0  0  0  0  2  0  0  0  0  0  0
  -27.5080  -13.3770   19.5560 C   0  0  0  0  0  3  0  0  0  0  0  0
  -28.6330  -13.5060   20.6100 C   0  0  0  0  0  2  0  0  0  0  0  0
  -29.7910  -14.0920   19.9030 N   0  0  0  0  0  0  0  0  0  0  0  0
  -31.5850  -15.3820   19.7220 O   0  0  0  0  0  0  0  0  0  0  0  0
  -28.2060  -16.7220   20.1820 C   0  0  0  0  0  1  0  0  0  0  0  0
  -29.6640  -16.7110   20.1160 N   0  0  0  0  0  0  0  0  0  0  0  0
  -25.1850  -13.9130   20.4650 C   0  0  0  0  0  0  0  0  0  0  0  0
  -24.1530  -13.1220   20.8790 C   0  0  0  0  0  0  0  0  0  0  0  0
  -24.6210  -11.7770   20.7760 C   0  0  0  0  0  0  0  0  0  0  0  0
  -26.2180  -13.0490   20.1400 N   0  0  0  0  0  0  0  0  0  0  0  0
  -25.8920  -11.7550   20.3890 N   0  0  0  0  0  0  0  0  0  0  0  0
  -23.9110  -10.5080   20.9680 C   0  0  0  0  0  0  0  0  0  0  0  0
  -24.3620   -9.5420   21.8930 C   0  0  0  0  0  3  0  0  0  0  0  0
  -23.6480   -8.3390   22.0740 C   0  0  0  0  0  3  0  0  0  0  0  0
  -22.4700   -8.0940   21.3300 C   0  0  0  0  0  0  0  0  0  0  0  0
  -22.0390   -9.0500   20.3930 C   0  0  0  0  0  3  0  0  0  0  0  0
  -22.7530  -10.2450   20.2110 C   0  0  0  0  0  3  0  0  0  0  0  0
  -21.7240   -6.9440   21.4230 O   0  0  0  0  0  0  0  0  0  0  0  0
  -21.6470   -6.2280   22.5900 C   0  0  0  0  0  0  0  0  0  0  0  0
  -21.1670   -6.8060   23.7870 C   0  0  0  0  0  3  0  0  0  0  0  0
  -21.0390   -6.0150   24.9470 C   0  0  0  0  0  3  0  0  0  0  0  0
  -21.3830   -4.6500   24.9110 C   0  0  0  0  0  0  0  0  0  0  0  0
  -21.8550   -4.0740   23.7190 C   0  0  0  0  0  3  0  0  0  0  0  0
  -21.9850   -4.8610   22.5620 C   0  0  0  0  0  0  0  0  0  0  0  0
  -22.4220   -4.2960   21.4100 F   0  0  0  0  0  0  0  0  0  0  0  0
  -21.2530   -3.8890   26.0230 F   0  0  0  0  0  0  0  0  0  0  0  0
  -22.7750  -13.5870   21.2470 C   0  0  0  0  0  0  0  0  0  0  0  0
  -22.1030  -12.8620   22.1330 N   0  0  0  0  0  0  0  0  0  0  0  0
  -22.3050  -14.6260   20.7850 O   0  0  0  0  0  0  0  0  0  0  0  0
  -22.5000  -12.0200   22.5230 H   0  0  0  0  0  0  0  0  0  0  0  0
  -21.1820  -13.1480   22.4260 H   0  0  0  0  0  0  0  0  0  0  0  0
  -25.3180  -15.2880   20.3090 N   0  0  0  0  0  0  0  0  0  0  0  0
  -24.5410  -15.9220   20.4630 H   0  0  0  0  0  0  0  0  0  0  0  0
  -26.1280  -15.7410   19.9120 H   0  0  0  0  0  0  0  0  0  0  0  0
  -31.3620  -18.5390   21.0130 C   0  0  0  0  0  2  0  0  0  0  0  0
  -32.5540  -17.7020   20.7740 N   0  0  0  0  0  4  0  0  0  0  0  0
  -32.3170  -16.7950   20.3890 H   0  0  0  0  0  0  0  0  0  0  0  0
  -33.0670  -17.5710   21.6290 H   0  0  0  0  0  0  0  0  0  0  0  0
  -33.1630  -18.1610   20.1220 H   0  0  0  0  0  0  0  0  0  0  0  0
  2  3  1  0
  3  1  2  0
  4  5  2  0
  5  1  1  0
  6  2  2  0
  6  4  1  0
  7  3  1  0
  7  8  1  0
  9 20  2  0
 10  8  1  0
 10 15  1  0
 11 19  1  0
 11 21  1  0
 12 18  1  0
 12 14  1  0
 13 19  1  0
 14 13  1  0
 15 14  2  0
 16 10  2  0
 17 16  1  0
 17 12  2  0
 18 11  1  0
 19  9  1  0
 21 23  2  0
 22 21  1  0
 24 22  1  0
 25 34  2  0
 25 30  1  0
 26 22  1  0
 26 30  1  0
 27 26  1  0
 28 29  1  0
 28 27  1  0
 29 25  1  0
 30 31  2  0
 31 32  1  0
 33 32  2  0
 34 33  1  0
 35  9  1  0
 35 40  1  0
 35 36  1  0
 36 39  1  1
 36 37  1  0
 38 36  1  0
 40 43  1  0
 41 45  1  0
 41 40  1  0
 42 41  2  0
 45 44  1  0
 47 48  1  0
 47 45  1  0
 47 46  1  0
 49  4  1  0
 49 59  1  0
 49 88  1  0
 50 59  1  0
 51 56  1  0
 52 53  1  0
 52 51  1  0
 54 53  1  0
 54 63  1  0
 54 55  1  0
 56 50  1  0
 56 55  1  0
 57 50  2  0
 59 58  1  0
 60 61  2  0
 61 80  1  0
 62 61  1  0
 62 65  1  0
 63 64  1  0
 63 60  1  0
 64 62  2  0
 65 66  1  0
 66 67  2  0
 68 71  1  0
 68 67  1  0
 69 68  2  0
 70 69  1  0
 70 65  2  0
 71 72  1  0
 72 73  1  0
 73 74  2  0
 75 74  1  0
 75 79  1  0
 76 75  2  0
 77 72  2  0
 77 76  1  0
 78 77  1  0
 80 81  1  0
 81 84  1  0
 81 83  1  0
 82 80  2  0
 85 86  1  0
 85 60  1  0
 87 85  1  0
 89 88  1  0
 89 91  1  0
 90 89  1  0
 92 89  1  0
M  ISO  4   7 101   8 101  50 100  59 100
M  END
>  <TORSDO>  (28) 
F 20

>  <SCORE>  (28) 
-15.034

>  <name>  (28) 
27

>  <ligand_id>  (28) 
27

>  <original_smiles>  (28) 
[H]c1nc(C([H])(N(C(=O)N2C([H])([H])C([H])([H])C([H])([H])C([H])(n3nc(-c4c([H])c([H])c(Oc5c([H])c([H])c(F)c([H])c5F)c([H])c4[H])c(C(=O)N([H])[H])c3N([H])[H])C2([H])[H])C([H])([H])[H])C([H])([H])[N+]([H])([H])[H])nc([H])c1C([H])([H])Oc1c([H])c([H])c2c(c1[H])C([H])([H])N(C(=O)C([H])(N([H])C(=O)C([H])(N([H])C([H])([H])[H])C([H])([H])[H])C(C([H])([H])[H])(C([H])([H])[H])C([H])([H])[H])C([H])(C(=O)N([H])C1([H])c3c([H])c([H])c([H])c([H])c3C([H])([H])C([H])([H])C1([H])[H])C2([H])[H]

>  <smiles>  (28) 
[H]c1nc(C([H])(N(C(=O)N2C([H])([H])C([H])([H])C([H])([H])C([H])(n3nc(-c4c([H])c([H])c(Oc5c([H])c([H])c(F)c([H])c5F)c([H])c4[H])c(C(=O)N([H])[H])c3N([H])[H])C2([H])[H])C([H])([H])[H])C([H])([H])[N+]([H])([H])[H])nc([H])c1C([H])([H])Oc1c([H])c([H])c2c(c1[H])C([H])([H])N(C(=O)C([H])(N([H])C(=O)C([H])(N([H])C([H])([H])[H])C([H])([H])[H])C(C([H])([H])[H])(C([H])([H])[H])C([H])([H])[H])C([H])(C(=O)N([H])C1([H])c3c([H])c([H])c([H])c([H])c3C([H])([H])C([H])([H])C1([H])[H])C2([H])[H]

$$$$
28:0:0
     RDKit          3D

 95103  0  0  1  0  0  0  0  0999 V2000
  -28.0880  -21.3350   22.4200 C   0  0  0  0  0  2  0  0  0  0  0  0
  -30.0410  -22.1480   23.6500 C   0  0  0  0  0  1  0  0  0  0  0  0
  -29.1610  -22.3750   22.4770 N   0  0  2  0  0  4  0  0  0  0  0  0
  -29.7410  -22.2410   21.6630 H   0  0  0  0  0  0  0  0  0  0  0  0
  -28.6680  -23.7860   22.4350 C   0  0  0  0  0  2  0  0  0  0  0  0
  -29.5580  -24.7450   21.5900 C   0  0  0  0  0  2  0  0  0  0  0  0
  -29.4090  -26.2270   21.9990 C   0  0  0  0  0  2  0  0  0  0  0  0
  -29.5370  -27.1320   20.8880 O   0  0  0  0  0  0  0  0  0  0  0  0
  -25.0010  -31.9050   23.4830 C   0  0  0  0  0  0  0  0  0  0  0  0
  -28.3700  -27.8180   20.6710 C   0  0  0  0  0  0  0  0  0  0  0  0
  -24.1220  -30.4320   21.6990 C   0  0  0  0  0  3  0  0  0  0  0  0
  -25.8640  -29.0780   20.4170 C   0  0  0  0  0  0  0  0  0  0  0  0
  -26.6020  -31.0410   21.7820 C   0  0  0  0  0  2  0  0  0  0  0  0
  -26.8910  -29.7030   21.1370 C   0  0  0  0  0  0  0  0  0  0  0  0
  -28.1500  -29.0790   21.2660 C   0  0  0  0  0  3  0  0  0  0  0  0
  -27.3390  -27.2040   19.9360 C   0  0  0  0  0  3  0  0  0  0  0  0
  -26.0830  -27.8290   19.8080 C   0  0  0  0  0  3  0  0  0  0  0  0
  -24.5430  -29.8070   20.3400 C   0  0  0  0  0  2  0  0  0  0  0  0
  -25.2510  -31.1400   22.3820 N   0  0  0  0  0  0  0  0  0  0  0  0
  -23.8470  -32.0590   23.9040 O   0  0  0  0  0  0  0  0  0  0  0  0
  -23.4720  -29.3320   22.5690 C   0  0  0  0  0  0  0  0  0  0  0  0
  -22.1810  -29.0590   22.3210 N   0  0  0  0  0  0  0  0  0  0  0  0
  -24.1300  -28.7300   23.4210 O   0  0  0  0  0  0  0  0  0  0  0  0
  -21.7100  -29.6020   21.6100 H   0  0  0  0  0  0  0  0  0  0  0  0
  -18.8600  -27.6540   22.5350 C   0  0  0  0  0  0  0  0  0  0  0  0
  -21.3740  -28.0390   22.9890 C   0  0  0  0  0  3  0  0  0  0  0  0
  -21.5980  -26.6490   22.3530 C   0  0  0  0  0  2  0  0  0  0  0  0
  -20.5840  -26.3180   21.2530 C   0  0  0  0  0  2  0  0  0  0  0  0
  -19.1570  -26.3530   21.8080 C   0  0  0  0  0  2  0  0  0  0  0  0
  -19.9010  -28.4540   23.0750 C   0  0  0  0  0  0  0  0  0  0  0  0
  -19.5720  -29.6700   23.7110 C   0  0  0  0  0  3  0  0  0  0  0  0
  -18.2330  -30.0900   23.8130 C   0  0  0  0  0  3  0  0  0  0  0  0
  -17.2040  -29.2870   23.2890 C   0  0  0  0  0  3  0  0  0  0  0  0
  -17.5180  -28.0710   22.6580 C   0  0  0  0  0  3  0  0  0  0  0  0
  -26.1470  -32.6390   24.2480 C   0  0  0  0  0  3  0  0  0  0  0  0
  -25.7000  -34.0160   24.4970 N   0  0  0  0  0  0  0  0  0  0  0  0
  -26.0520  -35.0740   23.7550 C   0  0  0  0  0  0  0  0  0  0  0  0
  -26.8530  -35.0000   22.8190 O   0  0  0  0  0  0  0  0  0  0  0  0
  -24.9980  -34.1420   25.2130 H   0  0  0  0  0  0  0  0  0  0  0  0
  -24.2580  -36.7250   23.1330 C   0  0  0  0  0  1  0  0  0  0  0  0
  -25.4110  -36.4310   24.1060 C   0  0  0  0  0  3  0  0  0  0  0  0
  -27.3580  -37.4850   25.1680 C   0  0  0  0  0  1  0  0  0  0  0  0
  -26.3720  -37.5560   24.0930 N   0  0  0  0  0  0  0  0  0  0  0  0
  -25.8860  -38.4450   24.1670 H   0  0  0  0  0  0  0  0  0  0  0  0
  -26.5490  -31.9280   25.5980 C   0  0  1  0  0  0  0  0  0  0  0  0
  -25.3460  -31.6050   26.5140 C   0  0  0  0  0  1  0  0  0  0  0  0
  -27.2940  -30.6030   25.3160 C   0  0  0  0  0  1  0  0  0  0  0  0
  -27.5270  -32.8250   26.3930 C   0  0  0  0  0  1  0  0  0  0  0  0
  -27.5850  -20.9800   20.9980 C   0  0  0  0  0  2  0  0  0  0  0  0
  -28.6580  -20.5260   19.9850 C   0  0  0  0  0  2  0  0  0  0  0  0
  -30.4210  -17.4710   20.9640 C   0  0  0  0  0  2  0  0  0  0  0  0
  -30.2100  -17.6150   18.6130 C   0  0  0  0  0  3  0  0  0  0  0  0
  -30.8930  -17.0570   19.7030 C   0  0  0  0  0  3  0  0  0  0  0  0
  -29.0970  -19.0620   19.9770 C   0  0  0  0  0  0  0  0  0  0  0  0
  -29.5860  -18.5260   21.0900 N   0  0  0  0  0  0  0  0  0  0  0  0
  -29.3020  -18.5890   18.7590 N   0  0  0  0  0  0  0  0  0  0  0  0
  -33.2720  -17.3540   20.2960 C   0  0  0  0  0  1  0  0  0  0  0  0
  -32.7720  -16.5290   18.0430 C   0  0  0  0  0  1  0  0  0  0  0  0
  -32.2920  -16.4200   19.5180 C   0  0  2  0  0  0  0  0  0  0  0  0
  -32.5720  -14.9300   19.9390 C   0  0  0  0  0  0  0  0  0  0  0  0
  -31.8910  -12.7490   19.0720 C   0  0  0  0  0  2  0  0  0  0  0  0
  -31.0080  -12.9230   17.8210 C   0  0  0  0  0  2  0  0  0  0  0  0
  -29.5280  -13.0430   18.2280 C   0  0  0  0  0  2  0  0  0  0  0  0
  -29.2860  -14.0420   19.3940 C   0  0  0  0  0  3  0  0  0  0  0  0
  -30.3200  -13.8880   20.5280 C   0  0  0  0  0  2  0  0  0  0  0  0
  -31.6610  -13.9160   19.9410 N   0  0  0  0  0  0  0  0  0  0  0  0
  -33.7680  -14.6570   19.8590 O   0  0  0  0  0  0  0  0  0  0  0  0
  -27.0050  -14.9760   20.1350 C   0  0  0  0  0  0  0  0  0  0  0  0
  -25.8380  -14.3640   20.4940 C   0  0  0  0  0  0  0  0  0  0  0  0
  -26.1030  -12.9630   20.4570 C   0  0  0  0  0  0  0  0  0  0  0  0
  -27.9160  -13.9610   19.8920 N   0  0  0  0  0  0  0  0  0  0  0  0
  -27.3770  -12.7400   20.1550 N   0  0  0  0  0  0  0  0  0  0  0  0
  -25.1990  -11.8220   20.6300 C   0  0  0  0  0  0  0  0  0  0  0  0
  -25.4590  -10.8040   21.5740 C   0  0  0  0  0  3  0  0  0  0  0  0
  -24.5570   -9.7320   21.7320 C   0  0  0  0  0  3  0  0  0  0  0  0
  -23.3790   -9.6710   20.9500 C   0  0  0  0  0  0  0  0  0  0  0  0
  -23.1390  -10.6750   19.9940 C   0  0  0  0  0  3  0  0  0  0  0  0
  -24.0410  -11.7380   19.8330 C   0  0  0  0  0  3  0  0  0  0  0  0
  -22.4570   -8.6550   21.0210 O   0  0  0  0  0  0  0  0  0  0  0  0
  -22.2230   -7.9840   22.1950 C   0  0  0  0  0  0  0  0  0  0  0  0
  -21.8380   -8.6580   23.3760 C   0  0  0  0  0  3  0  0  0  0  0  0
  -21.5370   -7.9230   24.5380 C   0  0  0  0  0  3  0  0  0  0  0  0
  -21.6090   -6.5160   24.5230 C   0  0  0  0  0  0  0  0  0  0  0  0
  -21.9880   -5.8440   23.3490 C   0  0  0  0  0  3  0  0  0  0  0  0
  -22.2920   -6.5770   22.1870 C   0  0  0  0  0  0  0  0  0  0  0  0
  -22.6370   -5.9230   21.0520 F   0  0  0  0  0  0  0  0  0  0  0  0
  -21.3140   -5.8090   25.6390 F   0  0  0  0  0  0  0  0  0  0  0  0
  -24.5280  -15.0490   20.7580 C   0  0  0  0  0  0  0  0  0  0  0  0
  -23.7020  -14.4790   21.6320 N   0  0  0  0  0  0  0  0  0  0  0  0
  -24.2540  -16.1270   20.2330 O   0  0  0  0  0  0  0  0  0  0  0  0
  -23.9400  -13.6160   22.0930 H   0  0  0  0  0  0  0  0  0  0  0  0
  -22.8210  -14.9270   21.8510 H   0  0  0  0  0  0  0  0  0  0  0  0
  -27.3210  -16.3170   19.9850 N   0  0  0  0  0  0  0  0  0  0  0  0
  -26.5910  -17.0070   20.1250 H   0  0  0  0  0  0  0  0  0  0  0  0
  -28.2080  -16.7460   19.7660 H   0  0  0  0  0  0  0  0  0  0  0  0
  1  3  1  0
  3  2  1  0
  3  4  1  6
  5  3  1  0
  6  7  1  0
  6  5  1  0
  8  7  1  0
  9 20  2  0
 10  8  1  0
 10 15  1  0
 11 19  1  0
 11 21  1  0
 12 14  1  0
 13 19  1  0
 14 15  2  0
 14 13  1  0
 16 10  2  0
 17 16  1  0
 17 12  2  0
 18 12  1  0
 18 11  1  0
 19  9  1  0
 21 23  2  0
 22 21  1  0
 24 22  1  0
 25 34  2  0
 25 30  1  0
 26 22  1  0
 26 30  1  0
 27 26  1  0
 28 29  1  0
 28 27  1  0
 29 25  1  0
 30 31  2  0
 31 32  1  0
 33 32  2  0
 34 33  1  0
 35  9  1  0
 35 36  1  0
 35 45  1  0
 36 39  1  0
 37 41  1  0
 37 36  1  0
 38 37  2  0
 41 40  1  0
 43 41  1  0
 43 44  1  0
 43 42  1  0
 45 48  1  1
 45 46  1  0
 47 45  1  0
 49  1  1  0
 50 49  1  0
 51 55  1  0
 52 56  2  0
 52 53  1  0
 53 59  1  0
 53 51  1  0
 54 50  1  0
 54 55  2  0
 56 54  1  0
 59 58  1  6
 59 60  1  0
 59 57  1  0
 60 66  1  0
 61 66  1  0
 62 63  1  0
 62 61  1  0
 64 63  1  0
 64 71  1  0
 64 65  1  0
 66 65  1  0
 67 60  2  0
 68 69  2  0
 69 88  1  0
 70 69  1  0
 70 73  1  0
 71 68  1  0
 71 72  1  0
 72 70  2  0
 73 74  1  0
 74 75  2  0
 76 79  1  0
 76 75  1  0
 77 76  2  0
 78 77  1  0
 78 73  2  0
 79 80  1  0
 80 81  1  0
 81 82  2  0
 83 82  1  0
 83 87  1  0
 84 83  2  0
 85 80  2  0
 85 84  1  0
 86 85  1  0
 88 89  1  0
 89 92  1  0
 89 91  1  0
 90 88  2  0
 93 94  1  0
 93 68  1  0
 95 93  1  0
M  ISO  4   7 101   8 101  59 100  60 100
M  END
>  <TORSDO>  (29) 
F 24

>  <SCORE>  (29) 
-7.852

>  <name>  (29) 
28

>  <ligand_id>  (29) 
28

>  <original_smiles>  (29) 
[H]c1nc(C([H])([H])C([H])([H])C([H])([H])[N+]([H])(C([H])([H])[H])C([H])([H])C([H])([H])C([H])([H])Oc2c([H])c([H])c3c(c2[H])C([H])([H])N(C(=O)C([H])(N([H])C(=O)C([H])(N([H])C([H])([H])[H])C([H])([H])[H])C(C([H])([H])[H])(C([H])([H])[H])C([H])([H])[H])C([H])(C(=O)N([H])C2([H])c4c([H])c([H])c([H])c([H])c4C([H])([H])C([H])([H])C2([H])[H])C3([H])[H])nc([H])c1C(C(=O)N1C([H])([H])C([H])([H])C([H])([H])C([H])(n2nc(-c3c([H])c([H])c(Oc4c([H])c([H])c(F)c([H])c4F)c([H])c3[H])c(C(=O)N([H])[H])c2N([H])[H])C1([H])[H])(C([H])([H])[H])C([H])([H])[H]

>  <smiles>  (29) 
[H]c1nc(C([H])([H])C([H])([H])C([H])([H])[N+]([H])(C([H])([H])[H])C([H])([H])C([H])([H])C([H])([H])Oc2c([H])c([H])c3c(c2[H])C([H])([H])N(C(=O)C([H])(N([H])C(=O)C([H])(N([H])C([H])([H])[H])C([H])([H])[H])C(C([H])([H])[H])(C([H])([H])[H])C([H])([H])[H])C([H])(C(=O)N([H])C2([H])c4c([H])c([H])c([H])c([H])c4C([H])([H])C([H])([H])C2([H])[H])C3([H])[H])nc([H])c1C(C(=O)N1C([H])([H])C([H])([H])C([H])([H])C([H])(n2nc(-c3c([H])c([H])c(Oc4c([H])c([H])c(F)c([H])c4F)c([H])c3[H])c(C(=O)N([H])[H])c2N([H])[H])C1([H])[H])(C([H])([H])[H])C([H])([H])[H]

$$$$
29:0:0
     RDKit          3D

 95103  0  0  1  0  0  0  0  0999 V2000
  -29.9990  -17.8320   19.6670 C   0  0  0  0  0  0  0  0  0  0  0  0
  -30.0400  -18.4380   20.9660 C   0  0  0  0  0  0  0  0  0  0  0  0
  -29.5780  -18.7570   18.8100 N   0  0  0  0  0  0  0  0  0  0  0  0
  -29.7120  -19.7120   20.8710 N   0  0  0  0  0  0  0  0  0  0  0  0
  -29.3820  -19.8880   19.5690 N   0  0  0  0  0  0  0  0  0  0  0  0
  -30.3100  -17.8090   22.3170 C   0  0  1  0  0  0  0  0  0  0  0  0
  -30.2900  -16.4780   22.2770 F   0  0  0  0  0  0  0  0  0  0  0  0
  -31.4950  -18.1860   22.7980 F   0  0  0  0  0  0  0  0  0  0  0  0
  -29.3890  -18.1780   23.2100 F   0  0  0  0  0  0  0  0  0  0  0  0
  -30.1810  -16.3460   19.2570 C   0  0  0  0  0  2  0  0  0  0  0  0
  -31.5420  -14.2770   19.3990 C   0  0  0  0  0  0  0  0  0  0  0  0
  -31.0540  -12.0170   18.5010 C   0  0  0  0  0  2  0  0  0  0  0  0
  -29.9700  -12.0940   17.4070 C   0  0  0  0  0  2  0  0  0  0  0  0
  -28.5700  -11.9920   18.0370 C   0  0  0  0  0  2  0  0  0  0  0  0
  -28.3870  -12.9600   19.2350 C   0  0  0  0  0  3  0  0  0  0  0  0
  -29.5790  -12.8890   20.2190 C   0  0  0  0  0  2  0  0  0  0  0  0
  -30.8110  -13.1200   19.4540 N   0  0  0  0  0  0  0  0  0  0  0  0
  -32.6090  -14.3210   18.7770 O   0  0  0  0  0  0  0  0  0  0  0  0
  -32.0670  -16.1100   20.8490 C   0  0  0  0  0  1  0  0  0  0  0  0
  -31.0740  -15.4090   20.0210 N   0  0  0  0  0  0  0  0  0  0  0  0
  -26.2100  -13.6970   20.3790 C   0  0  0  0  0  0  0  0  0  0  0  0
  -25.1420  -12.9850   20.8570 C   0  0  0  0  0  0  0  0  0  0  0  0
  -25.4600  -11.6080   20.6470 C   0  0  0  0  0  0  0  0  0  0  0  0
  -27.1120  -12.7550   19.9110 N   0  0  0  0  0  0  0  0  0  0  0  0
  -26.6780  -11.4890   20.1320 N   0  0  0  0  0  0  0  0  0  0  0  0
  -24.6530  -10.4000   20.8510 C   0  0  0  0  0  0  0  0  0  0  0  0
  -25.0270   -9.4130   21.7900 C   0  0  0  0  0  3  0  0  0  0  0  0
  -24.2250   -8.2680   21.9800 C   0  0  0  0  0  3  0  0  0  0  0  0
  -23.0350   -8.1010   21.2320 C   0  0  0  0  0  0  0  0  0  0  0  0
  -22.6800   -9.0760   20.2830 C   0  0  0  0  0  3  0  0  0  0  0  0
  -23.4820  -10.2120   20.0890 C   0  0  0  0  0  3  0  0  0  0  0  0
  -22.2070   -7.0100   21.3340 O   0  0  0  0  0  0  0  0  0  0  0  0
  -21.9710   -6.3950   22.5370 C   0  0  0  0  0  0  0  0  0  0  0  0
  -21.3770   -7.0790   23.6200 C   0  0  0  0  0  3  0  0  0  0  0  0
  -21.0880   -6.3900   24.8140 C   0  0  0  0  0  3  0  0  0  0  0  0
  -21.3840   -5.0170   24.9250 C   0  0  0  0  0  0  0  0  0  0  0  0
  -21.9710   -4.3330   23.8460 C   0  0  0  0  0  3  0  0  0  0  0  0
  -22.2600   -5.0210   22.6540 C   0  0  0  0  0  0  0  0  0  0  0  0
  -22.8060   -4.3530   21.6100 F   0  0  0  0  0  0  0  0  0  0  0  0
  -21.1000   -4.3520   26.0690 F   0  0  0  0  0  0  0  0  0  0  0  0
  -23.8560  -13.5520   21.3840 C   0  0  0  0  0  0  0  0  0  0  0  0
  -23.2280  -12.8670   22.3340 N   0  0  0  0  0  0  0  0  0  0  0  0
  -23.4250  -14.6330   20.9880 O   0  0  0  0  0  0  0  0  0  0  0  0
  -23.5930  -11.9900   22.6760 H   0  0  0  0  0  0  0  0  0  0  0  0
  -22.3710  -13.2280   22.7280 H   0  0  0  0  0  0  0  0  0  0  0  0
  -26.4740  -15.0600   20.2790 N   0  0  0  0  0  0  0  0  0  0  0  0
  -25.7810  -15.7520   20.5430 H   0  0  0  0  0  0  0  0  0  0  0  0
  -27.2640  -15.4550   19.7900 H   0  0  0  0  0  0  0  0  0  0  0  0
  -28.5610  -21.0660   19.1660 C   0  0  0  0  0  2  0  0  0  0  0  0
  -29.2760  -22.3970   18.7370 C   0  0  0  0  0  3  0  0  0  0  0  0
  -28.4800  -23.7520   18.9970 C   0  0  0  0  0  3  0  0  0  0  0  0
  -28.6240  -25.3110   16.9320 C   0  0  0  0  0  1  0  0  0  0  0  0
  -30.6070  -25.0030   18.4080 C   0  0  0  0  0  1  0  0  0  0  0  0
  -29.0680  -25.0930   18.3910 C   0  0  2  0  0  0  0  0  0  0  0  0
  -28.9030  -26.3370   19.1460 O   0  0  0  0  0  0  0  0  0  0  0  0
  -25.4760  -30.8860   23.4270 C   0  0  0  0  0  0  0  0  0  0  0  0
  -27.7710  -27.1400   19.2640 C   0  0  0  0  0  0  0  0  0  0  0  0
  -24.1770  -30.0580   21.4920 C   0  0  0  0  0  3  0  0  0  0  0  0
  -25.5120  -28.8250   19.6920 C   0  0  0  0  0  0  0  0  0  0  0  0
  -26.7260  -30.2400   21.3590 C   0  0  0  0  0  2  0  0  0  0  0  0
  -26.7030  -29.0760   20.3810 C   0  0  0  0  0  0  0  0  0  0  0  0
  -27.8300  -28.2440   20.1620 C   0  0  0  0  0  3  0  0  0  0  0  0
  -26.5580  -26.9130   18.5810 C   0  0  0  0  0  3  0  0  0  0  0  0
  -25.4380  -27.7500   18.7870 C   0  0  0  0  0  3  0  0  0  0  0  0
  -24.3430  -29.7450   19.9790 C   0  0  0  0  0  2  0  0  0  0  0  0
  -25.4790  -30.3950   22.1530 N   0  0  0  0  0  0  0  0  0  0  0  0
  -24.4150  -31.0970   24.0310 O   0  0  0  0  0  0  0  0  0  0  0  0
  -23.4350  -28.8800   22.1660 C   0  0  0  0  0  0  0  0  0  0  0  0
  -22.1050  -28.8280   21.9840 N   0  0  0  0  0  0  0  0  0  0  0  0
  -24.0560  -28.0290   22.8080 O   0  0  0  0  0  0  0  0  0  0  0  0
  -21.6700  -29.5700   21.4550 H   0  0  0  0  0  0  0  0  0  0  0  0
  -18.6510  -27.7700   22.1220 C   0  0  0  0  0  0  0  0  0  0  0  0
  -21.2100  -27.7860   22.4890 C   0  0  0  0  0  3  0  0  0  0  0  0
  -21.2450  -26.5360   21.5800 C   0  0  0  0  0  2  0  0  0  0  0  0
  -20.1570  -26.5430   20.5000 C   0  0  0  0  0  2  0  0  0  0  0  0
  -18.7680  -26.6170   21.1390 C   0  0  0  0  0  2  0  0  0  0  0  0
  -19.8000  -28.3290   22.7420 C   0  0  0  0  0  0  0  0  0  0  0  0
  -19.6390  -29.4230   23.6200 C   0  0  0  0  0  3  0  0  0  0  0  0
  -18.3620  -29.9520   23.8850 C   0  0  0  0  0  3  0  0  0  0  0  0
  -17.2270  -29.3860   23.2810 C   0  0  0  0  0  3  0  0  0  0  0  0
  -17.3730  -28.2960   22.4030 C   0  0  0  0  0  3  0  0  0  0  0  0
  -26.8020  -31.2320   24.1740 C   0  0  0  0  0  3  0  0  0  0  0  0
  -26.5840  -32.4850   24.9080 N   0  0  0  0  0  0  0  0  0  0  0  0
  -27.0430  -33.6830   24.5230 C   0  0  0  0  0  0  0  0  0  0  0  0
  -27.7630  -33.8370   23.5330 O   0  0  0  0  0  0  0  0  0  0  0  0
  -25.9570  -32.4430   25.6980 H   0  0  0  0  0  0  0  0  0  0  0  0
  -25.5030  -35.6660   24.6680 C   0  0  0  0  0  1  0  0  0  0  0  0
  -26.6390  -34.9050   25.3700 C   0  0  0  0  0  3  0  0  0  0  0  0
  -28.7650  -35.2660   26.5420 C   0  0  0  0  0  1  0  0  0  0  0  0
  -27.7620  -35.8290   25.6440 N   0  0  0  0  0  0  0  0  0  0  0  0
  -27.4220  -36.6960   26.0520 H   0  0  0  0  0  0  0  0  0  0  0  0
  -27.2790  -30.0900   25.1530 C   0  0  1  0  0  0  0  0  0  0  0  0
  -26.1780  -29.6050   26.1270 C   0  0  0  0  0  1  0  0  0  0  0  0
  -27.7790  -28.8640   24.3550 C   0  0  0  0  0  1  0  0  0  0  0  0
  -28.4750  -30.5900   25.9960 C   0  0  0  0  0  1  0  0  0  0  0  0
  1  2  1  0
  2  6  1  0
  3  5  1  0
  3  1  2  0
  4  2  2  0
  5  4  1  0
  6  8  1  1
  6  9  1  0
  7  6  1  0
 10  1  1  0
 10 20  1  0
 11 17  1  0
 11 20  1  0
 12 17  1  0
 13 14  1  0
 13 12  1  0
 15 14  1  0
 15 24  1  0
 15 16  1  0
 17 16  1  0
 18 11  2  0
 20 19  1  0
 21 22  2  0
 22 41  1  0
 23 26  1  0
 23 22  1  0
 24 25  1  0
 24 21  1  0
 25 23  2  0
 26 27  1  0
 27 28  2  0
 29 32  1  0
 29 28  1  0
 30 29  2  0
 31 30  1  0
 31 26  2  0
 32 33  1  0
 33 38  2  0
 33 34  1  0
 34 35  2  0
 35 36  1  0
 36 40  1  0
 37 36  2  0
 38 37  1  0
 39 38  1  0
 41 42  1  0
 42 44  1  0
 42 45  1  0
 43 41  2  0
 46 21  1  0
 46 47  1  0
 48 46  1  0
 49  5  1  0
 50 51  2  0
 50 49  1  0
 54 52  1  6
 54 53  1  0
 54 51  1  0
 54 55  1  0
 55 57  1  0
 56 67  2  0
 57 62  1  0
 58 66  1  0
 58 68  1  0
 59 65  1  0
 59 61  1  0
 60 66  1  0
 61 60  1  0
 62 61  2  0
 63 64  1  0
 63 57  2  0
 64 59  2  0
 65 58  1  0
 66 56  1  0
 68 70  2  0
 69 68  1  0
 71 69  1  0
 72 81  2  0
 72 77  1  0
 73 69  1  0
 73 77  1  0
 74 73  1  0
 75 76  1  0
 75 74  1  0
 76 72  1  0
 77 78  2  0
 78 79  1  0
 80 79  2  0
 81 80  1  0
 82 56  1  0
 82 83  1  0
 82 92  1  0
 83 86  1  0
 84 83  1  0
 84 88  1  0
 85 84  2  0
 88 87  1  0
 88 90  1  0
 90 91  1  0
 90 89  1  0
 92 95  1  1
 92 93  1  0
 94 92  1  0
M  ISO  4  11 100  20 100  54 101  55 101
M  END
>  <TORSDO>  (30) 
F 22

>  <SCORE>  (30) 
-7.895

>  <name>  (30) 
29

>  <ligand_id>  (30) 
29

>  <original_smiles>  (30) 
[H]c1c([H])c([H])c2c(c1[H])C([H])([H])C([H])([H])C([H])([H])C2([H])N([H])C(=O)C1([H])N(C(=O)C([H])(N([H])C(=O)C([H])(N([H])C([H])([H])[H])C([H])([H])[H])C(C([H])([H])[H])(C([H])([H])[H])C([H])([H])[H])C([H])([H])c2c([H])c(OC(C([H])([H])[H])(C([H])([H])[H])C([H])([H])C([H])([H])C([H])([H])n3nc(C(F)(F)F)c(C([H])([H])N(C(=O)N4C([H])([H])C([H])([H])C([H])([H])C([H])(n5nc(-c6c([H])c([H])c(Oc7c([H])c([H])c(F)c([H])c7F)c([H])c6[H])c(C(=O)N([H])[H])c5N([H])[H])C4([H])[H])C([H])([H])[H])n3)c([H])c([H])c2C1([H])[H]

>  <smiles>  (30) 
[H]c1c([H])c([H])c2c(c1[H])C([H])([H])C([H])([H])C([H])([H])C2([H])N([H])C(=O)C1([H])N(C(=O)C([H])(N([H])C(=O)C([H])(N([H])C([H])([H])[H])C([H])([H])[H])C(C([H])([H])[H])(C([H])([H])[H])C([H])([H])[H])C([H])([H])c2c([H])c(OC(C([H])([H])[H])(C([H])([H])[H])C([H])([H])C([H])([H])C([H])([H])n3nc(C(F)(F)F)c(C([H])([H])N(C(=O)N4C([H])([H])C([H])([H])C([H])([H])C([H])(n5nc(-c6c([H])c([H])c(Oc7c([H])c([H])c(F)c([H])c7F)c([H])c6[H])c(C(=O)N([H])[H])c5N([H])[H])C4([H])[H])C([H])([H])[H])n3)c([H])c([H])c2C1([H])[H]

$$$$
30:0:0
     RDKit          3D

 99107  0  0  1  0  0  0  0  0999 V2000
  -31.3420  -18.8550   19.1870 C   0  0  0  0  0  3  0  0  0  0  0  0
  -30.2730  -18.2610   19.8260 C   0  0  0  0  0  0  0  0  0  0  0  0
  -29.9810  -20.6570   19.5940 C   0  0  0  0  0  3  0  0  0  0  0  0
  -31.1020  -20.2240   18.9370 N   0  0  0  0  0  0  0  0  0  0  0  0
  -29.5070  -19.4560   20.0910 N   0  0  0  0  0  0  0  0  0  0  0  0
  -28.6120  -19.4200   20.5690 H   0  0  0  0  0  0  0  0  0  0  0  0
  -33.0040  -20.1930   17.2640 C   0  0  0  0  0  1  0  0  0  0  0  0
  -32.7670  -22.0520   18.9120 C   0  0  0  0  0  1  0  0  0  0  0  0
  -31.1690  -21.7720   16.9370 C   0  0  0  0  0  1  0  0  0  0  0  0
  -31.9770  -21.0580   18.0460 C   0  0  2  0  0  0  0  0  0  0  0  0
  -29.1110  -22.0680   19.5700 C   0  0  0  0  0  2  0  0  0  0  0  0
  -29.4900  -23.6720   19.8620 C   0  0  0  0  0  3  0  0  0  0  0  0
  -28.3040  -24.8560   19.9430 C   0  0  0  0  0  3  0  0  0  0  0  0
  -28.4730  -26.3830   20.1130 O   0  0  0  0  0  0  0  0  0  0  0  0
  -24.6600  -31.8750   23.2500 C   0  0  0  0  0  0  0  0  0  0  0  0
  -27.3500  -27.2890   20.1100 C   0  0  0  0  0  0  0  0  0  0  0  0
  -23.4910  -30.5010   21.5670 C   0  0  0  0  0  3  0  0  0  0  0  0
  -24.9720  -28.9630   20.1380 C   0  0  0  0  0  0  0  0  0  0  0  0
  -26.0430  -30.7940   21.4440 C   0  0  0  0  0  2  0  0  0  0  0  0
  -26.1420  -29.4250   20.7540 C   0  0  0  0  0  0  0  0  0  0  0  0
  -27.3330  -28.6090   20.7120 C   0  0  0  0  0  3  0  0  0  0  0  0
  -26.1390  -26.9130   19.4800 C   0  0  0  0  0  3  0  0  0  0  0  0
  -24.9760  -27.7180   19.4940 C   0  0  0  0  0  3  0  0  0  0  0  0
  -23.7330  -29.8440   20.1840 C   0  0  0  0  0  2  0  0  0  0  0  0
  -24.7510  -31.0750   22.1420 N   0  0  0  0  0  0  0  0  0  0  0  0
  -23.5660  -32.1450   23.7670 O   0  0  0  0  0  0  0  0  0  0  0  0
  -22.8060  -29.4750   22.5030 C   0  0  0  0  0  0  0  0  0  0  0  0
  -21.4840  -29.2930   22.3420 N   0  0  0  0  0  0  0  0  0  0  0  0
  -23.4650  -28.8420   23.3280 O   0  0  0  0  0  0  0  0  0  0  0  0
  -21.0090  -29.8530   21.6490 H   0  0  0  0  0  0  0  0  0  0  0  0
  -18.0970  -28.0900   22.7840 C   0  0  0  0  0  0  0  0  0  0  0  0
  -20.6520  -28.3390   23.0780 C   0  0  0  0  0  3  0  0  0  0  0  0
  -20.7560  -26.9230   22.4640 C   0  0  0  0  0  2  0  0  0  0  0  0
  -19.6640  -26.6320   21.4300 C   0  0  0  0  0  2  0  0  0  0  0  0
  -18.2760  -26.7610   22.0690 C   0  0  0  0  0  2  0  0  0  0  0  0
  -19.2110  -28.8390   23.2410 C   0  0  0  0  0  0  0  0  0  0  0  0
  -18.9890  -30.0850   23.8660 C   0  0  0  0  0  3  0  0  0  0  0  0
  -17.6820  -30.5810   24.0360 C   0  0  0  0  0  3  0  0  0  0  0  0
  -16.5810  -29.8280   23.5970 C   0  0  0  0  0  3  0  0  0  0  0  0
  -16.7880  -28.5840   22.9740 C   0  0  0  0  0  3  0  0  0  0  0  0
  -25.9290  -32.5020   23.9080 C   0  0  0  0  0  3  0  0  0  0  0  0
  -26.4080  -31.7240   25.1940 C   0  0  1  0  0  0  0  0  0  0  0  0
  -25.2830  -31.4850   26.2290 C   0  0  0  0  0  1  0  0  0  0  0  0
  -26.9970  -30.3470   24.8150 C   0  0  0  0  0  1  0  0  0  0  0  0
  -27.5430  -32.5100   25.8920 C   0  0  0  0  0  1  0  0  0  0  0  0
  -25.6160  -33.8990   24.2470 N   0  0  0  0  0  0  0  0  0  0  0  0
  -25.9290  -34.9600   23.4870 C   0  0  0  0  0  0  0  0  0  0  0  0
  -26.5860  -34.8620   22.4470 O   0  0  0  0  0  0  0  0  0  0  0  0
  -25.0370  -34.0470   25.0610 H   0  0  0  0  0  0  0  0  0  0  0  0
  -24.1750  -36.7300   23.1790 C   0  0  0  0  0  1  0  0  0  0  0  0
  -25.4430  -36.3470   23.9570 C   0  0  0  0  0  3  0  0  0  0  0  0
  -27.5880  -37.2550   24.7360 C   0  0  0  0  0  1  0  0  0  0  0  0
  -26.4660  -37.4090   23.8130 N   0  0  0  0  0  0  0  0  0  0  0  0
  -26.0570  -38.3250   23.9620 H   0  0  0  0  0  0  0  0  0  0  0  0
  -29.7310  -16.6740   19.8920 C   0  0  2  0  0  0  0  0  0  0  0  0
  -30.6390  -15.2010   19.8530 C   0  0  0  0  0  0  0  0  0  0  0  0
  -30.5630  -12.8370   18.8960 C   0  0  0  0  0  2  0  0  0  0  0  0
  -29.4970  -12.7790   17.7720 C   0  0  0  0  0  2  0  0  0  0  0  0
  -28.0660  -12.5510   18.3280 C   0  0  0  0  0  2  0  0  0  0  0  0
  -27.7830  -13.3170   19.6520 C   0  0  0  0  0  3  0  0  0  0  0  0
  -28.9910  -13.2540   20.6110 C   0  0  0  0  0  2  0  0  0  0  0  0
  -30.1360  -13.8710   19.8880 N   0  0  0  0  0  0  0  0  0  0  0  0
  -31.8520  -15.2540   19.5980 O   0  0  0  0  0  0  0  0  0  0  0  0
  -25.4350  -13.8840   20.5000 C   0  0  0  0  0  0  0  0  0  0  0  0
  -24.3990  -13.0990   20.9070 C   0  0  0  0  0  0  0  0  0  0  0  0
  -24.8650  -11.7580   20.8030 C   0  0  0  0  0  0  0  0  0  0  0  0
  -26.4840  -13.0150   20.2240 N   0  0  0  0  0  0  0  0  0  0  0  0
  -26.1430  -11.7230   20.4390 N   0  0  0  0  0  0  0  0  0  0  0  0
  -24.1460  -10.4980   20.9790 C   0  0  0  0  0  0  0  0  0  0  0  0
  -24.5840   -9.5360   21.9130 C   0  0  0  0  0  3  0  0  0  0  0  0
  -23.8710   -8.3300   22.0700 C   0  0  0  0  0  3  0  0  0  0  0  0
  -22.7090   -8.0850   21.3020 C   0  0  0  0  0  0  0  0  0  0  0  0
  -22.2960   -9.0400   20.3550 C   0  0  0  0  0  3  0  0  0  0  0  0
  -23.0050  -10.2390   20.1940 C   0  0  0  0  0  3  0  0  0  0  0  0
  -21.9630   -6.9370   21.3860 O   0  0  0  0  0  0  0  0  0  0  0  0
  -21.8240   -6.2610   22.5730 C   0  0  0  0  0  0  0  0  0  0  0  0
  -21.2480   -6.8600   23.7130 C   0  0  0  0  0  3  0  0  0  0  0  0
  -21.0650   -6.1030   24.8860 C   0  0  0  0  0  3  0  0  0  0  0  0
  -21.4470   -4.7470   24.9160 C   0  0  0  0  0  0  0  0  0  0  0  0
  -22.0240   -4.1510   23.7820 C   0  0  0  0  0  3  0  0  0  0  0  0
  -22.2060   -4.9050   22.6100 C   0  0  0  0  0  0  0  0  0  0  0  0
  -22.7440   -4.3250   21.5100 F   0  0  0  0  0  0  0  0  0  0  0  0
  -21.2640   -4.0140   26.0390 F   0  0  0  0  0  0  0  0  0  0  0  0
  -23.0230  -13.5710   21.2810 C   0  0  0  0  0  0  0  0  0  0  0  0
  -22.3530  -12.8560   22.1740 N   0  0  0  0  0  0  0  0  0  0  0  0
  -22.5600  -14.6150   20.8230 O   0  0  0  0  0  0  0  0  0  0  0  0
  -22.7430  -12.0190   22.5860 H   0  0  0  0  0  0  0  0  0  0  0  0
  -21.4380  -13.1610   22.4730 H   0  0  0  0  0  0  0  0  0  0  0  0
  -25.5340  -15.2620   20.3350 N   0  0  0  0  0  0  0  0  0  0  0  0
  -24.7320  -15.8100   20.6270 H   0  0  0  0  0  0  0  0  0  0  0  0
  -26.4110  -15.6770   20.6250 H   0  0  0  0  0  0  0  0  0  0  0  0
  -28.9060  -16.7600   18.5300 C   0  0  1  0  0  0  0  0  0  0  0  0
  -29.6770  -17.2130   17.5340 F   0  0  0  0  0  0  0  0  0  0  0  0
  -28.4350  -15.6550   17.9950 F   0  0  0  0  0  0  0  0  0  0  0  0
  -27.8750  -17.6000   18.6480 F   0  0  0  0  0  0  0  0  0  0  0  0
  -28.8850  -16.6370   21.2200 C   0  0  1  0  0  0  0  0  0  0  0  0
  -28.0750  -17.6810   21.4140 F   0  0  0  0  0  0  0  0  0  0  0  0
  -28.0700  -15.6110   21.3120 F   0  0  0  0  0  0  0  0  0  0  0  0
  -29.7160  -16.5800   22.2640 F   0  0  0  0  0  0  0  0  0  0  0  0
  1  2  2  0
  2 55  1  0
  2  5  1  0
  3 11  1  0
  3  5  1  0
  4  1  1  0
  4  3  1  0
  5  6  1  0
 10  7  1  6
  9 10  1  0
 10  8  1  0
 10  4  1  0
 11 12  1  0
 12 13  2  0
 13 14  1  0
 15 26  2  0
 16 14  1  0
 16 21  1  0
 17 25  1  0
 17 27  1  0
 18 24  1  0
 18 20  1  0
 19 25  1  0
 20 19  1  0
 21 20  2  0
 22 23  1  0
 22 16  2  0
 23 18  2  0
 24 17  1  0
 25 15  1  0
 27 29  2  0
 28 27  1  0
 30 28  1  0
 31 40  2  0
 31 36  1  0
 32 28  1  0
 32 36  1  0
 33 32  1  0
 34 35  1  0
 34 33  1  0
 35 31  1  0
 36 37  2  0
 37 38  1  0
 39 38  2  0
 40 39  1  0
 41 15  1  0
 41 46  1  0
 41 42  1  0
 42 45  1  1
 42 43  1  0
 44 42  1  0
 46 49  1  0
 47 51  1  0
 47 46  1  0
 48 47  2  0
 51 50  1  0
 53 51  1  0
 53 54  1  0
 53 52  1  0
 55 96  1  0
 56 62  1  0
 55 56  1  6
 57 62  1  0
 58 59  1  0
 58 57  1  0
 60 59  1  0
 60 67  1  0
 60 61  1  0
 62 61  1  0
 63 56  2  0
 64 65  2  0
 65 84  1  0
 66 65  1  0
 66 69  1  0
 67 68  1  0
 67 64  1  0
 68 66  2  0
 69 70  1  0
 70 71  2  0
 72 75  1  0
 72 71  1  0
 73 72  2  0
 74 73  1  0
 74 69  2  0
 75 76  1  0
 76 81  2  0
 76 77  1  0
 77 78  2  0
 78 79  1  0
 79 83  1  0
 80 79  2  0
 81 80  1  0
 82 81  1  0
 84 85  1  0
 85 88  1  0
 85 87  1  0
 86 84  2  0
 89 64  1  0
 89 91  1  0
 89 90  1  0
 92 95  1  1
 92 55  1  0
 93 92  1  0
 94 92  1  0
 96 98  1  6
 96 97  1  0
 96 99  1  0
M  ISO  4  13 101  14 101  55 100  56 100
M  END
>  <TORSDO>  (31) 
F 23

>  <SCORE>  (31) 
-11.361

>  <name>  (31) 
30

>  <ligand_id>  (31) 
30

>  <original_smiles>  (31) 
[H]c1c([H])c([H])c2c(c1[H])C([H])([H])C([H])([H])C([H])([H])C2([H])N([H])C(=O)C1([H])N(C(=O)C([H])(N([H])C(=O)C([H])(N([H])C([H])([H])[H])C([H])([H])[H])C(C([H])([H])[H])(C([H])([H])[H])C([H])([H])[H])C([H])([H])c2c([H])c(OC([H])([H])C([H])([H])C([H])([H])c3n(C(C([H])([H])[H])(C([H])([H])[H])C([H])([H])[H])c([H])c(C(C(=O)N4C([H])([H])C([H])([H])C([H])([H])C([H])(n5nc(-c6c([H])c([H])c(Oc7c([H])c([H])c(F)c([H])c7F)c([H])c6[H])c(C(=O)N([H])[H])c5N([H])[H])C4([H])[H])(C(F)(F)F)C(F)(F)F)[n+]3[H])c([H])c([H])c2C1([H])[H]

>  <smiles>  (31) 
[H]c1c([H])c([H])c2c(c1[H])C([H])([H])C([H])([H])C([H])([H])C2([H])N([H])C(=O)C1([H])N(C(=O)C([H])(N([H])C(=O)C([H])(N([H])C([H])([H])[H])C([H])([H])[H])C(C([H])([H])[H])(C([H])([H])[H])C([H])([H])[H])C([H])([H])c2c([H])c(OC([H])([H])C([H])([H])C([H])([H])c3n(C(C([H])([H])[H])(C([H])([H])[H])C([H])([H])[H])c([H])c(C(C(=O)N4C([H])([H])C([H])([H])C([H])([H])C([H])(n5nc(-c6c([H])c([H])c(Oc7c([H])c([H])c(F)c([H])c7F)c([H])c6[H])c(C(=O)N([H])[H])c5N([H])[H])C4([H])[H])(C(F)(F)F)C(F)(F)F)[n+]3[H])c([H])c([H])c2C1([H])[H]

$$$$
32:0:0
     RDKit          3D

 94102  0  0  1  0  0  0  0  0999 V2000
  -27.8050  -19.3650   18.5690 C   0  0  0  0  0  3  0  0  0  0  0  0
  -28.0260  -20.7330   18.7870 C   0  0  0  0  0  0  0  0  0  0  0  0
  -29.1030  -21.0980   19.6240 C   0  0  0  0  0  0  0  0  0  0  0  0
  -29.6250  -18.7650   19.8320 C   0  0  0  0  0  0  0  0  0  0  0  0
  -27.1430  -21.7240   18.0430 C   0  0  0  0  0  1  0  0  0  0  0  0
  -28.6200  -18.4100   19.0420 N   0  0  0  0  0  0  0  0  0  0  0  0
  -29.8880  -20.0730   20.1310 N   0  0  0  0  0  0  0  0  0  0  0  0
  -31.6510  -17.5470   18.9550 C   0  0  0  0  0  1  0  0  0  0  0  0
  -30.6800  -17.6110   20.1500 C   0  0  0  0  0  3  0  0  0  0  0  0
  -28.7310  -16.2140   21.1270 C   0  0  0  0  0  1  0  0  0  0  0  0
  -30.9250  -16.1210   22.2250 C   0  0  0  0  0  1  0  0  0  0  0  0
  -30.2470  -16.1520   20.8320 C   0  0  2  0  0  0  0  0  0  0  0  0
  -30.7630  -14.7480   20.1510 C   0  0  0  0  0  0  0  0  0  0  0  0
  -30.4600  -12.5260   19.0090 C   0  0  0  0  0  2  0  0  0  0  0  0
  -29.4690  -12.6560   17.8310 C   0  0  0  0  0  2  0  0  0  0  0  0
  -28.0150  -12.4700   18.3140 C   0  0  0  0  0  2  0  0  0  0  0  0
  -27.7140  -13.3060   19.5830 C   0  0  0  0  0  3  0  0  0  0  0  0
  -28.8230  -13.1120   20.6430 C   0  0  0  0  0  2  0  0  0  0  0  0
  -30.0870  -13.5420   20.0330 N   0  0  0  0  0  0  0  0  0  0  0  0
  -31.9020  -14.7630   19.6780 O   0  0  0  0  0  0  0  0  0  0  0  0
  -25.3570  -13.9390   20.3820 C   0  0  0  0  0  0  0  0  0  0  0  0
  -24.2940  -13.1780   20.7870 C   0  0  0  0  0  0  0  0  0  0  0  0
  -24.7400  -11.8220   20.7350 C   0  0  0  0  0  0  0  0  0  0  0  0
  -26.3840  -13.0450   20.1160 N   0  0  0  0  0  0  0  0  0  0  0  0
  -26.0200  -11.7680   20.3860 N   0  0  0  0  0  0  0  0  0  0  0  0
  -24.0070  -10.5680   20.9410 C   0  0  0  0  0  0  0  0  0  0  0  0
  -24.4610   -9.5890   21.8520 C   0  0  0  0  0  3  0  0  0  0  0  0
  -23.7270   -8.3990   22.0470 C   0  0  0  0  0  3  0  0  0  0  0  0
  -22.5260   -8.1810   21.3290 C   0  0  0  0  0  0  0  0  0  0  0  0
  -22.0920   -9.1490   20.4050 C   0  0  0  0  0  3  0  0  0  0  0  0
  -22.8270  -10.3300   20.2090 C   0  0  0  0  0  3  0  0  0  0  0  0
  -21.7610   -7.0440   21.4350 O   0  0  0  0  0  0  0  0  0  0  0  0
  -21.7390   -6.3000   22.5870 C   0  0  0  0  0  0  0  0  0  0  0  0
  -21.3700   -6.8600   23.8290 C   0  0  0  0  0  3  0  0  0  0  0  0
  -21.2900   -6.0420   24.9740 C   0  0  0  0  0  3  0  0  0  0  0  0
  -21.5720   -4.6650   24.8770 C   0  0  0  0  0  0  0  0  0  0  0  0
  -21.9370   -4.1060   23.6400 C   0  0  0  0  0  3  0  0  0  0  0  0
  -22.0170   -4.9220   22.4970 C   0  0  0  0  0  0  0  0  0  0  0  0
  -22.3480   -4.3740   21.3040 F   0  0  0  0  0  0  0  0  0  0  0  0
  -21.4890   -3.8770   25.9750 F   0  0  0  0  0  0  0  0  0  0  0  0
  -22.9130  -13.6730   21.1040 C   0  0  0  0  0  0  0  0  0  0  0  0
  -22.2090  -12.9860   21.9980 N   0  0  0  0  0  0  0  0  0  0  0  0
  -22.4680  -14.7000   20.5950 O   0  0  0  0  0  0  0  0  0  0  0  0
  -22.5800  -12.1520   22.4280 H   0  0  0  0  0  0  0  0  0  0  0  0
  -21.2850  -13.3050   22.2580 H   0  0  0  0  0  0  0  0  0  0  0  0
  -25.5220  -15.3070   20.1980 N   0  0  0  0  0  0  0  0  0  0  0  0
  -24.7630  -15.9620   20.3440 H   0  0  0  0  0  0  0  0  0  0  0  0
  -26.3650  -15.7470   19.8530 H   0  0  0  0  0  0  0  0  0  0  0  0
  -29.5790  -22.6100   19.7410 C   0  0  0  0  0  2  0  0  0  0  0  0
  -27.3990  -23.4130   21.0000 C   0  0  0  0  0  1  0  0  0  0  0  0
  -29.6290  -24.2530   21.6840 C   0  0  0  0  0  1  0  0  0  0  0  0
  -28.7800  -23.8340   20.4650 C   0  0  1  0  0  0  0  0  0  0  0  0
  -28.5910  -25.1580   19.5590 C   0  0  0  0  0  2  0  0  0  0  0  0
  -28.4310  -26.5040   20.1750 O   0  0  0  0  0  0  0  0  0  0  0  0
  -24.6150  -31.8370   23.1780 C   0  0  0  0  0  0  0  0  0  0  0  0
  -27.2730  -27.3010   20.1030 C   0  0  0  0  0  0  0  0  0  0  0  0
  -23.4300  -30.4500   21.5160 C   0  0  0  0  0  3  0  0  0  0  0  0
  -24.8960  -28.9080   20.0900 C   0  0  0  0  0  0  0  0  0  0  0  0
  -25.9680  -30.7720   21.3580 C   0  0  0  0  0  2  0  0  0  0  0  0
  -26.0550  -29.3960   20.7020 C   0  0  0  0  0  0  0  0  0  0  0  0
  -27.2400  -28.6010   20.7030 C   0  0  0  0  0  3  0  0  0  0  0  0
  -26.0840  -26.8600   19.4800 C   0  0  0  0  0  3  0  0  0  0  0  0
  -24.9110  -27.6450   19.4750 C   0  0  0  0  0  3  0  0  0  0  0  0
  -23.6580  -29.7830   20.1320 C   0  0  0  0  0  2  0  0  0  0  0  0
  -24.6900  -31.0360   22.0750 N   0  0  0  0  0  0  0  0  0  0  0  0
  -23.5270  -32.1100   23.7050 O   0  0  0  0  0  0  0  0  0  0  0  0
  -22.7600  -29.4260   22.4630 C   0  0  0  0  0  0  0  0  0  0  0  0
  -21.4350  -29.2470   22.3200 N   0  0  0  0  0  0  0  0  0  0  0  0
  -23.4300  -28.7970   23.2860 O   0  0  0  0  0  0  0  0  0  0  0  0
  -20.9530  -29.8050   21.6300 H   0  0  0  0  0  0  0  0  0  0  0  0
  -18.0610  -28.0190   22.7530 C   0  0  0  0  0  0  0  0  0  0  0  0
  -20.6110  -28.3020   23.0750 C   0  0  0  0  0  3  0  0  0  0  0  0
  -20.7370  -26.8710   22.5020 C   0  0  0  0  0  2  0  0  0  0  0  0
  -19.6590  -26.5380   21.4660 C   0  0  0  0  0  2  0  0  0  0  0  0
  -18.2640  -26.6710   22.0820 C   0  0  0  0  0  2  0  0  0  0  0  0
  -19.1630  -28.7920   23.2050 C   0  0  0  0  0  0  0  0  0  0  0  0
  -18.9210  -30.0530   23.7920 C   0  0  0  0  0  3  0  0  0  0  0  0
  -17.6090  -30.5420   23.9320 C   0  0  0  0  0  3  0  0  0  0  0  0
  -16.5200  -29.7660   23.4960 C   0  0  0  0  0  3  0  0  0  0  0  0
  -16.7470  -28.5070   22.9120 C   0  0  0  0  0  3  0  0  0  0  0  0
  -25.8920  -32.4670   23.8180 C   0  0  0  0  0  3  0  0  0  0  0  0
  -25.5750  -33.8590   24.1680 N   0  0  0  0  0  0  0  0  0  0  0  0
  -25.9040  -34.9230   23.4250 C   0  0  0  0  0  0  0  0  0  0  0  0
  -26.5760  -34.8380   22.3930 O   0  0  0  0  0  0  0  0  0  0  0  0
  -24.9790  -34.0000   24.9700 H   0  0  0  0  0  0  0  0  0  0  0  0
  -24.1650  -36.7120   23.0980 C   0  0  0  0  0  1  0  0  0  0  0  0
  -25.4110  -36.3040   23.9010 C   0  0  0  0  0  3  0  0  0  0  0  0
  -27.5440  -37.1890   24.7360 C   0  0  0  0  0  1  0  0  0  0  0  0
  -26.4370  -37.3640   23.7990 N   0  0  0  0  0  0  0  0  0  0  0  0
  -26.0270  -38.2800   23.9610 H   0  0  0  0  0  0  0  0  0  0  0  0
  -26.4030  -31.6780   25.0870 C   0  0  1  0  0  0  0  0  0  0  0  0
  -25.3040  -31.4250   26.1460 C   0  0  0  0  0  1  0  0  0  0  0  0
  -26.9900  -30.3070   24.6800 C   0  0  0  0  0  1  0  0  0  0  0  0
  -27.5510  -32.4640   25.7660 C   0  0  0  0  0  1  0  0  0  0  0  0
  1  2  2  0
  1  6  1  0
  2  3  1  0
  3 49  1  0
  3  7  2  0
  4  7  1  0
  4  9  1  0
  5  2  1  0
  6  4  2  0
  9  8  1  0
  9 12  1  0
 12 10  1  1
 12 11  1  0
 13 12  1  0
 14 19  1  0
 15 16  1  0
 15 14  1  0
 17 16  1  0
 17 24  1  0
 17 18  1  0
 19 13  1  0
 19 18  1  0
 20 13  2  0
 21 22  2  0
 22 41  1  0
 23 22  1  0
 23 26  1  0
 24 21  1  0
 24 25  1  0
 25 23  2  0
 26 27  1  0
 27 28  2  0
 29 32  1  0
 29 28  1  0
 30 29  2  0
 31 30  1  0
 31 26  2  0
 32 33  1  0
 33 34  1  0
 34 35  2  0
 36 35  1  0
 36 40  1  0
 37 36  2  0
 38 33  2  0
 38 37  1  0
 39 38  1  0
 41 42  1  0
 42 45  1  0
 42 44  1  0
 43 41  2  0
 46 47  1  0
 46 21  1  0
 48 46  1  0
 49 52  1  0
 52 50  1  1
 52 51  1  0
 53 54  1  0
 53 52  1  0
 55 66  2  0
 56 54  1  0
 56 61  1  0
 57 65  1  0
 57 67  1  0
 58 64  1  0
 58 60  1  0
 59 65  1  0
 60 61  2  0
 60 59  1  0
 62 56  2  0
 63 62  1  0
 63 58  2  0
 64 57  1  0
 65 55  1  0
 67 69  2  0
 68 67  1  0
 70 68  1  0
 71 80  2  0
 71 76  1  0
 72 68  1  0
 72 76  1  0
 73 72  1  0
 74 75  1  0
 74 73  1  0
 75 71  1  0
 76 77  2  0
 77 78  1  0
 79 78  2  0
 80 79  1  0
 81 55  1  0
 81 82  1  0
 81 91  1  0
 82 85  1  0
 83 87  1  0
 83 82  1  0
 84 83  2  0
 87 86  1  0
 89 87  1  0
 89 90  1  0
 89 88  1  0
 91 94  1  1
 91 92  1  0
 93 91  1  0
M  ISO  4  12 100  13 100  53 101  54 101
M  END
>  <TORSDO>  (32) 
F 21

>  <SCORE>  (32) 
-13.508

>  <name>  (32) 
32

>  <ligand_id>  (32) 
32

>  <original_smiles>  (32) 
[H]c1nc(C([H])(C([H])([H])[H])C(C(=O)N2C([H])([H])C([H])([H])C([H])([H])C([H])(n3nc(-c4c([H])c([H])c(Oc5c([H])c([H])c(F)c([H])c5F)c([H])c4[H])c(C(=O)N([H])[H])c3N([H])[H])C2([H])[H])(C([H])([H])[H])C([H])([H])[H])nc(C([H])([H])C(C([H])([H])[H])(C([H])([H])[H])C([H])([H])Oc2c([H])c([H])c3c(c2[H])C([H])([H])N(C(=O)C([H])(N([H])C(=O)C([H])(N([H])C([H])([H])[H])C([H])([H])[H])C(C([H])([H])[H])(C([H])([H])[H])C([H])([H])[H])C([H])(C(=O)N([H])C2([H])c4c([H])c([H])c([H])c([H])c4C([H])([H])C([H])([H])C2([H])[H])C3([H])[H])c1C([H])([H])[H]

>  <smiles>  (32) 
[H]c1nc(C([H])(C([H])([H])[H])C(C(=O)N2C([H])([H])C([H])([H])C([H])([H])C([H])(n3nc(-c4c([H])c([H])c(Oc5c([H])c([H])c(F)c([H])c5F)c([H])c4[H])c(C(=O)N([H])[H])c3N([H])[H])C2([H])[H])(C([H])([H])[H])C([H])([H])[H])nc(C([H])([H])C(C([H])([H])[H])(C([H])([H])[H])C([H])([H])Oc2c([H])c([H])c3c(c2[H])C([H])([H])N(C(=O)C([H])(N([H])C(=O)C([H])(N([H])C([H])([H])[H])C([H])([H])[H])C(C([H])([H])[H])(C([H])([H])[H])C([H])([H])[H])C([H])(C(=O)N([H])C2([H])c4c([H])c([H])c([H])c([H])c4C([H])([H])C([H])([H])C2([H])[H])C3([H])[H])c1C([H])([H])[H]

$$$$
34:0:0
     RDKit          3D

 95103  0  0  1  0  0  0  0  0999 V2000
  -29.3980  -18.0380   20.2890 C   0  0  0  0  0  0  0  0  0  0  0  0
  -30.2720  -18.7240   19.3880 C   0  0  0  0  0  0  0  0  0  0  0  0
  -28.7590  -18.9510   21.0020 N   0  0  0  0  0  0  0  0  0  0  0  0
  -30.1790  -20.0270   19.5790 N   0  0  0  0  0  0  0  0  0  0  0  0
  -29.2220  -20.1530   20.5290 N   0  0  0  0  0  0  0  0  0  0  0  0
  -31.1970  -18.1350   18.3470 C   0  0  1  0  0  0  0  0  0  0  0  0
  -30.8530  -16.8910   18.0160 F   0  0  0  0  0  0  0  0  0  0  0  0
  -31.1770  -18.8540   17.2230 F   0  0  0  0  0  0  0  0  0  0  0  0
  -32.4560  -18.1080   18.7840 F   0  0  0  0  0  0  0  0  0  0  0  0
  -29.1050  -16.5260   20.4040 C   0  0  0  0  0  2  0  0  0  0  0  0
  -30.6950  -14.5800   20.3680 C   0  0  0  0  0  0  0  0  0  0  0  0
  -30.3610  -12.4130   19.2120 C   0  0  0  0  0  2  0  0  0  0  0  0
  -29.4150  -12.5930   18.0100 C   0  0  0  0  0  2  0  0  0  0  0  0
  -27.9460  -12.4420   18.4530 C   0  0  0  0  0  2  0  0  0  0  0  0
  -27.6100  -13.2850   19.7110 C   0  0  0  0  0  3  0  0  0  0  0  0
  -28.6770  -13.1080   20.8140 C   0  0  0  0  0  2  0  0  0  0  0  0
  -29.9890  -13.4180   20.2250 N   0  0  0  0  0  0  0  0  0  0  0  0
  -31.8400  -14.6940   19.9210 O   0  0  0  0  0  0  0  0  0  0  0  0
  -30.8880  -16.2630   22.1000 C   0  0  0  0  0  1  0  0  0  0  0  0
  -30.1170  -15.6260   21.0290 N   0  0  0  0  0  0  0  0  0  0  0  0
  -25.2210  -13.8920   20.4320 C   0  0  0  0  0  0  0  0  0  0  0  0
  -24.1550  -13.1220   20.8080 C   0  0  0  0  0  0  0  0  0  0  0  0
  -24.6170  -11.7700   20.7840 C   0  0  0  0  0  0  0  0  0  0  0  0
  -26.2640  -13.0090   20.2010 N   0  0  0  0  0  0  0  0  0  0  0  0
  -25.9060  -11.7290   20.4740 N   0  0  0  0  0  0  0  0  0  0  0  0
  -23.8910  -10.5090   20.9810 C   0  0  0  0  0  0  0  0  0  0  0  0
  -24.3200   -9.5500   21.9260 C   0  0  0  0  0  3  0  0  0  0  0  0
  -23.5940   -8.3540   22.1100 C   0  0  0  0  0  3  0  0  0  0  0  0
  -22.4270   -8.1080   21.3490 C   0  0  0  0  0  0  0  0  0  0  0  0
  -22.0190   -9.0550   20.3940 C   0  0  0  0  0  3  0  0  0  0  0  0
  -22.7440  -10.2430   20.2080 C   0  0  0  0  0  3  0  0  0  0  0  0
  -21.6740   -6.9630   21.4430 O   0  0  0  0  0  0  0  0  0  0  0  0
  -21.6110   -6.2350   22.6040 C   0  0  0  0  0  0  0  0  0  0  0  0
  -21.1590   -6.8020   23.8150 C   0  0  0  0  0  3  0  0  0  0  0  0
  -21.0470   -6.0000   24.9690 C   0  0  0  0  0  3  0  0  0  0  0  0
  -21.3750   -4.6330   24.9120 C   0  0  0  0  0  0  0  0  0  0  0  0
  -21.8200   -4.0650   23.7050 C   0  0  0  0  0  3  0  0  0  0  0  0
  -21.9350   -4.8640   22.5540 C   0  0  0  0  0  0  0  0  0  0  0  0
  -22.3440   -4.3070   21.3890 F   0  0  0  0  0  0  0  0  0  0  0  0
  -21.2580   -3.8600   26.0180 F   0  0  0  0  0  0  0  0  0  0  0  0
  -22.7590  -13.6010   21.0790 C   0  0  0  0  0  0  0  0  0  0  0  0
  -22.0290  -12.9060   21.9450 N   0  0  0  0  0  0  0  0  0  0  0  0
  -22.3210  -14.6250   20.5560 O   0  0  0  0  0  0  0  0  0  0  0  0
  -22.3960  -12.0770   22.3880 H   0  0  0  0  0  0  0  0  0  0  0  0
  -21.0920  -13.2090   22.1690 H   0  0  0  0  0  0  0  0  0  0  0  0
  -25.3820  -15.2610   20.2420 N   0  0  0  0  0  0  0  0  0  0  0  0
  -24.6110  -15.9110   20.3470 H   0  0  0  0  0  0  0  0  0  0  0  0
  -26.2170  -15.6970   19.8760 H   0  0  0  0  0  0  0  0  0  0  0  0
  -28.8290  -21.4580   21.1190 C   0  0  0  0  0  3  0  0  0  0  0  0
  -28.8530  -22.7260   20.1770 C   0  0  0  0  0  3  0  0  0  0  0  0
  -26.9990  -24.0620   21.3310 C   0  0  0  0  0  1  0  0  0  0  0  0
  -29.4000  -24.4740   21.9540 C   0  0  0  0  0  1  0  0  0  0  0  0
  -28.4410  -24.1320   20.7950 C   0  0  1  0  0  0  0  0  0  0  0  0
  -28.5190  -25.2990   19.7320 C   0  0  0  0  0  2  0  0  0  0  0  0
  -28.4010  -26.6700   20.2240 O   0  0  0  0  0  0  0  0  0  0  0  0
  -24.5810  -31.9140   23.2430 C   0  0  0  0  0  0  0  0  0  0  0  0
  -27.2160  -27.4030   20.1840 C   0  0  0  0  0  0  0  0  0  0  0  0
  -23.3750  -30.5040   21.6090 C   0  0  0  0  0  3  0  0  0  0  0  0
  -24.8250  -28.9540   20.1890 C   0  0  0  0  0  0  0  0  0  0  0  0
  -25.9040  -30.8480   21.4100 C   0  0  0  0  0  2  0  0  0  0  0  0
  -25.9870  -29.4690   20.7740 C   0  0  0  0  0  0  0  0  0  0  0  0
  -27.1810  -28.7000   20.7660 C   0  0  0  0  0  3  0  0  0  0  0  0
  -26.0260  -26.9160   19.5960 C   0  0  0  0  0  3  0  0  0  0  0  0
  -24.8420  -27.6800   19.5970 C   0  0  0  0  0  3  0  0  0  0  0  0
  -23.5830  -29.8170   20.2320 C   0  0  0  0  0  2  0  0  0  0  0  0
  -24.6390  -31.1060   22.1450 N   0  0  0  0  0  0  0  0  0  0  0  0
  -23.4990  -32.1900   23.7810 O   0  0  0  0  0  0  0  0  0  0  0  0
  -22.7210  -29.4900   22.5750 C   0  0  0  0  0  0  0  0  0  0  0  0
  -21.3950  -29.3100   22.4520 N   0  0  0  0  0  0  0  0  0  0  0  0
  -23.4030  -28.8680   23.3930 O   0  0  0  0  0  0  0  0  0  0  0  0
  -20.9050  -29.8650   21.7640 H   0  0  0  0  0  0  0  0  0  0  0  0
  -18.0190  -28.1250   22.9650 C   0  0  0  0  0  0  0  0  0  0  0  0
  -20.5790  -28.3740   23.2250 C   0  0  0  0  0  3  0  0  0  0  0  0
  -20.6730  -26.9430   22.6490 C   0  0  0  0  0  2  0  0  0  0  0  0
  -19.5660  -26.6250   21.6390 C   0  0  0  0  0  2  0  0  0  0  0  0
  -18.1870  -26.7750   22.2880 C   0  0  0  0  0  2  0  0  0  0  0  0
  -19.1420  -28.8840   23.3890 C   0  0  0  0  0  0  0  0  0  0  0  0
  -18.9300  -30.1480   23.9800 C   0  0  0  0  0  3  0  0  0  0  0  0
  -17.6280  -30.6540   24.1520 C   0  0  0  0  0  3  0  0  0  0  0  0
  -16.5200  -29.8930   23.7440 C   0  0  0  0  0  3  0  0  0  0  0  0
  -16.7160  -28.6300   23.1550 C   0  0  0  0  0  3  0  0  0  0  0  0
  -25.8660  -32.5490   23.8590 C   0  0  0  0  0  3  0  0  0  0  0  0
  -25.5590  -33.9490   24.1820 N   0  0  0  0  0  0  0  0  0  0  0  0
  -25.8950  -34.9980   23.4200 C   0  0  0  0  0  0  0  0  0  0  0  0
  -26.5690  -34.8900   22.3920 O   0  0  0  0  0  0  0  0  0  0  0  0
  -24.9610  -34.1070   24.9800 H   0  0  0  0  0  0  0  0  0  0  0  0
  -24.1770  -36.7960   23.0420 C   0  0  0  0  0  1  0  0  0  0  0  0
  -25.4070  -36.3890   23.8700 C   0  0  0  0  0  3  0  0  0  0  0  0
  -27.5350  -37.2660   24.7260 C   0  0  0  0  0  1  0  0  0  0  0  0
  -26.4430  -37.4400   23.7700 N   0  0  0  0  0  0  0  0  0  0  0  0
  -26.0380  -38.3590   23.9180 H   0  0  0  0  0  0  0  0  0  0  0  0
  -26.3860  -31.7840   25.1380 C   0  0  1  0  0  0  0  0  0  0  0  0
  -25.2940  -31.5500   26.2090 C   0  0  0  0  0  1  0  0  0  0  0  0
  -26.9700  -30.4050   24.7510 C   0  0  0  0  0  1  0  0  0  0  0  0
  -27.5370  -32.5820   25.7950 C   0  0  0  0  0  1  0  0  0  0  0  0
  1 10  1  0
  1  3  2  0
  2  4  2  0
  2  1  1  0
  4  5  1  0
  5  3  1  0
  5 49  1  0
  6  9  1  1
  6  2  1  0
  7  6  1  0
  8  6  1  0
 10 20  1  0
 11 20  1  0
 12 17  1  0
 13 14  1  0
 13 12  1  0
 15 14  1  0
 15 24  1  0
 15 16  1  0
 17 11  1  0
 17 16  1  0
 18 11  2  0
 20 19  1  0
 21 22  2  0
 22 41  1  0
 23 22  1  0
 23 26  1  0
 24 21  1  0
 24 25  1  0
 25 23  2  0
 26 27  1  0
 27 28  2  0
 29 32  1  0
 29 28  1  0
 30 29  2  0
 31 30  1  0
 31 26  2  0
 32 33  1  0
 33 34  1  0
 34 35  2  0
 36 35  1  0
 36 40  1  0
 37 36  2  0
 38 33  2  0
 38 37  1  0
 39 38  1  0
 41 42  1  0
 42 45  1  0
 42 44  1  0
 43 41  2  0
 46 47  1  0
 46 21  1  0
 48 46  1  0
 50 53  1  0
 50 49  2  0
 53 51  1  1
 53 52  1  0
 54 55  1  0
 54 53  1  0
 56 67  2  0
 57 55  1  0
 57 62  1  0
 58 66  1  0
 58 68  1  0
 59 65  1  0
 59 61  1  0
 60 66  1  0
 61 60  1  0
 62 61  2  0
 63 64  1  0
 63 57  2  0
 64 59  2  0
 65 58  1  0
 66 56  1  0
 68 70  2  0
 69 68  1  0
 71 69  1  0
 72 81  2  0
 72 77  1  0
 73 69  1  0
 73 77  1  0
 74 73  1  0
 75 76  1  0
 75 74  1  0
 76 72  1  0
 77 78  2  0
 78 79  1  0
 80 79  2  0
 81 80  1  0
 82 56  1  0
 82 83  1  0
 82 92  1  0
 83 86  1  0
 84 88  1  0
 84 83  1  0
 85 84  2  0
 88 87  1  0
 90 88  1  0
 90 91  1  0
 90 89  1  0
 92 95  1  1
 92 93  1  0
 94 92  1  0
M  ISO  4  11 100  20 100  54 101  55 101
M  END
>  <TORSDO>  (33) 
F 22

>  <SCORE>  (33) 
-13.451

>  <name>  (33) 
34

>  <ligand_id>  (33) 
34

>  <original_smiles>  (33) 
[H]c1c([H])c([H])c2c(c1[H])C([H])([H])C([H])([H])C([H])([H])C2([H])N([H])C(=O)C1([H])N(C(=O)C([H])(N([H])C(=O)C([H])(N([H])C([H])([H])[H])C([H])([H])[H])C(C([H])([H])[H])(C([H])([H])[H])C([H])([H])[H])C([H])([H])c2c([H])c(OC([H])([H])C(C([H])([H])[H])(C([H])([H])[H])C([H])([H])C([H])([H])n3nc(C(F)(F)F)c(C([H])([H])N(C(=O)N4C([H])([H])C([H])([H])C([H])([H])C([H])(n5nc(-c6c([H])c([H])c(Oc7c([H])c([H])c(F)c([H])c7F)c([H])c6[H])c(C(=O)N([H])[H])c5N([H])[H])C4([H])[H])C([H])([H])[H])n3)c([H])c([H])c2C1([H])[H]

>  <smiles>  (33) 
[H]c1c([H])c([H])c2c(c1[H])C([H])([H])C([H])([H])C([H])([H])C2([H])N([H])C(=O)C1([H])N(C(=O)C([H])(N([H])C(=O)C([H])(N([H])C([H])([H])[H])C([H])([H])[H])C(C([H])([H])[H])(C([H])([H])[H])C([H])([H])[H])C([H])([H])c2c([H])c(OC([H])([H])C(C([H])([H])[H])(C([H])([H])[H])C([H])([H])C([H])([H])n3nc(C(F)(F)F)c(C([H])([H])N(C(=O)N4C([H])([H])C([H])([H])C([H])([H])C([H])(n5nc(-c6c([H])c([H])c(Oc7c([H])c([H])c(F)c([H])c7F)c([H])c6[H])c(C(=O)N([H])[H])c5N([H])[H])C4([H])[H])C([H])([H])[H])n3)c([H])c([H])c2C1([H])[H]

$$$$
36:0:0
     RDKit          3D

 91 99  0  0  1  0  0  0  0  0999 V2000
  -29.5150  -20.3590   18.4370 C   0  0  0  0  0  3  0  0  0  0  0  0
  -29.4730  -20.3970   20.6050 C   0  0  0  0  0  3  0  0  0  0  0  0
  -29.1600  -21.2060   19.5270 C   0  0  0  0  0  0  0  0  0  0  0  0
  -29.9780  -19.1720   18.8000 N   0  0  0  0  0  0  0  0  0  0  0  0
  -29.9390  -19.1430   20.1480 N   0  0  0  0  0  0  0  0  0  0  0  0
  -32.0470  -17.9980   20.7630 C   0  0  0  0  0  1  0  0  0  0  0  0
  -30.1630  -18.1250   22.3830 C   0  0  0  0  0  1  0  0  0  0  0  0
  -30.5110  -17.9580   20.8860 C   0  0  1  0  0  0  0  0  0  0  0  0
  -29.9400  -16.5200   20.4680 C   0  0  0  0  0  2  0  0  0  0  0  0
  -31.3940  -14.4140   20.0580 C   0  0  0  0  0  0  0  0  0  0  0  0
  -30.9060  -12.2390   18.9970 C   0  0  0  0  0  2  0  0  0  0  0  0
  -29.9570  -12.4720   17.8030 C   0  0  0  0  0  2  0  0  0  0  0  0
  -28.4870  -12.4620   18.2650 C   0  0  0  0  0  2  0  0  0  0  0  0
  -28.2380  -13.3340   19.5260 C   0  0  0  0  0  3  0  0  0  0  0  0
  -29.3070  -13.0850   20.6120 C   0  0  0  0  0  2  0  0  0  0  0  0
  -30.6160  -13.2930   19.9850 N   0  0  0  0  0  0  0  0  0  0  0  0
  -32.6060  -14.3440   19.8380 O   0  0  0  0  0  0  0  0  0  0  0  0
  -31.1090  -16.0910   18.3290 C   0  0  0  0  0  1  0  0  0  0  0  0
  -30.7720  -15.5730   19.6600 N   0  0  0  0  0  0  0  0  0  0  0  0
  -25.9160  -14.1230   20.2850 C   0  0  0  0  0  0  0  0  0  0  0  0
  -24.7960  -13.4370   20.6710 C   0  0  0  0  0  0  0  0  0  0  0  0
  -25.1510  -12.0530   20.6390 C   0  0  0  0  0  0  0  0  0  0  0  0
  -26.8830  -13.1620   20.0390 N   0  0  0  0  0  0  0  0  0  0  0  0
  -26.4290  -11.9130   20.3150 N   0  0  0  0  0  0  0  0  0  0  0  0
  -24.3300  -10.8520   20.8410 C   0  0  0  0  0  0  0  0  0  0  0  0
  -24.6910   -9.8600   21.7790 C   0  0  0  0  0  3  0  0  0  0  0  0
  -23.8760   -8.7240   21.9690 C   0  0  0  0  0  3  0  0  0  0  0  0
  -22.6850   -8.5710   21.2210 C   0  0  0  0  0  0  0  0  0  0  0  0
  -22.3430   -9.5500   20.2710 C   0  0  0  0  0  3  0  0  0  0  0  0
  -23.1570  -10.6780   20.0790 C   0  0  0  0  0  3  0  0  0  0  0  0
  -21.8460   -7.4880   21.3180 O   0  0  0  0  0  0  0  0  0  0  0  0
  -21.7300   -6.7710   22.4830 C   0  0  0  0  0  0  0  0  0  0  0  0
  -21.3400   -7.3790   23.6970 C   0  0  0  0  0  3  0  0  0  0  0  0
  -21.1660   -6.5920   24.8530 C   0  0  0  0  0  3  0  0  0  0  0  0
  -21.3720   -5.2020   24.7960 C   0  0  0  0  0  0  0  0  0  0  0  0
  -21.7560   -4.5950   23.5880 C   0  0  0  0  0  3  0  0  0  0  0  0
  -21.9320   -5.3770   22.4340 C   0  0  0  0  0  0  0  0  0  0  0  0
  -22.2800   -4.7850   21.2670 F   0  0  0  0  0  0  0  0  0  0  0  0
  -21.1980   -4.4440   25.9060 F   0  0  0  0  0  0  0  0  0  0  0  0
  -23.4440  -14.0230   20.9560 C   0  0  0  0  0  0  0  0  0  0  0  0
  -22.6780  -13.3940   21.8400 N   0  0  0  0  0  0  0  0  0  0  0  0
  -23.0790  -15.0740   20.4310 O   0  0  0  0  0  0  0  0  0  0  0  0
  -22.9880  -12.5430   22.2860 H   0  0  0  0  0  0  0  0  0  0  0  0
  -21.7700  -13.7680   22.0740 H   0  0  0  0  0  0  0  0  0  0  0  0
  -26.1850  -15.4760   20.1000 N   0  0  0  0  0  0  0  0  0  0  0  0
  -25.4730  -16.1880   20.2190 H   0  0  0  0  0  0  0  0  0  0  0  0
  -27.0610  -15.8410   19.7510 H   0  0  0  0  0  0  0  0  0  0  0  0
  -28.5290  -22.6100   19.3220 C   0  0  0  0  0  2  0  0  0  0  0  0
  -28.7510  -23.8100   20.3140 C   0  0  0  0  0  2  0  0  0  0  0  0
  -28.6170  -25.2140   19.5960 C   0  0  0  0  0  2  0  0  0  0  0  0
  -28.4300  -26.4250   20.3950 O   0  0  0  0  0  0  0  0  0  0  0  0
  -24.5830  -31.7530   23.2730 C   0  0  0  0  0  0  0  0  0  0  0  0
  -27.2640  -27.1910   20.3180 C   0  0  0  0  0  0  0  0  0  0  0  0
  -23.4130  -30.3410   21.6160 C   0  0  0  0  0  3  0  0  0  0  0  0
  -24.8920  -28.7740   20.2460 C   0  0  0  0  0  0  0  0  0  0  0  0
  -25.9520  -30.6610   21.4870 C   0  0  0  0  0  2  0  0  0  0  0  0
  -26.0430  -29.2770   20.8610 C   0  0  0  0  0  0  0  0  0  0  0  0
  -27.2290  -28.4930   20.8940 C   0  0  0  0  0  3  0  0  0  0  0  0
  -26.0780  -26.7140   19.7130 C   0  0  0  0  0  3  0  0  0  0  0  0
  -24.9080  -27.4950   19.6690 C   0  0  0  0  0  3  0  0  0  0  0  0
  -23.6580  -29.6490   20.2490 C   0  0  0  0  0  2  0  0  0  0  0  0
  -24.6670  -30.9350   22.1840 N   0  0  0  0  0  0  0  0  0  0  0  0
  -23.4880  -32.0390   23.7790 O   0  0  0  0  0  0  0  0  0  0  0  0
  -22.7270  -29.3350   22.5700 C   0  0  0  0  0  0  0  0  0  0  0  0
  -21.4090  -29.1440   22.3970 N   0  0  0  0  0  0  0  0  0  0  0  0
  -23.3800  -28.7300   23.4240 O   0  0  0  0  0  0  0  0  0  0  0  0
  -20.9420  -29.6840   21.6800 H   0  0  0  0  0  0  0  0  0  0  0  0
  -18.0310  -27.9100   22.7670 C   0  0  0  0  0  0  0  0  0  0  0  0
  -20.5680  -28.2150   23.1540 C   0  0  0  0  0  3  0  0  0  0  0  0
  -20.7200  -26.7700   22.6250 C   0  0  0  0  0  2  0  0  0  0  0  0
  -19.6730  -26.4010   21.5690 C   0  0  0  0  0  2  0  0  0  0  0  0
  -18.2590  -26.5440   22.1410 C   0  0  0  0  0  2  0  0  0  0  0  0
  -19.1160  -28.7010   23.2280 C   0  0  0  0  0  0  0  0  0  0  0  0
  -18.8520  -29.9780   23.7700 C   0  0  0  0  0  3  0  0  0  0  0  0
  -17.5340  -30.4640   23.8580 C   0  0  0  0  0  3  0  0  0  0  0  0
  -16.4630  -29.6700   23.4120 C   0  0  0  0  0  3  0  0  0  0  0  0
  -16.7110  -28.3950   22.8730 C   0  0  0  0  0  3  0  0  0  0  0  0
  -25.8540  -32.3860   23.9180 C   0  0  0  0  0  3  0  0  0  0  0  0
  -25.5450  -33.7910   24.2180 N   0  0  0  0  0  0  0  0  0  0  0  0
  -25.8970  -34.8290   23.4460 C   0  0  0  0  0  0  0  0  0  0  0  0
  -26.5850  -34.7020   22.4290 O   0  0  0  0  0  0  0  0  0  0  0  0
  -24.9350  -33.9620   25.0020 H   0  0  0  0  0  0  0  0  0  0  0  0
  -24.1760  -36.6170   23.0380 C   0  0  0  0  0  1  0  0  0  0  0  0
  -25.4080  -36.2260   23.8700 C   0  0  0  0  0  3  0  0  0  0  0  0
  -27.5370  -37.1240   24.7040 C   0  0  0  0  0  1  0  0  0  0  0  0
  -26.4440  -37.2750   23.7470 N   0  0  0  0  0  0  0  0  0  0  0  0
  -26.0380  -38.1980   23.8750 H   0  0  0  0  0  0  0  0  0  0  0  0
  -26.3300  -31.6320   25.2200 C   0  0  1  0  0  0  0  0  0  0  0  0
  -25.2050  -31.4200   26.2610 C   0  0  0  0  0  1  0  0  0  0  0  0
  -26.9150  -30.2470   24.8650 C   0  0  0  0  0  1  0  0  0  0  0  0
  -27.4660  -32.4300   25.9020 C   0  0  0  0  0  1  0  0  0  0  0  0
  1  4  2  0
  1  3  1  0
  3  2  2  0
  4  5  1  0
  5  2  1  0
  5  8  1  0
  8  6  1  1
  8  7  1  0
  9  8  1  0
 11 16  1  0
 12 13  1  0
 12 11  1  0
 14 13  1  0
 14 23  1  0
 14 15  1  0
 16 10  1  0
 16 15  1  0
 17 10  2  0
 18 19  1  0
 19 10  1  0
 19  9  1  0
 20 21  2  0
 21 40  1  0
 22 21  1  0
 22 25  1  0
 23 20  1  0
 23 24  1  0
 24 22  2  0
 25 26  1  0
 26 27  2  0
 28 31  1  0
 28 27  1  0
 29 28  2  0
 30 29  1  0
 30 25  2  0
 31 32  1  0
 32 33  1  0
 33 34  2  0
 35 34  1  0
 35 39  1  0
 36 35  2  0
 37 32  2  0
 37 36  1  0
 38 37  1  0
 40 41  1  0
 41 44  1  0
 41 43  1  0
 42 40  2  0
 45 46  1  0
 45 20  1  0
 47 45  1  0
 48  3  1  0
 48 49  1  0
 50 49  1  0
 50 51  1  0
 52 63  2  0
 53 51  1  0
 53 58  1  0
 54 62  1  0
 54 64  1  0
 55 61  1  0
 55 57  1  0
 56 62  1  0
 57 58  2  0
 57 56  1  0
 59 53  2  0
 60 59  1  0
 60 55  2  0
 61 54  1  0
 62 52  1  0
 64 66  2  0
 65 64  1  0
 67 65  1  0
 68 77  2  0
 68 73  1  0
 69 65  1  0
 69 73  1  0
 70 69  1  0
 71 72  1  0
 71 70  1  0
 72 68  1  0
 73 74  2  0
 74 75  1  0
 76 75  2  0
 77 76  1  0
 78 52  1  0
 78 79  1  0
 78 88  1  0
 79 82  1  0
 80 84  1  0
 80 79  1  0
 81 80  2  0
 84 83  1  0
 86 84  1  0
 86 87  1  0
 86 85  1  0
 88 91  1  1
 88 89  1  0
 90 88  1  0
M  ISO  4  10 100  19 100  50 101  51 101
M  END
>  <TORSDO>  (34) 
F 21

>  <SCORE>  (34) 
-12.602

>  <name>  (34) 
36

>  <ligand_id>  (34) 
36

>  <original_smiles>  (34) 
[H]c1nn(C(C([H])([H])[H])(C([H])([H])[H])C([H])([H])N(C(=O)N2C([H])([H])C([H])([H])C([H])([H])C([H])(n3nc(-c4c([H])c([H])c(Oc5c([H])c([H])c(F)c([H])c5F)c([H])c4[H])c(C(=O)N([H])[H])c3N([H])[H])C2([H])[H])C([H])([H])[H])c([H])c1C([H])([H])C([H])([H])C([H])([H])Oc1c([H])c([H])c2c(c1[H])C([H])([H])N(C(=O)C([H])(N([H])C(=O)C([H])(N([H])C([H])([H])[H])C([H])([H])[H])C(C([H])([H])[H])(C([H])([H])[H])C([H])([H])[H])C([H])(C(=O)N([H])C1([H])c3c([H])c([H])c([H])c([H])c3C([H])([H])C([H])([H])C1([H])[H])C2([H])[H]

>  <smiles>  (34) 
[H]c1nn(C(C([H])([H])[H])(C([H])([H])[H])C([H])([H])N(C(=O)N2C([H])([H])C([H])([H])C([H])([H])C([H])(n3nc(-c4c([H])c([H])c(Oc5c([H])c([H])c(F)c([H])c5F)c([H])c4[H])c(C(=O)N([H])[H])c3N([H])[H])C2([H])[H])C([H])([H])[H])c([H])c1C([H])([H])C([H])([H])C([H])([H])Oc1c([H])c([H])c2c(c1[H])C([H])([H])N(C(=O)C([H])(N([H])C(=O)C([H])(N([H])C([H])([H])[H])C([H])([H])[H])C(C([H])([H])[H])(C([H])([H])[H])C([H])([H])[H])C([H])(C(=O)N([H])C1([H])c3c([H])c([H])c([H])c([H])c3C([H])([H])C([H])([H])C1([H])[H])C2([H])[H]

$$$$
37:0:0
     RDKit          3D

 93101  0  0  1  0  0  0  0  0999 V2000
  -26.9320  -18.9970   20.2750 C   0  0  0  0  0  0  0  0  0  0  0  0
  -28.8960  -19.6320   20.5100 C   0  0  0  0  0  3  0  0  0  0  0  0
  -25.4470  -18.9950   20.1650 C   0  0  0  0  0  1  0  0  0  0  0  0
  -27.6530  -20.1110   20.5790 N   0  0  0  0  0  0  0  0  0  0  0  0
  -27.6400  -17.8940   20.0600 N   0  0  0  0  0  2  0  0  0  0  0  0
  -28.9180  -18.3030   20.2720 N   0  0  0  0  0  0  0  0  0  0  0  0
  -30.4880  -17.3260   18.6630 C   0  0  0  0  0  1  0  0  0  0  0  0
  -30.0230  -17.3490   20.1300 C   0  0  0  0  0  3  0  0  0  0  0  0
  -29.6420  -15.9420   20.6880 C   0  0  0  0  0  2  0  0  0  0  0  0
  -31.0850  -14.0890   19.8860 C   0  0  0  0  0  0  0  0  0  0  0  0
  -30.6730  -11.8640   18.8970 C   0  0  0  0  0  2  0  0  0  0  0  0
  -29.6980  -11.9480   17.7080 C   0  0  0  0  0  2  0  0  0  0  0  0
  -28.2410  -11.8480   18.1960 C   0  0  0  0  0  2  0  0  0  0  0  0
  -27.9420  -12.8200   19.3660 C   0  0  0  0  0  3  0  0  0  0  0  0
  -29.0270  -12.7180   20.4640 C   0  0  0  0  0  2  0  0  0  0  0  0
  -30.3420  -12.9470   19.8390 N   0  0  0  0  0  0  0  0  0  0  0  0
  -32.1190  -14.2290   19.2270 O   0  0  0  0  0  0  0  0  0  0  0  0
  -31.8120  -15.4620   21.7510 C   0  0  0  0  0  1  0  0  0  0  0  0
  -30.7650  -14.9970   20.8380 N   0  0  0  0  0  0  0  0  0  0  0  0
  -25.5850  -13.5260   20.1230 C   0  0  0  0  0  0  0  0  0  0  0  0
  -24.5140  -12.8010   20.5730 C   0  0  0  0  0  0  0  0  0  0  0  0
  -24.9440  -11.4400   20.6040 C   0  0  0  0  0  0  0  0  0  0  0  0
  -26.6030  -12.6090   19.9090 N   0  0  0  0  0  0  0  0  0  0  0  0
  -26.2210  -11.3520   20.2530 N   0  0  0  0  0  0  0  0  0  0  0  0
  -24.1980  -10.2080   20.8910 C   0  0  0  0  0  0  0  0  0  0  0  0
  -24.5700   -9.3500   21.9500 C   0  0  0  0  0  3  0  0  0  0  0  0
  -23.8270   -8.1790   22.2160 C   0  0  0  0  0  3  0  0  0  0  0  0
  -22.6970   -7.8600   21.4270 C   0  0  0  0  0  0  0  0  0  0  0  0
  -22.3450   -8.7060   20.3600 C   0  0  0  0  0  3  0  0  0  0  0  0
  -23.0900   -9.8670   20.0920 C   0  0  0  0  0  3  0  0  0  0  0  0
  -21.9310   -6.7330   21.5960 O   0  0  0  0  0  0  0  0  0  0  0  0
  -21.7220   -6.1840   22.8370 C   0  0  0  0  0  0  0  0  0  0  0  0
  -21.1230   -6.9170   23.8840 C   0  0  0  0  0  3  0  0  0  0  0  0
  -20.8640   -6.2940   25.1220 C   0  0  0  0  0  3  0  0  0  0  0  0
  -21.1930   -4.9380   25.3100 C   0  0  0  0  0  0  0  0  0  0  0  0
  -21.7840   -4.2060   24.2660 C   0  0  0  0  0  3  0  0  0  0  0  0
  -22.0440   -4.8260   23.0320 C   0  0  0  0  0  0  0  0  0  0  0  0
  -22.5940   -4.1100   22.0230 F   0  0  0  0  0  0  0  0  0  0  0  0
  -20.9390   -4.3370   26.4950 F   0  0  0  0  0  0  0  0  0  0  0  0
  -23.1390  -13.3280   20.8680 C   0  0  0  0  0  0  0  0  0  0  0  0
  -22.4360  -12.7120   21.8120 N   0  0  0  0  0  0  0  0  0  0  0  0
  -22.6980  -14.3220   20.2950 O   0  0  0  0  0  0  0  0  0  0  0  0
  -22.8040  -11.9080   22.2980 H   0  0  0  0  0  0  0  0  0  0  0  0
  -21.5130  -13.0490   22.0500 H   0  0  0  0  0  0  0  0  0  0  0  0
  -25.7700  -14.8810   19.8640 N   0  0  0  0  0  0  0  0  0  0  0  0
  -25.0260  -15.5540   19.9920 H   0  0  0  0  0  0  0  0  0  0  0  0
  -26.6430  -15.3130   19.5810 H   0  0  0  0  0  0  0  0  0  0  0  0
  -30.1230  -20.4780   20.7370 C   0  0  0  0  0  2  0  0  0  0  0  0
  -30.1400  -21.8150   19.9600 C   0  0  0  0  0  2  0  0  0  0  0  0
  -29.3600  -22.9640   20.6340 C   0  0  0  0  0  2  0  0  0  0  0  0
  -29.4940  -24.3120   19.9010 C   0  0  0  0  0  2  0  0  0  0  0  0
  -28.7270  -25.4370   20.6120 C   0  0  0  0  0  2  0  0  0  0  0  0
  -28.8170  -26.6600   19.8800 O   0  0  0  0  0  0  0  0  0  0  0  0
  -24.9630  -31.4150   23.4880 C   0  0  0  0  0  0  0  0  0  0  0  0
  -27.6720  -27.4110   19.9340 C   0  0  0  0  0  0  0  0  0  0  0  0
  -23.8060  -30.2820   21.6170 C   0  0  0  0  0  3  0  0  0  0  0  0
  -25.2970  -28.9250   20.0530 C   0  0  0  0  0  0  0  0  0  0  0  0
  -26.3400  -30.6180   21.5710 C   0  0  0  0  0  2  0  0  0  0  0  0
  -26.4330  -29.3480   20.7550 C   0  0  0  0  0  0  0  0  0  0  0  0
  -27.6280  -28.5980   20.6930 C   0  0  0  0  0  3  0  0  0  0  0  0
  -26.5240  -26.9940   19.2280 C   0  0  0  0  0  3  0  0  0  0  0  0
  -25.3350  -27.7460   19.2850 C   0  0  0  0  0  3  0  0  0  0  0  0
  -24.0640  -29.7930   20.1650 C   0  0  0  0  0  2  0  0  0  0  0  0
  -25.0510  -30.7770   22.2870 N   0  0  0  0  0  0  0  0  0  0  0  0
  -23.8650  -31.6330   24.0170 O   0  0  0  0  0  0  0  0  0  0  0  0
  -23.0970  -29.1530   22.3990 C   0  0  0  0  0  0  0  0  0  0  0  0
  -21.7780  -29.0180   22.1890 N   0  0  0  0  0  0  0  0  0  0  0  0
  -23.7340  -28.4070   23.1490 O   0  0  0  0  0  0  0  0  0  0  0  0
  -21.3280  -29.6760   21.5690 H   0  0  0  0  0  0  0  0  0  0  0  0
  -18.3710  -27.8270   22.3470 C   0  0  0  0  0  0  0  0  0  0  0  0
  -20.9120  -28.0010   22.7850 C   0  0  0  0  0  3  0  0  0  0  0  0
  -21.0310  -26.6550   22.0310 C   0  0  0  0  0  2  0  0  0  0  0  0
  -19.9820  -26.4880   20.9270 C   0  0  0  0  0  2  0  0  0  0  0  0
  -18.5690  -26.5740   21.5110 C   0  0  0  0  0  2  0  0  0  0  0  0
  -19.4730  -28.5050   22.9330 C   0  0  0  0  0  0  0  0  0  0  0  0
  -19.2360  -29.6840   23.6720 C   0  0  0  0  0  3  0  0  0  0  0  0
  -17.9300  -30.1850   23.8320 C   0  0  0  0  0  3  0  0  0  0  0  0
  -16.8420  -29.5010   23.2630 C   0  0  0  0  0  3  0  0  0  0  0  0
  -17.0630  -28.3230   22.5270 C   0  0  0  0  0  3  0  0  0  0  0  0
  -26.2330  -31.9230   24.2420 C   0  0  0  0  0  3  0  0  0  0  0  0
  -25.9450  -33.2780   24.7290 N   0  0  0  0  0  0  0  0  0  0  0  0
  -26.3480  -34.4050   24.1260 C   0  0  0  0  0  0  0  0  0  0  0  0
  -27.0720  -34.4070   23.1260 O   0  0  0  0  0  0  0  0  0  0  0  0
  -25.3130  -33.3530   25.5130 H   0  0  0  0  0  0  0  0  0  0  0  0
  -24.6880  -36.2800   23.9090 C   0  0  0  0  0  1  0  0  0  0  0  0
  -25.8730  -35.7410   24.7260 C   0  0  0  0  0  3  0  0  0  0  0  0
  -27.9820  -36.4500   25.7660 C   0  0  0  0  0  1  0  0  0  0  0  0
  -26.9370  -36.7660   24.7970 N   0  0  0  0  0  0  0  0  0  0  0  0
  -26.5460  -37.6740   25.0370 H   0  0  0  0  0  0  0  0  0  0  0  0
  -26.6710  -30.9820   25.4300 C   0  0  1  0  0  0  0  0  0  0  0  0
  -25.5260  -30.6520   26.4170 C   0  0  0  0  0  1  0  0  0  0  0  0
  -27.2260  -29.6440   24.8860 C   0  0  0  0  0  1  0  0  0  0  0  0
  -27.8160  -31.6440   26.2300 C   0  0  0  0  0  1  0  0  0  0  0  0
  1  4  2  0
  2  4  1  0
  2 48  1  0
  3  1  1  0
  5  6  1  0
  5  1  1  0
  6  2  1  0
  8  7  1  0
  8  6  1  0
  8  9  1  0
  9 19  1  0
 10 19  1  0
 11 16  1  0
 12 13  1  0
 12 11  1  0
 14 13  1  0
 14 23  1  0
 14 15  1  0
 16 10  1  0
 16 15  1  0
 17 10  2  0
 19 18  1  0
 20 21  2  0
 21 22  1  0
 21 40  1  0
 22 25  1  0
 23 20  1  0
 23 24  1  0
 24 22  2  0
 25 26  1  0
 26 27  2  0
 28 31  1  0
 28 27  1  0
 29 28  2  0
 30 29  1  0
 30 25  2  0
 31 32  1  0
 32 37  2  0
 32 33  1  0
 33 34  2  0
 34 35  1  0
 35 39  1  0
 36 35  2  0
 37 36  1  0
 38 37  1  0
 40 41  1  0
 41 44  1  0
 41 43  1  0
 42 40  2  0
 45 46  1  0
 45 20  1  0
 47 45  1  0
 49 50  1  0
 49 48  1  0
 51 52  1  0
 51 50  1  0
 53 55  1  0
 53 52  1  0
 54 65  2  0
 55 60  1  0
 56 64  1  0
 56 66  1  0
 57 63  1  0
 57 59  1  0
 58 64  1  0
 59 58  1  0
 60 59  2  0
 61 62  1  0
 61 55  2  0
 62 57  2  0
 63 56  1  0
 64 54  1  0
 66 68  2  0
 67 66  1  0
 69 67  1  0
 70 79  2  0
 70 75  1  0
 71 67  1  0
 71 75  1  0
 72 71  1  0
 73 74  1  0
 73 72  1  0
 74 70  1  0
 75 76  2  0
 76 77  1  0
 78 77  2  0
 79 78  1  0
 80 54  1  0
 80 81  1  0
 80 90  1  0
 81 84  1  0
 82 86  1  0
 82 81  1  0
 83 82  2  0
 86 85  1  0
 86 88  1  0
 88 89  1  0
 88 87  1  0
 90 93  1  1
 90 91  1  0
 92 90  1  0
M  ISO  4  10 100  19 100  52 101  53 101
M  END
>  <TORSDO>  (35) 
F 23

>  <SCORE>  (35) 
-8.116

>  <name>  (35) 
37

>  <ligand_id>  (35) 
37

>  <original_smiles>  (35) 
[H]c1c([H])c([H])c2c(c1[H])C([H])([H])C([H])([H])C([H])([H])C2([H])N([H])C(=O)C1([H])N(C(=O)C([H])(N([H])C(=O)C([H])(N([H])C([H])([H])[H])C([H])([H])[H])C(C([H])([H])[H])(C([H])([H])[H])C([H])([H])[H])C([H])([H])c2c([H])c(OC([H])([H])C([H])([H])C([H])([H])C([H])([H])C([H])([H])c3nc(C([H])([H])[H])nn3C([H])(C([H])([H])[H])C([H])([H])N(C(=O)N3C([H])([H])C([H])([H])C([H])([H])C([H])(n4nc(-c5c([H])c([H])c(Oc6c([H])c([H])c(F)c([H])c6F)c([H])c5[H])c(C(=O)N([H])[H])c4N([H])[H])C3([H])[H])C([H])([H])[H])c([H])c([H])c2C1([H])[H]

>  <smiles>  (35) 
[H]c1c([H])c([H])c2c(c1[H])C([H])([H])C([H])([H])C([H])([H])C2([H])N([H])C(=O)C1([H])N(C(=O)C([H])(N([H])C(=O)C([H])(N([H])C([H])([H])[H])C([H])([H])[H])C(C([H])([H])[H])(C([H])([H])[H])C([H])([H])[H])C([H])([H])c2c([H])c(OC([H])([H])C([H])([H])C([H])([H])C([H])([H])C([H])([H])c3nc(C([H])([H])[H])nn3C([H])(C([H])([H])[H])C([H])([H])N(C(=O)N3C([H])([H])C([H])([H])C([H])([H])C([H])(n4nc(-c5c([H])c([H])c(Oc6c([H])c([H])c(F)c([H])c6F)c([H])c5[H])c(C(=O)N([H])[H])c4N([H])[H])C3([H])[H])C([H])([H])[H])c([H])c([H])c2C1([H])[H]

$$$$
39:0:0
     RDKit          3D

 89 97  0  0  1  0  0  0  0  0999 V2000
  -28.3820  -21.8440   18.3210 C   0  0  0  0  0  1  0  0  0  0  0  0
  -27.1420  -21.6810   20.4630 C   0  0  0  0  0  1  0  0  0  0  0  0
  -28.5520  -21.8190   19.8530 C   0  0  1  0  0  0  0  0  0  0  0  0
  -28.8260  -19.0760   20.4080 C   0  0  0  0  0  3  0  0  0  0  0  0
  -29.8750  -18.0360   20.3960 C   0  0  0  0  0  0  0  0  0  0  0  0
  -29.3160  -20.3820   20.1630 C   0  0  0  0  0  0  0  0  0  0  0  0
  -31.7410  -21.0100   19.7170 C   0  0  0  0  0  1  0  0  0  0  0  0
  -30.9990  -18.7300   20.1790 N   0  0  0  0  0  0  0  0  0  0  0  0
  -30.6750  -20.0780   20.0220 N   0  0  0  0  0  0  0  0  0  0  0  0
  -29.7700  -16.4170   20.7460 C   0  0  0  0  0  2  0  0  0  0  0  0
  -30.6200  -15.0760   20.2390 C   0  0  0  0  0  0  0  0  0  0  0  0
  -30.5030  -12.7470   19.2130 C   0  0  0  0  0  2  0  0  0  0  0  0
  -29.5420  -12.7620   17.9990 C   0  0  0  0  0  2  0  0  0  0  0  0
  -28.0820  -12.5470   18.4450 C   0  0  0  0  0  2  0  0  0  0  0  0
  -27.7080  -13.4360   19.6580 C   0  0  0  0  0  3  0  0  0  0  0  0
  -28.7820  -13.3790   20.7650 C   0  0  0  0  0  2  0  0  0  0  0  0
  -30.0570  -13.8000   20.1680 N   0  0  0  0  0  0  0  0  0  0  0  0
  -31.7910  -15.1790   19.8490 O   0  0  0  0  0  0  0  0  0  0  0  0
  -25.3330  -14.0210   20.4200 C   0  0  0  0  0  0  0  0  0  0  0  0
  -24.2720  -13.2470   20.8030 C   0  0  0  0  0  0  0  0  0  0  0  0
  -24.7340  -11.8960   20.7680 C   0  0  0  0  0  0  0  0  0  0  0  0
  -26.3730  -13.1410   20.1690 N   0  0  0  0  0  0  0  0  0  0  0  0
  -26.0210  -11.8580   20.4440 N   0  0  0  0  0  0  0  0  0  0  0  0
  -24.0080  -10.6350   20.9670 C   0  0  0  0  0  0  0  0  0  0  0  0
  -24.4380   -9.6760   21.9110 C   0  0  0  0  0  3  0  0  0  0  0  0
  -23.7120   -8.4810   22.0980 C   0  0  0  0  0  3  0  0  0  0  0  0
  -22.5420   -8.2340   21.3420 C   0  0  0  0  0  0  0  0  0  0  0  0
  -22.1310   -9.1820   20.3880 C   0  0  0  0  0  3  0  0  0  0  0  0
  -22.8570  -10.3690   20.1990 C   0  0  0  0  0  3  0  0  0  0  0  0
  -21.7880   -7.0890   21.4370 O   0  0  0  0  0  0  0  0  0  0  0  0
  -21.7220   -6.3670   22.6010 C   0  0  0  0  0  0  0  0  0  0  0  0
  -21.2430   -6.9320   23.8030 C   0  0  0  0  0  3  0  0  0  0  0  0
  -21.1260   -6.1330   24.9580 C   0  0  0  0  0  3  0  0  0  0  0  0
  -21.4770   -4.7710   24.9120 C   0  0  0  0  0  0  0  0  0  0  0  0
  -21.9470   -4.2050   23.7140 C   0  0  0  0  0  3  0  0  0  0  0  0
  -22.0660   -5.0000   22.5610 C   0  0  0  0  0  0  0  0  0  0  0  0
  -22.5000   -4.4450   21.4040 F   0  0  0  0  0  0  0  0  0  0  0  0
  -21.3580   -4.0020   26.0200 F   0  0  0  0  0  0  0  0  0  0  0  0
  -22.8770  -13.7270   21.0870 C   0  0  0  0  0  0  0  0  0  0  0  0
  -22.1580  -13.0360   21.9640 N   0  0  0  0  0  0  0  0  0  0  0  0
  -22.4340  -14.7490   20.5650 O   0  0  0  0  0  0  0  0  0  0  0  0
  -22.5280  -12.2090   22.4090 H   0  0  0  0  0  0  0  0  0  0  0  0
  -21.2230  -13.3380   22.1950 H   0  0  0  0  0  0  0  0  0  0  0  0
  -25.4950  -15.3920   20.2390 N   0  0  0  0  0  0  0  0  0  0  0  0
  -24.7300  -16.0450   20.3570 H   0  0  0  0  0  0  0  0  0  0  0  0
  -26.3370  -15.8280   19.8830 H   0  0  0  0  0  0  0  0  0  0  0  0
  -29.0310  -23.3950   20.2550 C   0  0  0  0  0  3  0  0  0  0  0  0
  -28.0790  -24.7710   19.9580 C   0  0  0  0  0  3  0  0  0  0  0  0
  -28.3410  -26.2840   20.2110 O   0  0  0  0  0  0  0  0  0  0  0  0
  -24.6610  -31.9050   23.2390 C   0  0  0  0  0  0  0  0  0  0  0  0
  -27.2750  -27.2560   20.1460 C   0  0  0  0  0  0  0  0  0  0  0  0
  -23.4690  -30.5220   21.5830 C   0  0  0  0  0  3  0  0  0  0  0  0
  -24.9280  -28.9780   20.1370 C   0  0  0  0  0  0  0  0  0  0  0  0
  -26.0210  -30.8100   21.4190 C   0  0  0  0  0  2  0  0  0  0  0  0
  -26.1040  -29.4270   20.7490 C   0  0  0  0  0  0  0  0  0  0  0  0
  -27.2770  -28.5830   20.7390 C   0  0  0  0  0  3  0  0  0  0  0  0
  -26.0700  -26.9100   19.4920 C   0  0  0  0  0  3  0  0  0  0  0  0
  -24.9230  -27.7320   19.4920 C   0  0  0  0  0  3  0  0  0  0  0  0
  -23.6930  -29.8630   20.1950 C   0  0  0  0  0  2  0  0  0  0  0  0
  -24.7370  -31.1000   22.1360 N   0  0  0  0  0  0  0  0  0  0  0  0
  -23.5740  -32.1750   23.7700 O   0  0  0  0  0  0  0  0  0  0  0  0
  -22.7970  -29.4980   22.5320 C   0  0  0  0  0  0  0  0  0  0  0  0
  -21.4700  -29.3230   22.4050 N   0  0  0  0  0  0  0  0  0  0  0  0
  -23.4720  -28.8640   23.3470 O   0  0  0  0  0  0  0  0  0  0  0  0
  -20.9810  -29.8860   21.7230 H   0  0  0  0  0  0  0  0  0  0  0  0
  -18.0930  -28.1070   22.9010 C   0  0  0  0  0  0  0  0  0  0  0  0
  -20.6520  -28.3730   23.1640 C   0  0  0  0  0  3  0  0  0  0  0  0
  -20.7570  -26.9500   22.5710 C   0  0  0  0  0  2  0  0  0  0  0  0
  -19.6520  -26.6380   21.5540 C   0  0  0  0  0  2  0  0  0  0  0  0
  -18.2720  -26.7690   22.2040 C   0  0  0  0  0  2  0  0  0  0  0  0
  -19.2110  -28.8670   23.3380 C   0  0  0  0  0  0  0  0  0  0  0  0
  -18.9880  -30.1190   23.9520 C   0  0  0  0  0  3  0  0  0  0  0  0
  -17.6820  -30.6120   24.1310 C   0  0  0  0  0  3  0  0  0  0  0  0
  -16.5790  -29.8490   23.7100 C   0  0  0  0  0  3  0  0  0  0  0  0
  -16.7850  -28.5980   23.1010 C   0  0  0  0  0  3  0  0  0  0  0  0
  -25.9360  -32.5400   23.8740 C   0  0  0  0  0  3  0  0  0  0  0  0
  -26.4410  -31.7690   25.1550 C   0  0  1  0  0  0  0  0  0  0  0  0
  -25.3380  -31.5290   26.2120 C   0  0  0  0  0  1  0  0  0  0  0  0
  -27.0290  -30.3920   24.7710 C   0  0  0  0  0  1  0  0  0  0  0  0
  -27.5840  -32.5640   25.8280 C   0  0  0  0  0  1  0  0  0  0  0  0
  -25.6200  -33.9380   24.2080 N   0  0  0  0  0  0  0  0  0  0  0  0
  -25.9310  -34.9950   23.4460 C   0  0  0  0  0  0  0  0  0  0  0  0
  -26.5790  -34.8980   22.4010 O   0  0  0  0  0  0  0  0  0  0  0  0
  -25.0410  -34.0880   25.0210 H   0  0  0  0  0  0  0  0  0  0  0  0
  -24.1780  -36.7770   23.1440 C   0  0  0  0  0  1  0  0  0  0  0  0
  -25.4470  -36.3820   23.9170 C   0  0  0  0  0  3  0  0  0  0  0  0
  -27.5920  -37.2910   24.6920 C   0  0  0  0  0  1  0  0  0  0  0  0
  -26.4670  -37.4430   23.7740 N   0  0  0  0  0  0  0  0  0  0  0  0
  -26.0560  -38.3600   23.9250 H   0  0  0  0  0  0  0  0  0  0  0  0
  3  1  1  6
  3  6  1  0
  3 47  1  0
  3  2  1  0
  5  4  1  0
  5 10  1  0
  6  4  2  0
  7  9  1  0
  8  5  2  0
  9  6  1  0
  9  8  1  0
 11 10  1  0
 12 17  1  0
 13 14  1  0
 13 12  1  0
 15 14  1  0
 15 22  1  0
 15 16  1  0
 17 11  1  0
 17 16  1  0
 18 11  2  0
 19 20  2  0
 20 39  1  0
 21 20  1  0
 21 24  1  0
 22 19  1  0
 22 23  1  0
 23 21  2  0
 24 25  1  0
 25 26  2  0
 27 30  1  0
 27 26  1  0
 28 27  2  0
 29 28  1  0
 29 24  2  0
 30 31  1  0
 31 32  1  0
 32 33  2  0
 34 33  1  0
 34 38  1  0
 35 34  2  0
 36 31  2  0
 36 35  1  0
 37 36  1  0
 39 40  1  0
 40 43  1  0
 40 42  1  0
 41 39  2  0
 44 45  1  0
 44 19  1  0
 46 44  1  0
 48 49  1  0
 48 47  2  0
 50 61  2  0
 51 49  1  0
 51 56  1  0
 52 60  1  0
 52 62  1  0
 53 59  1  0
 53 55  1  0
 54 60  1  0
 55 54  1  0
 56 55  2  0
 57 51  2  0
 58 57  1  0
 58 53  2  0
 59 52  1  0
 60 50  1  0
 62 64  2  0
 63 62  1  0
 65 63  1  0
 66 75  2  0
 66 71  1  0
 67 63  1  0
 67 71  1  0
 68 67  1  0
 69 70  1  0
 69 68  1  0
 70 66  1  0
 71 72  2  0
 72 73  1  0
 74 73  2  0
 75 74  1  0
 76 50  1  0
 76 81  1  0
 76 77  1  0
 77 80  1  1
 77 78  1  0
 79 77  1  0
 81 84  1  0
 82 86  1  0
 82 81  1  0
 83 82  2  0
 86 85  1  0
 88 86  1  0
 88 89  1  0
 88 87  1  0
M  ISO  4  10 100  11 100  48 101  49 101
M  END
>  <TORSDO>  (36) 
F 20

>  <SCORE>  (36) 
-14.663

>  <name>  (36) 
39

>  <ligand_id>  (36) 
39

>  <original_smiles>  (36) 
[H]c1c([H])c([H])c2c(c1[H])C([H])([H])C([H])([H])C([H])([H])C2([H])N([H])C(=O)C1([H])N(C(=O)C([H])(N([H])C(=O)C([H])(N([H])C([H])([H])[H])C([H])([H])[H])C(C([H])([H])[H])(C([H])([H])[H])C([H])([H])[H])C([H])([H])c2c([H])c(OC([H])([H])C([H])([H])C(c3c([H])c(C([H])([H])C(=O)N4C([H])([H])C([H])([H])C([H])([H])C([H])(n5nc(-c6c([H])c([H])c(Oc7c([H])c([H])c(F)c([H])c7F)c([H])c6[H])c(C(=O)N([H])[H])c5N([H])[H])C4([H])[H])nn3C([H])([H])[H])(C([H])([H])[H])C([H])([H])[H])c([H])c([H])c2C1([H])[H]

>  <smiles>  (36) 
[H]c1c([H])c([H])c2c(c1[H])C([H])([H])C([H])([H])C([H])([H])C2([H])N([H])C(=O)C1([H])N(C(=O)C([H])(N([H])C(=O)C([H])(N([H])C([H])([H])[H])C([H])([H])[H])C(C([H])([H])[H])(C([H])([H])[H])C([H])([H])[H])C([H])([H])c2c([H])c(OC([H])([H])C([H])([H])C(c3c([H])c(C([H])([H])C(=O)N4C([H])([H])C([H])([H])C([H])([H])C([H])(n5nc(-c6c([H])c([H])c(Oc7c([H])c([H])c(F)c([H])c7F)c([H])c6[H])c(C(=O)N([H])[H])c5N([H])[H])C4([H])[H])nn3C([H])([H])[H])(C([H])([H])[H])C([H])([H])[H])c([H])c([H])c2C1([H])[H]

$$$$
40:0:0
     RDKit          3D

 94102  0  0  1  0  0  0  0  0999 V2000
  -29.7380  -20.0970   21.4540 C   0  0  0  0  0  3  0  0  0  0  0  0
  -29.5770  -20.9320   20.3120 C   0  0  0  0  0  0  0  0  0  0  0  0
  -29.9470  -20.2280   19.1410 C   0  0  0  0  0  0  0  0  0  0  0  0
  -30.2350  -18.1030   20.2340 C   0  0  0  0  0  0  0  0  0  0  0  0
  -29.9380  -20.9070   17.7850 C   0  0  0  0  0  1  0  0  0  0  0  0
  -30.0730  -18.7590   21.4090 N   0  0  0  0  0  0  0  0  0  0  0  0
  -30.2110  -18.8790   19.1230 N   0  0  0  0  0  0  0  0  0  0  0  0
  -28.5790  -16.4790   21.1020 C   0  0  0  0  0  1  0  0  0  0  0  0
  -29.7590  -16.5240   20.0860 C   0  0  2  0  0  0  0  0  0  0  0  0
  -30.7030  -15.1390   20.2390 C   0  0  0  0  0  0  0  0  0  0  0  0
  -30.6550  -12.7820   19.3080 C   0  0  0  0  0  2  0  0  0  0  0  0
  -29.6740  -12.6860   18.1100 C   0  0  0  0  0  2  0  0  0  0  0  0
  -28.2060  -12.5010   18.5660 C   0  0  0  0  0  2  0  0  0  0  0  0
  -27.8230  -13.3770   19.7880 C   0  0  0  0  0  3  0  0  0  0  0  0
  -28.9370  -13.3320   20.8630 C   0  0  0  0  0  2  0  0  0  0  0  0
  -30.1770  -13.8380   20.2430 N   0  0  0  0  0  0  0  0  0  0  0  0
  -31.9200  -15.2240   20.0310 O   0  0  0  0  0  0  0  0  0  0  0  0
  -25.4450  -13.9580   20.5570 C   0  0  0  0  0  0  0  0  0  0  0  0
  -24.3980  -13.1740   20.9410 C   0  0  0  0  0  0  0  0  0  0  0  0
  -24.8730  -11.8290   20.8830 C   0  0  0  0  0  0  0  0  0  0  0  0
  -26.5000  -13.0870   20.3140 N   0  0  0  0  0  0  0  0  0  0  0  0
  -26.1590  -11.8020   20.5630 N   0  0  0  0  0  0  0  0  0  0  0  0
  -24.1620  -10.5620   21.0520 C   0  0  0  0  0  0  0  0  0  0  0  0
  -24.5930   -9.5970   21.9870 C   0  0  0  0  0  3  0  0  0  0  0  0
  -23.8840   -8.3880   22.1430 C   0  0  0  0  0  3  0  0  0  0  0  0
  -22.7300   -8.1380   21.3610 C   0  0  0  0  0  0  0  0  0  0  0  0
  -22.3200   -9.0930   20.4150 C   0  0  0  0  0  3  0  0  0  0  0  0
  -23.0300  -10.2940   20.2570 C   0  0  0  0  0  3  0  0  0  0  0  0
  -21.9900   -6.9840   21.4290 O   0  0  0  0  0  0  0  0  0  0  0  0
  -21.8690   -6.2750   22.5960 C   0  0  0  0  0  0  0  0  0  0  0  0
  -21.2980   -6.8430   23.7570 C   0  0  0  0  0  3  0  0  0  0  0  0
  -21.1310   -6.0570   24.9140 C   0  0  0  0  0  3  0  0  0  0  0  0
  -21.5230   -4.7050   24.9110 C   0  0  0  0  0  0  0  0  0  0  0  0
  -22.0860   -4.1370   23.7550 C   0  0  0  0  0  3  0  0  0  0  0  0
  -22.2560   -4.9210   22.6010 C   0  0  0  0  0  0  0  0  0  0  0  0
  -22.7790   -4.3630   21.4810 F   0  0  0  0  0  0  0  0  0  0  0  0
  -21.3550   -3.9470   26.0210 F   0  0  0  0  0  0  0  0  0  0  0  0
  -23.0070  -13.6390   21.2570 C   0  0  0  0  0  0  0  0  0  0  0  0
  -22.3070  -12.9230   22.1290 N   0  0  0  0  0  0  0  0  0  0  0  0
  -22.5550  -14.6770   20.7760 O   0  0  0  0  0  0  0  0  0  0  0  0
  -22.6900  -12.0850   22.5410 H   0  0  0  0  0  0  0  0  0  0  0  0
  -21.3750  -13.2160   22.3860 H   0  0  0  0  0  0  0  0  0  0  0  0
  -25.5720  -15.3340   20.3710 N   0  0  0  0  0  0  0  0  0  0  0  0
  -24.6820  -15.8020   20.5070 H   0  0  0  0  0  0  0  0  0  0  0  0
  -26.2530  -15.7460   20.9950 H   0  0  0  0  0  0  0  0  0  0  0  0
  -29.2360  -16.3870   18.5990 C   0  0  0  0  0  2  0  0  0  0  0  0
  -27.9990  -17.1300   18.2530 N   0  0  0  0  0  4  0  0  0  0  0  0
  -27.1960  -16.8180   18.7780 H   0  0  0  0  0  0  0  0  0  0  0  0
  -27.7930  -17.0010   17.2770 H   0  0  0  0  0  0  0  0  0  0  0  0
  -28.1470  -18.1160   18.4050 H   0  0  0  0  0  0  0  0  0  0  0  0
  -28.7590  -22.3310   20.3050 C   0  0  0  0  0  2  0  0  0  0  0  0
  -29.3140  -23.8670   20.3480 C   0  0  0  0  0  3  0  0  0  0  0  0
  -28.2350  -25.0650   20.0550 C   0  0  0  0  0  3  0  0  0  0  0  0
  -28.4470  -26.5470   20.2800 O   0  0  0  0  0  0  0  0  0  0  0  0
  -24.6880  -31.9890   23.3430 C   0  0  0  0  0  0  0  0  0  0  0  0
  -27.3280  -27.4280   20.2380 C   0  0  0  0  0  0  0  0  0  0  0  0
  -23.4890  -30.5960   21.6970 C   0  0  0  0  0  3  0  0  0  0  0  0
  -24.9480  -29.0630   20.2510 C   0  0  0  0  0  0  0  0  0  0  0  0
  -26.0310  -30.9200   21.5100 C   0  0  0  0  0  2  0  0  0  0  0  0
  -26.1200  -29.5440   20.8490 C   0  0  0  0  0  0  0  0  0  0  0  0
  -27.3090  -28.7410   20.8290 C   0  0  0  0  0  3  0  0  0  0  0  0
  -26.1250  -27.0190   19.6150 C   0  0  0  0  0  3  0  0  0  0  0  0
  -24.9560  -27.8070   19.6260 C   0  0  0  0  0  3  0  0  0  0  0  0
  -23.7050  -29.9320   20.3110 C   0  0  0  0  0  2  0  0  0  0  0  0
  -24.7550  -31.1880   22.2390 N   0  0  0  0  0  0  0  0  0  0  0  0
  -23.6040  -32.2560   23.8840 O   0  0  0  0  0  0  0  0  0  0  0  0
  -22.8330  -29.5690   22.6510 C   0  0  0  0  0  0  0  0  0  0  0  0
  -21.5150  -29.3520   22.4990 N   0  0  0  0  0  0  0  0  0  0  0  0
  -23.5110  -28.9720   23.4910 O   0  0  0  0  0  0  0  0  0  0  0  0
  -21.0280  -29.8830   21.7910 H   0  0  0  0  0  0  0  0  0  0  0  0
  -18.1690  -28.0420   22.9250 C   0  0  0  0  0  0  0  0  0  0  0  0
  -20.7090  -28.3960   23.2600 C   0  0  0  0  0  3  0  0  0  0  0  0
  -20.8780  -26.9620   22.7060 C   0  0  0  0  0  2  0  0  0  0  0  0
  -19.8160  -26.5890   21.6670 C   0  0  0  0  0  2  0  0  0  0  0  0
  -18.4120  -26.6920   22.2710 C   0  0  0  0  0  2  0  0  0  0  0  0
  -19.2490  -28.8480   23.3750 C   0  0  0  0  0  0  0  0  0  0  0  0
  -18.9680  -30.1090   23.9450 C   0  0  0  0  0  3  0  0  0  0  0  0
  -17.6420  -30.5640   24.0720 C   0  0  0  0  0  3  0  0  0  0  0  0
  -16.5770  -29.7550   23.6400 C   0  0  0  0  0  3  0  0  0  0  0  0
  -16.8420  -28.4950   23.0710 C   0  0  0  0  0  3  0  0  0  0  0  0
  -25.9670  -32.6270   23.9650 C   0  0  0  0  0  3  0  0  0  0  0  0
  -25.6580  -34.0290   24.2830 N   0  0  0  0  0  0  0  0  0  0  0  0
  -25.9560  -35.0720   23.4970 C   0  0  0  0  0  0  0  0  0  0  0  0
  -26.5900  -34.9570   22.4450 O   0  0  0  0  0  0  0  0  0  0  0  0
  -25.0910  -34.1920   25.1020 H   0  0  0  0  0  0  0  0  0  0  0  0
  -24.1960  -36.8440   23.1860 C   0  0  0  0  0  1  0  0  0  0  0  0
  -25.4760  -36.4660   23.9490 C   0  0  0  0  0  3  0  0  0  0  0  0
  -27.6300  -37.3950   24.6770 C   0  0  0  0  0  1  0  0  0  0  0  0
  -26.4920  -37.5260   23.7720 N   0  0  0  0  0  0  0  0  0  0  0  0
  -26.0810  -38.4460   23.9100 H   0  0  0  0  0  0  0  0  0  0  0  0
  -26.4720  -31.8680   25.2540 C   0  0  1  0  0  0  0  0  0  0  0  0
  -25.3690  -31.6370   26.3120 C   0  0  0  0  0  1  0  0  0  0  0  0
  -27.0660  -30.4900   24.8810 C   0  0  0  0  0  1  0  0  0  0  0  0
  -27.6130  -32.6720   25.9210 C   0  0  0  0  0  1  0  0  0  0  0  0
  2  1  2  0
  3  2  1  0
  4  6  2  0
  5  3  1  0
  6  1  1  0
  7  3  2  0
  7  4  1  0
  9  4  1  0
  9 10  1  0
  9  8  1  1
 10 16  1  0
 11 16  1  0
 12 13  1  0
 12 11  1  0
 14 13  1  0
 14 21  1  0
 14 15  1  0
 16 15  1  0
 17 10  2  0
 18 19  2  0
 19 38  1  0
 20 19  1  0
 20 23  1  0
 21 18  1  0
 21 22  1  0
 22 20  2  0
 23 24  1  0
 24 25  2  0
 26 29  1  0
 26 25  1  0
 27 26  2  0
 28 27  1  0
 28 23  2  0
 29 30  1  0
 30 35  2  0
 30 31  1  0
 31 32  2  0
 33 32  1  0
 33 37  1  0
 34 33  2  0
 35 34  1  0
 36 35  1  0
 38 39  1  0
 39 42  1  0
 39 41  1  0
 40 38  2  0
 43 44  1  0
 43 18  1  0
 43 45  1  0
 46  9  1  0
 47 50  1  0
 47 46  1  0
 47 48  1  0
 49 47  1  0
 51  2  1  0
 51 52  1  0
 53 54  1  0
 53 52  2  0
 55 66  2  0
 56 54  1  0
 56 61  1  0
 57 65  1  0
 57 67  1  0
 58 64  1  0
 58 60  1  0
 59 65  1  0
 60 59  1  0
 61 60  2  0
 62 63  1  0
 62 56  2  0
 63 58  2  0
 64 57  1  0
 65 55  1  0
 67 69  2  0
 68 67  1  0
 70 68  1  0
 71 80  2  0
 71 76  1  0
 72 68  1  0
 72 76  1  0
 73 72  1  0
 74 75  1  0
 74 73  1  0
 75 71  1  0
 76 77  2  0
 77 78  1  0
 79 78  2  0
 80 79  1  0
 81 55  1  0
 81 82  1  0
 81 91  1  0
 82 85  1  0
 83 87  1  0
 83 82  1  0
 84 83  2  0
 87 86  1  0
 89 90  1  0
 89 87  1  0
 89 88  1  0
 91 94  1  1
 91 92  1  0
 93 91  1  0
M  ISO  4   9 100  10 100  53 101  54 101
M  END
>  <TORSDO>  (37) 
F 22

>  <SCORE>  (37) 
-12.614

>  <name>  (37) 
40

>  <ligand_id>  (37) 
40

>  <original_smiles>  (37) 
[H]c1nc(C(C(=O)N2C([H])([H])C([H])([H])C([H])([H])C([H])(n3nc(-c4c([H])c([H])c(Oc5c([H])c([H])c(F)c([H])c5F)c([H])c4[H])c(C(=O)N([H])[H])c3N([H])[H])C2([H])[H])(C([H])([H])[H])C([H])([H])[N+]([H])([H])[H])nc(C([H])([H])[H])c1C([H])([H])C([H])([H])C([H])([H])Oc1c([H])c([H])c2c(c1[H])C([H])([H])N(C(=O)C([H])(N([H])C(=O)C([H])(N([H])C([H])([H])[H])C([H])([H])[H])C(C([H])([H])[H])(C([H])([H])[H])C([H])([H])[H])C([H])(C(=O)N([H])C1([H])c3c([H])c([H])c([H])c([H])c3C([H])([H])C([H])([H])C1([H])[H])C2([H])[H]

>  <smiles>  (37) 
[H]c1nc(C(C(=O)N2C([H])([H])C([H])([H])C([H])([H])C([H])(n3nc(-c4c([H])c([H])c(Oc5c([H])c([H])c(F)c([H])c5F)c([H])c4[H])c(C(=O)N([H])[H])c3N([H])[H])C2([H])[H])(C([H])([H])[H])C([H])([H])[N+]([H])([H])[H])nc(C([H])([H])[H])c1C([H])([H])C([H])([H])C([H])([H])Oc1c([H])c([H])c2c(c1[H])C([H])([H])N(C(=O)C([H])(N([H])C(=O)C([H])(N([H])C([H])([H])[H])C([H])([H])[H])C(C([H])([H])[H])(C([H])([H])[H])C([H])([H])[H])C([H])(C(=O)N([H])C1([H])c3c([H])c([H])c([H])c([H])c3C([H])([H])C([H])([H])C1([H])[H])C2([H])[H]

$$$$
41:0:0
     RDKit          3D

 88 96  0  0  1  0  0  0  0  0999 V2000
  -28.7370  -22.2260   20.3660 C   0  0  0  0  0  3  0  0  0  0  0  0
  -29.1600  -23.8070   20.4190 C   0  0  0  0  0  3  0  0  0  0  0  0
  -28.0390  -24.9770   20.3090 C   0  0  0  0  0  3  0  0  0  0  0  0
  -28.3260  -26.4610   20.3130 O   0  0  0  0  0  0  0  0  0  0  0  0
  -24.6050  -31.9310   23.3070 C   0  0  0  0  0  0  0  0  0  0  0  0
  -27.2300  -27.3620   20.2490 C   0  0  0  0  0  0  0  0  0  0  0  0
  -23.4110  -30.5390   21.6570 C   0  0  0  0  0  3  0  0  0  0  0  0
  -24.8720  -29.0090   20.2240 C   0  0  0  0  0  0  0  0  0  0  0  0
  -25.9530  -30.8680   21.4770 C   0  0  0  0  0  2  0  0  0  0  0  0
  -26.0420  -29.4910   20.8210 C   0  0  0  0  0  0  0  0  0  0  0  0
  -27.2280  -28.6810   20.8180 C   0  0  0  0  0  3  0  0  0  0  0  0
  -26.0260  -26.9510   19.6320 C   0  0  0  0  0  3  0  0  0  0  0  0
  -24.8700  -27.7470   19.6190 C   0  0  0  0  0  3  0  0  0  0  0  0
  -23.6310  -29.8800   20.2730 C   0  0  0  0  0  2  0  0  0  0  0  0
  -24.6740  -31.1310   22.2040 N   0  0  0  0  0  0  0  0  0  0  0  0
  -23.5170  -32.2020   23.8380 O   0  0  0  0  0  0  0  0  0  0  0  0
  -22.7460  -29.5130   22.6090 C   0  0  0  0  0  0  0  0  0  0  0  0
  -21.4230  -29.3170   22.4640 N   0  0  0  0  0  0  0  0  0  0  0  0
  -23.4210  -28.8960   23.4390 O   0  0  0  0  0  0  0  0  0  0  0  0
  -20.9370  -29.8730   21.7740 H   0  0  0  0  0  0  0  0  0  0  0  0
  -18.0520  -28.0650   22.9180 C   0  0  0  0  0  0  0  0  0  0  0  0
  -20.6050  -28.3670   23.2210 C   0  0  0  0  0  3  0  0  0  0  0  0
  -20.7320  -26.9360   22.6480 C   0  0  0  0  0  2  0  0  0  0  0  0
  -19.6480  -26.5970   21.6190 C   0  0  0  0  0  2  0  0  0  0  0  0
  -18.2560  -26.7190   22.2440 C   0  0  0  0  0  2  0  0  0  0  0  0
  -19.1540  -28.8460   23.3620 C   0  0  0  0  0  0  0  0  0  0  0  0
  -18.9070  -30.1040   23.9520 C   0  0  0  0  0  3  0  0  0  0  0  0
  -17.5920  -30.5840   24.0980 C   0  0  0  0  0  3  0  0  0  0  0  0
  -16.5050  -29.8040   23.6690 C   0  0  0  0  0  3  0  0  0  0  0  0
  -16.7370  -28.5450   23.0870 C   0  0  0  0  0  3  0  0  0  0  0  0
  -25.8810  -32.5640   23.9400 C   0  0  0  0  0  3  0  0  0  0  0  0
  -26.3680  -31.8060   25.2370 C   0  0  1  0  0  0  0  0  0  0  0  0
  -25.2520  -31.5960   26.2890 C   0  0  0  0  0  1  0  0  0  0  0  0
  -26.9470  -30.4170   24.8800 C   0  0  0  0  0  1  0  0  0  0  0  0
  -27.5130  -32.6030   25.9040 C   0  0  0  0  0  1  0  0  0  0  0  0
  -25.5730  -33.9670   24.2480 N   0  0  0  0  0  0  0  0  0  0  0  0
  -25.9060  -35.0070   23.4680 C   0  0  0  0  0  0  0  0  0  0  0  0
  -26.5710  -34.8820   22.4390 O   0  0  0  0  0  0  0  0  0  0  0  0
  -24.9770  -34.1360   25.0460 H   0  0  0  0  0  0  0  0  0  0  0  0
  -24.1800  -36.7960   23.0920 C   0  0  0  0  0  1  0  0  0  0  0  0
  -25.4290  -36.4070   23.9020 C   0  0  0  0  0  3  0  0  0  0  0  0
  -27.5720  -37.3060   24.6960 C   0  0  0  0  0  1  0  0  0  0  0  0
  -26.4660  -37.4520   23.7520 N   0  0  0  0  0  0  0  0  0  0  0  0
  -26.0670  -38.3800   23.8680 H   0  0  0  0  0  0  0  0  0  0  0  0
  -29.8610  -21.0630   20.5140 C   0  0  0  0  0  3  0  0  0  0  0  0
  -30.7460  -14.9420   20.0750 C   0  0  0  0  0  0  0  0  0  0  0  0
  -30.5130  -12.6270   19.1330 C   0  0  0  0  0  2  0  0  0  0  0  0
  -29.5310  -12.5830   17.9430 C   0  0  0  0  0  2  0  0  0  0  0  0
  -28.0830  -12.4140   18.4280 C   0  0  0  0  0  2  0  0  0  0  0  0
  -27.7270  -13.3550   19.6080 C   0  0  0  0  0  3  0  0  0  0  0  0
  -28.8230  -13.3800   20.6930 C   0  0  0  0  0  2  0  0  0  0  0  0
  -30.0820  -13.7300   20.0250 N   0  0  0  0  0  0  0  0  0  0  0  0
  -31.9730  -14.9300   19.9180 O   0  0  0  0  0  0  0  0  0  0  0  0
  -28.4500  -18.9010   20.9840 C   0  0  0  0  0  2  0  0  0  0  0  0
  -29.7490  -17.3700   20.3330 C   0  0  0  0  0  0  0  0  0  0  0  0
  -30.2740  -16.3520   18.2090 C   0  0  0  0  0  1  0  0  0  0  0  0
  -28.5110  -17.5550   20.8970 N   0  0  0  0  0  0  0  0  0  0  0  0
  -30.3870  -18.5550   20.0840 N   0  0  0  0  0  2  0  0  0  0  0  0
  -29.5110  -19.5660   20.5030 N   0  0  0  0  0  0  0  0  0  0  0  0
  -30.0610  -16.0900   19.6410 N   0  0  0  0  0  0  0  0  0  0  0  0
  -25.3750  -13.9250   20.4440 C   0  0  0  0  0  0  0  0  0  0  0  0
  -24.3230  -13.1380   20.8350 C   0  0  0  0  0  0  0  0  0  0  0  0
  -24.7910  -11.7890   20.7730 C   0  0  0  0  0  0  0  0  0  0  0  0
  -26.4100  -13.0510   20.1590 N   0  0  0  0  0  0  0  0  0  0  0  0
  -26.0700  -11.7620   20.4240 N   0  0  0  0  0  0  0  0  0  0  0  0
  -24.0720  -10.5210   20.9680 C   0  0  0  0  0  0  0  0  0  0  0  0
  -24.5140   -9.5550   21.8980 C   0  0  0  0  0  3  0  0  0  0  0  0
  -23.7910   -8.3560   22.0830 C   0  0  0  0  0  3  0  0  0  0  0  0
  -22.6170   -8.1130   21.3330 C   0  0  0  0  0  0  0  0  0  0  0  0
  -22.1970   -9.0670   20.3880 C   0  0  0  0  0  3  0  0  0  0  0  0
  -22.9200  -10.2560   20.2030 C   0  0  0  0  0  3  0  0  0  0  0  0
  -21.8700   -6.9630   21.4230 O   0  0  0  0  0  0  0  0  0  0  0  0
  -21.7850   -6.2500   22.5920 C   0  0  0  0  0  0  0  0  0  0  0  0
  -21.2850   -6.8230   23.7820 C   0  0  0  0  0  3  0  0  0  0  0  0
  -21.1470   -6.0350   24.9420 C   0  0  0  0  0  3  0  0  0  0  0  0
  -21.5010   -4.6730   24.9140 C   0  0  0  0  0  0  0  0  0  0  0  0
  -21.9980   -4.0990   23.7310 C   0  0  0  0  0  3  0  0  0  0  0  0
  -22.1350   -4.8840   22.5730 C   0  0  0  0  0  0  0  0  0  0  0  0
  -22.5910   -4.3200   21.4290 F   0  0  0  0  0  0  0  0  0  0  0  0
  -21.3640   -3.9130   26.0260 F   0  0  0  0  0  0  0  0  0  0  0  0
  -22.9330  -13.6070   21.1520 C   0  0  0  0  0  0  0  0  0  0  0  0
  -22.2410  -12.9090   22.0470 N   0  0  0  0  0  0  0  0  0  0  0  0
  -22.4700  -14.6250   20.6430 O   0  0  0  0  0  0  0  0  0  0  0  0
  -22.6300  -12.0860   22.4840 H   0  0  0  0  0  0  0  0  0  0  0  0
  -21.3050  -13.2000   22.2960 H   0  0  0  0  0  0  0  0  0  0  0  0
  -25.5320  -15.2990   20.2890 N   0  0  0  0  0  0  0  0  0  0  0  0
  -24.7770  -15.9520   20.4690 H   0  0  0  0  0  0  0  0  0  0  0  0
  -26.4050  -15.7590   20.0480 H   0  0  0  0  0  0  0  0  0  0  0  0
  1  2  1  0
  1 45  2  0
  3  4  1  0
  3  2  2  0
  5 16  2  0
  6  4  1  0
  6 11  1  0
  7 15  1  0
  7 17  1  0
  8 14  1  0
  8 10  1  0
  9 15  1  0
 10  9  1  0
 11 10  2  0
 12  6  2  0
 13 12  1  0
 13  8  2  0
 14  7  1  0
 15  5  1  0
 17 19  2  0
 18 17  1  0
 20 18  1  0
 21 30  2  0
 21 26  1  0
 22 18  1  0
 22 26  1  0
 23 22  1  0
 24 25  1  0
 24 23  1  0
 25 21  1  0
 26 27  2  0
 27 28  1  0
 29 28  2  0
 30 29  1  0
 31  5  1  0
 31 36  1  0
 31 32  1  0
 32 35  1  1
 32 33  1  0
 34 32  1  0
 36 39  1  0
 37 41  1  0
 37 36  1  0
 38 37  2  0
 41 40  1  0
 43 44  1  0
 43 41  1  0
 43 42  1  0
 47 52  1  0
 48 49  1  0
 48 47  1  0
 50 49  1  0
 50 64  1  0
 50 51  1  0
 52 46  1  0
 52 51  1  0
 53 46  2  0
 55 57  2  0
 56 60  1  0
 57 54  1  0
 58 55  1  0
 58 59  1  0
 59 45  1  0
 59 54  1  0
 60 46  1  0
 60 55  1  0
 61 62  2  0
 62 81  1  0
 63 62  1  0
 63 66  1  0
 64 65  1  0
 64 61  1  0
 65 63  2  0
 66 67  1  0
 67 68  2  0
 69 72  1  0
 69 68  1  0
 70 69  2  0
 71 70  1  0
 71 66  2  0
 72 73  1  0
 73 74  1  0
 74 75  2  0
 76 75  1  0
 76 80  1  0
 77 76  2  0
 78 73  2  0
 78 77  1  0
 79 78  1  0
 81 82  1  0
 82 85  1  0
 82 84  1  0
 83 81  2  0
 86 61  1  0
 86 87  1  0
 88 86  1  0
M  ISO  4   3 101   4 101  46 100  60 100
M  END
>  <TORSDO>  (38) 
F 19

>  <SCORE>  (38) 
-13.278

>  <name>  (38) 
41

>  <ligand_id>  (38) 
41

>  <original_smiles>  (38) 
[H]c1c([H])c([H])c2c(c1[H])C([H])([H])C([H])([H])C([H])([H])C2([H])N([H])C(=O)C1([H])N(C(=O)C([H])(N([H])C(=O)C([H])(N([H])C([H])([H])[H])C([H])([H])[H])C(C([H])([H])[H])(C([H])([H])[H])C([H])([H])[H])C([H])([H])c2c([H])c(OC([H])([H])C([H])([H])C([H])([H])C([H])([H])n3nc(N(C(=O)N4C([H])([H])C([H])([H])C([H])([H])C([H])(n5nc(-c6c([H])c([H])c(Oc7c([H])c([H])c(F)c([H])c7F)c([H])c6[H])c(C(=O)N([H])[H])c5N([H])[H])C4([H])[H])C([H])([H])[H])nc3[H])c([H])c([H])c2C1([H])[H]

>  <smiles>  (38) 
[H]c1c([H])c([H])c2c(c1[H])C([H])([H])C([H])([H])C([H])([H])C2([H])N([H])C(=O)C1([H])N(C(=O)C([H])(N([H])C(=O)C([H])(N([H])C([H])([H])[H])C([H])([H])[H])C(C([H])([H])[H])(C([H])([H])[H])C([H])([H])[H])C([H])([H])c2c([H])c(OC([H])([H])C([H])([H])C([H])([H])C([H])([H])n3nc(N(C(=O)N4C([H])([H])C([H])([H])C([H])([H])C([H])(n5nc(-c6c([H])c([H])c(Oc7c([H])c([H])c(F)c([H])c7F)c([H])c6[H])c(C(=O)N([H])[H])c5N([H])[H])C4([H])[H])C([H])([H])[H])nc3[H])c([H])c([H])c2C1([H])[H]

$$$$
42:0:0
     RDKit          3D

 95103  0  0  1  0  0  0  0  0999 V2000
  -28.2140  -21.5670   19.2530 C   0  0  0  0  0  3  0  0  0  0  0  0
  -29.2180  -21.7190   20.1560 C   0  0  0  0  0  0  0  0  0  0  0  0
  -28.9860  -19.4880   19.6770 C   0  0  0  0  0  3  0  0  0  0  0  0
  -28.0550  -20.2270   19.0030 N   0  0  0  0  0  0  0  0  0  0  0  0
  -29.6740  -20.4190   20.3880 N   0  0  0  0  0  0  0  0  0  0  0  0
  -30.4380  -20.1890   21.0120 H   0  0  0  0  0  0  0  0  0  0  0  0
  -27.5050  -19.8480   16.6170 C   0  0  0  0  0  1  0  0  0  0  0  0
  -25.6850  -20.5250   18.2540 C   0  0  0  0  0  1  0  0  0  0  0  0
  -27.0050  -19.7540   18.0690 C   0  0  0  0  0  3  0  0  0  0  0  0
  -29.2240  -17.3730   18.2520 C   0  0  0  0  0  1  0  0  0  0  0  0
  -27.8800  -17.3850   20.4620 C   0  0  0  0  0  1  0  0  0  0  0  0
  -29.1250  -17.9180   19.7080 C   0  0  2  0  0  0  0  0  0  0  0  0
  -30.3700  -17.2480   20.4420 C   0  0  0  0  0  2  0  0  0  0  0  0
  -30.9350  -14.7050   20.3040 C   0  0  0  0  0  0  0  0  0  0  0  0
  -30.6630  -12.4780   19.2490 C   0  0  0  0  0  2  0  0  0  0  0  0
  -29.7170  -12.6260   18.0370 C   0  0  0  0  0  2  0  0  0  0  0  0
  -28.2440  -12.4900   18.4680 C   0  0  0  0  0  2  0  0  0  0  0  0
  -27.9000  -13.3600   19.7060 C   0  0  0  0  0  3  0  0  0  0  0  0
  -28.9640  -13.1970   20.8180 C   0  0  0  0  0  2  0  0  0  0  0  0
  -30.2830  -13.5040   20.2370 N   0  0  0  0  0  0  0  0  0  0  0  0
  -32.0760  -14.8570   19.8600 O   0  0  0  0  0  0  0  0  0  0  0  0
  -30.1860  -15.7710   20.6910 N   0  0  0  0  0  0  0  0  0  0  0  0
  -29.2840  -15.5170   21.0640 H   0  0  0  0  0  0  0  0  0  0  0  0
  -25.5180  -13.9870   20.4460 C   0  0  0  0  0  0  0  0  0  0  0  0
  -24.4450  -13.2280   20.8230 C   0  0  0  0  0  0  0  0  0  0  0  0
  -24.8840  -11.8720   20.7650 C   0  0  0  0  0  0  0  0  0  0  0  0
  -26.5500  -13.0940   20.1960 N   0  0  0  0  0  0  0  0  0  0  0  0
  -26.1710  -11.8140   20.4450 N   0  0  0  0  0  0  0  0  0  0  0  0
  -24.1350  -10.6210   20.9380 C   0  0  0  0  0  0  0  0  0  0  0  0
  -24.5280   -9.6540   21.8880 C   0  0  0  0  0  3  0  0  0  0  0  0
  -23.7840   -8.4650   22.0500 C   0  0  0  0  0  3  0  0  0  0  0  0
  -22.6320   -8.2390   21.2610 C   0  0  0  0  0  0  0  0  0  0  0  0
  -22.2570   -9.1940   20.2980 C   0  0  0  0  0  3  0  0  0  0  0  0
  -23.0020  -10.3730   20.1350 C   0  0  0  0  0  3  0  0  0  0  0  0
  -21.8610   -7.1030   21.3310 O   0  0  0  0  0  0  0  0  0  0  0  0
  -21.7450   -6.3830   22.4930 C   0  0  0  0  0  0  0  0  0  0  0  0
  -21.2230   -6.9550   23.6740 C   0  0  0  0  0  3  0  0  0  0  0  0
  -21.0550   -6.1600   24.8260 C   0  0  0  0  0  3  0  0  0  0  0  0
  -21.3990   -4.7950   24.7960 C   0  0  0  0  0  0  0  0  0  0  0  0
  -21.9160   -4.2240   23.6200 C   0  0  0  0  0  3  0  0  0  0  0  0
  -22.0840   -5.0160   22.4710 C   0  0  0  0  0  0  0  0  0  0  0  0
  -22.5610   -4.4550   21.3330 F   0  0  0  0  0  0  0  0  0  0  0  0
  -21.2310   -4.0300   25.9000 F   0  0  0  0  0  0  0  0  0  0  0  0
  -23.0600  -13.7280   21.1150 C   0  0  0  0  0  0  0  0  0  0  0  0
  -22.3280  -13.0350   21.9810 N   0  0  0  0  0  0  0  0  0  0  0  0
  -22.6340  -14.7670   20.6120 O   0  0  0  0  0  0  0  0  0  0  0  0
  -22.6820  -12.1930   22.4110 H   0  0  0  0  0  0  0  0  0  0  0  0
  -21.3980  -13.3510   22.2160 H   0  0  0  0  0  0  0  0  0  0  0  0
  -25.6890  -15.3550   20.2700 N   0  0  0  0  0  0  0  0  0  0  0  0
  -24.9110  -15.9980   20.3540 H   0  0  0  0  0  0  0  0  0  0  0  0
  -26.5130  -15.7770   19.8660 H   0  0  0  0  0  0  0  0  0  0  0  0
  -29.7740  -23.0150   20.7410 C   0  0  0  0  0  2  0  0  0  0  0  0
  -28.7600  -24.2010   21.0170 C   0  0  0  0  0  2  0  0  0  0  0  0
  -28.4270  -25.2520   19.8930 C   0  0  0  0  0  2  0  0  0  0  0  0
  -28.2840  -26.6340   20.3710 O   0  0  0  0  0  0  0  0  0  0  0  0
  -24.5100  -32.0140   23.2390 C   0  0  0  0  0  0  0  0  0  0  0  0
  -27.1000  -27.3770   20.3070 C   0  0  0  0  0  0  0  0  0  0  0  0
  -23.2840  -30.5650   21.6550 C   0  0  0  0  0  3  0  0  0  0  0  0
  -24.7170  -28.9540   20.2800 C   0  0  0  0  0  0  0  0  0  0  0  0
  -25.8170  -30.8740   21.4370 C   0  0  0  0  0  2  0  0  0  0  0  0
  -25.8860  -29.4740   20.8460 C   0  0  0  0  0  0  0  0  0  0  0  0
  -27.0730  -28.6920   20.8550 C   0  0  0  0  0  3  0  0  0  0  0  0
  -25.9030  -26.8930   19.7260 C   0  0  0  0  0  3  0  0  0  0  0  0
  -24.7240  -27.6670   19.7180 C   0  0  0  0  0  3  0  0  0  0  0  0
  -23.4830  -29.8320   20.3010 C   0  0  0  0  0  2  0  0  0  0  0  0
  -24.5570  -31.1700   22.1680 N   0  0  0  0  0  0  0  0  0  0  0  0
  -23.4320  -32.3160   23.7740 O   0  0  0  0  0  0  0  0  0  0  0  0
  -22.6250  -29.5890   22.6570 C   0  0  0  0  0  0  0  0  0  0  0  0
  -21.3010  -29.3970   22.5270 N   0  0  0  0  0  0  0  0  0  0  0  0
  -23.3030  -29.0040   23.5060 O   0  0  0  0  0  0  0  0  0  0  0  0
  -20.8150  -29.9210   21.8130 H   0  0  0  0  0  0  0  0  0  0  0  0
  -17.9290  -28.2070   23.0540 C   0  0  0  0  0  0  0  0  0  0  0  0
  -20.4830  -28.4880   23.3310 C   0  0  0  0  0  3  0  0  0  0  0  0
  -20.5950  -27.0360   22.8170 C   0  0  0  0  0  2  0  0  0  0  0  0
  -19.5030  -26.6640   21.8090 C   0  0  0  0  0  2  0  0  0  0  0  0
  -18.1160  -26.8310   22.4370 C   0  0  0  0  0  2  0  0  0  0  0  0
  -19.0400  -28.9910   23.4590 C   0  0  0  0  0  0  0  0  0  0  0  0
  -18.8120  -30.2770   23.9950 C   0  0  0  0  0  3  0  0  0  0  0  0
  -17.5040  -30.7790   24.1320 C   0  0  0  0  0  3  0  0  0  0  0  0
  -16.4070  -29.9930   23.7430 C   0  0  0  0  0  3  0  0  0  0  0  0
  -16.6190  -28.7100   23.2080 C   0  0  0  0  0  3  0  0  0  0  0  0
  -25.8020  -32.6580   23.8310 C   0  0  0  0  0  3  0  0  0  0  0  0
  -25.4870  -34.0520   24.1740 N   0  0  0  0  0  0  0  0  0  0  0  0
  -25.8020  -35.1120   23.4170 C   0  0  0  0  0  0  0  0  0  0  0  0
  -26.4610  -35.0190   22.3760 O   0  0  0  0  0  0  0  0  0  0  0  0
  -24.9000  -34.1980   24.9810 H   0  0  0  0  0  0  0  0  0  0  0  0
  -24.0730  -36.9070   23.0750 C   0  0  0  0  0  1  0  0  0  0  0  0
  -25.3100  -36.4950   23.8880 C   0  0  0  0  0  3  0  0  0  0  0  0
  -27.4350  -37.3790   24.7460 C   0  0  0  0  0  1  0  0  0  0  0  0
  -26.3420  -37.5500   23.7920 N   0  0  0  0  0  0  0  0  0  0  0  0
  -25.9320  -38.4680   23.9400 H   0  0  0  0  0  0  0  0  0  0  0  0
  -26.3580  -31.8900   25.0920 C   0  0  1  0  0  0  0  0  0  0  0  0
  -25.2880  -31.6170   26.1760 C   0  0  0  0  0  1  0  0  0  0  0  0
  -26.9680  -30.5300   24.6770 C   0  0  0  0  0  1  0  0  0  0  0  0
  -27.5010  -32.7050   25.7430 C   0  0  0  0  0  1  0  0  0  0  0  0
  1  2  2  0
  2  5  1  0
  2 52  1  0
  3 12  1  0
  3  5  1  0
  4  1  1  0
  4  3  1  0
  5  6  1  0
  7  9  1  0
  9  8  1  0
  9  4  1  0
 12 10  1  6
 12 13  1  0
 12 11  1  0
 13 22  1  0
 14 22  1  0
 15 20  1  0
 16 17  1  0
 16 15  1  0
 18 17  1  0
 18 27  1  0
 18 19  1  0
 20 14  1  0
 20 19  1  0
 21 14  2  0
 22 23  1  0
 24 25  2  0
 25 44  1  0
 26 25  1  0
 26 29  1  0
 27 28  1  0
 27 24  1  0
 28 26  2  0
 29 30  1  0
 30 31  2  0
 32 35  1  0
 32 31  1  0
 33 32  2  0
 34 33  1  0
 34 29  2  0
 35 36  1  0
 36 37  1  0
 37 38  2  0
 39 38  1  0
 39 43  1  0
 40 39  2  0
 41 36  2  0
 41 40  1  0
 42 41  1  0
 44 45  1  0
 45 48  1  0
 45 47  1  0
 46 44  2  0
 49 50  1  0
 49 24  1  0
 51 49  1  0
 52 53  1  0
 54 55  1  0
 54 53  1  0
 56 67  2  0
 57 55  1  0
 57 62  1  0
 58 66  1  0
 58 68  1  0
 59 65  1  0
 59 61  1  0
 60 66  1  0
 61 62  2  0
 61 60  1  0
 63 57  2  0
 64 63  1  0
 64 59  2  0
 65 58  1  0
 66 56  1  0
 68 70  2  0
 69 68  1  0
 71 69  1  0
 72 81  2  0
 72 77  1  0
 73 69  1  0
 73 77  1  0
 74 73  1  0
 75 76  1  0
 75 74  1  0
 76 72  1  0
 77 78  2  0
 78 79  1  0
 80 79  2  0
 81 80  1  0
 82 56  1  0
 82 83  1  0
 82 92  1  0
 83 86  1  0
 84 88  1  0
 84 83  1  0
 85 84  2  0
 88 87  1  0
 90 88  1  0
 90 91  1  0
 90 89  1  0
 92 95  1  1
 92 93  1  0
 94 92  1  0
M  ISO  4  14 100  22 100  54 101  55 101
M  END
>  <TORSDO>  (39) 
F 22

>  <SCORE>  (39) 
-12.903

>  <name>  (39) 
42

>  <ligand_id>  (39) 
42

>  <original_smiles>  (39) 
[H]c1c([H])c([H])c2c(c1[H])C([H])([H])C([H])([H])C([H])([H])C2([H])N([H])C(=O)C1([H])N(C(=O)C([H])(N([H])C(=O)C([H])(N([H])C([H])([H])[H])C([H])([H])[H])C(C([H])([H])[H])(C([H])([H])[H])C([H])([H])[H])C([H])([H])c2c([H])c(OC([H])([H])C([H])([H])C([H])([H])c3c([H])n(C([H])(C([H])([H])[H])C([H])([H])[H])c(C(C([H])([H])[H])(C([H])([H])[H])C([H])([H])N([H])C(=O)N4C([H])([H])C([H])([H])C([H])([H])C([H])(n5nc(-c6c([H])c([H])c(Oc7c([H])c([H])c(F)c([H])c7F)c([H])c6[H])c(C(=O)N([H])[H])c5N([H])[H])C4([H])[H])[n+]3[H])c([H])c([H])c2C1([H])[H]

>  <smiles>  (39) 
[H]c1c([H])c([H])c2c(c1[H])C([H])([H])C([H])([H])C([H])([H])C2([H])N([H])C(=O)C1([H])N(C(=O)C([H])(N([H])C(=O)C([H])(N([H])C([H])([H])[H])C([H])([H])[H])C(C([H])([H])[H])(C([H])([H])[H])C([H])([H])[H])C([H])([H])c2c([H])c(OC([H])([H])C([H])([H])C([H])([H])c3c([H])n(C([H])(C([H])([H])[H])C([H])([H])[H])c(C(C([H])([H])[H])(C([H])([H])[H])C([H])([H])N([H])C(=O)N4C([H])([H])C([H])([H])C([H])([H])C([H])(n5nc(-c6c([H])c([H])c(Oc7c([H])c([H])c(F)c([H])c7F)c([H])c6[H])c(C(=O)N([H])[H])c5N([H])[H])C4([H])[H])[n+]3[H])c([H])c([H])c2C1([H])[H]

$$$$
43:0:0
     RDKit          3D

 93101  0  0  1  0  0  0  0  0999 V2000
  -28.6150  -19.7080   19.6190 C   0  0  0  0  0  3  0  0  0  0  0  0
  -29.9060  -19.5120   20.1890 C   0  0  0  0  0  0  0  0  0  0  0  0
  -28.5120  -21.0550   19.3750 C   0  0  0  0  0  0  0  0  0  0  0  0
  -27.4160  -21.8110   18.7010 C   0  0  0  0  0  1  0  0  0  0  0  0
  -30.5020  -20.7120   20.3530 N   0  0  0  0  0  0  0  0  0  0  0  0
  -29.6750  -21.6650   19.8130 N   0  0  0  0  0  0  0  0  0  0  0  0
  -31.9930  -18.0710   20.0170 C   0  0  0  0  0  1  0  0  0  0  0  0
  -30.5850  -18.1740   20.6210 C   0  0  1  0  0  0  0  0  0  0  0  0
  -30.7270  -18.2480   21.9460 F   0  0  0  0  0  0  0  0  0  0  0  0
  -29.7440  -16.8710   20.2890 C   0  0  0  0  0  2  0  0  0  0  0  0
  -30.7530  -14.5380   20.0250 C   0  0  0  0  0  0  0  0  0  0  0  0
  -30.3360  -12.4080   18.8040 C   0  0  0  0  0  2  0  0  0  0  0  0
  -29.3030  -12.6160   17.6750 C   0  0  0  0  0  2  0  0  0  0  0  0
  -27.8670  -12.4620   18.2100 C   0  0  0  0  0  2  0  0  0  0  0  0
  -27.6290  -13.2800   19.5040 C   0  0  0  0  0  3  0  0  0  0  0  0
  -28.7580  -13.0410   20.5270 C   0  0  0  0  0  2  0  0  0  0  0  0
  -30.0440  -13.3710   19.8870 N   0  0  0  0  0  0  0  0  0  0  0  0
  -31.7730  -14.7490   19.3660 O   0  0  0  0  0  0  0  0  0  0  0  0
  -30.2620  -15.4150   22.2570 C   0  0  0  0  0  1  0  0  0  0  0  0
  -30.1990  -15.5280   20.7950 N   0  0  0  0  0  0  0  0  0  0  0  0
  -25.3000  -13.8970   20.4100 C   0  0  0  0  0  0  0  0  0  0  0  0
  -24.2510  -13.1300   20.8410 C   0  0  0  0  0  0  0  0  0  0  0  0
  -24.6890  -11.7740   20.7470 C   0  0  0  0  0  0  0  0  0  0  0  0
  -26.3120  -13.0080   20.0790 N   0  0  0  0  0  0  0  0  0  0  0  0
  -25.9510  -11.7250   20.3400 N   0  0  0  0  0  0  0  0  0  0  0  0
  -23.9630  -10.5170   20.9680 C   0  0  0  0  0  0  0  0  0  0  0  0
  -24.4380   -9.5330   21.8620 C   0  0  0  0  0  3  0  0  0  0  0  0
  -23.7100   -8.3410   22.0700 C   0  0  0  0  0  3  0  0  0  0  0  0
  -22.4920   -8.1250   21.3830 C   0  0  0  0  0  0  0  0  0  0  0  0
  -22.0360   -9.0960   20.4760 C   0  0  0  0  0  3  0  0  0  0  0  0
  -22.7640  -10.2790   20.2670 C   0  0  0  0  0  3  0  0  0  0  0  0
  -21.7320   -6.9860   21.5010 O   0  0  0  0  0  0  0  0  0  0  0  0
  -21.7190   -6.2460   22.6560 C   0  0  0  0  0  0  0  0  0  0  0  0
  -21.3630   -6.8130   23.8990 C   0  0  0  0  0  3  0  0  0  0  0  0
  -21.2970   -6.0000   25.0480 C   0  0  0  0  0  3  0  0  0  0  0  0
  -21.5760   -4.6230   24.9550 C   0  0  0  0  0  0  0  0  0  0  0  0
  -21.9280   -4.0580   23.7170 C   0  0  0  0  0  3  0  0  0  0  0  0
  -21.9970   -4.8680   22.5700 C   0  0  0  0  0  0  0  0  0  0  0  0
  -22.3160   -4.3140   21.3750 F   0  0  0  0  0  0  0  0  0  0  0  0
  -21.5030   -3.8400   26.0570 F   0  0  0  0  0  0  0  0  0  0  0  0
  -22.8860  -13.6220   21.2290 C   0  0  0  0  0  0  0  0  0  0  0  0
  -22.2190  -12.9210   22.1410 N   0  0  0  0  0  0  0  0  0  0  0  0
  -22.4210  -14.6590   20.7590 O   0  0  0  0  0  0  0  0  0  0  0  0
  -22.6100  -12.0820   22.5420 H   0  0  0  0  0  0  0  0  0  0  0  0
  -21.3080  -13.2330   22.4460 H   0  0  0  0  0  0  0  0  0  0  0  0
  -25.4730  -15.2680   20.2540 N   0  0  0  0  0  0  0  0  0  0  0  0
  -24.7280  -15.9290   20.4480 H   0  0  0  0  0  0  0  0  0  0  0  0
  -26.3040  -15.7050   19.8790 H   0  0  0  0  0  0  0  0  0  0  0  0
  -31.6310  -23.2390   19.6980 C   0  0  0  0  0  1  0  0  0  0  0  0
  -30.0970  -23.0890   19.6180 C   0  0  0  0  0  3  0  0  0  0  0  0
  -29.3720  -24.2000   20.4810 C   0  0  0  0  0  2  0  0  0  0  0  0
  -28.4510  -25.2210   19.7080 C   0  0  0  0  0  2  0  0  0  0  0  0
  -28.3920  -26.5820   20.2430 O   0  0  0  0  0  0  0  0  0  0  0  0
  -24.6010  -31.8860   23.2250 C   0  0  0  0  0  0  0  0  0  0  0  0
  -27.2270  -27.3530   20.1710 C   0  0  0  0  0  0  0  0  0  0  0  0
  -23.3920  -30.4790   21.5920 C   0  0  0  0  0  3  0  0  0  0  0  0
  -24.8410  -28.9250   20.1710 C   0  0  0  0  0  0  0  0  0  0  0  0
  -25.9250  -30.8070   21.4000 C   0  0  0  0  0  2  0  0  0  0  0  0
  -26.0040  -29.4260   20.7670 C   0  0  0  0  0  0  0  0  0  0  0  0
  -27.1920  -28.6470   20.7680 C   0  0  0  0  0  3  0  0  0  0  0  0
  -26.0410  -26.9000   19.5410 C   0  0  0  0  0  3  0  0  0  0  0  0
  -24.8590  -27.6650   19.5540 C   0  0  0  0  0  3  0  0  0  0  0  0
  -23.6000  -29.7900   20.2180 C   0  0  0  0  0  2  0  0  0  0  0  0
  -24.6590  -31.0740   22.1300 N   0  0  0  0  0  0  0  0  0  0  0  0
  -23.5190  -32.1680   23.7610 O   0  0  0  0  0  0  0  0  0  0  0  0
  -22.7310  -29.4690   22.5600 C   0  0  0  0  0  0  0  0  0  0  0  0
  -21.4050  -29.2890   22.4290 N   0  0  0  0  0  0  0  0  0  0  0  0
  -23.4090  -28.8510   23.3850 O   0  0  0  0  0  0  0  0  0  0  0  0
  -20.9190  -29.8390   21.7340 H   0  0  0  0  0  0  0  0  0  0  0  0
  -18.0310  -28.0850   22.9080 C   0  0  0  0  0  0  0  0  0  0  0  0
  -20.5840  -28.3580   23.2040 C   0  0  0  0  0  3  0  0  0  0  0  0
  -20.7000  -26.9200   22.6490 C   0  0  0  0  0  2  0  0  0  0  0  0
  -19.6110  -26.5790   21.6260 C   0  0  0  0  0  2  0  0  0  0  0  0
  -18.2220  -26.7260   22.2530 C   0  0  0  0  0  2  0  0  0  0  0  0
  -19.1410  -28.8570   23.3390 C   0  0  0  0  0  0  0  0  0  0  0  0
  -18.9090  -30.1290   23.9100 C   0  0  0  0  0  3  0  0  0  0  0  0
  -17.6010  -30.6250   24.0540 C   0  0  0  0  0  3  0  0  0  0  0  0
  -16.5040  -29.8490   23.6410 C   0  0  0  0  0  3  0  0  0  0  0  0
  -16.7210  -28.5800   23.0720 C   0  0  0  0  0  3  0  0  0  0  0  0
  -25.8870  -32.5180   23.8430 C   0  0  0  0  0  3  0  0  0  0  0  0
  -25.5800  -33.9150   24.1750 N   0  0  0  0  0  0  0  0  0  0  0  0
  -25.9060  -34.9680   23.4140 C   0  0  0  0  0  0  0  0  0  0  0  0
  -26.5660  -34.8650   22.3770 O   0  0  0  0  0  0  0  0  0  0  0  0
  -24.9910  -34.0690   24.9810 H   0  0  0  0  0  0  0  0  0  0  0  0
  -24.1670  -36.7560   23.0860 C   0  0  0  0  0  1  0  0  0  0  0  0
  -25.4220  -36.3560   23.8760 C   0  0  0  0  0  3  0  0  0  0  0  0
  -27.5710  -37.2460   24.6680 C   0  0  0  0  0  1  0  0  0  0  0  0
  -26.4510  -37.4110   23.7440 N   0  0  0  0  0  0  0  0  0  0  0  0
  -26.0450  -38.3300   23.9000 H   0  0  0  0  0  0  0  0  0  0  0  0
  -26.4100  -31.7450   25.1160 C   0  0  1  0  0  0  0  0  0  0  0  0
  -25.3230  -31.5100   26.1900 C   0  0  0  0  0  1  0  0  0  0  0  0
  -26.9880  -30.3670   24.7180 C   0  0  0  0  0  1  0  0  0  0  0  0
  -27.5660  -32.5370   25.7720 C   0  0  0  0  0  1  0  0  0  0  0  0
  1  2  1  0
  2  5  2  0
  2  8  1  0
  3  1  2  0
  3  6  1  0
  4  3  1  0
  6  5  1  0
  8  7  1  6
  8  9  1  0
 10  8  1  0
 10 20  1  0
 11 20  1  0
 12 17  1  0
 13 14  1  0
 13 12  1  0
 15 14  1  0
 15 24  1  0
 15 16  1  0
 17 11  1  0
 17 16  1  0
 18 11  2  0
 20 19  1  0
 21 22  2  0
 22 41  1  0
 23 22  1  0
 23 26  1  0
 24 25  1  0
 24 21  1  0
 25 23  2  0
 26 27  1  0
 27 28  2  0
 29 32  1  0
 29 28  1  0
 30 29  2  0
 31 30  1  0
 31 26  2  0
 32 33  1  0
 33 34  1  0
 34 35  2  0
 36 35  1  0
 36 40  1  0
 37 36  2  0
 38 33  2  0
 38 37  1  0
 39 38  1  0
 41 42  1  0
 42 45  1  0
 42 44  1  0
 43 41  2  0
 46 21  1  0
 46 47  1  0
 48 46  1  0
 50 49  1  0
 50  6  1  0
 50 51  1  0
 52 53  1  0
 52 51  1  0
 54 65  2  0
 55 53  1  0
 55 60  1  0
 56 64  1  0
 56 66  1  0
 57 63  1  0
 57 59  1  0
 58 64  1  0
 59 60  2  0
 59 58  1  0
 61 62  1  0
 61 55  2  0
 62 57  2  0
 63 56  1  0
 64 54  1  0
 66 68  2  0
 67 66  1  0
 69 67  1  0
 70 79  2  0
 70 75  1  0
 71 67  1  0
 71 75  1  0
 72 71  1  0
 73 74  1  0
 73 72  1  0
 74 70  1  0
 75 76  2  0
 76 77  1  0
 78 77  2  0
 79 78  1  0
 80 54  1  0
 80 81  1  0
 80 90  1  0
 81 84  1  0
 82 86  1  0
 82 81  1  0
 83 82  2  0
 86 85  1  0
 88 86  1  0
 88 89  1  0
 88 87  1  0
 90 93  1  1
 90 91  1  0
 92 90  1  0
M  ISO  4  11 100  20 100  52 101  53 101
M  END
>  <TORSDO>  (40) 
F 21

>  <SCORE>  (40) 
-12.866

>  <name>  (40) 
43

>  <ligand_id>  (40) 
43

>  <original_smiles>  (40) 
[H]c1c([H])c([H])c2c(c1[H])C([H])([H])C([H])([H])C([H])([H])C2([H])N([H])C(=O)C1([H])N(C(=O)C([H])(N([H])C(=O)C([H])(N([H])C([H])([H])[H])C([H])([H])[H])C(C([H])([H])[H])(C([H])([H])[H])C([H])([H])[H])C([H])([H])c2c([H])c(OC([H])([H])C([H])([H])C([H])(n3nc(C(F)(C([H])([H])[H])C([H])([H])N(C(=O)N4C([H])([H])C([H])([H])C([H])([H])C([H])(n5nc(-c6c([H])c([H])c(Oc7c([H])c([H])c(F)c([H])c7F)c([H])c6[H])c(C(=O)N([H])[H])c5N([H])[H])C4([H])[H])C([H])([H])[H])c([H])c3C([H])([H])[H])C([H])([H])[H])c([H])c([H])c2C1([H])[H]

>  <smiles>  (40) 
[H]c1c([H])c([H])c2c(c1[H])C([H])([H])C([H])([H])C([H])([H])C2([H])N([H])C(=O)C1([H])N(C(=O)C([H])(N([H])C(=O)C([H])(N([H])C([H])([H])[H])C([H])([H])[H])C(C([H])([H])[H])(C([H])([H])[H])C([H])([H])[H])C([H])([H])c2c([H])c(OC([H])([H])C([H])([H])C([H])(n3nc(C(F)(C([H])([H])[H])C([H])([H])N(C(=O)N4C([H])([H])C([H])([H])C([H])([H])C([H])(n5nc(-c6c([H])c([H])c(Oc7c([H])c([H])c(F)c([H])c7F)c([H])c6[H])c(C(=O)N([H])[H])c5N([H])[H])C4([H])[H])C([H])([H])[H])c([H])c3C([H])([H])[H])C([H])([H])[H])c([H])c([H])c2C1([H])[H]

$$$$
44:0:0
     RDKit          3D

 90 98  0  0  1  0  0  0  0  0999 V2000
  -30.0460  -20.4780   19.1730 C   0  0  0  0  0  3  0  0  0  0  0  0
  -29.4660  -21.4440   19.9530 C   0  0  0  0  0  0  0  0  0  0  0  0
  -29.2040  -20.8690   21.1960 N   0  0  0  0  0  0  0  0  0  0  0  0
  -29.5450  -19.6100   21.1810 N   0  0  0  0  0  0  0  0  0  0  0  0
  -30.0510  -19.3300   19.9510 N   0  0  0  0  0  0  0  0  0  0  0  0
  -29.0690  -17.3730   18.8200 C   0  0  0  0  0  1  0  0  0  0  0  0
  -30.3240  -17.9420   19.5100 C   0  0  0  0  0  3  0  0  0  0  0  0
  -30.9590  -16.9970   20.5910 C   0  0  0  0  0  2  0  0  0  0  0  0
  -30.8730  -14.5250   20.1270 C   0  0  0  0  0  0  0  0  0  0  0  0
  -30.4690  -12.4070   18.8990 C   0  0  0  0  0  2  0  0  0  0  0  0
  -29.4400  -12.6030   17.7630 C   0  0  0  0  0  2  0  0  0  0  0  0
  -27.9950  -12.4660   18.2820 C   0  0  0  0  0  2  0  0  0  0  0  0
  -27.7540  -13.2740   19.5840 C   0  0  0  0  0  3  0  0  0  0  0  0
  -28.8730  -12.9460   20.5950 C   0  0  0  0  0  2  0  0  0  0  0  0
  -30.1490  -13.3610   19.9850 N   0  0  0  0  0  0  0  0  0  0  0  0
  -31.9540  -14.6380   19.5390 O   0  0  0  0  0  0  0  0  0  0  0  0
  -29.3270  -15.6690   21.8080 C   0  0  0  0  0  1  0  0  0  0  0  0
  -30.3310  -15.6440   20.7300 N   0  0  0  0  0  0  0  0  0  0  0  0
  -25.4100  -13.9260   20.4250 C   0  0  0  0  0  0  0  0  0  0  0  0
  -24.3460  -13.1700   20.8410 C   0  0  0  0  0  0  0  0  0  0  0  0
  -24.7760  -11.8110   20.7660 C   0  0  0  0  0  0  0  0  0  0  0  0
  -26.4220  -13.0250   20.1300 N   0  0  0  0  0  0  0  0  0  0  0  0
  -26.0460  -11.7470   20.3870 N   0  0  0  0  0  0  0  0  0  0  0  0
  -24.0340  -10.5610   20.9770 C   0  0  0  0  0  0  0  0  0  0  0  0
  -24.4870   -9.5830   21.8880 C   0  0  0  0  0  3  0  0  0  0  0  0
  -23.7500   -8.3960   22.0880 C   0  0  0  0  0  3  0  0  0  0  0  0
  -22.5460   -8.1810   21.3750 C   0  0  0  0  0  0  0  0  0  0  0  0
  -22.1140   -9.1470   20.4510 C   0  0  0  0  0  3  0  0  0  0  0  0
  -22.8510  -10.3260   20.2490 C   0  0  0  0  0  3  0  0  0  0  0  0
  -21.7760   -7.0480   21.4860 O   0  0  0  0  0  0  0  0  0  0  0  0
  -21.7360   -6.3170   22.6470 C   0  0  0  0  0  0  0  0  0  0  0  0
  -21.3340   -6.8880   23.8740 C   0  0  0  0  0  3  0  0  0  0  0  0
  -21.2380   -6.0830   25.0280 C   0  0  0  0  0  3  0  0  0  0  0  0
  -21.5350   -4.7080   24.9540 C   0  0  0  0  0  0  0  0  0  0  0  0
  -21.9300   -4.1370   23.7320 C   0  0  0  0  0  3  0  0  0  0  0  0
  -22.0270   -4.9400   22.5810 C   0  0  0  0  0  0  0  0  0  0  0  0
  -22.3880   -4.3800   21.4010 F   0  0  0  0  0  0  0  0  0  0  0  0
  -21.4360   -3.9320   26.0600 F   0  0  0  0  0  0  0  0  0  0  0  0
  -22.9780  -13.6740   21.1980 C   0  0  0  0  0  0  0  0  0  0  0  0
  -22.2880  -12.9810   22.0980 N   0  0  0  0  0  0  0  0  0  0  0  0
  -22.5310  -14.7140   20.7160 O   0  0  0  0  0  0  0  0  0  0  0  0
  -22.6670  -12.1450   22.5160 H   0  0  0  0  0  0  0  0  0  0  0  0
  -21.3690  -13.2940   22.3760 H   0  0  0  0  0  0  0  0  0  0  0  0
  -25.5880  -15.2940   20.2540 N   0  0  0  0  0  0  0  0  0  0  0  0
  -24.8390  -15.9570   20.4180 H   0  0  0  0  0  0  0  0  0  0  0  0
  -26.4120  -15.7180   19.8490 H   0  0  0  0  0  0  0  0  0  0  0  0
  -28.8640  -22.7700   19.5160 C   0  0  0  0  0  2  0  0  0  0  0  0
  -29.2250  -24.0960   20.2590 C   0  0  0  0  0  2  0  0  0  0  0  0
  -28.1720  -25.1820   19.8850 C   0  0  0  0  0  2  0  0  0  0  0  0
  -28.3050  -26.5490   20.3540 O   0  0  0  0  0  0  0  0  0  0  0  0
  -24.5480  -31.8930   23.3030 C   0  0  0  0  0  0  0  0  0  0  0  0
  -27.1540  -27.3390   20.2950 C   0  0  0  0  0  0  0  0  0  0  0  0
  -23.3370  -30.4850   21.6760 C   0  0  0  0  0  3  0  0  0  0  0  0
  -24.7780  -28.9130   20.2800 C   0  0  0  0  0  0  0  0  0  0  0  0
  -25.8720  -30.7970   21.4940 C   0  0  0  0  0  2  0  0  0  0  0  0
  -25.9430  -29.4130   20.8720 C   0  0  0  0  0  0  0  0  0  0  0  0
  -27.1300  -28.6330   20.8820 C   0  0  0  0  0  3  0  0  0  0  0  0
  -25.9610  -26.8850   19.6730 C   0  0  0  0  0  3  0  0  0  0  0  0
  -24.7830  -27.6480   19.6770 C   0  0  0  0  0  3  0  0  0  0  0  0
  -23.5460  -29.7870   20.3080 C   0  0  0  0  0  2  0  0  0  0  0  0
  -24.6040  -31.0730   22.2150 N   0  0  0  0  0  0  0  0  0  0  0  0
  -23.4670  -32.1890   23.8300 O   0  0  0  0  0  0  0  0  0  0  0  0
  -22.6640  -29.4850   22.6460 C   0  0  0  0  0  0  0  0  0  0  0  0
  -21.3400  -29.3040   22.5040 N   0  0  0  0  0  0  0  0  0  0  0  0
  -23.3310  -28.8740   23.4850 O   0  0  0  0  0  0  0  0  0  0  0  0
  -20.8640  -29.8530   21.8020 H   0  0  0  0  0  0  0  0  0  0  0  0
  -17.9570  -28.1120   22.9650 C   0  0  0  0  0  0  0  0  0  0  0  0
  -20.5090  -28.3830   23.2800 C   0  0  0  0  0  3  0  0  0  0  0  0
  -20.6240  -26.9380   22.7430 C   0  0  0  0  0  2  0  0  0  0  0  0
  -19.5420  -26.5870   21.7160 C   0  0  0  0  0  2  0  0  0  0  0  0
  -18.1480  -26.7460   22.3300 C   0  0  0  0  0  2  0  0  0  0  0  0
  -19.0660  -28.8870   23.3980 C   0  0  0  0  0  0  0  0  0  0  0  0
  -18.8350  -30.1660   23.9510 C   0  0  0  0  0  3  0  0  0  0  0  0
  -17.5260  -30.6690   24.0770 C   0  0  0  0  0  3  0  0  0  0  0  0
  -16.4310  -29.8930   23.6580 C   0  0  0  0  0  3  0  0  0  0  0  0
  -16.6480  -28.6170   23.1100 C   0  0  0  0  0  3  0  0  0  0  0  0
  -25.8360  -32.5190   23.9220 C   0  0  0  0  0  3  0  0  0  0  0  0
  -25.5420  -33.9230   24.2370 N   0  0  0  0  0  0  0  0  0  0  0  0
  -25.8710  -34.9620   23.4590 C   0  0  0  0  0  0  0  0  0  0  0  0
  -26.5280  -34.8390   22.4210 O   0  0  0  0  0  0  0  0  0  0  0  0
  -24.9580  -34.0920   25.0420 H   0  0  0  0  0  0  0  0  0  0  0  0
  -24.1420  -36.7560   23.1080 C   0  0  0  0  0  1  0  0  0  0  0  0
  -25.3970  -36.3600   23.9030 C   0  0  0  0  0  3  0  0  0  0  0  0
  -27.5490  -37.2510   24.6780 C   0  0  0  0  0  1  0  0  0  0  0  0
  -26.4300  -37.4060   23.7510 N   0  0  0  0  0  0  0  0  0  0  0  0
  -26.0310  -38.3320   23.8880 H   0  0  0  0  0  0  0  0  0  0  0  0
  -26.3440  -31.7550   25.2060 C   0  0  1  0  0  0  0  0  0  0  0  0
  -25.2460  -31.5320   26.2730 C   0  0  0  0  0  1  0  0  0  0  0  0
  -26.9200  -30.3720   24.8240 C   0  0  0  0  0  1  0  0  0  0  0  0
  -27.4980  -32.5470   25.8640 C   0  0  0  0  0  1  0  0  0  0  0  0
  1  5  1  0
  1  2  2  0
  2  3  1  0
  4  3  2  0
  5  4  1  0
  7  6  1  0
  7  5  1  0
  7  8  1  0
  8 18  1  0
  9 18  1  0
 10 15  1  0
 11 12  1  0
 11 10  1  0
 13 12  1  0
 13 22  1  0
 13 14  1  0
 15  9  1  0
 15 14  1  0
 16  9  2  0
 18 17  1  0
 19 20  2  0
 20 39  1  0
 21 20  1  0
 21 24  1  0
 22 23  1  0
 22 19  1  0
 23 21  2  0
 24 25  1  0
 25 26  2  0
 27 30  1  0
 27 26  1  0
 28 27  2  0
 29 28  1  0
 29 24  2  0
 30 31  1  0
 31 32  1  0
 32 33  2  0
 34 33  1  0
 34 38  1  0
 35 34  2  0
 36 31  2  0
 36 35  1  0
 37 36  1  0
 39 40  1  0
 40 43  1  0
 40 42  1  0
 41 39  2  0
 44 45  1  0
 44 19  1  0
 46 44  1  0
 47  2  1  0
 47 48  1  0
 49 48  1  0
 49 50  1  0
 51 62  2  0
 52 50  1  0
 52 57  1  0
 53 61  1  0
 53 63  1  0
 54 60  1  0
 54 56  1  0
 55 61  1  0
 56 57  2  0
 56 55  1  0
 58 59  1  0
 58 52  2  0
 59 54  2  0
 60 53  1  0
 61 51  1  0
 63 65  2  0
 64 63  1  0
 66 64  1  0
 67 76  2  0
 67 72  1  0
 68 64  1  0
 68 72  1  0
 69 68  1  0
 70 71  1  0
 70 69  1  0
 71 67  1  0
 72 73  2  0
 73 74  1  0
 75 74  2  0
 76 75  1  0
 77 51  1  0
 77 78  1  0
 77 87  1  0
 78 81  1  0
 79 83  1  0
 79 78  1  0
 80 79  2  0
 83 82  1  0
 85 86  1  0
 85 83  1  0
 85 84  1  0
 87 90  1  1
 87 88  1  0
 89 87  1  0
M  ISO  4   9 100  18 100  49 101  50 101
M  END
>  <TORSDO>  (41) 
F 21

>  <SCORE>  (41) 
-12.708

>  <name>  (41) 
44

>  <ligand_id>  (41) 
44

>  <original_smiles>  (41) 
[H]c1c([H])c([H])c2c(c1[H])C([H])([H])C([H])([H])C([H])([H])C2([H])N([H])C(=O)C1([H])N(C(=O)C([H])(N([H])C(=O)C([H])(N([H])C([H])([H])[H])C([H])([H])[H])C(C([H])([H])[H])(C([H])([H])[H])C([H])([H])[H])C([H])([H])c2c([H])c(OC([H])([H])C([H])([H])C([H])([H])c3nnn(C([H])(C([H])([H])[H])C([H])([H])N(C(=O)N4C([H])([H])C([H])([H])C([H])([H])C([H])(n5nc(-c6c([H])c([H])c(Oc7c([H])c([H])c(F)c([H])c7F)c([H])c6[H])c(C(=O)N([H])[H])c5N([H])[H])C4([H])[H])C([H])([H])[H])c3[H])c([H])c([H])c2C1([H])[H]

>  <smiles>  (41) 
[H]c1c([H])c([H])c2c(c1[H])C([H])([H])C([H])([H])C([H])([H])C2([H])N([H])C(=O)C1([H])N(C(=O)C([H])(N([H])C(=O)C([H])(N([H])C([H])([H])[H])C([H])([H])[H])C(C([H])([H])[H])(C([H])([H])[H])C([H])([H])[H])C([H])([H])c2c([H])c(OC([H])([H])C([H])([H])C([H])([H])c3nnn(C([H])(C([H])([H])[H])C([H])([H])N(C(=O)N4C([H])([H])C([H])([H])C([H])([H])C([H])(n5nc(-c6c([H])c([H])c(Oc7c([H])c([H])c(F)c([H])c7F)c([H])c6[H])c(C(=O)N([H])[H])c5N([H])[H])C4([H])[H])C([H])([H])[H])c3[H])c([H])c([H])c2C1([H])[H]

$$$$
45:0:0
     RDKit          3D

 96104  0  0  1  0  0  0  0  0999 V2000
  -29.5730  -21.0640   19.2030 C   0  0  0  0  0  0  0  0  0  0  0  0
  -30.1230  -22.0520   18.3260 C   0  0  0  0  0  0  0  0  0  0  0  0
  -30.6360  -19.3230   18.0460 C   0  0  0  0  0  0  0  0  0  0  0  0
  -31.2270  -20.3150   17.1980 C   0  0  0  0  0  0  0  0  0  0  0  0
  -29.8380  -19.7370   19.0670 N   0  0  0  0  0  0  0  0  0  0  0  0
  -30.9560  -21.6550   17.3330 N   0  0  0  0  0  0  0  0  0  0  0  0
  -32.1570  -19.9370   16.0420 C   0  0  1  0  0  0  0  0  0  0  0  0
  -31.4650  -19.3130   15.0880 F   0  0  0  0  0  0  0  0  0  0  0  0
  -32.7210  -21.0240   15.5060 F   0  0  0  0  0  0  0  0  0  0  0  0
  -33.1330  -19.1340   16.4630 F   0  0  0  0  0  0  0  0  0  0  0  0
  -28.6240  -21.3670   20.3510 C   0  0  0  0  0  2  0  0  0  0  0  0
  -26.7410  -22.9050   21.1070 C   0  0  0  0  0  1  0  0  0  0  0  0
  -28.0270  -22.7820   20.2700 C   0  0  0  0  0  2  0  0  0  0  0  0
  -29.6100  -23.5250   18.2730 C   0  0  0  0  0  2  0  0  0  0  0  0
  -30.2540  -24.6880   19.1290 C   0  0  0  0  0  2  0  0  0  0  0  0
  -29.1590  -25.7500   19.5160 C   0  0  0  0  0  2  0  0  0  0  0  0
  -29.3980  -26.8600   20.4530 O   0  0  0  0  0  0  0  0  0  0  0  0
  -26.0390  -31.3010   25.0320 C   0  0  0  0  0  0  0  0  0  0  0  0
  -28.3000  -27.6950   20.7090 C   0  0  0  0  0  0  0  0  0  0  0  0
  -24.6740  -30.3460   23.2090 C   0  0  0  0  0  3  0  0  0  0  0  0
  -25.9700  -29.2280   21.3190 C   0  0  0  0  0  0  0  0  0  0  0  0
  -27.1920  -30.7230   22.8920 C   0  0  0  0  0  2  0  0  0  0  0  0
  -27.1950  -29.5540   21.9180 C   0  0  0  0  0  0  0  0  0  0  0  0
  -28.3610  -28.7940   21.6170 C   0  0  0  0  0  3  0  0  0  0  0  0
  -27.0540  -27.4480   20.0810 C   0  0  0  0  0  3  0  0  0  0  0  0
  -25.9000  -28.1800   20.3960 C   0  0  0  0  0  3  0  0  0  0  0  0
  -24.7560  -30.0480   21.6920 C   0  0  0  0  0  2  0  0  0  0  0  0
  -25.9920  -30.7940   23.7670 N   0  0  0  0  0  0  0  0  0  0  0  0
  -25.0100  -31.4280   25.7100 O   0  0  0  0  0  0  0  0  0  0  0  0
  -24.0840  -29.1130   23.9370 C   0  0  0  0  0  0  0  0  0  0  0  0
  -22.8170  -28.7820   23.6300 N   0  0  0  0  0  0  0  0  0  0  0  0
  -24.7660  -28.4670   24.7370 O   0  0  0  0  0  0  0  0  0  0  0  0
  -22.3180  -29.3590   22.9680 H   0  0  0  0  0  0  0  0  0  0  0  0
  -19.8200  -26.8000   23.2250 C   0  0  0  0  0  0  0  0  0  0  0  0
  -22.0740  -27.6390   24.1690 C   0  0  0  0  0  3  0  0  0  0  0  0
  -22.6660  -26.3020   23.6660 C   0  0  0  0  0  2  0  0  0  0  0  0
  -21.9830  -25.7810   22.4000 C   0  0  0  0  0  2  0  0  0  0  0  0
  -20.4860  -25.5650   22.6450 C   0  0  0  0  0  2  0  0  0  0  0  0
  -20.5670  -27.7820   23.9270 C   0  0  0  0  0  0  0  0  0  0  0  0
  -19.9000  -28.9280   24.4150 C   0  0  0  0  0  3  0  0  0  0  0  0
  -18.5160  -29.0950   24.2140 C   0  0  0  0  0  3  0  0  0  0  0  0
  -17.7820  -28.1100   23.5310 C   0  0  0  0  0  3  0  0  0  0  0  0
  -18.4340  -26.9670   23.0410 C   0  0  0  0  0  3  0  0  0  0  0  0
  -27.3810  -31.7660   25.6760 C   0  0  0  0  0  3  0  0  0  0  0  0
  -27.6190  -31.1720   27.1180 C   0  0  1  0  0  0  0  0  0  0  0  0
  -26.4610  -31.4420   28.1060 C   0  0  0  0  0  1  0  0  0  0  0  0
  -27.8320  -29.6420   27.0540 C   0  0  0  0  0  1  0  0  0  0  0  0
  -28.9100  -31.7740   27.7230 C   0  0  0  0  0  1  0  0  0  0  0  0
  -27.3690  -33.2360   25.7130 N   0  0  0  0  0  0  0  0  0  0  0  0
  -28.1290  -34.0220   24.9390 C   0  0  0  0  0  0  0  0  0  0  0  0
  -28.9750  -33.5780   24.1570 O   0  0  0  0  0  0  0  0  0  0  0  0
  -26.6680  -33.6680   26.2970 H   0  0  0  0  0  0  0  0  0  0  0  0
  -27.1090  -36.0410   23.8370 C   0  0  0  0  0  1  0  0  0  0  0  0
  -27.9170  -35.5440   25.0460 C   0  0  0  0  0  3  0  0  0  0  0  0
  -29.8550  -36.1330   26.4340 C   0  0  0  0  0  1  0  0  0  0  0  0
  -29.1770  -36.3110   25.1520 N   0  0  0  0  0  0  0  0  0  0  0  0
  -29.0050  -37.3030   25.0200 H   0  0  0  0  0  0  0  0  0  0  0  0
  -30.8010  -17.7770   17.7880 C   0  0  0  0  0  2  0  0  0  0  0  0
  -31.1290  -15.3850   18.3690 C   0  0  0  0  0  0  0  0  0  0  0  0
  -30.6380  -13.0640   17.6450 C   0  0  0  0  0  2  0  0  0  0  0  0
  -29.3860  -13.0320   16.7490 C   0  0  0  0  0  2  0  0  0  0  0  0
  -28.1080  -12.9040   17.6030 C   0  0  0  0  0  2  0  0  0  0  0  0
  -28.0820  -13.8990   18.7920 C   0  0  0  0  0  3  0  0  0  0  0  0
  -29.4200  -13.8510   19.5570 C   0  0  0  0  0  2  0  0  0  0  0  0
  -30.4840  -14.1880   18.5920 N   0  0  0  0  0  0  0  0  0  0  0  0
  -32.1020  -15.4200   17.6100 O   0  0  0  0  0  0  0  0  0  0  0  0
  -29.9600  -16.8610   20.0180 C   0  0  0  0  0  1  0  0  0  0  0  0
  -30.5180  -16.5850   18.6810 N   0  0  0  0  0  0  0  0  0  0  0  0
  -26.1110  -14.5920   20.2890 C   0  0  0  0  0  0  0  0  0  0  0  0
  -25.1450  -13.8640   20.9260 C   0  0  0  0  0  0  0  0  0  0  0  0
  -25.4320  -12.4920   20.6430 C   0  0  0  0  0  0  0  0  0  0  0  0
  -26.9320  -13.6680   19.6620 N   0  0  0  0  0  0  0  0  0  0  0  0
  -26.5450  -12.3950   19.9250 N   0  0  0  0  0  0  0  0  0  0  0  0
  -24.6810  -11.2720   20.9600 C   0  0  0  0  0  0  0  0  0  0  0  0
  -25.2750  -10.2070   21.6720 C   0  0  0  0  0  3  0  0  0  0  0  0
  -24.5270   -9.0510   21.9840 C   0  0  0  0  0  3  0  0  0  0  0  0
  -23.1740   -8.9510   21.5850 C   0  0  0  0  0  0  0  0  0  0  0  0
  -22.5930  -10.0060   20.8580 C   0  0  0  0  0  3  0  0  0  0  0  0
  -23.3380  -11.1540   20.5450 C   0  0  0  0  0  3  0  0  0  0  0  0
  -22.3800   -7.8540   21.8180 O   0  0  0  0  0  0  0  0  0  0  0  0
  -22.3860   -7.2050   23.0280 C   0  0  0  0  0  0  0  0  0  0  0  0
  -22.0530   -7.8660   24.2310 C   0  0  0  0  0  3  0  0  0  0  0  0
  -22.0050   -7.1430   25.4400 C   0  0  0  0  0  3  0  0  0  0  0  0
  -22.2800   -5.7620   25.4480 C   0  0  0  0  0  0  0  0  0  0  0  0
  -22.6080   -5.1030   24.2490 C   0  0  0  0  0  3  0  0  0  0  0  0
  -22.6590   -5.8220   23.0430 C   0  0  0  0  0  0  0  0  0  0  0  0
  -22.9540   -5.1780   21.8880 F   0  0  0  0  0  0  0  0  0  0  0  0
  -22.2290   -5.0650   26.6080 F   0  0  0  0  0  0  0  0  0  0  0  0
  -23.9670  -14.4090   21.6820 C   0  0  0  0  0  0  0  0  0  0  0  0
  -23.5510  -13.7340   22.7470 N   0  0  0  0  0  0  0  0  0  0  0  0
  -23.4350  -15.4710   21.3560 O   0  0  0  0  0  0  0  0  0  0  0  0
  -24.0000  -12.8790   23.0360 H   0  0  0  0  0  0  0  0  0  0  0  0
  -22.7730  -14.0880   23.2890 H   0  0  0  0  0  0  0  0  0  0  0  0
  -26.3560  -15.9580   20.1740 N   0  0  0  0  0  0  0  0  0  0  0  0
  -25.7430  -16.6530   20.5820 H   0  0  0  0  0  0  0  0  0  0  0  0
  -27.1110  -16.3640   19.6380 H   0  0  0  0  0  0  0  0  0  0  0  0
  1 11  1  0
  2  1  2  0
  3  5  2  0
  4  6  2  0
  4  3  1  0
  5  1  1  0
  6  2  1  0
  7 10  1  1
  7  4  1  0
  8  7  1  0
  9  7  1  0
 13 11  1  0
 13 12  1  0
 14  2  1  0
 14 15  1  0
 15 16  1  0
 16 17  1  0
 17 19  1  0
 18 29  2  0
 19 24  1  0
 20 28  1  0
 20 30  1  0
 21 27  1  0
 21 23  1  0
 22 28  1  0
 23 22  1  0
 24 23  2  0
 25 26  1  0
 25 19  2  0
 26 21  2  0
 27 20  1  0
 28 18  1  0
 30 32  2  0
 31 30  1  0
 33 31  1  0
 34 39  1  0
 35 31  1  0
 36 35  1  0
 37 38  1  0
 37 36  1  0
 38 34  1  0
 39 35  1  0
 39 40  2  0
 41 40  1  0
 42 41  2  0
 43 34  2  0
 43 42  1  0
 44 18  1  0
 44 49  1  0
 44 45  1  0
 45 48  1  1
 45 46  1  0
 47 45  1  0
 49 52  1  0
 50 54  1  0
 50 49  1  0
 51 50  2  0
 54 53  1  0
 54 56  1  0
 56 55  1  0
 57 56  1  0
 58  3  1  0
 58 68  1  0
 59 65  1  0
 59 68  1  0
 60 65  1  0
 61 62  1  0
 61 60  1  0
 63 62  1  0
 63 64  1  0
 63 72  1  0
 65 64  1  0
 66 59  2  0
 68 67  1  0
 69 70  2  0
 70 89  1  0
 71 70  1  0
 71 74  1  0
 72 73  1  0
 72 69  1  0
 73 71  2  0
 74 75  1  0
 75 76  2  0
 77 80  1  0
 77 76  1  0
 78 77  2  0
 79 78  1  0
 79 74  2  0
 80 81  1  0
 81 86  2  0
 81 82  1  0
 82 83  2  0
 83 84  1  0
 84 88  1  0
 85 84  2  0
 86 85  1  0
 87 86  1  0
 89 90  1  0
 90 92  1  0
 90 93  1  0
 91 89  2  0
 94 69  1  0
 94 95  1  0
 96 94  1  0
M  ISO  4  16 101  17 101  59 100  68 100
M  END
>  <TORSDO>  (42) 
F 23

>  <SCORE>  (42) 
1.678

>  <name>  (42) 
45

>  <ligand_id>  (42) 
45

>  <original_smiles>  (42) 
[H]c1c([H])c([H])c2c(c1[H])C([H])([H])C([H])([H])C([H])([H])C2([H])N([H])C(=O)C1([H])N(C(=O)C([H])(N([H])C(=O)C([H])(N([H])C([H])([H])[H])C([H])([H])[H])C(C([H])([H])[H])(C([H])([H])[H])C([H])([H])[H])C([H])([H])c2c([H])c(OC([H])([H])C([H])([H])C([H])([H])c3nc(C(F)(F)F)c(C([H])([H])N(C(=O)N4C([H])([H])C([H])([H])C([H])([H])C([H])(n5nc(-c6c([H])c([H])c(Oc7c([H])c([H])c(F)c([H])c7F)c([H])c6[H])c(C(=O)N([H])[H])c5N([H])[H])C4([H])[H])C([H])([H])[H])nc3C([H])([H])C([H])([H])C([H])([H])[H])c([H])c([H])c2C1([H])[H]

>  <smiles>  (42) 
[H]c1c([H])c([H])c2c(c1[H])C([H])([H])C([H])([H])C([H])([H])C2([H])N([H])C(=O)C1([H])N(C(=O)C([H])(N([H])C(=O)C([H])(N([H])C([H])([H])[H])C([H])([H])[H])C(C([H])([H])[H])(C([H])([H])[H])C([H])([H])[H])C([H])([H])c2c([H])c(OC([H])([H])C([H])([H])C([H])([H])c3nc(C(F)(F)F)c(C([H])([H])N(C(=O)N4C([H])([H])C([H])([H])C([H])([H])C([H])(n5nc(-c6c([H])c([H])c(Oc7c([H])c([H])c(F)c([H])c7F)c([H])c6[H])c(C(=O)N([H])[H])c5N([H])[H])C4([H])[H])C([H])([H])[H])nc3C([H])([H])C([H])([H])C([H])([H])[H])c([H])c([H])c2C1([H])[H]

$$$$
46:0:0
     RDKit          3D

 89 97  0  0  1  0  0  0  0  0999 V2000
  -30.4520  -20.6470   20.2420 C   0  0  0  0  0  2  0  0  0  0  0  0
  -29.2190  -21.4180   20.3250 C   0  0  0  0  0  0  0  0  0  0  0  0
  -29.5030  -18.4190   20.3430 C   0  0  0  0  0  0  0  0  0  0  0  0
  -30.5880  -19.2360   20.2220 N   0  0  0  0  0  0  0  0  0  0  0  0
  -28.1620  -20.5200   20.3930 N   0  0  0  0  0  0  0  0  0  0  0  0
  -28.3040  -19.1230   20.4350 N   0  0  0  0  0  2  0  0  0  0  0  0
  -28.9580  -16.6830   18.5940 C   0  0  0  0  0  1  0  0  0  0  0  0
  -29.3660  -16.7090   20.0830 C   0  0  1  0  0  0  0  0  0  0  0  0
  -30.3740  -15.2750   20.1850 C   0  0  0  0  0  0  0  0  0  0  0  0
  -30.4040  -12.8520   19.2860 C   0  0  0  0  0  2  0  0  0  0  0  0
  -29.4360  -12.7080   18.0800 C   0  0  0  0  0  2  0  0  0  0  0  0
  -27.9860  -12.4500   18.5410 C   0  0  0  0  0  2  0  0  0  0  0  0
  -27.5820  -13.3530   19.7320 C   0  0  0  0  0  3  0  0  0  0  0  0
  -28.6720  -13.4030   20.8210 C   0  0  0  0  0  2  0  0  0  0  0  0
  -29.8930  -13.9360   20.1910 N   0  0  0  0  0  0  0  0  0  0  0  0
  -31.5950  -15.3360   19.9680 O   0  0  0  0  0  0  0  0  0  0  0  0
  -25.2280  -13.9160   20.5510 C   0  0  0  0  0  0  0  0  0  0  0  0
  -24.1730  -13.1360   20.9280 C   0  0  0  0  0  0  0  0  0  0  0  0
  -24.6380  -11.7870   20.8600 C   0  0  0  0  0  0  0  0  0  0  0  0
  -26.2630  -13.0410   20.2660 N   0  0  0  0  0  0  0  0  0  0  0  0
  -25.9210  -11.7540   20.5210 N   0  0  0  0  0  0  0  0  0  0  0  0
  -23.9170  -10.5230   21.0490 C   0  0  0  0  0  0  0  0  0  0  0  0
  -24.3650   -9.5480   21.9680 C   0  0  0  0  0  3  0  0  0  0  0  0
  -23.6460   -8.3480   22.1440 C   0  0  0  0  0  3  0  0  0  0  0  0
  -22.4650   -8.1130   21.4020 C   0  0  0  0  0  0  0  0  0  0  0  0
  -22.0340   -9.0770   20.4740 C   0  0  0  0  0  3  0  0  0  0  0  0
  -22.7530  -10.2710   20.2970 C   0  0  0  0  0  3  0  0  0  0  0  0
  -21.7150   -6.9640   21.4880 O   0  0  0  0  0  0  0  0  0  0  0  0
  -21.6710   -6.2210   22.6390 C   0  0  0  0  0  0  0  0  0  0  0  0
  -21.2220   -6.7660   23.8620 C   0  0  0  0  0  3  0  0  0  0  0  0
  -21.1270   -5.9460   25.0040 C   0  0  0  0  0  3  0  0  0  0  0  0
  -21.4680   -4.5830   24.9230 C   0  0  0  0  0  0  0  0  0  0  0  0
  -21.9060   -4.0370   23.7050 C   0  0  0  0  0  3  0  0  0  0  0  0
  -22.0050   -4.8540   22.5650 C   0  0  0  0  0  0  0  0  0  0  0  0
  -22.4110   -4.3190   21.3870 F   0  0  0  0  0  0  0  0  0  0  0  0
  -21.3670   -3.7930   26.0170 F   0  0  0  0  0  0  0  0  0  0  0  0
  -22.7840  -13.6080   21.2460 C   0  0  0  0  0  0  0  0  0  0  0  0
  -22.0800  -12.8940   22.1160 N   0  0  0  0  0  0  0  0  0  0  0  0
  -22.3360  -14.6470   20.7610 O   0  0  0  0  0  0  0  0  0  0  0  0
  -22.4600  -12.0520   22.5260 H   0  0  0  0  0  0  0  0  0  0  0  0
  -21.1520  -13.1940   22.3750 H   0  0  0  0  0  0  0  0  0  0  0  0
  -25.3980  -15.2880   20.4040 N   0  0  0  0  0  0  0  0  0  0  0  0
  -24.6880  -15.9630   20.6630 H   0  0  0  0  0  0  0  0  0  0  0  0
  -26.3330  -15.6870   20.3280 H   0  0  0  0  0  0  0  0  0  0  0  0
  -28.1650  -16.3920   20.7630 O   0  0  0  0  0  0  0  0  0  0  0  0
  -27.7610  -17.2530   20.8870 H   0  0  0  0  0  0  0  0  0  0  0  0
  -29.1360  -23.1210   20.0520 C   0  0  0  0  0  3  0  0  0  0  0  0
  -28.1000  -24.4690   20.4940 C   0  0  0  0  0  3  0  0  0  0  0  0
  -28.2900  -26.0690   20.3020 O   0  0  0  0  0  0  0  0  0  0  0  0
  -24.6260  -31.9190   23.2460 C   0  0  0  0  0  0  0  0  0  0  0  0
  -27.2340  -27.0970   20.2770 C   0  0  0  0  0  0  0  0  0  0  0  0
  -23.4450  -30.5060   21.6090 C   0  0  0  0  0  3  0  0  0  0  0  0
  -24.9070  -28.9050   20.2120 C   0  0  0  0  0  0  0  0  0  0  0  0
  -26.0040  -30.7540   21.4630 C   0  0  0  0  0  2  0  0  0  0  0  0
  -26.0870  -29.3430   20.8260 C   0  0  0  0  0  0  0  0  0  0  0  0
  -27.2480  -28.4590   20.8310 C   0  0  0  0  0  3  0  0  0  0  0  0
  -26.0220  -26.7890   19.6190 C   0  0  0  0  0  3  0  0  0  0  0  0
  -24.8940  -27.6460   19.5880 C   0  0  0  0  0  3  0  0  0  0  0  0
  -23.6820  -29.8130   20.2410 C   0  0  0  0  0  2  0  0  0  0  0  0
  -24.7120  -31.0840   22.1610 N   0  0  0  0  0  0  0  0  0  0  0  0
  -23.5340  -32.2070   23.7630 O   0  0  0  0  0  0  0  0  0  0  0  0
  -22.7570  -29.5110   22.5800 C   0  0  0  0  0  0  0  0  0  0  0  0
  -21.4290  -29.3350   22.4500 N   0  0  0  0  0  0  0  0  0  0  0  0
  -23.4230  -28.8990   23.4180 O   0  0  0  0  0  0  0  0  0  0  0  0
  -20.9440  -29.8840   21.7540 H   0  0  0  0  0  0  0  0  0  0  0  0
  -18.0510  -28.1220   22.9600 C   0  0  0  0  0  0  0  0  0  0  0  0
  -20.6090  -28.3990   23.2250 C   0  0  0  0  0  3  0  0  0  0  0  0
  -20.7160  -26.9640   22.6570 C   0  0  0  0  0  2  0  0  0  0  0  0
  -19.6160  -26.6310   21.6450 C   0  0  0  0  0  2  0  0  0  0  0  0
  -18.2340  -26.7710   22.2890 C   0  0  0  0  0  2  0  0  0  0  0  0
  -19.1660  -28.8930   23.3880 C   0  0  0  0  0  0  0  0  0  0  0  0
  -18.9380  -30.1540   23.9820 C   0  0  0  0  0  3  0  0  0  0  0  0
  -17.6300  -30.6460   24.1470 C   0  0  0  0  0  3  0  0  0  0  0  0
  -16.5300  -29.8720   23.7360 C   0  0  0  0  0  3  0  0  0  0  0  0
  -16.7420  -28.6130   23.1500 C   0  0  0  0  0  3  0  0  0  0  0  0
  -25.8940  -32.5710   23.8770 C   0  0  0  0  0  3  0  0  0  0  0  0
  -26.3980  -31.8180   25.1700 C   0  0  1  0  0  0  0  0  0  0  0  0
  -25.2930  -31.5910   26.2290 C   0  0  0  0  0  1  0  0  0  0  0  0
  -26.9900  -30.4370   24.8070 C   0  0  0  0  0  1  0  0  0  0  0  0
  -27.5410  -32.6230   25.8350 C   0  0  0  0  0  1  0  0  0  0  0  0
  -25.5720  -33.9730   24.1970 N   0  0  0  0  0  0  0  0  0  0  0  0
  -25.9000  -35.0260   23.4370 C   0  0  0  0  0  0  0  0  0  0  0  0
  -26.5700  -34.9220   22.4070 O   0  0  0  0  0  0  0  0  0  0  0  0
  -24.9740  -34.1240   24.9960 H   0  0  0  0  0  0  0  0  0  0  0  0
  -24.1710  -36.8210   23.0800 C   0  0  0  0  0  1  0  0  0  0  0  0
  -25.4120  -36.4170   23.8920 C   0  0  0  0  0  3  0  0  0  0  0  0
  -27.5400  -37.3150   24.7280 C   0  0  0  0  0  1  0  0  0  0  0  0
  -26.4430  -37.4710   23.7780 N   0  0  0  0  0  0  0  0  0  0  0  0
  -26.0340  -38.3910   23.9140 H   0  0  0  0  0  0  0  0  0  0  0  0
  1  2  1  0
  2  5  2  0
  3  6  1  0
  4  1  1  0
  4  3  2  0
  5  6  1  0
  8  7  1  6
  8  9  1  0
  8  3  1  0
  8 45  1  0
  9 15  1  0
 10 15  1  0
 11 12  1  0
 11 10  1  0
 13 12  1  0
 13 20  1  0
 13 14  1  0
 15 14  1  0
 16  9  2  0
 17 18  2  0
 18 37  1  0
 19 18  1  0
 19 22  1  0
 20 21  1  0
 20 17  1  0
 21 19  2  0
 22 23  1  0
 23 24  2  0
 25 28  1  0
 25 24  1  0
 26 25  2  0
 27 26  1  0
 27 22  2  0
 28 29  1  0
 29 30  1  0
 30 31  2  0
 32 31  1  0
 32 36  1  0
 33 32  2  0
 34 29  2  0
 34 33  1  0
 35 34  1  0
 37 38  1  0
 38 41  1  0
 38 40  1  0
 39 37  2  0
 42 17  1  0
 42 43  1  0
 44 42  1  0
 45 46  1  0
 47  2  1  0
 47 48  2  0
 49 48  1  0
 50 61  2  0
 51 49  1  0
 51 56  1  0
 52 60  1  0
 52 62  1  0
 53 59  1  0
 53 55  1  0
 54 60  1  0
 55 56  2  0
 55 54  1  0
 57 51  2  0
 58 57  1  0
 58 53  2  0
 59 52  1  0
 60 50  1  0
 62 64  2  0
 63 62  1  0
 65 63  1  0
 66 75  2  0
 66 71  1  0
 67 63  1  0
 67 71  1  0
 68 67  1  0
 69 70  1  0
 69 68  1  0
 70 66  1  0
 71 72  2  0
 72 73  1  0
 74 73  2  0
 75 74  1  0
 76 50  1  0
 76 81  1  0
 76 77  1  0
 77 80  1  1
 77 78  1  0
 79 77  1  0
 81 84  1  0
 82 86  1  0
 82 81  1  0
 83 82  2  0
 86 85  1  0
 88 86  1  0
 88 89  1  0
 88 87  1  0
M  ISO  4   8 100   9 100  48 101  49 101
M  END
>  <TORSDO>  (43) 
F 20

>  <SCORE>  (43) 
-15.868

>  <name>  (43) 
46

>  <ligand_id>  (43) 
46

>  <original_smiles>  (43) 
[H]OC(C(=O)N1C([H])([H])C([H])([H])C([H])([H])C([H])(n2nc(-c3c([H])c([H])c(Oc4c([H])c([H])c(F)c([H])c4F)c([H])c3[H])c(C(=O)N([H])[H])c2N([H])[H])C1([H])[H])(c1nnc(C([H])([H])C([H])([H])Oc2c([H])c([H])c3c(c2[H])C([H])([H])N(C(=O)C([H])(N([H])C(=O)C([H])(N([H])C([H])([H])[H])C([H])([H])[H])C(C([H])([H])[H])(C([H])([H])[H])C([H])([H])[H])C([H])(C(=O)N([H])C2([H])c4c([H])c([H])c([H])c([H])c4C([H])([H])C([H])([H])C2([H])[H])C3([H])[H])c([H])n1)C([H])([H])[H]

>  <smiles>  (43) 
[H]OC(C(=O)N1C([H])([H])C([H])([H])C([H])([H])C([H])(n2nc(-c3c([H])c([H])c(Oc4c([H])c([H])c(F)c([H])c4F)c([H])c3[H])c(C(=O)N([H])[H])c2N([H])[H])C1([H])[H])(c1nnc(C([H])([H])C([H])([H])Oc2c([H])c([H])c3c(c2[H])C([H])([H])N(C(=O)C([H])(N([H])C(=O)C([H])(N([H])C([H])([H])[H])C([H])([H])[H])C(C([H])([H])[H])(C([H])([H])[H])C([H])([H])[H])C([H])(C(=O)N([H])C2([H])c4c([H])c([H])c([H])c([H])c4C([H])([H])C([H])([H])C2([H])[H])C3([H])[H])c([H])n1)C([H])([H])[H]

$$$$
47:0:0
     RDKit          3D

 92100  0  0  1  0  0  0  0  0999 V2000
  -31.1280  -20.6620   20.7240 C   0  0  0  0  0  3  0  0  0  0  0  0
  -31.1640  -18.6110   20.1040 C   0  0  0  0  0  3  0  0  0  0  0  0
  -31.9080  -20.6130   19.6400 N   0  0  0  0  0  2  0  0  0  0  0  0
  -31.9150  -19.2920   19.2290 N   0  0  0  0  0  2  0  0  0  0  0  0
  -30.7740  -19.4080   21.1500 N   0  0  0  0  0  0  0  0  0  0  0  0
  -30.9240  -19.3780   23.6390 C   0  0  0  0  0  1  0  0  0  0  0  0
  -30.0800  -19.0540   22.3860 C   0  0  0  0  0  2  0  0  0  0  0  0
  -29.1080  -17.2220   19.4310 C   0  0  0  0  0  1  0  0  0  0  0  0
  -30.6150  -17.2060   19.7390 C   0  0  0  0  0  3  0  0  0  0  0  0
  -31.6330  -14.9100   20.0160 C   0  0  0  0  0  0  0  0  0  0  0  0
  -31.3300  -12.6270   19.0480 C   0  0  0  0  0  2  0  0  0  0  0  0
  -30.3600  -12.6130   17.8470 C   0  0  0  0  0  2  0  0  0  0  0  0
  -28.8960  -12.5090   18.3080 C   0  0  0  0  0  2  0  0  0  0  0  0
  -28.5620  -13.4750   19.4720 C   0  0  0  0  0  3  0  0  0  0  0  0
  -29.6400  -13.4430   20.5830 C   0  0  0  0  0  2  0  0  0  0  0  0
  -30.9460  -13.7220   19.9670 N   0  0  0  0  0  0  0  0  0  0  0  0
  -32.7110  -15.0360   19.4260 O   0  0  0  0  0  0  0  0  0  0  0  0
  -31.0710  -16.2360   22.0180 C   0  0  0  0  0  1  0  0  0  0  0  0
  -31.0030  -16.0070   20.5670 N   0  0  0  0  0  0  0  0  0  0  0  0
  -26.2240  -14.1820   20.2820 C   0  0  0  0  0  0  0  0  0  0  0  0
  -25.1380  -13.4560   20.6840 C   0  0  0  0  0  0  0  0  0  0  0  0
  -25.5370  -12.0870   20.6170 C   0  0  0  0  0  0  0  0  0  0  0  0
  -27.2190  -13.2590   20.0000 N   0  0  0  0  0  0  0  0  0  0  0  0
  -26.8100  -11.9930   20.2570 N   0  0  0  0  0  0  0  0  0  0  0  0
  -24.7650  -10.8570   20.8160 C   0  0  0  0  0  0  0  0  0  0  0  0
  -25.0640   -9.9640   21.8680 C   0  0  0  0  0  3  0  0  0  0  0  0
  -24.2960   -8.7930   22.0500 C   0  0  0  0  0  3  0  0  0  0  0  0
  -23.2170   -8.5080   21.1780 C   0  0  0  0  0  0  0  0  0  0  0  0
  -22.9390   -9.3890   20.1190 C   0  0  0  0  0  3  0  0  0  0  0  0
  -23.7070  -10.5500   19.9360 C   0  0  0  0  0  3  0  0  0  0  0  0
  -22.4290   -7.3880   21.2640 O   0  0  0  0  0  0  0  0  0  0  0  0
  -22.0340   -6.8790   22.4730 C   0  0  0  0  0  0  0  0  0  0  0  0
  -21.2690   -7.6360   23.3880 C   0  0  0  0  0  3  0  0  0  0  0  0
  -20.8270   -7.0460   24.5900 C   0  0  0  0  0  3  0  0  0  0  0  0
  -21.1430   -5.7030   24.8750 C   0  0  0  0  0  0  0  0  0  0  0  0
  -21.9060   -4.9490   23.9640 C   0  0  0  0  0  3  0  0  0  0  0  0
  -22.3450   -5.5360   22.7640 C   0  0  0  0  0  0  0  0  0  0  0  0
  -23.0620   -4.8010   21.8800 F   0  0  0  0  0  0  0  0  0  0  0  0
  -20.7120   -5.1340   26.0240 F   0  0  0  0  0  0  0  0  0  0  0  0
  -23.7750  -13.9900   21.0180 C   0  0  0  0  0  0  0  0  0  0  0  0
  -23.0600  -13.3260   21.9210 N   0  0  0  0  0  0  0  0  0  0  0  0
  -23.3560  -15.0340   20.5170 O   0  0  0  0  0  0  0  0  0  0  0  0
  -23.4180  -12.4880   22.3560 H   0  0  0  0  0  0  0  0  0  0  0  0
  -22.1450  -13.6630   22.1790 H   0  0  0  0  0  0  0  0  0  0  0  0
  -26.4320  -15.5470   20.1170 N   0  0  0  0  0  0  0  0  0  0  0  0
  -25.7010  -16.2230   20.3080 H   0  0  0  0  0  0  0  0  0  0  0  0
  -27.2850  -15.9680   19.7750 H   0  0  0  0  0  0  0  0  0  0  0  0
  -30.7400  -21.9840   21.4110 C   0  0  0  0  0  3  0  0  0  0  0  0
  -30.4310  -23.2100   20.4620 C   0  0  0  0  0  3  0  0  0  0  0  0
  -29.8270  -24.5300   21.0990 C   0  0  0  0  0  2  0  0  0  0  0  0
  -28.7250  -25.3000   20.2840 C   0  0  0  0  0  2  0  0  0  0  0  0
  -28.7380  -26.7480   20.4740 O   0  0  0  0  0  0  0  0  0  0  0  0
  -24.7570  -31.9330   23.3450 C   0  0  0  0  0  0  0  0  0  0  0  0
  -27.5520  -27.4770   20.3750 C   0  0  0  0  0  0  0  0  0  0  0  0
  -23.6110  -30.4870   21.6980 C   0  0  0  0  0  3  0  0  0  0  0  0
  -25.1230  -28.9680   20.3080 C   0  0  0  0  0  0  0  0  0  0  0  0
  -26.1360  -30.8950   21.5360 C   0  0  0  0  0  2  0  0  0  0  0  0
  -26.2630  -29.5180   20.9070 C   0  0  0  0  0  0  0  0  0  0  0  0
  -27.4780  -28.7850   20.9260 C   0  0  0  0  0  3  0  0  0  0  0  0
  -26.3920  -26.9590   19.7500 C   0  0  0  0  0  3  0  0  0  0  0  0
  -25.1850  -27.6890   19.7230 C   0  0  0  0  0  3  0  0  0  0  0  0
  -23.8560  -29.7970   20.3300 C   0  0  0  0  0  2  0  0  0  0  0  0
  -24.8510  -31.1240   22.2500 N   0  0  0  0  0  0  0  0  0  0  0  0
  -23.6610  -32.1830   23.8660 O   0  0  0  0  0  0  0  0  0  0  0  0
  -22.9690  -29.4610   22.6620 C   0  0  0  0  0  0  0  0  0  0  0  0
  -21.6690  -29.1880   22.4690 N   0  0  0  0  0  0  0  0  0  0  0  0
  -23.6430  -28.9080   23.5330 O   0  0  0  0  0  0  0  0  0  0  0  0
  -21.1820  -29.6910   21.7400 H   0  0  0  0  0  0  0  0  0  0  0  0
  -18.3640  -27.7600   22.7950 C   0  0  0  0  0  0  0  0  0  0  0  0
  -20.8710  -28.2250   23.2270 C   0  0  0  0  0  3  0  0  0  0  0  0
  -21.1190  -26.7830   22.7260 C   0  0  0  0  0  2  0  0  0  0  0  0
  -20.1190  -26.3340   21.6560 C   0  0  0  0  0  2  0  0  0  0  0  0
  -18.6880  -26.4020   22.1950 C   0  0  0  0  0  2  0  0  0  0  0  0
  -19.3910  -28.6220   23.2640 C   0  0  0  0  0  0  0  0  0  0  0  0
  -19.0400  -29.8900   23.7790 C   0  0  0  0  0  3  0  0  0  0  0  0
  -17.6930  -30.2960   23.8330 C   0  0  0  0  0  3  0  0  0  0  0  0
  -16.6800  -29.4310   23.3830 C   0  0  0  0  0  3  0  0  0  0  0  0
  -17.0160  -28.1660   22.8700 C   0  0  0  0  0  3  0  0  0  0  0  0
  -26.0170  -32.6010   23.9780 C   0  0  0  0  0  3  0  0  0  0  0  0
  -25.6750  -33.9970   24.2770 N   0  0  0  0  0  0  0  0  0  0  0  0
  -25.9930  -35.0420   23.5010 C   0  0  0  0  0  0  0  0  0  0  0  0
  -26.6770  -34.9340   22.4790 O   0  0  0  0  0  0  0  0  0  0  0  0
  -25.0710  -34.1560   25.0700 H   0  0  0  0  0  0  0  0  0  0  0  0
  -24.2280  -36.7890   23.0960 C   0  0  0  0  0  1  0  0  0  0  0  0
  -25.4700  -36.4270   23.9270 C   0  0  0  0  0  3  0  0  0  0  0  0
  -27.5720  -37.3820   24.7660 C   0  0  0  0  0  1  0  0  0  0  0  0
  -26.4780  -37.5030   23.8050 N   0  0  0  0  0  0  0  0  0  0  0  0
  -26.0470  -38.4150   23.9260 H   0  0  0  0  0  0  0  0  0  0  0  0
  -26.5250  -31.8630   25.2790 C   0  0  1  0  0  0  0  0  0  0  0  0
  -25.4060  -31.5850   26.3090 C   0  0  0  0  0  1  0  0  0  0  0  0
  -27.1840  -30.5120   24.9190 C   0  0  0  0  0  1  0  0  0  0  0  0
  -27.6080  -32.7180   25.9770 C   0  0  0  0  0  1  0  0  0  0  0  0
  1  5  1  0
  1 48  1  0
  2  9  1  0
  2  5  1  0
  3  1  1  0
  4  3  1  0
  4  2  1  0
  5  7  1  0
  7  6  1  0
  9  8  1  0
  9 19  1  0
 10 19  1  0
 11 16  1  0
 12 13  1  0
 12 11  1  0
 14 13  1  0
 14 23  1  0
 14 15  1  0
 16 10  1  0
 16 15  1  0
 17 10  2  0
 19 18  1  0
 20 21  2  0
 21 40  1  0
 22 21  1  0
 22 25  1  0
 23 24  1  0
 23 20  1  0
 24 22  2  0
 25 26  1  0
 26 27  2  0
 28 31  1  0
 28 27  1  0
 29 28  2  0
 30 29  1  0
 30 25  2  0
 31 32  1  0
 32 37  2  0
 32 33  1  0
 33 34  2  0
 34 35  1  0
 35 39  1  0
 36 35  2  0
 37 36  1  0
 38 37  1  0
 40 41  1  0
 41 44  1  0
 41 43  1  0
 42 40  2  0
 45 20  1  0
 45 46  1  0
 47 45  1  0
 49 50  1  0
 49 48  2  0
 51 52  1  0
 51 50  1  0
 53 64  2  0
 54 52  1  0
 54 59  1  0
 55 63  1  0
 55 65  1  0
 56 62  1  0
 56 58  1  0
 57 63  1  0
 58 59  2  0
 58 57  1  0
 60 54  2  0
 61 60  1  0
 61 56  2  0
 62 55  1  0
 63 53  1  0
 65 67  2  0
 66 65  1  0
 68 66  1  0
 69 78  2  0
 69 74  1  0
 70 66  1  0
 70 74  1  0
 71 70  1  0
 72 73  1  0
 72 71  1  0
 73 69  1  0
 74 75  2  0
 75 76  1  0
 77 76  2  0
 78 77  1  0
 79 53  1  0
 79 80  1  0
 79 89  1  0
 80 83  1  0
 81 85  1  0
 81 80  1  0
 82 81  2  0
 85 84  1  0
 87 88  1  0
 87 85  1  0
 87 86  1  0
 89 92  1  1
 89 90  1  0
 91 89  1  0
M  ISO  4  10 100  19 100  51 101  52 101
M  END
>  <TORSDO>  (44) 
F 22

>  <SCORE>  (44) 
-10.987

>  <name>  (44) 
47

>  <ligand_id>  (44) 
47

>  <original_smiles>  (44) 
[H]c1c([H])c([H])c2c(c1[H])C([H])([H])C([H])([H])C([H])([H])C2([H])N([H])C(=O)C1([H])N(C(=O)C([H])(N([H])C(=O)C([H])(N([H])C([H])([H])[H])C([H])([H])[H])C(C([H])([H])[H])(C([H])([H])[H])C([H])([H])[H])C([H])([H])c2c([H])c(OC([H])([H])C([H])([H])C([H])([H])C([H])([H])c3nnc(C([H])(N(C(=O)N4C([H])([H])C([H])([H])C([H])([H])C([H])(n5nc(-c6c([H])c([H])c(Oc7c([H])c([H])c(F)c([H])c7F)c([H])c6[H])c(C(=O)N([H])[H])c5N([H])[H])C4([H])[H])C([H])([H])[H])C([H])([H])[H])n3C([H])([H])C([H])([H])[H])c([H])c([H])c2C1([H])[H]

>  <smiles>  (44) 
[H]c1c([H])c([H])c2c(c1[H])C([H])([H])C([H])([H])C([H])([H])C2([H])N([H])C(=O)C1([H])N(C(=O)C([H])(N([H])C(=O)C([H])(N([H])C([H])([H])[H])C([H])([H])[H])C(C([H])([H])[H])(C([H])([H])[H])C([H])([H])[H])C([H])([H])c2c([H])c(OC([H])([H])C([H])([H])C([H])([H])C([H])([H])c3nnc(C([H])(N(C(=O)N4C([H])([H])C([H])([H])C([H])([H])C([H])(n5nc(-c6c([H])c([H])c(Oc7c([H])c([H])c(F)c([H])c7F)c([H])c6[H])c(C(=O)N([H])[H])c5N([H])[H])C4([H])[H])C([H])([H])[H])C([H])([H])[H])n3C([H])([H])C([H])([H])[H])c([H])c([H])c2C1([H])[H]

$$$$
48:0:0
     RDKit          3D

 92100  0  0  1  0  0  0  0  0999 V2000
  -30.7970  -21.2040   20.9510 C   0  0  0  0  0  3  0  0  0  0  0  0
  -31.6110  -20.0740   21.1370 C   0  0  0  0  0  3  0  0  0  0  0  0
  -29.4800  -21.0030   20.5120 C   0  0  0  0  0  0  0  0  0  0  0  0
  -29.9440  -18.6480   20.4850 C   0  0  0  0  0  0  0  0  0  0  0  0
  -31.1900  -18.8140   20.9040 N   0  0  0  0  0  0  0  0  0  0  0  0
  -29.0870  -19.6930   20.2900 N   0  0  0  0  0  0  0  0  0  0  0  0
  -27.4940  -21.9740   19.2220 C   0  0  0  0  0  1  0  0  0  0  0  0
  -27.6040  -22.0930   21.7380 C   0  0  0  0  0  1  0  0  0  0  0  0
  -28.4260  -22.2090   20.4350 C   0  0  1  0  0  0  0  0  0  0  0  0
  -29.0030  -23.7390   20.3410 C   0  0  0  0  0  3  0  0  0  0  0  0
  -28.0260  -24.9760   19.9490 C   0  0  0  0  0  3  0  0  0  0  0  0
  -28.3190  -26.4410   20.1840 O   0  0  0  0  0  0  0  0  0  0  0  0
  -24.6420  -31.9140   23.2530 C   0  0  0  0  0  0  0  0  0  0  0  0
  -27.2340  -27.3540   20.1240 C   0  0  0  0  0  0  0  0  0  0  0  0
  -23.4340  -30.5340   21.6030 C   0  0  0  0  0  3  0  0  0  0  0  0
  -24.8820  -29.0120   20.1420 C   0  0  0  0  0  0  0  0  0  0  0  0
  -25.9800  -30.8470   21.4210 C   0  0  0  0  0  2  0  0  0  0  0  0
  -26.0580  -29.4780   20.7450 C   0  0  0  0  0  0  0  0  0  0  0  0
  -27.2340  -28.6580   20.7340 C   0  0  0  0  0  3  0  0  0  0  0  0
  -26.0360  -26.9740   19.4790 C   0  0  0  0  0  3  0  0  0  0  0  0
  -24.8750  -27.7630   19.5060 C   0  0  0  0  0  3  0  0  0  0  0  0
  -23.6450  -29.8840   20.2100 C   0  0  0  0  0  2  0  0  0  0  0  0
  -24.7040  -31.1170   22.1460 N   0  0  0  0  0  0  0  0  0  0  0  0
  -23.5610  -32.1840   23.7980 O   0  0  0  0  0  0  0  0  0  0  0  0
  -22.7780  -29.5010   22.5500 C   0  0  0  0  0  0  0  0  0  0  0  0
  -21.4550  -29.3120   22.4190 N   0  0  0  0  0  0  0  0  0  0  0  0
  -23.4600  -28.8730   23.3620 O   0  0  0  0  0  0  0  0  0  0  0  0
  -20.9610  -29.8700   21.7360 H   0  0  0  0  0  0  0  0  0  0  0  0
  -18.0850  -28.0780   22.8930 C   0  0  0  0  0  0  0  0  0  0  0  0
  -20.6410  -28.3610   23.1790 C   0  0  0  0  0  3  0  0  0  0  0  0
  -20.7600  -26.9360   22.5920 C   0  0  0  0  0  2  0  0  0  0  0  0
  -19.6700  -26.6100   21.5680 C   0  0  0  0  0  2  0  0  0  0  0  0
  -18.2810  -26.7350   22.2040 C   0  0  0  0  0  2  0  0  0  0  0  0
  -19.1960  -28.8470   23.3330 C   0  0  0  0  0  0  0  0  0  0  0  0
  -18.9650  -30.1020   23.9380 C   0  0  0  0  0  3  0  0  0  0  0  0
  -17.6570  -30.5930   24.1020 C   0  0  0  0  0  3  0  0  0  0  0  0
  -16.5610  -29.8210   23.6830 C   0  0  0  0  0  3  0  0  0  0  0  0
  -16.7750  -28.5650   23.0870 C   0  0  0  0  0  3  0  0  0  0  0  0
  -25.9260  -32.5440   23.8750 C   0  0  0  0  0  3  0  0  0  0  0  0
  -26.4480  -31.7670   25.1470 C   0  0  1  0  0  0  0  0  0  0  0  0
  -25.3570  -31.5230   26.2160 C   0  0  0  0  0  1  0  0  0  0  0  0
  -27.0310  -30.3920   24.7500 C   0  0  0  0  0  1  0  0  0  0  0  0
  -27.5940  -32.5660   25.8130 C   0  0  0  0  0  1  0  0  0  0  0  0
  -25.6160  -33.9410   24.2170 N   0  0  0  0  0  0  0  0  0  0  0  0
  -25.9110  -35.0000   23.4490 C   0  0  0  0  0  0  0  0  0  0  0  0
  -26.5480  -34.9050   22.3960 O   0  0  0  0  0  0  0  0  0  0  0  0
  -25.0490  -34.0900   25.0390 H   0  0  0  0  0  0  0  0  0  0  0  0
  -24.1440  -36.7680   23.1750 C   0  0  0  0  0  1  0  0  0  0  0  0
  -25.4270  -36.3820   23.9280 C   0  0  0  0  0  3  0  0  0  0  0  0
  -27.5820  -37.2970   24.6650 C   0  0  0  0  0  1  0  0  0  0  0  0
  -26.4400  -37.4490   23.7690 N   0  0  0  0  0  0  0  0  0  0  0  0
  -26.0290  -38.3650   23.9340 H   0  0  0  0  0  0  0  0  0  0  0  0
  -30.0500  -17.1000   18.4650 C   0  0  0  0  0  1  0  0  0  0  0  0
  -29.5820  -17.2110   19.9290 C   0  0  0  0  0  3  0  0  0  0  0  0
  -30.6570  -14.8430   20.4370 C   0  0  0  0  0  0  0  0  0  0  0  0
  -30.5230  -12.5740   19.4160 C   0  0  0  0  0  2  0  0  0  0  0  0
  -29.6110  -12.6840   18.1730 C   0  0  0  0  0  2  0  0  0  0  0  0
  -28.1390  -12.4800   18.5740 C   0  0  0  0  0  2  0  0  0  0  0  0
  -27.7310  -13.3380   19.8020 C   0  0  0  0  0  3  0  0  0  0  0  0
  -28.7640  -13.2260   20.9460 C   0  0  0  0  0  2  0  0  0  0  0  0
  -30.0780  -13.5950   20.3970 N   0  0  0  0  0  0  0  0  0  0  0  0
  -31.8160  -15.0000   20.0470 O   0  0  0  0  0  0  0  0  0  0  0  0
  -29.8230  -15.9110   20.6940 N   0  0  0  0  0  0  0  0  0  0  0  0
  -29.0030  -15.6410   21.2120 H   0  0  0  0  0  0  0  0  0  0  0  0
  -25.3130  -13.9020   20.4460 C   0  0  0  0  0  0  0  0  0  0  0  0
  -24.2490  -13.1180   20.8050 C   0  0  0  0  0  0  0  0  0  0  0  0
  -24.7330  -11.7750   20.8000 C   0  0  0  0  0  0  0  0  0  0  0  0
  -26.3740  -13.0360   20.2510 N   0  0  0  0  0  0  0  0  0  0  0  0
  -26.0320  -11.7510   20.5220 N   0  0  0  0  0  0  0  0  0  0  0  0
  -24.0210  -10.5040   20.9960 C   0  0  0  0  0  0  0  0  0  0  0  0
  -24.4490   -9.5550   21.9490 C   0  0  0  0  0  3  0  0  0  0  0  0
  -23.7340   -8.3520   22.1290 C   0  0  0  0  0  3  0  0  0  0  0  0
  -22.5810   -8.0870   21.3520 C   0  0  0  0  0  0  0  0  0  0  0  0
  -22.1700   -9.0290   20.3930 C   0  0  0  0  0  3  0  0  0  0  0  0
  -22.8840  -10.2260   20.2130 C   0  0  0  0  0  3  0  0  0  0  0  0
  -21.8410   -6.9330   21.4390 O   0  0  0  0  0  0  0  0  0  0  0  0
  -21.7800   -6.2010   22.5970 C   0  0  0  0  0  0  0  0  0  0  0  0
  -21.3070   -6.7570   23.8050 C   0  0  0  0  0  3  0  0  0  0  0  0
  -21.1970   -5.9510   24.9540 C   0  0  0  0  0  3  0  0  0  0  0  0
  -21.5510   -4.5890   24.8990 C   0  0  0  0  0  0  0  0  0  0  0  0
  -22.0150   -4.0330   23.6940 C   0  0  0  0  0  3  0  0  0  0  0  0
  -22.1290   -4.8360   22.5460 C   0  0  0  0  0  0  0  0  0  0  0  0
  -22.5580   -4.2900   21.3820 F   0  0  0  0  0  0  0  0  0  0  0  0
  -21.4360   -3.8110   26.0010 F   0  0  0  0  0  0  0  0  0  0  0  0
  -22.8400  -13.5840   21.0320 C   0  0  0  0  0  0  0  0  0  0  0  0
  -22.1010  -12.8940   21.8930 N   0  0  0  0  0  0  0  0  0  0  0  0
  -22.4040  -14.5960   20.4860 O   0  0  0  0  0  0  0  0  0  0  0  0
  -22.4650  -12.0790   22.3620 H   0  0  0  0  0  0  0  0  0  0  0  0
  -21.1570  -13.1960   22.0880 H   0  0  0  0  0  0  0  0  0  0  0  0
  -25.4500  -15.2720   20.2420 N   0  0  0  0  0  0  0  0  0  0  0  0
  -24.6340  -15.8740   20.2760 H   0  0  0  0  0  0  0  0  0  0  0  0
  -26.2590  -15.7260   19.8400 H   0  0  0  0  0  0  0  0  0  0  0  0
  1  2  2  0
  3  1  1  0
  4  5  2  0
  5  2  1  0
  6  4  1  0
  6  3  2  0
  9  7  1  6
  9  3  1  0
  9  8  1  0
 10  9  1  0
 11 12  1  0
 11 10  2  0
 13 24  2  0
 14 12  1  0
 14 19  1  0
 15 23  1  0
 15 25  1  0
 16 22  1  0
 16 18  1  0
 17 23  1  0
 18 17  1  0
 19 18  2  0
 20 21  1  0
 20 14  2  0
 21 16  2  0
 22 15  1  0
 23 13  1  0
 25 27  2  0
 26 25  1  0
 28 26  1  0
 29 38  2  0
 29 34  1  0
 30 26  1  0
 30 34  1  0
 31 30  1  0
 32 33  1  0
 32 31  1  0
 33 29  1  0
 34 35  2  0
 35 36  1  0
 37 36  2  0
 38 37  1  0
 39 13  1  0
 39 44  1  0
 39 40  1  0
 40 43  1  1
 40 41  1  0
 42 40  1  0
 44 47  1  0
 45 49  1  0
 45 44  1  0
 46 45  2  0
 49 48  1  0
 51 49  1  0
 51 52  1  0
 51 50  1  0
 54 53  1  0
 54  4  1  0
 54 63  1  0
 55 63  1  0
 56 61  1  0
 57 58  1  0
 57 56  1  0
 59 58  1  0
 59 68  1  0
 59 60  1  0
 61 55  1  0
 61 60  1  0
 62 55  2  0
 63 64  1  0
 65 66  2  0
 66 85  1  0
 67 66  1  0
 67 70  1  0
 68 65  1  0
 68 69  1  0
 69 67  2  0
 70 71  1  0
 71 72  2  0
 73 76  1  0
 73 72  1  0
 74 73  2  0
 75 74  1  0
 75 70  2  0
 76 77  1  0
 77 78  1  0
 78 79  2  0
 80 79  1  0
 80 84  1  0
 81 80  2  0
 82 77  2  0
 82 81  1  0
 83 82  1  0
 85 86  1  0
 86 89  1  0
 86 88  1  0
 87 85  2  0
 90 91  1  0
 90 65  1  0
 92 90  1  0
M  ISO  4  11 101  12 101  55 100  63 100
M  END
>  <TORSDO>  (45) 
F 20

>  <SCORE>  (45) 
-13.751

>  <name>  (45) 
48

>  <ligand_id>  (45) 
48

>  <original_smiles>  (45) 
[H]c1nc(C([H])(N([H])C(=O)N2C([H])([H])C([H])([H])C([H])([H])C([H])(n3nc(-c4c([H])c([H])c(Oc5c([H])c([H])c(F)c([H])c5F)c([H])c4[H])c(C(=O)N([H])[H])c3N([H])[H])C2([H])[H])C([H])([H])[H])nc(C(C([H])([H])[H])(C([H])([H])[H])C([H])([H])C([H])([H])Oc2c([H])c([H])c3c(c2[H])C([H])([H])N(C(=O)C([H])(N([H])C(=O)C([H])(N([H])C([H])([H])[H])C([H])([H])[H])C(C([H])([H])[H])(C([H])([H])[H])C([H])([H])[H])C([H])(C(=O)N([H])C2([H])c4c([H])c([H])c([H])c([H])c4C([H])([H])C([H])([H])C2([H])[H])C3([H])[H])c1[H]

>  <smiles>  (45) 
[H]c1nc(C([H])(N([H])C(=O)N2C([H])([H])C([H])([H])C([H])([H])C([H])(n3nc(-c4c([H])c([H])c(Oc5c([H])c([H])c(F)c([H])c5F)c([H])c4[H])c(C(=O)N([H])[H])c3N([H])[H])C2([H])[H])C([H])([H])[H])nc(C(C([H])([H])[H])(C([H])([H])[H])C([H])([H])C([H])([H])Oc2c([H])c([H])c3c(c2[H])C([H])([H])N(C(=O)C([H])(N([H])C(=O)C([H])(N([H])C([H])([H])[H])C([H])([H])[H])C(C([H])([H])[H])(C([H])([H])[H])C([H])([H])[H])C([H])(C(=O)N([H])C2([H])c4c([H])c([H])c([H])c([H])c4C([H])([H])C([H])([H])C2([H])[H])C3([H])[H])c1[H]

$$$$
49:0:0
     RDKit          3D

 84 91  0  0  1  0  0  0  0  0999 V2000
  -29.0610  -22.0340   20.3030 C   0  0  0  0  0  1  0  0  0  0  0  0
  -30.0070  -18.9860   20.1130 C   0  0  0  0  0  3  0  0  0  0  0  0
  -29.5540  -17.5420   20.1700 C   0  0  0  0  0  0  0  0  0  0  0  0
  -28.1900  -17.9960   20.3110 N   0  0  0  0  0  0  0  0  0  0  0  0
  -27.9250  -19.3590   20.3450 N   0  0  0  0  0  0  0  0  0  0  0  0
  -29.0250  -20.2040   20.1970 N   0  0  0  0  0  0  0  0  0  0  0  0
  -30.2840  -15.8000   20.0930 C   0  0  0  0  0  0  0  0  0  0  0  0
  -30.3890  -13.2180   19.3350 C   0  0  0  0  0  2  0  0  0  0  0  0
  -29.4910  -12.7710   18.1430 C   0  0  0  0  0  2  0  0  0  0  0  0
  -28.0840  -12.3940   18.6280 C   0  0  0  0  0  2  0  0  0  0  0  0
  -27.5730  -13.4050   19.6770 C   0  0  0  0  0  3  0  0  0  0  0  0
  -28.6120  -13.7810   20.7590 C   0  0  0  0  0  2  0  0  0  0  0  0
  -29.7680  -14.4160   20.0800 N   0  0  0  0  0  0  0  0  0  0  0  0
  -31.5100  -15.6780   19.8880 O   0  0  0  0  0  0  0  0  0  0  0  0
  -25.2410  -13.9020   20.5380 C   0  0  0  0  0  0  0  0  0  0  0  0
  -24.1970  -13.1100   20.9180 C   0  0  0  0  0  0  0  0  0  0  0  0
  -24.6710  -11.7630   20.8410 C   0  0  0  0  0  0  0  0  0  0  0  0
  -26.2790  -13.0430   20.2360 N   0  0  0  0  0  0  0  0  0  0  0  0
  -25.9540  -11.7460   20.4870 N   0  0  0  0  0  0  0  0  0  0  0  0
  -23.9530  -10.4930   21.0230 C   0  0  0  0  0  0  0  0  0  0  0  0
  -24.3880   -9.5200   21.9510 C   0  0  0  0  0  3  0  0  0  0  0  0
  -23.6640   -8.3220   22.1250 C   0  0  0  0  0  3  0  0  0  0  0  0
  -22.4890   -8.0850   21.3710 C   0  0  0  0  0  0  0  0  0  0  0  0
  -22.0710   -9.0460   20.4340 C   0  0  0  0  0  3  0  0  0  0  0  0
  -22.7970  -10.2370   20.2580 C   0  0  0  0  0  3  0  0  0  0  0  0
  -21.7360   -6.9370   21.4540 O   0  0  0  0  0  0  0  0  0  0  0  0
  -21.6610   -6.2080   22.6140 C   0  0  0  0  0  0  0  0  0  0  0  0
  -21.1780   -6.7670   23.8160 C   0  0  0  0  0  3  0  0  0  0  0  0
  -21.0520   -5.9630   24.9670 C   0  0  0  0  0  3  0  0  0  0  0  0
  -21.3990   -4.6000   24.9150 C   0  0  0  0  0  0  0  0  0  0  0  0
  -21.8770   -4.0400   23.7170 C   0  0  0  0  0  3  0  0  0  0  0  0
  -22.0050   -4.8410   22.5690 C   0  0  0  0  0  0  0  0  0  0  0  0
  -22.4440   -4.2910   21.4120 F   0  0  0  0  0  0  0  0  0  0  0  0
  -21.2720   -3.8250   26.0180 F   0  0  0  0  0  0  0  0  0  0  0  0
  -22.8070  -13.5740   21.2360 C   0  0  0  0  0  0  0  0  0  0  0  0
  -22.1090  -12.8650   22.1140 N   0  0  0  0  0  0  0  0  0  0  0  0
  -22.3510  -14.6050   20.7400 O   0  0  0  0  0  0  0  0  0  0  0  0
  -22.4930  -12.0330   22.5360 H   0  0  0  0  0  0  0  0  0  0  0  0
  -21.1770  -13.1590   22.3700 H   0  0  0  0  0  0  0  0  0  0  0  0
  -25.3920  -15.2790   20.3940 N   0  0  0  0  0  0  0  0  0  0  0  0
  -24.6330  -15.9270   20.5690 H   0  0  0  0  0  0  0  0  0  0  0  0
  -26.2460  -15.7420   20.1050 H   0  0  0  0  0  0  0  0  0  0  0  0
  -28.0110  -23.7050   20.1610 C   0  0  0  0  0  1  0  0  0  0  0  0
  -28.1560  -25.4890   20.3130 O   0  0  0  0  0  0  0  0  0  0  0  0
  -24.6690  -31.8640   23.2090 C   0  0  0  0  0  0  0  0  0  0  0  0
  -27.1930  -26.7280   20.2490 C   0  0  0  0  0  0  0  0  0  0  0  0
  -23.4910  -30.4720   21.5630 C   0  0  0  0  0  3  0  0  0  0  0  0
  -24.9420  -28.8060   20.1660 C   0  0  0  0  0  0  0  0  0  0  0  0
  -26.0740  -30.5860   21.4700 C   0  0  0  0  0  2  0  0  0  0  0  0
  -26.1350  -29.1480   20.8140 C   0  0  0  0  0  0  0  0  0  0  0  0
  -27.2430  -28.1380   20.8190 C   0  0  0  0  0  3  0  0  0  0  0  0
  -25.9660  -26.6100   19.5440 C   0  0  0  0  0  3  0  0  0  0  0  0
  -24.9000  -27.5650   19.5070 C   0  0  0  0  0  3  0  0  0  0  0  0
  -23.7430  -29.7700   20.1960 C   0  0  0  0  0  2  0  0  0  0  0  0
  -24.7700  -31.0090   22.1330 N   0  0  0  0  0  0  0  0  0  0  0  0
  -23.5720  -32.1720   23.7070 O   0  0  0  0  0  0  0  0  0  0  0  0
  -22.7560  -29.5030   22.5280 C   0  0  0  0  0  0  0  0  0  0  0  0
  -21.4240  -29.3550   22.3870 N   0  0  0  0  0  0  0  0  0  0  0  0
  -23.3980  -28.8810   23.3780 O   0  0  0  0  0  0  0  0  0  0  0  0
  -20.9560  -29.9070   21.6820 H   0  0  0  0  0  0  0  0  0  0  0  0
  -18.0270  -28.1470   22.8580 C   0  0  0  0  0  0  0  0  0  0  0  0
  -20.5840  -28.4230   23.1520 C   0  0  0  0  0  3  0  0  0  0  0  0
  -20.6940  -26.9870   22.5880 C   0  0  0  0  0  2  0  0  0  0  0  0
  -19.6080  -26.6570   21.5600 C   0  0  0  0  0  2  0  0  0  0  0  0
  -18.2180  -26.7990   22.1850 C   0  0  0  0  0  2  0  0  0  0  0  0
  -19.1380  -28.9170   23.2980 C   0  0  0  0  0  0  0  0  0  0  0  0
  -18.9030  -30.1750   23.8930 C   0  0  0  0  0  3  0  0  0  0  0  0
  -17.5930  -30.6660   24.0490 C   0  0  0  0  0  3  0  0  0  0  0  0
  -16.4980  -29.8960   23.6220 C   0  0  0  0  0  3  0  0  0  0  0  0
  -16.7160  -28.6370   23.0330 C   0  0  0  0  0  3  0  0  0  0  0  0
  -25.9280  -32.5110   23.8650 C   0  0  0  0  0  3  0  0  0  0  0  0
  -25.6080  -33.9150   24.1950 N   0  0  0  0  0  0  0  0  0  0  0  0
  -25.9210  -34.9780   23.4410 C   0  0  0  0  0  0  0  0  0  0  0  0
  -26.5650  -34.8800   22.3940 O   0  0  0  0  0  0  0  0  0  0  0  0
  -25.0300  -34.0630   25.0090 H   0  0  0  0  0  0  0  0  0  0  0  0
  -24.1650  -36.7670   23.1770 C   0  0  0  0  0  1  0  0  0  0  0  0
  -25.4500  -36.3680   23.9210 C   0  0  0  0  0  3  0  0  0  0  0  0
  -27.6150  -37.2830   24.6390 C   0  0  0  0  0  1  0  0  0  0  0  0
  -26.4670  -37.4300   23.7480 N   0  0  0  0  0  0  0  0  0  0  0  0
  -26.0600  -38.3480   23.9040 H   0  0  0  0  0  0  0  0  0  0  0  0
  -26.4040  -31.7540   25.1680 C   0  0  1  0  0  0  0  0  0  0  0  0
  -25.2820  -31.5420   26.2110 C   0  0  0  0  0  1  0  0  0  0  0  0
  -26.9840  -30.3640   24.8220 C   0  0  0  0  0  1  0  0  0  0  0  0
  -27.5440  -32.5470   25.8470 C   0  0  0  0  0  1  0  0  0  0  0  0
  2  3  2  0
  2  6  1  0
  3  4  1  0
  4  5  2  0
  6  1  1  0
  6  5  1  0
  7  3  1  0
  8 13  1  0
  9 10  1  0
  9  8  1  0
 11 10  1  0
 11 18  1  0
 11 12  1  0
 13  7  1  0
 13 12  1  0
 14  7  2  0
 15 16  2  0
 16 35  1  0
 17 16  1  0
 17 20  1  0
 18 19  1  0
 18 15  1  0
 19 17  2  0
 20 21  1  0
 21 22  2  0
 23 26  1  0
 23 22  1  0
 24 23  2  0
 25 24  1  0
 25 20  2  0
 26 27  1  0
 27 28  1  0
 28 29  2  0
 30 29  1  0
 30 34  1  0
 31 30  2  0
 32 27  2  0
 32 31  1  0
 33 32  1  0
 35 36  1  0
 36 39  1  0
 36 38  1  0
 37 35  2  0
 40 15  1  0
 40 41  1  0
 42 40  1  0
 43 44  1  0
 45 56  2  0
 46 44  1  0
 46 51  1  0
 47 55  1  0
 47 57  1  0
 48 54  1  0
 48 50  1  0
 49 55  1  0
 50 51  2  0
 50 49  1  0
 52 46  2  0
 53 52  1  0
 53 48  2  0
 54 47  1  0
 55 45  1  0
 57 59  2  0
 58 57  1  0
 60 58  1  0
 61 70  2  0
 61 66  1  0
 62 58  1  0
 62 66  1  0
 63 62  1  0
 64 65  1  0
 64 63  1  0
 65 61  1  0
 66 67  2  0
 67 68  1  0
 69 68  2  0
 70 69  1  0
 71 45  1  0
 71 72  1  0
 71 81  1  0
 72 75  1  0
 73 77  1  0
 73 72  1  0
 74 73  2  0
 77 76  1  0
 79 80  1  0
 79 77  1  0
 79 78  1  0
 81 84  1  1
 81 82  1  0
 83 81  1  0
M  ISO  4   3 100   7 100  43 101  44 101
M  END
>  <TORSDO>  (46) 
F 18

>  <SCORE>  (46) 
-16.563

>  <name>  (46) 
49

>  <ligand_id>  (46) 
49

>  <original_smiles>  (46) 
[H]c1c([H])c([H])c2c(c1[H])C([H])([H])C([H])([H])C([H])([H])C2([H])N([H])C(=O)C1([H])N(C(=O)C([H])(N([H])C(=O)C([H])(N([H])C([H])([H])[H])C([H])([H])[H])C(C([H])([H])[H])(C([H])([H])[H])C([H])([H])[H])C([H])([H])c2c([H])c(OC([H])([H])C([H])([H])n3nnc(C(=O)N4C([H])([H])C([H])([H])C([H])([H])C([H])(n5nc(-c6c([H])c([H])c(Oc7c([H])c([H])c(F)c([H])c7F)c([H])c6[H])c(C(=O)N([H])[H])c5N([H])[H])C4([H])[H])c3[H])c([H])c([H])c2C1([H])[H]

>  <smiles>  (46) 
[H]c1c([H])c([H])c2c(c1[H])C([H])([H])C([H])([H])C([H])([H])C2([H])N([H])C(=O)C1([H])N(C(=O)C([H])(N([H])C(=O)C([H])(N([H])C([H])([H])[H])C([H])([H])[H])C(C([H])([H])[H])(C([H])([H])[H])C([H])([H])[H])C([H])([H])c2c([H])c(OC([H])([H])C([H])([H])n3nnc(C(=O)N4C([H])([H])C([H])([H])C([H])([H])C([H])(n5nc(-c6c([H])c([H])c(Oc7c([H])c([H])c(F)c([H])c7F)c([H])c6[H])c(C(=O)N([H])[H])c5N([H])[H])C4([H])[H])c3[H])c([H])c([H])c2C1([H])[H]

$$$$
51:0:0
     RDKit          3D

 94102  0  0  1  0  0  0  0  0999 V2000
  -31.1610  -19.2450   18.9770 C   0  0  0  0  0  3  0  0  0  0  0  0
  -30.2060  -19.4570   19.9450 C   0  0  0  0  0  0  0  0  0  0  0  0
  -30.8240  -17.2100   19.8960 C   0  0  0  0  0  3  0  0  0  0  0  0
  -29.9750  -18.1510   20.4520 N   0  0  0  0  0  0  0  0  0  0  0  0
  -31.5150  -17.9100   18.9850 N   0  0  0  0  0  0  0  0  0  0  0  0
  -32.2530  -17.5180   18.4120 H   0  0  0  0  0  0  0  0  0  0  0  0
  -29.4500  -17.2810   22.8060 C   0  0  0  0  0  1  0  0  0  0  0  0
  -27.7920  -16.9750   20.8820 C   0  0  0  0  0  1  0  0  0  0  0  0
  -28.9300  -17.8210   21.4670 C   0  0  0  0  0  3  0  0  0  0  0  0
  -32.4420  -15.6860   21.1170 C   0  0  0  0  0  1  0  0  0  0  0  0
  -31.1160  -15.7090   20.3200 C   0  0  0  0  0  3  0  0  0  0  0  0
  -31.3010  -14.5480   19.2310 C   0  0  0  0  0  0  0  0  0  0  0  0
  -30.6740  -12.4340   18.0340 C   0  0  0  0  0  2  0  0  0  0  0  0
  -29.5330  -12.6920   17.0280 C   0  0  0  0  0  2  0  0  0  0  0  0
  -28.1620  -12.5710   17.7180 C   0  0  0  0  0  2  0  0  0  0  0  0
  -28.1040  -13.3580   19.0550 C   0  0  0  0  0  3  0  0  0  0  0  0
  -29.3390  -13.0690   19.9380 C   0  0  0  0  0  2  0  0  0  0  0  0
  -30.5370  -13.4000   19.1520 N   0  0  0  0  0  0  0  0  0  0  0  0
  -32.2480  -14.6830   18.4480 O   0  0  0  0  0  0  0  0  0  0  0  0
  -25.9310  -14.0310   20.2470 C   0  0  0  0  0  0  0  0  0  0  0  0
  -24.9010  -13.2970   20.7690 C   0  0  0  0  0  0  0  0  0  0  0  0
  -25.2480  -11.9270   20.5540 C   0  0  0  0  0  0  0  0  0  0  0  0
  -26.8500  -13.1140   19.7650 N   0  0  0  0  0  0  0  0  0  0  0  0
  -26.4520  -11.8370   20.0030 N   0  0  0  0  0  0  0  0  0  0  0  0
  -24.4740  -10.7020   20.7890 C   0  0  0  0  0  0  0  0  0  0  0  0
  -24.9230   -9.7050   21.6830 C   0  0  0  0  0  3  0  0  0  0  0  0
  -24.1520   -8.5440   21.9070 C   0  0  0  0  0  3  0  0  0  0  0  0
  -22.9170   -8.3730   21.2380 C   0  0  0  0  0  0  0  0  0  0  0  0
  -22.4850   -9.3570   20.3320 C   0  0  0  0  0  3  0  0  0  0  0  0
  -23.2560  -10.5100   20.1060 C   0  0  0  0  0  3  0  0  0  0  0  0
  -22.1140   -7.2670   21.3750 O   0  0  0  0  0  0  0  0  0  0  0  0
  -21.9890   -6.6110   22.5740 C   0  0  0  0  0  0  0  0  0  0  0  0
  -21.5210   -7.2640   23.7340 C   0  0  0  0  0  3  0  0  0  0  0  0
  -21.3430   -6.5350   24.9270 C   0  0  0  0  0  3  0  0  0  0  0  0
  -21.6220   -5.1560   24.9600 C   0  0  0  0  0  0  0  0  0  0  0  0
  -22.0840   -4.5030   23.8040 C   0  0  0  0  0  3  0  0  0  0  0  0
  -22.2630   -5.2290   22.6130 C   0  0  0  0  0  0  0  0  0  0  0  0
  -22.6880   -4.5910   21.4950 F   0  0  0  0  0  0  0  0  0  0  0  0
  -21.4440   -4.4550   26.1040 F   0  0  0  0  0  0  0  0  0  0  0  0
  -23.6220  -13.8360   21.3380 C   0  0  0  0  0  0  0  0  0  0  0  0
  -23.0220  -13.1190   22.2820 N   0  0  0  0  0  0  0  0  0  0  0  0
  -23.1720  -14.9240   20.9830 O   0  0  0  0  0  0  0  0  0  0  0  0
  -23.4020  -12.2360   22.5880 H   0  0  0  0  0  0  0  0  0  0  0  0
  -22.1700  -13.4590   22.7050 H   0  0  0  0  0  0  0  0  0  0  0  0
  -26.1470  -15.3980   20.1190 N   0  0  0  0  0  0  0  0  0  0  0  0
  -25.4500  -16.0770   20.4020 H   0  0  0  0  0  0  0  0  0  0  0  0
  -26.9200  -15.8090   19.6140 H   0  0  0  0  0  0  0  0  0  0  0  0
  -29.6160  -20.8100   20.5110 C   0  0  0  0  0  3  0  0  0  0  0  0
  -29.3410  -22.1210   19.6160 C   0  0  0  0  0  3  0  0  0  0  0  0
  -30.5450  -24.0870   20.7250 C   0  0  0  0  0  1  0  0  0  0  0  0
  -28.3170  -23.3830   21.6300 C   0  0  0  0  0  1  0  0  0  0  0  0
  -29.1480  -23.5650   20.3450 C   0  0  2  0  0  0  0  0  0  0  0  0
  -28.4100  -24.7170   19.4920 C   0  0  0  0  0  2  0  0  0  0  0  0
  -28.4080  -26.1360   19.9760 O   0  0  0  0  0  0  0  0  0  0  0  0
  -24.5490  -31.4820   22.9460 C   0  0  0  0  0  0  0  0  0  0  0  0
  -27.2640  -26.9600   19.8920 C   0  0  0  0  0  0  0  0  0  0  0  0
  -23.3770  -30.0530   21.3110 C   0  0  0  0  0  3  0  0  0  0  0  0
  -24.8630  -28.5370   19.8810 C   0  0  0  0  0  0  0  0  0  0  0  0
  -25.9100  -30.4240   21.1270 C   0  0  0  0  0  2  0  0  0  0  0  0
  -26.0190  -29.0450   20.4820 C   0  0  0  0  0  0  0  0  0  0  0  0
  -27.2180  -28.2670   20.4840 C   0  0  0  0  0  3  0  0  0  0  0  0
  -26.0850  -26.5260   19.2430 C   0  0  0  0  0  3  0  0  0  0  0  0
  -24.8990  -27.2840   19.2510 C   0  0  0  0  0  3  0  0  0  0  0  0
  -23.6060  -29.3830   19.9300 C   0  0  0  0  0  2  0  0  0  0  0  0
  -24.6300  -30.6720   21.8510 N   0  0  0  0  0  0  0  0  0  0  0  0
  -23.4600  -31.7370   23.4830 O   0  0  0  0  0  0  0  0  0  0  0  0
  -22.7400  -29.0220   22.2730 C   0  0  0  0  0  0  0  0  0  0  0  0
  -21.4160  -28.8240   22.1580 N   0  0  0  0  0  0  0  0  0  0  0  0
  -23.4350  -28.4060   23.0840 O   0  0  0  0  0  0  0  0  0  0  0  0
  -20.9120  -29.3750   21.4770 H   0  0  0  0  0  0  0  0  0  0  0  0
  -18.0570  -27.5990   22.7130 C   0  0  0  0  0  0  0  0  0  0  0  0
  -20.6180  -27.8710   22.9320 C   0  0  0  0  0  3  0  0  0  0  0  0
  -20.7160  -26.4470   22.3370 C   0  0  0  0  0  2  0  0  0  0  0  0
  -19.5950  -26.1310   21.3420 C   0  0  0  0  0  2  0  0  0  0  0  0
  -18.2270  -26.2590   22.0160 C   0  0  0  0  0  2  0  0  0  0  0  0
  -19.1800  -28.3620   23.1290 C   0  0  0  0  0  0  0  0  0  0  0  0
  -18.9660  -29.6170   23.7430 C   0  0  0  0  0  3  0  0  0  0  0  0
  -17.6610  -30.1060   23.9430 C   0  0  0  0  0  3  0  0  0  0  0  0
  -16.5540  -29.3400   23.5430 C   0  0  0  0  0  3  0  0  0  0  0  0
  -16.7520  -28.0880   22.9330 C   0  0  0  0  0  3  0  0  0  0  0  0
  -25.8170  -32.1470   23.5650 C   0  0  0  0  0  3  0  0  0  0  0  0
  -25.4750  -33.5380   23.8940 N   0  0  0  0  0  0  0  0  0  0  0  0
  -25.7620  -34.5960   23.1250 C   0  0  0  0  0  0  0  0  0  0  0  0
  -26.4150  -34.5080   22.0810 O   0  0  0  0  0  0  0  0  0  0  0  0
  -24.8910  -33.6790   24.7060 H   0  0  0  0  0  0  0  0  0  0  0  0
  -23.9690  -36.3330   22.8110 C   0  0  0  0  0  1  0  0  0  0  0  0
  -25.2460  -35.9730   23.5880 C   0  0  0  0  0  3  0  0  0  0  0  0
  -27.3710  -36.9360   24.3530 C   0  0  0  0  0  1  0  0  0  0  0  0
  -26.2410  -37.0570   23.4360 N   0  0  0  0  0  0  0  0  0  0  0  0
  -25.8100  -37.9650   23.5820 H   0  0  0  0  0  0  0  0  0  0  0  0
  -26.3540  -31.3910   24.8430 C   0  0  1  0  0  0  0  0  0  0  0  0
  -25.2660  -31.1240   25.9090 C   0  0  0  0  0  1  0  0  0  0  0  0
  -26.9760  -30.0310   24.4520 C   0  0  0  0  0  1  0  0  0  0  0  0
  -27.4800  -32.2180   25.5060 C   0  0  0  0  0  1  0  0  0  0  0  0
  1  5  1  0
  1  2  2  0
  2  4  1  0
  2 48  1  0
  3 11  1  0
  3  4  1  0
  4  9  1  0
  5  3  1  0
  6  5  1  0
  8  9  1  0
  9  7  1  0
 11 10  1  0
 12 11  1  0
 13 18  1  0
 14 15  1  0
 14 13  1  0
 16 15  1  0
 16 23  1  0
 16 17  1  0
 18 12  1  0
 18 17  1  0
 19 12  2  0
 20 21  2  0
 21 40  1  0
 22 21  1  0
 22 25  1  0
 23 24  1  0
 23 20  1  0
 24 22  2  0
 25 26  1  0
 26 27  2  0
 28 31  1  0
 28 27  1  0
 29 28  2  0
 30 29  1  0
 30 25  2  0
 31 32  1  0
 32 37  2  0
 32 33  1  0
 33 34  2  0
 34 35  1  0
 35 39  1  0
 36 35  2  0
 37 36  1  0
 38 37  1  0
 40 41  1  0
 41 43  1  0
 41 44  1  0
 42 40  2  0
 45 20  1  0
 45 46  1  0
 47 45  1  0
 49 52  1  0
 49 48  2  0
 52 50  1  1
 52 51  1  0
 53 54  1  0
 53 52  1  0
 55 66  2  0
 56 54  1  0
 56 61  1  0
 57 65  1  0
 57 67  1  0
 58 64  1  0
 58 60  1  0
 59 65  1  0
 60 61  2  0
 60 59  1  0
 62 63  1  0
 62 56  2  0
 63 58  2  0
 64 57  1  0
 65 55  1  0
 67 69  2  0
 68 67  1  0
 70 68  1  0
 71 80  2  0
 71 76  1  0
 72 68  1  0
 72 76  1  0
 73 72  1  0
 74 75  1  0
 74 73  1  0
 75 71  1  0
 76 77  2  0
 77 78  1  0
 79 78  2  0
 80 79  1  0
 81 55  1  0
 81 82  1  0
 81 91  1  0
 82 85  1  0
 83 87  1  0
 83 82  1  0
 84 83  2  0
 87 86  1  0
 89 90  1  0
 89 87  1  0
 89 88  1  0
 91 94  1  1
 91 92  1  0
 93 91  1  0
M  ISO  4  11 100  12 100  53 101  54 101
M  END
>  <TORSDO>  (47) 
F 22

>  <SCORE>  (47) 
-6.876

>  <name>  (47) 
51

>  <ligand_id>  (47) 
51

>  <original_smiles>  (47) 
[H]c1c([H])c([H])c2c(c1[H])C([H])([H])C([H])([H])C([H])([H])C2([H])N([H])C(=O)C1([H])N(C(=O)C([H])(N([H])C(=O)C([H])(N([H])C([H])([H])[H])C([H])([H])[H])C(C([H])([H])[H])(C([H])([H])[H])C([H])([H])[H])C([H])([H])c2c([H])c(OC([H])([H])C(C([H])([H])[H])(C([H])([H])[H])C([H])([H])C([H])([H])c3c([H])[n+]([H])c(C([H])(C(=O)N4C([H])([H])C([H])([H])C([H])([H])C([H])(n5nc(-c6c([H])c([H])c(Oc7c([H])c([H])c(F)c([H])c7F)c([H])c6[H])c(C(=O)N([H])[H])c5N([H])[H])C4([H])[H])C([H])([H])[H])n3C([H])(C([H])([H])[H])C([H])([H])[H])c([H])c([H])c2C1([H])[H]

>  <smiles>  (47) 
[H]c1c([H])c([H])c2c(c1[H])C([H])([H])C([H])([H])C([H])([H])C2([H])N([H])C(=O)C1([H])N(C(=O)C([H])(N([H])C(=O)C([H])(N([H])C([H])([H])[H])C([H])([H])[H])C(C([H])([H])[H])(C([H])([H])[H])C([H])([H])[H])C([H])([H])c2c([H])c(OC([H])([H])C(C([H])([H])[H])(C([H])([H])[H])C([H])([H])C([H])([H])c3c([H])[n+]([H])c(C([H])(C(=O)N4C([H])([H])C([H])([H])C([H])([H])C([H])(n5nc(-c6c([H])c([H])c(Oc7c([H])c([H])c(F)c([H])c7F)c([H])c6[H])c(C(=O)N([H])[H])c5N([H])[H])C4([H])[H])C([H])([H])[H])n3C([H])(C([H])([H])[H])C([H])([H])[H])c([H])c([H])c2C1([H])[H]

$$$$
52:0:0
     RDKit          3D

 95103  0  0  1  0  0  0  0  0999 V2000
  -28.7520  -20.7310   20.1150 C   0  0  0  0  0  0  0  0  0  0  0  0
  -30.2090  -19.1800   19.9690 C   0  0  0  0  0  3  0  0  0  0  0  0
  -30.0720  -20.4550   20.3890 N   0  0  0  0  0  0  0  0  0  0  0  0
  -28.0520  -19.6390   19.7860 N   0  0  0  0  0  2  0  0  0  0  0  0
  -28.9890  -18.6420   19.6620 N   0  0  0  0  0  0  0  0  0  0  0  0
  -32.7770  -19.4710   20.1420 C   0  0  0  0  0  1  0  0  0  0  0  0
  -31.8350  -17.9960   18.3870 C   0  0  0  0  0  1  0  0  0  0  0  0
  -31.8160  -17.2980   20.7890 C   0  0  0  0  0  1  0  0  0  0  0  0
  -31.5980  -18.4920   19.8290 C   0  0  2  0  0  0  0  0  0  0  0  0
  -27.3130  -22.5750   21.1380 C   0  0  0  0  0  1  0  0  0  0  0  0
  -27.2620  -22.0520   18.7100 C   0  0  0  0  0  1  0  0  0  0  0  0
  -28.2000  -22.1750   19.9200 C   0  0  2  0  0  0  0  0  0  0  0  0
  -29.2370  -23.3680   19.6960 C   0  0  0  0  0  2  0  0  0  0  0  0
  -29.1630  -25.6490   18.3460 C   0  0  0  0  0  0  0  0  0  0  0  0
  -28.1920  -27.6690   17.2640 C   0  0  0  0  0  2  0  0  0  0  0  0
  -26.8370  -27.9770   17.9350 C   0  0  0  0  0  2  0  0  0  0  0  0
  -25.7060  -27.2050   17.2260 C   0  0  0  0  0  2  0  0  0  0  0  0
  -26.0360  -25.6930   17.0870 C   0  0  0  0  0  3  0  0  0  0  0  0
  -27.4520  -25.5000   16.4940 C   0  0  0  0  0  2  0  0  0  0  0  0
  -28.4070  -26.2190   17.3550 N   0  0  0  0  0  0  0  0  0  0  0  0
  -29.9450  -26.3170   19.0330 O   0  0  0  0  0  0  0  0  0  0  0  0
  -28.8800  -24.3350   18.5900 N   0  0  0  0  0  0  0  0  0  0  0  0
  -28.2980  -23.9360   17.8700 H   0  0  0  0  0  0  0  0  0  0  0  0
  -24.1320  -24.0010   16.6810 C   0  0  0  0  0  0  0  0  0  0  0  0
  -23.4110  -23.6800   15.5640 C   0  0  0  0  0  0  0  0  0  0  0  0
  -23.9030  -24.5210   14.5270 C   0  0  0  0  0  0  0  0  0  0  0  0
  -25.0370  -24.9800   16.2910 N   0  0  0  0  0  0  0  0  0  0  0  0
  -24.9200  -25.2530   14.9660 N   0  0  0  0  0  0  0  0  0  0  0  0
  -23.4030  -24.7310   13.1650 C   0  0  0  0  0  0  0  0  0  0  0  0
  -24.0060  -24.1030   12.0560 C   0  0  0  0  0  3  0  0  0  0  0  0
  -23.4880  -24.3050   10.7580 C   0  0  0  0  0  3  0  0  0  0  0  0
  -22.3650  -25.1450   10.5640 C   0  0  0  0  0  0  0  0  0  0  0  0
  -21.7900  -25.7900   11.6720 C   0  0  0  0  0  3  0  0  0  0  0  0
  -22.3070  -25.5940   12.9630 C   0  0  0  0  0  3  0  0  0  0  0  0
  -21.8100  -25.4250    9.3400 O   0  0  0  0  0  0  0  0  0  0  0  0
  -21.3280  -24.4260    8.5280 C   0  0  0  0  0  0  0  0  0  0  0  0
  -20.2050  -23.6530    8.8890 C   0  0  0  0  0  3  0  0  0  0  0  0
  -19.7080  -22.6780    7.9990 C   0  0  0  0  0  3  0  0  0  0  0  0
  -20.3220  -22.4880    6.7460 C   0  0  0  0  0  0  0  0  0  0  0  0
  -21.4380  -23.2640    6.3850 C   0  0  0  0  0  3  0  0  0  0  0  0
  -21.9390  -24.2300    7.2750 C   0  0  0  0  0  0  0  0  0  0  0  0
  -23.0030  -24.9890    6.9160 F   0  0  0  0  0  0  0  0  0  0  0  0
  -19.8340  -21.5640    5.8840 F   0  0  0  0  0  0  0  0  0  0  0  0
  -22.2600  -22.7150   15.5050 C   0  0  0  0  0  0  0  0  0  0  0  0
  -21.9310  -22.2240   14.3110 N   0  0  0  0  0  0  0  0  0  0  0  0
  -21.6780  -22.3580   16.5240 O   0  0  0  0  0  0  0  0  0  0  0  0
  -22.4330  -22.4920   13.4780 H   0  0  0  0  0  0  0  0  0  0  0  0
  -21.1720  -21.5640   14.2220 H   0  0  0  0  0  0  0  0  0  0  0  0
  -24.0500  -23.5540   17.9850 N   0  0  0  0  0  0  0  0  0  0  0  0
  -23.2720  -22.9720   18.2860 H   0  0  0  0  0  0  0  0  0  0  0  0
  -24.6280  -23.8920   18.7440 H   0  0  0  0  0  0  0  0  0  0  0  0
  -28.5060  -17.3350   19.1310 C   0  0  0  0  0  2  0  0  0  0  0  0
  -27.9800  -16.3090   20.1810 C   0  0  0  0  0  2  0  0  0  0  0  0
  -28.9560  -15.2220   20.7470 C   0  0  0  0  0  2  0  0  0  0  0  0
  -28.9050  -13.8930   20.1330 O   0  0  0  0  0  0  0  0  0  0  0  0
  -34.8250   -9.9300   20.7390 C   0  0  0  0  0  0  0  0  0  0  0  0
  -30.1040  -13.4910   19.5720 C   0  0  0  0  0  0  0  0  0  0  0  0
  -34.9070  -11.8060   19.1300 C   0  0  0  0  0  3  0  0  0  0  0  0
  -32.6590  -12.8570   18.5310 C   0  0  0  0  0  0  0  0  0  0  0  0
  -32.6970  -10.6140   19.6260 C   0  0  0  0  0  2  0  0  0  0  0  0
  -31.9820  -11.9250   19.3280 C   0  0  0  0  0  0  0  0  0  0  0  0
  -30.6990  -12.2330   19.8490 C   0  0  0  0  0  3  0  0  0  0  0  0
  -30.7850  -14.3920   18.7290 C   0  0  0  0  0  3  0  0  0  0  0  0
  -32.0630  -14.0910   18.2240 C   0  0  0  0  0  3  0  0  0  0  0  0
  -34.0360  -12.4770   18.0340 C   0  0  0  0  0  2  0  0  0  0  0  0
  -34.1520  -10.7590   19.8890 N   0  0  0  0  0  0  0  0  0  0  0  0
  -36.0560  -10.0070   20.8700 O   0  0  0  0  0  0  0  0  0  0  0  0
  -35.5110  -12.9090   20.0370 C   0  0  0  0  0  0  0  0  0  0  0  0
  -36.8420  -13.0820   19.9710 N   0  0  0  0  0  0  0  0  0  0  0  0
  -34.7860  -13.5990   20.7560 O   0  0  0  0  0  0  0  0  0  0  0  0
  -37.3650  -12.4570   19.3770 H   0  0  0  0  0  0  0  0  0  0  0  0
  -40.1620  -13.9410   21.1020 C   0  0  0  0  0  0  0  0  0  0  0  0
  -37.6150  -14.0870   20.7060 C   0  0  0  0  0  3  0  0  0  0  0  0
  -37.9300  -15.3140   19.8160 C   0  0  0  0  0  2  0  0  0  0  0  0
  -39.2800  -15.2150   19.1010 C   0  0  0  0  0  2  0  0  0  0  0  0
  -40.4130  -15.0690   20.1200 C   0  0  0  0  0  2  0  0  0  0  0  0
  -38.8510  -13.4680   21.3670 C   0  0  0  0  0  0  0  0  0  0  0  0
  -38.6800  -12.3930   22.2660 C   0  0  0  0  0  3  0  0  0  0  0  0
  -39.7870  -11.7860   22.8840 C   0  0  0  0  0  3  0  0  0  0  0  0
  -41.0830  -12.2760   22.6380 C   0  0  0  0  0  3  0  0  0  0  0  0
  -41.2670  -13.3520   21.7490 C   0  0  0  0  0  3  0  0  0  0  0  0
  -34.0850   -8.8350   21.5700 C   0  0  0  0  0  3  0  0  0  0  0  0
  -34.7400   -7.5480   21.2930 N   0  0  0  0  0  0  0  0  0  0  0  0
  -34.0900   -6.4130   20.9950 C   0  0  0  0  0  0  0  0  0  0  0  0
  -32.8590   -6.3280   20.9970 O   0  0  0  0  0  0  0  0  0  0  0  0
  -35.7480   -7.5560   21.2360 H   0  0  0  0  0  0  0  0  0  0  0  0
  -34.6770   -4.7760   19.1830 C   0  0  0  0  0  1  0  0  0  0  0  0
  -34.9380   -5.1780   20.6430 C   0  0  0  0  0  3  0  0  0  0  0  0
  -35.0850   -4.2620   22.9150 C   0  0  0  0  0  1  0  0  0  0  0  0
  -34.6890   -4.0210   21.5300 N   0  0  0  0  0  0  0  0  0  0  0  0
  -35.1960   -3.2020   21.2030 H   0  0  0  0  0  0  0  0  0  0  0  0
  -34.0820   -9.1310   23.1190 C   0  0  1  0  0  0  0  0  0  0  0  0
  -35.3090   -8.5470   23.8590 C   0  0  0  0  0  1  0  0  0  0  0  0
  -34.0510  -10.6540   23.3830 C   0  0  0  0  0  1  0  0  0  0  0  0
  -32.8060   -8.5510   23.7650 C   0  0  0  0  0  1  0  0  0  0  0  0
  1  3  2  0
  2  9  1  0
  2  3  1  0
  4  1  1  0
  5  4  1  0
  5  2  1  0
  9  7  1  6
  9  6  1  0
  9  8  1  0
 12 11  1  6
 12  1  1  0
 12 10  1  0
 13 12  1  0
 14 22  1  0
 14 21  2  0
 15 20  1  0
 15 16  1  0
 17 16  1  0
 18 27  1  0
 18 17  1  0
 19 18  1  0
 19 20  1  0
 20 14  1  0
 22 13  1  0
 23 22  1  0
 24 49  1  0
 25 24  2  0
 26 28  2  0
 26 25  1  0
 27 24  1  0
 28 27  1  0
 29 26  1  0
 30 29  2  0
 31 30  1  0
 32 31  2  0
 32 33  1  0
 33 34  2  0
 34 29  1  0
 35 32  1  0
 36 37  1  0
 36 35  1  0
 38 37  2  0
 39 38  1  0
 40 39  2  0
 40 41  1  0
 41 36  2  0
 42 41  1  0
 43 39  1  0
 44 25  1  0
 44 46  2  0
 45 44  1  0
 47 45  1  0
 48 45  1  0
 49 50  1  0
 49 51  1  0
 52  5  1  0
 52 53  1  0
 53 54  1  0
 55 54  1  0
 56 67  2  0
 57 62  1  0
 57 55  1  0
 58 66  1  0
 58 68  1  0
 59 61  1  0
 60 66  1  0
 61 60  1  0
 61 62  2  0
 63 57  2  0
 64 59  2  0
 64 63  1  0
 65 59  1  0
 65 58  1  0
 66 56  1  0
 68 70  2  0
 69 68  1  0
 71 69  1  0
 72 77  2  0
 72 81  1  0
 73 69  1  0
 73 77  1  0
 74 73  1  0
 75 74  1  0
 75 76  1  0
 76 72  1  0
 77 78  1  0
 78 79  2  0
 80 79  1  0
 81 80  2  0
 82 56  1  0
 82 92  1  0
 83 82  1  0
 84 85  2  0
 84 83  1  0
 86 83  1  0
 88 87  1  0
 88 84  1  0
 88 90  1  0
 90 89  1  0
 91 90  1  0
 92 94  1  6
 92 95  1  0
 92 93  1  0
M  ISO  4  14 100  22 100  54 101  55 101
M  END
>  <TORSDO>  (48) 
F 22

>  <SCORE>  (48) 
-6.475

>  <name>  (48) 
52

>  <ligand_id>  (48) 
52

>  <original_smiles>  (48) 
[H]c1c([H])c([H])c2c(c1[H])C([H])([H])C([H])([H])C([H])([H])C2([H])N([H])C(=O)C1([H])N(C(=O)C([H])(N([H])C(=O)C([H])(N([H])C([H])([H])[H])C([H])([H])[H])C(C([H])([H])[H])(C([H])([H])[H])C([H])([H])[H])C([H])([H])c2c([H])c(OC([H])([H])C([H])([H])C([H])([H])n3nc(C(C([H])([H])[H])(C([H])([H])[H])C([H])([H])N([H])C(=O)N4C([H])([H])C([H])([H])C([H])([H])C([H])(n5nc(-c6c([H])c([H])c(Oc7c([H])c([H])c(F)c([H])c7F)c([H])c6[H])c(C(=O)N([H])[H])c5N([H])[H])C4([H])[H])nc3C(C([H])([H])[H])(C([H])([H])[H])C([H])([H])[H])c([H])c([H])c2C1([H])[H]

>  <smiles>  (48) 
[H]c1c([H])c([H])c2c(c1[H])C([H])([H])C([H])([H])C([H])([H])C2([H])N([H])C(=O)C1([H])N(C(=O)C([H])(N([H])C(=O)C([H])(N([H])C([H])([H])[H])C([H])([H])[H])C(C([H])([H])[H])(C([H])([H])[H])C([H])([H])[H])C([H])([H])c2c([H])c(OC([H])([H])C([H])([H])C([H])([H])n3nc(C(C([H])([H])[H])(C([H])([H])[H])C([H])([H])N([H])C(=O)N4C([H])([H])C([H])([H])C([H])([H])C([H])(n5nc(-c6c([H])c([H])c(Oc7c([H])c([H])c(F)c([H])c7F)c([H])c6[H])c(C(=O)N([H])[H])c5N([H])[H])C4([H])[H])nc3C(C([H])([H])[H])(C([H])([H])[H])C([H])([H])[H])c([H])c([H])c2C1([H])[H]

$$$$
53:0:0
     RDKit          3D

 92100  0  0  1  0  0  0  0  0999 V2000
  -30.1480  -20.5900   19.1460 C   0  0  0  0  0  2  0  0  0  0  0  0
  -29.7660  -18.7900   20.2030 C   0  0  0  0  0  0  0  0  0  0  0  0
  -30.5240  -19.2980   19.1730 N   0  0  0  0  0  0  0  0  0  0  0  0
  -29.0100  -19.7720   20.7810 N   0  0  0  0  0  2  0  0  0  0  0  0
  -29.2570  -20.9490   20.0760 N   0  0  0  0  0  0  0  0  0  0  0  0
  -28.6170  -17.0070   21.6010 C   0  0  0  0  0  1  0  0  0  0  0  0
  -29.9050  -17.2910   20.7840 C   0  0  1  0  0  0  0  0  0  0  0  0
  -30.6820  -14.8910   19.8110 C   0  0  0  0  0  0  0  0  0  0  0  0
  -30.4140  -12.6120   18.8040 C   0  0  0  0  0  2  0  0  0  0  0  0
  -29.3770  -12.6380   17.6600 C   0  0  0  0  0  2  0  0  0  0  0  0
  -27.9450  -12.4710   18.2090 C   0  0  0  0  0  2  0  0  0  0  0  0
  -27.6570  -13.3390   19.4640 C   0  0  0  0  0  3  0  0  0  0  0  0
  -28.8130  -13.2820   20.4850 C   0  0  0  0  0  2  0  0  0  0  0  0
  -30.0370  -13.6690   19.7730 N   0  0  0  0  0  0  0  0  0  0  0  0
  -31.8740  -14.9350   19.4980 O   0  0  0  0  0  0  0  0  0  0  0  0
  -29.3090  -16.3970   18.5180 C   0  0  0  0  0  1  0  0  0  0  0  0
  -29.9200  -16.0720   19.8150 N   0  0  0  0  0  0  0  0  0  0  0  0
  -25.3510  -13.8880   20.4340 C   0  0  0  0  0  0  0  0  0  0  0  0
  -24.3180  -13.0950   20.8530 C   0  0  0  0  0  0  0  0  0  0  0  0
  -24.7740  -11.7490   20.7150 C   0  0  0  0  0  0  0  0  0  0  0  0
  -26.3680  -13.0230   20.0650 N   0  0  0  0  0  0  0  0  0  0  0  0
  -26.0330  -11.7280   20.2960 N   0  0  0  0  0  0  0  0  0  0  0  0
  -24.0630  -10.4770   20.9000 C   0  0  0  0  0  0  0  0  0  0  0  0
  -24.4860   -9.5270   21.8540 C   0  0  0  0  0  3  0  0  0  0  0  0
  -23.7730   -8.3200   22.0270 C   0  0  0  0  0  3  0  0  0  0  0  0
  -22.6240   -8.0570   21.2450 C   0  0  0  0  0  0  0  0  0  0  0  0
  -22.2210   -8.9960   20.2800 C   0  0  0  0  0  3  0  0  0  0  0  0
  -22.9340  -10.1940   20.1050 C   0  0  0  0  0  3  0  0  0  0  0  0
  -21.8850   -6.9010   21.3260 O   0  0  0  0  0  0  0  0  0  0  0  0
  -21.7180   -6.2360   22.5140 C   0  0  0  0  0  0  0  0  0  0  0  0
  -21.1100   -6.8480   23.6320 C   0  0  0  0  0  3  0  0  0  0  0  0
  -20.8970   -6.1050   24.8110 C   0  0  0  0  0  3  0  0  0  0  0  0
  -21.2800   -4.7520   24.8720 C   0  0  0  0  0  0  0  0  0  0  0  0
  -21.8810   -4.1400   23.7570 C   0  0  0  0  0  3  0  0  0  0  0  0
  -22.0960   -4.8800   22.5810 C   0  0  0  0  0  0  0  0  0  0  0  0
  -22.6550   -4.2790   21.5030 F   0  0  0  0  0  0  0  0  0  0  0  0
  -21.0680   -4.0370   26.0000 F   0  0  0  0  0  0  0  0  0  0  0  0
  -22.9520  -13.5560   21.2660 C   0  0  0  0  0  0  0  0  0  0  0  0
  -22.2950  -12.8110   22.1480 N   0  0  0  0  0  0  0  0  0  0  0  0
  -22.4770  -14.6100   20.8440 O   0  0  0  0  0  0  0  0  0  0  0  0
  -22.6940  -11.9570   22.5100 H   0  0  0  0  0  0  0  0  0  0  0  0
  -21.3810  -13.0990   22.4690 H   0  0  0  0  0  0  0  0  0  0  0  0
  -25.5010  -15.2660   20.3120 N   0  0  0  0  0  0  0  0  0  0  0  0
  -24.7530  -15.9140   20.5290 H   0  0  0  0  0  0  0  0  0  0  0  0
  -26.3230  -15.7200   19.9370 H   0  0  0  0  0  0  0  0  0  0  0  0
  -30.9460  -17.8970   23.1320 C   0  0  0  0  0  1  0  0  0  0  0  0
  -32.4400  -17.8040   21.1340 C   0  0  0  0  0  1  0  0  0  0  0  0
  -31.1490  -17.2290   21.7550 C   0  0  0  0  0  3  0  0  0  0  0  0
  -28.4180  -22.2190   20.2390 C   0  0  0  0  0  2  0  0  0  0  0  0
  -29.0190  -23.7280   20.2110 C   0  0  0  0  0  3  0  0  0  0  0  0
  -27.9580  -24.9410   20.0110 C   0  0  0  0  0  3  0  0  0  0  0  0
  -28.2580  -26.4170   20.1000 O   0  0  0  0  0  0  0  0  0  0  0  0
  -24.5260  -31.8870   23.1120 C   0  0  0  0  0  0  0  0  0  0  0  0
  -27.1660  -27.3230   20.0360 C   0  0  0  0  0  0  0  0  0  0  0  0
  -23.3390  -30.5000   21.4540 C   0  0  0  0  0  3  0  0  0  0  0  0
  -24.8050  -28.9700   20.0180 C   0  0  0  0  0  0  0  0  0  0  0  0
  -25.8840  -30.8190   21.2900 C   0  0  0  0  0  2  0  0  0  0  0  0
  -25.9730  -29.4430   20.6300 C   0  0  0  0  0  0  0  0  0  0  0  0
  -27.1560  -28.6330   20.6280 C   0  0  0  0  0  3  0  0  0  0  0  0
  -25.9700  -26.9270   19.3900 C   0  0  0  0  0  3  0  0  0  0  0  0
  -24.8100  -27.7210   19.3860 C   0  0  0  0  0  3  0  0  0  0  0  0
  -23.5660  -29.8430   20.0680 C   0  0  0  0  0  2  0  0  0  0  0  0
  -24.6020  -31.0860   22.0080 N   0  0  0  0  0  0  0  0  0  0  0  0
  -23.4370  -32.1550   23.6420 O   0  0  0  0  0  0  0  0  0  0  0  0
  -22.6740  -29.4700   22.4000 C   0  0  0  0  0  0  0  0  0  0  0  0
  -21.3440  -29.3120   22.2880 N   0  0  0  0  0  0  0  0  0  0  0  0
  -23.3540  -28.8180   23.1970 O   0  0  0  0  0  0  0  0  0  0  0  0
  -20.8540  -29.8890   21.6200 H   0  0  0  0  0  0  0  0  0  0  0  0
  -17.9510  -28.1850   22.8530 C   0  0  0  0  0  0  0  0  0  0  0  0
  -20.5230  -28.3680   23.0500 C   0  0  0  0  0  3  0  0  0  0  0  0
  -20.5670  -26.9570   22.4200 C   0  0  0  0  0  2  0  0  0  0  0  0
  -19.4260  -26.7010   21.4300 C   0  0  0  0  0  2  0  0  0  0  0  0
  -18.0690  -26.8580   22.1230 C   0  0  0  0  0  2  0  0  0  0  0  0
  -19.1030  -28.9020   23.2740 C   0  0  0  0  0  0  0  0  0  0  0  0
  -18.9370  -30.1460   23.9190 C   0  0  0  0  0  3  0  0  0  0  0  0
  -17.6510  -30.6760   24.1450 C   0  0  0  0  0  3  0  0  0  0  0  0
  -16.5140  -29.9550   23.7380 C   0  0  0  0  0  3  0  0  0  0  0  0
  -16.6650  -28.7110   23.0990 C   0  0  0  0  0  3  0  0  0  0  0  0
  -25.8000  -32.5210   23.7480 C   0  0  0  0  0  3  0  0  0  0  0  0
  -25.4720  -33.9070   24.1120 N   0  0  0  0  0  0  0  0  0  0  0  0
  -25.7980  -34.9850   23.3860 C   0  0  0  0  0  0  0  0  0  0  0  0
  -26.4770  -34.9160   22.3570 O   0  0  0  0  0  0  0  0  0  0  0  0
  -24.8690  -34.0320   24.9120 H   0  0  0  0  0  0  0  0  0  0  0  0
  -24.0730  -36.7850   23.0480 C   0  0  0  0  0  1  0  0  0  0  0  0
  -25.2930  -36.3540   23.8770 C   0  0  0  0  0  3  0  0  0  0  0  0
  -27.3980  -37.2240   24.8000 C   0  0  0  0  0  1  0  0  0  0  0  0
  -26.3250  -37.4140   23.8260 N   0  0  0  0  0  0  0  0  0  0  0  0
  -25.9110  -38.3290   23.9850 H   0  0  0  0  0  0  0  0  0  0  0  0
  -26.3260  -31.7270   25.0070 C   0  0  1  0  0  0  0  0  0  0  0  0
  -25.2340  -31.4430   26.0650 C   0  0  0  0  0  1  0  0  0  0  0  0
  -26.9340  -30.3700   24.5830 C   0  0  0  0  0  1  0  0  0  0  0  0
  -27.4620  -32.5230   25.6910 C   0  0  0  0  0  1  0  0  0  0  0  0
  1  3  1  0
  1  5  1  0
  2  4  1  0
  2  7  1  0
  3  2  2  0
  5 49  1  0
  5  4  1  0
  7  6  1  1
  7 48  1  0
  8 17  1  0
  9 14  1  0
 10 11  1  0
 10  9  1  0
 12 11  1  0
 12 21  1  0
 12 13  1  0
 14  8  1  0
 14 13  1  0
 15  8  2  0
 16 17  1  0
 17  7  1  0
 18 19  2  0
 19 38  1  0
 20 19  1  0
 20 23  1  0
 21 22  1  0
 21 18  1  0
 22 20  2  0
 23 24  1  0
 24 25  2  0
 26 29  1  0
 26 25  1  0
 27 26  2  0
 28 27  1  0
 28 23  2  0
 29 30  1  0
 30 35  2  0
 30 31  1  0
 31 32  2  0
 32 33  1  0
 33 37  1  0
 34 33  2  0
 35 34  1  0
 36 35  1  0
 38 39  1  0
 39 42  1  0
 39 41  1  0
 40 38  2  0
 43 18  1  0
 43 44  1  0
 45 43  1  0
 47 48  1  0
 48 46  1  0
 50 49  1  0
 51 52  1  0
 51 50  2  0
 53 64  2  0
 54 52  1  0
 54 59  1  0
 55 63  1  0
 55 65  1  0
 56 62  1  0
 56 58  1  0
 57 63  1  0
 58 57  1  0
 59 58  2  0
 60 54  2  0
 61 60  1  0
 61 56  2  0
 62 55  1  0
 63 53  1  0
 65 67  2  0
 66 65  1  0
 68 66  1  0
 69 78  2  0
 69 74  1  0
 70 66  1  0
 70 74  1  0
 71 70  1  0
 72 73  1  0
 72 71  1  0
 73 69  1  0
 74 75  2  0
 75 76  1  0
 77 76  2  0
 78 77  1  0
 79 53  1  0
 79 80  1  0
 79 89  1  0
 80 83  1  0
 81 85  1  0
 81 80  1  0
 82 81  2  0
 85 84  1  0
 87 85  1  0
 87 88  1  0
 87 86  1  0
 89 92  1  1
 89 90  1  0
 91 89  1  0
M  ISO  4   8 100  17 100  51 101  52 101
M  END
>  <TORSDO>  (49) 
F 21

>  <SCORE>  (49) 
-11.420

>  <name>  (49) 
53

>  <ligand_id>  (49) 
53

>  <original_smiles>  (49) 
[H]c1c([H])c([H])c2c(c1[H])C([H])([H])C([H])([H])C([H])([H])C2([H])N([H])C(=O)C1([H])N(C(=O)C([H])(N([H])C(=O)C([H])(N([H])C([H])([H])[H])C([H])([H])[H])C(C([H])([H])[H])(C([H])([H])[H])C([H])([H])[H])C([H])([H])c2c([H])c(OC([H])([H])C([H])([H])C([H])([H])n3nc(C(N(C(=O)N4C([H])([H])C([H])([H])C([H])([H])C([H])(n5nc(-c6c([H])c([H])c(Oc7c([H])c([H])c(F)c([H])c7F)c([H])c6[H])c(C(=O)N([H])[H])c5N([H])[H])C4([H])[H])C([H])([H])[H])(C([H])([H])[H])C([H])(C([H])([H])[H])C([H])([H])[H])nc3[H])c([H])c([H])c2C1([H])[H]

>  <smiles>  (49) 
[H]c1c([H])c([H])c2c(c1[H])C([H])([H])C([H])([H])C([H])([H])C2([H])N([H])C(=O)C1([H])N(C(=O)C([H])(N([H])C(=O)C([H])(N([H])C([H])([H])[H])C([H])([H])[H])C(C([H])([H])[H])(C([H])([H])[H])C([H])([H])[H])C([H])([H])c2c([H])c(OC([H])([H])C([H])([H])C([H])([H])n3nc(C(N(C(=O)N4C([H])([H])C([H])([H])C([H])([H])C([H])(n5nc(-c6c([H])c([H])c(Oc7c([H])c([H])c(F)c([H])c7F)c([H])c6[H])c(C(=O)N([H])[H])c5N([H])[H])C4([H])[H])C([H])([H])[H])(C([H])([H])[H])C([H])(C([H])([H])[H])C([H])([H])[H])nc3[H])c([H])c([H])c2C1([H])[H]

$$$$
54:0:0
     RDKit          3D

 91 99  0  0  1  0  0  0  0  0999 V2000
  -30.8270  -22.1210   20.1080 C   0  0  0  0  0  3  0  0  0  0  0  0
  -28.7240  -21.5030   19.2730 C   0  0  0  0  0  3  0  0  0  0  0  0
  -29.5790  -22.5680   19.6330 C   0  0  0  0  0  0  0  0  0  0  0  0
  -30.2650  -19.8560   19.8980 C   0  0  0  0  0  0  0  0  0  0  0  0
  -31.1410  -20.8090   20.2510 N   0  0  0  0  0  0  0  0  0  0  0  0
  -29.0580  -20.1830   19.4200 N   0  0  0  0  0  0  0  0  0  0  0  0
  -29.8060  -18.2790   21.7960 C   0  0  0  0  0  1  0  0  0  0  0  0
  -32.0400  -18.1710   20.7090 C   0  0  0  0  0  1  0  0  0  0  0  0
  -30.5290  -18.3740   20.4420 C   0  0  2  0  0  0  0  0  0  0  0  0
  -30.1490  -17.1280   19.5070 C   0  0  0  0  0  2  0  0  0  0  0  0
  -30.8900  -14.6410   19.9570 C   0  0  0  0  0  0  0  0  0  0  0  0
  -30.6160  -12.3940   18.9630 C   0  0  0  0  0  2  0  0  0  0  0  0
  -29.6270  -12.5450   17.7850 C   0  0  0  0  0  2  0  0  0  0  0  0
  -28.1690  -12.4040   18.2730 C   0  0  0  0  0  2  0  0  0  0  0  0
  -27.8710  -13.2610   19.5330 C   0  0  0  0  0  3  0  0  0  0  0  0
  -28.9770  -13.1040   20.6020 C   0  0  0  0  0  2  0  0  0  0  0  0
  -30.2630  -13.4210   19.9610 N   0  0  0  0  0  0  0  0  0  0  0  0
  -32.0560  -14.7620   19.5780 O   0  0  0  0  0  0  0  0  0  0  0  0
  -30.0750  -15.7300   20.1110 N   0  0  0  0  0  0  0  0  0  0  0  0
  -29.1560  -15.4780   20.4410 H   0  0  0  0  0  0  0  0  0  0  0  0
  -25.5180  -13.8890   20.3470 C   0  0  0  0  0  0  0  0  0  0  0  0
  -24.4560  -13.1290   20.7550 C   0  0  0  0  0  0  0  0  0  0  0  0
  -24.8980  -11.7720   20.6980 C   0  0  0  0  0  0  0  0  0  0  0  0
  -26.5420  -12.9940   20.0720 N   0  0  0  0  0  0  0  0  0  0  0  0
  -26.1750  -11.7160   20.3440 N   0  0  0  0  0  0  0  0  0  0  0  0
  -24.1610  -10.5190   20.9090 C   0  0  0  0  0  0  0  0  0  0  0  0
  -24.5590   -9.5830   21.8900 C   0  0  0  0  0  3  0  0  0  0  0  0
  -23.8240   -8.3940   22.0850 C   0  0  0  0  0  3  0  0  0  0  0  0
  -22.6770   -8.1320   21.3020 C   0  0  0  0  0  0  0  0  0  0  0  0
  -22.2990   -9.0560   20.3120 C   0  0  0  0  0  3  0  0  0  0  0  0
  -23.0320  -10.2370   20.1150 C   0  0  0  0  0  3  0  0  0  0  0  0
  -21.9160   -6.9940   21.4020 O   0  0  0  0  0  0  0  0  0  0  0  0
  -21.7580   -6.3330   22.5950 C   0  0  0  0  0  0  0  0  0  0  0  0
  -21.1760   -6.9560   23.7170 C   0  0  0  0  0  3  0  0  0  0  0  0
  -20.9800   -6.2240   24.9060 C   0  0  0  0  0  3  0  0  0  0  0  0
  -21.3470   -4.8670   24.9640 C   0  0  0  0  0  0  0  0  0  0  0  0
  -21.9160   -4.2410   23.8420 C   0  0  0  0  0  3  0  0  0  0  0  0
  -22.1190   -4.9730   22.6580 C   0  0  0  0  0  0  0  0  0  0  0  0
  -22.6540   -4.3620   21.5730 F   0  0  0  0  0  0  0  0  0  0  0  0
  -21.1490   -4.1580   26.1010 F   0  0  0  0  0  0  0  0  0  0  0  0
  -23.0790  -13.6270   21.0870 C   0  0  0  0  0  0  0  0  0  0  0  0
  -22.3700  -12.9300   21.9680 N   0  0  0  0  0  0  0  0  0  0  0  0
  -22.6400  -14.6670   20.6000 O   0  0  0  0  0  0  0  0  0  0  0  0
  -22.7450  -12.0940   22.3910 H   0  0  0  0  0  0  0  0  0  0  0  0
  -21.4460  -13.2410   22.2320 H   0  0  0  0  0  0  0  0  0  0  0  0
  -25.6850  -15.2580   20.1650 N   0  0  0  0  0  0  0  0  0  0  0  0
  -24.9150  -15.9080   20.2860 H   0  0  0  0  0  0  0  0  0  0  0  0
  -26.5090  -15.6960   19.7750 H   0  0  0  0  0  0  0  0  0  0  0  0
  -29.2810  -24.0980   19.3850 C   0  0  0  0  0  3  0  0  0  0  0  0
  -28.3370  -24.9430   20.3450 C   0  0  0  0  0  3  0  0  0  0  0  0
  -28.4310  -26.4200   20.2360 O   0  0  0  0  0  0  0  0  0  0  0  0
  -24.5280  -31.7640   23.1630 C   0  0  0  0  0  0  0  0  0  0  0  0
  -27.2740  -27.2120   20.2090 C   0  0  0  0  0  0  0  0  0  0  0  0
  -23.3850  -30.3610   21.4810 C   0  0  0  0  0  3  0  0  0  0  0  0
  -24.8890  -28.7930   20.1270 C   0  0  0  0  0  0  0  0  0  0  0  0
  -25.9300  -30.6740   21.3990 C   0  0  0  0  0  2  0  0  0  0  0  0
  -26.0350  -29.2960   20.7570 C   0  0  0  0  0  0  0  0  0  0  0  0
  -27.2290  -28.5180   20.7850 C   0  0  0  0  0  3  0  0  0  0  0  0
  -26.1090  -26.7540   19.5560 C   0  0  0  0  0  3  0  0  0  0  0  0
  -24.9270  -27.5230   19.5230 C   0  0  0  0  0  3  0  0  0  0  0  0
  -23.6550  -29.6740   20.1170 C   0  0  0  0  0  2  0  0  0  0  0  0
  -24.6300  -30.9530   22.0710 N   0  0  0  0  0  0  0  0  0  0  0  0
  -23.4250  -32.0460   23.6540 O   0  0  0  0  0  0  0  0  0  0  0  0
  -22.6830  -29.3500   22.4200 C   0  0  0  0  0  0  0  0  0  0  0  0
  -21.3520  -29.2200   22.2820 N   0  0  0  0  0  0  0  0  0  0  0  0
  -23.3360  -28.6870   23.2290 O   0  0  0  0  0  0  0  0  0  0  0  0
  -20.8850  -29.8050   21.6030 H   0  0  0  0  0  0  0  0  0  0  0  0
  -17.9270  -28.1920   22.8180 C   0  0  0  0  0  0  0  0  0  0  0  0
  -20.5010  -28.2940   23.0310 C   0  0  0  0  0  3  0  0  0  0  0  0
  -20.5060  -26.8890   22.3890 C   0  0  0  0  0  2  0  0  0  0  0  0
  -19.3640  -26.6750   21.3900 C   0  0  0  0  0  2  0  0  0  0  0  0
  -18.0090  -26.8700   22.0750 C   0  0  0  0  0  2  0  0  0  0  0  0
  -19.0980  -28.8690   23.2520 C   0  0  0  0  0  0  0  0  0  0  0  0
  -18.9680  -30.1140   23.9060 C   0  0  0  0  0  3  0  0  0  0  0  0
  -17.6980  -30.6800   24.1310 C   0  0  0  0  0  3  0  0  0  0  0  0
  -16.5410  -30.0010   23.7100 C   0  0  0  0  0  3  0  0  0  0  0  0
  -16.6580  -28.7580   23.0600 C   0  0  0  0  0  3  0  0  0  0  0  0
  -25.7880  -32.3930   23.8340 C   0  0  0  0  0  3  0  0  0  0  0  0
  -26.2750  -31.6040   25.1130 C   0  0  1  0  0  0  0  0  0  0  0  0
  -25.1530  -31.3260   26.1400 C   0  0  0  0  0  1  0  0  0  0  0  0
  -26.8970  -30.2440   24.7170 C   0  0  0  0  0  1  0  0  0  0  0  0
  -27.3890  -32.4050   25.8260 C   0  0  0  0  0  1  0  0  0  0  0  0
  -25.4590  -33.7830   24.1800 N   0  0  0  0  0  0  0  0  0  0  0  0
  -25.8010  -34.8520   23.4470 C   0  0  0  0  0  0  0  0  0  0  0  0
  -26.4990  -34.7710   22.4320 O   0  0  0  0  0  0  0  0  0  0  0  0
  -24.8490  -33.9210   24.9720 H   0  0  0  0  0  0  0  0  0  0  0  0
  -24.0780  -36.6430   23.0600 C   0  0  0  0  0  1  0  0  0  0  0  0
  -25.2880  -36.2270   23.9130 C   0  0  0  0  0  3  0  0  0  0  0  0
  -27.3770  -37.1100   24.8570 C   0  0  0  0  0  1  0  0  0  0  0  0
  -26.3200  -37.2870   23.8650 N   0  0  0  0  0  0  0  0  0  0  0  0
  -25.9040  -38.2050   23.9990 H   0  0  0  0  0  0  0  0  0  0  0  0
  1  5  1  0
  2  6  2  0
  2  3  1  0
  3  1  2  0
  4  5  2  0
  4  9  1  0
  6  4  1  0
  9  8  1  1
  9  7  1  0
 10 19  1  0
 10  9  1  0
 11 17  1  0
 11 19  1  0
 12 17  1  0
 13 14  1  0
 13 12  1  0
 15 14  1  0
 15 24  1  0
 15 16  1  0
 17 16  1  0
 18 11  2  0
 19 20  1  0
 21 22  2  0
 22 41  1  0
 23 22  1  0
 23 26  1  0
 24 25  1  0
 24 21  1  0
 25 23  2  0
 26 27  1  0
 27 28  2  0
 29 32  1  0
 29 28  1  0
 30 29  2  0
 31 30  1  0
 31 26  2  0
 32 33  1  0
 33 38  2  0
 33 34  1  0
 34 35  2  0
 35 36  1  0
 36 40  1  0
 37 36  2  0
 38 37  1  0
 39 38  1  0
 41 42  1  0
 42 45  1  0
 42 44  1  0
 43 41  2  0
 46 47  1  0
 46 21  1  0
 48 46  1  0
 49  3  1  0
 49 50  2  0
 51 50  1  0
 52 63  2  0
 53 51  1  0
 53 58  1  0
 54 62  1  0
 54 64  1  0
 55 57  1  0
 56 62  1  0
 57 58  2  0
 57 56  1  0
 59 53  2  0
 60 59  1  0
 60 55  2  0
 61 55  1  0
 61 54  1  0
 62 52  1  0
 64 66  2  0
 65 64  1  0
 67 65  1  0
 68 77  2  0
 68 73  1  0
 69 65  1  0
 69 73  1  0
 70 69  1  0
 71 72  1  0
 71 70  1  0
 72 68  1  0
 73 74  2  0
 74 75  1  0
 76 75  2  0
 77 76  1  0
 78 52  1  0
 78 83  1  0
 78 79  1  0
 79 82  1  1
 79 80  1  0
 81 79  1  0
 83 86  1  0
 84 88  1  0
 84 83  1  0
 85 84  2  0
 88 87  1  0
 90 88  1  0
 90 91  1  0
 90 89  1  0
M  ISO  4  11 100  19 100  50 101  51 101
M  END
>  <TORSDO>  (50) 
F 20

>  <SCORE>  (50) 
-13.254

>  <name>  (50) 
54

>  <ligand_id>  (50) 
54

>  <original_smiles>  (50) 
[H]c1nc(C(C([H])([H])[H])(C([H])([H])[H])C([H])([H])N([H])C(=O)N2C([H])([H])C([H])([H])C([H])([H])C([H])(n3nc(-c4c([H])c([H])c(Oc5c([H])c([H])c(F)c([H])c5F)c([H])c4[H])c(C(=O)N([H])[H])c3N([H])[H])C2([H])[H])nc([H])c1C([H])([H])C([H])([H])Oc1c([H])c([H])c2c(c1[H])C([H])([H])N(C(=O)C([H])(N([H])C(=O)C([H])(N([H])C([H])([H])[H])C([H])([H])[H])C(C([H])([H])[H])(C([H])([H])[H])C([H])([H])[H])C([H])(C(=O)N([H])C1([H])c3c([H])c([H])c([H])c([H])c3C([H])([H])C([H])([H])C1([H])[H])C2([H])[H]

>  <smiles>  (50) 
[H]c1nc(C(C([H])([H])[H])(C([H])([H])[H])C([H])([H])N([H])C(=O)N2C([H])([H])C([H])([H])C([H])([H])C([H])(n3nc(-c4c([H])c([H])c(Oc5c([H])c([H])c(F)c([H])c5F)c([H])c4[H])c(C(=O)N([H])[H])c3N([H])[H])C2([H])[H])nc([H])c1C([H])([H])C([H])([H])Oc1c([H])c([H])c2c(c1[H])C([H])([H])N(C(=O)C([H])(N([H])C(=O)C([H])(N([H])C([H])([H])[H])C([H])([H])[H])C(C([H])([H])[H])(C([H])([H])[H])C([H])([H])[H])C([H])(C(=O)N([H])C1([H])c3c([H])c([H])c([H])c([H])c3C([H])([H])C([H])([H])C1([H])[H])C2([H])[H]

$$$$
55:0:0
     RDKit          3D

 91 99  0  0  1  0  0  0  0  0999 V2000
  -29.9820  -23.2850   21.0580 C   0  0  0  0  0  3  0  0  0  0  0  0
  -30.7310  -22.1410   21.4000 C   0  0  0  0  0  0  0  0  0  0  0  0
  -28.8720  -23.1580   20.2180 C   0  0  0  0  0  0  0  0  0  0  0  0
  -29.4210  -20.7000   20.1350 C   0  0  0  0  0  0  0  0  0  0  0  0
  -31.9320  -22.2730   22.3120 C   0  0  0  0  0  1  0  0  0  0  0  0
  -30.4490  -20.8910   20.9550 N   0  0  0  0  0  0  0  0  0  0  0  0
  -28.6280  -21.8130   19.7800 N   0  0  0  0  0  0  0  0  0  0  0  0
  -29.1290  -19.0770   18.1460 C   0  0  0  0  0  1  0  0  0  0  0  0
  -27.7520  -18.7310   20.2350 C   0  0  0  0  0  1  0  0  0  0  0  0
  -29.1460  -19.0980   19.6870 C   0  0  2  0  0  0  0  0  0  0  0  0
  -30.1600  -17.7700   20.1020 C   0  0  0  0  0  2  0  0  0  0  0  0
  -30.5540  -14.9970   19.8470 C   0  0  0  0  0  0  0  0  0  0  0  0
  -30.3530  -12.6280   18.9240 C   0  0  0  0  0  2  0  0  0  0  0  0
  -29.3300  -12.5560   17.7680 C   0  0  0  0  0  2  0  0  0  0  0  0
  -27.8980  -12.3640   18.3060 C   0  0  0  0  0  2  0  0  0  0  0  0
  -27.5860  -13.3000   19.5020 C   0  0  0  0  0  3  0  0  0  0  0  0
  -28.7240  -13.3340   20.5440 C   0  0  0  0  0  2  0  0  0  0  0  0
  -29.9410  -13.7410   19.8320 N   0  0  0  0  0  0  0  0  0  0  0  0
  -31.7470  -15.0310   19.5280 O   0  0  0  0  0  0  0  0  0  0  0  0
  -29.8000  -16.2060   20.0160 N   0  0  0  0  0  0  0  0  0  0  0  0
  -28.8170  -16.0180   20.1440 H   0  0  0  0  0  0  0  0  0  0  0  0
  -25.2960  -13.9030   20.4570 C   0  0  0  0  0  0  0  0  0  0  0  0
  -24.2440  -13.1440   20.8820 C   0  0  0  0  0  0  0  0  0  0  0  0
  -24.6640  -11.7830   20.7670 C   0  0  0  0  0  0  0  0  0  0  0  0
  -26.2910  -13.0100   20.1050 N   0  0  0  0  0  0  0  0  0  0  0  0
  -25.9260  -11.7250   20.3550 N   0  0  0  0  0  0  0  0  0  0  0  0
  -23.9160  -10.5340   20.9710 C   0  0  0  0  0  0  0  0  0  0  0  0
  -24.3800   -9.5290   21.8490 C   0  0  0  0  0  3  0  0  0  0  0  0
  -23.6340   -8.3460   22.0420 C   0  0  0  0  0  3  0  0  0  0  0  0
  -22.4080   -8.1610   21.3600 C   0  0  0  0  0  0  0  0  0  0  0  0
  -21.9590   -9.1550   20.4730 C   0  0  0  0  0  3  0  0  0  0  0  0
  -22.7060  -10.3300   20.2770 C   0  0  0  0  0  3  0  0  0  0  0  0
  -21.6290   -7.0340   21.4630 O   0  0  0  0  0  0  0  0  0  0  0  0
  -21.6290   -6.2620   22.5960 C   0  0  0  0  0  0  0  0  0  0  0  0
  -21.2910   -6.7940   23.8590 C   0  0  0  0  0  3  0  0  0  0  0  0
  -21.2410   -5.9500   24.9860 C   0  0  0  0  0  3  0  0  0  0  0  0
  -21.5160   -4.5770   24.8520 C   0  0  0  0  0  0  0  0  0  0  0  0
  -21.8460   -4.0440   23.5930 C   0  0  0  0  0  3  0  0  0  0  0  0
  -21.9020   -4.8840   22.4680 C   0  0  0  0  0  0  0  0  0  0  0  0
  -22.2020   -4.3640   21.2540 F   0  0  0  0  0  0  0  0  0  0  0  0
  -21.4580   -3.7640   25.9330 F   0  0  0  0  0  0  0  0  0  0  0  0
  -22.8870  -13.6460   21.2780 C   0  0  0  0  0  0  0  0  0  0  0  0
  -22.2100  -12.9370   22.1730 N   0  0  0  0  0  0  0  0  0  0  0  0
  -22.4410  -14.7030   20.8290 O   0  0  0  0  0  0  0  0  0  0  0  0
  -22.5860  -12.0780   22.5460 H   0  0  0  0  0  0  0  0  0  0  0  0
  -21.3040  -13.2530   22.4870 H   0  0  0  0  0  0  0  0  0  0  0  0
  -25.4820  -15.2750   20.3090 N   0  0  0  0  0  0  0  0  0  0  0  0
  -24.7330  -15.9360   20.4780 H   0  0  0  0  0  0  0  0  0  0  0  0
  -26.2900  -15.6930   19.8700 H   0  0  0  0  0  0  0  0  0  0  0  0
  -27.9530  -24.5080   19.8550 C   0  0  0  0  0  2  0  0  0  0  0  0
  -28.2310  -26.0220   20.2240 O   0  0  0  0  0  0  0  0  0  0  0  0
  -24.6120  -31.7850   23.1690 C   0  0  0  0  0  0  0  0  0  0  0  0
  -27.2030  -27.0490   20.1320 C   0  0  0  0  0  0  0  0  0  0  0  0
  -23.4280  -30.4040   21.5040 C   0  0  0  0  0  3  0  0  0  0  0  0
  -24.8930  -28.8370   20.0790 C   0  0  0  0  0  0  0  0  0  0  0  0
  -25.9880  -30.6540   21.3770 C   0  0  0  0  0  2  0  0  0  0  0  0
  -26.0670  -29.2620   20.7140 C   0  0  0  0  0  0  0  0  0  0  0  0
  -27.2210  -28.3840   20.7250 C   0  0  0  0  0  3  0  0  0  0  0  0
  -26.0060  -26.7450   19.4480 C   0  0  0  0  0  3  0  0  0  0  0  0
  -24.8790  -27.5960   19.4290 C   0  0  0  0  0  3  0  0  0  0  0  0
  -23.6670  -29.7370   20.1220 C   0  0  0  0  0  2  0  0  0  0  0  0
  -24.6960  -30.9700   22.0730 N   0  0  0  0  0  0  0  0  0  0  0  0
  -23.5200  -32.0680   23.6860 O   0  0  0  0  0  0  0  0  0  0  0  0
  -22.7330  -29.3940   22.4520 C   0  0  0  0  0  0  0  0  0  0  0  0
  -21.4000  -29.2550   22.3370 N   0  0  0  0  0  0  0  0  0  0  0  0
  -23.3980  -28.7360   23.2570 O   0  0  0  0  0  0  0  0  0  0  0  0
  -20.9190  -29.8340   21.6640 H   0  0  0  0  0  0  0  0  0  0  0  0
  -17.9950  -28.1400   22.8810 C   0  0  0  0  0  0  0  0  0  0  0  0
  -20.5650  -28.3190   23.0970 C   0  0  0  0  0  3  0  0  0  0  0  0
  -20.6090  -26.9020   22.4760 C   0  0  0  0  0  2  0  0  0  0  0  0
  -19.4760  -26.6460   21.4770 C   0  0  0  0  0  2  0  0  0  0  0  0
  -18.1140  -26.8110   22.1570 C   0  0  0  0  0  2  0  0  0  0  0  0
  -19.1440  -28.8560   23.3080 C   0  0  0  0  0  0  0  0  0  0  0  0
  -18.9730  -30.1030   23.9480 C   0  0  0  0  0  3  0  0  0  0  0  0
  -17.6860  -30.6340   24.1600 C   0  0  0  0  0  3  0  0  0  0  0  0
  -16.5520  -29.9140   23.7460 C   0  0  0  0  0  3  0  0  0  0  0  0
  -16.7070  -28.6680   23.1150 C   0  0  0  0  0  3  0  0  0  0  0  0
  -25.8840  -32.4160   23.8160 C   0  0  0  0  0  3  0  0  0  0  0  0
  -26.3740  -31.6410   25.1010 C   0  0  1  0  0  0  0  0  0  0  0  0
  -25.2610  -31.4110   26.1490 C   0  0  0  0  0  1  0  0  0  0  0  0
  -26.9550  -30.2570   24.7270 C   0  0  0  0  0  1  0  0  0  0  0  0
  -27.5170  -32.4290   25.7840 C   0  0  0  0  0  1  0  0  0  0  0  0
  -25.5700  -33.8150   24.1480 N   0  0  0  0  0  0  0  0  0  0  0  0
  -25.9000  -34.8740   23.3960 C   0  0  0  0  0  0  0  0  0  0  0  0
  -26.5640  -34.7740   22.3600 O   0  0  0  0  0  0  0  0  0  0  0  0
  -24.9770  -33.9650   24.9530 H   0  0  0  0  0  0  0  0  0  0  0  0
  -24.1630  -36.6680   23.0720 C   0  0  0  0  0  1  0  0  0  0  0  0
  -25.4180  -36.2630   23.8620 C   0  0  0  0  0  3  0  0  0  0  0  0
  -27.5650  -37.1530   24.6600 C   0  0  0  0  0  1  0  0  0  0  0  0
  -26.4480  -37.3170   23.7320 N   0  0  0  0  0  0  0  0  0  0  0  0
  -26.0440  -38.2370   23.8800 H   0  0  0  0  0  0  0  0  0  0  0  0
  1  2  2  0
  2  5  1  0
  3  1  1  0
  4  6  2  0
  6  2  1  0
  7  4  1  0
  7  3  2  0
 10  8  1  6
 10 11  1  0
 10  4  1  0
 10  9  1  0
 12 20  1  0
 13 18  1  0
 14 15  1  0
 14 13  1  0
 16 15  1  0
 16 25  1  0
 16 17  1  0
 18 12  1  0
 18 17  1  0
 19 12  2  0
 20 11  1  0
 20 21  1  0
 22 23  2  0
 23 42  1  0
 24 23  1  0
 24 27  1  0
 25 26  1  0
 25 22  1  0
 26 24  2  0
 27 28  1  0
 28 29  2  0
 30 33  1  0
 30 29  1  0
 31 30  2  0
 32 31  1  0
 32 27  2  0
 33 34  1  0
 34 35  1  0
 35 36  2  0
 37 36  1  0
 37 41  1  0
 38 37  2  0
 39 34  2  0
 39 38  1  0
 40 39  1  0
 42 43  1  0
 43 46  1  0
 43 45  1  0
 44 42  2  0
 47 22  1  0
 47 48  1  0
 49 47  1  0
 50  3  1  0
 50 51  1  0
 52 63  2  0
 53 51  1  0
 53 58  1  0
 54 62  1  0
 54 64  1  0
 55 61  1  0
 55 57  1  0
 56 62  1  0
 57 58  2  0
 57 56  1  0
 59 53  2  0
 60 59  1  0
 60 55  2  0
 61 54  1  0
 62 52  1  0
 64 66  2  0
 65 64  1  0
 67 65  1  0
 68 77  2  0
 68 73  1  0
 69 65  1  0
 69 73  1  0
 70 69  1  0
 71 72  1  0
 71 70  1  0
 72 68  1  0
 73 74  2  0
 74 75  1  0
 76 75  2  0
 77 76  1  0
 78 52  1  0
 78 83  1  0
 78 79  1  0
 79 82  1  1
 79 80  1  0
 81 79  1  0
 83 86  1  0
 84 88  1  0
 84 83  1  0
 85 84  2  0
 88 87  1  0
 90 88  1  0
 90 91  1  0
 90 89  1  0
M  ISO  4  12 100  20 100  50 101  51 101
M  END
>  <TORSDO>  (51) 
F 19

>  <SCORE>  (51) 
-14.066

>  <name>  (51) 
55

>  <ligand_id>  (51) 
55

>  <original_smiles>  (51) 
[H]c1c(C([H])([H])[H])nc(C(C([H])([H])[H])(C([H])([H])[H])C([H])([H])N([H])C(=O)N2C([H])([H])C([H])([H])C([H])([H])C([H])(n3nc(-c4c([H])c([H])c(Oc5c([H])c([H])c(F)c([H])c5F)c([H])c4[H])c(C(=O)N([H])[H])c3N([H])[H])C2([H])[H])nc1C([H])([H])Oc1c([H])c([H])c2c(c1[H])C([H])([H])N(C(=O)C([H])(N([H])C(=O)C([H])(N([H])C([H])([H])[H])C([H])([H])[H])C(C([H])([H])[H])(C([H])([H])[H])C([H])([H])[H])C([H])(C(=O)N([H])C1([H])c3c([H])c([H])c([H])c([H])c3C([H])([H])C([H])([H])C1([H])[H])C2([H])[H]

>  <smiles>  (51) 
[H]c1c(C([H])([H])[H])nc(C(C([H])([H])[H])(C([H])([H])[H])C([H])([H])N([H])C(=O)N2C([H])([H])C([H])([H])C([H])([H])C([H])(n3nc(-c4c([H])c([H])c(Oc5c([H])c([H])c(F)c([H])c5F)c([H])c4[H])c(C(=O)N([H])[H])c3N([H])[H])C2([H])[H])nc1C([H])([H])Oc1c([H])c([H])c2c(c1[H])C([H])([H])N(C(=O)C([H])(N([H])C(=O)C([H])(N([H])C([H])([H])[H])C([H])([H])[H])C(C([H])([H])[H])(C([H])([H])[H])C([H])([H])[H])C([H])(C(=O)N([H])C1([H])c3c([H])c([H])c([H])c([H])c3C([H])([H])C([H])([H])C1([H])[H])C2([H])[H]

$$$$
56:0:0
     RDKit          3D

 99107  0  0  1  0  0  0  0  0999 V2000
  -27.9550  -21.6580   19.6870 N   0  0  1  0  0  4  0  0  0  0  0  0
  -28.8440  -21.6130   19.2000 H   0  0  0  0  0  0  0  0  0  0  0  0
  -27.6560  -20.2900   17.5820 C   0  0  0  0  0  1  0  0  0  0  0  0
  -25.6110  -21.0790   18.8630 C   0  0  0  0  0  1  0  0  0  0  0  0
  -27.0930  -20.6620   18.9670 C   0  0  0  0  0  3  0  0  0  0  0  0
  -27.4550  -23.0610   19.5640 C   0  0  0  0  0  2  0  0  0  0  0  0
  -28.4850  -24.1650   19.8860 C   0  0  0  0  0  2  0  0  0  0  0  0
  -28.2510  -24.8960   21.2270 C   0  0  0  0  0  2  0  0  0  0  0  0
  -29.0910  -26.1730   21.3550 C   0  0  0  0  0  2  0  0  0  0  0  0
  -28.8490  -27.0240   20.2450 O   0  0  0  0  0  0  0  0  0  0  0  0
  -24.7630  -31.8770   23.4860 C   0  0  0  0  0  0  0  0  0  0  0  0
  -27.6620  -27.7050   20.2930 C   0  0  0  0  0  0  0  0  0  0  0  0
  -23.6800  -30.5710   21.6850 C   0  0  0  0  0  3  0  0  0  0  0  0
  -25.2400  -29.1380   20.2680 C   0  0  0  0  0  0  0  0  0  0  0  0
  -26.2040  -30.9700   21.6720 C   0  0  0  0  0  2  0  0  0  0  0  0
  -26.3470  -29.6440   20.9610 C   0  0  0  0  0  0  0  0  0  0  0  0
  -27.5610  -28.9270   20.9860 C   0  0  0  0  0  3  0  0  0  0  0  0
  -26.5440  -27.2000   19.5990 C   0  0  0  0  0  3  0  0  0  0  0  0
  -25.3280  -27.9070   19.5950 C   0  0  0  0  0  3  0  0  0  0  0  0
  -23.9810  -29.9760   20.2850 C   0  0  0  0  0  2  0  0  0  0  0  0
  -24.8970  -31.1500   22.3420 N   0  0  0  0  0  0  0  0  0  0  0  0
  -23.6470  -32.1110   23.9680 O   0  0  0  0  0  0  0  0  0  0  0  0
  -22.9810  -29.4890   22.5350 C   0  0  0  0  0  0  0  0  0  0  0  0
  -21.6690  -29.3150   22.3130 N   0  0  0  0  0  0  0  0  0  0  0  0
  -23.6180  -28.8070   23.3430 O   0  0  0  0  0  0  0  0  0  0  0  0
  -21.2190  -29.9130   21.6340 H   0  0  0  0  0  0  0  0  0  0  0  0
  -18.2660  -28.1340   22.5660 C   0  0  0  0  0  0  0  0  0  0  0  0
  -20.8100  -28.3300   22.9680 C   0  0  0  0  0  3  0  0  0  0  0  0
  -20.9250  -26.9510   22.2800 C   0  0  0  0  0  2  0  0  0  0  0  0
  -19.8630  -26.7270   21.1980 C   0  0  0  0  0  2  0  0  0  0  0  0
  -18.4570  -26.8410   21.7910 C   0  0  0  0  0  2  0  0  0  0  0  0
  -19.3730  -28.8410   23.1060 C   0  0  0  0  0  0  0  0  0  0  0  0
  -19.1440  -30.0550   23.7870 C   0  0  0  0  0  3  0  0  0  0  0  0
  -17.8400  -30.5630   23.9360 C   0  0  0  0  0  3  0  0  0  0  0  0
  -16.7460  -29.8500   23.4150 C   0  0  0  0  0  3  0  0  0  0  0  0
  -16.9600  -28.6380   22.7370 C   0  0  0  0  0  3  0  0  0  0  0  0
  -26.0020  -32.4730   24.2260 C   0  0  0  0  0  3  0  0  0  0  0  0
  -26.3970  -31.6690   25.5250 C   0  0  1  0  0  0  0  0  0  0  0  0
  -25.2120  -31.4180   26.4840 C   0  0  0  0  0  1  0  0  0  0  0  0
  -27.0040  -30.2950   25.1550 C   0  0  0  0  0  1  0  0  0  0  0  0
  -27.4920  -32.4370   26.3040 C   0  0  0  0  0  1  0  0  0  0  0  0
  -25.6890  -33.8710   24.5520 N   0  0  0  0  0  0  0  0  0  0  0  0
  -26.1010  -34.9260   23.8360 C   0  0  0  0  0  0  0  0  0  0  0  0
  -26.8530  -34.8250   22.8630 O   0  0  0  0  0  0  0  0  0  0  0  0
  -25.0290  -34.0260   25.2990 H   0  0  0  0  0  0  0  0  0  0  0  0
  -24.4240  -36.7420   23.3750 C   0  0  0  0  0  1  0  0  0  0  0  0
  -25.5980  -36.3160   24.2690 C   0  0  0  0  0  3  0  0  0  0  0  0
  -27.6740  -37.1650   25.2660 C   0  0  0  0  0  1  0  0  0  0  0  0
  -26.6490  -37.3560   24.2430 N   0  0  0  0  0  0  0  0  0  0  0  0
  -26.2430  -38.2780   24.3710 H   0  0  0  0  0  0  0  0  0  0  0  0
  -28.2780  -21.2470   21.0900 C   0  0  0  0  0  2  0  0  0  0  0  0
  -29.9240  -20.5930   22.8560 C   0  0  0  0  0  1  0  0  0  0  0  0
  -30.8020  -21.8340   20.9240 C   0  0  0  0  0  1  0  0  0  0  0  0
  -29.7460  -20.7820   21.3310 C   0  0  2  0  0  0  0  0  0  0  0  0
  -29.8340  -18.2200   21.1780 C   0  0  0  0  0  3  0  0  0  0  0  0
  -30.2760  -18.4480   18.5470 C   0  0  0  0  0  3  0  0  0  0  0  0
  -29.8680  -17.1080   20.3400 C   0  0  0  0  0  0  0  0  0  0  0  0
  -29.9930  -19.4720   20.5760 C   0  0  0  0  0  0  0  0  0  0  0  0
  -30.0850  -17.2230   19.0200 N   0  0  0  0  0  0  0  0  0  0  0  0
  -30.1910  -19.5770   19.2470 N   0  0  0  0  0  0  0  0  0  0  0  0
  -29.5880  -15.7280   20.8890 C   0  0  0  0  0  2  0  0  0  0  0  0
  -30.8900  -14.1030   19.6170 C   0  0  0  0  0  0  0  0  0  0  0  0
  -30.4460  -11.9250   18.5370 C   0  0  0  0  0  2  0  0  0  0  0  0
  -29.3920  -12.0320   17.4210 C   0  0  0  0  0  2  0  0  0  0  0  0
  -27.9610  -11.9440   17.9860 C   0  0  0  0  0  2  0  0  0  0  0  0
  -27.7450  -12.8850   19.1990 C   0  0  0  0  0  3  0  0  0  0  0  0
  -28.8830  -12.6730   20.2230 C   0  0  0  0  0  2  0  0  0  0  0  0
  -30.1620  -12.9560   19.5470 N   0  0  0  0  0  0  0  0  0  0  0  0
  -31.8320  -14.3440   18.8500 O   0  0  0  0  0  0  0  0  0  0  0  0
  -31.9100  -15.2400   21.5090 C   0  0  0  0  0  1  0  0  0  0  0  0
  -30.7280  -14.8110   20.7540 N   0  0  0  0  0  0  0  0  0  0  0  0
  -25.4380  -13.6130   20.0870 C   0  0  0  0  0  0  0  0  0  0  0  0
  -24.3770  -12.8930   20.5690 C   0  0  0  0  0  0  0  0  0  0  0  0
  -24.7810  -11.5230   20.5290 C   0  0  0  0  0  0  0  0  0  0  0  0
  -26.4250  -12.6840   19.7960 N   0  0  0  0  0  0  0  0  0  0  0  0
  -26.0340  -11.4240   20.1100 N   0  0  0  0  0  0  0  0  0  0  0  0
  -24.0270  -10.2950   20.8140 C   0  0  0  0  0  0  0  0  0  0  0  0
  -24.4510   -9.3840   21.8070 C   0  0  0  0  0  3  0  0  0  0  0  0
  -23.7020   -8.2180   22.0750 C   0  0  0  0  0  3  0  0  0  0  0  0
  -22.5150   -7.9540   21.3520 C   0  0  0  0  0  0  0  0  0  0  0  0
  -22.1090   -8.8530   20.3480 C   0  0  0  0  0  3  0  0  0  0  0  0
  -22.8590  -10.0110   20.0790 C   0  0  0  0  0  3  0  0  0  0  0  0
  -21.7380   -6.8350   21.5280 O   0  0  0  0  0  0  0  0  0  0  0  0
  -21.6350   -6.2140   22.7460 C   0  0  0  0  0  0  0  0  0  0  0  0
  -21.1640   -6.8920   23.8920 C   0  0  0  0  0  3  0  0  0  0  0  0
  -21.0090   -6.1970   25.1070 C   0  0  0  0  0  3  0  0  0  0  0  0
  -21.3170   -4.8260   25.1790 C   0  0  0  0  0  0  0  0  0  0  0  0
  -21.7820   -4.1470   24.0390 C   0  0  0  0  0  3  0  0  0  0  0  0
  -21.9380   -4.8390   22.8250 C   0  0  0  0  0  0  0  0  0  0  0  0
  -22.3670   -4.1750   21.7240 F   0  0  0  0  0  0  0  0  0  0  0  0
  -21.1610   -4.1560   26.3450 F   0  0  0  0  0  0  0  0  0  0  0  0
  -23.0300  -13.4300   20.9570 C   0  0  0  0  0  0  0  0  0  0  0  0
  -22.3710  -12.7910   21.9180 N   0  0  0  0  0  0  0  0  0  0  0  0
  -22.5740  -14.4490   20.4430 O   0  0  0  0  0  0  0  0  0  0  0  0
  -22.7530  -11.9630   22.3520 H   0  0  0  0  0  0  0  0  0  0  0  0
  -21.4700  -13.1340   22.2240 H   0  0  0  0  0  0  0  0  0  0  0  0
  -25.6410  -14.9700   19.8550 N   0  0  0  0  0  0  0  0  0  0  0  0
  -24.9080  -15.6590   19.9820 H   0  0  0  0  0  0  0  0  0  0  0  0
  -26.4710  -15.3490   19.4170 H   0  0  0  0  0  0  0  0  0  0  0  0
  1 51  1  0
  1  2  1  6
  3  5  1  0
  4  5  1  0
  5  1  1  0
  6  1  1  0
  6  7  1  0
  7  8  1  0
  8  9  1  0
 10 12  1  0
 10  9  1  0
 11 22  2  0
 12 17  1  0
 13 21  1  0
 13 23  1  0
 14 20  1  0
 14 16  1  0
 15 21  1  0
 16 17  2  0
 16 15  1  0
 18 12  2  0
 19 18  1  0
 19 14  2  0
 20 13  1  0
 21 11  1  0
 23 25  2  0
 24 23  1  0
 26 24  1  0
 27 36  2  0
 27 32  1  0
 28 24  1  0
 28 32  1  0
 29 28  1  0
 30 31  1  0
 30 29  1  0
 31 27  1  0
 32 33  2  0
 33 34  1  0
 35 34  2  0
 36 35  1  0
 37 11  1  0
 37 42  1  0
 37 38  1  0
 38 41  1  1
 38 39  1  0
 40 38  1  0
 42 45  1  0
 43 47  1  0
 43 42  1  0
 44 43  2  0
 47 46  1  0
 49 47  1  0
 49 50  1  0
 49 48  1  0
 51 54  1  0
 54 53  1  6
 54 52  1  0
 56 59  2  0
 56 60  1  0
 57 61  1  0
 57 55  2  0
 58 55  1  0
 58 54  1  0
 59 57  1  0
 60 58  2  0
 62 71  1  0
 63 68  1  0
 64 65  1  0
 64 63  1  0
 66 65  1  0
 66 75  1  0
 66 67  1  0
 68 62  1  0
 68 67  1  0
 69 62  2  0
 71 61  1  0
 71 70  1  0
 72 73  2  0
 73 92  1  0
 74 73  1  0
 74 77  1  0
 75 72  1  0
 75 76  1  0
 76 74  2  0
 77 78  1  0
 78 79  2  0
 80 83  1  0
 80 79  1  0
 81 80  2  0
 82 81  1  0
 82 77  2  0
 83 84  1  0
 84 89  2  0
 84 85  1  0
 85 86  2  0
 86 87  1  0
 87 91  1  0
 88 87  2  0
 89 88  1  0
 90 89  1  0
 92 93  1  0
 93 96  1  0
 93 95  1  0
 94 92  2  0
 97 98  1  0
 97 72  1  0
 99 97  1  0
M  ISO  4   9 101  10 101  62 100  71 100
M  END
>  <TORSDO>  (52) 
F 25

>  <SCORE>  (52) 
-10.536

>  <name>  (52) 
56

>  <ligand_id>  (52) 
56

>  <original_smiles>  (52) 
[H]c1nc(C([H])([H])N(C(=O)N2C([H])([H])C([H])([H])C([H])([H])C([H])(n3nc(-c4c([H])c([H])c(Oc5c([H])c([H])c(F)c([H])c5F)c([H])c4[H])c(C(=O)N([H])[H])c3N([H])[H])C2([H])[H])C([H])([H])[H])c([H])c(C(C([H])([H])[H])(C([H])([H])[H])C([H])([H])[N+]([H])(C([H])([H])C([H])([H])C([H])([H])C([H])([H])Oc2c([H])c([H])c3c(c2[H])C([H])([H])N(C(=O)C([H])(N([H])C(=O)C([H])(N([H])C([H])([H])[H])C([H])([H])[H])C(C([H])([H])[H])(C([H])([H])[H])C([H])([H])[H])C([H])(C(=O)N([H])C2([H])c4c([H])c([H])c([H])c([H])c4C([H])([H])C([H])([H])C2([H])[H])C3([H])[H])C([H])(C([H])([H])[H])C([H])([H])[H])n1

>  <smiles>  (52) 
[H]c1nc(C([H])([H])N(C(=O)N2C([H])([H])C([H])([H])C([H])([H])C([H])(n3nc(-c4c([H])c([H])c(Oc5c([H])c([H])c(F)c([H])c5F)c([H])c4[H])c(C(=O)N([H])[H])c3N([H])[H])C2([H])[H])C([H])([H])[H])c([H])c(C(C([H])([H])[H])(C([H])([H])[H])C([H])([H])[N+]([H])(C([H])([H])C([H])([H])C([H])([H])C([H])([H])Oc2c([H])c([H])c3c(c2[H])C([H])([H])N(C(=O)C([H])(N([H])C(=O)C([H])(N([H])C([H])([H])[H])C([H])([H])[H])C(C([H])([H])[H])(C([H])([H])[H])C([H])([H])[H])C([H])(C(=O)N([H])C2([H])c4c([H])c([H])c([H])c([H])c4C([H])([H])C([H])([H])C2([H])[H])C3([H])[H])C([H])(C([H])([H])[H])C([H])([H])[H])n1

$$$$
57:0:0
     RDKit          3D

 89 97  0  0  1  0  0  0  0  0999 V2000
  -29.9900  -23.3530   20.6620 C   0  0  0  0  0  2  0  0  0  0  0  0
  -28.6850  -23.8480   20.4030 C   0  0  0  0  0  0  0  0  0  0  0  0
  -29.3820  -21.2430   19.9030 C   0  0  0  0  0  0  0  0  0  0  0  0
  -30.3310  -22.0490   20.4100 N   0  0  0  0  0  0  0  0  0  0  0  0
  -27.7750  -22.9580   19.9050 N   0  0  0  0  0  0  0  0  0  0  0  0
  -28.1240  -21.6680   19.6490 N   0  0  0  0  0  2  0  0  0  0  0  0
  -28.1650  -25.2400   20.9290 C   0  0  0  0  0  2  0  0  0  0  0  0
  -28.3520  -26.4920   20.1700 O   0  0  0  0  0  0  0  0  0  0  0  0
  -24.6090  -31.8650   23.2160 C   0  0  0  0  0  0  0  0  0  0  0  0
  -27.2450  -27.3440   20.1590 C   0  0  0  0  0  0  0  0  0  0  0  0
  -23.4100  -30.4620   21.5760 C   0  0  0  0  0  3  0  0  0  0  0  0
  -24.8660  -28.9160   20.1510 C   0  0  0  0  0  0  0  0  0  0  0  0
  -25.9410  -30.8050   21.3780 C   0  0  0  0  0  2  0  0  0  0  0  0
  -26.0330  -29.4230   20.7420 C   0  0  0  0  0  0  0  0  0  0  0  0
  -27.2280  -28.6470   20.7390 C   0  0  0  0  0  3  0  0  0  0  0  0
  -26.0600  -26.8800   19.5490 C   0  0  0  0  0  3  0  0  0  0  0  0
  -24.8800  -27.6480   19.5470 C   0  0  0  0  0  3  0  0  0  0  0  0
  -23.6230  -29.7820   20.1960 C   0  0  0  0  0  2  0  0  0  0  0  0
  -24.6740  -31.0590   22.1160 N   0  0  0  0  0  0  0  0  0  0  0  0
  -23.5270  -32.1350   23.7550 O   0  0  0  0  0  0  0  0  0  0  0  0
  -22.7530  -29.4450   22.5380 C   0  0  0  0  0  0  0  0  0  0  0  0
  -21.4240  -29.2720   22.4210 N   0  0  0  0  0  0  0  0  0  0  0  0
  -23.4350  -28.8130   23.3490 O   0  0  0  0  0  0  0  0  0  0  0  0
  -20.9310  -29.8340   21.7420 H   0  0  0  0  0  0  0  0  0  0  0  0
  -18.0490  -28.0870   22.9420 C   0  0  0  0  0  0  0  0  0  0  0  0
  -20.6100  -28.3330   23.1950 C   0  0  0  0  0  3  0  0  0  0  0  0
  -20.7010  -26.9040   22.6100 C   0  0  0  0  0  2  0  0  0  0  0  0
  -19.5920  -26.5920   21.6030 C   0  0  0  0  0  2  0  0  0  0  0  0
  -18.2140  -26.7410   22.2550 C   0  0  0  0  0  2  0  0  0  0  0  0
  -19.1740  -28.8420   23.3680 C   0  0  0  0  0  0  0  0  0  0  0  0
  -18.9650  -30.1030   23.9660 C   0  0  0  0  0  3  0  0  0  0  0  0
  -17.6640  -30.6080   24.1460 C   0  0  0  0  0  3  0  0  0  0  0  0
  -16.5530  -29.8520   23.7340 C   0  0  0  0  0  3  0  0  0  0  0  0
  -16.7450  -28.5920   23.1370 C   0  0  0  0  0  3  0  0  0  0  0  0
  -25.8920  -32.5020   23.8360 C   0  0  0  0  0  3  0  0  0  0  0  0
  -26.4140  -31.7300   25.1090 C   0  0  1  0  0  0  0  0  0  0  0  0
  -25.3270  -31.4890   26.1800 C   0  0  0  0  0  1  0  0  0  0  0  0
  -26.9990  -30.3550   24.7100 C   0  0  0  0  0  1  0  0  0  0  0  0
  -27.5630  -32.5270   25.7710 C   0  0  0  0  0  1  0  0  0  0  0  0
  -25.5780  -33.8990   24.1710 N   0  0  0  0  0  0  0  0  0  0  0  0
  -25.9090  -34.9570   23.4170 C   0  0  0  0  0  0  0  0  0  0  0  0
  -26.5800  -34.8600   22.3870 O   0  0  0  0  0  0  0  0  0  0  0  0
  -24.9850  -34.0490   24.9750 H   0  0  0  0  0  0  0  0  0  0  0  0
  -24.1770  -36.7460   23.0650 C   0  0  0  0  0  1  0  0  0  0  0  0
  -25.4160  -36.3410   23.8790 C   0  0  0  0  0  3  0  0  0  0  0  0
  -27.5450  -37.2260   24.7210 C   0  0  0  0  0  1  0  0  0  0  0  0
  -26.4460  -37.3980   23.7760 N   0  0  0  0  0  0  0  0  0  0  0  0
  -26.0350  -38.3150   23.9280 H   0  0  0  0  0  0  0  0  0  0  0  0
  -29.8080  -19.8070   19.4140 C   0  0  0  0  0  2  0  0  0  0  0  0
  -29.6690  -18.5140   20.3360 C   0  0  0  0  0  3  0  0  0  0  0  0
  -30.2500  -17.1390   19.7410 C   0  0  0  0  0  3  0  0  0  0  0  0
  -30.7650  -14.6660   20.0880 C   0  0  0  0  0  0  0  0  0  0  0  0
  -30.4230  -12.4810   18.9400 C   0  0  0  0  0  2  0  0  0  0  0  0
  -29.4150  -12.6380   17.7820 C   0  0  0  0  0  2  0  0  0  0  0  0
  -27.9680  -12.4760   18.2860 C   0  0  0  0  0  2  0  0  0  0  0  0
  -27.6890  -13.3120   19.5630 C   0  0  0  0  0  3  0  0  0  0  0  0
  -28.8000  -13.1000   20.6100 C   0  0  0  0  0  2  0  0  0  0  0  0
  -30.0770  -13.4760   19.9830 N   0  0  0  0  0  0  0  0  0  0  0  0
  -31.8820  -14.7710   19.5720 O   0  0  0  0  0  0  0  0  0  0  0  0
  -29.5910  -15.9400   21.8490 C   0  0  0  0  0  1  0  0  0  0  0  0
  -30.0850  -15.8150   20.4740 N   0  0  0  0  0  0  0  0  0  0  0  0
  -25.3460  -13.9240   20.4170 C   0  0  0  0  0  0  0  0  0  0  0  0
  -24.2910  -13.1540   20.8260 C   0  0  0  0  0  0  0  0  0  0  0  0
  -24.7350  -11.7990   20.7460 C   0  0  0  0  0  0  0  0  0  0  0  0
  -26.3660  -13.0360   20.1120 N   0  0  0  0  0  0  0  0  0  0  0  0
  -26.0070  -11.7530   20.3700 N   0  0  0  0  0  0  0  0  0  0  0  0
  -24.0070  -10.5410   20.9480 C   0  0  0  0  0  0  0  0  0  0  0  0
  -24.4530   -9.5690   21.8710 C   0  0  0  0  0  3  0  0  0  0  0  0
  -23.7240   -8.3740   22.0610 C   0  0  0  0  0  3  0  0  0  0  0  0
  -22.5370   -8.1440   21.3280 C   0  0  0  0  0  0  0  0  0  0  0  0
  -22.1100   -9.1050   20.3940 C   0  0  0  0  0  3  0  0  0  0  0  0
  -22.8390  -10.2900   20.2020 C   0  0  0  0  0  3  0  0  0  0  0  0
  -21.7790   -7.0020   21.4280 O   0  0  0  0  0  0  0  0  0  0  0  0
  -21.7120   -6.2820   22.5930 C   0  0  0  0  0  0  0  0  0  0  0  0
  -21.2820   -6.8640   23.8060 C   0  0  0  0  0  3  0  0  0  0  0  0
  -21.1620   -6.0700   24.9640 C   0  0  0  0  0  3  0  0  0  0  0  0
  -21.4610   -4.6960   24.9110 C   0  0  0  0  0  0  0  0  0  0  0  0
  -21.8850   -4.1130   23.7030 C   0  0  0  0  0  3  0  0  0  0  0  0
  -22.0060   -4.9040   22.5470 C   0  0  0  0  0  0  0  0  0  0  0  0
  -22.3940   -4.3340   21.3800 F   0  0  0  0  0  0  0  0  0  0  0  0
  -21.3380   -3.9310   26.0210 F   0  0  0  0  0  0  0  0  0  0  0  0
  -22.9150  -13.6400   21.1790 C   0  0  0  0  0  0  0  0  0  0  0  0
  -22.2250  -12.9340   22.0680 N   0  0  0  0  0  0  0  0  0  0  0  0
  -22.4610  -14.6780   20.7000 O   0  0  0  0  0  0  0  0  0  0  0  0
  -22.6050  -12.0930   22.4750 H   0  0  0  0  0  0  0  0  0  0  0  0
  -21.3030  -13.2400   22.3450 H   0  0  0  0  0  0  0  0  0  0  0  0
  -25.5200  -15.2960   20.2570 N   0  0  0  0  0  0  0  0  0  0  0  0
  -24.7720  -15.9620   20.4170 H   0  0  0  0  0  0  0  0  0  0  0  0
  -26.3680  -15.7270   19.9120 H   0  0  0  0  0  0  0  0  0  0  0  0
  2  1  1  0
  2  7  1  0
  3  4  2  0
  4  1  1  0
  5  2  2  0
  6  3  1  0
  6  5  1  0
  8  7  1  0
  9 20  2  0
 10  8  1  0
 10 15  1  0
 11 19  1  0
 11 21  1  0
 12 18  1  0
 12 14  1  0
 13 19  1  0
 14 13  1  0
 15 14  2  0
 16 10  2  0
 17 16  1  0
 17 12  2  0
 18 11  1  0
 19  9  1  0
 21 23  2  0
 22 21  1  0
 24 22  1  0
 25 34  2  0
 25 30  1  0
 26 22  1  0
 26 30  1  0
 27 26  1  0
 28 29  1  0
 28 27  1  0
 29 25  1  0
 30 31  2  0
 31 32  1  0
 33 32  2  0
 34 33  1  0
 35  9  1  0
 35 40  1  0
 35 36  1  0
 36 39  1  1
 36 37  1  0
 38 36  1  0
 40 43  1  0
 41 45  1  0
 41 40  1  0
 42 41  2  0
 45 44  1  0
 47 45  1  0
 47 48  1  0
 47 46  1  0
 49  3  1  0
 49 50  1  0
 51 50  2  0
 51 61  1  0
 52 61  1  0
 53 58  1  0
 54 55  1  0
 54 53  1  0
 56 55  1  0
 56 65  1  0
 56 57  1  0
 58 52  1  0
 58 57  1  0
 59 52  2  0
 61 60  1  0
 62 63  2  0
 63 82  1  0
 64 63  1  0
 64 67  1  0
 65 66  1  0
 65 62  1  0
 66 64  2  0
 67 68  1  0
 68 69  2  0
 70 73  1  0
 70 69  1  0
 71 70  2  0
 72 71  1  0
 72 67  2  0
 73 74  1  0
 74 75  1  0
 75 76  2  0
 77 76  1  0
 77 81  1  0
 78 77  2  0
 79 74  2  0
 79 78  1  0
 80 79  1  0
 82 83  1  0
 83 86  1  0
 83 85  1  0
 84 82  2  0
 87 88  1  0
 87 62  1  0
 89 87  1  0
M  ISO  4   7 101   8 101  52 100  61 100
M  END
>  <TORSDO>  (53) 
F 20

>  <SCORE>  (53) 
-13.283

>  <name>  (53) 
57

>  <ligand_id>  (53) 
57

>  <original_smiles>  (53) 
[H]c1nc(C([H])([H])C([H])([H])C([H])([H])N(C(=O)N2C([H])([H])C([H])([H])C([H])([H])C([H])(n3nc(-c4c([H])c([H])c(Oc5c([H])c([H])c(F)c([H])c5F)c([H])c4[H])c(C(=O)N([H])[H])c3N([H])[H])C2([H])[H])C([H])([H])[H])nnc1C([H])([H])Oc1c([H])c([H])c2c(c1[H])C([H])([H])N(C(=O)C([H])(N([H])C(=O)C([H])(N([H])C([H])([H])[H])C([H])([H])[H])C(C([H])([H])[H])(C([H])([H])[H])C([H])([H])[H])C([H])(C(=O)N([H])C1([H])c3c([H])c([H])c([H])c([H])c3C([H])([H])C([H])([H])C1([H])[H])C2([H])[H]

>  <smiles>  (53) 
[H]c1nc(C([H])([H])C([H])([H])C([H])([H])N(C(=O)N2C([H])([H])C([H])([H])C([H])([H])C([H])(n3nc(-c4c([H])c([H])c(Oc5c([H])c([H])c(F)c([H])c5F)c([H])c4[H])c(C(=O)N([H])[H])c3N([H])[H])C2([H])[H])C([H])([H])[H])nnc1C([H])([H])Oc1c([H])c([H])c2c(c1[H])C([H])([H])N(C(=O)C([H])(N([H])C(=O)C([H])(N([H])C([H])([H])[H])C([H])([H])[H])C(C([H])([H])[H])(C([H])([H])[H])C([H])([H])[H])C([H])(C(=O)N([H])C1([H])c3c([H])c([H])c([H])c([H])c3C([H])([H])C([H])([H])C1([H])[H])C2([H])[H]

$$$$
58:0:0
     RDKit          3D

 91 99  0  0  1  0  0  0  0  0999 V2000
  -30.6550  -21.2810   21.0620 C   0  0  0  0  0  2  0  0  0  0  0  0
  -29.8380  -19.4050   20.6320 C   0  0  0  0  0  0  0  0  0  0  0  0
  -31.0190  -19.9920   21.0080 N   0  0  0  0  0  0  0  0  0  0  0  0
  -28.8560  -20.2860   20.3860 N   0  0  0  0  0  2  0  0  0  0  0  0
  -29.3930  -21.5000   20.6840 N   0  0  0  0  0  0  0  0  0  0  0  0
  -29.9910  -17.7920   18.7320 C   0  0  0  0  0  1  0  0  0  0  0  0
  -28.1990  -17.5100   20.4840 C   0  0  0  0  0  1  0  0  0  0  0  0
  -29.6680  -17.9270   20.2330 C   0  0  2  0  0  0  0  0  0  0  0  0
  -30.5720  -16.9280   21.0480 C   0  0  0  0  0  2  0  0  0  0  0  0
  -30.8210  -14.5190   20.2160 C   0  0  0  0  0  0  0  0  0  0  0  0
  -30.4520  -12.3870   19.0110 C   0  0  0  0  0  2  0  0  0  0  0  0
  -29.4580  -12.6150   17.8520 C   0  0  0  0  0  2  0  0  0  0  0  0
  -28.0040  -12.4680   18.3410 C   0  0  0  0  0  2  0  0  0  0  0  0
  -27.7240  -13.2830   19.6310 C   0  0  0  0  0  3  0  0  0  0  0  0
  -28.8240  -13.0390   20.6900 C   0  0  0  0  0  2  0  0  0  0  0  0
  -30.1290  -13.3520   20.0770 N   0  0  0  0  0  0  0  0  0  0  0  0
  -31.9020  -14.7230   19.6590 O   0  0  0  0  0  0  0  0  0  0  0  0
  -30.1930  -15.4930   20.9050 N   0  0  0  0  0  0  0  0  0  0  0  0
  -29.3180  -15.2230   21.3260 H   0  0  0  0  0  0  0  0  0  0  0  0
  -25.3560  -13.8880   20.4440 C   0  0  0  0  0  0  0  0  0  0  0  0
  -24.3010  -13.1160   20.8480 C   0  0  0  0  0  0  0  0  0  0  0  0
  -24.7530  -11.7630   20.7790 C   0  0  0  0  0  0  0  0  0  0  0  0
  -26.3880  -13.0060   20.1590 N   0  0  0  0  0  0  0  0  0  0  0  0
  -26.0290  -11.7220   20.4170 N   0  0  0  0  0  0  0  0  0  0  0  0
  -24.0250  -10.5030   20.9790 C   0  0  0  0  0  0  0  0  0  0  0  0
  -24.4680   -9.5370   21.9100 C   0  0  0  0  0  3  0  0  0  0  0  0
  -23.7410   -8.3420   22.0990 C   0  0  0  0  0  3  0  0  0  0  0  0
  -22.5590   -8.1060   21.3580 C   0  0  0  0  0  0  0  0  0  0  0  0
  -22.1360   -9.0600   20.4160 C   0  0  0  0  0  3  0  0  0  0  0  0
  -22.8630  -10.2460   20.2250 C   0  0  0  0  0  3  0  0  0  0  0  0
  -21.8030   -6.9620   21.4560 O   0  0  0  0  0  0  0  0  0  0  0  0
  -21.7440   -6.2360   22.6180 C   0  0  0  0  0  0  0  0  0  0  0  0
  -21.2880   -6.8010   23.8280 C   0  0  0  0  0  3  0  0  0  0  0  0
  -21.1780   -5.9990   24.9820 C   0  0  0  0  0  3  0  0  0  0  0  0
  -21.5140   -4.6340   24.9270 C   0  0  0  0  0  0  0  0  0  0  0  0
  -21.9620   -4.0680   23.7210 C   0  0  0  0  0  3  0  0  0  0  0  0
  -22.0740   -4.8660   22.5690 C   0  0  0  0  0  0  0  0  0  0  0  0
  -22.4860   -4.3110   21.4030 F   0  0  0  0  0  0  0  0  0  0  0  0
  -21.4010   -3.8610   26.0330 F   0  0  0  0  0  0  0  0  0  0  0  0
  -22.9190  -13.5980   21.1870 C   0  0  0  0  0  0  0  0  0  0  0  0
  -22.2220  -12.8900   22.0700 N   0  0  0  0  0  0  0  0  0  0  0  0
  -22.4670  -14.6360   20.7050 O   0  0  0  0  0  0  0  0  0  0  0  0
  -22.6000  -12.0480   22.4810 H   0  0  0  0  0  0  0  0  0  0  0  0
  -21.2980  -13.1960   22.3400 H   0  0  0  0  0  0  0  0  0  0  0  0
  -25.5100  -15.2590   20.2730 N   0  0  0  0  0  0  0  0  0  0  0  0
  -24.7420  -15.9060   20.4170 H   0  0  0  0  0  0  0  0  0  0  0  0
  -26.3330  -15.7020   19.8840 H   0  0  0  0  0  0  0  0  0  0  0  0
  -28.5310  -22.6910   20.6060 C   0  0  0  0  0  2  0  0  0  0  0  0
  -29.1780  -24.1140   20.5580 C   0  0  0  0  0  2  0  0  0  0  0  0
  -28.1040  -25.1510   20.1140 C   0  0  0  0  0  2  0  0  0  0  0  0
  -28.3620  -26.5780   20.2100 O   0  0  0  0  0  0  0  0  0  0  0  0
  -24.5890  -31.8780   23.1900 C   0  0  0  0  0  0  0  0  0  0  0  0
  -27.2240  -27.3820   20.1410 C   0  0  0  0  0  0  0  0  0  0  0  0
  -23.3880  -30.4740   21.5510 C   0  0  0  0  0  3  0  0  0  0  0  0
  -24.8420  -28.9370   20.1310 C   0  0  0  0  0  0  0  0  0  0  0  0
  -25.9210  -30.8180   21.3640 C   0  0  0  0  0  2  0  0  0  0  0  0
  -26.0060  -29.4440   20.7230 C   0  0  0  0  0  0  0  0  0  0  0  0
  -27.2010  -28.6780   20.7220 C   0  0  0  0  0  3  0  0  0  0  0  0
  -26.0360  -26.9170   19.5230 C   0  0  0  0  0  3  0  0  0  0  0  0
  -24.8550  -27.6750   19.5240 C   0  0  0  0  0  3  0  0  0  0  0  0
  -23.6000  -29.7980   20.1730 C   0  0  0  0  0  2  0  0  0  0  0  0
  -24.6510  -31.0710   22.0930 N   0  0  0  0  0  0  0  0  0  0  0  0
  -23.5060  -32.1540   23.7240 O   0  0  0  0  0  0  0  0  0  0  0  0
  -22.7310  -29.4540   22.5110 C   0  0  0  0  0  0  0  0  0  0  0  0
  -21.4030  -29.2840   22.3930 N   0  0  0  0  0  0  0  0  0  0  0  0
  -23.4140  -28.8190   23.3210 O   0  0  0  0  0  0  0  0  0  0  0  0
  -20.9130  -29.8480   21.7110 H   0  0  0  0  0  0  0  0  0  0  0  0
  -18.0170  -28.1380   22.9310 C   0  0  0  0  0  0  0  0  0  0  0  0
  -20.5830  -28.3540   23.1670 C   0  0  0  0  0  3  0  0  0  0  0  0
  -20.6550  -26.9260   22.5780 C   0  0  0  0  0  2  0  0  0  0  0  0
  -19.5340  -26.6280   21.5780 C   0  0  0  0  0  2  0  0  0  0  0  0
  -18.1630  -26.7900   22.2420 C   0  0  0  0  0  2  0  0  0  0  0  0
  -19.1540  -28.8780   23.3510 C   0  0  0  0  0  0  0  0  0  0  0  0
  -18.9640  -30.1390   23.9550 C   0  0  0  0  0  3  0  0  0  0  0  0
  -17.6700  -30.6610   24.1430 C   0  0  0  0  0  3  0  0  0  0  0  0
  -16.5480  -29.9160   23.7380 C   0  0  0  0  0  3  0  0  0  0  0  0
  -16.7230  -28.6570   23.1380 C   0  0  0  0  0  3  0  0  0  0  0  0
  -25.8730  -32.5120   23.8090 C   0  0  0  0  0  3  0  0  0  0  0  0
  -25.5600  -33.9080   24.1440 N   0  0  0  0  0  0  0  0  0  0  0  0
  -25.9020  -34.9630   23.3950 C   0  0  0  0  0  0  0  0  0  0  0  0
  -26.5860  -34.8650   22.3720 O   0  0  0  0  0  0  0  0  0  0  0  0
  -24.9560  -34.0580   24.9380 H   0  0  0  0  0  0  0  0  0  0  0  0
  -24.1990  -36.7720   23.0020 C   0  0  0  0  0  1  0  0  0  0  0  0
  -25.4080  -36.3490   23.8530 C   0  0  0  0  0  3  0  0  0  0  0  0
  -27.5150  -37.2100   24.7720 C   0  0  0  0  0  1  0  0  0  0  0  0
  -26.4510  -37.3960   23.7890 N   0  0  0  0  0  0  0  0  0  0  0  0
  -26.0460  -38.3170   23.9320 H   0  0  0  0  0  0  0  0  0  0  0  0
  -26.3950  -31.7370   25.0820 C   0  0  1  0  0  0  0  0  0  0  0  0
  -25.3050  -31.4870   26.1480 C   0  0  0  0  0  1  0  0  0  0  0  0
  -26.9880  -30.3660   24.6810 C   0  0  0  0  0  1  0  0  0  0  0  0
  -27.5410  -32.5350   25.7470 C   0  0  0  0  0  1  0  0  0  0  0  0
  2  3  2  0
  3  1  1  0
  4  2  1  0
  4  5  1  0
  5  1  1  0
  8  6  1  6
  8  7  1  0
  8  2  1  0
  8  9  1  0
 10 18  1  0
 11 16  1  0
 12 13  1  0
 12 11  1  0
 14 13  1  0
 14 23  1  0
 14 15  1  0
 16 10  1  0
 16 15  1  0
 17 10  2  0
 18  9  1  0
 18 19  1  0
 20 21  2  0
 21 40  1  0
 22 21  1  0
 22 25  1  0
 23 24  1  0
 23 20  1  0
 24 22  2  0
 25 26  1  0
 26 27  2  0
 28 31  1  0
 28 27  1  0
 29 28  2  0
 30 29  1  0
 30 25  2  0
 31 32  1  0
 32 33  1  0
 33 34  2  0
 35 34  1  0
 35 39  1  0
 36 35  2  0
 37 32  2  0
 37 36  1  0
 38 37  1  0
 40 41  1  0
 41 44  1  0
 41 43  1  0
 42 40  2  0
 45 46  1  0
 45 20  1  0
 47 45  1  0
 48  5  1  0
 49 48  1  0
 50 51  1  0
 50 49  1  0
 52 63  2  0
 53 51  1  0
 53 58  1  0
 54 62  1  0
 54 64  1  0
 55 61  1  0
 55 57  1  0
 56 62  1  0
 57 56  1  0
 58 57  2  0
 59 60  1  0
 59 53  2  0
 60 55  2  0
 61 54  1  0
 62 52  1  0
 64 66  2  0
 65 64  1  0
 67 65  1  0
 68 77  2  0
 68 73  1  0
 69 65  1  0
 69 73  1  0
 70 69  1  0
 71 72  1  0
 71 70  1  0
 72 68  1  0
 73 74  2  0
 74 75  1  0
 76 75  2  0
 77 76  1  0
 78 52  1  0
 78 79  1  0
 78 88  1  0
 79 82  1  0
 80 84  1  0
 80 79  1  0
 81 80  2  0
 84 83  1  0
 86 84  1  0
 86 87  1  0
 86 85  1  0
 88 91  1  1
 88 89  1  0
 90 88  1  0
M  ISO  4  10 100  18 100  50 101  51 101
M  END
>  <TORSDO>  (54) 
F 21

>  <SCORE>  (54) 
-13.687

>  <name>  (54) 
58

>  <ligand_id>  (54) 
58

>  <original_smiles>  (54) 
[H]c1c([H])c([H])c2c(c1[H])C([H])([H])C([H])([H])C([H])([H])C2([H])N([H])C(=O)C1([H])N(C(=O)C([H])(N([H])C(=O)C([H])(N([H])C([H])([H])[H])C([H])([H])[H])C(C([H])([H])[H])(C([H])([H])[H])C([H])([H])[H])C([H])([H])c2c([H])c(OC([H])([H])C([H])([H])C([H])([H])n3nc(C(C([H])([H])[H])(C([H])([H])[H])C([H])([H])N([H])C(=O)N4C([H])([H])C([H])([H])C([H])([H])C([H])(n5nc(-c6c([H])c([H])c(Oc7c([H])c([H])c(F)c([H])c7F)c([H])c6[H])c(C(=O)N([H])[H])c5N([H])[H])C4([H])[H])nc3[H])c([H])c([H])c2C1([H])[H]

>  <smiles>  (54) 
[H]c1c([H])c([H])c2c(c1[H])C([H])([H])C([H])([H])C([H])([H])C2([H])N([H])C(=O)C1([H])N(C(=O)C([H])(N([H])C(=O)C([H])(N([H])C([H])([H])[H])C([H])([H])[H])C(C([H])([H])[H])(C([H])([H])[H])C([H])([H])[H])C([H])([H])c2c([H])c(OC([H])([H])C([H])([H])C([H])([H])n3nc(C(C([H])([H])[H])(C([H])([H])[H])C([H])([H])N([H])C(=O)N4C([H])([H])C([H])([H])C([H])([H])C([H])(n5nc(-c6c([H])c([H])c(Oc7c([H])c([H])c(F)c([H])c7F)c([H])c6[H])c(C(=O)N([H])[H])c5N([H])[H])C4([H])[H])nc3[H])c([H])c([H])c2C1([H])[H]

$$$$
59:0:0
     RDKit          3D

 93101  0  0  1  0  0  0  0  0999 V2000
  -28.4390  -24.1270   20.7520 C   0  0  0  0  0  3  0  0  0  0  0  0
  -29.8420  -23.7220   18.8780 C   0  0  0  0  0  3  0  0  0  0  0  0
  -28.9460  -24.5810   19.5350 C   0  0  0  0  0  0  0  0  0  0  0  0
  -29.6750  -22.1870   20.5870 C   0  0  0  0  0  0  0  0  0  0  0  0
  -28.8190  -22.9450   21.2730 N   0  0  0  0  0  0  0  0  0  0  0  0
  -30.2030  -22.5350   19.4140 N   0  0  0  0  0  0  0  0  0  0  0  0
  -31.7390  -21.0850   21.5280 C   0  0  0  0  0  1  0  0  0  0  0  0
  -29.5070  -20.6760   22.6320 C   0  0  0  0  0  1  0  0  0  0  0  0
  -30.2280  -20.9080   21.2720 C   0  0  1  0  0  0  0  0  0  0  0  0
  -30.0550  -19.6550   20.3670 C   0  0  0  0  0  2  0  0  0  0  0  0
  -30.5210  -18.4250   21.0530 N   0  0  0  0  0  4  0  0  0  0  0  0
  -31.3780  -18.6710   21.5250 H   0  0  0  0  0  0  0  0  0  0  0  0
  -29.8390  -18.1690   21.7480 H   0  0  0  0  0  0  0  0  0  0  0  0
  -30.8090  -17.2510   20.2010 C   0  0  0  0  0  2  0  0  0  0  0  0
  -30.4600  -15.9410   20.9540 C   0  0  0  0  0  2  0  0  0  0  0  0
  -31.1650  -14.6940   20.3930 C   0  0  0  0  0  0  0  0  0  0  0  0
  -30.8640  -12.5080   19.3120 C   0  0  0  0  0  2  0  0  0  0  0  0
  -29.9450  -12.6990   18.0880 C   0  0  0  0  0  2  0  0  0  0  0  0
  -28.4630  -12.5820   18.5000 C   0  0  0  0  0  2  0  0  0  0  0  0
  -28.1110  -13.4670   19.7260 C   0  0  0  0  0  3  0  0  0  0  0  0
  -29.1470  -13.2750   20.8590 C   0  0  0  0  0  2  0  0  0  0  0  0
  -30.4870  -13.5220   20.3030 N   0  0  0  0  0  0  0  0  0  0  0  0
  -32.3020  -14.8340   19.9330 O   0  0  0  0  0  0  0  0  0  0  0  0
  -25.7150  -14.1220   20.4050 C   0  0  0  0  0  0  0  0  0  0  0  0
  -24.6280  -13.3660   20.7630 C   0  0  0  0  0  0  0  0  0  0  0  0
  -25.0690  -12.0080   20.7470 C   0  0  0  0  0  0  0  0  0  0  0  0
  -26.7490  -13.2210   20.1910 N   0  0  0  0  0  0  0  0  0  0  0  0
  -26.3630  -11.9460   20.4580 N   0  0  0  0  0  0  0  0  0  0  0  0
  -24.3220  -10.7560   20.9330 C   0  0  0  0  0  0  0  0  0  0  0  0
  -24.7050   -9.8040   21.9020 C   0  0  0  0  0  3  0  0  0  0  0  0
  -23.9610   -8.6160   22.0720 C   0  0  0  0  0  3  0  0  0  0  0  0
  -22.8180   -8.3750   21.2730 C   0  0  0  0  0  0  0  0  0  0  0  0
  -22.4560   -9.3150   20.2920 C   0  0  0  0  0  3  0  0  0  0  0  0
  -23.2020  -10.4940   20.1200 C   0  0  0  0  0  3  0  0  0  0  0  0
  -22.0480   -7.2400   21.3500 O   0  0  0  0  0  0  0  0  0  0  0  0
  -21.9110   -6.5440   22.5260 C   0  0  0  0  0  0  0  0  0  0  0  0
  -21.3950   -7.1480   23.6930 C   0  0  0  0  0  3  0  0  0  0  0  0
  -21.2040   -6.3780   24.8580 C   0  0  0  0  0  3  0  0  0  0  0  0
  -21.5180   -5.0060   24.8560 C   0  0  0  0  0  0  0  0  0  0  0  0
  -22.0250   -4.4020   23.6920 C   0  0  0  0  0  3  0  0  0  0  0  0
  -22.2170   -5.1690   22.5300 C   0  0  0  0  0  0  0  0  0  0  0  0
  -22.6860   -4.5780   21.4050 F   0  0  0  0  0  0  0  0  0  0  0  0
  -21.3270   -4.2640   25.9720 F   0  0  0  0  0  0  0  0  0  0  0  0
  -23.2340  -13.8660   21.0110 C   0  0  0  0  0  0  0  0  0  0  0  0
  -22.4840  -13.1880   21.8740 N   0  0  0  0  0  0  0  0  0  0  0  0
  -22.8150  -14.8900   20.4730 O   0  0  0  0  0  0  0  0  0  0  0  0
  -22.8320  -12.3570   22.3290 H   0  0  0  0  0  0  0  0  0  0  0  0
  -21.5480  -13.5060   22.0830 H   0  0  0  0  0  0  0  0  0  0  0  0
  -25.9020  -15.4870   20.2200 N   0  0  0  0  0  0  0  0  0  0  0  0
  -25.1380  -16.1500   20.2960 H   0  0  0  0  0  0  0  0  0  0  0  0
  -26.7530  -15.9050   19.8640 H   0  0  0  0  0  0  0  0  0  0  0  0
  -28.5190  -25.9210   18.9520 C   0  0  0  0  0  2  0  0  0  0  0  0
  -28.2460  -26.8980   19.9620 O   0  0  0  0  0  0  0  0  0  0  0  0
  -24.4900  -31.9630   23.2430 C   0  0  0  0  0  0  0  0  0  0  0  0
  -27.0310  -27.5540   20.0100 C   0  0  0  0  0  0  0  0  0  0  0  0
  -23.2260  -30.5830   21.6260 C   0  0  0  0  0  3  0  0  0  0  0  0
  -24.6250  -29.0420   20.1500 C   0  0  0  0  0  0  0  0  0  0  0  0
  -25.7510  -30.9210   21.3650 C   0  0  0  0  0  2  0  0  0  0  0  0
  -25.8030  -29.5630   20.6970 C   0  0  0  0  0  0  0  0  0  0  0  0
  -27.0020  -28.8210   20.6310 C   0  0  0  0  0  3  0  0  0  0  0  0
  -25.8240  -27.0230   19.4980 C   0  0  0  0  0  3  0  0  0  0  0  0
  -24.6290  -27.7640   19.5640 C   0  0  0  0  0  3  0  0  0  0  0  0
  -23.3850  -29.9040   20.2400 C   0  0  0  0  0  2  0  0  0  0  0  0
  -24.5090  -31.1730   22.1330 N   0  0  0  0  0  0  0  0  0  0  0  0
  -23.4300  -32.2390   23.8180 O   0  0  0  0  0  0  0  0  0  0  0  0
  -22.6020  -29.5600   22.5990 C   0  0  0  0  0  0  0  0  0  0  0  0
  -21.2780  -29.3540   22.4840 N   0  0  0  0  0  0  0  0  0  0  0  0
  -23.3010  -28.9510   23.4130 O   0  0  0  0  0  0  0  0  0  0  0  0
  -20.7730  -29.9010   21.7990 H   0  0  0  0  0  0  0  0  0  0  0  0
  -17.9370  -28.0730   22.9840 C   0  0  0  0  0  0  0  0  0  0  0  0
  -20.4840  -28.4070   23.2650 C   0  0  0  0  0  3  0  0  0  0  0  0
  -20.6300  -26.9700   22.7130 C   0  0  0  0  0  2  0  0  0  0  0  0
  -19.5410  -26.5980   21.7000 C   0  0  0  0  0  2  0  0  0  0  0  0
  -18.1510  -26.7170   22.3330 C   0  0  0  0  0  2  0  0  0  0  0  0
  -19.0320  -28.8730   23.4060 C   0  0  0  0  0  0  0  0  0  0  0  0
  -18.7740  -30.1420   23.9700 C   0  0  0  0  0  3  0  0  0  0  0  0
  -17.4550  -30.6080   24.1230 C   0  0  0  0  0  3  0  0  0  0  0  0
  -16.3760  -29.8060   23.7140 C   0  0  0  0  0  3  0  0  0  0  0  0
  -16.6180  -28.5410   23.1500 C   0  0  0  0  0  3  0  0  0  0  0  0
  -25.8010  -32.5790   23.8300 C   0  0  0  0  0  3  0  0  0  0  0  0
  -25.5120  -33.9780   24.1720 N   0  0  0  0  0  0  0  0  0  0  0  0
  -25.8440  -35.0300   23.4130 C   0  0  0  0  0  0  0  0  0  0  0  0
  -26.4940  -34.9260   22.3690 O   0  0  0  0  0  0  0  0  0  0  0  0
  -24.9330  -34.1360   24.9830 H   0  0  0  0  0  0  0  0  0  0  0  0
  -24.1250  -36.8390   23.0920 C   0  0  0  0  0  1  0  0  0  0  0  0
  -25.3730  -36.4180   23.8840 C   0  0  0  0  0  3  0  0  0  0  0  0
  -27.5390  -37.2620   24.6760 C   0  0  0  0  0  1  0  0  0  0  0  0
  -26.4080  -37.4710   23.7750 N   0  0  0  0  0  0  0  0  0  0  0  0
  -26.0100  -38.3840   23.9760 H   0  0  0  0  0  0  0  0  0  0  0  0
  -26.3500  -31.8000   25.0880 C   0  0  1  0  0  0  0  0  0  0  0  0
  -25.2870  -31.5570   26.1840 C   0  0  0  0  0  1  0  0  0  0  0  0
  -26.9210  -30.4230   24.6750 C   0  0  0  0  0  1  0  0  0  0  0  0
  -27.5210  -32.5930   25.7180 C   0  0  0  0  0  1  0  0  0  0  0  0
  1  5  1  0
  2  6  2  0
  2  3  1  0
  3  1  2  0
  4  9  1  0
  4  5  2  0
  6  4  1  0
  9  7  1  1
  9  8  1  0
 10 11  1  0
 10  9  1  0
 11 12  1  0
 11 13  1  0
 14 15  1  0
 14 11  1  0
 16 15  1  0
 17 22  1  0
 18 19  1  0
 18 17  1  0
 20 19  1  0
 20 27  1  0
 20 21  1  0
 22 16  1  0
 22 21  1  0
 23 16  2  0
 24 25  2  0
 25 44  1  0
 26 25  1  0
 26 29  1  0
 27 24  1  0
 27 28  1  0
 28 26  2  0
 29 30  1  0
 30 31  2  0
 32 35  1  0
 32 31  1  0
 33 32  2  0
 34 33  1  0
 34 29  2  0
 35 36  1  0
 36 41  2  0
 36 37  1  0
 37 38  2  0
 39 38  1  0
 39 43  1  0
 40 39  2  0
 41 40  1  0
 42 41  1  0
 44 45  1  0
 45 48  1  0
 45 47  1  0
 46 44  2  0
 49 50  1  0
 49 24  1  0
 51 49  1  0
 52  3  1  0
 52 53  1  0
 53 55  1  0
 54 65  2  0
 55 60  1  0
 56 64  1  0
 56 66  1  0
 57 63  1  0
 57 59  1  0
 58 64  1  0
 59 58  1  0
 60 59  2  0
 61 62  1  0
 61 55  2  0
 62 57  2  0
 63 56  1  0
 64 54  1  0
 66 68  2  0
 67 66  1  0
 69 67  1  0
 70 79  2  0
 70 75  1  0
 71 67  1  0
 71 75  1  0
 72 71  1  0
 73 74  1  0
 73 72  1  0
 74 70  1  0
 75 76  2  0
 76 77  1  0
 78 77  2  0
 79 78  1  0
 80 54  1  0
 80 81  1  0
 80 90  1  0
 81 84  1  0
 82 86  1  0
 82 81  1  0
 83 82  2  0
 86 85  1  0
 88 86  1  0
 88 89  1  0
 88 87  1  0
 90 93  1  1
 90 91  1  0
 92 90  1  0
M  ISO  4  15 100  16 100  52 101  53 101
M  END
>  <TORSDO>  (55) 
F 22

>  <SCORE>  (55) 
-12.270

>  <name>  (55) 
59

>  <ligand_id>  (55) 
59

>  <original_smiles>  (55) 
[H]c1nc(C(C([H])([H])[H])(C([H])([H])[H])C([H])([H])[N+]([H])([H])C([H])([H])C([H])([H])C(=O)N2C([H])([H])C([H])([H])C([H])([H])C([H])(n3nc(-c4c([H])c([H])c(Oc5c([H])c([H])c(F)c([H])c5F)c([H])c4[H])c(C(=O)N([H])[H])c3N([H])[H])C2([H])[H])nc([H])c1C([H])([H])Oc1c([H])c([H])c2c(c1[H])C([H])([H])N(C(=O)C([H])(N([H])C(=O)C([H])(N([H])C([H])([H])[H])C([H])([H])[H])C(C([H])([H])[H])(C([H])([H])[H])C([H])([H])[H])C([H])(C(=O)N([H])C1([H])c3c([H])c([H])c([H])c([H])c3C([H])([H])C([H])([H])C1([H])[H])C2([H])[H]

>  <smiles>  (55) 
[H]c1nc(C(C([H])([H])[H])(C([H])([H])[H])C([H])([H])[N+]([H])([H])C([H])([H])C([H])([H])C(=O)N2C([H])([H])C([H])([H])C([H])([H])C([H])(n3nc(-c4c([H])c([H])c(Oc5c([H])c([H])c(F)c([H])c5F)c([H])c4[H])c(C(=O)N([H])[H])c3N([H])[H])C2([H])[H])nc([H])c1C([H])([H])Oc1c([H])c([H])c2c(c1[H])C([H])([H])N(C(=O)C([H])(N([H])C(=O)C([H])(N([H])C([H])([H])[H])C([H])([H])[H])C(C([H])([H])[H])(C([H])([H])[H])C([H])([H])[H])C([H])(C(=O)N([H])C1([H])c3c([H])c([H])c([H])c([H])c3C([H])([H])C([H])([H])C1([H])[H])C2([H])[H]

$$$$
61:0:0
     RDKit          3D

 92100  0  0  1  0  0  0  0  0999 V2000
  -29.7520  -23.1430   21.1930 C   0  0  0  0  0  3  0  0  0  0  0  0
  -28.8880  -23.5760   20.1410 C   0  0  0  0  0  0  0  0  0  0  0  0
  -30.0870  -21.8630   21.0750 N   0  0  0  0  0  0  0  0  0  0  0  0
  -28.7350  -22.4910   19.3700 N   0  0  0  0  0  0  0  0  0  0  0  0
  -29.4590  -21.4390   19.9380 N   0  0  0  0  0  0  0  0  0  0  0  0
  -29.1790  -19.9950   17.9460 C   0  0  0  0  0  1  0  0  0  0  0  0
  -27.8560  -19.5850   20.0360 C   0  0  0  0  0  1  0  0  0  0  0  0
  -29.2620  -19.9590   19.4990 C   0  0  2  0  0  0  0  0  0  0  0  0
  -31.6880  -19.0770   19.2790 C   0  0  0  0  0  1  0  0  0  0  0  0
  -30.5700  -18.7150   21.4480 C   0  0  0  0  0  1  0  0  0  0  0  0
  -30.3250  -18.7460   19.9250 C   0  0  1  0  0  0  0  0  0  0  0  0
  -29.9800  -17.2190   19.4190 C   0  0  0  0  0  2  0  0  0  0  0  0
  -30.9240  -14.8180   19.9420 C   0  0  0  0  0  0  0  0  0  0  0  0
  -30.6730  -12.5280   18.9890 C   0  0  0  0  0  2  0  0  0  0  0  0
  -29.6990  -12.6210   17.7900 C   0  0  0  0  0  2  0  0  0  0  0  0
  -28.2410  -12.4800   18.2620 C   0  0  0  0  0  2  0  0  0  0  0  0
  -27.9230  -13.3790   19.4860 C   0  0  0  0  0  3  0  0  0  0  0  0
  -29.0110  -13.2620   20.5820 C   0  0  0  0  0  2  0  0  0  0  0  0
  -30.3030  -13.5870   19.9610 N   0  0  0  0  0  0  0  0  0  0  0  0
  -32.0580  -14.9310   19.4710 O   0  0  0  0  0  0  0  0  0  0  0  0
  -30.1680  -15.9380   20.2370 N   0  0  0  0  0  0  0  0  0  0  0  0
  -29.3590  -15.7150   20.8000 H   0  0  0  0  0  0  0  0  0  0  0  0
  -25.5580  -14.0180   20.2550 C   0  0  0  0  0  0  0  0  0  0  0  0
  -24.4910  -13.2620   20.6600 C   0  0  0  0  0  0  0  0  0  0  0  0
  -24.9330  -11.9040   20.6340 C   0  0  0  0  0  0  0  0  0  0  0  0
  -26.5860  -13.1210   20.0090 N   0  0  0  0  0  0  0  0  0  0  0  0
  -26.2170  -11.8460   20.2980 N   0  0  0  0  0  0  0  0  0  0  0  0
  -24.1950  -10.6540   20.8560 C   0  0  0  0  0  0  0  0  0  0  0  0
  -24.6090   -9.7120   21.8230 C   0  0  0  0  0  3  0  0  0  0  0  0
  -23.8710   -8.5260   22.0280 C   0  0  0  0  0  3  0  0  0  0  0  0
  -22.7040   -8.2760   21.2660 C   0  0  0  0  0  0  0  0  0  0  0  0
  -22.3110   -9.2050   20.2870 C   0  0  0  0  0  3  0  0  0  0  0  0
  -23.0510  -10.3820   20.0790 C   0  0  0  0  0  3  0  0  0  0  0  0
  -21.9380   -7.1420   21.3810 O   0  0  0  0  0  0  0  0  0  0  0  0
  -21.8260   -6.4650   22.5700 C   0  0  0  0  0  0  0  0  0  0  0  0
  -21.3200   -7.0840   23.7340 C   0  0  0  0  0  3  0  0  0  0  0  0
  -21.1570   -6.3340   24.9160 C   0  0  0  0  0  3  0  0  0  0  0  0
  -21.4890   -4.9660   24.9340 C   0  0  0  0  0  0  0  0  0  0  0  0
  -21.9890   -4.3470   23.7750 C   0  0  0  0  0  3  0  0  0  0  0  0
  -22.1530   -5.0950   22.5960 C   0  0  0  0  0  0  0  0  0  0  0  0
  -22.6140   -4.4890   21.4750 F   0  0  0  0  0  0  0  0  0  0  0  0
  -21.3260   -4.2430   26.0660 F   0  0  0  0  0  0  0  0  0  0  0  0
  -23.1100  -13.7620   20.9680 C   0  0  0  0  0  0  0  0  0  0  0  0
  -22.4030  -13.0880   21.8700 N   0  0  0  0  0  0  0  0  0  0  0  0
  -22.6690  -14.7850   20.4460 O   0  0  0  0  0  0  0  0  0  0  0  0
  -22.7740  -12.2580   22.3080 H   0  0  0  0  0  0  0  0  0  0  0  0
  -21.4790  -13.4080   22.1250 H   0  0  0  0  0  0  0  0  0  0  0  0
  -25.7360  -15.3840   20.0490 N   0  0  0  0  0  0  0  0  0  0  0  0
  -24.9700  -16.0430   20.1140 H   0  0  0  0  0  0  0  0  0  0  0  0
  -26.5880  -15.8030   19.6990 H   0  0  0  0  0  0  0  0  0  0  0  0
  -28.0040  -24.8780   19.9100 C   0  0  0  0  0  2  0  0  0  0  0  0
  -28.3360  -26.3140   20.2580 O   0  0  0  0  0  0  0  0  0  0  0  0
  -24.6070  -31.8570   23.1970 C   0  0  0  0  0  0  0  0  0  0  0  0
  -27.2620  -27.2510   20.1640 C   0  0  0  0  0  0  0  0  0  0  0  0
  -23.4290  -30.4570   21.5440 C   0  0  0  0  0  3  0  0  0  0  0  0
  -24.9060  -28.9230   20.1230 C   0  0  0  0  0  0  0  0  0  0  0  0
  -25.9790  -30.7590   21.4080 C   0  0  0  0  0  2  0  0  0  0  0  0
  -26.0670  -29.3820   20.7540 C   0  0  0  0  0  0  0  0  0  0  0  0
  -27.2450  -28.5580   20.7730 C   0  0  0  0  0  3  0  0  0  0  0  0
  -26.0760  -26.8860   19.4830 C   0  0  0  0  0  3  0  0  0  0  0  0
  -24.9180  -27.6820   19.4750 C   0  0  0  0  0  3  0  0  0  0  0  0
  -23.6660  -29.8000   20.1600 C   0  0  0  0  0  2  0  0  0  0  0  0
  -24.6890  -31.0460   22.1010 N   0  0  0  0  0  0  0  0  0  0  0  0
  -23.5180  -32.1260   23.7260 O   0  0  0  0  0  0  0  0  0  0  0  0
  -22.7650  -29.4290   22.4950 C   0  0  0  0  0  0  0  0  0  0  0  0
  -21.4370  -29.2600   22.3770 N   0  0  0  0  0  0  0  0  0  0  0  0
  -23.4440  -28.7900   23.3030 O   0  0  0  0  0  0  0  0  0  0  0  0
  -20.9500  -29.8300   21.7000 H   0  0  0  0  0  0  0  0  0  0  0  0
  -18.0580  -28.0860   22.9070 C   0  0  0  0  0  0  0  0  0  0  0  0
  -20.6200  -28.3190   23.1450 C   0  0  0  0  0  3  0  0  0  0  0  0
  -20.7010  -26.8950   22.5500 C   0  0  0  0  0  2  0  0  0  0  0  0
  -19.5830  -26.5950   21.5450 C   0  0  0  0  0  2  0  0  0  0  0  0
  -18.2110  -26.7430   22.2100 C   0  0  0  0  0  2  0  0  0  0  0  0
  -19.1890  -28.8320   23.3330 C   0  0  0  0  0  0  0  0  0  0  0  0
  -18.9930  -30.0840   23.9510 C   0  0  0  0  0  3  0  0  0  0  0  0
  -17.6950  -30.5960   24.1460 C   0  0  0  0  0  3  0  0  0  0  0  0
  -16.5780  -29.8480   23.7370 C   0  0  0  0  0  3  0  0  0  0  0  0
  -16.7580  -28.5960   23.1230 C   0  0  0  0  0  3  0  0  0  0  0  0
  -25.8790  -32.4970   23.8300 C   0  0  0  0  0  3  0  0  0  0  0  0
  -26.3900  -31.7350   25.1160 C   0  0  1  0  0  0  0  0  0  0  0  0
  -25.2870  -31.4850   26.1710 C   0  0  0  0  0  1  0  0  0  0  0  0
  -26.9960  -30.3620   24.7420 C   0  0  0  0  0  1  0  0  0  0  0  0
  -27.5240  -32.5480   25.7870 C   0  0  0  0  0  1  0  0  0  0  0  0
  -25.5550  -33.8930   24.1540 N   0  0  0  0  0  0  0  0  0  0  0  0
  -25.8840  -34.9500   23.3990 C   0  0  0  0  0  0  0  0  0  0  0  0
  -26.5630  -34.8520   22.3730 O   0  0  0  0  0  0  0  0  0  0  0  0
  -24.9560  -34.0430   24.9540 H   0  0  0  0  0  0  0  0  0  0  0  0
  -24.1540  -36.7420   23.0210 C   0  0  0  0  0  1  0  0  0  0  0  0
  -25.3800  -36.3360   23.8530 C   0  0  0  0  0  3  0  0  0  0  0  0
  -27.4880  -37.2380   24.7300 C   0  0  0  0  0  1  0  0  0  0  0  0
  -26.4070  -37.3940   23.7620 N   0  0  0  0  0  0  0  0  0  0  0  0
  -25.9920  -38.3120   23.9010 H   0  0  0  0  0  0  0  0  0  0  0  0
  2  1  1  0
  3  1  2  0
  4  5  1  0
  4  2  2  0
  5  3  1  0
  8  6  1  6
  8 11  1  0
  8  5  1  0
  8  7  1  0
 11  9  1  6
 11 10  1  0
 12 11  1  0
 12 21  1  0
 13 19  1  0
 13 21  1  0
 14 19  1  0
 15 16  1  0
 15 14  1  0
 17 16  1  0
 17 26  1  0
 17 18  1  0
 19 18  1  0
 20 13  2  0
 21 22  1  0
 23 24  2  0
 24 43  1  0
 25 24  1  0
 25 28  1  0
 26 23  1  0
 26 27  1  0
 27 25  2  0
 28 29  1  0
 29 30  2  0
 31 34  1  0
 31 30  1  0
 32 31  2  0
 33 32  1  0
 33 28  2  0
 34 35  1  0
 35 40  2  0
 35 36  1  0
 36 37  2  0
 37 38  1  0
 38 42  1  0
 39 38  2  0
 40 39  1  0
 41 40  1  0
 43 44  1  0
 44 47  1  0
 44 46  1  0
 45 43  2  0
 48 49  1  0
 48 23  1  0
 50 48  1  0
 51  2  1  0
 51 52  1  0
 53 64  2  0
 54 52  1  0
 54 59  1  0
 55 63  1  0
 55 65  1  0
 56 62  1  0
 56 58  1  0
 57 63  1  0
 58 59  2  0
 58 57  1  0
 60 54  2  0
 61 60  1  0
 61 56  2  0
 62 55  1  0
 63 53  1  0
 65 67  2  0
 66 65  1  0
 68 66  1  0
 69 78  2  0
 69 74  1  0
 70 66  1  0
 70 74  1  0
 71 70  1  0
 72 73  1  0
 72 71  1  0
 73 69  1  0
 74 75  2  0
 75 76  1  0
 77 76  2  0
 78 77  1  0
 79 53  1  0
 79 84  1  0
 79 80  1  0
 80 83  1  1
 80 81  1  0
 82 80  1  0
 84 87  1  0
 85 89  1  0
 85 84  1  0
 86 85  2  0
 89 88  1  0
 91 89  1  0
 91 92  1  0
 91 90  1  0
M  ISO  4  13 100  21 100  51 101  52 101
M  END
>  <TORSDO>  (56) 
F 20

>  <SCORE>  (56) 
-13.693

>  <name>  (56) 
61

>  <ligand_id>  (56) 
61

>  <original_smiles>  (56) 
[H]c1nn(C(C([H])([H])[H])(C([H])([H])[H])C(C([H])([H])[H])(C([H])([H])[H])C([H])([H])N([H])C(=O)N2C([H])([H])C([H])([H])C([H])([H])C([H])(n3nc(-c4c([H])c([H])c(Oc5c([H])c([H])c(F)c([H])c5F)c([H])c4[H])c(C(=O)N([H])[H])c3N([H])[H])C2([H])[H])nc1C([H])([H])Oc1c([H])c([H])c2c(c1[H])C([H])([H])N(C(=O)C([H])(N([H])C(=O)C([H])(N([H])C([H])([H])[H])C([H])([H])[H])C(C([H])([H])[H])(C([H])([H])[H])C([H])([H])[H])C([H])(C(=O)N([H])C1([H])c3c([H])c([H])c([H])c([H])c3C([H])([H])C([H])([H])C1([H])[H])C2([H])[H]

>  <smiles>  (56) 
[H]c1nn(C(C([H])([H])[H])(C([H])([H])[H])C(C([H])([H])[H])(C([H])([H])[H])C([H])([H])N([H])C(=O)N2C([H])([H])C([H])([H])C([H])([H])C([H])(n3nc(-c4c([H])c([H])c(Oc5c([H])c([H])c(F)c([H])c5F)c([H])c4[H])c(C(=O)N([H])[H])c3N([H])[H])C2([H])[H])nc1C([H])([H])Oc1c([H])c([H])c2c(c1[H])C([H])([H])N(C(=O)C([H])(N([H])C(=O)C([H])(N([H])C([H])([H])[H])C([H])([H])[H])C(C([H])([H])[H])(C([H])([H])[H])C([H])([H])[H])C([H])(C(=O)N([H])C1([H])c3c([H])c([H])c([H])c([H])c3C([H])([H])C([H])([H])C1([H])[H])C2([H])[H]

$$$$
62:0:0
     RDKit          3D

 93101  0  0  1  0  0  0  0  0999 V2000
  -29.2750  -18.9470   19.2420 C   0  0  0  0  0  2  0  0  0  0  0  0
  -30.3840  -17.4630   20.2630 C   0  0  0  0  0  0  0  0  0  0  0  0
  -29.5420  -17.6240   19.1900 N   0  0  0  0  0  0  0  0  0  0  0  0
  -30.5270  -18.6270   20.9640 N   0  0  0  0  0  2  0  0  0  0  0  0
  -29.8160  -19.6010   20.2790 N   0  0  0  0  0  0  0  0  0  0  0  0
  -32.4470  -16.3880   21.2470 C   0  0  0  0  0  1  0  0  0  0  0  0
  -30.9770  -16.0920   20.8160 C   0  0  2  0  0  0  0  0  0  0  0  0
  -31.1750  -14.8300   19.7790 C   0  0  0  0  0  0  0  0  0  0  0  0
  -30.6570  -12.7070   18.5150 C   0  0  0  0  0  2  0  0  0  0  0  0
  -29.6150  -12.9580   17.4000 C   0  0  0  0  0  2  0  0  0  0  0  0
  -28.1790  -12.8430   17.9450 C   0  0  0  0  0  2  0  0  0  0  0  0
  -27.9990  -13.6180   19.2760 C   0  0  0  0  0  3  0  0  0  0  0  0
  -29.1350  -13.2750   20.2570 C   0  0  0  0  0  2  0  0  0  0  0  0
  -30.4100  -13.6720   19.6300 N   0  0  0  0  0  0  0  0  0  0  0  0
  -32.1840  -14.8960   19.0620 O   0  0  0  0  0  0  0  0  0  0  0  0
  -25.7320  -14.3200   20.2580 C   0  0  0  0  0  0  0  0  0  0  0  0
  -24.6600  -13.5930   20.6970 C   0  0  0  0  0  0  0  0  0  0  0  0
  -25.0280  -12.2180   20.5560 C   0  0  0  0  0  0  0  0  0  0  0  0
  -26.6860  -13.3910   19.8730 N   0  0  0  0  0  0  0  0  0  0  0  0
  -26.2750  -12.1190   20.1140 N   0  0  0  0  0  0  0  0  0  0  0  0
  -24.2440  -10.9950   20.7630 C   0  0  0  0  0  0  0  0  0  0  0  0
  -24.6780   -9.9770   21.6410 C   0  0  0  0  0  3  0  0  0  0  0  0
  -23.8980   -8.8170   21.8380 C   0  0  0  0  0  3  0  0  0  0  0  0
  -22.6660   -8.6670   21.1600 C   0  0  0  0  0  0  0  0  0  0  0  0
  -22.2500   -9.6710   20.2680 C   0  0  0  0  0  3  0  0  0  0  0  0
  -23.0300  -10.8220   20.0690 C   0  0  0  0  0  3  0  0  0  0  0  0
  -21.8510   -7.5680   21.2710 O   0  0  0  0  0  0  0  0  0  0  0  0
  -21.8000   -6.8250   22.4230 C   0  0  0  0  0  0  0  0  0  0  0  0
  -21.4580   -7.4010   23.6660 C   0  0  0  0  0  3  0  0  0  0  0  0
  -21.3440   -6.5870   24.8110 C   0  0  0  0  0  3  0  0  0  0  0  0
  -21.5650   -5.2000   24.7150 C   0  0  0  0  0  0  0  0  0  0  0  0
  -21.8990   -4.6240   23.4770 C   0  0  0  0  0  3  0  0  0  0  0  0
  -22.0140   -5.4350   22.3330 C   0  0  0  0  0  0  0  0  0  0  0  0
  -22.3170   -4.8730   21.1390 F   0  0  0  0  0  0  0  0  0  0  0  0
  -21.4470   -4.4160   25.8130 F   0  0  0  0  0  0  0  0  0  0  0  0
  -23.3300  -14.1340   21.1300 C   0  0  0  0  0  0  0  0  0  0  0  0
  -22.6610  -13.4550   22.0560 N   0  0  0  0  0  0  0  0  0  0  0  0
  -22.8970  -15.1950   20.6790 O   0  0  0  0  0  0  0  0  0  0  0  0
  -23.0220  -12.5930   22.4370 H   0  0  0  0  0  0  0  0  0  0  0  0
  -21.7680  -13.8000   22.3800 H   0  0  0  0  0  0  0  0  0  0  0  0
  -25.9650  -15.6870   20.1340 N   0  0  0  0  0  0  0  0  0  0  0  0
  -25.2320  -16.3590   20.3320 H   0  0  0  0  0  0  0  0  0  0  0  0
  -26.7610  -16.1020   19.6680 H   0  0  0  0  0  0  0  0  0  0  0  0
  -30.1820  -15.7220   22.1030 C   0  0  0  0  0  2  0  0  0  0  0  0
  -30.2100  -16.7300   23.1920 N   0  0  0  0  0  4  0  0  0  0  0  0
  -31.1320  -16.8370   23.5740 H   0  0  0  0  0  0  0  0  0  0  0  0
  -29.5930  -16.4600   23.9410 H   0  0  0  0  0  0  0  0  0  0  0  0
  -29.9160  -17.6280   22.8420 H   0  0  0  0  0  0  0  0  0  0  0  0
  -29.9420  -21.0850   20.6100 C   0  0  0  0  0  3  0  0  0  0  0  0
  -28.7680  -22.1560   20.3470 C   0  0  0  0  0  3  0  0  0  0  0  0
  -29.1210  -23.7340   20.4830 C   0  0  0  0  0  3  0  0  0  0  0  0
  -28.0300  -24.8500   20.0780 C   0  0  0  0  0  3  0  0  0  0  0  0
  -28.2920  -26.3260   20.1760 O   0  0  0  0  0  0  0  0  0  0  0  0
  -24.5010  -31.7830   23.0730 C   0  0  0  0  0  0  0  0  0  0  0  0
  -27.1900  -27.2060   20.0790 C   0  0  0  0  0  0  0  0  0  0  0  0
  -23.3310  -30.3440   21.4480 C   0  0  0  0  0  3  0  0  0  0  0  0
  -24.8110  -28.8150   20.0330 C   0  0  0  0  0  0  0  0  0  0  0  0
  -25.8670  -30.7010   21.2690 C   0  0  0  0  0  2  0  0  0  0  0  0
  -25.9730  -29.3170   20.6320 C   0  0  0  0  0  0  0  0  0  0  0  0
  -27.1670  -28.5280   20.6410 C   0  0  0  0  0  3  0  0  0  0  0  0
  -26.0030  -26.7740   19.4440 C   0  0  0  0  0  3  0  0  0  0  0  0
  -24.8320  -27.5530   19.4250 C   0  0  0  0  0  3  0  0  0  0  0  0
  -23.5610  -29.6710   20.0710 C   0  0  0  0  0  2  0  0  0  0  0  0
  -24.5850  -30.9630   21.9850 N   0  0  0  0  0  0  0  0  0  0  0  0
  -23.4110  -32.0430   23.6040 O   0  0  0  0  0  0  0  0  0  0  0  0
  -22.6880  -29.3200   22.4160 C   0  0  0  0  0  0  0  0  0  0  0  0
  -21.3660  -29.1130   22.2920 N   0  0  0  0  0  0  0  0  0  0  0  0
  -23.3780  -28.7160   23.2410 O   0  0  0  0  0  0  0  0  0  0  0  0
  -20.8650  -29.6480   21.5970 H   0  0  0  0  0  0  0  0  0  0  0  0
  -18.0200  -27.8260   22.7740 C   0  0  0  0  0  0  0  0  0  0  0  0
  -20.5660  -28.1640   23.0690 C   0  0  0  0  0  3  0  0  0  0  0  0
  -20.7170  -26.7270   22.5170 C   0  0  0  0  0  2  0  0  0  0  0  0
  -19.6370  -26.3550   21.4990 C   0  0  0  0  0  2  0  0  0  0  0  0
  -18.2450  -26.4710   22.1230 C   0  0  0  0  0  2  0  0  0  0  0  0
  -19.1100  -28.6290   23.2030 C   0  0  0  0  0  0  0  0  0  0  0  0
  -18.8450  -29.8960   23.7670 C   0  0  0  0  0  3  0  0  0  0  0  0
  -17.5230  -30.3600   23.9090 C   0  0  0  0  0  3  0  0  0  0  0  0
  -16.4490  -29.5540   23.4970 C   0  0  0  0  0  3  0  0  0  0  0  0
  -16.6970  -28.2890   22.9340 C   0  0  0  0  0  3  0  0  0  0  0  0
  -25.7700  -32.4500   23.6890 C   0  0  0  0  0  3  0  0  0  0  0  0
  -26.3390  -31.6670   24.9350 C   0  0  1  0  0  0  0  0  0  0  0  0
  -25.2750  -31.3550   26.0140 C   0  0  0  0  0  1  0  0  0  0  0  0
  -26.9690  -30.3250   24.5000 C   0  0  0  0  0  1  0  0  0  0  0  0
  -27.4710  -32.4850   25.5980 C   0  0  0  0  0  1  0  0  0  0  0  0
  -25.4120  -33.8250   24.0650 N   0  0  0  0  0  0  0  0  0  0  0  0
  -25.6870  -34.9110   23.3310 C   0  0  0  0  0  0  0  0  0  0  0  0
  -26.3400  -34.8630   22.2840 O   0  0  0  0  0  0  0  0  0  0  0  0
  -24.8310  -33.9330   24.8840 H   0  0  0  0  0  0  0  0  0  0  0  0
  -23.8820  -36.6410   23.0670 C   0  0  0  0  0  1  0  0  0  0  0  0
  -25.1560  -36.2660   23.8380 C   0  0  0  0  0  3  0  0  0  0  0  0
  -27.2720  -37.2130   24.6470 C   0  0  0  0  0  1  0  0  0  0  0  0
  -26.1430  -37.3620   23.7330 N   0  0  0  0  0  0  0  0  0  0  0  0
  -25.7040  -38.2600   23.9160 H   0  0  0  0  0  0  0  0  0  0  0  0
  1  5  1  0
  2  7  1  0
  2  4  1  0
  3  1  1  0
  3  2  2  0
  5 49  1  0
  5  4  1  0
  7  6  1  1
  7 44  1  0
  8  7  1  0
  9 14  1  0
 10 11  1  0
 10  9  1  0
 12 11  1  0
 12 19  1  0
 12 13  1  0
 14  8  1  0
 14 13  1  0
 15  8  2  0
 16 17  2  0
 17 36  1  0
 18 17  1  0
 18 21  1  0
 19 20  1  0
 19 16  1  0
 20 18  2  0
 21 22  1  0
 22 23  2  0
 24 27  1  0
 24 23  1  0
 25 24  2  0
 26 25  1  0
 26 21  2  0
 27 28  1  0
 28 29  1  0
 29 30  2  0
 31 30  1  0
 31 35  1  0
 32 31  2  0
 33 28  2  0
 33 32  1  0
 34 33  1  0
 36 37  1  0
 37 40  1  0
 37 39  1  0
 38 36  2  0
 41 16  1  0
 41 42  1  0
 43 41  1  0
 44 45  1  0
 45 46  1  0
 45 47  1  0
 48 45  1  0
 50 51  1  0
 50 49  2  0
 52 53  1  0
 52 51  2  0
 54 65  2  0
 55 53  1  0
 55 60  1  0
 56 64  1  0
 56 66  1  0
 57 63  1  0
 57 59  1  0
 58 64  1  0
 59 60  2  0
 59 58  1  0
 61 55  2  0
 62 61  1  0
 62 57  2  0
 63 56  1  0
 64 54  1  0
 66 68  2  0
 67 66  1  0
 69 67  1  0
 70 79  2  0
 70 75  1  0
 71 67  1  0
 71 75  1  0
 72 71  1  0
 73 74  1  0
 73 72  1  0
 74 70  1  0
 75 76  2  0
 76 77  1  0
 78 77  2  0
 79 78  1  0
 80 54  1  0
 80 85  1  0
 80 81  1  0
 81 84  1  1
 81 82  1  0
 83 81  1  0
 85 88  1  0
 86 90  1  0
 86 85  1  0
 87 86  2  0
 90 89  1  0
 92 90  1  0
 92 93  1  0
 92 91  1  0
M  ISO  4   7 100   8 100  52 101  53 101
M  END
>  <TORSDO>  (57) 
F 23

>  <SCORE>  (57) 
-10.102

>  <name>  (57) 
62

>  <ligand_id>  (57) 
62

>  <original_smiles>  (57) 
[H]c1c([H])c([H])c2c(c1[H])C([H])([H])C([H])([H])C([H])([H])C2([H])N([H])C(=O)C1([H])N(C(=O)C([H])(N([H])C(=O)C([H])(N([H])C([H])([H])[H])C([H])([H])[H])C(C([H])([H])[H])(C([H])([H])[H])C([H])([H])[H])C([H])([H])c2c([H])c(OC([H])([H])C([H])([H])C([H])([H])C([H])([H])n3nc(C(C(=O)N4C([H])([H])C([H])([H])C([H])([H])C([H])(n5nc(-c6c([H])c([H])c(Oc7c([H])c([H])c(F)c([H])c7F)c([H])c6[H])c(C(=O)N([H])[H])c5N([H])[H])C4([H])[H])(C([H])([H])[H])C([H])([H])[N+]([H])([H])[H])nc3[H])c([H])c([H])c2C1([H])[H]

>  <smiles>  (57) 
[H]c1c([H])c([H])c2c(c1[H])C([H])([H])C([H])([H])C([H])([H])C2([H])N([H])C(=O)C1([H])N(C(=O)C([H])(N([H])C(=O)C([H])(N([H])C([H])([H])[H])C([H])([H])[H])C(C([H])([H])[H])(C([H])([H])[H])C([H])([H])[H])C([H])([H])c2c([H])c(OC([H])([H])C([H])([H])C([H])([H])C([H])([H])n3nc(C(C(=O)N4C([H])([H])C([H])([H])C([H])([H])C([H])(n5nc(-c6c([H])c([H])c(Oc7c([H])c([H])c(F)c([H])c7F)c([H])c6[H])c(C(=O)N([H])[H])c5N([H])[H])C4([H])[H])(C([H])([H])[H])C([H])([H])[N+]([H])([H])[H])nc3[H])c([H])c([H])c2C1([H])[H]

$$$$
63:0:0
     RDKit          3D

 91 99  0  0  1  0  0  0  0  0999 V2000
  -29.4880  -22.1120   18.1520 C   0  0  0  0  0  1  0  0  0  0  0  0
  -28.8460  -21.7590   19.5130 C   0  0  2  0  0  0  0  0  0  0  0  0
  -30.9200  -19.9920   20.2360 C   0  0  0  0  0  3  0  0  0  0  0  0
  -29.0930  -18.9410   19.9810 C   0  0  0  0  0  3  0  0  0  0  0  0
  -29.5480  -20.2940   19.9380 C   0  0  0  0  0  0  0  0  0  0  0  0
  -31.2220  -18.6810   20.4250 N   0  0  0  0  0  0  0  0  0  0  0  0
  -30.0970  -17.9290   20.2580 N   0  0  0  0  0  0  0  0  0  0  0  0
  -28.7160  -16.2330   21.5030 C   0  0  0  0  0  1  0  0  0  0  0  0
  -30.0340  -16.3990   20.7340 C   0  0  0  0  0  3  0  0  0  0  0  0
  -30.6300  -14.9810   20.0230 C   0  0  0  0  0  0  0  0  0  0  0  0
  -30.4330  -12.6750   18.9280 C   0  0  0  0  0  2  0  0  0  0  0  0
  -29.4010  -12.6780   17.7710 C   0  0  0  0  0  2  0  0  0  0  0  0
  -27.9660  -12.4590   18.2910 C   0  0  0  0  0  2  0  0  0  0  0  0
  -27.6630  -13.3160   19.5430 C   0  0  0  0  0  3  0  0  0  0  0  0
  -28.8020  -13.1930   20.5760 C   0  0  0  0  0  2  0  0  0  0  0  0
  -30.0300  -13.7070   19.9370 N   0  0  0  0  0  0  0  0  0  0  0  0
  -31.7580  -15.0410   19.5110 O   0  0  0  0  0  0  0  0  0  0  0  0
  -25.3300  -13.8950   20.4360 C   0  0  0  0  0  0  0  0  0  0  0  0
  -24.2900  -13.1220   20.8670 C   0  0  0  0  0  0  0  0  0  0  0  0
  -24.7390  -11.7690   20.7670 C   0  0  0  0  0  0  0  0  0  0  0  0
  -26.3540  -13.0170   20.1150 N   0  0  0  0  0  0  0  0  0  0  0  0
  -26.0060  -11.7300   20.3720 N   0  0  0  0  0  0  0  0  0  0  0  0
  -24.0090  -10.5110   20.9660 C   0  0  0  0  0  0  0  0  0  0  0  0
  -24.4670   -9.5300   21.8710 C   0  0  0  0  0  3  0  0  0  0  0  0
  -23.7390   -8.3340   22.0580 C   0  0  0  0  0  3  0  0  0  0  0  0
  -22.5380   -8.1140   21.3400 C   0  0  0  0  0  0  0  0  0  0  0  0
  -22.1020   -9.0850   20.4200 C   0  0  0  0  0  3  0  0  0  0  0  0
  -22.8300  -10.2730   20.2320 C   0  0  0  0  0  3  0  0  0  0  0  0
  -21.7760   -6.9750   21.4420 O   0  0  0  0  0  0  0  0  0  0  0  0
  -21.7270   -6.2440   22.6020 C   0  0  0  0  0  0  0  0  0  0  0  0
  -21.3020   -6.8120   23.8230 C   0  0  0  0  0  3  0  0  0  0  0  0
  -21.2020   -6.0060   24.9760 C   0  0  0  0  0  3  0  0  0  0  0  0
  -21.5140   -4.6350   24.9050 C   0  0  0  0  0  0  0  0  0  0  0  0
  -21.9310   -4.0670   23.6890 C   0  0  0  0  0  3  0  0  0  0  0  0
  -22.0350   -4.8700   22.5390 C   0  0  0  0  0  0  0  0  0  0  0  0
  -22.4180   -4.3140   21.3640 F   0  0  0  0  0  0  0  0  0  0  0  0
  -21.4100   -3.8600   26.0090 F   0  0  0  0  0  0  0  0  0  0  0  0
  -22.9190  -13.6040   21.2460 C   0  0  0  0  0  0  0  0  0  0  0  0
  -22.2440  -12.8930   22.1420 N   0  0  0  0  0  0  0  0  0  0  0  0
  -22.4580  -14.6480   20.7860 O   0  0  0  0  0  0  0  0  0  0  0  0
  -22.6290  -12.0470   22.5360 H   0  0  0  0  0  0  0  0  0  0  0  0
  -21.3250  -13.1960   22.4370 H   0  0  0  0  0  0  0  0  0  0  0  0
  -25.4680  -15.2670   20.2570 N   0  0  0  0  0  0  0  0  0  0  0  0
  -24.6900  -15.9010   20.3950 H   0  0  0  0  0  0  0  0  0  0  0  0
  -26.2530  -15.6970   19.7900 H   0  0  0  0  0  0  0  0  0  0  0  0
  -26.8930  -20.7410   18.0520 C   0  0  0  0  0  1  0  0  0  0  0  0
  -27.3230  -21.4850   19.3310 C   0  0  0  0  0  2  0  0  0  0  0  0
  -28.7340  -22.9700   21.8430 C   0  0  0  0  0  1  0  0  0  0  0  0
  -28.9510  -23.2390   20.3490 C   0  0  0  0  0  3  0  0  0  0  0  0
  -28.0580  -24.6220   19.9260 C   0  0  0  0  0  2  0  0  0  0  0  0
  -28.2800  -26.1240   20.2800 O   0  0  0  0  0  0  0  0  0  0  0  0
  -24.6300  -31.8210   23.1930 C   0  0  0  0  0  0  0  0  0  0  0  0
  -27.2220  -27.1020   20.1850 C   0  0  0  0  0  0  0  0  0  0  0  0
  -23.4380  -30.4210   21.5530 C   0  0  0  0  0  3  0  0  0  0  0  0
  -24.8930  -28.8420   20.1370 C   0  0  0  0  0  0  0  0  0  0  0  0
  -25.9910  -30.6820   21.4060 C   0  0  0  0  0  2  0  0  0  0  0  0
  -26.0680  -29.2890   20.7570 C   0  0  0  0  0  0  0  0  0  0  0  0
  -27.2310  -28.4330   20.7680 C   0  0  0  0  0  3  0  0  0  0  0  0
  -26.0270  -26.7630   19.5100 C   0  0  0  0  0  3  0  0  0  0  0  0
  -24.8860  -27.5950   19.4990 C   0  0  0  0  0  3  0  0  0  0  0  0
  -23.6640  -29.7370   20.1780 C   0  0  0  0  0  2  0  0  0  0  0  0
  -24.7050  -30.9970   22.1040 N   0  0  0  0  0  0  0  0  0  0  0  0
  -23.5410  -32.1100   23.7140 O   0  0  0  0  0  0  0  0  0  0  0  0
  -22.7520  -29.4180   22.5130 C   0  0  0  0  0  0  0  0  0  0  0  0
  -21.4240  -29.2530   22.3810 N   0  0  0  0  0  0  0  0  0  0  0  0
  -23.4160  -28.7880   23.3390 O   0  0  0  0  0  0  0  0  0  0  0  0
  -20.9420  -29.8050   21.6830 H   0  0  0  0  0  0  0  0  0  0  0  0
  -18.0340  -28.0760   22.8760 C   0  0  0  0  0  0  0  0  0  0  0  0
  -20.5940  -28.3230   23.1520 C   0  0  0  0  0  3  0  0  0  0  0  0
  -20.6880  -26.8900   22.5800 C   0  0  0  0  0  2  0  0  0  0  0  0
  -19.5890  -26.5720   21.5610 C   0  0  0  0  0  2  0  0  0  0  0  0
  -18.2060  -26.7260   22.2000 C   0  0  0  0  0  2  0  0  0  0  0  0
  -19.1550  -28.8320   23.3060 C   0  0  0  0  0  0  0  0  0  0  0  0
  -18.9410  -30.0970   23.8970 C   0  0  0  0  0  3  0  0  0  0  0  0
  -17.6380  -30.6050   24.0600 C   0  0  0  0  0  3  0  0  0  0  0  0
  -16.5310  -29.8450   23.6460 C   0  0  0  0  0  3  0  0  0  0  0  0
  -16.7300  -28.5810   23.0600 C   0  0  0  0  0  3  0  0  0  0  0  0
  -25.9050  -32.4560   23.8250 C   0  0  0  0  0  3  0  0  0  0  0  0
  -25.5920  -33.8550   24.1590 N   0  0  0  0  0  0  0  0  0  0  0  0
  -25.9080  -34.9120   23.4000 C   0  0  0  0  0  0  0  0  0  0  0  0
  -26.5620  -34.8140   22.3580 O   0  0  0  0  0  0  0  0  0  0  0  0
  -25.0090  -34.0050   24.9710 H   0  0  0  0  0  0  0  0  0  0  0  0
  -24.1610  -36.6950   23.0880 C   0  0  0  0  0  1  0  0  0  0  0  0
  -25.4230  -36.2970   23.8700 C   0  0  0  0  0  3  0  0  0  0  0  0
  -27.5680  -37.2000   24.6530 C   0  0  0  0  0  1  0  0  0  0  0  0
  -26.4460  -37.3570   23.7320 N   0  0  0  0  0  0  0  0  0  0  0  0
  -26.0360  -38.2740   23.8880 H   0  0  0  0  0  0  0  0  0  0  0  0
  -26.4150  -31.6840   25.1040 C   0  0  1  0  0  0  0  0  0  0  0  0
  -25.3140  -31.4440   26.1640 C   0  0  0  0  0  1  0  0  0  0  0  0
  -27.0030  -30.3070   24.7190 C   0  0  0  0  0  1  0  0  0  0  0  0
  -27.5660  -32.4770   25.7690 C   0  0  0  0  0  1  0  0  0  0  0  0
  2  1  1  6
  2  5  1  0
  2 49  1  0
  3  6  2  0
  4  7  1  0
  5  4  2  0
  5  3  1  0
  7  6  1  0
  7  9  1  0
  9  8  1  0
 10  9  1  0
 11 16  1  0
 12 13  1  0
 12 11  1  0
 14 13  1  0
 14 21  1  0
 14 15  1  0
 16 10  1  0
 16 15  1  0
 17 10  2  0
 18 19  2  0
 19 38  1  0
 20 19  1  0
 20 23  1  0
 21 22  1  0
 21 18  1  0
 22 20  2  0
 23 24  1  0
 24 25  2  0
 26 29  1  0
 26 25  1  0
 27 26  2  0
 28 27  1  0
 28 23  2  0
 29 30  1  0
 30 31  1  0
 31 32  2  0
 33 32  1  0
 33 37  1  0
 34 33  2  0
 35 30  2  0
 35 34  1  0
 36 35  1  0
 38 39  1  0
 39 42  1  0
 39 41  1  0
 40 38  2  0
 43 44  1  0
 43 18  1  0
 45 43  1  0
 46 47  1  0
 47  2  1  0
 49 48  1  0
 50 51  1  0
 50 49  1  0
 52 63  2  0
 53 51  1  0
 53 58  1  0
 54 62  1  0
 54 64  1  0
 55 61  1  0
 55 57  1  0
 56 62  1  0
 57 58  2  0
 57 56  1  0
 59 53  2  0
 60 59  1  0
 60 55  2  0
 61 54  1  0
 62 52  1  0
 64 66  2  0
 65 64  1  0
 67 65  1  0
 68 77  2  0
 68 73  1  0
 69 65  1  0
 69 73  1  0
 70 69  1  0
 71 72  1  0
 71 70  1  0
 72 68  1  0
 73 74  2  0
 74 75  1  0
 76 75  2  0
 77 76  1  0
 78 52  1  0
 78 79  1  0
 78 88  1  0
 79 82  1  0
 80 84  1  0
 80 79  1  0
 81 80  2  0
 84 83  1  0
 86 84  1  0
 86 87  1  0
 86 85  1  0
 88 91  1  1
 88 89  1  0
 90 88  1  0
M  ISO  4   9 100  10 100  50 101  51 101
M  END
>  <TORSDO>  (58) 
F 21

>  <SCORE>  (58) 
-14.255

>  <name>  (58) 
63

>  <ligand_id>  (58) 
63

>  <original_smiles>  (58) 
[H]c1nn(C([H])(C(=O)N2C([H])([H])C([H])([H])C([H])([H])C([H])(n3nc(-c4c([H])c([H])c(Oc5c([H])c([H])c(F)c([H])c5F)c([H])c4[H])c(C(=O)N([H])[H])c3N([H])[H])C2([H])[H])C([H])([H])[H])c([H])c1C(C([H])([H])[H])(C([H])([H])C([H])([H])[H])C([H])(C([H])([H])[H])C([H])([H])Oc1c([H])c([H])c2c(c1[H])C([H])([H])N(C(=O)C([H])(N([H])C(=O)C([H])(N([H])C([H])([H])[H])C([H])([H])[H])C(C([H])([H])[H])(C([H])([H])[H])C([H])([H])[H])C([H])(C(=O)N([H])C1([H])c3c([H])c([H])c([H])c([H])c3C([H])([H])C([H])([H])C1([H])[H])C2([H])[H]

>  <smiles>  (58) 
[H]c1nn(C([H])(C(=O)N2C([H])([H])C([H])([H])C([H])([H])C([H])(n3nc(-c4c([H])c([H])c(Oc5c([H])c([H])c(F)c([H])c5F)c([H])c4[H])c(C(=O)N([H])[H])c3N([H])[H])C2([H])[H])C([H])([H])[H])c([H])c1C(C([H])([H])[H])(C([H])([H])C([H])([H])[H])C([H])(C([H])([H])[H])C([H])([H])Oc1c([H])c([H])c2c(c1[H])C([H])([H])N(C(=O)C([H])(N([H])C(=O)C([H])(N([H])C([H])([H])[H])C([H])([H])[H])C(C([H])([H])[H])(C([H])([H])[H])C([H])([H])[H])C([H])(C(=O)N([H])C1([H])c3c([H])c([H])c([H])c([H])c3C([H])([H])C([H])([H])C1([H])[H])C2([H])[H]

$$$$
64:0:0
     RDKit          3D

 89 97  0  0  1  0  0  0  0  0999 V2000
  -28.7070  -21.9560   21.6850 C   0  0  0  0  0  2  0  0  0  0  0  0
  -29.3660  -20.2920   20.5630 C   0  0  0  0  0  0  0  0  0  0  0  0
  -28.7870  -20.6140   21.7650 N   0  0  0  0  0  0  0  0  0  0  0  0
  -29.6160  -21.3980   19.8080 N   0  0  0  0  0  2  0  0  0  0  0  0
  -29.1430  -22.4960   20.5390 N   0  0  0  0  0  0  0  0  0  0  0  0
  -29.7270  -24.0780   18.6510 C   0  0  0  0  0  1  0  0  0  0  0  0
  -29.3240  -23.9700   20.1330 C   0  0  0  0  0  3  0  0  0  0  0  0
  -28.1450  -25.0370   20.4330 C   0  0  0  0  0  2  0  0  0  0  0  0
  -28.3550  -26.5170   20.2170 O   0  0  0  0  0  0  0  0  0  0  0  0
  -24.5970  -31.9570   23.2390 C   0  0  0  0  0  0  0  0  0  0  0  0
  -27.2390  -27.3880   20.1830 C   0  0  0  0  0  0  0  0  0  0  0  0
  -23.4070  -30.5600   21.5890 C   0  0  0  0  0  3  0  0  0  0  0  0
  -24.8720  -29.0200   20.1630 C   0  0  0  0  0  0  0  0  0  0  0  0
  -25.9490  -30.8830   21.4190 C   0  0  0  0  0  2  0  0  0  0  0  0
  -26.0400  -29.5040   20.7670 C   0  0  0  0  0  0  0  0  0  0  0  0
  -27.2260  -28.7010   20.7640 C   0  0  0  0  0  3  0  0  0  0  0  0
  -26.0490  -26.9770   19.5420 C   0  0  0  0  0  3  0  0  0  0  0  0
  -24.8820  -27.7640   19.5370 C   0  0  0  0  0  3  0  0  0  0  0  0
  -23.6320  -29.8920   20.2070 C   0  0  0  0  0  2  0  0  0  0  0  0
  -24.6700  -31.1520   22.1390 N   0  0  0  0  0  0  0  0  0  0  0  0
  -23.5090  -32.2270   23.7700 O   0  0  0  0  0  0  0  0  0  0  0  0
  -22.7450  -29.5370   22.5430 C   0  0  0  0  0  0  0  0  0  0  0  0
  -21.4190  -29.3510   22.4080 N   0  0  0  0  0  0  0  0  0  0  0  0
  -23.4220  -28.9130   23.3640 O   0  0  0  0  0  0  0  0  0  0  0  0
  -20.9320  -29.9080   21.7200 H   0  0  0  0  0  0  0  0  0  0  0  0
  -18.0440  -28.1450   22.9020 C   0  0  0  0  0  0  0  0  0  0  0  0
  -20.6030  -28.4060   23.1710 C   0  0  0  0  0  3  0  0  0  0  0  0
  -20.7060  -26.9790   22.5820 C   0  0  0  0  0  2  0  0  0  0  0  0
  -19.6020  -26.6650   21.5670 C   0  0  0  0  0  2  0  0  0  0  0  0
  -18.2210  -26.8020   22.2140 C   0  0  0  0  0  2  0  0  0  0  0  0
  -19.1610  -28.9040   23.3370 C   0  0  0  0  0  0  0  0  0  0  0  0
  -18.9420  -30.1610   23.9420 C   0  0  0  0  0  3  0  0  0  0  0  0
  -17.6360  -30.6580   24.1150 C   0  0  0  0  0  3  0  0  0  0  0  0
  -16.5330  -29.8950   23.6960 C   0  0  0  0  0  3  0  0  0  0  0  0
  -16.7370  -28.6410   23.0950 C   0  0  0  0  0  3  0  0  0  0  0  0
  -25.8720  -32.5950   23.8700 C   0  0  0  0  0  3  0  0  0  0  0  0
  -26.3730  -31.8360   25.1600 C   0  0  1  0  0  0  0  0  0  0  0  0
  -25.2670  -31.6090   26.2170 C   0  0  0  0  0  1  0  0  0  0  0  0
  -26.9610  -30.4540   24.7900 C   0  0  0  0  0  1  0  0  0  0  0  0
  -27.5150  -32.6350   25.8290 C   0  0  0  0  0  1  0  0  0  0  0  0
  -25.5600  -33.9960   24.1850 N   0  0  0  0  0  0  0  0  0  0  0  0
  -25.9050  -35.0440   23.4260 C   0  0  0  0  0  0  0  0  0  0  0  0
  -26.5900  -34.9330   22.4050 O   0  0  0  0  0  0  0  0  0  0  0  0
  -24.9520  -34.1560   24.9750 H   0  0  0  0  0  0  0  0  0  0  0  0
  -24.1960  -36.8470   23.0300 C   0  0  0  0  0  1  0  0  0  0  0  0
  -25.4160  -36.4370   23.8680 C   0  0  0  0  0  3  0  0  0  0  0  0
  -27.5340  -37.3160   24.7470 C   0  0  0  0  0  1  0  0  0  0  0  0
  -26.4560  -37.4840   23.7750 N   0  0  0  0  0  0  0  0  0  0  0  0
  -26.0510  -38.4070   23.9080 H   0  0  0  0  0  0  0  0  0  0  0  0
  -29.4170  -18.8180   20.0030 C   0  0  0  0  0  3  0  0  0  0  0  0
  -30.1610  -17.5310   20.6990 C   0  0  0  0  0  3  0  0  0  0  0  0
  -30.7050  -14.9490   20.3070 C   0  0  0  0  0  0  0  0  0  0  0  0
  -30.5540  -12.6200   19.3900 C   0  0  0  0  0  2  0  0  0  0  0  0
  -29.6260  -12.5630   18.1550 C   0  0  0  0  0  2  0  0  0  0  0  0
  -28.1440  -12.4390   18.5720 C   0  0  0  0  0  2  0  0  0  0  0  0
  -27.7380  -13.3610   19.7550 C   0  0  0  0  0  3  0  0  0  0  0  0
  -28.7940  -13.3620   20.8780 C   0  0  0  0  0  2  0  0  0  0  0  0
  -30.0810  -13.7170   20.2640 N   0  0  0  0  0  0  0  0  0  0  0  0
  -31.9330  -15.0100   20.2120 O   0  0  0  0  0  0  0  0  0  0  0  0
  -29.3350  -16.2330   18.7850 C   0  0  0  0  0  1  0  0  0  0  0  0
  -29.9310  -16.1090   20.1250 N   0  0  0  0  0  0  0  0  0  0  0  0
  -25.3460  -13.9500   20.4600 C   0  0  0  0  0  0  0  0  0  0  0  0
  -24.2790  -13.1740   20.8180 C   0  0  0  0  0  0  0  0  0  0  0  0
  -24.7530  -11.8260   20.8110 C   0  0  0  0  0  0  0  0  0  0  0  0
  -26.3970  -13.0730   20.2470 N   0  0  0  0  0  0  0  0  0  0  0  0
  -26.0480  -11.7910   20.5260 N   0  0  0  0  0  0  0  0  0  0  0  0
  -24.0350  -10.5600   21.0010 C   0  0  0  0  0  0  0  0  0  0  0  0
  -24.4620   -9.6070   21.9500 C   0  0  0  0  0  3  0  0  0  0  0  0
  -23.7450   -8.4040   22.1280 C   0  0  0  0  0  3  0  0  0  0  0  0
  -22.5870   -8.1490   21.3550 C   0  0  0  0  0  0  0  0  0  0  0  0
  -22.1810   -9.0900   20.3940 C   0  0  0  0  0  3  0  0  0  0  0  0
  -22.8990  -10.2840   20.2140 C   0  0  0  0  0  3  0  0  0  0  0  0
  -21.8420   -6.9970   21.4420 O   0  0  0  0  0  0  0  0  0  0  0  0
  -21.7750   -6.2690   22.6020 C   0  0  0  0  0  0  0  0  0  0  0  0
  -21.2990   -6.8300   23.8070 C   0  0  0  0  0  3  0  0  0  0  0  0
  -21.1820   -6.0280   24.9600 C   0  0  0  0  0  3  0  0  0  0  0  0
  -21.5310   -4.6650   24.9070 C   0  0  0  0  0  0  0  0  0  0  0  0
  -22.0000   -4.1030   23.7060 C   0  0  0  0  0  3  0  0  0  0  0  0
  -22.1190   -4.9030   22.5560 C   0  0  0  0  0  0  0  0  0  0  0  0
  -22.5520   -4.3530   21.3960 F   0  0  0  0  0  0  0  0  0  0  0  0
  -21.4110   -3.8910   26.0110 F   0  0  0  0  0  0  0  0  0  0  0  0
  -22.8740  -13.6430   21.0600 C   0  0  0  0  0  0  0  0  0  0  0  0
  -22.1350  -12.9480   21.9170 N   0  0  0  0  0  0  0  0  0  0  0  0
  -22.4390  -14.6620   20.5240 O   0  0  0  0  0  0  0  0  0  0  0  0
  -22.5000  -12.1240   22.3730 H   0  0  0  0  0  0  0  0  0  0  0  0
  -21.1920  -13.2450   22.1220 H   0  0  0  0  0  0  0  0  0  0  0  0
  -25.5040  -15.3210   20.2720 N   0  0  0  0  0  0  0  0  0  0  0  0
  -24.7370  -15.9760   20.3780 H   0  0  0  0  0  0  0  0  0  0  0  0
  -26.3690  -15.7640   19.9910 H   0  0  0  0  0  0  0  0  0  0  0  0
  1  3  1  0
  2  3  2  0
  4  5  1  0
  4  2  1  0
  5  1  1  0
  7  6  1  0
  7  8  1  0
  7  5  1  0
  9  8  1  0
 10 21  2  0
 11  9  1  0
 11 16  1  0
 12 20  1  0
 12 22  1  0
 13 19  1  0
 13 15  1  0
 14 20  1  0
 15 14  1  0
 16 15  2  0
 17 11  2  0
 18 17  1  0
 18 13  2  0
 19 12  1  0
 20 10  1  0
 22 24  2  0
 23 22  1  0
 25 23  1  0
 26 35  2  0
 26 31  1  0
 27 23  1  0
 27 31  1  0
 28 27  1  0
 29 30  1  0
 29 28  1  0
 30 26  1  0
 31 32  2  0
 32 33  1  0
 34 33  2  0
 35 34  1  0
 36 10  1  0
 36 41  1  0
 36 37  1  0
 37 40  1  1
 37 38  1  0
 39 37  1  0
 41 44  1  0
 42 46  1  0
 42 41  1  0
 43 42  2  0
 46 45  1  0
 48 46  1  0
 48 49  1  0
 48 47  1  0
 50  2  1  0
 50 51  2  0
 53 58  1  0
 54 55  1  0
 54 53  1  0
 56 55  1  0
 56 65  1  0
 56 57  1  0
 58 52  1  0
 58 57  1  0
 59 52  2  0
 60 61  1  0
 61 52  1  0
 61 51  1  0
 62 63  2  0
 63 82  1  0
 64 63  1  0
 64 67  1  0
 65 62  1  0
 65 66  1  0
 66 64  2  0
 67 68  1  0
 68 69  2  0
 70 73  1  0
 70 69  1  0
 71 70  2  0
 72 71  1  0
 72 67  2  0
 73 74  1  0
 74 75  1  0
 75 76  2  0
 77 76  1  0
 77 81  1  0
 78 77  2  0
 79 74  2  0
 79 78  1  0
 80 79  1  0
 82 83  1  0
 83 86  1  0
 83 85  1  0
 84 82  2  0
 87 88  1  0
 87 62  1  0
 89 87  1  0
M  ISO  4   8 101   9 101  52 100  61 100
M  END
>  <TORSDO>  (59) 
F 20

>  <SCORE>  (59) 
-13.293

>  <name>  (59) 
64

>  <ligand_id>  (59) 
64

>  <original_smiles>  (59) 
[H]c1c([H])c([H])c2c(c1[H])C([H])([H])C([H])([H])C([H])([H])C2([H])N([H])C(=O)C1([H])N(C(=O)C([H])(N([H])C(=O)C([H])(N([H])C([H])([H])[H])C([H])([H])[H])C(C([H])([H])[H])(C([H])([H])[H])C([H])([H])[H])C([H])([H])c2c([H])c(OC([H])([H])C([H])(n3nc(C([H])([H])C([H])([H])N(C(=O)N4C([H])([H])C([H])([H])C([H])([H])C([H])(n5nc(-c6c([H])c([H])c(Oc7c([H])c([H])c(F)c([H])c7F)c([H])c6[H])c(C(=O)N([H])[H])c5N([H])[H])C4([H])[H])C([H])([H])[H])nc3[H])C([H])([H])[H])c([H])c([H])c2C1([H])[H]

>  <smiles>  (59) 
[H]c1c([H])c([H])c2c(c1[H])C([H])([H])C([H])([H])C([H])([H])C2([H])N([H])C(=O)C1([H])N(C(=O)C([H])(N([H])C(=O)C([H])(N([H])C([H])([H])[H])C([H])([H])[H])C(C([H])([H])[H])(C([H])([H])[H])C([H])([H])[H])C([H])([H])c2c([H])c(OC([H])([H])C([H])(n3nc(C([H])([H])C([H])([H])N(C(=O)N4C([H])([H])C([H])([H])C([H])([H])C([H])(n5nc(-c6c([H])c([H])c(Oc7c([H])c([H])c(F)c([H])c7F)c([H])c6[H])c(C(=O)N([H])[H])c5N([H])[H])C4([H])[H])C([H])([H])[H])nc3[H])C([H])([H])[H])c([H])c([H])c2C1([H])[H]

$$$$
65:0:0
     RDKit          3D

 92100  0  0  1  0  0  0  0  0999 V2000
  -28.3320  -20.9220   21.0630 C   0  0  0  0  0  2  0  0  0  0  0  0
  -29.6560  -19.4550   20.1690 C   0  0  0  0  0  0  0  0  0  0  0  0
  -28.5890  -19.5760   21.0380 N   0  0  0  0  0  0  0  0  0  0  0  0
  -29.9300  -20.7350   19.6670 N   0  0  0  0  0  2  0  0  0  0  0  0
  -29.0700  -21.7200   20.2620 N   0  0  0  0  0  0  0  0  0  0  0  0
  -30.0190  -17.9370   18.1940 C   0  0  0  0  0  1  0  0  0  0  0  0
  -30.4010  -18.0100   19.6870 C   0  0  2  0  0  0  0  0  0  0  0  0
  -30.7720  -15.2250   20.0690 C   0  0  0  0  0  0  0  0  0  0  0  0
  -30.5840  -12.8580   19.1420 C   0  0  0  0  0  2  0  0  0  0  0  0
  -29.6360  -12.7980   17.9260 C   0  0  0  0  0  2  0  0  0  0  0  0
  -28.1920  -12.5560   18.3960 C   0  0  0  0  0  2  0  0  0  0  0  0
  -27.7990  -13.4680   19.5910 C   0  0  0  0  0  3  0  0  0  0  0  0
  -28.8890  -13.5280   20.6860 C   0  0  0  0  0  2  0  0  0  0  0  0
  -30.1280  -13.9750   20.0330 N   0  0  0  0  0  0  0  0  0  0  0  0
  -31.9690  -15.1720   19.7900 O   0  0  0  0  0  0  0  0  0  0  0  0
  -30.0810  -16.4950   20.1850 N   0  0  0  0  0  0  0  0  0  0  0  0
  -29.1230  -16.3990   20.4790 H   0  0  0  0  0  0  0  0  0  0  0  0
  -25.4470  -14.0160   20.4340 C   0  0  0  0  0  0  0  0  0  0  0  0
  -24.3980  -13.2280   20.8190 C   0  0  0  0  0  0  0  0  0  0  0  0
  -24.8630  -11.8800   20.7420 C   0  0  0  0  0  0  0  0  0  0  0  0
  -26.4820  -13.1490   20.1310 N   0  0  0  0  0  0  0  0  0  0  0  0
  -26.1440  -11.8570   20.3860 N   0  0  0  0  0  0  0  0  0  0  0  0
  -24.1400  -10.6120   20.9230 C   0  0  0  0  0  0  0  0  0  0  0  0
  -24.5420   -9.6670   21.8920 C   0  0  0  0  0  3  0  0  0  0  0  0
  -23.8180   -8.4680   22.0670 C   0  0  0  0  0  3  0  0  0  0  0  0
  -22.6780   -8.2050   21.2690 C   0  0  0  0  0  0  0  0  0  0  0  0
  -22.2950   -9.1380   20.2910 C   0  0  0  0  0  3  0  0  0  0  0  0
  -23.0200  -10.3290   20.1150 C   0  0  0  0  0  3  0  0  0  0  0  0
  -21.9340   -7.0510   21.3480 O   0  0  0  0  0  0  0  0  0  0  0  0
  -21.7750   -6.3750   22.5320 C   0  0  0  0  0  0  0  0  0  0  0  0
  -21.1610   -6.9720   23.6540 C   0  0  0  0  0  3  0  0  0  0  0  0
  -20.9560   -6.2200   24.8280 C   0  0  0  0  0  3  0  0  0  0  0  0
  -21.3520   -4.8710   24.8790 C   0  0  0  0  0  0  0  0  0  0  0  0
  -21.9560   -4.2700   23.7610 C   0  0  0  0  0  3  0  0  0  0  0  0
  -22.1660   -5.0210   22.5900 C   0  0  0  0  0  0  0  0  0  0  0  0
  -22.7270   -4.4350   21.5060 F   0  0  0  0  0  0  0  0  0  0  0  0
  -21.1480   -4.1440   26.0020 F   0  0  0  0  0  0  0  0  0  0  0  0
  -23.0060  -13.6980   21.1360 C   0  0  0  0  0  0  0  0  0  0  0  0
  -22.2970  -12.9830   22.0010 N   0  0  0  0  0  0  0  0  0  0  0  0
  -22.5590  -14.7380   20.6540 O   0  0  0  0  0  0  0  0  0  0  0  0
  -22.6630  -12.1400   22.4190 H   0  0  0  0  0  0  0  0  0  0  0  0
  -21.3650  -13.2840   22.2430 H   0  0  0  0  0  0  0  0  0  0  0  0
  -25.5950  -15.3930   20.2840 N   0  0  0  0  0  0  0  0  0  0  0  0
  -24.8250  -16.0300   20.4650 H   0  0  0  0  0  0  0  0  0  0  0  0
  -26.4150  -15.8610   19.9240 H   0  0  0  0  0  0  0  0  0  0  0  0
  -31.9620  -18.2270   19.7900 C   0  0  2  0  0  0  0  0  0  0  0  0
  -32.3950  -17.9130   21.0130 F   0  0  0  0  0  0  0  0  0  0  0  0
  -32.3430  -19.4800   19.5470 F   0  0  0  0  0  0  0  0  0  0  0  0
  -32.6310  -17.5030   18.8900 F   0  0  0  0  0  0  0  0  0  0  0  0
  -29.2470  -23.3310   20.1710 C   0  0  0  0  0  3  0  0  0  0  0  0
  -28.0900  -24.6100   20.0770 C   0  0  0  0  0  3  0  0  0  0  0  0
  -28.3200  -26.1870   20.1720 O   0  0  0  0  0  0  0  0  0  0  0  0
  -24.6430  -31.8910   23.2260 C   0  0  0  0  0  0  0  0  0  0  0  0
  -27.2630  -27.1930   20.1280 C   0  0  0  0  0  0  0  0  0  0  0  0
  -23.4590  -30.5110   21.5620 C   0  0  0  0  0  3  0  0  0  0  0  0
  -24.9250  -28.9620   20.1160 C   0  0  0  0  0  0  0  0  0  0  0  0
  -26.0150  -30.7860   21.4100 C   0  0  0  0  0  2  0  0  0  0  0  0
  -26.1050  -29.3990   20.7340 C   0  0  0  0  0  0  0  0  0  0  0  0
  -27.2720  -28.5330   20.7170 C   0  0  0  0  0  3  0  0  0  0  0  0
  -26.0510  -26.8740   19.4750 C   0  0  0  0  0  3  0  0  0  0  0  0
  -24.9160  -27.7170   19.4710 C   0  0  0  0  0  3  0  0  0  0  0  0
  -23.6890  -29.8510   20.1750 C   0  0  0  0  0  2  0  0  0  0  0  0
  -24.7260  -31.0860   22.1210 N   0  0  0  0  0  0  0  0  0  0  0  0
  -23.5520  -32.1600   23.7530 O   0  0  0  0  0  0  0  0  0  0  0  0
  -22.7850  -29.4880   22.5110 C   0  0  0  0  0  0  0  0  0  0  0  0
  -21.4610  -29.3030   22.3740 N   0  0  0  0  0  0  0  0  0  0  0  0
  -23.4590  -28.8590   23.3320 O   0  0  0  0  0  0  0  0  0  0  0  0
  -20.9740  -29.8570   21.6830 H   0  0  0  0  0  0  0  0  0  0  0  0
  -18.0840  -28.0780   22.8660 C   0  0  0  0  0  0  0  0  0  0  0  0
  -20.6440  -28.3470   23.1280 C   0  0  0  0  0  3  0  0  0  0  0  0
  -20.7490  -26.9290   22.5190 C   0  0  0  0  0  2  0  0  0  0  0  0
  -19.6440  -26.6250   21.5020 C   0  0  0  0  0  2  0  0  0  0  0  0
  -18.2640  -26.7480   22.1550 C   0  0  0  0  0  2  0  0  0  0  0  0
  -19.2010  -28.8370   23.3070 C   0  0  0  0  0  0  0  0  0  0  0  0
  -18.9770  -30.0830   23.9330 C   0  0  0  0  0  3  0  0  0  0  0  0
  -17.6700  -30.5690   24.1220 C   0  0  0  0  0  3  0  0  0  0  0  0
  -16.5670  -29.8080   23.6960 C   0  0  0  0  0  3  0  0  0  0  0  0
  -16.7760  -28.5640   23.0730 C   0  0  0  0  0  3  0  0  0  0  0  0
  -25.9130  -32.5290   23.8660 C   0  0  0  0  0  3  0  0  0  0  0  0
  -26.4120  -31.7560   25.1490 C   0  0  1  0  0  0  0  0  0  0  0  0
  -25.3040  -31.5060   26.1980 C   0  0  0  0  0  1  0  0  0  0  0  0
  -27.0100  -30.3820   24.7680 C   0  0  0  0  0  1  0  0  0  0  0  0
  -27.5480  -32.5550   25.8330 C   0  0  0  0  0  1  0  0  0  0  0  0
  -25.5930  -33.9270   24.2030 N   0  0  0  0  0  0  0  0  0  0  0  0
  -25.9250  -34.9890   23.4590 C   0  0  0  0  0  0  0  0  0  0  0  0
  -26.5960  -34.8970   22.4280 O   0  0  0  0  0  0  0  0  0  0  0  0
  -24.9900  -34.0720   25.0010 H   0  0  0  0  0  0  0  0  0  0  0  0
  -24.2020  -36.7940   23.1130 C   0  0  0  0  0  1  0  0  0  0  0  0
  -25.4350  -36.3740   23.9300 C   0  0  0  0  0  3  0  0  0  0  0  0
  -27.5540  -37.2600   24.8030 C   0  0  0  0  0  1  0  0  0  0  0  0
  -26.4670  -37.4280   23.8390 N   0  0  0  0  0  0  0  0  0  0  0  0
  -26.0600  -38.3470   23.9780 H   0  0  0  0  0  0  0  0  0  0  0  0
  2  3  2  0
  3  1  1  0
  4  2  1  0
  4  5  1  0
  5  1  1  0
  7  6  1  6
  7 46  1  0
  7  2  1  0
  7 16  1  0
  8 16  1  0
  9 14  1  0
 10 11  1  0
 10  9  1  0
 12 11  1  0
 12 21  1  0
 12 13  1  0
 14  8  1  0
 14 13  1  0
 15  8  2  0
 16 17  1  0
 18 19  2  0
 19 38  1  0
 20 19  1  0
 20 23  1  0
 21 22  1  0
 21 18  1  0
 22 20  2  0
 23 24  1  0
 24 25  2  0
 26 29  1  0
 26 25  1  0
 27 26  2  0
 28 27  1  0
 28 23  2  0
 29 30  1  0
 30 35  2  0
 30 31  1  0
 31 32  2  0
 32 33  1  0
 33 37  1  0
 34 33  2  0
 35 34  1  0
 36 35  1  0
 38 39  1  0
 39 42  1  0
 39 41  1  0
 40 38  2  0
 43 18  1  0
 43 44  1  0
 45 43  1  0
 46 47  1  1
 48 46  1  0
 49 46  1  0
 50  5  1  0
 51 50  2  0
 51 52  1  0
 53 64  2  0
 54 52  1  0
 54 59  1  0
 55 63  1  0
 55 65  1  0
 56 62  1  0
 56 58  1  0
 57 63  1  0
 58 57  1  0
 59 58  2  0
 60 54  2  0
 61 60  1  0
 61 56  2  0
 62 55  1  0
 63 53  1  0
 65 67  2  0
 66 65  1  0
 68 66  1  0
 69 78  2  0
 69 74  1  0
 70 66  1  0
 70 74  1  0
 71 70  1  0
 72 73  1  0
 72 71  1  0
 73 69  1  0
 74 75  2  0
 75 76  1  0
 77 76  2  0
 78 77  1  0
 79 53  1  0
 79 84  1  0
 79 80  1  0
 80 83  1  1
 80 81  1  0
 82 80  1  0
 84 87  1  0
 85 89  1  0
 85 84  1  0
 86 85  2  0
 89 88  1  0
 91 89  1  0
 91 92  1  0
 91 90  1  0
M  ISO  4   8 100  16 100  51 101  52 101
M  END
>  <TORSDO>  (60) 
F 20

>  <SCORE>  (60) 
-14.831

>  <name>  (60) 
65

>  <ligand_id>  (60) 
65

>  <original_smiles>  (60) 
[H]c1c([H])c([H])c2c(c1[H])C([H])([H])C([H])([H])C([H])([H])C2([H])N([H])C(=O)C1([H])N(C(=O)C([H])(N([H])C(=O)C([H])(N([H])C([H])([H])[H])C([H])([H])[H])C(C([H])([H])[H])(C([H])([H])[H])C([H])([H])[H])C([H])([H])c2c([H])c(OC([H])([H])C([H])([H])n3nc(C(N([H])C(=O)N4C([H])([H])C([H])([H])C([H])([H])C([H])(n5nc(-c6c([H])c([H])c(Oc7c([H])c([H])c(F)c([H])c7F)c([H])c6[H])c(C(=O)N([H])[H])c5N([H])[H])C4([H])[H])(C([H])([H])[H])C(F)(F)F)nc3[H])c([H])c([H])c2C1([H])[H]

>  <smiles>  (60) 
[H]c1c([H])c([H])c2c(c1[H])C([H])([H])C([H])([H])C([H])([H])C2([H])N([H])C(=O)C1([H])N(C(=O)C([H])(N([H])C(=O)C([H])(N([H])C([H])([H])[H])C([H])([H])[H])C(C([H])([H])[H])(C([H])([H])[H])C([H])([H])[H])C([H])([H])c2c([H])c(OC([H])([H])C([H])([H])n3nc(C(N([H])C(=O)N4C([H])([H])C([H])([H])C([H])([H])C([H])(n5nc(-c6c([H])c([H])c(Oc7c([H])c([H])c(F)c([H])c7F)c([H])c6[H])c(C(=O)N([H])[H])c5N([H])[H])C4([H])[H])(C([H])([H])[H])C(F)(F)F)nc3[H])c([H])c([H])c2C1([H])[H]

$$$$
66:0:0
     RDKit          3D

 93101  0  0  1  0  0  0  0  0999 V2000
  -29.7120  -20.5320   19.6690 C   0  0  0  0  0  0  0  0  0  0  0  0
  -30.0840  -18.4560   19.7350 C   0  0  0  0  0  3  0  0  0  0  0  0
  -30.6960  -19.6270   19.9720 N   0  0  0  0  0  0  0  0  0  0  0  0
  -28.5480  -19.9880   19.3370 N   0  0  0  0  0  2  0  0  0  0  0  0
  -28.7930  -18.6480   19.3850 N   0  0  0  0  0  0  0  0  0  0  0  0
  -27.5220  -17.8820   17.4110 C   0  0  0  0  0  1  0  0  0  0  0  0
  -26.4240  -17.9900   19.6780 C   0  0  0  0  0  1  0  0  0  0  0  0
  -27.7480  -17.7370   18.9270 C   0  0  0  0  0  3  0  0  0  0  0  0
  -31.0150  -16.6920   18.1680 C   0  0  0  0  0  1  0  0  0  0  0  0
  -30.8550  -17.1280   19.6440 C   0  0  0  0  0  3  0  0  0  0  0  0
  -31.0910  -14.8150   20.4990 C   0  0  0  0  0  0  0  0  0  0  0  0
  -30.7510  -12.6270   19.4050 C   0  0  0  0  0  2  0  0  0  0  0  0
  -29.8830  -12.7580   18.1290 C   0  0  0  0  0  2  0  0  0  0  0  0
  -28.3970  -13.0810   18.4200 C   0  0  0  0  0  2  0  0  0  0  0  0
  -28.0570  -12.9580   19.9060 C   0  0  0  0  0  3  0  0  0  0  0  0
  -29.0290  -13.4630   20.9620 C   0  0  0  0  0  2  0  0  0  0  0  0
  -30.3480  -13.6860   20.3540 N   0  0  0  0  0  0  0  0  0  0  0  0
  -32.2910  -14.8210   20.2160 O   0  0  0  0  0  0  0  0  0  0  0  0
  -29.9330  -16.4590   21.8570 C   0  0  0  0  0  1  0  0  0  0  0  0
  -30.4120  -16.0070   20.5430 N   0  0  0  0  0  0  0  0  0  0  0  0
  -25.6380  -13.9260   20.4340 C   0  0  0  0  0  0  0  0  0  0  0  0
  -24.5190  -13.2050   20.7770 C   0  0  0  0  0  0  0  0  0  0  0  0
  -24.9290  -11.8440   20.7810 C   0  0  0  0  0  0  0  0  0  0  0  0
  -26.6480  -12.9740   20.2660 N   0  0  0  0  0  0  0  0  0  0  0  0
  -26.1980  -11.7380   20.5050 N   0  0  0  0  0  0  0  0  0  0  0  0
  -24.2190  -10.5940   20.9690 C   0  0  0  0  0  0  0  0  0  0  0  0
  -24.6330   -9.6690   21.9520 C   0  0  0  0  0  3  0  0  0  0  0  0
  -23.9410   -8.4540   22.1120 C   0  0  0  0  0  3  0  0  0  0  0  0
  -22.8270   -8.1660   21.2880 C   0  0  0  0  0  0  0  0  0  0  0  0
  -22.4460   -9.0800   20.2890 C   0  0  0  0  0  3  0  0  0  0  0  0
  -23.1390  -10.2870   20.1250 C   0  0  0  0  0  3  0  0  0  0  0  0
  -22.1000   -7.0050   21.3590 O   0  0  0  0  0  0  0  0  0  0  0  0
  -21.9390   -6.3370   22.5450 C   0  0  0  0  0  0  0  0  0  0  0  0
  -21.3490   -6.9500   23.6720 C   0  0  0  0  0  3  0  0  0  0  0  0
  -21.1370   -6.2000   24.8450 C   0  0  0  0  0  3  0  0  0  0  0  0
  -21.5080   -4.8420   24.8910 C   0  0  0  0  0  0  0  0  0  0  0  0
  -22.0960   -4.2330   23.7680 C   0  0  0  0  0  3  0  0  0  0  0  0
  -22.3070   -4.9790   22.5960 C   0  0  0  0  0  0  0  0  0  0  0  0
  -22.8510   -4.3840   21.5060 F   0  0  0  0  0  0  0  0  0  0  0  0
  -21.3000   -4.1200   26.0160 F   0  0  0  0  0  0  0  0  0  0  0  0
  -23.1230  -13.7070   21.0160 C   0  0  0  0  0  0  0  0  0  0  0  0
  -22.3690  -13.0150   21.8650 N   0  0  0  0  0  0  0  0  0  0  0  0
  -22.7040  -14.7300   20.4810 O   0  0  0  0  0  0  0  0  0  0  0  0
  -22.7190  -12.1830   22.3170 H   0  0  0  0  0  0  0  0  0  0  0  0
  -21.4300  -13.3250   22.0720 H   0  0  0  0  0  0  0  0  0  0  0  0
  -25.8620  -15.2810   20.2600 N   0  0  0  0  0  0  0  0  0  0  0  0
  -25.1250  -15.9710   20.3390 H   0  0  0  0  0  0  0  0  0  0  0  0
  -26.7480  -15.6680   19.9700 H   0  0  0  0  0  0  0  0  0  0  0  0
  -29.9440  -22.0160   19.4800 C   0  0  0  0  0  2  0  0  0  0  0  0
  -29.0960  -22.9880   20.3470 C   0  0  0  0  0  2  0  0  0  0  0  0
  -29.1930  -24.4760   19.8870 C   0  0  0  0  0  2  0  0  0  0  0  0
  -28.4460  -25.4920   20.7900 C   0  0  0  0  0  2  0  0  0  0  0  0
  -28.5300  -26.8520   20.3110 O   0  0  0  0  0  0  0  0  0  0  0  0
  -24.5910  -31.9920   23.3230 C   0  0  0  0  0  0  0  0  0  0  0  0
  -27.3530  -27.5760   20.2970 C   0  0  0  0  0  0  0  0  0  0  0  0
  -23.4350  -30.5720   21.6610 C   0  0  0  0  0  3  0  0  0  0  0  0
  -24.9360  -29.0540   20.2610 C   0  0  0  0  0  0  0  0  0  0  0  0
  -25.9590  -30.9670   21.5050 C   0  0  0  0  0  2  0  0  0  0  0  0
  -26.0770  -29.5960   20.8680 C   0  0  0  0  0  0  0  0  0  0  0  0
  -27.2900  -28.8660   20.8770 C   0  0  0  0  0  3  0  0  0  0  0  0
  -26.1940  -27.0540   19.6790 C   0  0  0  0  0  3  0  0  0  0  0  0
  -24.9900  -27.7840   19.6620 C   0  0  0  0  0  3  0  0  0  0  0  0
  -23.6780  -29.8940   20.2860 C   0  0  0  0  0  2  0  0  0  0  0  0
  -24.6790  -31.1920   22.2230 N   0  0  0  0  0  0  0  0  0  0  0  0
  -23.4970  -32.2490   23.8440 O   0  0  0  0  0  0  0  0  0  0  0  0
  -22.7810  -29.5440   22.6110 C   0  0  0  0  0  0  0  0  0  0  0  0
  -21.4670  -29.3220   22.4390 N   0  0  0  0  0  0  0  0  0  0  0  0
  -23.4510  -28.9480   23.4580 O   0  0  0  0  0  0  0  0  0  0  0  0
  -20.9880  -29.8540   21.7270 H   0  0  0  0  0  0  0  0  0  0  0  0
  -18.1170  -28.0170   22.8140 C   0  0  0  0  0  0  0  0  0  0  0  0
  -20.6500  -28.3690   23.1910 C   0  0  0  0  0  3  0  0  0  0  0  0
  -20.8260  -26.9340   22.6440 C   0  0  0  0  0  2  0  0  0  0  0  0
  -19.7810  -26.5570   21.5890 C   0  0  0  0  0  2  0  0  0  0  0  0
  -18.3690  -26.6640   22.1710 C   0  0  0  0  0  2  0  0  0  0  0  0
  -19.1890  -28.8260   23.2790 C   0  0  0  0  0  0  0  0  0  0  0  0
  -18.9020  -30.0900   23.8360 C   0  0  0  0  0  3  0  0  0  0  0  0
  -17.5760  -30.5490   23.9360 C   0  0  0  0  0  3  0  0  0  0  0  0
  -16.5170  -29.7380   23.4890 C   0  0  0  0  0  3  0  0  0  0  0  0
  -16.7880  -28.4750   22.9350 C   0  0  0  0  0  3  0  0  0  0  0  0
  -25.8560  -32.6420   23.9640 C   0  0  0  0  0  3  0  0  0  0  0  0
  -25.5350  -34.0460   24.2540 N   0  0  0  0  0  0  0  0  0  0  0  0
  -25.8960  -35.0830   23.4860 C   0  0  0  0  0  0  0  0  0  0  0  0
  -26.6040  -34.9580   22.4830 O   0  0  0  0  0  0  0  0  0  0  0  0
  -24.9120  -34.2180   25.0300 H   0  0  0  0  0  0  0  0  0  0  0  0
  -24.1880  -36.8670   23.0210 C   0  0  0  0  0  1  0  0  0  0  0  0
  -25.3920  -36.4800   23.8940 C   0  0  0  0  0  3  0  0  0  0  0  0
  -27.4880  -37.3800   24.8030 C   0  0  0  0  0  1  0  0  0  0  0  0
  -26.4300  -37.5300   23.8050 N   0  0  0  0  0  0  0  0  0  0  0  0
  -26.0190  -38.4530   23.9160 H   0  0  0  0  0  0  0  0  0  0  0  0
  -26.3420  -31.9000   25.2690 C   0  0  1  0  0  0  0  0  0  0  0  0
  -25.2190  -31.6740   26.3080 C   0  0  0  0  0  1  0  0  0  0  0  0
  -26.9450  -30.5210   24.9170 C   0  0  0  0  0  1  0  0  0  0  0  0
  -27.4680  -32.7160   25.9480 C   0  0  0  0  0  1  0  0  0  0  0  0
  1  3  2  0
  2 10  1  0
  2  3  1  0
  4  5  1  0
  4  1  1  0
  5  2  1  0
  6  8  1  0
  8  5  1  0
  8  7  1  0
 10  9  1  0
 10 20  1  0
 11 20  1  0
 12 17  1  0
 13 14  1  0
 13 12  1  0
 15 14  1  0
 15 24  1  0
 15 16  1  0
 17 11  1  0
 17 16  1  0
 18 11  2  0
 20 19  1  0
 21 22  2  0
 22 23  1  0
 22 41  1  0
 23 26  1  0
 24 21  1  0
 24 25  1  0
 25 23  2  0
 26 27  1  0
 27 28  2  0
 29 32  1  0
 29 28  1  0
 30 29  2  0
 31 30  1  0
 31 26  2  0
 32 33  1  0
 33 38  2  0
 33 34  1  0
 34 35  2  0
 35 36  1  0
 36 40  1  0
 37 36  2  0
 38 37  1  0
 39 38  1  0
 41 42  1  0
 42 45  1  0
 42 44  1  0
 43 41  2  0
 46 47  1  0
 46 21  1  0
 48 46  1  0
 49  1  1  0
 49 50  1  0
 51 50  1  0
 51 52  1  0
 53 52  1  0
 54 65  2  0
 55 53  1  0
 55 60  1  0
 56 64  1  0
 56 66  1  0
 57 63  1  0
 57 59  1  0
 58 64  1  0
 59 60  2  0
 59 58  1  0
 61 55  2  0
 62 61  1  0
 62 57  2  0
 63 56  1  0
 64 54  1  0
 66 68  2  0
 67 66  1  0
 69 67  1  0
 70 79  2  0
 70 75  1  0
 71 67  1  0
 71 75  1  0
 72 71  1  0
 73 74  1  0
 73 72  1  0
 74 70  1  0
 75 76  2  0
 76 77  1  0
 78 77  2  0
 79 78  1  0
 80 54  1  0
 80 81  1  0
 80 90  1  0
 81 84  1  0
 82 86  1  0
 82 81  1  0
 83 82  2  0
 86 85  1  0
 88 86  1  0
 88 89  1  0
 88 87  1  0
 90 93  1  1
 90 91  1  0
 92 90  1  0
M  ISO  4  11 100  20 100  52 101  53 101
M  END
>  <TORSDO>  (61) 
F 22

>  <SCORE>  (61) 
-12.196

>  <name>  (61) 
66

>  <ligand_id>  (61) 
66

>  <original_smiles>  (61) 
[H]c1c([H])c([H])c2c(c1[H])C([H])([H])C([H])([H])C([H])([H])C2([H])N([H])C(=O)C1([H])N(C(=O)C([H])(N([H])C(=O)C([H])(N([H])C([H])([H])[H])C([H])([H])[H])C(C([H])([H])[H])(C([H])([H])[H])C([H])([H])[H])C([H])([H])c2c([H])c(OC([H])([H])C([H])([H])C([H])([H])C([H])([H])c3nc(C([H])(N(C(=O)N4C([H])([H])C([H])([H])C([H])([H])C([H])(n5nc(-c6c([H])c([H])c(Oc7c([H])c([H])c(F)c([H])c7F)c([H])c6[H])c(C(=O)N([H])[H])c5N([H])[H])C4([H])[H])C([H])([H])[H])C([H])([H])[H])n(C([H])(C([H])([H])[H])C([H])([H])[H])n3)c([H])c([H])c2C1([H])[H]

>  <smiles>  (61) 
[H]c1c([H])c([H])c2c(c1[H])C([H])([H])C([H])([H])C([H])([H])C2([H])N([H])C(=O)C1([H])N(C(=O)C([H])(N([H])C(=O)C([H])(N([H])C([H])([H])[H])C([H])([H])[H])C(C([H])([H])[H])(C([H])([H])[H])C([H])([H])[H])C([H])([H])c2c([H])c(OC([H])([H])C([H])([H])C([H])([H])C([H])([H])c3nc(C([H])(N(C(=O)N4C([H])([H])C([H])([H])C([H])([H])C([H])(n5nc(-c6c([H])c([H])c(Oc7c([H])c([H])c(F)c([H])c7F)c([H])c6[H])c(C(=O)N([H])[H])c5N([H])[H])C4([H])[H])C([H])([H])[H])C([H])([H])[H])n(C([H])(C([H])([H])[H])C([H])([H])[H])n3)c([H])c([H])c2C1([H])[H]

$$$$
67:0:0
     RDKit          3D

 92100  0  0  1  0  0  0  0  0999 V2000
  -29.7800  -21.6950   20.3370 C   0  0  0  0  0  0  0  0  0  0  0  0
  -30.4280  -20.7600   21.1150 C   0  0  0  0  0  0  0  0  0  0  0  0
  -31.2070  -21.0010   22.3720 C   0  0  0  0  0  1  0  0  0  0  0  0
  -29.2460  -21.0130   19.2450 N   0  0  0  0  0  0  0  0  0  0  0  0
  -29.5260  -19.7410   19.3320 N   0  0  0  0  0  0  0  0  0  0  0  0
  -30.2400  -19.5180   20.4720 N   0  0  0  0  0  0  0  0  0  0  0  0
  -30.4900  -17.8180   22.2850 C   0  0  0  0  0  1  0  0  0  0  0  0
  -32.2600  -18.0670   20.4880 C   0  0  0  0  0  1  0  0  0  0  0  0
  -30.7460  -18.1290   20.7940 C   0  0  2  0  0  0  0  0  0  0  0  0
  -30.0620  -16.9870   19.9380 C   0  0  0  0  0  2  0  0  0  0  0  0
  -30.8270  -14.5450   20.0350 C   0  0  0  0  0  0  0  0  0  0  0  0
  -30.4880  -12.3490   18.9630 C   0  0  0  0  0  2  0  0  0  0  0  0
  -29.4800  -12.5410   17.8100 C   0  0  0  0  0  2  0  0  0  0  0  0
  -28.0290  -12.4180   18.3180 C   0  0  0  0  0  2  0  0  0  0  0  0
  -27.7680  -13.2610   19.5980 C   0  0  0  0  0  3  0  0  0  0  0  0
  -28.8870  -13.0420   20.6440 C   0  0  0  0  0  2  0  0  0  0  0  0
  -30.1770  -13.3440   20.0010 N   0  0  0  0  0  0  0  0  0  0  0  0
  -31.9280  -14.7160   19.5080 O   0  0  0  0  0  0  0  0  0  0  0  0
  -30.0790  -15.5880   20.4630 N   0  0  0  0  0  0  0  0  0  0  0  0
  -29.2300  -15.3050   20.9280 H   0  0  0  0  0  0  0  0  0  0  0  0
  -25.4350  -13.8980   20.4820 C   0  0  0  0  0  0  0  0  0  0  0  0
  -24.3760  -13.1390   20.8940 C   0  0  0  0  0  0  0  0  0  0  0  0
  -24.7980  -11.7790   20.7910 C   0  0  0  0  0  0  0  0  0  0  0  0
  -26.4430  -13.0010   20.1570 N   0  0  0  0  0  0  0  0  0  0  0  0
  -26.0660  -11.7200   20.4000 N   0  0  0  0  0  0  0  0  0  0  0  0
  -24.0540  -10.5280   20.9890 C   0  0  0  0  0  0  0  0  0  0  0  0
  -24.4920   -9.5470   21.9050 C   0  0  0  0  0  3  0  0  0  0  0  0
  -23.7510   -8.3600   22.0890 C   0  0  0  0  0  3  0  0  0  0  0  0
  -22.5570   -8.1480   21.3580 C   0  0  0  0  0  0  0  0  0  0  0  0
  -22.1380   -9.1190   20.4320 C   0  0  0  0  0  3  0  0  0  0  0  0
  -22.8800  -10.2960   20.2450 C   0  0  0  0  0  3  0  0  0  0  0  0
  -21.7850   -7.0150   21.4540 O   0  0  0  0  0  0  0  0  0  0  0  0
  -21.7110   -6.2890   22.6150 C   0  0  0  0  0  0  0  0  0  0  0  0
  -21.2550   -6.8600   23.8250 C   0  0  0  0  0  3  0  0  0  0  0  0
  -21.1320   -6.0610   24.9780 C   0  0  0  0  0  3  0  0  0  0  0  0
  -21.4510   -4.6910   24.9240 C   0  0  0  0  0  0  0  0  0  0  0  0
  -21.8990   -4.1190   23.7190 C   0  0  0  0  0  3  0  0  0  0  0  0
  -22.0250   -4.9170   22.5690 C   0  0  0  0  0  0  0  0  0  0  0  0
  -22.4360   -4.3560   21.4060 F   0  0  0  0  0  0  0  0  0  0  0  0
  -21.3240   -3.9200   26.0290 F   0  0  0  0  0  0  0  0  0  0  0  0
  -23.0100  -13.6410   21.2720 C   0  0  0  0  0  0  0  0  0  0  0  0
  -22.3190  -12.9350   22.1610 N   0  0  0  0  0  0  0  0  0  0  0  0
  -22.5660  -14.6930   20.8120 O   0  0  0  0  0  0  0  0  0  0  0  0
  -22.6940  -12.0890   22.5630 H   0  0  0  0  0  0  0  0  0  0  0  0
  -21.4020  -13.2500   22.4460 H   0  0  0  0  0  0  0  0  0  0  0  0
  -25.6190  -15.2710   20.3350 N   0  0  0  0  0  0  0  0  0  0  0  0
  -24.8680  -15.9310   20.5100 H   0  0  0  0  0  0  0  0  0  0  0  0
  -26.4540  -15.7110   19.9650 H   0  0  0  0  0  0  0  0  0  0  0  0
  -29.7370  -23.2270   20.4780 C   0  0  0  0  0  2  0  0  0  0  0  0
  -28.3370  -23.9240   20.5160 C   0  0  0  0  0  2  0  0  0  0  0  0
  -28.2780  -25.3490   21.1750 C   0  0  0  0  0  2  0  0  0  0  0  0
  -28.3750  -26.5210   20.3220 O   0  0  0  0  0  0  0  0  0  0  0  0
  -24.5880  -31.8610   23.2380 C   0  0  0  0  0  0  0  0  0  0  0  0
  -27.2390  -27.3130   20.2860 C   0  0  0  0  0  0  0  0  0  0  0  0
  -23.3940  -30.4280   21.6120 C   0  0  0  0  0  3  0  0  0  0  0  0
  -24.8590  -28.8540   20.2300 C   0  0  0  0  0  0  0  0  0  0  0  0
  -25.9250  -30.7670   21.4360 C   0  0  0  0  0  2  0  0  0  0  0  0
  -26.0140  -29.3800   20.8230 C   0  0  0  0  0  0  0  0  0  0  0  0
  -27.2100  -28.6180   20.8440 C   0  0  0  0  0  3  0  0  0  0  0  0
  -26.0670  -26.8090   19.6870 C   0  0  0  0  0  3  0  0  0  0  0  0
  -24.8820  -27.5710   19.6570 C   0  0  0  0  0  3  0  0  0  0  0  0
  -23.6180  -29.7210   20.2490 C   0  0  0  0  0  2  0  0  0  0  0  0
  -24.6530  -31.0350   22.1540 N   0  0  0  0  0  0  0  0  0  0  0  0
  -23.5020  -32.1490   23.7600 O   0  0  0  0  0  0  0  0  0  0  0  0
  -22.7280  -29.4290   22.5880 C   0  0  0  0  0  0  0  0  0  0  0  0
  -21.4070  -29.2360   22.4390 N   0  0  0  0  0  0  0  0  0  0  0  0
  -23.3970  -28.8320   23.4360 O   0  0  0  0  0  0  0  0  0  0  0  0
  -20.9260  -29.7710   21.7280 H   0  0  0  0  0  0  0  0  0  0  0  0
  -18.0330  -28.0210   22.8910 C   0  0  0  0  0  0  0  0  0  0  0  0
  -20.5800  -28.3140   23.2180 C   0  0  0  0  0  3  0  0  0  0  0  0
  -20.7100  -26.8670   22.6890 C   0  0  0  0  0  2  0  0  0  0  0  0
  -19.6370  -26.5020   21.6570 C   0  0  0  0  0  2  0  0  0  0  0  0
  -18.2390  -26.6530   22.2620 C   0  0  0  0  0  2  0  0  0  0  0  0
  -19.1320  -28.8080   23.3250 C   0  0  0  0  0  0  0  0  0  0  0  0
  -18.8870  -30.0860   23.8710 C   0  0  0  0  0  3  0  0  0  0  0  0
  -17.5730  -30.5800   23.9870 C   0  0  0  0  0  3  0  0  0  0  0  0
  -16.4870  -29.7890   23.5710 C   0  0  0  0  0  3  0  0  0  0  0  0
  -16.7180  -28.5120   23.0300 C   0  0  0  0  0  3  0  0  0  0  0  0
  -25.8700  -32.5020   23.8540 C   0  0  0  0  0  3  0  0  0  0  0  0
  -25.5530  -33.8970   24.1880 N   0  0  0  0  0  0  0  0  0  0  0  0
  -25.8810  -34.9530   23.4310 C   0  0  0  0  0  0  0  0  0  0  0  0
  -26.5540  -34.8540   22.4010 O   0  0  0  0  0  0  0  0  0  0  0  0
  -24.9600  -34.0480   24.9900 H   0  0  0  0  0  0  0  0  0  0  0  0
  -24.1510  -36.7390   23.0640 C   0  0  0  0  0  1  0  0  0  0  0  0
  -25.3850  -36.3370   23.8890 C   0  0  0  0  0  3  0  0  0  0  0  0
  -27.5040  -37.2260   24.7540 C   0  0  0  0  0  1  0  0  0  0  0  0
  -26.4160  -37.3940   23.7940 N   0  0  0  0  0  0  0  0  0  0  0  0
  -26.0050  -38.3130   23.9410 H   0  0  0  0  0  0  0  0  0  0  0  0
  -26.3990  -31.7320   25.1270 C   0  0  1  0  0  0  0  0  0  0  0  0
  -25.3130  -31.4780   26.1980 C   0  0  0  0  0  1  0  0  0  0  0  0
  -26.9950  -30.3620   24.7300 C   0  0  0  0  0  1  0  0  0  0  0  0
  -27.5440  -32.5360   25.7890 C   0  0  0  0  0  1  0  0  0  0  0  0
  1 49  1  0
  1  2  2  0
  2  3  1  0
  4  5  2  0
  4  1  1  0
  5  6  1  0
  6  9  1  0
  6  2  1  0
  9  8  1  1
  9  7  1  0
 10 19  1  0
 10  9  1  0
 11 19  1  0
 12 17  1  0
 13 14  1  0
 13 12  1  0
 15 14  1  0
 15 24  1  0
 15 16  1  0
 17 11  1  0
 17 16  1  0
 18 11  2  0
 19 20  1  0
 21 22  2  0
 22 41  1  0
 23 22  1  0
 23 26  1  0
 24 25  1  0
 24 21  1  0
 25 23  2  0
 26 27  1  0
 27 28  2  0
 29 32  1  0
 29 28  1  0
 30 29  2  0
 31 30  1  0
 31 26  2  0
 32 33  1  0
 33 34  1  0
 34 35  2  0
 36 35  1  0
 36 40  1  0
 37 36  2  0
 38 33  2  0
 38 37  1  0
 39 38  1  0
 41 42  1  0
 42 45  1  0
 42 44  1  0
 43 41  2  0
 46 21  1  0
 46 47  1  0
 48 46  1  0
 49 50  1  0
 50 51  1  0
 52 51  1  0
 53 64  2  0
 54 52  1  0
 54 59  1  0
 55 63  1  0
 55 65  1  0
 56 62  1  0
 56 58  1  0
 57 63  1  0
 58 59  2  0
 58 57  1  0
 60 54  2  0
 61 60  1  0
 61 56  2  0
 62 55  1  0
 63 53  1  0
 65 67  2  0
 66 65  1  0
 68 66  1  0
 69 78  2  0
 69 74  1  0
 70 66  1  0
 70 74  1  0
 71 70  1  0
 72 73  1  0
 72 71  1  0
 73 69  1  0
 74 75  2  0
 75 76  1  0
 77 76  2  0
 78 77  1  0
 79 53  1  0
 79 80  1  0
 79 89  1  0
 80 83  1  0
 81 85  1  0
 81 80  1  0
 82 81  2  0
 85 84  1  0
 87 85  1  0
 87 88  1  0
 87 86  1  0
 89 92  1  1
 89 90  1  0
 91 89  1  0
M  ISO  4  11 100  19 100  51 101  52 101
M  END
>  <TORSDO>  (62) 
F 21

>  <SCORE>  (62) 
-13.466

>  <name>  (62) 
67

>  <ligand_id>  (62) 
67

>  <original_smiles>  (62) 
[H]c1c([H])c([H])c2c(c1[H])C([H])([H])C([H])([H])C([H])([H])C2([H])N([H])C(=O)C1([H])N(C(=O)C([H])(N([H])C(=O)C([H])(N([H])C([H])([H])[H])C([H])([H])[H])C(C([H])([H])[H])(C([H])([H])[H])C([H])([H])[H])C([H])([H])c2c([H])c(OC([H])([H])C([H])([H])C([H])([H])c3nnn(C(C([H])([H])[H])(C([H])([H])[H])C([H])([H])N([H])C(=O)N4C([H])([H])C([H])([H])C([H])([H])C([H])(n5nc(-c6c([H])c([H])c(Oc7c([H])c([H])c(F)c([H])c7F)c([H])c6[H])c(C(=O)N([H])[H])c5N([H])[H])C4([H])[H])c3C([H])([H])[H])c([H])c([H])c2C1([H])[H]

>  <smiles>  (62) 
[H]c1c([H])c([H])c2c(c1[H])C([H])([H])C([H])([H])C([H])([H])C2([H])N([H])C(=O)C1([H])N(C(=O)C([H])(N([H])C(=O)C([H])(N([H])C([H])([H])[H])C([H])([H])[H])C(C([H])([H])[H])(C([H])([H])[H])C([H])([H])[H])C([H])([H])c2c([H])c(OC([H])([H])C([H])([H])C([H])([H])c3nnn(C(C([H])([H])[H])(C([H])([H])[H])C([H])([H])N([H])C(=O)N4C([H])([H])C([H])([H])C([H])([H])C([H])(n5nc(-c6c([H])c([H])c(Oc7c([H])c([H])c(F)c([H])c7F)c([H])c6[H])c(C(=O)N([H])[H])c5N([H])[H])C4([H])[H])c3C([H])([H])[H])c([H])c([H])c2C1([H])[H]

$$$$
68:0:0
     RDKit          3D

 88 96  0  0  1  0  0  0  0  0999 V2000
  -27.8910  -21.5490   19.5730 C   0  0  0  0  0  3  0  0  0  0  0  0
  -29.5410  -22.1280   20.9880 C   0  0  0  0  0  3  0  0  0  0  0  0
  -28.4610  -22.7210   20.2240 C   0  0  0  0  0  0  0  0  0  0  0  0
  -29.3230  -19.7150   20.3760 C   0  0  0  0  0  0  0  0  0  0  0  0
  -28.2880  -20.1860   19.6240 N   0  0  0  0  0  0  0  0  0  0  0  0
  -29.9420  -20.7600   21.0240 N   0  0  0  0  0  0  0  0  0  0  0  0
  -30.7920  -18.2510   18.8060 C   0  0  0  0  0  1  0  0  0  0  0  0
  -30.0940  -18.1610   20.1760 C   0  0  0  0  0  0  0  0  0  0  0  0
  -30.4170  -15.2840   20.2840 C   0  0  0  0  0  0  0  0  0  0  0  0
  -30.3470  -12.8660   19.3680 C   0  0  0  0  0  2  0  0  0  0  0  0
  -29.4160  -12.6970   18.1420 C   0  0  0  0  0  2  0  0  0  0  0  0
  -27.9690  -12.4320   18.5910 C   0  0  0  0  0  2  0  0  0  0  0  0
  -27.5370  -13.3740   19.7420 C   0  0  0  0  0  3  0  0  0  0  0  0
  -28.5970  -13.4950   20.8580 C   0  0  0  0  0  2  0  0  0  0  0  0
  -29.8240  -13.9950   20.2200 N   0  0  0  0  0  0  0  0  0  0  0  0
  -31.6330  -15.2640   20.0520 O   0  0  0  0  0  0  0  0  0  0  0  0
  -29.6920  -16.5680   20.3910 N   0  0  0  0  0  4  0  0  0  0  0  0
  -28.7080  -16.4510   20.5720 H   0  0  0  0  0  0  0  0  0  0  0  0
  -25.1690  -13.9180   20.5160 C   0  0  0  0  0  0  0  0  0  0  0  0
  -24.1130  -13.1350   20.8910 C   0  0  0  0  0  0  0  0  0  0  0  0
  -24.5870  -11.7880   20.8530 C   0  0  0  0  0  0  0  0  0  0  0  0
  -26.2140  -13.0490   20.2610 N   0  0  0  0  0  0  0  0  0  0  0  0
  -25.8770  -11.7610   20.5330 N   0  0  0  0  0  0  0  0  0  0  0  0
  -23.8680  -10.5210   21.0410 C   0  0  0  0  0  0  0  0  0  0  0  0
  -24.3050   -9.5520   21.9710 C   0  0  0  0  0  3  0  0  0  0  0  0
  -23.5820   -8.3530   22.1490 C   0  0  0  0  0  3  0  0  0  0  0  0
  -22.4080   -8.1130   21.3960 C   0  0  0  0  0  0  0  0  0  0  0  0
  -21.9900   -9.0700   20.4540 C   0  0  0  0  0  3  0  0  0  0  0  0
  -22.7140  -10.2610   20.2750 C   0  0  0  0  0  3  0  0  0  0  0  0
  -21.6540   -6.9670   21.4840 O   0  0  0  0  0  0  0  0  0  0  0  0
  -21.6040   -6.2260   22.6380 C   0  0  0  0  0  0  0  0  0  0  0  0
  -21.1540   -6.7780   23.8570 C   0  0  0  0  0  3  0  0  0  0  0  0
  -21.0510   -5.9620   25.0020 C   0  0  0  0  0  3  0  0  0  0  0  0
  -21.3860   -4.5960   24.9280 C   0  0  0  0  0  0  0  0  0  0  0  0
  -21.8280   -4.0450   23.7120 C   0  0  0  0  0  3  0  0  0  0  0  0
  -21.9330   -4.8570   22.5690 C   0  0  0  0  0  0  0  0  0  0  0  0
  -22.3390   -4.3160   21.3960 F   0  0  0  0  0  0  0  0  0  0  0  0
  -21.2800   -3.8110   26.0260 F   0  0  0  0  0  0  0  0  0  0  0  0
  -22.7150  -13.6040   21.1650 C   0  0  0  0  0  0  0  0  0  0  0  0
  -21.9940  -12.9080   22.0360 N   0  0  0  0  0  0  0  0  0  0  0  0
  -22.2710  -14.6250   20.6400 O   0  0  0  0  0  0  0  0  0  0  0  0
  -22.3690  -12.0830   22.4820 H   0  0  0  0  0  0  0  0  0  0  0  0
  -21.0550  -13.2040   22.2600 H   0  0  0  0  0  0  0  0  0  0  0  0
  -25.3230  -15.2900   20.3410 N   0  0  0  0  0  0  0  0  0  0  0  0
  -24.5490  -15.9370   20.4470 H   0  0  0  0  0  0  0  0  0  0  0  0
  -26.1530  -15.7270   19.9640 H   0  0  0  0  0  0  0  0  0  0  0  0
  -27.7190  -24.3050   20.1600 C   0  0  0  0  0  2  0  0  0  0  0  0
  -28.1410  -25.8840   20.2730 O   0  0  0  0  0  0  0  0  0  0  0  0
  -24.6380  -31.8800   23.2400 C   0  0  0  0  0  0  0  0  0  0  0  0
  -27.1560  -27.0020   20.2160 C   0  0  0  0  0  0  0  0  0  0  0  0
  -23.4330  -30.4910   21.6070 C   0  0  0  0  0  3  0  0  0  0  0  0
  -24.8690  -28.8900   20.1790 C   0  0  0  0  0  0  0  0  0  0  0  0
  -26.0010  -30.6970   21.4500 C   0  0  0  0  0  2  0  0  0  0  0  0
  -26.0620  -29.2880   20.7960 C   0  0  0  0  0  0  0  0  0  0  0  0
  -27.2020  -28.3650   20.7900 C   0  0  0  0  0  3  0  0  0  0  0  0
  -25.9320  -26.7610   19.5490 C   0  0  0  0  0  3  0  0  0  0  0  0
  -24.8290  -27.6470   19.5340 C   0  0  0  0  0  3  0  0  0  0  0  0
  -23.6540  -29.8140   20.2280 C   0  0  0  0  0  2  0  0  0  0  0  0
  -24.7120  -31.0500   22.1520 N   0  0  0  0  0  0  0  0  0  0  0  0
  -23.5520  -32.1720   23.7660 O   0  0  0  0  0  0  0  0  0  0  0  0
  -22.7400  -29.4940   22.5730 C   0  0  0  0  0  0  0  0  0  0  0  0
  -21.4100  -29.3290   22.4520 N   0  0  0  0  0  0  0  0  0  0  0  0
  -23.4070  -28.8690   23.4030 O   0  0  0  0  0  0  0  0  0  0  0  0
  -20.9240  -29.8860   21.7620 H   0  0  0  0  0  0  0  0  0  0  0  0
  -18.0280  -28.1180   22.9630 C   0  0  0  0  0  0  0  0  0  0  0  0
  -20.5880  -28.3930   23.2270 C   0  0  0  0  0  3  0  0  0  0  0  0
  -20.6930  -26.9590   22.6610 C   0  0  0  0  0  2  0  0  0  0  0  0
  -19.5930  -26.6270   21.6480 C   0  0  0  0  0  2  0  0  0  0  0  0
  -18.2100  -26.7690   22.2900 C   0  0  0  0  0  2  0  0  0  0  0  0
  -19.1440  -28.8880   23.3890 C   0  0  0  0  0  0  0  0  0  0  0  0
  -18.9170  -30.1480   23.9820 C   0  0  0  0  0  3  0  0  0  0  0  0
  -17.6090  -30.6420   24.1480 C   0  0  0  0  0  3  0  0  0  0  0  0
  -16.5080  -29.8700   23.7360 C   0  0  0  0  0  3  0  0  0  0  0  0
  -16.7180  -28.6100   23.1510 C   0  0  0  0  0  3  0  0  0  0  0  0
  -25.9140  -32.5200   23.8680 C   0  0  0  0  0  3  0  0  0  0  0  0
  -25.6030  -33.9210   24.2010 N   0  0  0  0  0  0  0  0  0  0  0  0
  -25.9210  -34.9790   23.4450 C   0  0  0  0  0  0  0  0  0  0  0  0
  -26.5690  -34.8780   22.4000 O   0  0  0  0  0  0  0  0  0  0  0  0
  -25.0260  -34.0720   25.0160 H   0  0  0  0  0  0  0  0  0  0  0  0
  -24.1830  -36.7760   23.1410 C   0  0  0  0  0  1  0  0  0  0  0  0
  -25.4450  -36.3680   23.9170 C   0  0  0  0  0  3  0  0  0  0  0  0
  -27.6000  -37.2570   24.6930 C   0  0  0  0  0  1  0  0  0  0  0  0
  -26.4740  -37.4230   23.7780 N   0  0  0  0  0  0  0  0  0  0  0  0
  -26.0700  -38.3420   23.9370 H   0  0  0  0  0  0  0  0  0  0  0  0
  -26.4190  -31.7550   25.1530 C   0  0  1  0  0  0  0  0  0  0  0  0
  -25.3200  -31.5350   26.2190 C   0  0  0  0  0  1  0  0  0  0  0  0
  -26.9950  -30.3700   24.7840 C   0  0  0  0  0  1  0  0  0  0  0  0
  -27.5740  -32.5470   25.8130 C   0  0  0  0  0  1  0  0  0  0  0  0
  1  5  1  0
  1  3  2  0
  2  6  2  0
  3  2  1  0
  4  6  1  0
  5  4  2  0
  7  8  1  0
  8  4  1  0
  8 17  2  0
  9 17  1  0
 10 15  1  0
 11 12  1  0
 11 10  1  0
 13 12  1  0
 13 22  1  0
 13 14  1  0
 15  9  1  0
 15 14  1  0
 16  9  2  0
 17 18  1  0
 19 20  2  0
 20 39  1  0
 21 20  1  0
 21 24  1  0
 22 19  1  0
 22 23  1  0
 23 21  2  0
 24 25  1  0
 25 26  2  0
 27 30  1  0
 27 26  1  0
 28 27  2  0
 29 28  1  0
 29 24  2  0
 30 31  1  0
 31 32  1  0
 32 33  2  0
 34 33  1  0
 34 38  1  0
 35 34  2  0
 36 31  2  0
 36 35  1  0
 37 36  1  0
 39 40  1  0
 40 43  1  0
 40 42  1  0
 41 39  2  0
 44 45  1  0
 44 19  1  0
 46 44  1  0
 47  3  1  0
 47 48  1  0
 49 60  2  0
 50 48  1  0
 50 55  1  0
 51 59  1  0
 51 61  1  0
 52 58  1  0
 52 54  1  0
 53 59  1  0
 54 53  1  0
 55 54  2  0
 56 50  2  0
 57 56  1  0
 57 52  2  0
 58 51  1  0
 59 49  1  0
 61 63  2  0
 62 61  1  0
 64 62  1  0
 65 74  2  0
 65 70  1  0
 66 62  1  0
 66 70  1  0
 67 66  1  0
 68 69  1  0
 68 67  1  0
 69 65  1  0
 70 71  2  0
 71 72  1  0
 73 72  2  0
 74 73  1  0
 75 49  1  0
 75 76  1  0
 75 85  1  0
 76 79  1  0
 77 81  1  0
 77 76  1  0
 78 77  2  0
 81 80  1  0
 83 81  1  0
 83 84  1  0
 83 82  1  0
 85 88  1  1
 85 86  1  0
 87 85  1  0
M  ISO  4   9 100  17 100  47 101  48 101
M  END
>  <TORSDO>  (63) 
F 18

>  <SCORE>  (63) 
-15.735

>  <name>  (63) 
68

>  <ligand_id>  (63) 
68

>  <original_smiles>  (63) 
[H]c1nc(C([H])(N([H])C(=O)N2C([H])([H])C([H])([H])C([H])([H])C([H])(n3nc(-c4c([H])c([H])c(Oc5c([H])c([H])c(F)c([H])c5F)c([H])c4[H])c(C(=O)N([H])[H])c3N([H])[H])C2([H])[H])C([H])([H])[H])nc([H])c1C([H])([H])Oc1c([H])c([H])c2c(c1[H])C([H])([H])N(C(=O)C([H])(N([H])C(=O)C([H])(N([H])C([H])([H])[H])C([H])([H])[H])C(C([H])([H])[H])(C([H])([H])[H])C([H])([H])[H])C([H])(C(=O)N([H])C1([H])c3c([H])c([H])c([H])c([H])c3C([H])([H])C([H])([H])C1([H])[H])C2([H])[H]

>  <smiles>  (63) 
[H]c1nc(C([H])(N([H])C(=O)N2C([H])([H])C([H])([H])C([H])([H])C([H])(n3nc(-c4c([H])c([H])c(Oc5c([H])c([H])c(F)c([H])c5F)c([H])c4[H])c(C(=O)N([H])[H])c3N([H])[H])C2([H])[H])C([H])([H])[H])nc([H])c1C([H])([H])Oc1c([H])c([H])c2c(c1[H])C([H])([H])N(C(=O)C([H])(N([H])C(=O)C([H])(N([H])C([H])([H])[H])C([H])([H])[H])C(C([H])([H])[H])(C([H])([H])[H])C([H])([H])[H])C([H])(C(=O)N([H])C1([H])c3c([H])c([H])c([H])c([H])c3C([H])([H])C([H])([H])C1([H])[H])C2([H])[H]

$$$$
69:0:0
     RDKit          3D

 93101  0  0  1  0  0  0  0  0999 V2000
  -28.7810  -19.6820   20.6610 C   0  0  0  0  0  3  0  0  0  0  0  0
  -29.3510  -20.9630   20.3120 C   0  0  0  0  0  0  0  0  0  0  0  0
  -29.6770  -18.6580   20.3520 C   0  0  0  0  0  0  0  0  0  0  0  0
  -30.5990  -20.7450   19.9150 N   0  0  0  0  0  0  0  0  0  0  0  0
  -30.8030  -19.3780   19.9380 N   0  0  0  0  0  0  0  0  0  0  0  0
  -33.2570  -19.4110   20.2150 C   0  0  0  0  0  1  0  0  0  0  0  0
  -32.2100  -19.1770   17.9130 C   0  0  0  0  0  1  0  0  0  0  0  0
  -32.0640  -18.8660   19.4150 C   0  0  0  0  0  3  0  0  0  0  0  0
  -29.3890  -16.8580   18.6060 C   0  0  0  0  0  1  0  0  0  0  0  0
  -27.9310  -16.9330   20.6150 C   0  0  0  0  0  1  0  0  0  0  0  0
  -29.3760  -17.1060   20.1310 C   0  0  2  0  0  0  0  0  0  0  0  0
  -30.6800  -14.7890   20.3840 C   0  0  0  0  0  0  0  0  0  0  0  0
  -30.4310  -12.5010   19.4000 C   0  0  0  0  0  2  0  0  0  0  0  0
  -29.5190  -12.5870   18.1560 C   0  0  0  0  0  2  0  0  0  0  0  0
  -28.0430  -12.4120   18.5610 C   0  0  0  0  0  2  0  0  0  0  0  0
  -27.6540  -13.2930   19.7750 C   0  0  0  0  0  3  0  0  0  0  0  0
  -28.7060  -13.2280   20.9140 C   0  0  0  0  0  2  0  0  0  0  0  0
  -30.0250  -13.5680   20.3550 N   0  0  0  0  0  0  0  0  0  0  0  0
  -31.8050  -14.8880   19.8970 O   0  0  0  0  0  0  0  0  0  0  0  0
  -30.0380  -15.9250   20.8620 N   0  0  0  0  0  0  0  0  0  0  0  0
  -29.4780  -15.6830   21.6660 H   0  0  0  0  0  0  0  0  0  0  0  0
  -25.2300  -13.8800   20.4310 C   0  0  0  0  0  0  0  0  0  0  0  0
  -24.1710  -13.1120   20.8160 C   0  0  0  0  0  0  0  0  0  0  0  0
  -24.6450  -11.7660   20.8160 C   0  0  0  0  0  0  0  0  0  0  0  0
  -26.2970  -13.0120   20.2460 N   0  0  0  0  0  0  0  0  0  0  0  0
  -25.9430  -11.7320   20.5340 N   0  0  0  0  0  0  0  0  0  0  0  0
  -23.9170  -10.5050   21.0060 C   0  0  0  0  0  0  0  0  0  0  0  0
  -24.3420   -9.5460   21.9500 C   0  0  0  0  0  3  0  0  0  0  0  0
  -23.6140   -8.3510   22.1310 C   0  0  0  0  0  3  0  0  0  0  0  0
  -22.4480   -8.1080   21.3670 C   0  0  0  0  0  0  0  0  0  0  0  0
  -22.0420   -9.0550   20.4130 C   0  0  0  0  0  3  0  0  0  0  0  0
  -22.7690  -10.2430   20.2300 C   0  0  0  0  0  3  0  0  0  0  0  0
  -21.6930   -6.9640   21.4580 O   0  0  0  0  0  0  0  0  0  0  0  0
  -21.6350   -6.2290   22.6160 C   0  0  0  0  0  0  0  0  0  0  0  0
  -21.2010   -6.7950   23.8350 C   0  0  0  0  0  3  0  0  0  0  0  0
  -21.0960   -5.9890   24.9870 C   0  0  0  0  0  3  0  0  0  0  0  0
  -21.4090   -4.6170   24.9180 C   0  0  0  0  0  0  0  0  0  0  0  0
  -21.8310   -4.0520   23.7030 C   0  0  0  0  0  3  0  0  0  0  0  0
  -21.9420   -4.8550   22.5540 C   0  0  0  0  0  0  0  0  0  0  0  0
  -22.3320   -4.3020   21.3810 F   0  0  0  0  0  0  0  0  0  0  0  0
  -21.2960   -3.8410   26.0200 F   0  0  0  0  0  0  0  0  0  0  0  0
  -22.7690  -13.5910   21.0630 C   0  0  0  0  0  0  0  0  0  0  0  0
  -22.0340  -12.9110   21.9360 N   0  0  0  0  0  0  0  0  0  0  0  0
  -22.3360  -14.6070   20.5200 O   0  0  0  0  0  0  0  0  0  0  0  0
  -22.3980  -12.0900   22.3990 H   0  0  0  0  0  0  0  0  0  0  0  0
  -21.0920  -13.2130   22.1430 H   0  0  0  0  0  0  0  0  0  0  0  0
  -25.3470  -15.2410   20.1880 N   0  0  0  0  0  0  0  0  0  0  0  0
  -24.5590  -15.8760   20.2320 H   0  0  0  0  0  0  0  0  0  0  0  0
  -26.1840  -15.6740   19.8230 H   0  0  0  0  0  0  0  0  0  0  0  0
  -28.5850  -22.3210   20.0530 C   0  0  0  0  0  2  0  0  0  0  0  0
  -29.1090  -23.8000   20.4130 C   0  0  0  0  0  2  0  0  0  0  0  0
  -28.0850  -24.9890   20.0330 C   0  0  0  0  0  2  0  0  0  0  0  0
  -28.3100  -26.4480   20.2920 O   0  0  0  0  0  0  0  0  0  0  0  0
  -24.5970  -31.9300   23.2630 C   0  0  0  0  0  0  0  0  0  0  0  0
  -27.2010  -27.3260   20.2250 C   0  0  0  0  0  0  0  0  0  0  0  0
  -23.3920  -30.5270   21.6280 C   0  0  0  0  0  3  0  0  0  0  0  0
  -24.8410  -28.9690   20.2070 C   0  0  0  0  0  0  0  0  0  0  0  0
  -25.9360  -30.8290   21.4520 C   0  0  0  0  0  2  0  0  0  0  0  0
  -26.0120  -29.4480   20.8040 C   0  0  0  0  0  0  0  0  0  0  0  0
  -27.1920  -28.6370   20.8070 C   0  0  0  0  0  3  0  0  0  0  0  0
  -26.0000  -26.9130   19.6000 C   0  0  0  0  0  3  0  0  0  0  0  0
  -24.8390  -27.7070   19.5950 C   0  0  0  0  0  3  0  0  0  0  0  0
  -23.6080  -29.8510   20.2500 C   0  0  0  0  0  2  0  0  0  0  0  0
  -24.6600  -31.1130   22.1690 N   0  0  0  0  0  0  0  0  0  0  0  0
  -23.5150  -32.2140   23.7960 O   0  0  0  0  0  0  0  0  0  0  0  0
  -22.7250  -29.5160   22.5940 C   0  0  0  0  0  0  0  0  0  0  0  0
  -21.3990  -29.3400   22.4660 N   0  0  0  0  0  0  0  0  0  0  0  0
  -23.4020  -28.8950   23.4160 O   0  0  0  0  0  0  0  0  0  0  0  0
  -20.9130  -29.8920   21.7730 H   0  0  0  0  0  0  0  0  0  0  0  0
  -18.0190  -28.1500   22.9650 C   0  0  0  0  0  0  0  0  0  0  0  0
  -20.5770  -28.4090   23.2420 C   0  0  0  0  0  3  0  0  0  0  0  0
  -20.6810  -26.9750   22.6760 C   0  0  0  0  0  2  0  0  0  0  0  0
  -19.5820  -26.6450   21.6610 C   0  0  0  0  0  2  0  0  0  0  0  0
  -18.1980  -26.7970   22.2980 C   0  0  0  0  0  2  0  0  0  0  0  0
  -19.1360  -28.9140   23.3930 C   0  0  0  0  0  0  0  0  0  0  0  0
  -18.9170  -30.1820   23.9760 C   0  0  0  0  0  3  0  0  0  0  0  0
  -17.6120  -30.6850   24.1350 C   0  0  0  0  0  3  0  0  0  0  0  0
  -16.5080  -29.9180   23.7240 C   0  0  0  0  0  3  0  0  0  0  0  0
  -16.7130  -28.6520   23.1440 C   0  0  0  0  0  3  0  0  0  0  0  0
  -25.8820  -32.5620   23.8810 C   0  0  0  0  0  3  0  0  0  0  0  0
  -25.5790  -33.9620   24.2080 N   0  0  0  0  0  0  0  0  0  0  0  0
  -25.9070  -35.0120   23.4430 C   0  0  0  0  0  0  0  0  0  0  0  0
  -26.5670  -34.9030   22.4050 O   0  0  0  0  0  0  0  0  0  0  0  0
  -25.0030  -34.1230   25.0220 H   0  0  0  0  0  0  0  0  0  0  0  0
  -24.1800  -36.8040   23.0950 C   0  0  0  0  0  1  0  0  0  0  0  0
  -25.4280  -36.4030   23.8980 C   0  0  0  0  0  3  0  0  0  0  0  0
  -27.5720  -37.2900   24.7040 C   0  0  0  0  0  1  0  0  0  0  0  0
  -26.4600  -37.4540   23.7700 N   0  0  0  0  0  0  0  0  0  0  0  0
  -26.0570  -38.3750   23.9140 H   0  0  0  0  0  0  0  0  0  0  0  0
  -26.3970  -31.7940   25.1600 C   0  0  1  0  0  0  0  0  0  0  0  0
  -25.3020  -31.5630   26.2280 C   0  0  0  0  0  1  0  0  0  0  0  0
  -26.9770  -30.4130   24.7720 C   0  0  0  0  0  1  0  0  0  0  0  0
  -27.5520  -32.5840   25.8170 C   0  0  0  0  0  1  0  0  0  0  0  0
  2  1  1  0
  3  1  2  0
  4  5  1  0
  4  2  2  0
  5  3  1  0
  7  8  1  0
  8  5  1  0
  8  6  1  0
 11  9  1  6
 11  3  1  0
 11 10  1  0
 11 20  1  0
 12 20  1  0
 13 18  1  0
 14 15  1  0
 14 13  1  0
 16 15  1  0
 16 25  1  0
 16 17  1  0
 18 12  1  0
 18 17  1  0
 19 12  2  0
 20 21  1  0
 22 23  2  0
 23 24  1  0
 23 42  1  0
 24 27  1  0
 25 22  1  0
 25 26  1  0
 26 24  2  0
 27 28  1  0
 28 29  2  0
 30 33  1  0
 30 29  1  0
 31 30  2  0
 32 31  1  0
 32 27  2  0
 33 34  1  0
 34 35  1  0
 35 36  2  0
 37 36  1  0
 37 41  1  0
 38 37  2  0
 39 34  2  0
 39 38  1  0
 40 39  1  0
 42 43  1  0
 43 46  1  0
 43 45  1  0
 44 42  2  0
 47 48  1  0
 47 22  1  0
 49 47  1  0
 50  2  1  0
 50 51  1  0
 52 53  1  0
 52 51  1  0
 54 65  2  0
 55 53  1  0
 55 60  1  0
 56 64  1  0
 56 66  1  0
 57 63  1  0
 57 59  1  0
 58 64  1  0
 59 60  2  0
 59 58  1  0
 61 55  2  0
 62 61  1  0
 62 57  2  0
 63 56  1  0
 64 54  1  0
 66 68  2  0
 67 66  1  0
 69 67  1  0
 70 79  2  0
 70 75  1  0
 71 67  1  0
 71 75  1  0
 72 71  1  0
 73 74  1  0
 73 72  1  0
 74 70  1  0
 75 76  2  0
 76 77  1  0
 78 77  2  0
 79 78  1  0
 80 54  1  0
 80 81  1  0
 80 90  1  0
 81 84  1  0
 82 86  1  0
 82 81  1  0
 83 82  2  0
 86 85  1  0
 88 86  1  0
 88 89  1  0
 88 87  1  0
 90 93  1  1
 90 91  1  0
 92 90  1  0
M  ISO  4  12 100  20 100  52 101  53 101
M  END
>  <TORSDO>  (64) 
F 21

>  <SCORE>  (64) 
-13.345

>  <name>  (64) 
69

>  <ligand_id>  (64) 
69

>  <original_smiles>  (64) 
[H]c1c([H])c([H])c2c(c1[H])C([H])([H])C([H])([H])C([H])([H])C2([H])N([H])C(=O)C1([H])N(C(=O)C([H])(N([H])C(=O)C([H])(N([H])C([H])([H])[H])C([H])([H])[H])C(C([H])([H])[H])(C([H])([H])[H])C([H])([H])[H])C([H])([H])c2c([H])c(OC([H])([H])C([H])([H])C([H])([H])c3nn(C([H])(C([H])([H])[H])C([H])([H])[H])c(C(N([H])C(=O)N4C([H])([H])C([H])([H])C([H])([H])C([H])(n5nc(-c6c([H])c([H])c(Oc7c([H])c([H])c(F)c([H])c7F)c([H])c6[H])c(C(=O)N([H])[H])c5N([H])[H])C4([H])[H])(C([H])([H])[H])C([H])([H])[H])c3[H])c([H])c([H])c2C1([H])[H]

>  <smiles>  (64) 
[H]c1c([H])c([H])c2c(c1[H])C([H])([H])C([H])([H])C([H])([H])C2([H])N([H])C(=O)C1([H])N(C(=O)C([H])(N([H])C(=O)C([H])(N([H])C([H])([H])[H])C([H])([H])[H])C(C([H])([H])[H])(C([H])([H])[H])C([H])([H])[H])C([H])([H])c2c([H])c(OC([H])([H])C([H])([H])C([H])([H])c3nn(C([H])(C([H])([H])[H])C([H])([H])[H])c(C(N([H])C(=O)N4C([H])([H])C([H])([H])C([H])([H])C([H])(n5nc(-c6c([H])c([H])c(Oc7c([H])c([H])c(F)c([H])c7F)c([H])c6[H])c(C(=O)N([H])[H])c5N([H])[H])C4([H])[H])(C([H])([H])[H])C([H])([H])[H])c3[H])c([H])c([H])c2C1([H])[H]

$$$$
70:0:0
     RDKit          3D

104113  0  0  1  0  0  0  0  0999 V2000
  -30.8450  -19.8850   18.8030 C   0  0  0  0  0  2  0  0  0  0  0  0
  -31.1580  -20.2270   21.2110 C   0  0  0  0  0  2  0  0  0  0  0  0
  -29.9810  -21.1650   18.7240 C   0  0  0  0  0  2  0  0  0  0  0  0
  -30.7290  -21.6970   21.1150 C   0  0  0  0  0  2  0  0  0  0  0  0
  -31.8880  -19.8580   19.9250 C   0  0  0  0  0  3  0  0  0  0  0  0
  -29.8620  -22.0350   19.9440 N   0  0  1  0  0  4  0  0  0  0  0  0
  -28.9130  -21.9020   20.2740 H   0  0  0  0  0  0  0  0  0  0  0  0
  -32.3150  -17.4310   20.8190 C   0  0  0  0  0  3  0  0  0  0  0  0
  -32.5190  -18.5020   19.9880 C   0  0  0  0  0  0  0  0  0  0  0  0
  -33.7240  -16.7840   19.2380 C   0  0  0  0  0  3  0  0  0  0  0  0
  -32.9680  -16.3560   20.2680 N   0  0  0  0  0  0  0  0  0  0  0  0
  -33.4360  -18.0760   19.0650 N   0  0  0  0  0  0  0  0  0  0  0  0
  -33.8340  -18.6490   18.3300 H   0  0  0  0  0  0  0  0  0  0  0  0
  -34.6690  -15.9940   18.3820 C   0  0  0  0  0  2  0  0  0  0  0  0
  -33.7870  -16.5650   16.0180 C   0  0  0  0  0  1  0  0  0  0  0  0
  -34.0450  -15.4830   17.0750 C   0  0  0  0  0  2  0  0  0  0  0  0
  -32.9160  -14.9460   20.7120 C   0  0  0  0  0  2  0  0  0  0  0  0
  -31.5450  -14.4680   21.2770 C   0  0  0  0  0  2  0  0  0  0  0  0
  -30.4610  -13.7340   19.1570 C   0  0  0  0  0  0  0  0  0  0  0  0
  -29.7640  -11.6790   17.9780 C   0  0  0  0  0  2  0  0  0  0  0  0
  -28.5580  -11.9100   17.0470 C   0  0  0  0  0  2  0  0  0  0  0  0
  -27.2120  -11.8360   17.7990 C   0  0  0  0  0  2  0  0  0  0  0  0
  -27.2300  -12.6530   19.1220 C   0  0  0  0  0  3  0  0  0  0  0  0
  -28.5050  -12.3220   19.9400 C   0  0  0  0  0  2  0  0  0  0  0  0
  -29.6770  -12.6240   19.0970 N   0  0  0  0  0  0  0  0  0  0  0  0
  -31.2900  -14.0270   18.2880 O   0  0  0  0  0  0  0  0  0  0  0  0
  -29.3390  -15.3720   20.5380 C   0  0  0  0  0  1  0  0  0  0  0  0
  -30.4110  -14.3970   20.3310 N   0  0  0  0  0  0  0  0  0  0  0  0
  -25.1260  -13.3700   20.4300 C   0  0  0  0  0  0  0  0  0  0  0  0
  -24.1200  -12.6410   21.0030 C   0  0  0  0  0  0  0  0  0  0  0  0
  -24.4470  -11.2700   20.7730 C   0  0  0  0  0  0  0  0  0  0  0  0
  -26.0120  -12.4430   19.9010 N   0  0  0  0  0  0  0  0  0  0  0  0
  -25.6180  -11.1710   20.1590 N   0  0  0  0  0  0  0  0  0  0  0  0
  -23.6860  -10.0440   21.0510 C   0  0  0  0  0  0  0  0  0  0  0  0
  -24.1970   -9.0370   21.8980 C   0  0  0  0  0  3  0  0  0  0  0  0
  -23.4410   -7.8760   22.1660 C   0  0  0  0  0  3  0  0  0  0  0  0
  -22.1590   -7.7130   21.5820 C   0  0  0  0  0  0  0  0  0  0  0  0
  -21.6680   -8.7080   20.7170 C   0  0  0  0  0  3  0  0  0  0  0  0
  -22.4270   -9.8600   20.4470 C   0  0  0  0  0  3  0  0  0  0  0  0
  -21.3630   -6.6100   21.7690 O   0  0  0  0  0  0  0  0  0  0  0  0
  -21.3840   -5.8960   22.9420 C   0  0  0  0  0  0  0  0  0  0  0  0
  -21.0430   -6.4840   24.1820 C   0  0  0  0  0  3  0  0  0  0  0  0
  -21.0080   -5.6950   25.3490 C   0  0  0  0  0  3  0  0  0  0  0  0
  -21.3060   -4.3220   25.2780 C   0  0  0  0  0  0  0  0  0  0  0  0
  -21.6380   -3.7330   24.0450 C   0  0  0  0  0  3  0  0  0  0  0  0
  -21.6760   -4.5190   22.8780 C   0  0  0  0  0  0  0  0  0  0  0  0
  -21.9750   -3.9420   21.6890 F   0  0  0  0  0  0  0  0  0  0  0  0
  -21.2710   -3.5630   26.3960 F   0  0  0  0  0  0  0  0  0  0  0  0
  -22.8730  -13.1760   21.6460 C   0  0  0  0  0  0  0  0  0  0  0  0
  -22.3360  -12.4630   22.6270 N   0  0  0  0  0  0  0  0  0  0  0  0
  -22.3980  -14.2630   21.3160 O   0  0  0  0  0  0  0  0  0  0  0  0
  -22.7450  -11.5880   22.9200 H   0  0  0  0  0  0  0  0  0  0  0  0
  -21.5130  -12.8020   23.1050 H   0  0  0  0  0  0  0  0  0  0  0  0
  -25.3550  -14.7420   20.2940 N   0  0  0  0  0  0  0  0  0  0  0  0
  -24.7220  -15.4470   20.6550 H   0  0  0  0  0  0  0  0  0  0  0  0
  -26.1400  -15.1380   19.7930 H   0  0  0  0  0  0  0  0  0  0  0  0
  -29.9560  -23.4680   19.5170 C   0  0  0  0  0  2  0  0  0  0  0  0
  -27.8890  -24.1690   20.8120 C   0  0  0  0  0  1  0  0  0  0  0  0
  -29.3330  -24.5610   20.4400 C   0  0  1  0  0  0  0  0  0  0  0  0
  -30.0100  -24.5870   21.5900 F   0  0  0  0  0  0  0  0  0  0  0  0
  -29.1660  -26.1370   18.3190 C   0  0  0  0  0  1  0  0  0  0  0  0
  -30.9550  -26.5250   19.9920 C   0  0  0  0  0  1  0  0  0  0  0  0
  -29.4970  -26.0140   19.8310 C   0  0  2  0  0  0  0  0  0  0  0  0
  -28.9030  -27.0140   20.6740 O   0  0  0  0  0  0  0  0  0  0  0  0
  -24.6870  -32.0200   23.3470 C   0  0  0  0  0  0  0  0  0  0  0  0
  -27.6630  -27.5990   20.5380 C   0  0  0  0  0  0  0  0  0  0  0  0
  -23.6240  -30.5140   21.7010 C   0  0  0  0  0  3  0  0  0  0  0  0
  -25.2050  -28.9920   20.4010 C   0  0  0  0  0  0  0  0  0  0  0  0
  -26.1400  -30.9610   21.6270 C   0  0  0  0  0  2  0  0  0  0  0  0
  -26.3030  -29.5760   21.0410 C   0  0  0  0  0  0  0  0  0  0  0  0
  -27.5250  -28.8770   21.1210 C   0  0  0  0  0  3  0  0  0  0  0  0
  -26.5470  -27.0320   19.8860 C   0  0  0  0  0  3  0  0  0  0  0  0
  -25.3210  -27.7180   19.8240 C   0  0  0  0  0  3  0  0  0  0  0  0
  -23.9260  -29.7970   20.3580 C   0  0  0  0  0  2  0  0  0  0  0  0
  -24.8320  -31.1830   22.2820 N   0  0  0  0  0  0  0  0  0  0  0  0
  -23.5680  -32.2720   23.8140 O   0  0  0  0  0  0  0  0  0  0  0  0
  -22.9640  -29.5000   22.6600 C   0  0  0  0  0  0  0  0  0  0  0  0
  -21.6570  -29.2570   22.4630 N   0  0  0  0  0  0  0  0  0  0  0  0
  -23.6230  -28.9360   23.5360 O   0  0  0  0  0  0  0  0  0  0  0  0
  -21.1890  -29.7620   21.7250 H   0  0  0  0  0  0  0  0  0  0  0  0
  -18.2960  -28.0010   22.8500 C   0  0  0  0  0  0  0  0  0  0  0  0
  -20.8340  -28.3190   23.2210 C   0  0  0  0  0  3  0  0  0  0  0  0
  -20.9920  -26.8800   22.6770 C   0  0  0  0  0  2  0  0  0  0  0  0
  -19.9380  -26.5140   21.6270 C   0  0  0  0  0  2  0  0  0  0  0  0
  -18.5290  -26.6420   22.2120 C   0  0  0  0  0  2  0  0  0  0  0  0
  -19.3790  -28.7960   23.3080 C   0  0  0  0  0  0  0  0  0  0  0  0
  -19.1110  -30.0690   23.8580 C   0  0  0  0  0  3  0  0  0  0  0  0
  -17.7910  -30.5440   23.9600 C   0  0  0  0  0  3  0  0  0  0  0  0
  -16.7200  -29.7450   23.5230 C   0  0  0  0  0  3  0  0  0  0  0  0
  -16.9740  -28.4760   22.9700 C   0  0  0  0  0  3  0  0  0  0  0  0
  -25.9150  -32.7210   24.0080 C   0  0  0  0  0  3  0  0  0  0  0  0
  -25.5300  -34.1100   24.2900 N   0  0  0  0  0  0  0  0  0  0  0  0
  -25.8400  -35.1570   23.5160 C   0  0  0  0  0  0  0  0  0  0  0  0
  -26.5530  -35.0650   22.5130 O   0  0  0  0  0  0  0  0  0  0  0  0
  -24.8990  -34.2560   25.0640 H   0  0  0  0  0  0  0  0  0  0  0  0
  -24.0360  -36.8500   23.0600 C   0  0  0  0  0  1  0  0  0  0  0  0
  -25.2700  -36.5300   23.9190 C   0  0  0  0  0  3  0  0  0  0  0  0
  -27.3330  -37.5400   24.7860 C   0  0  0  0  0  1  0  0  0  0  0  0
  -26.2500  -37.6320   23.8100 N   0  0  0  0  0  0  0  0  0  0  0  0
  -25.7930  -38.5330   23.9290 H   0  0  0  0  0  0  0  0  0  0  0  0
  -26.4070  -31.9990   25.3210 C   0  0  1  0  0  0  0  0  0  0  0  0
  -25.2670  -31.6550   26.3060 C   0  0  0  0  0  1  0  0  0  0  0  0
  -27.1470  -30.6850   24.9770 C   0  0  0  0  0  1  0  0  0  0  0  0
  -27.4270  -32.8960   26.0610 C   0  0  0  0  0  1  0  0  0  0  0  0
  1  5  1  0
  3  1  1  0
  3  6  1  0
  4  2  1  0
  5  9  1  0
  5  2  1  0
  6  7  1  1
  6  4  1  0
  9  8  2  0
 10 14  1  0
 10 11  1  0
 11 17  1  0
 11  8  1  0
 12 10  1  0
 12  9  1  0
 13 12  1  0
 15 16  1  0
 16 14  1  0
 17 18  1  0
 19 28  1  0
 20 25  1  0
 21 22  1  0
 21 20  1  0
 23 22  1  0
 23 32  1  0
 23 24  1  0
 25 19  1  0
 25 24  1  0
 26 19  2  0
 28 27  1  0
 28 18  1  0
 29 30  2  0
 30 49  1  0
 31 30  1  0
 31 34  1  0
 32 33  1  0
 32 29  1  0
 33 31  2  0
 34 35  1  0
 35 36  2  0
 37 40  1  0
 37 36  1  0
 38 37  2  0
 39 38  1  0
 39 34  2  0
 40 41  1  0
 41 42  1  0
 42 43  2  0
 44 43  1  0
 44 48  1  0
 45 44  2  0
 46 41  2  0
 46 45  1  0
 47 46  1  0
 49 50  1  0
 50 52  1  0
 50 53  1  0
 51 49  2  0
 54 29  1  0
 54 55  1  0
 56 54  1  0
 57  6  1  0
 57 59  1  0
 59 58  1  1
 59 60  1  0
 63 61  1  6
 63 62  1  0
 63 59  1  0
 63 64  1  0
 65 76  2  0
 66 64  1  0
 66 71  1  0
 67 75  1  0
 67 77  1  0
 68 70  1  0
 69 75  1  0
 70 71  2  0
 70 69  1  0
 72 66  2  0
 73 72  1  0
 73 68  2  0
 74 68  1  0
 74 67  1  0
 75 65  1  0
 77 79  2  0
 78 77  1  0
 80 78  1  0
 81 90  2  0
 81 86  1  0
 82 78  1  0
 82 86  1  0
 83 82  1  0
 84 85  1  0
 84 83  1  0
 85 81  1  0
 86 87  2  0
 87 88  1  0
 89 88  2  0
 90 89  1  0
 91 65  1  0
 91 92  1  0
 91101  1  0
 92 95  1  0
 93 97  1  0
 93 92  1  0
 94 93  2  0
 97 96  1  0
 99 97  1  0
 99100  1  0
 99 98  1  0
101104  1  1
101102  1  0
103101  1  0
M  ISO  4  19 100  28 100  63 101  64 101
M  END
>  <TORSDO>  (65) 
F 24

>  <SCORE>  (65) 
-9.442

>  <name>  (65) 
70

>  <ligand_id>  (65) 
70

>  <original_smiles>  (65) 
[H]c1c([H])c([H])c2c(c1[H])C([H])([H])C([H])([H])C([H])([H])C2([H])N([H])C(=O)C1([H])N(C(=O)C([H])(N([H])C(=O)C([H])(N([H])C([H])([H])[H])C([H])([H])[H])C(C([H])([H])[H])(C([H])([H])[H])C([H])([H])[H])C([H])([H])c2c([H])c(OC(C([H])([H])[H])(C([H])([H])[H])C(F)(C([H])([H])[H])C([H])([H])[N+]3([H])C([H])([H])C([H])([H])C([H])(c4c([H])n(C([H])([H])C([H])([H])N(C(=O)N5C([H])([H])C([H])([H])C([H])([H])C([H])(n6nc(-c7c([H])c([H])c(Oc8c([H])c([H])c(F)c([H])c8F)c([H])c7[H])c(C(=O)N([H])[H])c6N([H])[H])C5([H])[H])C([H])([H])[H])c(C([H])([H])C([H])([H])C([H])([H])[H])[n+]4[H])C([H])([H])C3([H])[H])c([H])c([H])c2C1([H])[H]

>  <smiles>  (65) 
[H]c1c([H])c([H])c2c(c1[H])C([H])([H])C([H])([H])C([H])([H])C2([H])N([H])C(=O)C1([H])N(C(=O)C([H])(N([H])C(=O)C([H])(N([H])C([H])([H])[H])C([H])([H])[H])C(C([H])([H])[H])(C([H])([H])[H])C([H])([H])[H])C([H])([H])c2c([H])c(OC(C([H])([H])[H])(C([H])([H])[H])C(F)(C([H])([H])[H])C([H])([H])[N+]3([H])C([H])([H])C([H])([H])C([H])(c4c([H])n(C([H])([H])C([H])([H])N(C(=O)N5C([H])([H])C([H])([H])C([H])([H])C([H])(n6nc(-c7c([H])c([H])c(Oc8c([H])c([H])c(F)c([H])c8F)c([H])c7[H])c(C(=O)N([H])[H])c6N([H])[H])C5([H])[H])C([H])([H])[H])c(C([H])([H])C([H])([H])C([H])([H])[H])[n+]4[H])C([H])([H])C3([H])[H])c([H])c([H])c2C1([H])[H]

$$$$
71:0:0
     RDKit          3D

 97105  0  0  1  0  0  0  0  0999 V2000
  -29.8430  -22.7270   20.7380 C   0  0  0  0  0  3  0  0  0  0  0  0
  -30.0490  -21.8740   19.6360 C   0  0  0  0  0  0  0  0  0  0  0  0
  -29.8500  -22.4850   18.3720 C   0  0  0  0  0  0  0  0  0  0  0  0
  -29.3440  -24.5140   19.3750 C   0  0  0  0  0  0  0  0  0  0  0  0
  -29.4900  -24.0280   20.6080 N   0  0  0  0  0  0  0  0  0  0  0  0
  -29.5050  -23.7930   18.2720 N   0  0  0  0  0  0  0  0  0  0  0  0
  -30.0630  -21.7380   17.0490 C   0  0  1  0  0  0  0  0  0  0  0  0
  -29.4450  -20.5530   17.0920 F   0  0  0  0  0  0  0  0  0  0  0  0
  -29.5740  -22.4200   16.0100 F   0  0  0  0  0  0  0  0  0  0  0  0
  -31.3660  -21.5370   16.8570 F   0  0  0  0  0  0  0  0  0  0  0  0
  -30.5710  -20.4170   19.8180 C   0  0  0  0  0  2  0  0  0  0  0  0
  -28.4730  -19.4830   20.7820 C   0  0  0  0  0  1  0  0  0  0  0  0
  -29.5280  -19.3410   19.7480 N   0  0  2  0  0  4  0  0  0  0  0  0
  -29.0530  -19.5300   18.8780 H   0  0  0  0  0  0  0  0  0  0  0  0
  -28.9230  -17.2010   18.6540 C   0  0  0  0  0  1  0  0  0  0  0  0
  -29.9910  -17.9220   19.4970 C   0  0  0  0  0  3  0  0  0  0  0  0
  -30.4390  -17.0910   20.7580 C   0  0  0  0  0  2  0  0  0  0  0  0
  -30.9070  -14.6420   20.1120 C   0  0  0  0  0  0  0  0  0  0  0  0
  -30.5790  -12.4760   18.9660 C   0  0  0  0  0  2  0  0  0  0  0  0
  -29.5920  -12.6830   17.7970 C   0  0  0  0  0  2  0  0  0  0  0  0
  -28.1310  -12.5540   18.2750 C   0  0  0  0  0  2  0  0  0  0  0  0
  -27.8430  -13.3890   19.5510 C   0  0  0  0  0  3  0  0  0  0  0  0
  -28.9350  -13.1490   20.6190 C   0  0  0  0  0  2  0  0  0  0  0  0
  -30.2430  -13.4560   20.0100 N   0  0  0  0  0  0  0  0  0  0  0  0
  -32.0100  -14.8490   19.6020 O   0  0  0  0  0  0  0  0  0  0  0  0
  -30.1870  -15.6340   20.6720 N   0  0  0  0  0  0  0  0  0  0  0  0
  -29.3070  -15.3260   21.0580 H   0  0  0  0  0  0  0  0  0  0  0  0
  -25.4790  -14.0370   20.3350 C   0  0  0  0  0  0  0  0  0  0  0  0
  -24.4100  -13.2830   20.7360 C   0  0  0  0  0  0  0  0  0  0  0  0
  -24.8480  -11.9240   20.6880 C   0  0  0  0  0  0  0  0  0  0  0  0
  -26.5010  -13.1390   20.0710 N   0  0  0  0  0  0  0  0  0  0  0  0
  -26.1260  -11.8620   20.3400 N   0  0  0  0  0  0  0  0  0  0  0  0
  -24.1070  -10.6750   20.8980 C   0  0  0  0  0  0  0  0  0  0  0  0
  -24.5340   -9.7130   21.8400 C   0  0  0  0  0  3  0  0  0  0  0  0
  -23.7950   -8.5270   22.0370 C   0  0  0  0  0  3  0  0  0  0  0  0
  -22.6160   -8.2950   21.2910 C   0  0  0  0  0  0  0  0  0  0  0  0
  -22.2070   -9.2460   20.3380 C   0  0  0  0  0  3  0  0  0  0  0  0
  -22.9470  -10.4230   20.1390 C   0  0  0  0  0  3  0  0  0  0  0  0
  -21.8480   -7.1600   21.3960 O   0  0  0  0  0  0  0  0  0  0  0  0
  -21.7790   -6.4450   22.5650 C   0  0  0  0  0  0  0  0  0  0  0  0
  -21.3170   -7.0260   23.7670 C   0  0  0  0  0  3  0  0  0  0  0  0
  -21.1920   -6.2360   24.9270 C   0  0  0  0  0  3  0  0  0  0  0  0
  -21.5220   -4.8680   24.8890 C   0  0  0  0  0  0  0  0  0  0  0  0
  -21.9800   -4.2880   23.6920 C   0  0  0  0  0  3  0  0  0  0  0  0
  -22.1040   -5.0740   22.5330 C   0  0  0  0  0  0  0  0  0  0  0  0
  -22.5260   -4.5060   21.3780 F   0  0  0  0  0  0  0  0  0  0  0  0
  -21.3960   -4.1080   26.0010 F   0  0  0  0  0  0  0  0  0  0  0  0
  -23.0310  -13.7850   21.0530 C   0  0  0  0  0  0  0  0  0  0  0  0
  -22.3210  -13.1030   21.9450 N   0  0  0  0  0  0  0  0  0  0  0  0
  -22.5910  -14.8160   20.5440 O   0  0  0  0  0  0  0  0  0  0  0  0
  -22.6910  -12.2710   22.3770 H   0  0  0  0  0  0  0  0  0  0  0  0
  -21.3970  -13.4200   22.1980 H   0  0  0  0  0  0  0  0  0  0  0  0
  -25.6550  -15.4040   20.1530 N   0  0  0  0  0  0  0  0  0  0  0  0
  -24.8900  -16.0600   20.2690 H   0  0  0  0  0  0  0  0  0  0  0  0
  -26.4740  -15.8210   19.7320 H   0  0  0  0  0  0  0  0  0  0  0  0
  -29.0860  -26.0220   19.1620 C   0  0  0  0  0  2  0  0  0  0  0  0
  -28.6570  -26.7890   20.3090 O   0  0  0  0  0  0  0  0  0  0  0  0
  -24.6770  -31.8850   23.3100 C   0  0  0  0  0  0  0  0  0  0  0  0
  -27.4690  -27.4970   20.2490 C   0  0  0  0  0  0  0  0  0  0  0  0
  -23.5360  -30.4870   21.6180 C   0  0  0  0  0  3  0  0  0  0  0  0
  -25.0480  -28.9780   20.2200 C   0  0  0  0  0  0  0  0  0  0  0  0
  -26.0630  -30.8720   21.5010 C   0  0  0  0  0  2  0  0  0  0  0  0
  -26.1810  -29.5060   20.8490 C   0  0  0  0  0  0  0  0  0  0  0  0
  -27.3890  -28.7690   20.8690 C   0  0  0  0  0  3  0  0  0  0  0  0
  -26.3070  -26.9780   19.6310 C   0  0  0  0  0  3  0  0  0  0  0  0
  -25.1050  -27.7130   19.6120 C   0  0  0  0  0  3  0  0  0  0  0  0
  -23.7930  -29.8230   20.2400 C   0  0  0  0  0  2  0  0  0  0  0  0
  -24.7740  -31.0960   22.2020 N   0  0  0  0  0  0  0  0  0  0  0  0
  -23.5780  -32.1400   23.8210 O   0  0  0  0  0  0  0  0  0  0  0  0
  -22.8670  -29.4510   22.5490 C   0  0  0  0  0  0  0  0  0  0  0  0
  -21.5430  -29.2790   22.4030 N   0  0  0  0  0  0  0  0  0  0  0  0
  -23.5380  -28.8030   23.3580 O   0  0  0  0  0  0  0  0  0  0  0  0
  -21.0650  -29.8540   21.7240 H   0  0  0  0  0  0  0  0  0  0  0  0
  -18.1480  -28.1400   22.8810 C   0  0  0  0  0  0  0  0  0  0  0  0
  -20.7120  -28.3300   23.1420 C   0  0  0  0  0  3  0  0  0  0  0  0
  -20.7790  -26.9200   22.5100 C   0  0  0  0  0  2  0  0  0  0  0  0
  -19.6630  -26.6630   21.4920 C   0  0  0  0  0  2  0  0  0  0  0  0
  -18.2890  -26.8150   22.1500 C   0  0  0  0  0  2  0  0  0  0  0  0
  -19.2860  -28.8590   23.3320 C   0  0  0  0  0  0  0  0  0  0  0  0
  -19.1000  -30.1020   23.9740 C   0  0  0  0  0  3  0  0  0  0  0  0
  -17.8090  -30.6250   24.1700 C   0  0  0  0  0  3  0  0  0  0  0  0
  -16.6840  -29.9030   23.7340 C   0  0  0  0  0  3  0  0  0  0  0  0
  -16.8550  -28.6610   23.0960 C   0  0  0  0  0  3  0  0  0  0  0  0
  -25.9370  -32.5230   23.9730 C   0  0  0  0  0  3  0  0  0  0  0  0
  -25.6170  -33.9250   24.2760 N   0  0  0  0  0  0  0  0  0  0  0  0
  -25.9800  -34.9680   23.5180 C   0  0  0  0  0  0  0  0  0  0  0  0
  -26.6900  -34.8530   22.5150 O   0  0  0  0  0  0  0  0  0  0  0  0
  -24.9920  -34.0890   25.0510 H   0  0  0  0  0  0  0  0  0  0  0  0
  -24.2730  -36.7600   23.0680 C   0  0  0  0  0  1  0  0  0  0  0  0
  -25.4750  -36.3620   23.9380 C   0  0  0  0  0  3  0  0  0  0  0  0
  -27.5680  -37.2550   24.8600 C   0  0  0  0  0  1  0  0  0  0  0  0
  -26.5130  -37.4120   23.8620 N   0  0  0  0  0  0  0  0  0  0  0  0
  -26.1030  -38.3340   23.9770 H   0  0  0  0  0  0  0  0  0  0  0  0
  -26.4060  -31.7660   25.2770 C   0  0  1  0  0  0  0  0  0  0  0  0
  -25.2730  -31.5370   26.3030 C   0  0  0  0  0  1  0  0  0  0  0  0
  -27.0080  -30.3860   24.9200 C   0  0  0  0  0  1  0  0  0  0  0  0
  -27.5290  -32.5710   25.9750 C   0  0  0  0  0  1  0  0  0  0  0  0
  2 11  1  0
  2  1  2  0
  3  2  1  0
  4  5  2  0
  5  1  1  0
  6  3  2  0
  6  4  1  0
  7  8  1  1
  7  3  1  0
  9  7  1  0
 10  7  1  0
 13 11  1  0
 13 12  1  0
 13 14  1  6
 16 15  1  0
 16 13  1  0
 16 17  1  0
 18 26  1  0
 19 24  1  0
 20 21  1  0
 20 19  1  0
 22 21  1  0
 22 31  1  0
 22 23  1  0
 24 18  1  0
 24 23  1  0
 25 18  2  0
 26 17  1  0
 26 27  1  0
 28 29  2  0
 29 48  1  0
 30 29  1  0
 30 33  1  0
 31 28  1  0
 31 32  1  0
 32 30  2  0
 33 34  1  0
 34 35  2  0
 36 39  1  0
 36 35  1  0
 37 36  2  0
 38 37  1  0
 38 33  2  0
 39 40  1  0
 40 41  1  0
 41 42  2  0
 43 42  1  0
 43 47  1  0
 44 43  2  0
 45 40  2  0
 45 44  1  0
 46 45  1  0
 48 49  1  0
 49 52  1  0
 49 51  1  0
 50 48  2  0
 53 54  1  0
 53 28  1  0
 55 53  1  0
 56  4  1  0
 56 57  1  0
 58 69  2  0
 59 57  1  0
 59 64  1  0
 60 68  1  0
 60 70  1  0
 61 67  1  0
 61 63  1  0
 62 68  1  0
 63 64  2  0
 63 62  1  0
 65 59  2  0
 66 65  1  0
 66 61  2  0
 67 60  1  0
 68 58  1  0
 70 72  2  0
 71 70  1  0
 73 71  1  0
 74 83  2  0
 74 79  1  0
 75 71  1  0
 75 79  1  0
 76 75  1  0
 77 78  1  0
 77 76  1  0
 78 74  1  0
 79 80  2  0
 80 81  1  0
 82 81  2  0
 83 82  1  0
 84 58  1  0
 84 85  1  0
 84 94  1  0
 85 88  1  0
 86 90  1  0
 86 85  1  0
 87 86  2  0
 90 89  1  0
 92 90  1  0
 92 93  1  0
 92 91  1  0
 94 97  1  1
 94 95  1  0
 96 94  1  0
M  ISO  4  18 100  26 100  56 101  57 101
M  END
>  <TORSDO>  (66) 
F 22

>  <SCORE>  (66) 
-12.903

>  <name>  (66) 
71

>  <ligand_id>  (66) 
71

>  <original_smiles>  (66) 
[H]c1nc(C([H])([H])Oc2c([H])c([H])c3c(c2[H])C([H])([H])N(C(=O)C([H])(N([H])C(=O)C([H])(N([H])C([H])([H])[H])C([H])([H])[H])C(C([H])([H])[H])(C([H])([H])[H])C([H])([H])[H])C([H])(C(=O)N([H])C2([H])c4c([H])c([H])c([H])c([H])c4C([H])([H])C([H])([H])C2([H])[H])C3([H])[H])nc(C(F)(F)F)c1C([H])([H])[N+]([H])(C([H])([H])[H])C([H])(C([H])([H])[H])C([H])([H])N([H])C(=O)N1C([H])([H])C([H])([H])C([H])([H])C([H])(n2nc(-c3c([H])c([H])c(Oc4c([H])c([H])c(F)c([H])c4F)c([H])c3[H])c(C(=O)N([H])[H])c2N([H])[H])C1([H])[H]

>  <smiles>  (66) 
[H]c1nc(C([H])([H])Oc2c([H])c([H])c3c(c2[H])C([H])([H])N(C(=O)C([H])(N([H])C(=O)C([H])(N([H])C([H])([H])[H])C([H])([H])[H])C(C([H])([H])[H])(C([H])([H])[H])C([H])([H])[H])C([H])(C(=O)N([H])C2([H])c4c([H])c([H])c([H])c([H])c4C([H])([H])C([H])([H])C2([H])[H])C3([H])[H])nc(C(F)(F)F)c1C([H])([H])[N+]([H])(C([H])([H])[H])C([H])(C([H])([H])[H])C([H])([H])N([H])C(=O)N1C([H])([H])C([H])([H])C([H])([H])C([H])(n2nc(-c3c([H])c([H])c(Oc4c([H])c([H])c(F)c([H])c4F)c([H])c3[H])c(C(=O)N([H])[H])c2N([H])[H])C1([H])[H]

$$$$
72:0:0
     RDKit          3D

 90 98  0  0  1  0  0  0  0  0999 V2000
  -28.7580  -21.3440   19.4130 C   0  0  0  0  0  2  0  0  0  0  0  0
  -29.1640  -19.5300   20.3720 C   0  0  0  0  0  0  0  0  0  0  0  0
  -28.7020  -20.0280   19.1810 N   0  0  0  0  0  0  0  0  0  0  0  0
  -29.4950  -20.4790   21.2640 N   0  0  0  0  0  2  0  0  0  0  0  0
  -29.2060  -21.6610   20.6310 N   0  0  0  0  0  0  0  0  0  0  0  0
  -29.1220  -18.0430   20.7520 C   0  0  0  0  0  2  0  0  0  0  0  0
  -29.9560  -17.0090   18.5590 C   0  0  0  0  0  1  0  0  0  0  0  0
  -30.1450  -17.0230   20.0980 C   0  0  0  0  0  3  0  0  0  0  0  0
  -30.7550  -14.5560   20.1030 C   0  0  0  0  0  0  0  0  0  0  0  0
  -30.3790  -12.4290   18.8930 C   0  0  0  0  0  2  0  0  0  0  0  0
  -29.3660  -12.6570   17.7510 C   0  0  0  0  0  2  0  0  0  0  0  0
  -27.9200  -12.4960   18.2610 C   0  0  0  0  0  2  0  0  0  0  0  0
  -27.6580  -13.2920   19.5670 C   0  0  0  0  0  3  0  0  0  0  0  0
  -28.7750  -13.0390   20.5990 C   0  0  0  0  0  2  0  0  0  0  0  0
  -30.0600  -13.3850   19.9680 N   0  0  0  0  0  0  0  0  0  0  0  0
  -31.8450  -14.7210   19.5440 O   0  0  0  0  0  0  0  0  0  0  0  0
  -30.0550  -15.6010   22.1410 C   0  0  0  0  0  1  0  0  0  0  0  0
  -30.0970  -15.6200   20.6710 N   0  0  0  0  0  0  0  0  0  0  0  0
  -25.3120  -13.8870   20.4300 C   0  0  0  0  0  0  0  0  0  0  0  0
  -24.2660  -13.1100   20.8480 C   0  0  0  0  0  0  0  0  0  0  0  0
  -24.7230  -11.7590   20.7690 C   0  0  0  0  0  0  0  0  0  0  0  0
  -26.3380  -13.0090   20.1210 N   0  0  0  0  0  0  0  0  0  0  0  0
  -25.9920  -11.7210   20.3830 N   0  0  0  0  0  0  0  0  0  0  0  0
  -24.0070  -10.4930   20.9850 C   0  0  0  0  0  0  0  0  0  0  0  0
  -24.4620   -9.5350   21.9170 C   0  0  0  0  0  3  0  0  0  0  0  0
  -23.7470   -8.3350   22.1140 C   0  0  0  0  0  3  0  0  0  0  0  0
  -22.5630   -8.0850   21.3810 C   0  0  0  0  0  0  0  0  0  0  0  0
  -22.1280   -9.0320   20.4370 C   0  0  0  0  0  3  0  0  0  0  0  0
  -22.8430  -10.2240   20.2370 C   0  0  0  0  0  3  0  0  0  0  0  0
  -21.8170   -6.9360   21.4900 O   0  0  0  0  0  0  0  0  0  0  0  0
  -21.7480   -6.2310   22.6650 C   0  0  0  0  0  0  0  0  0  0  0  0
  -21.2970   -6.8230   23.8640 C   0  0  0  0  0  3  0  0  0  0  0  0
  -21.1750   -6.0440   25.0320 C   0  0  0  0  0  3  0  0  0  0  0  0
  -21.4940   -4.6740   25.0020 C   0  0  0  0  0  0  0  0  0  0  0  0
  -21.9380   -4.0800   23.8060 C   0  0  0  0  0  3  0  0  0  0  0  0
  -22.0610   -4.8560   22.6400 C   0  0  0  0  0  0  0  0  0  0  0  0
  -22.4700   -4.2760   21.4870 F   0  0  0  0  0  0  0  0  0  0  0  0
  -21.3710   -3.9220   26.1200 F   0  0  0  0  0  0  0  0  0  0  0  0
  -22.8880  -13.5860   21.2100 C   0  0  0  0  0  0  0  0  0  0  0  0
  -22.2170  -12.8880   22.1200 N   0  0  0  0  0  0  0  0  0  0  0  0
  -22.4170  -14.6120   20.7210 O   0  0  0  0  0  0  0  0  0  0  0  0
  -22.6120  -12.0590   22.5390 H   0  0  0  0  0  0  0  0  0  0  0  0
  -21.2970  -13.1900   22.4030 H   0  0  0  0  0  0  0  0  0  0  0  0
  -25.4700  -15.2600   20.2680 N   0  0  0  0  0  0  0  0  0  0  0  0
  -24.7170  -15.9190   20.4380 H   0  0  0  0  0  0  0  0  0  0  0  0
  -26.3080  -15.6980   19.9070 H   0  0  0  0  0  0  0  0  0  0  0  0
  -29.2690  -22.9390   21.3750 C   0  0  0  0  0  2  0  0  0  0  0  0
  -29.4990  -24.2880   20.5990 C   0  0  0  0  0  2  0  0  0  0  0  0
  -28.2350  -25.1490   20.2890 C   0  0  0  0  0  2  0  0  0  0  0  0
  -28.4540  -26.5910   20.2150 O   0  0  0  0  0  0  0  0  0  0  0  0
  -24.6500  -31.8440   23.2720 C   0  0  0  0  0  0  0  0  0  0  0  0
  -27.3100  -27.3860   20.1750 C   0  0  0  0  0  0  0  0  0  0  0  0
  -23.4610  -30.4630   21.6040 C   0  0  0  0  0  3  0  0  0  0  0  0
  -24.9270  -28.9420   20.1730 C   0  0  0  0  0  0  0  0  0  0  0  0
  -25.9950  -30.8080   21.4420 C   0  0  0  0  0  2  0  0  0  0  0  0
  -26.0870  -29.4440   20.7790 C   0  0  0  0  0  0  0  0  0  0  0  0
  -27.2820  -28.6770   20.7690 C   0  0  0  0  0  3  0  0  0  0  0  0
  -26.1280  -26.9220   19.5510 C   0  0  0  0  0  3  0  0  0  0  0  0
  -24.9470  -27.6840   19.5530 C   0  0  0  0  0  3  0  0  0  0  0  0
  -23.6870  -29.8050   20.2180 C   0  0  0  0  0  2  0  0  0  0  0  0
  -24.7190  -31.0540   22.1630 N   0  0  0  0  0  0  0  0  0  0  0  0
  -23.5630  -32.1100   23.8050 O   0  0  0  0  0  0  0  0  0  0  0  0
  -22.7980  -29.4300   22.5450 C   0  0  0  0  0  0  0  0  0  0  0  0
  -21.4710  -29.2570   22.4100 N   0  0  0  0  0  0  0  0  0  0  0  0
  -23.4730  -28.7910   23.3550 O   0  0  0  0  0  0  0  0  0  0  0  0
  -20.9880  -29.8250   21.7300 H   0  0  0  0  0  0  0  0  0  0  0  0
  -18.0880  -28.0780   22.8890 C   0  0  0  0  0  0  0  0  0  0  0  0
  -20.6480  -28.3120   23.1630 C   0  0  0  0  0  3  0  0  0  0  0  0
  -20.7390  -26.8900   22.5610 C   0  0  0  0  0  2  0  0  0  0  0  0
  -19.6330  -26.5940   21.5420 C   0  0  0  0  0  2  0  0  0  0  0  0
  -18.2530  -26.7400   22.1890 C   0  0  0  0  0  2  0  0  0  0  0  0
  -19.2130  -28.8230   23.3330 C   0  0  0  0  0  0  0  0  0  0  0  0
  -19.0040  -30.0780   23.9470 C   0  0  0  0  0  3  0  0  0  0  0  0
  -17.7040  -30.5870   24.1220 C   0  0  0  0  0  3  0  0  0  0  0  0
  -16.5930  -29.8390   23.6940 C   0  0  0  0  0  3  0  0  0  0  0  0
  -16.7860  -28.5860   23.0830 C   0  0  0  0  0  3  0  0  0  0  0  0
  -25.9290  -32.4690   23.9100 C   0  0  0  0  0  3  0  0  0  0  0  0
  -25.6160  -33.8640   24.2490 N   0  0  0  0  0  0  0  0  0  0  0  0
  -25.9530  -34.9240   23.5010 C   0  0  0  0  0  0  0  0  0  0  0  0
  -26.6310  -34.8290   22.4740 O   0  0  0  0  0  0  0  0  0  0  0  0
  -25.0190  -34.0130   25.0490 H   0  0  0  0  0  0  0  0  0  0  0  0
  -24.2290  -36.7190   23.1440 C   0  0  0  0  0  1  0  0  0  0  0  0
  -25.4610  -36.3070   23.9650 C   0  0  0  0  0  3  0  0  0  0  0  0
  -27.5870  -37.1840   24.8270 C   0  0  0  0  0  1  0  0  0  0  0  0
  -26.4940  -37.3620   23.8730 N   0  0  0  0  0  0  0  0  0  0  0  0
  -26.0850  -38.2800   24.0280 H   0  0  0  0  0  0  0  0  0  0  0  0
  -26.4330  -31.6880   25.1850 C   0  0  1  0  0  0  0  0  0  0  0  0
  -25.3320  -31.4470   26.2410 C   0  0  0  0  0  1  0  0  0  0  0  0
  -27.0170  -30.3100   24.7900 C   0  0  0  0  0  1  0  0  0  0  0  0
  -27.5770  -32.4750   25.8650 C   0  0  0  0  0  1  0  0  0  0  0  0
  1  5  1  0
  2  6  1  0
  2  4  1  0
  3  1  1  0
  3  2  2  0
  5  4  1  0
  5 47  1  0
  8  7  1  0
  8 18  1  0
  8  6  1  0
  9 18  1  0
 10 15  1  0
 11 12  1  0
 11 10  1  0
 13 12  1  0
 13 22  1  0
 13 14  1  0
 15  9  1  0
 15 14  1  0
 16  9  2  0
 18 17  1  0
 19 20  2  0
 20 39  1  0
 21 20  1  0
 21 24  1  0
 22 23  1  0
 22 19  1  0
 23 21  2  0
 24 25  1  0
 25 26  2  0
 27 30  1  0
 27 26  1  0
 28 27  2  0
 29 28  1  0
 29 24  2  0
 30 31  1  0
 31 32  1  0
 32 33  2  0
 34 33  1  0
 34 38  1  0
 35 34  2  0
 36 31  2  0
 36 35  1  0
 37 36  1  0
 39 40  1  0
 40 43  1  0
 40 42  1  0
 41 39  2  0
 44 19  1  0
 44 45  1  0
 46 44  1  0
 48 47  1  0
 49 48  1  0
 50 49  1  0
 51 62  2  0
 52 50  1  0
 52 57  1  0
 53 61  1  0
 53 63  1  0
 54 60  1  0
 54 56  1  0
 55 61  1  0
 56 55  1  0
 57 56  2  0
 58 59  1  0
 58 52  2  0
 59 54  2  0
 60 53  1  0
 61 51  1  0
 63 65  2  0
 64 63  1  0
 66 64  1  0
 67 76  2  0
 67 72  1  0
 68 64  1  0
 68 72  1  0
 69 68  1  0
 70 71  1  0
 70 69  1  0
 71 67  1  0
 72 73  2  0
 73 74  1  0
 75 74  2  0
 76 75  1  0
 77 51  1  0
 77 78  1  0
 77 87  1  0
 78 81  1  0
 79 83  1  0
 79 78  1  0
 80 79  2  0
 83 82  1  0
 85 83  1  0
 85 86  1  0
 85 84  1  0
 87 90  1  1
 87 88  1  0
 89 87  1  0
M  ISO  4   9 100  18 100  49 101  50 101
M  END
>  <TORSDO>  (67) 
F 21

>  <SCORE>  (67) 
-12.713

>  <name>  (67) 
72

>  <ligand_id>  (67) 
72

>  <original_smiles>  (67) 
[H]c1c([H])c([H])c2c(c1[H])C([H])([H])C([H])([H])C([H])([H])C2([H])N([H])C(=O)C1([H])N(C(=O)C([H])(N([H])C(=O)C([H])(N([H])C([H])([H])[H])C([H])([H])[H])C(C([H])([H])[H])(C([H])([H])[H])C([H])([H])[H])C([H])([H])c2c([H])c(OC([H])([H])C([H])([H])C([H])([H])n3nc(C([H])([H])C([H])(N(C(=O)N4C([H])([H])C([H])([H])C([H])([H])C([H])(n5nc(-c6c([H])c([H])c(Oc7c([H])c([H])c(F)c([H])c7F)c([H])c6[H])c(C(=O)N([H])[H])c5N([H])[H])C4([H])[H])C([H])([H])[H])C([H])([H])[H])nc3[H])c([H])c([H])c2C1([H])[H]

>  <smiles>  (67) 
[H]c1c([H])c([H])c2c(c1[H])C([H])([H])C([H])([H])C([H])([H])C2([H])N([H])C(=O)C1([H])N(C(=O)C([H])(N([H])C(=O)C([H])(N([H])C([H])([H])[H])C([H])([H])[H])C(C([H])([H])[H])(C([H])([H])[H])C([H])([H])[H])C([H])([H])c2c([H])c(OC([H])([H])C([H])([H])C([H])([H])n3nc(C([H])([H])C([H])(N(C(=O)N4C([H])([H])C([H])([H])C([H])([H])C([H])(n5nc(-c6c([H])c([H])c(Oc7c([H])c([H])c(F)c([H])c7F)c([H])c6[H])c(C(=O)N([H])[H])c5N([H])[H])C4([H])[H])C([H])([H])[H])C([H])([H])[H])nc3[H])c([H])c([H])c2C1([H])[H]

$$$$
74:0:0
     RDKit          3D

 91 99  0  0  1  0  0  0  0  0999 V2000
  -29.1300  -22.2180   19.7710 C   0  0  0  0  0  3  0  0  0  0  0  0
  -28.5300  -23.6240   20.3880 C   0  0  0  0  0  3  0  0  0  0  0  0
  -30.2370  -25.3020   19.5400 C   0  0  0  0  0  1  0  0  0  0  0  0
  -28.1970  -24.9810   18.1880 C   0  0  0  0  0  1  0  0  0  0  0  0
  -28.7170  -25.0730   19.6380 C   0  0  1  0  0  0  0  0  0  0  0  0
  -28.3760  -26.4070   20.2940 O   0  0  0  0  0  0  0  0  0  0  0  0
  -24.6070  -31.8890   23.2050 C   0  0  0  0  0  0  0  0  0  0  0  0
  -27.2240  -27.2340   20.2090 C   0  0  0  0  0  0  0  0  0  0  0  0
  -23.4070  -30.4710   21.5800 C   0  0  0  0  0  3  0  0  0  0  0  0
  -24.8580  -28.8890   20.1800 C   0  0  0  0  0  0  0  0  0  0  0  0
  -25.9510  -30.7690   21.4020 C   0  0  0  0  0  2  0  0  0  0  0  0
  -26.0290  -29.3770   20.7700 C   0  0  0  0  0  0  0  0  0  0  0  0
  -27.2070  -28.5620   20.7700 C   0  0  0  0  0  3  0  0  0  0  0  0
  -26.0120  -26.8040   19.6250 C   0  0  0  0  0  3  0  0  0  0  0  0
  -24.8550  -27.6110   19.6010 C   0  0  0  0  0  3  0  0  0  0  0  0
  -23.6250  -29.7740   20.2110 C   0  0  0  0  0  2  0  0  0  0  0  0
  -24.6740  -31.0640   22.1190 N   0  0  0  0  0  0  0  0  0  0  0  0
  -23.5210  -32.1750   23.7330 O   0  0  0  0  0  0  0  0  0  0  0  0
  -22.7370  -29.4720   22.5540 C   0  0  0  0  0  0  0  0  0  0  0  0
  -21.4100  -29.2980   22.4290 N   0  0  0  0  0  0  0  0  0  0  0  0
  -23.4120  -28.8550   23.3830 O   0  0  0  0  0  0  0  0  0  0  0  0
  -20.9240  -29.8480   21.7340 H   0  0  0  0  0  0  0  0  0  0  0  0
  -18.0280  -28.1160   22.9460 C   0  0  0  0  0  0  0  0  0  0  0  0
  -20.5880  -28.3700   23.2100 C   0  0  0  0  0  3  0  0  0  0  0  0
  -20.6840  -26.9330   22.6480 C   0  0  0  0  0  2  0  0  0  0  0  0
  -19.5810  -26.6040   21.6380 C   0  0  0  0  0  2  0  0  0  0  0  0
  -18.2000  -26.7600   22.2830 C   0  0  0  0  0  2  0  0  0  0  0  0
  -19.1500  -28.8790   23.3680 C   0  0  0  0  0  0  0  0  0  0  0  0
  -18.9360  -30.1480   23.9490 C   0  0  0  0  0  3  0  0  0  0  0  0
  -17.6330  -30.6540   24.1120 C   0  0  0  0  0  3  0  0  0  0  0  0
  -16.5260  -29.8890   23.7070 C   0  0  0  0  0  3  0  0  0  0  0  0
  -16.7240  -28.6220   23.1290 C   0  0  0  0  0  3  0  0  0  0  0  0
  -25.8860  -32.5320   23.8260 C   0  0  0  0  0  3  0  0  0  0  0  0
  -25.5690  -33.9280   24.1580 N   0  0  0  0  0  0  0  0  0  0  0  0
  -25.8970  -34.9870   23.4060 C   0  0  0  0  0  0  0  0  0  0  0  0
  -26.5690  -34.8910   22.3750 O   0  0  0  0  0  0  0  0  0  0  0  0
  -24.9740  -34.0770   24.9600 H   0  0  0  0  0  0  0  0  0  0  0  0
  -24.1670  -36.7790   23.0520 C   0  0  0  0  0  1  0  0  0  0  0  0
  -25.4040  -36.3710   23.8690 C   0  0  0  0  0  3  0  0  0  0  0  0
  -27.5290  -37.2570   24.7210 C   0  0  0  0  0  1  0  0  0  0  0  0
  -26.4350  -37.4270   23.7700 N   0  0  0  0  0  0  0  0  0  0  0  0
  -26.0250  -38.3450   23.9200 H   0  0  0  0  0  0  0  0  0  0  0  0
  -26.4090  -31.7650   25.1040 C   0  0  1  0  0  0  0  0  0  0  0  0
  -25.3180  -31.5230   26.1730 C   0  0  0  0  0  1  0  0  0  0  0  0
  -26.9990  -30.3910   24.7130 C   0  0  0  0  0  1  0  0  0  0  0  0
  -27.5550  -32.5680   25.7630 C   0  0  0  0  0  1  0  0  0  0  0  0
  -29.0040  -20.9420   20.5440 O   0  0  0  0  0  0  0  0  0  0  0  0
  -30.2800  -18.0580   19.0370 C   0  0  0  0  0  2  0  0  0  0  0  0
  -29.4580  -19.6490   20.1210 C   0  0  0  0  0  0  0  0  0  0  0  0
  -30.0180  -19.3840   18.9020 N   0  0  0  0  0  0  0  0  0  0  0  0
  -29.3780  -18.5730   20.9360 N   0  0  0  0  0  0  0  0  0  0  0  0
  -29.9120  -17.4930   20.2080 N   0  0  0  0  0  0  0  0  0  0  0  0
  -28.9880  -15.8380   21.8300 C   0  0  0  0  0  1  0  0  0  0  0  0
  -31.3890  -16.3240   21.7750 C   0  0  0  0  0  1  0  0  0  0  0  0
  -30.1600  -16.1000   20.8570 C   0  0  2  0  0  0  0  0  0  0  0  0
  -30.5780  -14.7780   19.9600 C   0  0  0  0  0  0  0  0  0  0  0  0
  -30.2960  -12.5530   18.7930 C   0  0  0  0  0  2  0  0  0  0  0  0
  -29.2540  -12.6630   17.6530 C   0  0  0  0  0  2  0  0  0  0  0  0
  -27.8180  -12.4620   18.1830 C   0  0  0  0  0  2  0  0  0  0  0  0
  -27.5570  -13.2690   19.4800 C   0  0  0  0  0  3  0  0  0  0  0  0
  -28.7030  -13.0450   20.4850 C   0  0  0  0  0  2  0  0  0  0  0  0
  -29.9420  -13.5390   19.8560 N   0  0  0  0  0  0  0  0  0  0  0  0
  -31.6280  -14.8980   19.3160 O   0  0  0  0  0  0  0  0  0  0  0  0
  -25.2370  -13.8460   20.4080 C   0  0  0  0  0  0  0  0  0  0  0  0
  -24.1990  -13.0650   20.8390 C   0  0  0  0  0  0  0  0  0  0  0  0
  -24.6500  -11.7140   20.7260 C   0  0  0  0  0  0  0  0  0  0  0  0
  -26.2520  -12.9710   20.0600 N   0  0  0  0  0  0  0  0  0  0  0  0
  -25.9110  -11.6800   20.3090 N   0  0  0  0  0  0  0  0  0  0  0  0
  -23.9340  -10.4490   20.9350 C   0  0  0  0  0  0  0  0  0  0  0  0
  -24.3950   -9.4810   21.8530 C   0  0  0  0  0  3  0  0  0  0  0  0
  -23.6780   -8.2810   22.0500 C   0  0  0  0  0  3  0  0  0  0  0  0
  -22.4850   -8.0410   21.3270 C   0  0  0  0  0  0  0  0  0  0  0  0
  -22.0420   -8.9990   20.3980 C   0  0  0  0  0  3  0  0  0  0  0  0
  -22.7600  -10.1890   20.2000 C   0  0  0  0  0  3  0  0  0  0  0  0
  -21.7360   -6.8930   21.4330 O   0  0  0  0  0  0  0  0  0  0  0  0
  -21.6760   -6.1790   22.6030 C   0  0  0  0  0  0  0  0  0  0  0  0
  -21.2320   -6.7620   23.8100 C   0  0  0  0  0  3  0  0  0  0  0  0
  -21.1200   -5.9730   24.9730 C   0  0  0  0  0  3  0  0  0  0  0  0
  -21.4420   -4.6030   24.9290 C   0  0  0  0  0  0  0  0  0  0  0  0
  -21.8790   -4.0200   23.7270 C   0  0  0  0  0  3  0  0  0  0  0  0
  -21.9930   -4.8060   22.5670 C   0  0  0  0  0  0  0  0  0  0  0  0
  -22.3940   -4.2350   21.4050 F   0  0  0  0  0  0  0  0  0  0  0  0
  -21.3270   -3.8440   26.0430 F   0  0  0  0  0  0  0  0  0  0  0  0
  -22.8330  -13.5380   21.2400 C   0  0  0  0  0  0  0  0  0  0  0  0
  -22.1740  -12.8170   22.1410 N   0  0  0  0  0  0  0  0  0  0  0  0
  -22.3620  -14.5820   20.7920 O   0  0  0  0  0  0  0  0  0  0  0  0
  -22.5700  -11.9710   22.5240 H   0  0  0  0  0  0  0  0  0  0  0  0
  -21.2600  -13.1160   22.4510 H   0  0  0  0  0  0  0  0  0  0  0  0
  -25.3900  -15.2220   20.2600 N   0  0  0  0  0  0  0  0  0  0  0  0
  -24.6370  -15.8720   20.4540 H   0  0  0  0  0  0  0  0  0  0  0  0
  -26.2100  -15.6720   19.8710 H   0  0  0  0  0  0  0  0  0  0  0  0
  1  2  2  0
  1 47  1  0
  5  3  1  6
  4  5  1  0
  5  6  1  0
  5  2  1  0
  7 18  2  0
  8  6  1  0
  8 13  1  0
  9 17  1  0
  9 19  1  0
 10 16  1  0
 10 12  1  0
 11 17  1  0
 12 11  1  0
 13 12  2  0
 14  8  2  0
 15 14  1  0
 15 10  2  0
 16  9  1  0
 17  7  1  0
 19 21  2  0
 20 19  1  0
 22 20  1  0
 23 32  2  0
 23 28  1  0
 24 20  1  0
 24 28  1  0
 25 24  1  0
 26 27  1  0
 26 25  1  0
 27 23  1  0
 28 29  2  0
 29 30  1  0
 31 30  2  0
 32 31  1  0
 33  7  1  0
 33 34  1  0
 33 43  1  0
 34 37  1  0
 35 39  1  0
 35 34  1  0
 36 35  2  0
 39 38  1  0
 41 39  1  0
 41 42  1  0
 41 40  1  0
 43 46  1  1
 43 44  1  0
 45 43  1  0
 48 52  1  0
 49 47  1  0
 49 51  2  0
 50 48  1  0
 50 49  2  0
 52 55  1  0
 52 51  1  0
 55 54  1  1
 55 53  1  0
 56 55  1  0
 57 62  1  0
 58 59  1  0
 58 57  1  0
 60 59  1  0
 60 67  1  0
 60 61  1  0
 62 56  1  0
 62 61  1  0
 63 56  2  0
 64 65  2  0
 65 84  1  0
 66 65  1  0
 66 69  1  0
 67 68  1  0
 67 64  1  0
 68 66  2  0
 69 70  1  0
 70 71  2  0
 72 75  1  0
 72 71  1  0
 73 72  2  0
 74 73  1  0
 74 69  2  0
 75 76  1  0
 76 77  1  0
 77 78  2  0
 79 78  1  0
 79 83  1  0
 80 79  2  0
 81 76  2  0
 81 80  1  0
 82 81  1  0
 84 85  1  0
 85 88  1  0
 85 87  1  0
 86 84  2  0
 89 64  1  0
 89 90  1  0
 91 89  1  0
M  ISO  4   5 101   6 101  55 100  56 100
M  END
>  <TORSDO>  (68) 
F 21

>  <SCORE>  (68) 
-12.292

>  <name>  (68) 
74

>  <ligand_id>  (68) 
74

>  <original_smiles>  (68) 
[H]c1c([H])c([H])c2c(c1[H])C([H])([H])C([H])([H])C([H])([H])C2([H])N([H])C(=O)C1([H])N(C(=O)C([H])(N([H])C(=O)C([H])(N([H])C([H])([H])[H])C([H])([H])[H])C(C([H])([H])[H])(C([H])([H])[H])C([H])([H])[H])C([H])([H])c2c([H])c(OC(C([H])([H])[H])(C([H])([H])[H])C([H])([H])C([H])([H])Oc3nc([H])n(C(C(=O)N4C([H])([H])C([H])([H])C([H])([H])C([H])(n5nc(-c6c([H])c([H])c(Oc7c([H])c([H])c(F)c([H])c7F)c([H])c6[H])c(C(=O)N([H])[H])c5N([H])[H])C4([H])[H])(C([H])([H])[H])C([H])([H])[H])n3)c([H])c([H])c2C1([H])[H]

>  <smiles>  (68) 
[H]c1c([H])c([H])c2c(c1[H])C([H])([H])C([H])([H])C([H])([H])C2([H])N([H])C(=O)C1([H])N(C(=O)C([H])(N([H])C(=O)C([H])(N([H])C([H])([H])[H])C([H])([H])[H])C(C([H])([H])[H])(C([H])([H])[H])C([H])([H])[H])C([H])([H])c2c([H])c(OC(C([H])([H])[H])(C([H])([H])[H])C([H])([H])C([H])([H])Oc3nc([H])n(C(C(=O)N4C([H])([H])C([H])([H])C([H])([H])C([H])(n5nc(-c6c([H])c([H])c(Oc7c([H])c([H])c(F)c([H])c7F)c([H])c6[H])c(C(=O)N([H])[H])c5N([H])[H])C4([H])[H])(C([H])([H])[H])C([H])([H])[H])n3)c([H])c([H])c2C1([H])[H]

$$$$
75:0:0
     RDKit          3D

 94102  0  0  1  0  0  0  0  0999 V2000
  -29.4730  -20.1170   19.5320 C   0  0  0  0  0  3  0  0  0  0  0  0
  -30.2040  -19.0390   20.0630 C   0  0  0  0  0  0  0  0  0  0  0  0
  -30.9180  -19.7250   21.1120 C   0  0  0  0  0  0  0  0  0  0  0  0
  -30.6020  -21.0350   21.1950 N   0  0  0  0  0  0  0  0  0  0  0  0
  -29.7370  -21.3410   20.2010 N   0  0  0  0  0  0  0  0  0  0  0  0
  -32.0030  -19.1970   22.0470 C   0  0  1  0  0  0  0  0  0  0  0  0
  -32.4290  -17.9920   21.6770 F   0  0  0  0  0  0  0  0  0  0  0  0
  -33.0570  -20.0180   22.0350 F   0  0  0  0  0  0  0  0  0  0  0  0
  -31.5420  -19.1250   23.2980 F   0  0  0  0  0  0  0  0  0  0  0  0
  -30.3520  -17.5290   19.5060 C   0  0  0  0  0  2  0  0  0  0  0  0
  -30.9140  -15.0230   20.0770 C   0  0  0  0  0  0  0  0  0  0  0  0
  -30.7010  -12.7210   19.0940 C   0  0  0  0  0  2  0  0  0  0  0  0
  -29.7060  -12.7230   17.9140 C   0  0  0  0  0  2  0  0  0  0  0  0
  -28.2560  -12.5330   18.4050 C   0  0  0  0  0  2  0  0  0  0  0  0
  -27.9210  -13.4440   19.6150 C   0  0  0  0  0  3  0  0  0  0  0  0
  -29.0270  -13.3530   20.6860 C   0  0  0  0  0  2  0  0  0  0  0  0
  -30.2810  -13.7850   20.0450 N   0  0  0  0  0  0  0  0  0  0  0  0
  -32.0580  -15.0940   19.6170 O   0  0  0  0  0  0  0  0  0  0  0  0
  -29.2870  -16.3590   21.4440 C   0  0  0  0  0  1  0  0  0  0  0  0
  -30.1850  -16.2130   20.2990 N   0  0  0  0  0  0  0  0  0  0  0  0
  -25.5800  -14.0360   20.4790 C   0  0  0  0  0  0  0  0  0  0  0  0
  -24.5250  -13.2630   20.8770 C   0  0  0  0  0  0  0  0  0  0  0  0
  -24.9680  -11.9080   20.7750 C   0  0  0  0  0  0  0  0  0  0  0  0
  -26.6010  -13.1550   20.1640 N   0  0  0  0  0  0  0  0  0  0  0  0
  -26.2420  -11.8680   20.4020 N   0  0  0  0  0  0  0  0  0  0  0  0
  -24.2330  -10.6490   20.9570 C   0  0  0  0  0  0  0  0  0  0  0  0
  -24.6350   -9.6920   21.9150 C   0  0  0  0  0  3  0  0  0  0  0  0
  -23.9020   -8.4980   22.0810 C   0  0  0  0  0  3  0  0  0  0  0  0
  -22.7550   -8.2520   21.2910 C   0  0  0  0  0  0  0  0  0  0  0  0
  -22.3720   -9.1980   20.3250 C   0  0  0  0  0  3  0  0  0  0  0  0
  -23.1050  -10.3850   20.1570 C   0  0  0  0  0  3  0  0  0  0  0  0
  -21.9960   -7.1090   21.3680 O   0  0  0  0  0  0  0  0  0  0  0  0
  -21.8270   -6.4370   22.5520 C   0  0  0  0  0  0  0  0  0  0  0  0
  -21.2130   -7.0420   23.6700 C   0  0  0  0  0  3  0  0  0  0  0  0
  -20.9920   -6.2920   24.8430 C   0  0  0  0  0  3  0  0  0  0  0  0
  -21.3780   -4.9390   24.8990 C   0  0  0  0  0  0  0  0  0  0  0  0
  -21.9850   -4.3340   23.7840 C   0  0  0  0  0  3  0  0  0  0  0  0
  -22.2050   -5.0810   22.6140 C   0  0  0  0  0  0  0  0  0  0  0  0
  -22.7700   -4.4860   21.5350 F   0  0  0  0  0  0  0  0  0  0  0  0
  -21.1590   -4.2170   26.0220 F   0  0  0  0  0  0  0  0  0  0  0  0
  -23.1520  -13.7480   21.2410 C   0  0  0  0  0  0  0  0  0  0  0  0
  -22.4630  -13.0310   22.1220 N   0  0  0  0  0  0  0  0  0  0  0  0
  -22.7020  -14.7970   20.7820 O   0  0  0  0  0  0  0  0  0  0  0  0
  -22.8430  -12.1840   22.5150 H   0  0  0  0  0  0  0  0  0  0  0  0
  -21.5430  -13.3360   22.4050 H   0  0  0  0  0  0  0  0  0  0  0  0
  -25.7530  -15.4100   20.3320 N   0  0  0  0  0  0  0  0  0  0  0  0
  -25.0060  -16.0750   20.4950 H   0  0  0  0  0  0  0  0  0  0  0  0
  -26.5940  -15.8400   19.9700 H   0  0  0  0  0  0  0  0  0  0  0  0
  -29.4870  -22.8260   19.8660 C   0  0  0  0  0  2  0  0  0  0  0  0
  -27.1100  -23.5470   19.2290 C   0  0  0  0  0  1  0  0  0  0  0  0
  -27.5980  -22.9550   21.5700 C   0  0  0  0  0  1  0  0  0  0  0  0
  -28.1750  -23.6760   20.3290 C   0  0  1  0  0  0  0  0  0  0  0  0
  -28.3370  -25.2620   20.7580 C   0  0  0  0  0  2  0  0  0  0  0  0
  -28.3260  -26.4990   19.9080 O   0  0  0  0  0  0  0  0  0  0  0  0
  -24.6220  -31.9000   23.1160 C   0  0  0  0  0  0  0  0  0  0  0  0
  -27.2240  -27.3790   19.9640 C   0  0  0  0  0  0  0  0  0  0  0  0
  -23.4160  -30.5280   21.4560 C   0  0  0  0  0  3  0  0  0  0  0  0
  -24.8640  -29.0110   19.9890 C   0  0  0  0  0  0  0  0  0  0  0  0
  -25.9540  -30.8530   21.2660 C   0  0  0  0  0  2  0  0  0  0  0  0
  -26.0350  -29.4820   20.5990 C   0  0  0  0  0  0  0  0  0  0  0  0
  -27.2200  -28.6760   20.5770 C   0  0  0  0  0  3  0  0  0  0  0  0
  -26.0360  -26.9780   19.3210 C   0  0  0  0  0  3  0  0  0  0  0  0
  -24.8710  -27.7700   19.3350 C   0  0  0  0  0  3  0  0  0  0  0  0
  -23.6250  -29.8810   20.0620 C   0  0  0  0  0  2  0  0  0  0  0  0
  -24.6830  -31.1140   22.0010 N   0  0  0  0  0  0  0  0  0  0  0  0
  -23.5400  -32.1590   23.6650 O   0  0  0  0  0  0  0  0  0  0  0  0
  -22.7630  -29.4910   22.4020 C   0  0  0  0  0  0  0  0  0  0  0  0
  -21.4320  -29.3220   22.2930 N   0  0  0  0  0  0  0  0  0  0  0  0
  -23.4530  -28.8420   23.1930 O   0  0  0  0  0  0  0  0  0  0  0  0
  -20.9330  -29.8980   21.6300 H   0  0  0  0  0  0  0  0  0  0  0  0
  -18.0620  -28.1210   22.8260 C   0  0  0  0  0  0  0  0  0  0  0  0
  -20.6260  -28.3660   23.0580 C   0  0  0  0  0  3  0  0  0  0  0  0
  -20.7100  -26.9470   22.4480 C   0  0  0  0  0  2  0  0  0  0  0  0
  -19.5970  -26.6660   21.4340 C   0  0  0  0  0  2  0  0  0  0  0  0
  -18.2220  -26.7990   22.0950 C   0  0  0  0  0  2  0  0  0  0  0  0
  -19.1900  -28.8670   23.2590 C   0  0  0  0  0  0  0  0  0  0  0  0
  -18.9850  -30.1100   23.8970 C   0  0  0  0  0  3  0  0  0  0  0  0
  -17.6840  -30.6090   24.1000 C   0  0  0  0  0  3  0  0  0  0  0  0
  -16.5710  -29.8600   23.6810 C   0  0  0  0  0  3  0  0  0  0  0  0
  -16.7600  -28.6160   23.0520 C   0  0  0  0  0  3  0  0  0  0  0  0
  -25.9040  -32.5290   23.7450 C   0  0  0  0  0  3  0  0  0  0  0  0
  -25.5880  -33.9180   24.1100 N   0  0  0  0  0  0  0  0  0  0  0  0
  -25.9090  -34.9900   23.3730 C   0  0  0  0  0  0  0  0  0  0  0  0
  -26.5680  -34.9150   22.3330 O   0  0  0  0  0  0  0  0  0  0  0  0
  -25.0020  -34.0500   24.9210 H   0  0  0  0  0  0  0  0  0  0  0  0
  -24.1780  -36.7910   23.0740 C   0  0  0  0  0  1  0  0  0  0  0  0
  -25.4220  -36.3650   23.8710 C   0  0  0  0  0  3  0  0  0  0  0  0
  -27.5500  -37.2400   24.7300 C   0  0  0  0  0  1  0  0  0  0  0  0
  -26.4530  -37.4210   23.7830 N   0  0  0  0  0  0  0  0  0  0  0  0
  -26.0440  -38.3380   23.9430 H   0  0  0  0  0  0  0  0  0  0  0  0
  -26.4360  -31.7340   25.0010 C   0  0  1  0  0  0  0  0  0  0  0  0
  -25.3510  -31.4600   26.0690 C   0  0  0  0  0  1  0  0  0  0  0  0
  -27.0300  -30.3720   24.5760 C   0  0  0  0  0  1  0  0  0  0  0  0
  -27.5840  -32.5200   25.6740 C   0  0  0  0  0  1  0  0  0  0  0  0
  1  2  2  0
  1  5  1  0
  2  3  1  0
  3  4  2  0
  3  6  1  0
  5  4  1  0
  6  9  1  1
  7  6  1  0
  8  6  1  0
 10  2  1  0
 10 20  1  0
 11 20  1  0
 12 17  1  0
 13 14  1  0
 13 12  1  0
 15 14  1  0
 15 24  1  0
 15 16  1  0
 17 11  1  0
 17 16  1  0
 18 11  2  0
 20 19  1  0
 21 22  2  0
 22 41  1  0
 23 22  1  0
 23 26  1  0
 24 25  1  0
 24 21  1  0
 25 23  2  0
 26 27  1  0
 27 28  2  0
 29 32  1  0
 29 28  1  0
 30 29  2  0
 31 30  1  0
 31 26  2  0
 32 33  1  0
 33 38  2  0
 33 34  1  0
 34 35  2  0
 35 36  1  0
 36 40  1  0
 37 36  2  0
 38 37  1  0
 39 38  1  0
 41 42  1  0
 42 45  1  0
 42 44  1  0
 43 41  2  0
 46 21  1  0
 46 47  1  0
 48 46  1  0
 49  5  1  0
 49 52  1  0
 52 50  1  6
 52 53  1  0
 52 51  1  0
 54 56  1  0
 54 53  1  0
 55 66  2  0
 56 61  1  0
 57 65  1  0
 57 67  1  0
 58 64  1  0
 58 60  1  0
 59 65  1  0
 60 59  1  0
 61 60  2  0
 62 63  1  0
 62 56  2  0
 63 58  2  0
 64 57  1  0
 65 55  1  0
 67 69  2  0
 68 67  1  0
 70 68  1  0
 71 80  2  0
 71 76  1  0
 72 68  1  0
 72 76  1  0
 73 72  1  0
 74 75  1  0
 74 73  1  0
 75 71  1  0
 76 77  2  0
 77 78  1  0
 79 78  2  0
 80 79  1  0
 81 55  1  0
 81 82  1  0
 81 91  1  0
 82 85  1  0
 83 87  1  0
 83 82  1  0
 84 83  2  0
 87 86  1  0
 89 87  1  0
 89 90  1  0
 89 88  1  0
 91 94  1  1
 91 92  1  0
 93 91  1  0
M  ISO  4  11 100  20 100  53 101  54 101
M  END
>  <TORSDO>  (69) 
F 21

>  <SCORE>  (69) 
-13.318

>  <name>  (69) 
75

>  <ligand_id>  (69) 
75

>  <original_smiles>  (69) 
[H]c1c([H])c([H])c2c(c1[H])C([H])([H])C([H])([H])C([H])([H])C2([H])N([H])C(=O)C1([H])N(C(=O)C([H])(N([H])C(=O)C([H])(N([H])C([H])([H])[H])C([H])([H])[H])C(C([H])([H])[H])(C([H])([H])[H])C([H])([H])[H])C([H])([H])c2c([H])c(OC([H])([H])C(C([H])([H])[H])(C([H])([H])[H])C([H])([H])n3nc(C(F)(F)F)c(C([H])([H])N(C(=O)N4C([H])([H])C([H])([H])C([H])([H])C([H])(n5nc(-c6c([H])c([H])c(Oc7c([H])c([H])c(F)c([H])c7F)c([H])c6[H])c(C(=O)N([H])[H])c5N([H])[H])C4([H])[H])C([H])([H])[H])c3[H])c([H])c([H])c2C1([H])[H]

>  <smiles>  (69) 
[H]c1c([H])c([H])c2c(c1[H])C([H])([H])C([H])([H])C([H])([H])C2([H])N([H])C(=O)C1([H])N(C(=O)C([H])(N([H])C(=O)C([H])(N([H])C([H])([H])[H])C([H])([H])[H])C(C([H])([H])[H])(C([H])([H])[H])C([H])([H])[H])C([H])([H])c2c([H])c(OC([H])([H])C(C([H])([H])[H])(C([H])([H])[H])C([H])([H])n3nc(C(F)(F)F)c(C([H])([H])N(C(=O)N4C([H])([H])C([H])([H])C([H])([H])C([H])(n5nc(-c6c([H])c([H])c(Oc7c([H])c([H])c(F)c([H])c7F)c([H])c6[H])c(C(=O)N([H])[H])c5N([H])[H])C4([H])[H])C([H])([H])[H])c3[H])c([H])c([H])c2C1([H])[H]

$$$$
76:0:0
     RDKit          3D

 96104  0  0  1  0  0  0  0  0999 V2000
  -28.4600  -20.8390   20.6240 C   0  0  0  0  0  0  0  0  0  0  0  0
  -28.8910  -21.9490   21.4090 C   0  0  0  0  0  0  0  0  0  0  0  0
  -30.2180  -19.5520   21.4200 C   0  0  0  0  0  0  0  0  0  0  0  0
  -30.5910  -20.6070   22.2980 C   0  0  0  0  0  0  0  0  0  0  0  0
  -29.1600  -19.6860   20.5920 N   0  0  0  0  0  0  0  0  0  0  0  0
  -29.9490  -21.8160   22.2500 N   0  0  0  0  0  0  0  0  0  0  0  0
  -31.7310  -20.4690   23.3150 C   0  0  1  0  0  0  0  0  0  0  0  0
  -32.9070  -20.4900   22.6860 F   0  0  0  0  0  0  0  0  0  0  0  0
  -31.7110  -21.4610   24.2090 F   0  0  0  0  0  0  0  0  0  0  0  0
  -31.6200  -19.3200   23.9860 F   0  0  0  0  0  0  0  0  0  0  0  0
  -27.5120  -20.9480   18.2920 C   0  0  0  0  0  1  0  0  0  0  0  0
  -27.2020  -20.7820   19.7800 C   0  0  0  0  0  2  0  0  0  0  0  0
  -28.1830  -23.3120   21.4460 C   0  0  0  0  0  2  0  0  0  0  0  0
  -28.8130  -24.4550   20.5950 C   0  0  0  0  0  2  0  0  0  0  0  0
  -28.2110  -25.8260   20.9900 C   0  0  0  0  0  2  0  0  0  0  0  0
  -28.3130  -26.8780   20.0090 O   0  0  0  0  0  0  0  0  0  0  0  0
  -24.5410  -31.9720   23.2350 C   0  0  0  0  0  0  0  0  0  0  0  0
  -27.1810  -27.6610   19.9870 C   0  0  0  0  0  0  0  0  0  0  0  0
  -23.3200  -30.6070   21.5700 C   0  0  0  0  0  3  0  0  0  0  0  0
  -24.7710  -29.1330   20.0700 C   0  0  0  0  0  0  0  0  0  0  0  0
  -25.8380  -31.0050   21.3400 C   0  0  0  0  0  2  0  0  0  0  0  0
  -25.9330  -29.6570   20.6540 C   0  0  0  0  0  0  0  0  0  0  0  0
  -27.1440  -28.9290   20.6110 C   0  0  0  0  0  3  0  0  0  0  0  0
  -26.0100  -27.1530   19.3900 C   0  0  0  0  0  3  0  0  0  0  0  0
  -24.8040  -27.8790   19.4340 C   0  0  0  0  0  3  0  0  0  0  0  0
  -23.5140  -29.9690   20.1670 C   0  0  0  0  0  2  0  0  0  0  0  0
  -24.5850  -31.2070   22.1080 N   0  0  0  0  0  0  0  0  0  0  0  0
  -23.4680  -32.2180   23.8030 O   0  0  0  0  0  0  0  0  0  0  0  0
  -22.6980  -29.5510   22.5120 C   0  0  0  0  0  0  0  0  0  0  0  0
  -21.3790  -29.3370   22.3800 N   0  0  0  0  0  0  0  0  0  0  0  0
  -23.3970  -28.9280   23.3150 O   0  0  0  0  0  0  0  0  0  0  0  0
  -20.8740  -29.8940   21.7050 H   0  0  0  0  0  0  0  0  0  0  0  0
  -18.0380  -28.0460   22.8530 C   0  0  0  0  0  0  0  0  0  0  0  0
  -20.5880  -28.3650   23.1330 C   0  0  0  0  0  3  0  0  0  0  0  0
  -20.7280  -26.9470   22.5340 C   0  0  0  0  0  2  0  0  0  0  0  0
  -19.6380  -26.6150   21.5090 C   0  0  0  0  0  2  0  0  0  0  0  0
  -18.2510  -26.7160   22.1510 C   0  0  0  0  0  2  0  0  0  0  0  0
  -19.1370  -28.8270   23.3000 C   0  0  0  0  0  0  0  0  0  0  0  0
  -18.8870  -30.0720   23.9170 C   0  0  0  0  0  3  0  0  0  0  0  0
  -17.5710  -30.5390   24.0900 C   0  0  0  0  0  3  0  0  0  0  0  0
  -16.4860  -29.7550   23.6590 C   0  0  0  0  0  3  0  0  0  0  0  0
  -16.7210  -28.5090   23.0490 C   0  0  0  0  0  3  0  0  0  0  0  0
  -25.8330  -32.5980   23.8470 C   0  0  0  0  0  3  0  0  0  0  0  0
  -26.3530  -31.8270   25.1220 C   0  0  1  0  0  0  0  0  0  0  0  0
  -25.2650  -31.5980   26.1960 C   0  0  0  0  0  1  0  0  0  0  0  0
  -26.9290  -30.4460   24.7300 C   0  0  0  0  0  1  0  0  0  0  0  0
  -27.5080  -32.6190   25.7800 C   0  0  0  0  0  1  0  0  0  0  0  0
  -25.5310  -33.9970   24.1760 N   0  0  0  0  0  0  0  0  0  0  0  0
  -25.8700  -35.0470   23.4160 C   0  0  0  0  0  0  0  0  0  0  0  0
  -26.5410  -34.9380   22.3860 O   0  0  0  0  0  0  0  0  0  0  0  0
  -24.9360  -34.1560   24.9750 H   0  0  0  0  0  0  0  0  0  0  0  0
  -24.1620  -36.8540   23.0430 C   0  0  0  0  0  1  0  0  0  0  0  0
  -25.3880  -36.4360   23.8700 C   0  0  0  0  0  3  0  0  0  0  0  0
  -27.5150  -37.3060   24.7350 C   0  0  0  0  0  1  0  0  0  0  0  0
  -26.4280  -37.4810   23.7750 N   0  0  0  0  0  0  0  0  0  0  0  0
  -26.0260  -38.4040   23.9220 H   0  0  0  0  0  0  0  0  0  0  0  0
  -31.0200  -18.2660   21.1830 C   0  0  0  0  0  2  0  0  0  0  0  0
  -30.2070  -16.9430   21.4140 C   0  0  0  0  0  2  0  0  0  0  0  0
  -31.1270  -14.8100   20.4610 C   0  0  0  0  0  0  0  0  0  0  0  0
  -30.8230  -12.6240   19.3740 C   0  0  0  0  0  2  0  0  0  0  0  0
  -29.8940  -12.7660   18.1490 C   0  0  0  0  0  2  0  0  0  0  0  0
  -28.4040  -12.7140   18.5590 C   0  0  0  0  0  2  0  0  0  0  0  0
  -28.0570  -13.5570   19.8190 C   0  0  0  0  0  3  0  0  0  0  0  0
  -29.1130  -13.3660   20.9340 C   0  0  0  0  0  2  0  0  0  0  0  0
  -30.4360  -13.6460   20.3530 N   0  0  0  0  0  0  0  0  0  0  0  0
  -32.3240  -14.9090   20.1770 O   0  0  0  0  0  0  0  0  0  0  0  0
  -30.1980  -16.4770   19.0090 C   0  0  0  0  0  1  0  0  0  0  0  0
  -30.3590  -15.9200   20.3580 N   0  0  0  0  0  0  0  0  0  0  0  0
  -25.6640  -14.1700   20.5490 C   0  0  0  0  0  0  0  0  0  0  0  0
  -24.5860  -13.4000   20.9020 C   0  0  0  0  0  0  0  0  0  0  0  0
  -25.0360  -12.0450   20.8440 C   0  0  0  0  0  0  0  0  0  0  0  0
  -26.7030  -13.2850   20.3000 N   0  0  0  0  0  0  0  0  0  0  0  0
  -26.3280  -12.0010   20.5340 N   0  0  0  0  0  0  0  0  0  0  0  0
  -24.3000  -10.7850   21.0060 C   0  0  0  0  0  0  0  0  0  0  0  0
  -24.6920   -9.8240   21.9640 C   0  0  0  0  0  3  0  0  0  0  0  0
  -23.9590   -8.6260   22.1140 C   0  0  0  0  0  3  0  0  0  0  0  0
  -22.8200   -8.3860   21.3070 C   0  0  0  0  0  0  0  0  0  0  0  0
  -22.4490   -9.3370   20.3420 C   0  0  0  0  0  3  0  0  0  0  0  0
  -23.1820  -10.5260   20.1880 C   0  0  0  0  0  3  0  0  0  0  0  0
  -22.0630   -7.2420   21.3660 O   0  0  0  0  0  0  0  0  0  0  0  0
  -21.9070   -6.5410   22.5360 C   0  0  0  0  0  0  0  0  0  0  0  0
  -21.3210   -7.1210   23.6820 C   0  0  0  0  0  3  0  0  0  0  0  0
  -21.1090   -6.3400   24.8370 C   0  0  0  0  0  3  0  0  0  0  0  0
  -21.4810   -4.9830   24.8470 C   0  0  0  0  0  0  0  0  0  0  0  0
  -22.0660   -4.4030   23.7060 C   0  0  0  0  0  3  0  0  0  0  0  0
  -22.2720   -5.1800   22.5530 C   0  0  0  0  0  0  0  0  0  0  0  0
  -22.8110   -4.6100   21.4480 F   0  0  0  0  0  0  0  0  0  0  0  0
  -21.2770   -4.2310   25.9550 F   0  0  0  0  0  0  0  0  0  0  0  0
  -23.1920  -13.8820   21.1830 C   0  0  0  0  0  0  0  0  0  0  0  0
  -22.4620  -13.1840   22.0480 N   0  0  0  0  0  0  0  0  0  0  0  0
  -22.7550  -14.9100   20.6710 O   0  0  0  0  0  0  0  0  0  0  0  0
  -22.8250  -12.3530   22.4920 H   0  0  0  0  0  0  0  0  0  0  0  0
  -21.5250  -13.4870   22.2700 H   0  0  0  0  0  0  0  0  0  0  0  0
  -25.8450  -15.5420   20.3990 N   0  0  0  0  0  0  0  0  0  0  0  0
  -25.0960  -16.2140   20.5190 H   0  0  0  0  0  0  0  0  0  0  0  0
  -26.7150  -15.9690   20.1070 H   0  0  0  0  0  0  0  0  0  0  0  0
  1  2  1  0
  2 13  1  0
  2  6  2  0
  3  4  2  0
  4  7  1  0
  5  1  2  0
  5  3  1  0
  6  4  1  0
  7 10  1  1
  7  9  1  0
  8  7  1  0
 11 12  1  0
 12  1  1  0
 14 15  1  0
 14 13  1  0
 16 15  1  0
 17 28  2  0
 18 16  1  0
 18 23  1  0
 19 27  1  0
 19 29  1  0
 20 26  1  0
 20 22  1  0
 21 27  1  0
 22 21  1  0
 23 22  2  0
 24 25  1  0
 24 18  2  0
 25 20  2  0
 26 19  1  0
 27 17  1  0
 29 31  2  0
 30 29  1  0
 32 30  1  0
 33 42  2  0
 33 38  1  0
 34 30  1  0
 34 38  1  0
 35 34  1  0
 36 37  1  0
 36 35  1  0
 37 33  1  0
 38 39  2  0
 39 40  1  0
 41 40  2  0
 42 41  1  0
 43 17  1  0
 43 48  1  0
 43 44  1  0
 44 47  1  1
 44 45  1  0
 46 44  1  0
 48 51  1  0
 49 53  1  0
 49 48  1  0
 50 49  2  0
 53 52  1  0
 55 53  1  0
 55 56  1  0
 55 54  1  0
 57 58  1  0
 57  3  1  0
 60 65  1  0
 61 62  1  0
 61 60  1  0
 63 62  1  0
 63 72  1  0
 63 64  1  0
 65 59  1  0
 65 64  1  0
 66 59  2  0
 67 68  1  0
 68 59  1  0
 68 58  1  0
 69 70  2  0
 70 89  1  0
 71 70  1  0
 71 74  1  0
 72 73  1  0
 72 69  1  0
 73 71  2  0
 74 75  1  0
 75 76  2  0
 77 80  1  0
 77 76  1  0
 78 77  2  0
 79 78  1  0
 79 74  2  0
 80 81  1  0
 81 86  2  0
 81 82  1  0
 82 83  2  0
 83 84  1  0
 84 88  1  0
 85 84  2  0
 86 85  1  0
 87 86  1  0
 89 90  1  0
 90 93  1  0
 90 92  1  0
 91 89  2  0
 94 95  1  0
 94 69  1  0
 96 94  1  0
M  ISO  4  15 101  16 101  59 100  68 100
M  END
>  <TORSDO>  (70) 
F 23

>  <SCORE>  (70) 
-13.181

>  <name>  (70) 
76

>  <ligand_id>  (70) 
76

>  <original_smiles>  (70) 
[H]c1c([H])c([H])c2c(c1[H])C([H])([H])C([H])([H])C([H])([H])C2([H])N([H])C(=O)C1([H])N(C(=O)C([H])(N([H])C(=O)C([H])(N([H])C([H])([H])[H])C([H])([H])[H])C(C([H])([H])[H])(C([H])([H])[H])C([H])([H])[H])C([H])([H])c2c([H])c(OC([H])([H])C([H])([H])C([H])([H])c3nc(C(F)(F)F)c(C([H])([H])C([H])([H])N(C(=O)N4C([H])([H])C([H])([H])C([H])([H])C([H])(n5nc(-c6c([H])c([H])c(Oc7c([H])c([H])c(F)c([H])c7F)c([H])c6[H])c(C(=O)N([H])[H])c5N([H])[H])C4([H])[H])C([H])([H])[H])nc3C([H])([H])C([H])([H])[H])c([H])c([H])c2C1([H])[H]

>  <smiles>  (70) 
[H]c1c([H])c([H])c2c(c1[H])C([H])([H])C([H])([H])C([H])([H])C2([H])N([H])C(=O)C1([H])N(C(=O)C([H])(N([H])C(=O)C([H])(N([H])C([H])([H])[H])C([H])([H])[H])C(C([H])([H])[H])(C([H])([H])[H])C([H])([H])[H])C([H])([H])c2c([H])c(OC([H])([H])C([H])([H])C([H])([H])c3nc(C(F)(F)F)c(C([H])([H])C([H])([H])N(C(=O)N4C([H])([H])C([H])([H])C([H])([H])C([H])(n5nc(-c6c([H])c([H])c(Oc7c([H])c([H])c(F)c([H])c7F)c([H])c6[H])c(C(=O)N([H])[H])c5N([H])[H])C4([H])[H])C([H])([H])[H])nc3C([H])([H])C([H])([H])[H])c([H])c([H])c2C1([H])[H]

$$$$
77:0:0
     RDKit          3D

 92100  0  0  1  0  0  0  0  0999 V2000
  -30.1950  -18.9230   20.3170 C   0  0  0  0  0  0  0  0  0  0  0  0
  -30.7900  -19.6420   21.4140 C   0  0  0  0  0  0  0  0  0  0  0  0
  -29.4480  -19.8240   19.6700 N   0  0  0  0  0  0  0  0  0  0  0  0
  -30.3770  -20.9100   21.4360 N   0  0  0  0  0  0  0  0  0  0  0  0
  -29.5850  -21.0400   20.3380 N   0  0  0  0  0  0  0  0  0  0  0  0
  -31.8000  -19.1310   22.4200 C   0  0  1  0  0  0  0  0  0  0  0  0
  -32.1210  -17.8540   22.2200 F   0  0  0  0  0  0  0  0  0  0  0  0
  -32.9370  -19.8280   22.3600 F   0  0  0  0  0  0  0  0  0  0  0  0
  -31.3340  -19.2330   23.6650 F   0  0  0  0  0  0  0  0  0  0  0  0
  -30.4590  -17.4520   19.7450 C   0  0  0  0  0  2  0  0  0  0  0  0
  -30.8200  -14.9050   20.0810 C   0  0  0  0  0  0  0  0  0  0  0  0
  -30.5640  -12.6490   18.9980 C   0  0  0  0  0  2  0  0  0  0  0  0
  -29.5720  -12.7610   17.8190 C   0  0  0  0  0  2  0  0  0  0  0  0
  -28.1210  -12.5680   18.3070 C   0  0  0  0  0  2  0  0  0  0  0  0
  -27.8100  -13.3930   19.5850 C   0  0  0  0  0  3  0  0  0  0  0  0
  -28.9250  -13.2200   20.6360 C   0  0  0  0  0  2  0  0  0  0  0  0
  -30.1750  -13.6740   20.0060 N   0  0  0  0  0  0  0  0  0  0  0  0
  -31.9450  -14.9860   19.5750 O   0  0  0  0  0  0  0  0  0  0  0  0
  -29.2100  -16.1860   21.5440 C   0  0  0  0  0  1  0  0  0  0  0  0
  -30.1370  -16.0960   20.4090 N   0  0  0  0  0  0  0  0  0  0  0  0
  -25.4600  -13.9630   20.4350 C   0  0  0  0  0  0  0  0  0  0  0  0
  -24.4120  -13.1810   20.8330 C   0  0  0  0  0  0  0  0  0  0  0  0
  -24.8660  -11.8300   20.7310 C   0  0  0  0  0  0  0  0  0  0  0  0
  -26.4890  -13.0900   20.1220 N   0  0  0  0  0  0  0  0  0  0  0  0
  -26.1400  -11.7990   20.3580 N   0  0  0  0  0  0  0  0  0  0  0  0
  -24.1450  -10.5660   20.9200 C   0  0  0  0  0  0  0  0  0  0  0  0
  -24.5840   -9.5940   21.8470 C   0  0  0  0  0  3  0  0  0  0  0  0
  -23.8620   -8.3950   22.0250 C   0  0  0  0  0  3  0  0  0  0  0  0
  -22.6860   -8.1570   21.2750 C   0  0  0  0  0  0  0  0  0  0  0  0
  -22.2630   -9.1170   20.3380 C   0  0  0  0  0  3  0  0  0  0  0  0
  -22.9860  -10.3090   20.1600 C   0  0  0  0  0  3  0  0  0  0  0  0
  -21.9350   -7.0100   21.3590 O   0  0  0  0  0  0  0  0  0  0  0  0
  -21.8520   -6.2870   22.5230 C   0  0  0  0  0  0  0  0  0  0  0  0
  -21.3240   -6.8450   23.7060 C   0  0  0  0  0  3  0  0  0  0  0  0
  -21.1930   -6.0490   24.8620 C   0  0  0  0  0  3  0  0  0  0  0  0
  -21.5780   -4.6950   24.8310 C   0  0  0  0  0  0  0  0  0  0  0  0
  -22.0990   -4.1370   23.6510 C   0  0  0  0  0  3  0  0  0  0  0  0
  -22.2330   -4.9310   22.4990 C   0  0  0  0  0  0  0  0  0  0  0  0
  -22.7160   -4.3830   21.3580 F   0  0  0  0  0  0  0  0  0  0  0  0
  -21.4440   -3.9280   25.9380 F   0  0  0  0  0  0  0  0  0  0  0  0
  -23.0340  -13.6520   21.1950 C   0  0  0  0  0  0  0  0  0  0  0  0
  -22.3560  -12.9380   22.0840 N   0  0  0  0  0  0  0  0  0  0  0  0
  -22.5700  -14.6930   20.7260 O   0  0  0  0  0  0  0  0  0  0  0  0
  -22.7470  -12.0960   22.4830 H   0  0  0  0  0  0  0  0  0  0  0  0
  -21.4360  -13.2330   22.3730 H   0  0  0  0  0  0  0  0  0  0  0  0
  -25.6120  -15.3400   20.2940 N   0  0  0  0  0  0  0  0  0  0  0  0
  -24.8420  -15.9820   20.4620 H   0  0  0  0  0  0  0  0  0  0  0  0
  -26.4370  -15.7990   19.9330 H   0  0  0  0  0  0  0  0  0  0  0  0
  -28.8140  -22.3000   19.9380 C   0  0  0  0  0  2  0  0  0  0  0  0
  -29.1100  -23.8020   20.4840 C   0  0  0  0  0  3  0  0  0  0  0  0
  -28.0590  -24.9700   20.0470 C   0  0  0  0  0  3  0  0  0  0  0  0
  -28.2750  -26.4510   20.2370 O   0  0  0  0  0  0  0  0  0  0  0  0
  -24.6310  -31.9680   23.2190 C   0  0  0  0  0  0  0  0  0  0  0  0
  -27.1740  -27.3430   20.1550 C   0  0  0  0  0  0  0  0  0  0  0  0
  -23.3930  -30.5630   21.6070 C   0  0  0  0  0  3  0  0  0  0  0  0
  -24.8150  -28.9990   20.1570 C   0  0  0  0  0  0  0  0  0  0  0  0
  -25.9320  -30.8580   21.3850 C   0  0  0  0  0  2  0  0  0  0  0  0
  -25.9960  -29.4740   20.7430 C   0  0  0  0  0  0  0  0  0  0  0  0
  -27.1720  -28.6580   20.7350 C   0  0  0  0  0  3  0  0  0  0  0  0
  -25.9740  -26.9460   19.5170 C   0  0  0  0  0  3  0  0  0  0  0  0
  -24.8120  -27.7450   19.5250 C   0  0  0  0  0  3  0  0  0  0  0  0
  -23.5820  -29.8810   20.2250 C   0  0  0  0  0  2  0  0  0  0  0  0
  -24.6710  -31.1520   22.1240 N   0  0  0  0  0  0  0  0  0  0  0  0
  -23.5600  -32.2540   23.7730 O   0  0  0  0  0  0  0  0  0  0  0  0
  -22.7420  -29.5590   22.5890 C   0  0  0  0  0  0  0  0  0  0  0  0
  -21.4250  -29.3370   22.4460 N   0  0  0  0  0  0  0  0  0  0  0  0
  -23.4240  -28.9810   23.4390 O   0  0  0  0  0  0  0  0  0  0  0  0
  -20.9320  -29.8600   21.7360 H   0  0  0  0  0  0  0  0  0  0  0  0
  -18.0900  -28.0000   22.8820 C   0  0  0  0  0  0  0  0  0  0  0  0
  -20.6220  -28.3980   23.2310 C   0  0  0  0  0  3  0  0  0  0  0  0
  -20.8120  -26.9460   22.7310 C   0  0  0  0  0  2  0  0  0  0  0  0
  -19.7660  -26.5230   21.6930 C   0  0  0  0  0  2  0  0  0  0  0  0
  -18.3550  -26.6310   22.2780 C   0  0  0  0  0  2  0  0  0  0  0  0
  -19.1550  -28.8350   23.3150 C   0  0  0  0  0  0  0  0  0  0  0  0
  -18.8530  -30.1090   23.8400 C   0  0  0  0  0  3  0  0  0  0  0  0
  -17.5190  -30.5510   23.9380 C   0  0  0  0  0  3  0  0  0  0  0  0
  -16.4700  -29.7150   23.5210 C   0  0  0  0  0  3  0  0  0  0  0  0
  -16.7560  -28.4410   22.9970 C   0  0  0  0  0  3  0  0  0  0  0  0
  -25.9280  -32.6010   23.8130 C   0  0  0  0  0  3  0  0  0  0  0  0
  -25.6190  -33.9920   24.1770 N   0  0  0  0  0  0  0  0  0  0  0  0
  -25.9030  -35.0610   23.4220 C   0  0  0  0  0  0  0  0  0  0  0  0
  -26.5210  -34.9810   22.3570 O   0  0  0  0  0  0  0  0  0  0  0  0
  -25.0640  -34.1280   25.0100 H   0  0  0  0  0  0  0  0  0  0  0  0
  -24.1370  -36.8390   23.1900 C   0  0  0  0  0  1  0  0  0  0  0  0
  -25.4240  -36.4360   23.9260 C   0  0  0  0  0  3  0  0  0  0  0  0
  -27.5810  -37.3460   24.6660 C   0  0  0  0  0  1  0  0  0  0  0  0
  -26.4350  -37.5040   23.7750 N   0  0  0  0  0  0  0  0  0  0  0  0
  -26.0250  -38.4180   23.9450 H   0  0  0  0  0  0  0  0  0  0  0  0
  -26.4890  -31.8160   25.0630 C   0  0  1  0  0  0  0  0  0  0  0  0
  -25.4230  -31.5270   26.1450 C   0  0  0  0  0  1  0  0  0  0  0  0
  -27.0970  -30.4630   24.6310 C   0  0  0  0  0  1  0  0  0  0  0  0
  -27.6330  -32.6250   25.7200 C   0  0  0  0  0  1  0  0  0  0  0  0
  1  2  1  0
  2  4  2  0
  2  6  1  0
  3  1  2  0
  3  5  1  0
  5  4  1  0
  6  9  1  1
  7  6  1  0
  8  6  1  0
 10  1  1  0
 10 20  1  0
 11 20  1  0
 12 17  1  0
 13 14  1  0
 13 12  1  0
 15 14  1  0
 15 24  1  0
 15 16  1  0
 17 11  1  0
 17 16  1  0
 18 11  2  0
 20 19  1  0
 21 22  2  0
 22 41  1  0
 23 22  1  0
 23 26  1  0
 24 25  1  0
 24 21  1  0
 25 23  2  0
 26 27  1  0
 27 28  2  0
 29 32  1  0
 29 28  1  0
 30 29  2  0
 31 30  1  0
 31 26  2  0
 32 33  1  0
 33 34  1  0
 34 35  2  0
 36 35  1  0
 36 40  1  0
 37 36  2  0
 38 33  2  0
 38 37  1  0
 39 38  1  0
 41 42  1  0
 42 45  1  0
 42 44  1  0
 43 41  2  0
 46 21  1  0
 46 47  1  0
 48 46  1  0
 49  5  1  0
 49 50  1  0
 51 52  1  0
 51 50  2  0
 53 64  2  0
 54 52  1  0
 54 59  1  0
 55 63  1  0
 55 65  1  0
 56 62  1  0
 56 58  1  0
 57 63  1  0
 58 57  1  0
 59 58  2  0
 60 61  1  0
 60 54  2  0
 61 56  2  0
 62 55  1  0
 63 53  1  0
 65 67  2  0
 66 65  1  0
 68 66  1  0
 69 78  2  0
 69 74  1  0
 70 66  1  0
 70 74  1  0
 71 70  1  0
 72 73  1  0
 72 71  1  0
 73 69  1  0
 74 75  2  0
 75 76  1  0
 77 76  2  0
 78 77  1  0
 79 53  1  0
 79 80  1  0
 79 89  1  0
 80 83  1  0
 81 85  1  0
 81 80  1  0
 82 81  2  0
 85 84  1  0
 87 85  1  0
 87 88  1  0
 87 86  1  0
 89 92  1  1
 89 90  1  0
 91 89  1  0
M  ISO  4  11 100  20 100  51 101  52 101
M  END
>  <TORSDO>  (71) 
F 21

>  <SCORE>  (71) 
-13.015

>  <name>  (71) 
77

>  <ligand_id>  (71) 
77

>  <original_smiles>  (71) 
[H]c1c([H])c([H])c2c(c1[H])C([H])([H])C([H])([H])C([H])([H])C2([H])N([H])C(=O)C1([H])N(C(=O)C([H])(N([H])C(=O)C([H])(N([H])C([H])([H])[H])C([H])([H])[H])C(C([H])([H])[H])(C([H])([H])[H])C([H])([H])[H])C([H])([H])c2c([H])c(OC([H])([H])C([H])([H])C([H])([H])n3nc(C(F)(F)F)c(C([H])([H])N(C(=O)N4C([H])([H])C([H])([H])C([H])([H])C([H])(n5nc(-c6c([H])c([H])c(Oc7c([H])c([H])c(F)c([H])c7F)c([H])c6[H])c(C(=O)N([H])[H])c5N([H])[H])C4([H])[H])C([H])([H])[H])n3)c([H])c([H])c2C1([H])[H]

>  <smiles>  (71) 
[H]c1c([H])c([H])c2c(c1[H])C([H])([H])C([H])([H])C([H])([H])C2([H])N([H])C(=O)C1([H])N(C(=O)C([H])(N([H])C(=O)C([H])(N([H])C([H])([H])[H])C([H])([H])[H])C(C([H])([H])[H])(C([H])([H])[H])C([H])([H])[H])C([H])([H])c2c([H])c(OC([H])([H])C([H])([H])C([H])([H])n3nc(C(F)(F)F)c(C([H])([H])N(C(=O)N4C([H])([H])C([H])([H])C([H])([H])C([H])(n5nc(-c6c([H])c([H])c(Oc7c([H])c([H])c(F)c([H])c7F)c([H])c6[H])c(C(=O)N([H])[H])c5N([H])[H])C4([H])[H])C([H])([H])[H])n3)c([H])c([H])c2C1([H])[H]

$$$$
78:0:0
     RDKit          3D

 94102  0  0  1  0  0  0  0  0999 V2000
  -29.9890  -19.9660   21.1590 C   0  0  0  0  0  3  0  0  0  0  0  0
  -29.2120  -21.0310   20.5510 C   0  0  0  0  0  0  0  0  0  0  0  0
  -29.7060  -18.7420   20.5500 C   0  0  0  0  0  0  0  0  0  0  0  0
  -28.4000  -20.4500   19.6720 N   0  0  0  0  0  0  0  0  0  0  0  0
  -28.6800  -19.0940   19.6710 N   0  0  0  0  0  0  0  0  0  0  0  0
  -28.2990  -18.6580   17.2650 C   0  0  0  0  0  1  0  0  0  0  0  0
  -26.4660  -18.2550   18.9710 C   0  0  0  0  0  1  0  0  0  0  0  0
  -27.9800  -18.2450   18.7120 C   0  0  0  0  0  3  0  0  0  0  0  0
  -30.1580  -22.9020   21.9650 C   0  0  0  0  0  1  0  0  0  0  0  0
  -30.4240  -22.9710   19.4920 C   0  0  0  0  0  1  0  0  0  0  0  0
  -29.4440  -22.6180   20.6250 C   0  0  1  0  0  0  0  0  0  0  0  0
  -28.1850  -23.6350   20.4790 C   0  0  0  0  0  2  0  0  0  0  0  0
  -28.1440  -25.1640   21.0590 C   0  0  0  0  0  2  0  0  0  0  0  0
  -28.3230  -26.4430   20.3000 O   0  0  0  0  0  0  0  0  0  0  0  0
  -24.6040  -31.9330   23.2640 C   0  0  0  0  0  0  0  0  0  0  0  0
  -27.2350  -27.3360   20.2680 C   0  0  0  0  0  0  0  0  0  0  0  0
  -23.4150  -30.5200   21.6260 C   0  0  0  0  0  3  0  0  0  0  0  0
  -24.8770  -28.9590   20.2190 C   0  0  0  0  0  0  0  0  0  0  0  0
  -25.9560  -30.8390   21.4550 C   0  0  0  0  0  2  0  0  0  0  0  0
  -26.0440  -29.4530   20.8190 C   0  0  0  0  0  0  0  0  0  0  0  0
  -27.2310  -28.6550   20.8280 C   0  0  0  0  0  3  0  0  0  0  0  0
  -26.0500  -26.8980   19.6440 C   0  0  0  0  0  3  0  0  0  0  0  0
  -24.8850  -27.6900   19.6190 C   0  0  0  0  0  3  0  0  0  0  0  0
  -23.6390  -29.8340   20.2530 C   0  0  0  0  0  2  0  0  0  0  0  0
  -24.6770  -31.1160   22.1720 N   0  0  0  0  0  0  0  0  0  0  0  0
  -23.5170  -32.2110   23.7900 O   0  0  0  0  0  0  0  0  0  0  0  0
  -22.7470  -29.5100   22.5910 C   0  0  0  0  0  0  0  0  0  0  0  0
  -21.4220  -29.3300   22.4590 N   0  0  0  0  0  0  0  0  0  0  0  0
  -23.4230  -28.8910   23.4180 O   0  0  0  0  0  0  0  0  0  0  0  0
  -20.9370  -29.8800   21.7640 H   0  0  0  0  0  0  0  0  0  0  0  0
  -18.0410  -28.1420   22.9610 C   0  0  0  0  0  0  0  0  0  0  0  0
  -20.6000  -28.3950   23.2320 C   0  0  0  0  0  3  0  0  0  0  0  0
  -20.6990  -26.9630   22.6580 C   0  0  0  0  0  2  0  0  0  0  0  0
  -19.5960  -26.6410   21.6450 C   0  0  0  0  0  2  0  0  0  0  0  0
  -18.2140  -26.7910   22.2880 C   0  0  0  0  0  2  0  0  0  0  0  0
  -19.1610  -28.9020   23.3900 C   0  0  0  0  0  0  0  0  0  0  0  0
  -18.9440  -30.1660   23.9800 C   0  0  0  0  0  3  0  0  0  0  0  0
  -17.6410  -30.6700   24.1460 C   0  0  0  0  0  3  0  0  0  0  0  0
  -16.5350  -29.9070   23.7340 C   0  0  0  0  0  3  0  0  0  0  0  0
  -16.7360  -28.6440   23.1470 C   0  0  0  0  0  3  0  0  0  0  0  0
  -25.8810  -32.5740   23.8900 C   0  0  0  0  0  3  0  0  0  0  0  0
  -25.5680  -33.9770   24.2000 N   0  0  0  0  0  0  0  0  0  0  0  0
  -25.9130  -35.0220   23.4340 C   0  0  0  0  0  0  0  0  0  0  0  0
  -26.5950  -34.9050   22.4120 O   0  0  0  0  0  0  0  0  0  0  0  0
  -24.9640  -34.1420   24.9910 H   0  0  0  0  0  0  0  0  0  0  0  0
  -24.1990  -36.8190   23.0320 C   0  0  0  0  0  1  0  0  0  0  0  0
  -25.4240  -36.4170   23.8690 C   0  0  0  0  0  3  0  0  0  0  0  0
  -27.5480  -37.3010   24.7290 C   0  0  0  0  0  1  0  0  0  0  0  0
  -26.4630  -37.4650   23.7640 N   0  0  0  0  0  0  0  0  0  0  0  0
  -26.0580  -38.3880   23.8950 H   0  0  0  0  0  0  0  0  0  0  0  0
  -26.3830  -31.8220   25.1830 C   0  0  1  0  0  0  0  0  0  0  0  0
  -25.2780  -31.5990   26.2420 C   0  0  0  0  0  1  0  0  0  0  0  0
  -26.9700  -30.4390   24.8170 C   0  0  0  0  0  1  0  0  0  0  0  0
  -27.5270  -32.6250   25.8460 C   0  0  0  0  0  1  0  0  0  0  0  0
  -31.4990  -17.6030   19.3020 C   0  0  0  0  0  1  0  0  0  0  0  0
  -31.4730  -17.4140   21.8220 C   0  0  0  0  0  1  0  0  0  0  0  0
  -30.5940  -17.4160   20.5480 C   0  0  1  0  0  0  0  0  0  0  0  0
  -29.9180  -16.0560   20.5270 O   0  0  0  0  0  0  0  0  0  0  0  0
  -30.6690  -14.7950   20.3000 C   0  0  0  0  0  0  0  0  0  0  0  0
  -30.3500  -12.5050   19.3210 C   0  0  0  0  0  2  0  0  0  0  0  0
  -29.4270  -12.6060   18.0900 C   0  0  0  0  0  2  0  0  0  0  0  0
  -27.9590  -12.4380   18.5210 C   0  0  0  0  0  2  0  0  0  0  0  0
  -27.5820  -13.3340   19.7320 C   0  0  0  0  0  3  0  0  0  0  0  0
  -28.6350  -13.3010   20.8550 C   0  0  0  0  0  2  0  0  0  0  0  0
  -29.9390  -13.5760   20.2570 N   0  0  0  0  0  0  0  0  0  0  0  0
  -31.8590  -14.7980   20.0020 O   0  0  0  0  0  0  0  0  0  0  0  0
  -25.2010  -13.8900   20.4880 C   0  0  0  0  0  0  0  0  0  0  0  0
  -24.1460  -13.1040   20.8630 C   0  0  0  0  0  0  0  0  0  0  0  0
  -24.6230  -11.7580   20.8300 C   0  0  0  0  0  0  0  0  0  0  0  0
  -26.2500  -13.0230   20.2390 N   0  0  0  0  0  0  0  0  0  0  0  0
  -25.9130  -11.7350   20.5130 N   0  0  0  0  0  0  0  0  0  0  0  0
  -23.9090  -10.4890   21.0260 C   0  0  0  0  0  0  0  0  0  0  0  0
  -24.3480   -9.5270   21.9630 C   0  0  0  0  0  3  0  0  0  0  0  0
  -23.6320   -8.3250   22.1450 C   0  0  0  0  0  3  0  0  0  0  0  0
  -22.4620   -8.0740   21.3900 C   0  0  0  0  0  0  0  0  0  0  0  0
  -22.0410   -9.0240   20.4420 C   0  0  0  0  0  3  0  0  0  0  0  0
  -22.7580  -10.2180   20.2580 C   0  0  0  0  0  3  0  0  0  0  0  0
  -21.7170   -6.9240   21.4810 O   0  0  0  0  0  0  0  0  0  0  0  0
  -21.6730   -6.1840   22.6360 C   0  0  0  0  0  0  0  0  0  0  0  0
  -21.2330   -6.7350   23.8580 C   0  0  0  0  0  3  0  0  0  0  0  0
  -21.1390   -5.9200   25.0040 C   0  0  0  0  0  3  0  0  0  0  0  0
  -21.4750   -4.5560   24.9280 C   0  0  0  0  0  0  0  0  0  0  0  0
  -21.9070   -4.0030   23.7090 C   0  0  0  0  0  3  0  0  0  0  0  0
  -22.0030   -4.8160   22.5660 C   0  0  0  0  0  0  0  0  0  0  0  0
  -22.4010   -4.2730   21.3900 F   0  0  0  0  0  0  0  0  0  0  0  0
  -21.3760   -3.7700   26.0260 F   0  0  0  0  0  0  0  0  0  0  0  0
  -22.7470  -13.5690   21.1390 C   0  0  0  0  0  0  0  0  0  0  0  0
  -22.0260  -12.8640   22.0040 N   0  0  0  0  0  0  0  0  0  0  0  0
  -22.3010  -14.5930   20.6240 O   0  0  0  0  0  0  0  0  0  0  0  0
  -22.4020  -12.0350   22.4420 H   0  0  0  0  0  0  0  0  0  0  0  0
  -21.0870  -13.1550   22.2320 H   0  0  0  0  0  0  0  0  0  0  0  0
  -25.3540  -15.2600   20.3150 N   0  0  0  0  0  0  0  0  0  0  0  0
  -24.5850  -15.9100   20.4380 H   0  0  0  0  0  0  0  0  0  0  0  0
  -26.2090  -15.7050   20.0090 H   0  0  0  0  0  0  0  0  0  0  0  0
  2 11  1  0
  2  1  1  0
  3  1  2  0
  4  2  2  0
  5  4  1  0
  5  3  1  0
  6  8  1  0
  8  7  1  0
  8  5  1  0
 11 10  1  6
 11  9  1  0
 12 11  1  0
 12 13  1  0
 14 13  1  0
 15 26  2  0
 16 14  1  0
 16 21  1  0
 17 25  1  0
 17 27  1  0
 18 24  1  0
 18 20  1  0
 19 25  1  0
 20 21  2  0
 20 19  1  0
 22 16  2  0
 23 22  1  0
 23 18  2  0
 24 17  1  0
 25 15  1  0
 27 29  2  0
 28 27  1  0
 30 28  1  0
 31 40  2  0
 31 36  1  0
 32 28  1  0
 32 36  1  0
 33 32  1  0
 34 35  1  0
 34 33  1  0
 35 31  1  0
 36 37  2  0
 37 38  1  0
 39 38  2  0
 40 39  1  0
 41 15  1  0
 41 42  1  0
 41 51  1  0
 42 45  1  0
 43 47  1  0
 43 42  1  0
 44 43  2  0
 47 46  1  0
 49 47  1  0
 49 50  1  0
 49 48  1  0
 51 54  1  1
 51 52  1  0
 53 51  1  0
 57 55  1  6
 57  3  1  0
 57 56  1  0
 58 57  1  0
 59 58  1  0
 60 65  1  0
 61 62  1  0
 61 60  1  0
 63 62  1  0
 63 70  1  0
 63 64  1  0
 65 59  1  0
 65 64  1  0
 66 59  2  0
 67 68  2  0
 68 87  1  0
 69 68  1  0
 69 72  1  0
 70 67  1  0
 70 71  1  0
 71 69  2  0
 72 73  1  0
 73 74  2  0
 75 78  1  0
 75 74  1  0
 76 75  2  0
 77 76  1  0
 77 72  2  0
 78 79  1  0
 79 80  1  0
 80 81  2  0
 82 81  1  0
 82 86  1  0
 83 82  2  0
 84 79  2  0
 84 83  1  0
 85 84  1  0
 87 88  1  0
 88 91  1  0
 88 90  1  0
 89 87  2  0
 92 93  1  0
 92 67  1  0
 94 92  1  0
M  ISO  4  13 101  14 101  58 100  59 100
M  END
>  <TORSDO>  (72) 
F 22

>  <SCORE>  (72) 
-13.263

>  <name>  (72) 
78

>  <ligand_id>  (72) 
78

>  <original_smiles>  (72) 
[H]c1c([H])c([H])c2c(c1[H])C([H])([H])C([H])([H])C([H])([H])C2([H])N([H])C(=O)C1([H])N(C(=O)C([H])(N([H])C(=O)C([H])(N([H])C([H])([H])[H])C([H])([H])[H])C(C([H])([H])[H])(C([H])([H])[H])C([H])([H])[H])C([H])([H])c2c([H])c(OC([H])([H])C([H])([H])C(c3nn(C([H])(C([H])([H])[H])C([H])([H])[H])c(C(OC(=O)N4C([H])([H])C([H])([H])C([H])([H])C([H])(n5nc(-c6c([H])c([H])c(Oc7c([H])c([H])c(F)c([H])c7F)c([H])c6[H])c(C(=O)N([H])[H])c5N([H])[H])C4([H])[H])(C([H])([H])[H])C([H])([H])[H])c3[H])(C([H])([H])[H])C([H])([H])[H])c([H])c([H])c2C1([H])[H]

>  <smiles>  (72) 
[H]c1c([H])c([H])c2c(c1[H])C([H])([H])C([H])([H])C([H])([H])C2([H])N([H])C(=O)C1([H])N(C(=O)C([H])(N([H])C(=O)C([H])(N([H])C([H])([H])[H])C([H])([H])[H])C(C([H])([H])[H])(C([H])([H])[H])C([H])([H])[H])C([H])([H])c2c([H])c(OC([H])([H])C([H])([H])C(c3nn(C([H])(C([H])([H])[H])C([H])([H])[H])c(C(OC(=O)N4C([H])([H])C([H])([H])C([H])([H])C([H])(n5nc(-c6c([H])c([H])c(Oc7c([H])c([H])c(F)c([H])c7F)c([H])c6[H])c(C(=O)N([H])[H])c5N([H])[H])C4([H])[H])(C([H])([H])[H])C([H])([H])[H])c3[H])(C([H])([H])[H])C([H])([H])[H])c([H])c([H])c2C1([H])[H]

$$$$
79:0:0
     RDKit          3D

 93102  0  0  1  0  0  0  0  0999 V2000
  -31.1190  -23.0900   21.8070 C   0  0  0  0  0  2  0  0  0  0  0  0
  -31.1820  -22.0880   20.6370 C   0  0  0  0  0  2  0  0  0  0  0  0
  -30.3760  -24.3860   21.4270 C   0  0  0  0  0  2  0  0  0  0  0  0
  -28.9930  -23.0480   19.7570 C   0  0  0  0  0  2  0  0  0  0  0  0
  -29.7860  -21.7210   20.0780 C   0  0  0  0  0  3  0  0  0  0  0  0
  -28.9560  -24.0580   20.9490 C   0  0  0  0  0  3  0  0  0  0  0  0
  -30.2610  -20.1410   16.9240 C   0  0  0  0  0  3  0  0  0  0  0  0
  -29.9170  -20.7800   18.8830 C   0  0  0  0  0  0  0  0  0  0  0  0
  -30.1660  -21.2750   17.6680 N   0  0  0  0  0  0  0  0  0  0  0  0
  -30.1150  -19.0080   17.6000 N   0  0  0  0  0  0  0  0  0  0  0  0
  -29.9360  -19.4120   18.8870 N   0  0  0  0  0  0  0  0  0  0  0  0
  -29.7680  -18.3590   19.9250 C   0  0  0  0  0  2  0  0  0  0  0  0
  -30.2990  -16.9250   19.4920 C   0  0  0  0  0  2  0  0  0  0  0  0
  -30.7990  -14.5660   20.0890 C   0  0  0  0  0  0  0  0  0  0  0  0
  -30.4170  -12.4070   18.9420 C   0  0  0  0  0  2  0  0  0  0  0  0
  -29.4220  -12.6110   17.7790 C   0  0  0  0  0  2  0  0  0  0  0  0
  -27.9670  -12.4830   18.2730 C   0  0  0  0  0  2  0  0  0  0  0  0
  -27.6940  -13.2980   19.5650 C   0  0  0  0  0  3  0  0  0  0  0  0
  -28.8010  -13.0590   20.6130 C   0  0  0  0  0  2  0  0  0  0  0  0
  -30.0870  -13.3990   19.9840 N   0  0  0  0  0  0  0  0  0  0  0  0
  -31.9300  -14.6510   19.6030 O   0  0  0  0  0  0  0  0  0  0  0  0
  -29.5870  -15.9730   21.7180 C   0  0  0  0  0  1  0  0  0  0  0  0
  -30.1130  -15.7220   20.3720 N   0  0  0  0  0  0  0  0  0  0  0  0
  -25.3370  -13.9060   20.3910 C   0  0  0  0  0  0  0  0  0  0  0  0
  -24.2810  -13.1350   20.7960 C   0  0  0  0  0  0  0  0  0  0  0  0
  -24.7320  -11.7810   20.7320 C   0  0  0  0  0  0  0  0  0  0  0  0
  -26.3650  -13.0220   20.1040 N   0  0  0  0  0  0  0  0  0  0  0  0
  -26.0080  -11.7380   20.3670 N   0  0  0  0  0  0  0  0  0  0  0  0
  -24.0080  -10.5210   20.9400 C   0  0  0  0  0  0  0  0  0  0  0  0
  -24.4600   -9.5520   21.8610 C   0  0  0  0  0  3  0  0  0  0  0  0
  -23.7340   -8.3570   22.0570 C   0  0  0  0  0  3  0  0  0  0  0  0
  -22.5420   -8.1230   21.3290 C   0  0  0  0  0  0  0  0  0  0  0  0
  -22.1100   -9.0810   20.3950 C   0  0  0  0  0  3  0  0  0  0  0  0
  -22.8360  -10.2670   20.1990 C   0  0  0  0  0  3  0  0  0  0  0  0
  -21.7850   -6.9820   21.4350 O   0  0  0  0  0  0  0  0  0  0  0  0
  -21.7340   -6.2570   22.5980 C   0  0  0  0  0  0  0  0  0  0  0  0
  -21.3280   -6.8360   23.8210 C   0  0  0  0  0  3  0  0  0  0  0  0
  -21.2250   -6.0380   24.9780 C   0  0  0  0  0  3  0  0  0  0  0  0
  -21.5170   -4.6610   24.9130 C   0  0  0  0  0  0  0  0  0  0  0  0
  -21.9160   -4.0830   23.6970 C   0  0  0  0  0  3  0  0  0  0  0  0
  -22.0230   -4.8780   22.5410 C   0  0  0  0  0  0  0  0  0  0  0  0
  -22.3870   -4.3110   21.3670 F   0  0  0  0  0  0  0  0  0  0  0  0
  -21.4100   -3.8940   26.0220 F   0  0  0  0  0  0  0  0  0  0  0  0
  -22.9010  -13.6180   21.1360 C   0  0  0  0  0  0  0  0  0  0  0  0
  -22.2120  -12.9190   22.0320 N   0  0  0  0  0  0  0  0  0  0  0  0
  -22.4440  -14.6480   20.6420 O   0  0  0  0  0  0  0  0  0  0  0  0
  -22.5970  -12.0880   22.4540 H   0  0  0  0  0  0  0  0  0  0  0  0
  -21.2850  -13.2200   22.2980 H   0  0  0  0  0  0  0  0  0  0  0  0
  -25.5070  -15.2780   20.2230 N   0  0  0  0  0  0  0  0  0  0  0  0
  -24.7580  -15.9440   20.3800 H   0  0  0  0  0  0  0  0  0  0  0  0
  -26.3550  -15.7070   19.8750 H   0  0  0  0  0  0  0  0  0  0  0  0
  -27.9810  -25.2860   20.8640 C   0  0  0  0  0  2  0  0  0  0  0  0
  -28.3050  -26.5260   20.1650 O   0  0  0  0  0  0  0  0  0  0  0  0
  -24.6250  -31.8640   23.2260 C   0  0  0  0  0  0  0  0  0  0  0  0
  -27.2080  -27.3810   20.1060 C   0  0  0  0  0  0  0  0  0  0  0  0
  -23.4000  -30.4720   21.5930 C   0  0  0  0  0  3  0  0  0  0  0  0
  -24.8350  -28.9420   20.1370 C   0  0  0  0  0  0  0  0  0  0  0  0
  -25.9310  -30.8110   21.3770 C   0  0  0  0  0  2  0  0  0  0  0  0
  -26.0070  -29.4420   20.7220 C   0  0  0  0  0  0  0  0  0  0  0  0
  -27.2000  -28.6700   20.7040 C   0  0  0  0  0  3  0  0  0  0  0  0
  -26.0260  -26.9290   19.4810 C   0  0  0  0  0  3  0  0  0  0  0  0
  -24.8450  -27.6890   19.5070 C   0  0  0  0  0  3  0  0  0  0  0  0
  -23.5940  -29.8050   20.2060 C   0  0  0  0  0  2  0  0  0  0  0  0
  -24.6710  -31.0640   22.1220 N   0  0  0  0  0  0  0  0  0  0  0  0
  -23.5500  -32.1380   23.7770 O   0  0  0  0  0  0  0  0  0  0  0  0
  -22.7530  -29.4490   22.5550 C   0  0  0  0  0  0  0  0  0  0  0  0
  -21.4260  -29.2690   22.4380 N   0  0  0  0  0  0  0  0  0  0  0  0
  -23.4400  -28.8220   23.3640 O   0  0  0  0  0  0  0  0  0  0  0  0
  -20.9330  -29.8280   21.7570 H   0  0  0  0  0  0  0  0  0  0  0  0
  -18.0560  -28.0660   22.9530 C   0  0  0  0  0  0  0  0  0  0  0  0
  -20.6150  -28.3310   23.2130 C   0  0  0  0  0  3  0  0  0  0  0  0
  -20.7170  -26.8990   22.6370 C   0  0  0  0  0  2  0  0  0  0  0  0
  -19.6120  -26.5740   21.6270 C   0  0  0  0  0  2  0  0  0  0  0  0
  -18.2330  -26.7170   22.2770 C   0  0  0  0  0  2  0  0  0  0  0  0
  -19.1740  -28.8310   23.3790 C   0  0  0  0  0  0  0  0  0  0  0  0
  -18.9550  -30.0940   23.9710 C   0  0  0  0  0  3  0  0  0  0  0  0
  -17.6500  -30.5930   24.1390 C   0  0  0  0  0  3  0  0  0  0  0  0
  -16.5460  -29.8250   23.7310 C   0  0  0  0  0  3  0  0  0  0  0  0
  -16.7500  -28.5640   23.1440 C   0  0  0  0  0  3  0  0  0  0  0  0
  -25.9180  -32.4890   23.8350 C   0  0  0  0  0  3  0  0  0  0  0  0
  -26.4520  -31.7060   25.0970 C   0  0  1  0  0  0  0  0  0  0  0  0
  -25.3740  -31.4600   26.1790 C   0  0  0  0  0  1  0  0  0  0  0  0
  -27.0290  -30.3330   24.6840 C   0  0  0  0  0  1  0  0  0  0  0  0
  -27.6140  -32.4940   25.7500 C   0  0  0  0  0  1  0  0  0  0  0  0
  -25.6140  -33.8850   24.1810 N   0  0  0  0  0  0  0  0  0  0  0  0
  -25.9410  -34.9430   23.4280 C   0  0  0  0  0  0  0  0  0  0  0  0
  -26.6010  -34.8470   22.3890 O   0  0  0  0  0  0  0  0  0  0  0  0
  -25.0260  -34.0330   24.9880 H   0  0  0  0  0  0  0  0  0  0  0  0
  -24.2120  -36.7410   23.1050 C   0  0  0  0  0  1  0  0  0  0  0  0
  -25.4600  -36.3270   23.9010 C   0  0  0  0  0  3  0  0  0  0  0  0
  -27.6050  -37.2010   24.7170 C   0  0  0  0  0  1  0  0  0  0  0  0
  -26.4940  -37.3800   23.7860 N   0  0  0  0  0  0  0  0  0  0  0  0
  -26.0920  -38.3000   23.9450 H   0  0  0  0  0  0  0  0  0  0  0  0
  2  1  1  0
  3  1  1  0
  4  5  1  0
  4  6  1  0
  5  8  1  0
  5  2  1  0
  6 52  1  0
  6  3  1  0
  7 10  2  0
  7  9  1  0
  8 11  1  0
  9  8  2  0
 10 11  1  0
 11 12  1  0
 13 12  1  0
 13 23  1  0
 14 23  1  0
 15 20  1  0
 16 17  1  0
 16 15  1  0
 18 17  1  0
 18 27  1  0
 18 19  1  0
 20 14  1  0
 20 19  1  0
 21 14  2  0
 23 22  1  0
 24 25  2  0
 25 44  1  0
 26 25  1  0
 26 29  1  0
 27 28  1  0
 27 24  1  0
 28 26  2  0
 29 30  1  0
 30 31  2  0
 32 35  1  0
 32 31  1  0
 33 32  2  0
 34 33  1  0
 34 29  2  0
 35 36  1  0
 36 37  1  0
 37 38  2  0
 39 38  1  0
 39 43  1  0
 40 39  2  0
 41 36  2  0
 41 40  1  0
 42 41  1  0
 44 45  1  0
 45 48  1  0
 45 47  1  0
 46 44  2  0
 49 50  1  0
 49 24  1  0
 51 49  1  0
 53 52  1  0
 54 65  2  0
 55 53  1  0
 55 60  1  0
 56 64  1  0
 56 66  1  0
 57 63  1  0
 57 59  1  0
 58 64  1  0
 59 58  1  0
 60 59  2  0
 61 62  1  0
 61 55  2  0
 62 57  2  0
 63 56  1  0
 64 54  1  0
 66 68  2  0
 67 66  1  0
 69 67  1  0
 70 79  2  0
 70 75  1  0
 71 67  1  0
 71 75  1  0
 72 71  1  0
 73 74  1  0
 73 72  1  0
 74 70  1  0
 75 76  2  0
 76 77  1  0
 78 77  2  0
 79 78  1  0
 80 54  1  0
 80 85  1  0
 80 81  1  0
 81 84  1  1
 81 82  1  0
 83 81  1  0
 85 88  1  0
 86 90  1  0
 86 85  1  0
 87 86  2  0
 90 89  1  0
 92 90  1  0
 92 93  1  0
 92 91  1  0
M  ISO  4  14 100  23 100  52 101  53 101
M  END
>  <TORSDO>  (73) 
F 20

>  <SCORE>  (73) 
-13.386

>  <name>  (73) 
79

>  <ligand_id>  (73) 
79

>  <original_smiles>  (73) 
[H]c1nc(C2([H])C([H])([H])C([H])([H])C([H])([H])C([H])(C([H])([H])Oc3c([H])c([H])c4c(c3[H])C([H])([H])N(C(=O)C([H])(N([H])C(=O)C([H])(N([H])C([H])([H])[H])C([H])([H])[H])C(C([H])([H])[H])(C([H])([H])[H])C([H])([H])[H])C([H])(C(=O)N([H])C3([H])c5c([H])c([H])c([H])c([H])c5C([H])([H])C([H])([H])C3([H])[H])C4([H])[H])C2([H])[H])n(C([H])([H])C([H])([H])N(C(=O)N2C([H])([H])C([H])([H])C([H])([H])C([H])(n3nc(-c4c([H])c([H])c(Oc5c([H])c([H])c(F)c([H])c5F)c([H])c4[H])c(C(=O)N([H])[H])c3N([H])[H])C2([H])[H])C([H])([H])[H])n1

>  <smiles>  (73) 
[H]c1nc(C2([H])C([H])([H])C([H])([H])C([H])([H])C([H])(C([H])([H])Oc3c([H])c([H])c4c(c3[H])C([H])([H])N(C(=O)C([H])(N([H])C(=O)C([H])(N([H])C([H])([H])[H])C([H])([H])[H])C(C([H])([H])[H])(C([H])([H])[H])C([H])([H])[H])C([H])(C(=O)N([H])C3([H])c5c([H])c([H])c([H])c([H])c5C([H])([H])C([H])([H])C3([H])[H])C4([H])[H])C2([H])[H])n(C([H])([H])C([H])([H])N(C(=O)N2C([H])([H])C([H])([H])C([H])([H])C([H])(n3nc(-c4c([H])c([H])c(Oc5c([H])c([H])c(F)c([H])c5F)c([H])c4[H])c(C(=O)N([H])[H])c3N([H])[H])C2([H])[H])C([H])([H])[H])n1

$$$$
80:0:0
     RDKit          3D

 92100  0  0  1  0  0  0  0  0999 V2000
  -30.8990  -20.1500   21.7750 C   0  0  0  0  0  3  0  0  0  0  0  0
  -30.5030  -19.1570   20.8440 C   0  0  0  0  0  0  0  0  0  0  0  0
  -29.3220  -21.6210   20.9170 C   0  0  0  0  0  0  0  0  0  0  0  0
  -28.9300  -20.6200   19.9680 C   0  0  0  0  0  0  0  0  0  0  0  0
  -30.3200  -21.3790   21.8060 N   0  0  0  0  0  0  0  0  0  0  0  0
  -29.5550  -19.4160   19.9120 N   0  0  0  0  0  0  0  0  0  0  0  0
  -28.0650  -21.5280   17.7210 C   0  0  0  0  0  1  0  0  0  0  0  0
  -27.7470  -20.7520   19.0070 C   0  0  0  0  0  2  0  0  0  0  0  0
  -31.0950  -17.7400   20.8510 C   0  0  0  0  0  2  0  0  0  0  0  0
  -30.0140  -16.6450   21.0660 C   0  0  0  0  0  2  0  0  0  0  0  0
  -30.8430  -14.4930   20.0900 C   0  0  0  0  0  0  0  0  0  0  0  0
  -30.3880  -12.4490   18.7660 C   0  0  0  0  0  2  0  0  0  0  0  0
  -29.3610  -12.7050   17.6440 C   0  0  0  0  0  2  0  0  0  0  0  0
  -27.9280  -12.5310   18.1750 C   0  0  0  0  0  2  0  0  0  0  0  0
  -27.6820  -13.3270   19.4830 C   0  0  0  0  0  3  0  0  0  0  0  0
  -28.8030  -13.0560   20.5100 C   0  0  0  0  0  2  0  0  0  0  0  0
  -30.1050  -13.3640   19.8840 N   0  0  0  0  0  0  0  0  0  0  0  0
  -31.7760  -14.8280   19.3530 O   0  0  0  0  0  0  0  0  0  0  0  0
  -30.8980  -14.8050   22.4960 C   0  0  0  0  0  1  0  0  0  0  0  0
  -30.4900  -15.2450   21.1600 N   0  0  0  0  0  0  0  0  0  0  0  0
  -25.3260  -13.9140   20.3420 C   0  0  0  0  0  0  0  0  0  0  0  0
  -24.2840  -13.1310   20.7650 C   0  0  0  0  0  0  0  0  0  0  0  0
  -24.7470  -11.7820   20.6850 C   0  0  0  0  0  0  0  0  0  0  0  0
  -26.3590  -13.0420   20.0380 N   0  0  0  0  0  0  0  0  0  0  0  0
  -26.0160  -11.7540   20.2990 N   0  0  0  0  0  0  0  0  0  0  0  0
  -24.0370  -10.5140   20.8980 C   0  0  0  0  0  0  0  0  0  0  0  0
  -24.5040   -9.5570   21.8230 C   0  0  0  0  0  3  0  0  0  0  0  0
  -23.7960   -8.3530   22.0270 C   0  0  0  0  0  3  0  0  0  0  0  0
  -22.6070   -8.0980   21.3030 C   0  0  0  0  0  0  0  0  0  0  0  0
  -22.1580   -9.0470   20.3670 C   0  0  0  0  0  3  0  0  0  0  0  0
  -22.8670  -10.2420   20.1620 C   0  0  0  0  0  3  0  0  0  0  0  0
  -21.8650   -6.9460   21.4170 O   0  0  0  0  0  0  0  0  0  0  0  0
  -21.8200   -6.2310   22.5860 C   0  0  0  0  0  0  0  0  0  0  0  0
  -21.3940   -6.8140   23.7980 C   0  0  0  0  0  3  0  0  0  0  0  0
  -21.2960   -6.0260   24.9630 C   0  0  0  0  0  3  0  0  0  0  0  0
  -21.6130   -4.6550   24.9140 C   0  0  0  0  0  0  0  0  0  0  0  0
  -22.0330   -4.0710   23.7060 C   0  0  0  0  0  3  0  0  0  0  0  0
  -22.1330   -4.8580   22.5450 C   0  0  0  0  0  0  0  0  0  0  0  0
  -22.5190   -4.2860   21.3780 F   0  0  0  0  0  0  0  0  0  0  0  0
  -21.5100   -3.8940   26.0300 F   0  0  0  0  0  0  0  0  0  0  0  0
  -22.9060  -13.5990   21.1320 C   0  0  0  0  0  0  0  0  0  0  0  0
  -22.2430  -12.8930   22.0430 N   0  0  0  0  0  0  0  0  0  0  0  0
  -22.4230  -14.6220   20.6470 O   0  0  0  0  0  0  0  0  0  0  0  0
  -22.6450  -12.0680   22.4590 H   0  0  0  0  0  0  0  0  0  0  0  0
  -21.3190  -13.1840   22.3260 H   0  0  0  0  0  0  0  0  0  0  0  0
  -25.4720  -15.2850   20.1720 N   0  0  0  0  0  0  0  0  0  0  0  0
  -24.7160  -15.9390   20.3480 H   0  0  0  0  0  0  0  0  0  0  0  0
  -26.3120  -15.7370   19.8290 H   0  0  0  0  0  0  0  0  0  0  0  0
  -28.5670  -22.9440   21.1220 C   0  0  0  0  0  2  0  0  0  0  0  0
  -29.2670  -24.2690   20.6840 C   0  0  0  0  0  2  0  0  0  0  0  0
  -28.2170  -25.2740   20.1390 C   0  0  0  0  0  2  0  0  0  0  0  0
  -28.4530  -26.6980   20.2360 O   0  0  0  0  0  0  0  0  0  0  0  0
  -24.6120  -31.9180   23.2550 C   0  0  0  0  0  0  0  0  0  0  0  0
  -27.3030  -27.4790   20.1760 C   0  0  0  0  0  0  0  0  0  0  0  0
  -23.4310  -30.5210   21.5960 C   0  0  0  0  0  3  0  0  0  0  0  0
  -24.9080  -29.0070   20.1690 C   0  0  0  0  0  0  0  0  0  0  0  0
  -25.9590  -30.8860   21.4270 C   0  0  0  0  0  2  0  0  0  0  0  0
  -26.0620  -29.5210   20.7720 C   0  0  0  0  0  0  0  0  0  0  0  0
  -27.2630  -28.7670   20.7720 C   0  0  0  0  0  3  0  0  0  0  0  0
  -26.1250  -27.0060   19.5440 C   0  0  0  0  0  3  0  0  0  0  0  0
  -24.9360  -27.7520   19.5450 C   0  0  0  0  0  3  0  0  0  0  0  0
  -23.6580  -29.8600   20.2110 C   0  0  0  0  0  2  0  0  0  0  0  0
  -24.6860  -31.1210   22.1510 N   0  0  0  0  0  0  0  0  0  0  0  0
  -23.5220  -32.1800   23.7810 O   0  0  0  0  0  0  0  0  0  0  0  0
  -22.7760  -29.4870   22.5390 C   0  0  0  0  0  0  0  0  0  0  0  0
  -21.4530  -29.3000   22.3970 N   0  0  0  0  0  0  0  0  0  0  0  0
  -23.4530  -28.8640   23.3610 O   0  0  0  0  0  0  0  0  0  0  0  0
  -20.9670  -29.8520   21.7040 H   0  0  0  0  0  0  0  0  0  0  0  0
  -18.0760  -28.0980   22.8710 C   0  0  0  0  0  0  0  0  0  0  0  0
  -20.6330  -28.3560   23.1560 C   0  0  0  0  0  3  0  0  0  0  0  0
  -20.7410  -26.9320   22.5670 C   0  0  0  0  0  2  0  0  0  0  0  0
  -19.6440  -26.6170   21.5440 C   0  0  0  0  0  2  0  0  0  0  0  0
  -18.2590  -26.7540   22.1840 C   0  0  0  0  0  2  0  0  0  0  0  0
  -19.1910  -28.8550   23.3150 C   0  0  0  0  0  0  0  0  0  0  0  0
  -18.9710  -30.1110   23.9210 C   0  0  0  0  0  3  0  0  0  0  0  0
  -17.6670  -30.6150   24.0790 C   0  0  0  0  0  3  0  0  0  0  0  0
  -16.5640  -29.8540   23.6560 C   0  0  0  0  0  3  0  0  0  0  0  0
  -16.7680  -28.5950   23.0600 C   0  0  0  0  0  3  0  0  0  0  0  0
  -25.8870  -32.5540   23.8880 C   0  0  0  0  0  3  0  0  0  0  0  0
  -25.5680  -33.9510   24.2130 N   0  0  0  0  0  0  0  0  0  0  0  0
  -25.9210  -35.0040   23.4640 C   0  0  0  0  0  0  0  0  0  0  0  0
  -26.6190  -34.9020   22.4510 O   0  0  0  0  0  0  0  0  0  0  0  0
  -24.9460  -34.1020   24.9930 H   0  0  0  0  0  0  0  0  0  0  0  0
  -24.2100  -36.8040   23.0620 C   0  0  0  0  0  1  0  0  0  0  0  0
  -25.4240  -36.3900   23.9110 C   0  0  0  0  0  3  0  0  0  0  0  0
  -27.5350  -37.2650   24.8140 C   0  0  0  0  0  1  0  0  0  0  0  0
  -26.4640  -37.4400   23.8360 N   0  0  0  0  0  0  0  0  0  0  0  0
  -26.0570  -38.3610   23.9780 H   0  0  0  0  0  0  0  0  0  0  0  0
  -26.3980  -31.7800   25.1640 C   0  0  1  0  0  0  0  0  0  0  0  0
  -25.2970  -31.5210   26.2180 C   0  0  0  0  0  1  0  0  0  0  0  0
  -26.9980  -30.4090   24.7720 C   0  0  0  0  0  1  0  0  0  0  0  0
  -27.5390  -32.5790   25.8410 C   0  0  0  0  0  1  0  0  0  0  0  0
  1  5  1  0
  2  9  1  0
  2  1  2  0
  3 49  1  0
  3  5  2  0
  4  3  1  0
  6  4  2  0
  6  2  1  0
  7  8  1  0
  8  4  1  0
  9 10  1  0
 10 20  1  0
 11 20  1  0
 12 17  1  0
 13 14  1  0
 13 12  1  0
 15 14  1  0
 15 24  1  0
 15 16  1  0
 17 11  1  0
 17 16  1  0
 18 11  2  0
 20 19  1  0
 21 22  2  0
 22 41  1  0
 23 22  1  0
 23 26  1  0
 24 25  1  0
 24 21  1  0
 25 23  2  0
 26 27  1  0
 27 28  2  0
 29 32  1  0
 29 28  1  0
 30 29  2  0
 31 30  1  0
 31 26  2  0
 32 33  1  0
 33 34  1  0
 34 35  2  0
 36 35  1  0
 36 40  1  0
 37 36  2  0
 38 33  2  0
 38 37  1  0
 39 38  1  0
 41 42  1  0
 42 45  1  0
 42 44  1  0
 43 41  2  0
 46 21  1  0
 46 47  1  0
 48 46  1  0
 50 49  1  0
 51 52  1  0
 51 50  1  0
 53 64  2  0
 54 52  1  0
 54 59  1  0
 55 63  1  0
 55 65  1  0
 56 62  1  0
 56 58  1  0
 57 63  1  0
 58 59  2  0
 58 57  1  0
 60 61  1  0
 60 54  2  0
 61 56  2  0
 62 55  1  0
 63 53  1  0
 65 67  2  0
 66 65  1  0
 68 66  1  0
 69 78  2  0
 69 74  1  0
 70 66  1  0
 70 74  1  0
 71 70  1  0
 72 73  1  0
 72 71  1  0
 73 69  1  0
 74 75  2  0
 75 76  1  0
 77 76  2  0
 78 77  1  0
 79 53  1  0
 79 80  1  0
 79 89  1  0
 80 83  1  0
 81 85  1  0
 81 80  1  0
 82 81  2  0
 85 84  1  0
 87 85  1  0
 87 88  1  0
 87 86  1  0
 89 92  1  1
 89 90  1  0
 91 89  1  0
M  ISO  4  11 100  20 100  51 101  52 101
M  END
>  <TORSDO>  (74) 
F 22

>  <SCORE>  (74) 
-12.217

>  <name>  (74) 
80

>  <ligand_id>  (74) 
80

>  <original_smiles>  (74) 
[H]c1nc(C([H])([H])C([H])([H])C([H])([H])Oc2c([H])c([H])c3c(c2[H])C([H])([H])N(C(=O)C([H])(N([H])C(=O)C([H])(N([H])C([H])([H])[H])C([H])([H])[H])C(C([H])([H])[H])(C([H])([H])[H])C([H])([H])[H])C([H])(C(=O)N([H])C2([H])c4c([H])c([H])c([H])c([H])c4C([H])([H])C([H])([H])C2([H])[H])C3([H])[H])c(C([H])([H])C([H])([H])[H])nc1C([H])([H])C([H])([H])N(C(=O)N1C([H])([H])C([H])([H])C([H])([H])C([H])(n2nc(-c3c([H])c([H])c(Oc4c([H])c([H])c(F)c([H])c4F)c([H])c3[H])c(C(=O)N([H])[H])c2N([H])[H])C1([H])[H])C([H])([H])[H]

>  <smiles>  (74) 
[H]c1nc(C([H])([H])C([H])([H])C([H])([H])Oc2c([H])c([H])c3c(c2[H])C([H])([H])N(C(=O)C([H])(N([H])C(=O)C([H])(N([H])C([H])([H])[H])C([H])([H])[H])C(C([H])([H])[H])(C([H])([H])[H])C([H])([H])[H])C([H])(C(=O)N([H])C2([H])c4c([H])c([H])c([H])c([H])c4C([H])([H])C([H])([H])C2([H])[H])C3([H])[H])c(C([H])([H])C([H])([H])[H])nc1C([H])([H])C([H])([H])N(C(=O)N1C([H])([H])C([H])([H])C([H])([H])C([H])(n2nc(-c3c([H])c([H])c(Oc4c([H])c([H])c(F)c([H])c4F)c([H])c3[H])c(C(=O)N([H])[H])c2N([H])[H])C1([H])[H])C([H])([H])[H]

$$$$
81:0:0
     RDKit          3D

 96104  0  0  1  0  0  0  0  0999 V2000
  -29.7670  -19.9290   21.4040 C   0  0  0  0  0  3  0  0  0  0  0  0
  -29.9280  -21.3350   21.5550 C   0  0  0  0  0  0  0  0  0  0  0  0
  -29.4320  -19.5970   20.1250 C   0  0  0  0  0  0  0  0  0  0  0  0
  -29.6380  -21.8910   20.3250 C   0  0  0  0  0  0  0  0  0  0  0  0
  -28.8280  -21.0140   18.0880 C   0  0  0  0  0  1  0  0  0  0  0  0
  -29.2710  -20.8330   19.4620 N   0  0  0  0  0  0  0  0  0  0  0  0
  -31.9010  -22.3020   22.7460 C   0  0  0  0  0  1  0  0  0  0  0  0
  -30.1980  -21.0300   24.0500 C   0  0  0  0  0  1  0  0  0  0  0  0
  -29.6250  -23.2840   23.1830 C   0  0  0  0  0  1  0  0  0  0  0  0
  -30.3990  -21.9930   22.8590 C   0  0  2  0  0  0  0  0  0  0  0  0
  -27.7760  -17.7420   20.0730 C   0  0  0  0  0  1  0  0  0  0  0  0
  -29.2480  -17.9400   18.1070 C   0  0  0  0  0  1  0  0  0  0  0  0
  -29.1960  -18.1440   19.6350 C   0  0  1  0  0  0  0  0  0  0  0  0
  -30.2960  -17.1690   20.2300 C   0  0  0  0  0  2  0  0  0  0  0  0
  -30.5630  -14.6700   20.0390 C   0  0  0  0  0  0  0  0  0  0  0  0
  -30.3120  -12.4640   18.9220 C   0  0  0  0  0  2  0  0  0  0  0  0
  -29.2760  -12.5670   17.7810 C   0  0  0  0  0  2  0  0  0  0  0  0
  -27.8330  -12.3840   18.2980 C   0  0  0  0  0  2  0  0  0  0  0  0
  -27.5480  -13.1980   19.5870 C   0  0  0  0  0  3  0  0  0  0  0  0
  -28.6870  -12.9830   20.6000 C   0  0  0  0  0  2  0  0  0  0  0  0
  -29.9360  -13.4450   19.9660 N   0  0  0  0  0  0  0  0  0  0  0  0
  -31.6300  -14.8440   19.4410 O   0  0  0  0  0  0  0  0  0  0  0  0
  -29.1830  -15.7110   21.8490 C   0  0  0  0  0  1  0  0  0  0  0  0
  -29.8980  -15.7570   20.5610 N   0  0  0  0  0  0  0  0  0  0  0  0
  -25.2050  -13.7270   20.5100 C   0  0  0  0  0  0  0  0  0  0  0  0
  -24.1870  -12.9180   20.9320 C   0  0  0  0  0  0  0  0  0  0  0  0
  -24.6690  -11.5790   20.8090 C   0  0  0  0  0  0  0  0  0  0  0  0
  -26.2440  -12.8780   20.1590 N   0  0  0  0  0  0  0  0  0  0  0  0
  -25.9290  -11.5780   20.3920 N   0  0  0  0  0  0  0  0  0  0  0  0
  -23.9850  -10.2940   21.0040 C   0  0  0  0  0  0  0  0  0  0  0  0
  -24.4280   -9.3570   21.9650 C   0  0  0  0  0  3  0  0  0  0  0  0
  -23.7420   -8.1370   22.1430 C   0  0  0  0  0  3  0  0  0  0  0  0
  -22.6000   -7.8440   21.3610 C   0  0  0  0  0  0  0  0  0  0  0  0
  -22.1760   -8.7700   20.3910 C   0  0  0  0  0  3  0  0  0  0  0  0
  -22.8640   -9.9810   20.2090 C   0  0  0  0  0  3  0  0  0  0  0  0
  -21.8850   -6.6730   21.4500 O   0  0  0  0  0  0  0  0  0  0  0  0
  -21.7450   -6.0020   22.6390 C   0  0  0  0  0  0  0  0  0  0  0  0
  -21.1280   -6.5960   23.7620 C   0  0  0  0  0  3  0  0  0  0  0  0
  -20.9390   -5.8460   24.9410 C   0  0  0  0  0  3  0  0  0  0  0  0
  -21.3630   -4.5050   24.9980 C   0  0  0  0  0  0  0  0  0  0  0  0
  -21.9760   -3.9110   23.8800 C   0  0  0  0  0  3  0  0  0  0  0  0
  -22.1630   -4.6570   22.7030 C   0  0  0  0  0  0  0  0  0  0  0  0
  -22.7310   -4.0720   21.6210 F   0  0  0  0  0  0  0  0  0  0  0  0
  -21.1780   -3.7820   26.1270 F   0  0  0  0  0  0  0  0  0  0  0  0
  -22.8070  -13.3510   21.3380 C   0  0  0  0  0  0  0  0  0  0  0  0
  -22.1730  -12.6150   22.2460 N   0  0  0  0  0  0  0  0  0  0  0  0
  -22.2990  -14.3760   20.8840 O   0  0  0  0  0  0  0  0  0  0  0  0
  -22.5960  -11.7850   22.6350 H   0  0  0  0  0  0  0  0  0  0  0  0
  -21.2520  -12.8860   22.5580 H   0  0  0  0  0  0  0  0  0  0  0  0
  -25.3290  -15.1070   20.3740 N   0  0  0  0  0  0  0  0  0  0  0  0
  -24.5680  -15.7470   20.5700 H   0  0  0  0  0  0  0  0  0  0  0  0
  -26.1510  -15.5680   20.0040 H   0  0  0  0  0  0  0  0  0  0  0  0
  -29.7870  -23.3500   19.8740 C   0  0  0  0  0  2  0  0  0  0  0  0
  -28.5160  -24.2680   19.7820 C   0  0  0  0  0  2  0  0  0  0  0  0
  -28.6120  -25.6320   20.5530 C   0  0  0  0  0  2  0  0  0  0  0  0
  -28.5200  -26.8460   19.7790 O   0  0  0  0  0  0  0  0  0  0  0  0
  -24.6270  -31.8050   23.1940 C   0  0  0  0  0  0  0  0  0  0  0  0
  -27.3380  -27.5550   19.8820 C   0  0  0  0  0  0  0  0  0  0  0  0
  -23.4370  -30.4660   21.4870 C   0  0  0  0  0  3  0  0  0  0  0  0
  -24.9120  -29.0180   19.9860 C   0  0  0  0  0  0  0  0  0  0  0  0
  -25.9570  -30.8730   21.2990 C   0  0  0  0  0  2  0  0  0  0  0  0
  -26.0650  -29.5350   20.5910 C   0  0  0  0  0  0  0  0  0  0  0  0
  -27.2840  -28.8140   20.5310 C   0  0  0  0  0  3  0  0  0  0  0  0
  -26.1660  -27.0500   19.2840 C   0  0  0  0  0  3  0  0  0  0  0  0
  -24.9580  -27.7760   19.3300 C   0  0  0  0  0  3  0  0  0  0  0  0
  -23.6530  -29.8530   20.0770 C   0  0  0  0  0  2  0  0  0  0  0  0
  -24.6910  -31.0610   22.0530 N   0  0  0  0  0  0  0  0  0  0  0  0
  -23.5430  -32.0300   23.7510 O   0  0  0  0  0  0  0  0  0  0  0  0
  -22.8100  -29.3880   22.4020 C   0  0  0  0  0  0  0  0  0  0  0  0
  -21.4850  -29.1970   22.2810 N   0  0  0  0  0  0  0  0  0  0  0  0
  -23.5100  -28.7300   23.1730 O   0  0  0  0  0  0  0  0  0  0  0  0
  -20.9780  -29.7870   21.6360 H   0  0  0  0  0  0  0  0  0  0  0  0
  -18.1370  -27.9200   22.7420 C   0  0  0  0  0  0  0  0  0  0  0  0
  -20.6910  -28.2090   23.0120 C   0  0  0  0  0  3  0  0  0  0  0  0
  -20.8130  -26.8090   22.3660 C   0  0  0  0  0  2  0  0  0  0  0  0
  -19.7090  -26.5170   21.3440 C   0  0  0  0  0  2  0  0  0  0  0  0
  -18.3290  -26.6080   22.0010 C   0  0  0  0  0  2  0  0  0  0  0  0
  -19.2440  -28.6790   23.2020 C   0  0  0  0  0  0  0  0  0  0  0  0
  -19.0080  -29.9100   23.8520 C   0  0  0  0  0  3  0  0  0  0  0  0
  -17.6950  -30.3790   24.0500 C   0  0  0  0  0  3  0  0  0  0  0  0
  -16.6020  -29.6150   23.6050 C   0  0  0  0  0  3  0  0  0  0  0  0
  -16.8240  -28.3880   22.9540 C   0  0  0  0  0  3  0  0  0  0  0  0
  -25.9020  -32.4290   23.8410 C   0  0  0  0  0  3  0  0  0  0  0  0
  -25.5880  -33.8210   24.1920 N   0  0  0  0  0  0  0  0  0  0  0  0
  -25.9250  -34.8870   23.4530 C   0  0  0  0  0  0  0  0  0  0  0  0
  -26.6060  -34.8020   22.4280 O   0  0  0  0  0  0  0  0  0  0  0  0
  -24.9870  -33.9630   24.9900 H   0  0  0  0  0  0  0  0  0  0  0  0
  -24.1920  -36.6770   23.1140 C   0  0  0  0  0  1  0  0  0  0  0  0
  -25.4290  -36.2670   23.9280 C   0  0  0  0  0  3  0  0  0  0  0  0
  -27.5490  -37.1520   24.7930 C   0  0  0  0  0  1  0  0  0  0  0  0
  -26.4570  -37.3250   23.8370 N   0  0  0  0  0  0  0  0  0  0  0  0
  -26.0470  -38.2430   23.9880 H   0  0  0  0  0  0  0  0  0  0  0  0
  -26.4110  -31.6360   25.1070 C   0  0  1  0  0  0  0  0  0  0  0  0
  -25.3140  -31.3870   26.1690 C   0  0  0  0  0  1  0  0  0  0  0  0
  -26.9870  -30.2610   24.6950 C   0  0  0  0  0  1  0  0  0  0  0  0
  -27.5640  -32.4130   25.7840 C   0  0  0  0  0  1  0  0  0  0  0  0
  1  2  1  0
  2 10  1  0
  3  1  2  0
  4  2  2  0
  5  6  1  0
  6  3  1  0
  6  4  1  0
 10  7  1  6
 10  9  1  0
 10  8  1  0
 13 12  1  6
 13 11  1  0
 13  3  1  0
 13 14  1  0
 14 24  1  0
 15 24  1  0
 16 21  1  0
 17 18  1  0
 17 16  1  0
 19 18  1  0
 19 28  1  0
 19 20  1  0
 21 15  1  0
 21 20  1  0
 22 15  2  0
 24 23  1  0
 25 26  2  0
 26 45  1  0
 27 26  1  0
 27 30  1  0
 28 29  1  0
 28 25  1  0
 29 27  2  0
 30 31  1  0
 31 32  2  0
 33 36  1  0
 33 32  1  0
 34 33  2  0
 35 34  1  0
 35 30  2  0
 36 37  1  0
 37 42  2  0
 37 38  1  0
 38 39  2  0
 39 40  1  0
 40 44  1  0
 41 40  2  0
 42 41  1  0
 43 42  1  0
 45 46  1  0
 46 49  1  0
 46 48  1  0
 47 45  2  0
 50 25  1  0
 50 51  1  0
 52 50  1  0
 53  4  1  0
 54 53  1  0
 54 55  1  0
 56 58  1  0
 56 55  1  0
 57 68  2  0
 58 63  1  0
 59 67  1  0
 59 69  1  0
 60 66  1  0
 60 62  1  0
 61 67  1  0
 62 61  1  0
 63 62  2  0
 64 65  1  0
 64 58  2  0
 65 60  2  0
 66 59  1  0
 67 57  1  0
 69 71  2  0
 70 69  1  0
 72 70  1  0
 73 82  2  0
 73 78  1  0
 74 70  1  0
 74 78  1  0
 75 74  1  0
 76 77  1  0
 76 75  1  0
 77 73  1  0
 78 79  2  0
 79 80  1  0
 81 80  2  0
 82 81  1  0
 83 57  1  0
 83 84  1  0
 83 93  1  0
 84 87  1  0
 85 89  1  0
 85 84  1  0
 86 85  2  0
 89 88  1  0
 91 89  1  0
 91 92  1  0
 91 90  1  0
 93 96  1  1
 93 94  1  0
 95 93  1  0
M  ISO  4  15 100  24 100  55 101  56 101
M  END
>  <TORSDO>  (75) 
F 22

>  <SCORE>  (75) 
-11.565

>  <name>  (75) 
81

>  <ligand_id>  (75) 
81

>  <original_smiles>  (75) 
[H]c1c([H])c([H])c2c(c1[H])C([H])([H])C([H])([H])C([H])([H])C2([H])N([H])C(=O)C1([H])N(C(=O)C([H])(N([H])C(=O)C([H])(N([H])C([H])([H])[H])C([H])([H])[H])C(C([H])([H])[H])(C([H])([H])[H])C([H])([H])[H])C([H])([H])c2c([H])c(OC([H])([H])C([H])([H])C([H])([H])c3c(C(C([H])([H])[H])(C([H])([H])[H])C([H])([H])[H])c([H])c(C(C([H])([H])[H])(C([H])([H])[H])C([H])([H])N(C(=O)N4C([H])([H])C([H])([H])C([H])([H])C([H])(n5nc(-c6c([H])c([H])c(Oc7c([H])c([H])c(F)c([H])c7F)c([H])c6[H])c(C(=O)N([H])[H])c5N([H])[H])C4([H])[H])C([H])([H])[H])n3C([H])([H])[H])c([H])c([H])c2C1([H])[H]

>  <smiles>  (75) 
[H]c1c([H])c([H])c2c(c1[H])C([H])([H])C([H])([H])C([H])([H])C2([H])N([H])C(=O)C1([H])N(C(=O)C([H])(N([H])C(=O)C([H])(N([H])C([H])([H])[H])C([H])([H])[H])C(C([H])([H])[H])(C([H])([H])[H])C([H])([H])[H])C([H])([H])c2c([H])c(OC([H])([H])C([H])([H])C([H])([H])c3c(C(C([H])([H])[H])(C([H])([H])[H])C([H])([H])[H])c([H])c(C(C([H])([H])[H])(C([H])([H])[H])C([H])([H])N(C(=O)N4C([H])([H])C([H])([H])C([H])([H])C([H])(n5nc(-c6c([H])c([H])c(Oc7c([H])c([H])c(F)c([H])c7F)c([H])c6[H])c(C(=O)N([H])[H])c5N([H])[H])C4([H])[H])C([H])([H])[H])n3C([H])([H])[H])c([H])c([H])c2C1([H])[H]

$$$$
82:0:0
     RDKit          3D

102110  0  0  1  0  0  0  0  0999 V2000
  -31.9080  -22.2710   19.9710 C   0  0  0  0  0  2  0  0  0  0  0  0
  -31.8680  -21.3230   21.1940 C   0  0  0  0  0  2  0  0  0  0  0  0
  -31.1520  -19.9670   20.9440 C   0  0  0  0  0  2  0  0  0  0  0  0
  -32.9600  -17.1520   19.4960 C   0  0  0  0  0  3  0  0  0  0  0  0
  -33.5360  -18.3230   18.9390 C   0  0  0  0  0  0  0  0  0  0  0  0
  -31.9560  -17.5760   20.3330 C   0  0  0  0  0  0  0  0  0  0  0  0
  -32.8910  -19.3980   19.3570 N   0  0  0  0  0  0  0  0  0  0  0  0
  -31.9660  -18.9680   20.2450 N   0  0  0  0  0  0  0  0  0  0  0  0
  -34.7240  -18.4410   17.9990 C   0  0  1  0  0  0  0  0  0  0  0  0
  -35.6600  -17.5490   18.3270 F   0  0  0  0  0  0  0  0  0  0  0  0
  -34.3410  -18.2210   16.7420 F   0  0  0  0  0  0  0  0  0  0  0  0
  -35.2640  -19.6590   18.0710 F   0  0  0  0  0  0  0  0  0  0  0  0
  -31.0570  -16.7800   21.2770 C   0  0  0  0  0  2  0  0  0  0  0  0
  -30.7660  -14.4880   20.4000 C   0  0  0  0  0  0  0  0  0  0  0  0
  -30.3040  -12.3160   19.3420 C   0  0  0  0  0  2  0  0  0  0  0  0
  -29.3880  -12.5020   18.1180 C   0  0  0  0  0  2  0  0  0  0  0  0
  -27.9140  -12.3880   18.5410 C   0  0  0  0  0  2  0  0  0  0  0  0
  -27.5780  -13.2520   19.7850 C   0  0  0  0  0  3  0  0  0  0  0  0
  -28.6480  -13.1550   20.9010 C   0  0  0  0  0  2  0  0  0  0  0  0
  -29.9630  -13.3910   20.2890 N   0  0  0  0  0  0  0  0  0  0  0  0
  -31.9640  -14.4090   20.1530 O   0  0  0  0  0  0  0  0  0  0  0  0
  -29.1300  -16.2610   19.8650 C   0  0  0  0  0  1  0  0  0  0  0  0
  -30.2310  -15.7100   20.6650 N   0  0  0  0  0  0  0  0  0  0  0  0
  -25.1940  -13.8730   20.5020 C   0  0  0  0  0  0  0  0  0  0  0  0
  -24.1250  -13.1080   20.8780 C   0  0  0  0  0  0  0  0  0  0  0  0
  -24.5840  -11.7540   20.8600 C   0  0  0  0  0  0  0  0  0  0  0  0
  -26.2370  -12.9860   20.2850 N   0  0  0  0  0  0  0  0  0  0  0  0
  -25.8750  -11.7080   20.5580 N   0  0  0  0  0  0  0  0  0  0  0  0
  -23.8510  -10.4960   21.0520 C   0  0  0  0  0  0  0  0  0  0  0  0
  -24.2930   -9.5230   21.9780 C   0  0  0  0  0  3  0  0  0  0  0  0
  -23.5670   -8.3270   22.1610 C   0  0  0  0  0  3  0  0  0  0  0  0
  -22.3840   -8.0980   21.4200 C   0  0  0  0  0  0  0  0  0  0  0  0
  -21.9630   -9.0560   20.4820 C   0  0  0  0  0  3  0  0  0  0  0  0
  -22.6880  -10.2420   20.2960 C   0  0  0  0  0  3  0  0  0  0  0  0
  -21.6260   -6.9560   21.5120 O   0  0  0  0  0  0  0  0  0  0  0  0
  -21.6010   -6.1990   22.6550 C   0  0  0  0  0  0  0  0  0  0  0  0
  -21.2320   -6.7440   23.9030 C   0  0  0  0  0  3  0  0  0  0  0  0
  -21.1590   -5.9140   25.0410 C   0  0  0  0  0  3  0  0  0  0  0  0
  -21.4440   -4.5420   24.9290 C   0  0  0  0  0  0  0  0  0  0  0  0
  -21.8030   -3.9940   23.6840 C   0  0  0  0  0  3  0  0  0  0  0  0
  -21.8820   -4.8210   22.5490 C   0  0  0  0  0  0  0  0  0  0  0  0
  -22.2080   -4.2870   21.3500 F   0  0  0  0  0  0  0  0  0  0  0  0
  -21.3640   -3.7420   26.0190 F   0  0  0  0  0  0  0  0  0  0  0  0
  -22.7260  -13.5890   21.1400 C   0  0  0  0  0  0  0  0  0  0  0  0
  -21.9900  -12.9020   22.0080 N   0  0  0  0  0  0  0  0  0  0  0  0
  -22.2970  -14.6120   20.6120 O   0  0  0  0  0  0  0  0  0  0  0  0
  -22.3530  -12.0720   22.4540 H   0  0  0  0  0  0  0  0  0  0  0  0
  -21.0480  -13.2030   22.2230 H   0  0  0  0  0  0  0  0  0  0  0  0
  -25.3670  -15.2420   20.3030 N   0  0  0  0  0  0  0  0  0  0  0  0
  -24.6060  -15.9040   20.3870 H   0  0  0  0  0  0  0  0  0  0  0  0
  -26.2290  -15.6710   19.9920 H   0  0  0  0  0  0  0  0  0  0  0  0
  -32.6800  -23.5820   20.2090 C   0  0  0  0  0  2  0  0  0  0  0  0
  -32.7470  -24.3780   18.9580 N   0  0  0  0  0  4  0  0  0  0  0  0
  -31.8400  -24.3210   18.5200 H   0  0  0  0  0  0  0  0  0  0  0  0
  -33.3950  -23.9180   18.3360 H   0  0  0  0  0  0  0  0  0  0  0  0
  -33.1800  -26.3950   17.6140 C   0  0  0  0  0  1  0  0  0  0  0  0
  -34.5100  -26.0030   19.6830 C   0  0  0  0  0  1  0  0  0  0  0  0
  -33.1120  -25.8190   19.0480 C   0  0  2  0  0  0  0  0  0  0  0  0
  -32.0680  -26.6180   19.8770 C   0  0  0  0  0  2  0  0  0  0  0  0
  -30.6010  -26.3940   19.4630 C   0  0  0  0  0  2  0  0  0  0  0  0
  -29.6130  -27.3030   20.2030 C   0  0  0  0  0  2  0  0  0  0  0  0
  -28.3430  -26.6890   20.0520 O   0  0  0  0  0  0  0  0  0  0  0  0
  -24.5590  -31.8840   23.2140 C   0  0  0  0  0  0  0  0  0  0  0  0
  -27.2110  -27.4600   20.1480 C   0  0  0  0  0  0  0  0  0  0  0  0
  -23.3460  -30.4650   21.5880 C   0  0  0  0  0  3  0  0  0  0  0  0
  -24.7970  -28.9190   20.1770 C   0  0  0  0  0  0  0  0  0  0  0  0
  -25.8630  -30.8440   21.3640 C   0  0  0  0  0  2  0  0  0  0  0  0
  -25.9530  -29.4670   20.7450 C   0  0  0  0  0  0  0  0  0  0  0  0
  -27.1650  -28.7470   20.7340 C   0  0  0  0  0  3  0  0  0  0  0  0
  -26.0330  -26.9070   19.6100 C   0  0  0  0  0  3  0  0  0  0  0  0
  -24.8260  -27.6320   19.6130 C   0  0  0  0  0  3  0  0  0  0  0  0
  -23.5490  -29.7680   20.2170 C   0  0  0  0  0  2  0  0  0  0  0  0
  -24.6090  -31.0790   22.1160 N   0  0  0  0  0  0  0  0  0  0  0  0
  -23.4810  -32.1570   23.7580 O   0  0  0  0  0  0  0  0  0  0  0  0
  -22.7000  -29.4530   22.5610 C   0  0  0  0  0  0  0  0  0  0  0  0
  -21.3760  -29.2710   22.4390 N   0  0  0  0  0  0  0  0  0  0  0  0
  -23.3880  -28.8310   23.3740 O   0  0  0  0  0  0  0  0  0  0  0  0
  -20.8840  -29.8260   21.7540 H   0  0  0  0  0  0  0  0  0  0  0  0
  -18.0000  -28.0960   22.9600 C   0  0  0  0  0  0  0  0  0  0  0  0
  -20.5610  -28.3410   23.2180 C   0  0  0  0  0  3  0  0  0  0  0  0
  -20.6530  -26.9070   22.6460 C   0  0  0  0  0  2  0  0  0  0  0  0
  -19.5450  -26.5860   21.6390 C   0  0  0  0  0  2  0  0  0  0  0  0
  -18.1680  -26.7420   22.2900 C   0  0  0  0  0  2  0  0  0  0  0  0
  -19.1260  -28.8530   23.3800 C   0  0  0  0  0  0  0  0  0  0  0  0
  -18.9200  -30.1210   23.9650 C   0  0  0  0  0  3  0  0  0  0  0  0
  -17.6190  -30.6310   24.1360 C   0  0  0  0  0  3  0  0  0  0  0  0
  -16.5080  -29.8710   23.7300 C   0  0  0  0  0  3  0  0  0  0  0  0
  -16.7000  -28.6060   23.1490 C   0  0  0  0  0  3  0  0  0  0  0  0
  -25.8480  -32.5170   23.8240 C   0  0  0  0  0  3  0  0  0  0  0  0
  -25.5350  -33.9090   24.1670 N   0  0  0  0  0  0  0  0  0  0  0  0
  -25.8590  -34.9680   23.4100 C   0  0  0  0  0  0  0  0  0  0  0  0
  -26.5230  -34.8750   22.3740 O   0  0  0  0  0  0  0  0  0  0  0  0
  -24.9450  -34.0560   24.9720 H   0  0  0  0  0  0  0  0  0  0  0  0
  -24.1190  -36.7520   23.0750 C   0  0  0  0  0  1  0  0  0  0  0  0
  -25.3660  -36.3500   23.8800 C   0  0  0  0  0  3  0  0  0  0  0  0
  -27.5010  -37.2380   24.7030 C   0  0  0  0  0  1  0  0  0  0  0  0
  -26.3920  -37.4100   23.7680 N   0  0  0  0  0  0  0  0  0  0  0  0
  -25.9820  -38.3250   23.9290 H   0  0  0  0  0  0  0  0  0  0  0  0
  -26.3870  -31.7360   25.0840 C   0  0  1  0  0  0  0  0  0  0  0  0
  -25.3090  -31.4740   26.1590 C   0  0  0  0  0  1  0  0  0  0  0  0
  -26.9830  -30.3710   24.6640 C   0  0  0  0  0  1  0  0  0  0  0  0
  -27.5340  -32.5360   25.7460 C   0  0  0  0  0  1  0  0  0  0  0  0
  1 52  1  0
  1  2  1  0
  3  2  1  0
  4  6  2  0
  5  7  2  0
  5  4  1  0
  6 13  1  0
  7  8  1  0
  8  6  1  0
  8  3  1  0
  9 12  1  6
  9 10  1  0
  9  5  1  0
 11  9  1  0
 14 23  1  0
 15 20  1  0
 16 17  1  0
 16 15  1  0
 18 17  1  0
 18 27  1  0
 18 19  1  0
 20 14  1  0
 20 19  1  0
 21 14  2  0
 22 23  1  0
 23 13  1  0
 24 25  2  0
 25 44  1  0
 26 25  1  0
 26 29  1  0
 27 24  1  0
 27 28  1  0
 28 26  2  0
 29 30  1  0
 30 31  2  0
 32 35  1  0
 32 31  1  0
 33 32  2  0
 34 33  1  0
 34 29  2  0
 35 36  1  0
 36 37  1  0
 37 38  2  0
 39 38  1  0
 39 43  1  0
 40 39  2  0
 41 36  2  0
 41 40  1  0
 42 41  1  0
 44 45  1  0
 45 48  1  0
 45 47  1  0
 46 44  2  0
 49 50  1  0
 49 24  1  0
 51 49  1  0
 53 58  1  0
 53 52  1  0
 54 53  1  0
 55 53  1  0
 58 56  1  6
 58 57  1  0
 58 59  1  0
 60 59  1  0
 60 61  1  0
 62 64  1  0
 62 61  1  0
 63 74  2  0
 64 69  1  0
 65 73  1  0
 65 75  1  0
 66 72  1  0
 66 68  1  0
 67 73  1  0
 68 67  1  0
 69 68  2  0
 70 71  1  0
 70 64  2  0
 71 66  2  0
 72 65  1  0
 73 63  1  0
 75 77  2  0
 76 75  1  0
 78 76  1  0
 79 88  2  0
 79 84  1  0
 80 76  1  0
 80 84  1  0
 81 80  1  0
 82 83  1  0
 82 81  1  0
 83 79  1  0
 84 85  2  0
 85 86  1  0
 87 86  2  0
 88 87  1  0
 89 63  1  0
 89 90  1  0
 89 99  1  0
 90 93  1  0
 91 95  1  0
 91 90  1  0
 92 91  2  0
 95 94  1  0
 97 95  1  0
 97 98  1  0
 97 96  1  0
 99102  1  1
 99100  1  0
101 99  1  0
M  ISO  4  14 100  23 100  61 101  62 101
M  END
>  <TORSDO>  (76) 
F 27

>  <SCORE>  (76) 
-11.722

>  <name>  (76) 
82

>  <ligand_id>  (76) 
82

>  <original_smiles>  (76) 
[H]c1c([H])c([H])c2c(c1[H])C([H])([H])C([H])([H])C([H])([H])C2([H])N([H])C(=O)C1([H])N(C(=O)C([H])(N([H])C(=O)C([H])(N([H])C([H])([H])[H])C([H])([H])[H])C(C([H])([H])[H])(C([H])([H])[H])C([H])([H])[H])C([H])([H])c2c([H])c(OC([H])([H])C([H])([H])C([H])([H])C(C([H])([H])[H])(C([H])([H])[H])[N+]([H])([H])C([H])([H])C([H])([H])C([H])([H])C([H])([H])n3nc(C(F)(F)F)c([H])c3C([H])([H])N(C(=O)N3C([H])([H])C([H])([H])C([H])([H])C([H])(n4nc(-c5c([H])c([H])c(Oc6c([H])c([H])c(F)c([H])c6F)c([H])c5[H])c(C(=O)N([H])[H])c4N([H])[H])C3([H])[H])C([H])([H])[H])c([H])c([H])c2C1([H])[H]

>  <smiles>  (76) 
[H]c1c([H])c([H])c2c(c1[H])C([H])([H])C([H])([H])C([H])([H])C2([H])N([H])C(=O)C1([H])N(C(=O)C([H])(N([H])C(=O)C([H])(N([H])C([H])([H])[H])C([H])([H])[H])C(C([H])([H])[H])(C([H])([H])[H])C([H])([H])[H])C([H])([H])c2c([H])c(OC([H])([H])C([H])([H])C([H])([H])C(C([H])([H])[H])(C([H])([H])[H])[N+]([H])([H])C([H])([H])C([H])([H])C([H])([H])C([H])([H])n3nc(C(F)(F)F)c([H])c3C([H])([H])N(C(=O)N3C([H])([H])C([H])([H])C([H])([H])C([H])(n4nc(-c5c([H])c([H])c(Oc6c([H])c([H])c(F)c([H])c6F)c([H])c5[H])c(C(=O)N([H])[H])c4N([H])[H])C3([H])[H])C([H])([H])[H])c([H])c([H])c2C1([H])[H]

$$$$
83:0:0
     RDKit          3D

 94102  0  0  1  0  0  0  0  0999 V2000
  -29.7940  -19.9110   21.3040 C   0  0  0  0  0  0  0  0  0  0  0  0
  -29.6740  -18.7400   20.4430 C   0  0  0  0  0  0  0  0  0  0  0  0
  -28.9800  -20.9200   20.7740 C   0  0  0  0  0  0  0  0  0  0  0  0
  -28.7650  -18.9990   19.5100 N   0  0  0  0  0  0  0  0  0  0  0  0
  -28.3450  -20.2880   19.7080 N   0  0  0  0  0  0  0  0  0  0  0  0
  -26.3000  -19.8380   18.3600 C   0  0  0  0  0  1  0  0  0  0  0  0
  -28.0370  -21.5490   17.6060 C   0  0  0  0  0  1  0  0  0  0  0  0
  -27.3530  -20.8650   18.8030 C   0  0  0  0  0  3  0  0  0  0  0  0
  -31.5570  -21.1620   22.7160 C   0  0  0  0  0  1  0  0  0  0  0  0
  -30.6490  -19.9370   22.5590 C   0  0  0  0  0  2  0  0  0  0  0  0
  -31.3860  -17.6610   19.0190 C   0  0  0  0  0  1  0  0  0  0  0  0
  -30.5790  -17.4440   20.3220 C   0  0  0  0  0  3  0  0  0  0  0  0
  -30.7000  -14.8260   20.2540 C   0  0  0  0  0  0  0  0  0  0  0  0
  -30.4220  -12.5640   19.2400 C   0  0  0  0  0  2  0  0  0  0  0  0
  -29.4770  -12.6380   18.0220 C   0  0  0  0  0  2  0  0  0  0  0  0
  -28.0120  -12.4600   18.4760 C   0  0  0  0  0  2  0  0  0  0  0  0
  -27.6530  -13.3740   19.6810 C   0  0  0  0  0  3  0  0  0  0  0  0
  -28.7240  -13.3110   20.7940 C   0  0  0  0  0  2  0  0  0  0  0  0
  -30.0140  -13.6380   20.1770 N   0  0  0  0  0  0  0  0  0  0  0  0
  -31.9050  -14.8290   20.0000 O   0  0  0  0  0  0  0  0  0  0  0  0
  -30.0080  -16.0240   20.3870 N   0  0  0  0  0  0  0  0  0  0  0  0
  -29.0110  -15.9760   20.5220 H   0  0  0  0  0  0  0  0  0  0  0  0
  -25.2820  -13.9730   20.4560 C   0  0  0  0  0  0  0  0  0  0  0  0
  -24.2190  -13.2030   20.8380 C   0  0  0  0  0  0  0  0  0  0  0  0
  -24.6760  -11.8500   20.8010 C   0  0  0  0  0  0  0  0  0  0  0  0
  -26.3190  -13.0910   20.1980 N   0  0  0  0  0  0  0  0  0  0  0  0
  -25.9630  -11.8100   20.4800 N   0  0  0  0  0  0  0  0  0  0  0  0
  -23.9500  -10.5900   20.9980 C   0  0  0  0  0  0  0  0  0  0  0  0
  -24.3850   -9.6230   21.9320 C   0  0  0  0  0  3  0  0  0  0  0  0
  -23.6550   -8.4270   22.1190 C   0  0  0  0  0  3  0  0  0  0  0  0
  -22.4790   -8.1910   21.3670 C   0  0  0  0  0  0  0  0  0  0  0  0
  -22.0660   -9.1450   20.4200 C   0  0  0  0  0  3  0  0  0  0  0  0
  -22.7960  -10.3300   20.2320 C   0  0  0  0  0  3  0  0  0  0  0  0
  -21.7200   -7.0490   21.4650 O   0  0  0  0  0  0  0  0  0  0  0  0
  -21.6670   -6.3170   22.6200 C   0  0  0  0  0  0  0  0  0  0  0  0
  -21.2210   -6.8740   23.8410 C   0  0  0  0  0  3  0  0  0  0  0  0
  -21.1160   -6.0650   24.9880 C   0  0  0  0  0  3  0  0  0  0  0  0
  -21.4460   -4.6980   24.9210 C   0  0  0  0  0  0  0  0  0  0  0  0
  -21.8830   -4.1400   23.7060 C   0  0  0  0  0  3  0  0  0  0  0  0
  -21.9880   -4.9450   22.5600 C   0  0  0  0  0  0  0  0  0  0  0  0
  -22.3900   -4.3970   21.3890 F   0  0  0  0  0  0  0  0  0  0  0  0
  -21.3360   -3.9180   26.0220 F   0  0  0  0  0  0  0  0  0  0  0  0
  -22.8230  -13.6850   21.1170 C   0  0  0  0  0  0  0  0  0  0  0  0
  -22.0970  -12.9920   21.9860 N   0  0  0  0  0  0  0  0  0  0  0  0
  -22.3880  -14.7130   20.6020 O   0  0  0  0  0  0  0  0  0  0  0  0
  -22.4670  -12.1660   22.4330 H   0  0  0  0  0  0  0  0  0  0  0  0
  -21.1620  -13.2970   22.2170 H   0  0  0  0  0  0  0  0  0  0  0  0
  -25.4440  -15.3410   20.2740 N   0  0  0  0  0  0  0  0  0  0  0  0
  -24.6780  -15.9910   20.4130 H   0  0  0  0  0  0  0  0  0  0  0  0
  -26.2800  -15.7840   19.9170 H   0  0  0  0  0  0  0  0  0  0  0  0
  -28.5740  -22.3780   21.2410 C   0  0  0  0  0  2  0  0  0  0  0  0
  -28.9550  -23.7580   20.4800 C   0  0  0  0  0  3  0  0  0  0  0  0
  -28.2830  -25.1360   21.0160 C   0  0  0  0  0  3  0  0  0  0  0  0
  -28.4960  -26.4840   20.3880 O   0  0  0  0  0  0  0  0  0  0  0  0
  -24.6560  -31.9310   23.2460 C   0  0  0  0  0  0  0  0  0  0  0  0
  -27.3900  -27.3600   20.3130 C   0  0  0  0  0  0  0  0  0  0  0  0
  -23.5120  -30.5060   21.5890 C   0  0  0  0  0  3  0  0  0  0  0  0
  -25.0180  -28.9620   20.2040 C   0  0  0  0  0  0  0  0  0  0  0  0
  -26.0530  -30.8500   21.4650 C   0  0  0  0  0  2  0  0  0  0  0  0
  -26.1660  -29.4680   20.8290 C   0  0  0  0  0  0  0  0  0  0  0  0
  -27.3630  -28.6810   20.8600 C   0  0  0  0  0  3  0  0  0  0  0  0
  -26.2270  -26.9170   19.6500 C   0  0  0  0  0  3  0  0  0  0  0  0
  -25.0550  -27.6990   19.5940 C   0  0  0  0  0  3  0  0  0  0  0  0
  -23.7670  -29.8200   20.2190 C   0  0  0  0  0  2  0  0  0  0  0  0
  -24.7580  -31.1160   22.1570 N   0  0  0  0  0  0  0  0  0  0  0  0
  -23.5550  -32.1970   23.7530 O   0  0  0  0  0  0  0  0  0  0  0  0
  -22.8390  -29.4900   22.5430 C   0  0  0  0  0  0  0  0  0  0  0  0
  -21.5150  -29.2970   22.3900 N   0  0  0  0  0  0  0  0  0  0  0  0
  -23.5030  -28.8720   23.3770 O   0  0  0  0  0  0  0  0  0  0  0  0
  -21.0330  -29.8490   21.6950 H   0  0  0  0  0  0  0  0  0  0  0  0
  -18.1390  -28.0790   22.8520 C   0  0  0  0  0  0  0  0  0  0  0  0
  -20.6930  -28.3550   23.1530 C   0  0  0  0  0  3  0  0  0  0  0  0
  -20.8090  -26.9230   22.5820 C   0  0  0  0  0  2  0  0  0  0  0  0
  -19.7230  -26.5920   21.5520 C   0  0  0  0  0  2  0  0  0  0  0  0
  -18.3320  -26.7310   22.1760 C   0  0  0  0  0  2  0  0  0  0  0  0
  -19.2470  -28.8480   23.2960 C   0  0  0  0  0  0  0  0  0  0  0  0
  -19.0120  -30.1090   23.8880 C   0  0  0  0  0  3  0  0  0  0  0  0
  -17.7000  -30.6020   24.0360 C   0  0  0  0  0  3  0  0  0  0  0  0
  -16.6080  -29.8300   23.6060 C   0  0  0  0  0  3  0  0  0  0  0  0
  -16.8260  -28.5680   23.0220 C   0  0  0  0  0  3  0  0  0  0  0  0
  -25.9110  -32.5890   23.8970 C   0  0  0  0  0  3  0  0  0  0  0  0
  -25.5750  -33.9880   24.2010 N   0  0  0  0  0  0  0  0  0  0  0  0
  -25.9130  -35.0360   23.4380 C   0  0  0  0  0  0  0  0  0  0  0  0
  -26.6070  -34.9290   22.4230 O   0  0  0  0  0  0  0  0  0  0  0  0
  -24.9610  -34.1430   24.9870 H   0  0  0  0  0  0  0  0  0  0  0  0
  -24.1770  -36.8090   23.0280 C   0  0  0  0  0  1  0  0  0  0  0  0
  -25.4050  -36.4250   23.8690 C   0  0  0  0  0  3  0  0  0  0  0  0
  -27.5110  -37.3420   24.7360 C   0  0  0  0  0  1  0  0  0  0  0  0
  -26.4300  -37.4870   23.7670 N   0  0  0  0  0  0  0  0  0  0  0  0
  -26.0110  -38.4050   23.8890 H   0  0  0  0  0  0  0  0  0  0  0  0
  -26.4050  -31.8440   25.1980 C   0  0  1  0  0  0  0  0  0  0  0  0
  -25.2860  -31.6010   26.2400 C   0  0  0  0  0  1  0  0  0  0  0  0
  -27.0230  -30.4730   24.8410 C   0  0  0  0  0  1  0  0  0  0  0  0
  -27.5280  -32.6630   25.8770 C   0  0  0  0  0  1  0  0  0  0  0  0
  1 10  1  0
  2  1  1  0
  3 51  1  0
  3  1  2  0
  4  5  1  0
  4  2  2  0
  5  3  1  0
  6  8  1  0
  7  8  1  0
  8  5  1  0
 10  9  1  0
 12 11  1  0
 12 21  1  0
 12  2  1  0
 13 21  1  0
 14 19  1  0
 15 16  1  0
 15 14  1  0
 17 16  1  0
 17 26  1  0
 17 18  1  0
 19 13  1  0
 19 18  1  0
 20 13  2  0
 21 22  1  0
 23 24  2  0
 24 43  1  0
 25 24  1  0
 25 28  1  0
 26 23  1  0
 26 27  1  0
 27 25  2  0
 28 29  1  0
 29 30  2  0
 31 34  1  0
 31 30  1  0
 32 31  2  0
 33 32  1  0
 33 28  2  0
 34 35  1  0
 35 36  1  0
 36 37  2  0
 38 37  1  0
 38 42  1  0
 39 38  2  0
 40 35  2  0
 40 39  1  0
 41 40  1  0
 43 44  1  0
 44 47  1  0
 44 46  1  0
 45 43  2  0
 48 49  1  0
 48 23  1  0
 50 48  1  0
 52 53  2  0
 52 51  1  0
 54 53  1  0
 55 66  2  0
 56 54  1  0
 56 61  1  0
 57 65  1  0
 57 67  1  0
 58 64  1  0
 58 60  1  0
 59 65  1  0
 60 61  2  0
 60 59  1  0
 62 56  2  0
 63 62  1  0
 63 58  2  0
 64 57  1  0
 65 55  1  0
 67 69  2  0
 68 67  1  0
 70 68  1  0
 71 80  2  0
 71 76  1  0
 72 68  1  0
 72 76  1  0
 73 72  1  0
 74 75  1  0
 74 73  1  0
 75 71  1  0
 76 77  2  0
 77 78  1  0
 79 78  2  0
 80 79  1  0
 81 55  1  0
 81 82  1  0
 81 91  1  0
 82 85  1  0
 83 87  1  0
 83 82  1  0
 84 83  2  0
 87 86  1  0
 89 87  1  0
 89 90  1  0
 89 88  1  0
 91 94  1  1
 91 92  1  0
 93 91  1  0
M  ISO  4  13 100  21 100  53 101  54 101
M  END
>  <TORSDO>  (77) 
F 22

>  <SCORE>  (77) 
-13.302

>  <name>  (77) 
83

>  <ligand_id>  (77) 
83

>  <original_smiles>  (77) 
[H]c1c([H])c([H])c2c(c1[H])C([H])([H])C([H])([H])C([H])([H])C2([H])N([H])C(=O)C1([H])N(C(=O)C([H])(N([H])C(=O)C([H])(N([H])C([H])([H])[H])C([H])([H])[H])C(C([H])([H])[H])(C([H])([H])[H])C([H])([H])[H])C([H])([H])c2c([H])c(OC([H])([H])C([H])([H])C([H])([H])c3c(C([H])([H])C([H])([H])[H])c(C([H])(N([H])C(=O)N4C([H])([H])C([H])([H])C([H])([H])C([H])(n5nc(-c6c([H])c([H])c(Oc7c([H])c([H])c(F)c([H])c7F)c([H])c6[H])c(C(=O)N([H])[H])c5N([H])[H])C4([H])[H])C([H])([H])[H])nn3C([H])(C([H])([H])[H])C([H])([H])[H])c([H])c([H])c2C1([H])[H]

>  <smiles>  (77) 
[H]c1c([H])c([H])c2c(c1[H])C([H])([H])C([H])([H])C([H])([H])C2([H])N([H])C(=O)C1([H])N(C(=O)C([H])(N([H])C(=O)C([H])(N([H])C([H])([H])[H])C([H])([H])[H])C(C([H])([H])[H])(C([H])([H])[H])C([H])([H])[H])C([H])([H])c2c([H])c(OC([H])([H])C([H])([H])C([H])([H])c3c(C([H])([H])C([H])([H])[H])c(C([H])(N([H])C(=O)N4C([H])([H])C([H])([H])C([H])([H])C([H])(n5nc(-c6c([H])c([H])c(Oc7c([H])c([H])c(F)c([H])c7F)c([H])c6[H])c(C(=O)N([H])[H])c5N([H])[H])C4([H])[H])C([H])([H])[H])nn3C([H])(C([H])([H])[H])C([H])([H])[H])c([H])c([H])c2C1([H])[H]

$$$$
84:0:0
     RDKit          3D

 91 99  0  0  1  0  0  0  0  0999 V2000
  -29.5980  -23.0610   18.8370 C   0  0  0  0  0  3  0  0  0  0  0  0
  -28.8540  -23.1810   19.9740 C   0  0  0  0  0  0  0  0  0  0  0  0
  -29.6020  -20.8590   19.6180 C   0  0  0  0  0  3  0  0  0  0  0  0
  -30.6280  -21.4170   17.3330 C   0  0  0  0  0  1  0  0  0  0  0  0
  -29.9710  -21.7370   18.6180 N   0  0  0  0  0  0  0  0  0  0  0  0
  -28.9030  -21.7850   20.4300 N   0  0  0  0  0  0  0  0  0  0  0  0
  -28.4220  -21.4890   21.2700 H   0  0  0  0  0  0  0  0  0  0  0  0
  -29.4750  -18.6180   18.2210 C   0  0  0  0  0  1  0  0  0  0  0  0
  -31.5290  -19.0520   19.6430 C   0  0  0  0  0  1  0  0  0  0  0  0
  -29.9830  -19.1650   19.5770 C   0  0  1  0  0  0  0  0  0  0  0  0
  -29.6610  -17.8560   20.6340 C   0  0  0  0  0  2  0  0  0  0  0  0
  -30.5020  -15.0800   20.2800 C   0  0  0  0  0  0  0  0  0  0  0  0
  -30.4280  -12.6980   19.3480 C   0  0  0  0  0  2  0  0  0  0  0  0
  -29.4900  -12.5960   18.1210 C   0  0  0  0  0  2  0  0  0  0  0  0
  -28.0310  -12.3680   18.5630 C   0  0  0  0  0  2  0  0  0  0  0  0
  -27.6140  -13.3010   19.7300 C   0  0  0  0  0  3  0  0  0  0  0  0
  -28.6760  -13.3530   20.8470 C   0  0  0  0  0  2  0  0  0  0  0  0
  -29.9260  -13.8030   20.2140 N   0  0  0  0  0  0  0  0  0  0  0  0
  -31.7240  -15.1390   20.1110 O   0  0  0  0  0  0  0  0  0  0  0  0
  -29.6690  -16.2570   20.3240 N   0  0  0  0  0  0  0  0  0  0  0  0
  -28.7130  -15.9440   20.2440 H   0  0  0  0  0  0  0  0  0  0  0  0
  -25.2350  -13.8670   20.4760 C   0  0  0  0  0  0  0  0  0  0  0  0
  -24.1740  -13.0900   20.8480 C   0  0  0  0  0  0  0  0  0  0  0  0
  -24.6450  -11.7410   20.8230 C   0  0  0  0  0  0  0  0  0  0  0  0
  -26.2820  -12.9940   20.2370 N   0  0  0  0  0  0  0  0  0  0  0  0
  -25.9370  -11.7090   20.5140 N   0  0  0  0  0  0  0  0  0  0  0  0
  -23.9200  -10.4780   21.0160 C   0  0  0  0  0  0  0  0  0  0  0  0
  -24.3480   -9.5180   21.9580 C   0  0  0  0  0  3  0  0  0  0  0  0
  -23.6240   -8.3200   22.1410 C   0  0  0  0  0  3  0  0  0  0  0  0
  -22.4570   -8.0730   21.3800 C   0  0  0  0  0  0  0  0  0  0  0  0
  -22.0470   -9.0230   20.4260 C   0  0  0  0  0  3  0  0  0  0  0  0
  -22.7720  -10.2120   20.2440 C   0  0  0  0  0  3  0  0  0  0  0  0
  -21.7050   -6.9270   21.4710 O   0  0  0  0  0  0  0  0  0  0  0  0
  -21.6490   -6.1930   22.6290 C   0  0  0  0  0  0  0  0  0  0  0  0
  -21.2090   -6.7550   23.8470 C   0  0  0  0  0  3  0  0  0  0  0  0
  -21.1030   -5.9460   24.9970 C   0  0  0  0  0  3  0  0  0  0  0  0
  -21.4220   -4.5770   24.9280 C   0  0  0  0  0  0  0  0  0  0  0  0
  -21.8540   -4.0150   23.7140 C   0  0  0  0  0  3  0  0  0  0  0  0
  -21.9630   -4.8210   22.5680 C   0  0  0  0  0  0  0  0  0  0  0  0
  -22.3600   -4.2690   21.3960 F   0  0  0  0  0  0  0  0  0  0  0  0
  -21.3110   -3.8000   26.0310 F   0  0  0  0  0  0  0  0  0  0  0  0
  -22.7750  -13.5630   21.1110 C   0  0  0  0  0  0  0  0  0  0  0  0
  -22.0450  -12.8690   21.9760 N   0  0  0  0  0  0  0  0  0  0  0  0
  -22.3380  -14.5880   20.5860 O   0  0  0  0  0  0  0  0  0  0  0  0
  -22.4150  -12.0430   22.4250 H   0  0  0  0  0  0  0  0  0  0  0  0
  -21.1050  -13.1660   22.1950 H   0  0  0  0  0  0  0  0  0  0  0  0
  -25.3900  -15.2390   20.2900 N   0  0  0  0  0  0  0  0  0  0  0  0
  -24.6090  -15.8770   20.3870 H   0  0  0  0  0  0  0  0  0  0  0  0
  -26.2150  -15.6800   19.9110 H   0  0  0  0  0  0  0  0  0  0  0  0
  -28.0210  -24.5310   20.5070 C   0  0  0  0  0  2  0  0  0  0  0  0
  -28.2840  -26.0730   20.2090 O   0  0  0  0  0  0  0  0  0  0  0  0
  -24.6460  -31.8570   23.2170 C   0  0  0  0  0  0  0  0  0  0  0  0
  -27.2290  -27.0830   20.2080 C   0  0  0  0  0  0  0  0  0  0  0  0
  -23.4470  -30.4510   21.5880 C   0  0  0  0  0  3  0  0  0  0  0  0
  -24.8970  -28.8600   20.1720 C   0  0  0  0  0  0  0  0  0  0  0  0
  -26.0050  -30.7040   21.4230 C   0  0  0  0  0  2  0  0  0  0  0  0
  -26.0820  -29.3020   20.7770 C   0  0  0  0  0  0  0  0  0  0  0  0
  -27.2470  -28.4340   20.7700 C   0  0  0  0  0  3  0  0  0  0  0  0
  -26.0130  -26.7600   19.5650 C   0  0  0  0  0  3  0  0  0  0  0  0
  -24.8790  -27.6040   19.5480 C   0  0  0  0  0  3  0  0  0  0  0  0
  -23.6700  -29.7640   20.2140 C   0  0  0  0  0  2  0  0  0  0  0  0
  -24.7200  -31.0270   22.1310 N   0  0  0  0  0  0  0  0  0  0  0  0
  -23.5600  -32.1430   23.7450 O   0  0  0  0  0  0  0  0  0  0  0  0
  -22.7670  -29.4520   22.5590 C   0  0  0  0  0  0  0  0  0  0  0  0
  -21.4370  -29.2810   22.4380 N   0  0  0  0  0  0  0  0  0  0  0  0
  -23.4390  -28.8300   23.3850 O   0  0  0  0  0  0  0  0  0  0  0  0
  -20.9500  -29.8340   21.7460 H   0  0  0  0  0  0  0  0  0  0  0  0
  -18.0580  -28.0810   22.9620 C   0  0  0  0  0  0  0  0  0  0  0  0
  -20.6170  -28.3480   23.2170 C   0  0  0  0  0  3  0  0  0  0  0  0
  -20.7180  -26.9120   22.6490 C   0  0  0  0  0  2  0  0  0  0  0  0
  -19.6130  -26.5840   21.6410 C   0  0  0  0  0  2  0  0  0  0  0  0
  -18.2330  -26.7300   22.2890 C   0  0  0  0  0  2  0  0  0  0  0  0
  -19.1770  -28.8470   23.3830 C   0  0  0  0  0  0  0  0  0  0  0  0
  -18.9570  -30.1100   23.9730 C   0  0  0  0  0  3  0  0  0  0  0  0
  -17.6500  -30.6070   24.1470 C   0  0  0  0  0  3  0  0  0  0  0  0
  -16.5470  -29.8380   23.7390 C   0  0  0  0  0  3  0  0  0  0  0  0
  -16.7510  -28.5770   23.1530 C   0  0  0  0  0  3  0  0  0  0  0  0
  -25.9230  -32.5000   23.8400 C   0  0  0  0  0  3  0  0  0  0  0  0
  -26.4340  -31.7390   25.1240 C   0  0  1  0  0  0  0  0  0  0  0  0
  -25.3390  -31.5150   26.1940 C   0  0  0  0  0  1  0  0  0  0  0  0
  -27.0190  -30.3570   24.7550 C   0  0  0  0  0  1  0  0  0  0  0  0
  -27.5840  -32.5390   25.7820 C   0  0  0  0  0  1  0  0  0  0  0  0
  -25.6080  -33.9000   24.1680 N   0  0  0  0  0  0  0  0  0  0  0  0
  -25.9380  -34.9560   23.4130 C   0  0  0  0  0  0  0  0  0  0  0  0
  -26.6050  -34.8550   22.3800 O   0  0  0  0  0  0  0  0  0  0  0  0
  -25.0150  -34.0520   24.9710 H   0  0  0  0  0  0  0  0  0  0  0  0
  -24.2120  -36.7570   23.0660 C   0  0  0  0  0  1  0  0  0  0  0  0
  -25.4530  -36.3450   23.8750 C   0  0  0  0  0  3  0  0  0  0  0  0
  -27.5870  -37.2290   24.7100 C   0  0  0  0  0  1  0  0  0  0  0  0
  -26.4870  -37.3980   23.7640 N   0  0  0  0  0  0  0  0  0  0  0  0
  -26.0820  -38.3180   23.9090 H   0  0  0  0  0  0  0  0  0  0  0  0
  1  2  2  0
  2  6  1  0
  2 50  1  0
  3 10  1  0
  3  6  1  0
  4  5  1  0
  5  1  1  0
  5  3  1  0
  6  7  1  0
 10  8  1  6
 10  9  1  0
 10 11  1  0
 12 20  1  0
 13 18  1  0
 14 15  1  0
 14 13  1  0
 16 15  1  0
 16 25  1  0
 16 17  1  0
 18 12  1  0
 18 17  1  0
 19 12  2  0
 20 11  1  0
 21 20  1  0
 22 23  2  0
 23 42  1  0
 24 23  1  0
 24 27  1  0
 25 22  1  0
 25 26  1  0
 26 24  2  0
 27 28  1  0
 28 29  2  0
 30 33  1  0
 30 29  1  0
 31 30  2  0
 32 31  1  0
 32 27  2  0
 33 34  1  0
 34 35  1  0
 35 36  2  0
 37 36  1  0
 37 41  1  0
 38 37  2  0
 39 34  2  0
 39 38  1  0
 40 39  1  0
 42 43  1  0
 43 46  1  0
 43 45  1  0
 44 42  2  0
 47 48  1  0
 47 22  1  0
 49 47  1  0
 51 50  1  0
 52 63  2  0
 53 51  1  0
 53 58  1  0
 54 62  1  0
 54 64  1  0
 55 61  1  0
 55 57  1  0
 56 62  1  0
 57 56  1  0
 58 57  2  0
 59 53  2  0
 60 59  1  0
 60 55  2  0
 61 54  1  0
 62 52  1  0
 64 66  2  0
 65 64  1  0
 67 65  1  0
 68 77  2  0
 68 73  1  0
 69 65  1  0
 69 73  1  0
 70 69  1  0
 71 72  1  0
 71 70  1  0
 72 68  1  0
 73 74  2  0
 74 75  1  0
 76 75  2  0
 77 76  1  0
 78 52  1  0
 78 83  1  0
 78 79  1  0
 79 82  1  1
 79 80  1  0
 81 79  1  0
 83 86  1  0
 84 88  1  0
 84 83  1  0
 85 84  2  0
 88 87  1  0
 90 88  1  0
 90 91  1  0
 90 89  1  0
M  ISO  4  12 100  20 100  50 101  51 101
M  END
>  <TORSDO>  (78) 
F 19

>  <SCORE>  (78) 
-15.170

>  <name>  (78) 
84

>  <ligand_id>  (78) 
84

>  <original_smiles>  (78) 
[H]c1c([H])c([H])c2c(c1[H])C([H])([H])C([H])([H])C([H])([H])C2([H])N([H])C(=O)C1([H])N(C(=O)C([H])(N([H])C(=O)C([H])(N([H])C([H])([H])[H])C([H])([H])[H])C(C([H])([H])[H])(C([H])([H])[H])C([H])([H])[H])C([H])([H])c2c([H])c(OC([H])([H])c3c([H])n(C([H])([H])[H])c(C(C([H])([H])[H])(C([H])([H])[H])C([H])([H])N([H])C(=O)N4C([H])([H])C([H])([H])C([H])([H])C([H])(n5nc(-c6c([H])c([H])c(Oc7c([H])c([H])c(F)c([H])c7F)c([H])c6[H])c(C(=O)N([H])[H])c5N([H])[H])C4([H])[H])[n+]3[H])c([H])c([H])c2C1([H])[H]

>  <smiles>  (78) 
[H]c1c([H])c([H])c2c(c1[H])C([H])([H])C([H])([H])C([H])([H])C2([H])N([H])C(=O)C1([H])N(C(=O)C([H])(N([H])C(=O)C([H])(N([H])C([H])([H])[H])C([H])([H])[H])C(C([H])([H])[H])(C([H])([H])[H])C([H])([H])[H])C([H])([H])c2c([H])c(OC([H])([H])c3c([H])n(C([H])([H])[H])c(C(C([H])([H])[H])(C([H])([H])[H])C([H])([H])N([H])C(=O)N4C([H])([H])C([H])([H])C([H])([H])C([H])(n5nc(-c6c([H])c([H])c(Oc7c([H])c([H])c(F)c([H])c7F)c([H])c6[H])c(C(=O)N([H])[H])c5N([H])[H])C4([H])[H])[n+]3[H])c([H])c([H])c2C1([H])[H]

$$$$
85:0:0
     RDKit          3D

 89 97  0  0  1  0  0  0  0  0999 V2000
  -29.1390  -22.5340   21.4060 C   0  0  0  0  0  3  0  0  0  0  0  0
  -28.5570  -22.4690   19.1700 C   0  0  0  0  0  3  0  0  0  0  0  0
  -28.6050  -23.2980   20.3210 C   0  0  0  0  0  0  0  0  0  0  0  0
  -29.4080  -20.4880   20.2050 C   0  0  0  0  0  0  0  0  0  0  0  0
  -29.5480  -21.2030   21.3410 N   0  0  0  0  0  0  0  0  0  0  0  0
  -28.9480  -21.1460   19.1220 N   0  0  0  0  0  0  0  0  0  0  0  0
  -31.5750  -19.1290   19.8610 C   0  0  0  0  0  1  0  0  0  0  0  0
  -30.0490  -18.9900   19.9620 C   0  0  0  0  0  3  0  0  0  0  0  0
  -29.7050  -17.5590   20.7560 C   0  0  0  0  0  2  0  0  0  0  0  0
  -30.5410  -14.9480   20.3060 C   0  0  0  0  0  0  0  0  0  0  0  0
  -30.3970  -12.5970   19.3830 C   0  0  0  0  0  2  0  0  0  0  0  0
  -29.4650  -12.5310   18.1500 C   0  0  0  0  0  2  0  0  0  0  0  0
  -27.9830  -12.3980   18.5700 C   0  0  0  0  0  2  0  0  0  0  0  0
  -27.5860  -13.3050   19.7680 C   0  0  0  0  0  3  0  0  0  0  0  0
  -28.6510  -13.3130   20.8800 C   0  0  0  0  0  2  0  0  0  0  0  0
  -29.9190  -13.7040   20.2500 N   0  0  0  0  0  0  0  0  0  0  0  0
  -31.7710  -14.9850   20.2140 O   0  0  0  0  0  0  0  0  0  0  0  0
  -29.2490  -16.2730   18.7210 C   0  0  0  0  0  1  0  0  0  0  0  0
  -29.7780  -16.1320   20.0840 N   0  0  0  0  0  0  0  0  0  0  0  0
  -25.2030  -13.8950   20.4870 C   0  0  0  0  0  0  0  0  0  0  0  0
  -24.1350  -13.1230   20.8500 C   0  0  0  0  0  0  0  0  0  0  0  0
  -24.6020  -11.7710   20.8360 C   0  0  0  0  0  0  0  0  0  0  0  0
  -26.2490  -13.0120   20.2670 N   0  0  0  0  0  0  0  0  0  0  0  0
  -25.8960  -11.7320   20.5440 N   0  0  0  0  0  0  0  0  0  0  0  0
  -23.8760  -10.5110   21.0290 C   0  0  0  0  0  0  0  0  0  0  0  0
  -24.3130   -9.5420   21.9590 C   0  0  0  0  0  3  0  0  0  0  0  0
  -23.5870   -8.3440   22.1380 C   0  0  0  0  0  3  0  0  0  0  0  0
  -22.4100   -8.1100   21.3890 C   0  0  0  0  0  0  0  0  0  0  0  0
  -21.9910   -9.0670   20.4480 C   0  0  0  0  0  3  0  0  0  0  0  0
  -22.7180  -10.2560   20.2660 C   0  0  0  0  0  3  0  0  0  0  0  0
  -21.6530   -6.9650   21.4790 O   0  0  0  0  0  0  0  0  0  0  0  0
  -21.6240   -6.2110   22.6240 C   0  0  0  0  0  0  0  0  0  0  0  0
  -21.2250   -6.7550   23.8650 C   0  0  0  0  0  3  0  0  0  0  0  0
  -21.1400   -5.9260   25.0020 C   0  0  0  0  0  3  0  0  0  0  0  0
  -21.4470   -4.5560   24.9010 C   0  0  0  0  0  0  0  0  0  0  0  0
  -21.8420   -4.0120   23.6660 C   0  0  0  0  0  3  0  0  0  0  0  0
  -21.9260   -4.8380   22.5300 C   0  0  0  0  0  0  0  0  0  0  0  0
  -22.2850   -4.3030   21.3380 F   0  0  0  0  0  0  0  0  0  0  0  0
  -21.3610   -3.7590   25.9920 F   0  0  0  0  0  0  0  0  0  0  0  0
  -22.7350  -13.6010   21.1010 C   0  0  0  0  0  0  0  0  0  0  0  0
  -21.9980  -12.9110   21.9640 N   0  0  0  0  0  0  0  0  0  0  0  0
  -22.3040  -14.6210   20.5670 O   0  0  0  0  0  0  0  0  0  0  0  0
  -22.3620  -12.0830   22.4140 H   0  0  0  0  0  0  0  0  0  0  0  0
  -21.0590  -13.2150   22.1780 H   0  0  0  0  0  0  0  0  0  0  0  0
  -25.3740  -15.2640   20.3010 N   0  0  0  0  0  0  0  0  0  0  0  0
  -24.6200  -15.9330   20.4020 H   0  0  0  0  0  0  0  0  0  0  0  0
  -26.2440  -15.6910   20.0030 H   0  0  0  0  0  0  0  0  0  0  0  0
  -27.7650  -24.7000   20.4450 C   0  0  0  0  0  2  0  0  0  0  0  0
  -28.1940  -26.1740   20.2430 O   0  0  0  0  0  0  0  0  0  0  0  0
  -24.5980  -31.8720   23.2510 C   0  0  0  0  0  0  0  0  0  0  0  0
  -27.1530  -27.1740   20.1950 C   0  0  0  0  0  0  0  0  0  0  0  0
  -23.3910  -30.4800   21.6190 C   0  0  0  0  0  3  0  0  0  0  0  0
  -24.8320  -28.9180   20.1840 C   0  0  0  0  0  0  0  0  0  0  0  0
  -25.9470  -30.7460   21.4470 C   0  0  0  0  0  2  0  0  0  0  0  0
  -26.0170  -29.3580   20.7900 C   0  0  0  0  0  0  0  0  0  0  0  0
  -27.1810  -28.5020   20.7800 C   0  0  0  0  0  3  0  0  0  0  0  0
  -25.9490  -26.8520   19.5280 C   0  0  0  0  0  3  0  0  0  0  0  0
  -24.8090  -27.6770   19.5400 C   0  0  0  0  0  3  0  0  0  0  0  0
  -23.6070  -29.8150   20.2370 C   0  0  0  0  0  2  0  0  0  0  0  0
  -24.6660  -31.0530   22.1590 N   0  0  0  0  0  0  0  0  0  0  0  0
  -23.5130  -32.1550   23.7820 O   0  0  0  0  0  0  0  0  0  0  0  0
  -22.7200  -29.4650   22.5770 C   0  0  0  0  0  0  0  0  0  0  0  0
  -21.3930  -29.2860   22.4510 N   0  0  0  0  0  0  0  0  0  0  0  0
  -23.3940  -28.8410   23.4020 O   0  0  0  0  0  0  0  0  0  0  0  0
  -20.9050  -29.8410   21.7620 H   0  0  0  0  0  0  0  0  0  0  0  0
  -18.0180  -28.0650   22.9480 C   0  0  0  0  0  0  0  0  0  0  0  0
  -20.5750  -28.3470   23.2230 C   0  0  0  0  0  3  0  0  0  0  0  0
  -20.6880  -26.9120   22.6600 C   0  0  0  0  0  2  0  0  0  0  0  0
  -19.5920  -26.5720   21.6440 C   0  0  0  0  0  2  0  0  0  0  0  0
  -18.2070  -26.7120   22.2820 C   0  0  0  0  0  2  0  0  0  0  0  0
  -19.1290  -28.8380   23.3760 C   0  0  0  0  0  0  0  0  0  0  0  0
  -18.8970  -30.1020   23.9610 C   0  0  0  0  0  3  0  0  0  0  0  0
  -17.5870  -30.5930   24.1220 C   0  0  0  0  0  3  0  0  0  0  0  0
  -16.4910  -29.8160   23.7090 C   0  0  0  0  0  3  0  0  0  0  0  0
  -16.7070  -28.5540   23.1270 C   0  0  0  0  0  3  0  0  0  0  0  0
  -25.8780  -32.5090   23.8730 C   0  0  0  0  0  3  0  0  0  0  0  0
  -26.3880  -31.7440   25.1560 C   0  0  1  0  0  0  0  0  0  0  0  0
  -25.2930  -31.5180   26.2250 C   0  0  0  0  0  1  0  0  0  0  0  0
  -26.9680  -30.3600   24.7820 C   0  0  0  0  0  1  0  0  0  0  0  0
  -27.5400  -32.5390   25.8140 C   0  0  0  0  0  1  0  0  0  0  0  0
  -25.5640  -33.9070   24.2000 N   0  0  0  0  0  0  0  0  0  0  0  0
  -25.8910  -34.9620   23.4400 C   0  0  0  0  0  0  0  0  0  0  0  0
  -26.5550  -34.8590   22.4060 O   0  0  0  0  0  0  0  0  0  0  0  0
  -24.9720  -34.0610   25.0020 H   0  0  0  0  0  0  0  0  0  0  0  0
  -24.1620  -36.7600   23.0980 C   0  0  0  0  0  1  0  0  0  0  0  0
  -25.4060  -36.3510   23.9020 C   0  0  0  0  0  3  0  0  0  0  0  0
  -27.5470  -37.2350   24.7200 C   0  0  0  0  0  1  0  0  0  0  0  0
  -26.4380  -37.4050   23.7850 N   0  0  0  0  0  0  0  0  0  0  0  0
  -26.0330  -38.3240   23.9370 H   0  0  0  0  0  0  0  0  0  0  0  0
  2  3  1  0
  3 48  1  0
  3  1  2  0
  4  5  2  0
  5  1  1  0
  6  2  2  0
  6  4  1  0
  8  7  1  0
  8  4  1  0
  8  9  1  0
 11 16  1  0
 12 13  1  0
 12 11  1  0
 14 13  1  0
 14 23  1  0
 14 15  1  0
 16 10  1  0
 16 15  1  0
 17 10  2  0
 18 19  1  0
 19 10  1  0
 19  9  1  0
 20 21  2  0
 21 40  1  0
 22 21  1  0
 22 25  1  0
 23 20  1  0
 23 24  1  0
 24 22  2  0
 25 26  1  0
 26 27  2  0
 28 31  1  0
 28 27  1  0
 29 28  2  0
 30 29  1  0
 30 25  2  0
 31 32  1  0
 32 33  1  0
 33 34  2  0
 35 34  1  0
 35 39  1  0
 36 35  2  0
 37 32  2  0
 37 36  1  0
 38 37  1  0
 40 41  1  0
 41 44  1  0
 41 43  1  0
 42 40  2  0
 45 46  1  0
 45 20  1  0
 47 45  1  0
 49 48  1  0
 50 61  2  0
 51 49  1  0
 51 56  1  0
 52 60  1  0
 52 62  1  0
 53 59  1  0
 53 55  1  0
 54 60  1  0
 55 54  1  0
 56 55  2  0
 57 58  1  0
 57 51  2  0
 58 53  2  0
 59 52  1  0
 60 50  1  0
 62 64  2  0
 63 62  1  0
 65 63  1  0
 66 75  2  0
 66 71  1  0
 67 63  1  0
 67 71  1  0
 68 67  1  0
 69 70  1  0
 69 68  1  0
 70 66  1  0
 71 72  2  0
 72 73  1  0
 74 73  2  0
 75 74  1  0
 76 50  1  0
 76 81  1  0
 76 77  1  0
 77 80  1  1
 77 78  1  0
 79 77  1  0
 81 84  1  0
 82 86  1  0
 82 81  1  0
 83 82  2  0
 86 85  1  0
 88 86  1  0
 88 89  1  0
 88 87  1  0
M  ISO  4  10 100  19 100  48 101  49 101
M  END
>  <TORSDO>  (79) 
F 19

>  <SCORE>  (79) 
-14.003

>  <name>  (79) 
85

>  <ligand_id>  (79) 
85

>  <original_smiles>  (79) 
[H]c1nc(C([H])(C([H])([H])[H])C([H])([H])N(C(=O)N2C([H])([H])C([H])([H])C([H])([H])C([H])(n3nc(-c4c([H])c([H])c(Oc5c([H])c([H])c(F)c([H])c5F)c([H])c4[H])c(C(=O)N([H])[H])c3N([H])[H])C2([H])[H])C([H])([H])[H])nc([H])c1C([H])([H])Oc1c([H])c([H])c2c(c1[H])C([H])([H])N(C(=O)C([H])(N([H])C(=O)C([H])(N([H])C([H])([H])[H])C([H])([H])[H])C(C([H])([H])[H])(C([H])([H])[H])C([H])([H])[H])C([H])(C(=O)N([H])C1([H])c3c([H])c([H])c([H])c([H])c3C([H])([H])C([H])([H])C1([H])[H])C2([H])[H]

>  <smiles>  (79) 
[H]c1nc(C([H])(C([H])([H])[H])C([H])([H])N(C(=O)N2C([H])([H])C([H])([H])C([H])([H])C([H])(n3nc(-c4c([H])c([H])c(Oc5c([H])c([H])c(F)c([H])c5F)c([H])c4[H])c(C(=O)N([H])[H])c3N([H])[H])C2([H])[H])C([H])([H])[H])nc([H])c1C([H])([H])Oc1c([H])c([H])c2c(c1[H])C([H])([H])N(C(=O)C([H])(N([H])C(=O)C([H])(N([H])C([H])([H])[H])C([H])([H])[H])C(C([H])([H])[H])(C([H])([H])[H])C([H])([H])[H])C([H])(C(=O)N([H])C1([H])c3c([H])c([H])c([H])c([H])c3C([H])([H])C([H])([H])C1([H])[H])C2([H])[H]

$$$$
86:0:0
     RDKit          3D

 96104  0  0  1  0  0  0  0  0999 V2000
  -30.3760  -21.6040   22.0970 C   0  0  0  0  0  3  0  0  0  0  0  0
  -30.3430  -20.5600   22.9720 C   0  0  0  0  0  0  0  0  0  0  0  0
  -30.5280  -19.7320   20.8770 C   0  0  0  0  0  3  0  0  0  0  0  0
  -30.1470  -20.4980   24.4570 C   0  0  0  0  0  1  0  0  0  0  0  0
  -30.5310  -21.1190   20.8110 N   0  0  0  0  0  0  0  0  0  0  0  0
  -30.4980  -19.4540   22.1930 N   0  0  0  0  0  0  0  0  0  0  0  0
  -30.4800  -18.5060   22.5520 H   0  0  0  0  0  0  0  0  0  0  0  0
  -30.0210  -18.9470   18.4940 C   0  0  0  0  0  1  0  0  0  0  0  0
  -29.3230  -17.5800   20.3770 C   0  0  0  0  0  1  0  0  0  0  0  0
  -30.4720  -18.5050   19.9090 C   0  0  2  0  0  0  0  0  0  0  0  0
  -31.7710  -17.5730   19.9280 C   0  0  0  0  0  2  0  0  0  0  0  0
  -32.2800  -15.0940   20.0820 C   0  0  0  0  0  0  0  0  0  0  0  0
  -31.9720  -12.7060   19.5160 C   0  0  0  0  0  2  0  0  0  0  0  0
  -31.0580  -12.5800   18.2750 C   0  0  0  0  0  2  0  0  0  0  0  0
  -29.5760  -12.5780   18.6850 C   0  0  0  0  0  2  0  0  0  0  0  0
  -29.2110  -13.6910   19.7060 C   0  0  0  0  0  3  0  0  0  0  0  0
  -30.2520  -13.7960   20.8440 C   0  0  0  0  0  2  0  0  0  0  0  0
  -31.5740  -13.9330   20.2240 N   0  0  0  0  0  0  0  0  0  0  0  0
  -33.5100  -15.1060   20.0200 O   0  0  0  0  0  0  0  0  0  0  0  0
  -31.6200  -16.0440   18.0160 C   0  0  0  0  0  1  0  0  0  0  0  0
  -31.6080  -16.1360   19.4900 N   0  0  0  0  0  0  0  0  0  0  0  0
  -26.8930  -14.4820   20.5030 C   0  0  0  0  0  0  0  0  0  0  0  0
  -25.7600  -13.8010   20.8460 C   0  0  0  0  0  0  0  0  0  0  0  0
  -26.0900  -12.4180   20.7410 C   0  0  0  0  0  0  0  0  0  0  0  0
  -27.8490  -13.5220   20.2140 N   0  0  0  0  0  0  0  0  0  0  0  0
  -27.3710  -12.2700   20.4260 N   0  0  0  0  0  0  0  0  0  0  0  0
  -25.2450  -11.2250   20.8630 C   0  0  0  0  0  0  0  0  0  0  0  0
  -25.5190  -10.2170   21.8150 C   0  0  0  0  0  3  0  0  0  0  0  0
  -24.6720   -9.0940   21.9280 C   0  0  0  0  0  3  0  0  0  0  0  0
  -23.5430   -8.9690   21.0840 C   0  0  0  0  0  0  0  0  0  0  0  0
  -23.2890   -9.9630   20.1240 C   0  0  0  0  0  3  0  0  0  0  0  0
  -24.1330  -11.0800   20.0090 C   0  0  0  0  0  3  0  0  0  0  0  0
  -22.6800   -7.9000   21.1070 O   0  0  0  0  0  0  0  0  0  0  0  0
  -22.3640   -7.2570   22.2770 C   0  0  0  0  0  0  0  0  0  0  0  0
  -21.7500   -7.9310   23.3540 C   0  0  0  0  0  3  0  0  0  0  0  0
  -21.3780   -7.2190   24.5120 C   0  0  0  0  0  3  0  0  0  0  0  0
  -21.6110   -5.8320   24.5890 C   0  0  0  0  0  0  0  0  0  0  0  0
  -22.2150   -5.1580   23.5140 C   0  0  0  0  0  3  0  0  0  0  0  0
  -22.5890   -5.8680   22.3600 C   0  0  0  0  0  0  0  0  0  0  0  0
  -23.1540   -5.2110   21.3200 F   0  0  0  0  0  0  0  0  0  0  0  0
  -21.2470   -5.1440   25.6970 F   0  0  0  0  0  0  0  0  0  0  0  0
  -24.4190  -14.4040   21.1540 C   0  0  0  0  0  0  0  0  0  0  0  0
  -23.6400  -13.7540   22.0100 N   0  0  0  0  0  0  0  0  0  0  0  0
  -24.0780  -15.4850   20.6770 O   0  0  0  0  0  0  0  0  0  0  0  0
  -23.9310  -12.8730   22.4090 H   0  0  0  0  0  0  0  0  0  0  0  0
  -22.7410  -14.1380   22.2660 H   0  0  0  0  0  0  0  0  0  0  0  0
  -27.1660  -15.8330   20.3910 N   0  0  0  0  0  0  0  0  0  0  0  0
  -26.4580  -16.5390   20.5560 H   0  0  0  0  0  0  0  0  0  0  0  0
  -28.0520  -16.2230   20.1020 H   0  0  0  0  0  0  0  0  0  0  0  0
  -30.7020  -21.5510   18.2630 C   0  0  0  0  0  1  0  0  0  0  0  0
  -31.9320  -22.9310   19.8410 C   0  0  0  0  0  1  0  0  0  0  0  0
  -30.6010  -22.1460   19.6830 C   0  0  2  0  0  0  0  0  0  0  0  0
  -29.3590  -23.1390   19.7440 C   0  0  0  0  0  2  0  0  0  0  0  0
  -29.5620  -24.6790   20.0000 C   0  0  0  0  0  2  0  0  0  0  0  0
  -28.2760  -25.5220   19.7360 C   0  0  0  0  0  2  0  0  0  0  0  0
  -28.4030  -26.9720   19.7680 O   0  0  0  0  0  0  0  0  0  0  0  0
  -24.5160  -31.8160   23.3100 C   0  0  0  0  0  0  0  0  0  0  0  0
  -27.2180  -27.7050   19.8080 C   0  0  0  0  0  0  0  0  0  0  0  0
  -23.3100  -30.4870   21.6130 C   0  0  0  0  0  3  0  0  0  0  0  0
  -24.7700  -29.1430   20.0110 C   0  0  0  0  0  0  0  0  0  0  0  0
  -25.8140  -30.9720   21.3510 C   0  0  0  0  0  2  0  0  0  0  0  0
  -25.9330  -29.6590   20.5950 C   0  0  0  0  0  0  0  0  0  0  0  0
  -27.1600  -28.9530   20.4850 C   0  0  0  0  0  3  0  0  0  0  0  0
  -26.0280  -27.2250   19.2090 C   0  0  0  0  0  3  0  0  0  0  0  0
  -24.8160  -27.9290   19.3110 C   0  0  0  0  0  3  0  0  0  0  0  0
  -23.4920  -29.9320   20.1760 C   0  0  0  0  0  2  0  0  0  0  0  0
  -24.5660  -31.1030   22.1490 N   0  0  0  0  0  0  0  0  0  0  0  0
  -23.4470  -31.9950   23.9090 O   0  0  0  0  0  0  0  0  0  0  0  0
  -22.7440  -29.3630   22.5130 C   0  0  0  0  0  0  0  0  0  0  0  0
  -21.4630  -29.0140   22.3070 N   0  0  0  0  0  0  0  0  0  0  0  0
  -23.4570  -28.8100   23.3540 O   0  0  0  0  0  0  0  0  0  0  0  0
  -20.9420  -29.5240   21.6080 H   0  0  0  0  0  0  0  0  0  0  0  0
  -18.3010  -27.2700   22.4760 C   0  0  0  0  0  0  0  0  0  0  0  0
  -20.7330  -27.9590   23.0110 C   0  0  0  0  0  3  0  0  0  0  0  0
  -21.1350  -26.5600   22.4880 C   0  0  0  0  0  2  0  0  0  0  0  0
  -20.2190  -26.0460   21.3710 C   0  0  0  0  0  2  0  0  0  0  0  0
  -18.7700  -25.9640   21.8600 C   0  0  0  0  0  2  0  0  0  0  0  0
  -19.2220  -28.2140   23.0010 C   0  0  0  0  0  0  0  0  0  0  0  0
  -18.7330  -29.4290   23.5290 C   0  0  0  0  0  3  0  0  0  0  0  0
  -17.3520  -29.7040   23.5420 C   0  0  0  0  0  3  0  0  0  0  0  0
  -16.4430  -28.7600   23.0350 C   0  0  0  0  0  3  0  0  0  0  0  0
  -16.9170  -27.5450   22.5070 C   0  0  0  0  0  3  0  0  0  0  0  0
  -25.7970  -32.4600   23.9280 C   0  0  0  0  0  3  0  0  0  0  0  0
  -25.4770  -33.8560   24.2530 N   0  0  0  0  0  0  0  0  0  0  0  0
  -25.8530  -34.9130   23.5200 C   0  0  0  0  0  0  0  0  0  0  0  0
  -26.5750  -34.8140   22.5240 O   0  0  0  0  0  0  0  0  0  0  0  0
  -24.8420  -34.0090   25.0240 H   0  0  0  0  0  0  0  0  0  0  0  0
  -24.1650  -36.7230   23.0750 C   0  0  0  0  0  1  0  0  0  0  0  0
  -25.3470  -36.2990   23.9620 C   0  0  0  0  0  3  0  0  0  0  0  0
  -27.4280  -37.1540   24.9440 C   0  0  0  0  0  1  0  0  0  0  0  0
  -26.3940  -37.3450   23.9310 N   0  0  0  0  0  0  0  0  0  0  0  0
  -25.9850  -38.2660   24.0640 H   0  0  0  0  0  0  0  0  0  0  0  0
  -26.3240  -31.6950   25.2040 C   0  0  1  0  0  0  0  0  0  0  0  0
  -25.2270  -31.4180   26.2580 C   0  0  0  0  0  1  0  0  0  0  0  0
  -26.9550  -30.3390   24.8090 C   0  0  0  0  0  1  0  0  0  0  0  0
  -27.4420  -32.5200   25.8820 C   0  0  0  0  0  1  0  0  0  0  0  0
  1  2  2  0
  2  4  1  0
  3 10  1  0
  3  6  1  0
  5  3  1  0
  5  1  1  0
  6  7  1  0
  6  2  1  0
 10  8  1  6
 10 11  1  0
 10  9  1  0
 12 18  1  0
 13 18  1  0
 14 15  1  0
 14 13  1  0
 16 15  1  0
 16 25  1  0
 16 17  1  0
 18 17  1  0
 19 12  2  0
 20 21  1  0
 21 11  1  0
 21 12  1  0
 22 23  2  0
 23 42  1  0
 24 23  1  0
 24 27  1  0
 25 26  1  0
 25 22  1  0
 26 24  2  0
 27 28  1  0
 28 29  2  0
 30 33  1  0
 30 29  1  0
 31 30  2  0
 32 31  1  0
 32 27  2  0
 33 34  1  0
 34 39  2  0
 34 35  1  0
 35 36  2  0
 36 37  1  0
 37 41  1  0
 38 37  2  0
 39 38  1  0
 40 39  1  0
 42 43  1  0
 43 46  1  0
 43 45  1  0
 44 42  2  0
 47 22  1  0
 47 48  1  0
 49 47  1  0
 52 50  1  6
 52 53  1  0
 52 51  1  0
 52  5  1  0
 53 54  1  0
 55 56  1  0
 55 54  1  0
 56 58  1  0
 57 68  2  0
 58 63  1  0
 59 67  1  0
 59 69  1  0
 60 66  1  0
 60 62  1  0
 61 67  1  0
 62 61  1  0
 63 62  2  0
 64 65  1  0
 64 58  2  0
 65 60  2  0
 66 59  1  0
 67 57  1  0
 69 71  2  0
 70 69  1  0
 72 70  1  0
 73 82  2  0
 73 78  1  0
 74 70  1  0
 75 74  1  0
 76 77  1  0
 76 75  1  0
 77 73  1  0
 78 74  1  0
 78 79  2  0
 79 80  1  0
 81 80  2  0
 82 81  1  0
 83 57  1  0
 83 84  1  0
 83 93  1  0
 84 87  1  0
 85 89  1  0
 85 84  1  0
 86 85  2  0
 89 88  1  0
 91 89  1  0
 91 92  1  0
 91 90  1  0
 93 96  1  1
 93 94  1  0
 95 93  1  0
M  ISO  4  12 100  21 100  55 101  56 101
M  END
>  <TORSDO>  (80) 
F 22

>  <SCORE>  (80) 
-10.825

>  <name>  (80) 
86

>  <ligand_id>  (80) 
86

>  <original_smiles>  (80) 
[H]c1c([H])c([H])c2c(c1[H])C([H])([H])C([H])([H])C([H])([H])C2([H])N([H])C(=O)C1([H])N(C(=O)C([H])(N([H])C(=O)C([H])(N([H])C([H])([H])[H])C([H])([H])[H])C(C([H])([H])[H])(C([H])([H])[H])C([H])([H])[H])C([H])([H])c2c([H])c(OC([H])([H])C([H])([H])C([H])([H])C(n3c([H])c(C([H])([H])[H])[n+]([H])c3C(C([H])([H])[H])(C([H])([H])[H])C([H])([H])N(C(=O)N3C([H])([H])C([H])([H])C([H])([H])C([H])(n4nc(-c5c([H])c([H])c(Oc6c([H])c([H])c(F)c([H])c6F)c([H])c5[H])c(C(=O)N([H])[H])c4N([H])[H])C3([H])[H])C([H])([H])[H])(C([H])([H])[H])C([H])([H])[H])c([H])c([H])c2C1([H])[H]

>  <smiles>  (80) 
[H]c1c([H])c([H])c2c(c1[H])C([H])([H])C([H])([H])C([H])([H])C2([H])N([H])C(=O)C1([H])N(C(=O)C([H])(N([H])C(=O)C([H])(N([H])C([H])([H])[H])C([H])([H])[H])C(C([H])([H])[H])(C([H])([H])[H])C([H])([H])[H])C([H])([H])c2c([H])c(OC([H])([H])C([H])([H])C([H])([H])C(n3c([H])c(C([H])([H])[H])[n+]([H])c3C(C([H])([H])[H])(C([H])([H])[H])C([H])([H])N(C(=O)N3C([H])([H])C([H])([H])C([H])([H])C([H])(n4nc(-c5c([H])c([H])c(Oc6c([H])c([H])c(F)c([H])c6F)c([H])c5[H])c(C(=O)N([H])[H])c4N([H])[H])C3([H])[H])C([H])([H])[H])(C([H])([H])[H])C([H])([H])[H])c([H])c([H])c2C1([H])[H]

$$$$
87:0:0
     RDKit          3D

 92100  0  0  1  0  0  0  0  0999 V2000
  -29.6200  -20.0630   21.1150 C   0  0  0  0  0  3  0  0  0  0  0  0
  -29.9260  -20.6620   19.8730 C   0  0  0  0  0  0  0  0  0  0  0  0
  -30.2890  -19.7430   18.8640 C   0  0  0  0  0  0  0  0  0  0  0  0
  -29.8690  -17.9470   20.2430 C   0  0  0  0  0  0  0  0  0  0  0  0
  -30.7190  -20.2130   17.4890 C   0  0  0  0  0  1  0  0  0  0  0  0
  -29.6210  -18.7260   21.2960 N   0  0  0  0  0  0  0  0  0  0  0  0
  -30.2300  -18.4010   19.0470 N   0  0  0  0  0  0  0  0  0  0  0  0
  -28.1380  -16.3310   21.1450 C   0  0  0  0  0  1  0  0  0  0  0  0
  -29.4570  -16.4580   20.3510 C   0  0  0  0  0  3  0  0  0  0  0  0
  -30.9340  -14.5010   19.9860 C   0  0  0  0  0  0  0  0  0  0  0  0
  -30.5260  -12.3160   18.8760 C   0  0  0  0  0  2  0  0  0  0  0  0
  -29.5250  -12.4760   17.7140 C   0  0  0  0  0  2  0  0  0  0  0  0
  -28.0710  -12.3720   18.2220 C   0  0  0  0  0  2  0  0  0  0  0  0
  -27.8110  -13.2600   19.4670 C   0  0  0  0  0  3  0  0  0  0  0  0
  -28.9200  -13.0500   20.5250 C   0  0  0  0  0  2  0  0  0  0  0  0
  -30.2140  -13.3410   19.8870 N   0  0  0  0  0  0  0  0  0  0  0  0
  -32.0110  -14.6470   19.4000 O   0  0  0  0  0  0  0  0  0  0  0  0
  -31.3670  -15.9670   21.8630 C   0  0  0  0  0  1  0  0  0  0  0  0
  -30.4630  -15.4670   20.8220 N   0  0  0  0  0  0  0  0  0  0  0  0
  -25.4750  -13.9590   20.2930 C   0  0  0  0  0  0  0  0  0  0  0  0
  -24.4060  -13.2340   20.7410 C   0  0  0  0  0  0  0  0  0  0  0  0
  -24.8080  -11.8660   20.6770 C   0  0  0  0  0  0  0  0  0  0  0  0
  -26.4760  -13.0400   20.0180 N   0  0  0  0  0  0  0  0  0  0  0  0
  -26.0770  -11.7740   20.2970 N   0  0  0  0  0  0  0  0  0  0  0  0
  -24.0370  -10.6380   20.8940 C   0  0  0  0  0  0  0  0  0  0  0  0
  -24.4770   -9.6440   21.7950 C   0  0  0  0  0  3  0  0  0  0  0  0
  -23.7110   -8.4760   22.0010 C   0  0  0  0  0  3  0  0  0  0  0  0
  -22.4910   -8.2970   21.3070 C   0  0  0  0  0  0  0  0  0  0  0  0
  -22.0710   -9.2790   20.3920 C   0  0  0  0  0  3  0  0  0  0  0  0
  -22.8360  -10.4380   20.1840 C   0  0  0  0  0  3  0  0  0  0  0  0
  -21.6940   -7.1850   21.4250 O   0  0  0  0  0  0  0  0  0  0  0  0
  -21.6750   -6.4340   22.5720 C   0  0  0  0  0  0  0  0  0  0  0  0
  -21.3450   -6.9950   23.8260 C   0  0  0  0  0  3  0  0  0  0  0  0
  -21.2700   -6.1700   24.9660 C   0  0  0  0  0  3  0  0  0  0  0  0
  -21.5140   -4.7880   24.8550 C   0  0  0  0  0  0  0  0  0  0  0  0
  -21.8380   -4.2280   23.6080 C   0  0  0  0  0  3  0  0  0  0  0  0
  -21.9150   -5.0490   22.4690 C   0  0  0  0  0  0  0  0  0  0  0  0
  -22.2060   -4.5010   21.2650 F   0  0  0  0  0  0  0  0  0  0  0  0
  -21.4320   -3.9950   25.9490 F   0  0  0  0  0  0  0  0  0  0  0  0
  -23.0510  -13.7720   21.0960 C   0  0  0  0  0  0  0  0  0  0  0  0
  -22.3500  -13.1100   22.0070 N   0  0  0  0  0  0  0  0  0  0  0  0
  -22.6270  -14.8170   20.6020 O   0  0  0  0  0  0  0  0  0  0  0  0
  -22.7090  -12.2640   22.4270 H   0  0  0  0  0  0  0  0  0  0  0  0
  -21.4400  -13.4500   22.2870 H   0  0  0  0  0  0  0  0  0  0  0  0
  -25.6530  -15.3160   20.0630 N   0  0  0  0  0  0  0  0  0  0  0  0
  -24.8660  -15.9500   20.1330 H   0  0  0  0  0  0  0  0  0  0  0  0
  -26.4190  -15.6970   19.5260 H   0  0  0  0  0  0  0  0  0  0  0  0
  -29.8960  -22.0280   19.6080 O   0  0  0  0  0  0  0  0  0  0  0  0
  -29.1590  -22.8960   20.4850 C   0  0  0  0  0  2  0  0  0  0  0  0
  -29.1750  -24.3610   19.9650 C   0  0  0  0  0  2  0  0  0  0  0  0
  -28.3450  -25.3640   20.8110 C   0  0  0  0  0  2  0  0  0  0  0  0
  -28.4730  -26.7320   20.3620 O   0  0  0  0  0  0  0  0  0  0  0  0
  -24.5570  -31.9390   23.2780 C   0  0  0  0  0  0  0  0  0  0  0  0
  -27.3090  -27.4730   20.3250 C   0  0  0  0  0  0  0  0  0  0  0  0
  -23.4080  -30.5200   21.6090 C   0  0  0  0  0  3  0  0  0  0  0  0
  -24.9120  -28.9780   20.2380 C   0  0  0  0  0  0  0  0  0  0  0  0
  -25.9370  -30.8890   21.4830 C   0  0  0  0  0  2  0  0  0  0  0  0
  -26.0500  -29.5120   20.8560 C   0  0  0  0  0  0  0  0  0  0  0  0
  -27.2550  -28.7690   20.8920 C   0  0  0  0  0  3  0  0  0  0  0  0
  -26.1580  -26.9600   19.6910 C   0  0  0  0  0  3  0  0  0  0  0  0
  -24.9610  -27.7010   19.6500 C   0  0  0  0  0  3  0  0  0  0  0  0
  -23.6640  -29.8340   20.2390 C   0  0  0  0  0  2  0  0  0  0  0  0
  -24.6510  -31.1330   22.1810 N   0  0  0  0  0  0  0  0  0  0  0  0
  -23.4600  -32.2100   23.7840 O   0  0  0  0  0  0  0  0  0  0  0  0
  -22.7330  -29.5030   22.5560 C   0  0  0  0  0  0  0  0  0  0  0  0
  -21.4170  -29.3020   22.3800 N   0  0  0  0  0  0  0  0  0  0  0  0
  -23.3920  -28.8980   23.4060 O   0  0  0  0  0  0  0  0  0  0  0  0
  -20.9490  -29.8440   21.6660 H   0  0  0  0  0  0  0  0  0  0  0  0
  -18.0420  -28.0600   22.7460 C   0  0  0  0  0  0  0  0  0  0  0  0
  -20.5810  -28.3640   23.1270 C   0  0  0  0  0  3  0  0  0  0  0  0
  -20.7310  -26.9270   22.5780 C   0  0  0  0  0  2  0  0  0  0  0  0
  -19.6800  -26.5710   21.5210 C   0  0  0  0  0  2  0  0  0  0  0  0
  -18.2680  -26.7050   22.0990 C   0  0  0  0  0  2  0  0  0  0  0  0
  -19.1290  -28.8460   23.2130 C   0  0  0  0  0  0  0  0  0  0  0  0
  -18.8640  -30.1140   23.7720 C   0  0  0  0  0  3  0  0  0  0  0  0
  -17.5470  -30.5990   23.8710 C   0  0  0  0  0  3  0  0  0  0  0  0
  -16.4740  -29.8100   23.4220 C   0  0  0  0  0  3  0  0  0  0  0  0
  -16.7220  -28.5430   22.8660 C   0  0  0  0  0  3  0  0  0  0  0  0
  -25.8230  -32.5780   23.9330 C   0  0  0  0  0  3  0  0  0  0  0  0
  -25.5120  -33.9840   24.2220 N   0  0  0  0  0  0  0  0  0  0  0  0
  -25.8790  -35.0180   23.4530 C   0  0  0  0  0  0  0  0  0  0  0  0
  -26.5890  -34.8890   22.4510 O   0  0  0  0  0  0  0  0  0  0  0  0
  -24.8940  -34.1600   25.0000 H   0  0  0  0  0  0  0  0  0  0  0  0
  -24.1770  -36.8060   22.9810 C   0  0  0  0  0  1  0  0  0  0  0  0
  -25.3780  -36.4160   23.8570 C   0  0  0  0  0  3  0  0  0  0  0  0
  -27.4800  -37.3060   24.7620 C   0  0  0  0  0  1  0  0  0  0  0  0
  -26.4190  -37.4630   23.7690 N   0  0  0  0  0  0  0  0  0  0  0  0
  -26.0140  -38.3880   23.8820 H   0  0  0  0  0  0  0  0  0  0  0  0
  -26.2890  -31.8310   25.2430 C   0  0  1  0  0  0  0  0  0  0  0  0
  -25.1540  -31.6070   26.2680 C   0  0  0  0  0  1  0  0  0  0  0  0
  -26.8920  -30.4510   24.8960 C   0  0  0  0  0  1  0  0  0  0  0  0
  -27.4120  -32.6400   25.9360 C   0  0  0  0  0  1  0  0  0  0  0  0
  1  6  1  0
  2  1  2  0
  3  7  2  0
  3  2  1  0
  4  9  1  0
  4  6  2  0
  5  3  1  0
  7  4  1  0
  9 19  1  0
  9  8  1  0
 10 19  1  0
 11 16  1  0
 12 13  1  0
 12 11  1  0
 14 13  1  0
 14 23  1  0
 14 15  1  0
 16 10  1  0
 16 15  1  0
 17 10  2  0
 19 18  1  0
 20 21  2  0
 21 40  1  0
 22 21  1  0
 22 25  1  0
 23 20  1  0
 23 24  1  0
 24 22  2  0
 25 26  1  0
 26 27  2  0
 28 31  1  0
 28 27  1  0
 29 28  2  0
 30 29  1  0
 30 25  2  0
 31 32  1  0
 32 33  1  0
 33 34  2  0
 35 34  1  0
 35 39  1  0
 36 35  2  0
 37 32  2  0
 37 36  1  0
 38 37  1  0
 40 41  1  0
 41 44  1  0
 41 43  1  0
 42 40  2  0
 45 46  1  0
 45 20  1  0
 47 45  1  0
 48  2  1  0
 48 49  1  0
 50 49  1  0
 50 51  1  0
 52 51  1  0
 53 64  2  0
 54 52  1  0
 54 59  1  0
 55 63  1  0
 55 65  1  0
 56 62  1  0
 56 58  1  0
 57 63  1  0
 58 59  2  0
 58 57  1  0
 60 54  2  0
 61 60  1  0
 61 56  2  0
 62 55  1  0
 63 53  1  0
 65 67  2  0
 66 65  1  0
 68 66  1  0
 69 78  2  0
 69 74  1  0
 70 66  1  0
 70 74  1  0
 71 70  1  0
 72 73  1  0
 72 71  1  0
 73 69  1  0
 74 75  2  0
 75 76  1  0
 77 76  2  0
 78 77  1  0
 79 53  1  0
 79 80  1  0
 79 89  1  0
 80 83  1  0
 81 85  1  0
 81 80  1  0
 82 81  2  0
 85 84  1  0
 87 85  1  0
 87 88  1  0
 87 86  1  0
 89 92  1  1
 89 90  1  0
 91 89  1  0
M  ISO  4  10 100  19 100  51 101  52 101
M  END
>  <TORSDO>  (81) 
F 21

>  <SCORE>  (81) 
-12.524

>  <name>  (81) 
87

>  <ligand_id>  (81) 
87

>  <original_smiles>  (81) 
[H]c1nc(C([H])(N(C(=O)N2C([H])([H])C([H])([H])C([H])([H])C([H])(n3nc(-c4c([H])c([H])c(Oc5c([H])c([H])c(F)c([H])c5F)c([H])c4[H])c(C(=O)N([H])[H])c3N([H])[H])C2([H])[H])C([H])([H])[H])C([H])([H])[H])nc(C([H])([H])[H])c1OC([H])([H])C([H])([H])C([H])([H])Oc1c([H])c([H])c2c(c1[H])C([H])([H])N(C(=O)C([H])(N([H])C(=O)C([H])(N([H])C([H])([H])[H])C([H])([H])[H])C(C([H])([H])[H])(C([H])([H])[H])C([H])([H])[H])C([H])(C(=O)N([H])C1([H])c3c([H])c([H])c([H])c([H])c3C([H])([H])C([H])([H])C1([H])[H])C2([H])[H]

>  <smiles>  (81) 
[H]c1nc(C([H])(N(C(=O)N2C([H])([H])C([H])([H])C([H])([H])C([H])(n3nc(-c4c([H])c([H])c(Oc5c([H])c([H])c(F)c([H])c5F)c([H])c4[H])c(C(=O)N([H])[H])c3N([H])[H])C2([H])[H])C([H])([H])[H])C([H])([H])[H])nc(C([H])([H])[H])c1OC([H])([H])C([H])([H])C([H])([H])Oc1c([H])c([H])c2c(c1[H])C([H])([H])N(C(=O)C([H])(N([H])C(=O)C([H])(N([H])C([H])([H])[H])C([H])([H])[H])C(C([H])([H])[H])(C([H])([H])[H])C([H])([H])[H])C([H])(C(=O)N([H])C1([H])c3c([H])c([H])c([H])c([H])c3C([H])([H])C([H])([H])C1([H])[H])C2([H])[H]

$$$$
88:0:0
     RDKit          3D

 90 98  0  0  1  0  0  0  0  0999 V2000
  -29.2260  -22.6110   18.6300 C   0  0  0  0  0  3  0  0  0  0  0  0
  -29.4670  -21.0850   20.8190 C   0  0  0  0  0  3  0  0  0  0  0  0
  -28.8930  -23.2590   19.8690 C   0  0  0  0  0  0  0  0  0  0  0  0
  -29.7690  -20.4380   19.5650 C   0  0  0  0  0  0  0  0  0  0  0  0
  -29.0420  -22.4190   20.9630 N   0  0  0  0  0  0  0  0  0  0  0  0
  -29.6300  -21.2910   18.4900 N   0  0  0  0  0  0  0  0  0  0  0  0
  -31.0270  -18.7770   18.0400 C   0  0  0  0  0  1  0  0  0  0  0  0
  -28.6760  -18.2960   18.6660 C   0  0  0  0  0  1  0  0  0  0  0  0
  -30.0120  -18.8270   19.2080 C   0  0  2  0  0  0  0  0  0  0  0  0
  -30.6340  -17.6510   20.2140 C   0  0  0  0  0  2  0  0  0  0  0  0
  -30.7720  -14.9140   19.9750 C   0  0  0  0  0  0  0  0  0  0  0  0
  -30.5110  -12.6050   18.9400 C   0  0  0  0  0  2  0  0  0  0  0  0
  -29.4870  -12.5880   17.7780 C   0  0  0  0  0  2  0  0  0  0  0  0
  -28.0570  -12.3750   18.3090 C   0  0  0  0  0  2  0  0  0  0  0  0
  -27.7490  -13.2730   19.5330 C   0  0  0  0  0  3  0  0  0  0  0  0
  -28.8870  -13.1840   20.5800 C   0  0  0  0  0  2  0  0  0  0  0  0
  -30.1120  -13.6730   19.9070 N   0  0  0  0  0  0  0  0  0  0  0  0
  -31.9320  -14.9320   19.5500 O   0  0  0  0  0  0  0  0  0  0  0  0
  -29.0250  -16.1860   21.2470 C   0  0  0  0  0  1  0  0  0  0  0  0
  -30.1170  -16.1560   20.2700 N   0  0  0  0  0  0  0  0  0  0  0  0
  -25.4180  -13.8890   20.4090 C   0  0  0  0  0  0  0  0  0  0  0  0
  -24.3640  -13.1180   20.8250 C   0  0  0  0  0  0  0  0  0  0  0  0
  -24.8070  -11.7640   20.7420 C   0  0  0  0  0  0  0  0  0  0  0  0
  -26.4340  -12.9970   20.1000 N   0  0  0  0  0  0  0  0  0  0  0  0
  -26.0770  -11.7140   20.3620 N   0  0  0  0  0  0  0  0  0  0  0  0
  -24.0750  -10.5070   20.9470 C   0  0  0  0  0  0  0  0  0  0  0  0
  -24.5200   -9.5350   21.8690 C   0  0  0  0  0  3  0  0  0  0  0  0
  -23.7820   -8.3480   22.0680 C   0  0  0  0  0  3  0  0  0  0  0  0
  -22.5890   -8.1230   21.3400 C   0  0  0  0  0  0  0  0  0  0  0  0
  -22.1640   -9.0850   20.4050 C   0  0  0  0  0  3  0  0  0  0  0  0
  -22.9040  -10.2630   20.2030 C   0  0  0  0  0  3  0  0  0  0  0  0
  -21.8260   -6.9860   21.4420 O   0  0  0  0  0  0  0  0  0  0  0  0
  -21.7600   -6.2650   22.6080 C   0  0  0  0  0  0  0  0  0  0  0  0
  -21.3040   -6.8400   23.8140 C   0  0  0  0  0  3  0  0  0  0  0  0
  -21.1770   -6.0440   24.9700 C   0  0  0  0  0  3  0  0  0  0  0  0
  -21.5070   -4.6770   24.9230 C   0  0  0  0  0  0  0  0  0  0  0  0
  -21.9650   -4.1030   23.7240 C   0  0  0  0  0  3  0  0  0  0  0  0
  -22.0860   -4.8950   22.5690 C   0  0  0  0  0  0  0  0  0  0  0  0
  -22.5000   -4.3310   21.4090 F   0  0  0  0  0  0  0  0  0  0  0  0
  -21.3860   -3.9100   26.0330 F   0  0  0  0  0  0  0  0  0  0  0  0
  -22.9940  -13.6130   21.1830 C   0  0  0  0  0  0  0  0  0  0  0  0
  -22.3090  -12.9090   22.0770 N   0  0  0  0  0  0  0  0  0  0  0  0
  -22.5430  -14.6520   20.7100 O   0  0  0  0  0  0  0  0  0  0  0  0
  -22.6940  -12.0650   22.4730 H   0  0  0  0  0  0  0  0  0  0  0  0
  -21.3920  -13.2210   22.3670 H   0  0  0  0  0  0  0  0  0  0  0  0
  -25.5790  -15.2600   20.2410 N   0  0  0  0  0  0  0  0  0  0  0  0
  -24.8220  -15.9120   20.4200 H   0  0  0  0  0  0  0  0  0  0  0  0
  -26.3940  -15.7070   19.8420 H   0  0  0  0  0  0  0  0  0  0  0  0
  -27.9710  -24.6330   19.8950 C   0  0  0  0  0  2  0  0  0  0  0  0
  -28.2790  -26.1050   20.2760 O   0  0  0  0  0  0  0  0  0  0  0  0
  -24.6090  -31.8160   23.2190 C   0  0  0  0  0  0  0  0  0  0  0  0
  -27.2130  -27.0840   20.2190 C   0  0  0  0  0  0  0  0  0  0  0  0
  -23.4160  -30.4000   21.5930 C   0  0  0  0  0  3  0  0  0  0  0  0
  -24.8710  -28.8210   20.1890 C   0  0  0  0  0  0  0  0  0  0  0  0
  -25.9720  -30.6720   21.4310 C   0  0  0  0  0  2  0  0  0  0  0  0
  -26.0540  -29.2750   20.7910 C   0  0  0  0  0  0  0  0  0  0  0  0
  -27.2240  -28.4230   20.7880 C   0  0  0  0  0  3  0  0  0  0  0  0
  -25.9890  -26.7320   19.5940 C   0  0  0  0  0  3  0  0  0  0  0  0
  -24.8510  -27.5610   19.5810 C   0  0  0  0  0  3  0  0  0  0  0  0
  -23.6420  -29.7120   20.2220 C   0  0  0  0  0  2  0  0  0  0  0  0
  -24.6860  -30.9830   22.1370 N   0  0  0  0  0  0  0  0  0  0  0  0
  -23.5190  -32.1090   23.7370 O   0  0  0  0  0  0  0  0  0  0  0  0
  -22.7320  -29.4030   22.5640 C   0  0  0  0  0  0  0  0  0  0  0  0
  -21.4010  -29.2490   22.4470 N   0  0  0  0  0  0  0  0  0  0  0  0
  -23.4010  -28.7690   23.3850 O   0  0  0  0  0  0  0  0  0  0  0  0
  -20.9180  -29.8030   21.7530 H   0  0  0  0  0  0  0  0  0  0  0  0
  -18.0010  -28.1210   22.9980 C   0  0  0  0  0  0  0  0  0  0  0  0
  -20.5700  -28.3300   23.2300 C   0  0  0  0  0  3  0  0  0  0  0  0
  -20.6350  -26.8970   22.6510 C   0  0  0  0  0  2  0  0  0  0  0  0
  -19.5120  -26.5990   21.6530 C   0  0  0  0  0  2  0  0  0  0  0  0
  -18.1430  -26.7700   22.3180 C   0  0  0  0  0  2  0  0  0  0  0  0
  -19.1410  -28.8600   23.4130 C   0  0  0  0  0  0  0  0  0  0  0  0
  -18.9530  -30.1250   24.0120 C   0  0  0  0  0  3  0  0  0  0  0  0
  -17.6590  -30.6470   24.2030 C   0  0  0  0  0  3  0  0  0  0  0  0
  -16.5360  -29.9030   23.8040 C   0  0  0  0  0  3  0  0  0  0  0  0
  -16.7070  -28.6420   23.2070 C   0  0  0  0  0  3  0  0  0  0  0  0
  -25.8840  -32.4590   23.8420 C   0  0  0  0  0  3  0  0  0  0  0  0
  -26.4080  -31.6870   25.1150 C   0  0  1  0  0  0  0  0  0  0  0  0
  -25.3150  -31.4350   26.1810 C   0  0  0  0  0  1  0  0  0  0  0  0
  -27.0020  -30.3150   24.7200 C   0  0  0  0  0  1  0  0  0  0  0  0
  -27.5540  -32.4880   25.7790 C   0  0  0  0  0  1  0  0  0  0  0  0
  -25.5630  -33.8530   24.1830 N   0  0  0  0  0  0  0  0  0  0  0  0
  -25.8790  -34.9140   23.4270 C   0  0  0  0  0  0  0  0  0  0  0  0
  -26.5370  -34.8240   22.3880 O   0  0  0  0  0  0  0  0  0  0  0  0
  -24.9760  -34.0010   24.9910 H   0  0  0  0  0  0  0  0  0  0  0  0
  -24.1390  -36.7030   23.1070 C   0  0  0  0  0  1  0  0  0  0  0  0
  -25.3890  -36.2960   23.9030 C   0  0  0  0  0  3  0  0  0  0  0  0
  -27.5180  -37.1930   24.7350 C   0  0  0  0  0  1  0  0  0  0  0  0
  -26.4140  -37.3560   23.7920 N   0  0  0  0  0  0  0  0  0  0  0  0
  -26.0010  -38.2710   23.9470 H   0  0  0  0  0  0  0  0  0  0  0  0
  1  3  1  0
  2  5  1  0
  3 49  1  0
  3  5  2  0
  4  2  2  0
  6  1  2  0
  6  4  1  0
  9  7  1  6
  8  9  1  0
  9  4  1  0
  9 10  1  0
 10 20  1  0
 11 20  1  0
 12 17  1  0
 13 14  1  0
 13 12  1  0
 15 14  1  0
 15 24  1  0
 15 16  1  0
 17 11  1  0
 17 16  1  0
 18 11  2  0
 20 19  1  0
 21 22  2  0
 22 41  1  0
 23 22  1  0
 23 26  1  0
 24 25  1  0
 24 21  1  0
 25 23  2  0
 26 27  1  0
 27 28  2  0
 29 32  1  0
 29 28  1  0
 30 29  2  0
 31 30  1  0
 31 26  2  0
 32 33  1  0
 33 34  1  0
 34 35  2  0
 36 35  1  0
 36 40  1  0
 37 36  2  0
 38 33  2  0
 38 37  1  0
 39 38  1  0
 41 42  1  0
 42 45  1  0
 42 44  1  0
 43 41  2  0
 46 21  1  0
 46 47  1  0
 48 46  1  0
 49 50  1  0
 51 62  2  0
 52 50  1  0
 52 57  1  0
 53 61  1  0
 53 63  1  0
 54 60  1  0
 54 56  1  0
 55 61  1  0
 56 55  1  0
 57 56  2  0
 58 52  2  0
 59 58  1  0
 59 54  2  0
 60 53  1  0
 61 51  1  0
 63 65  2  0
 64 63  1  0
 66 64  1  0
 67 76  2  0
 67 72  1  0
 68 64  1  0
 68 72  1  0
 69 68  1  0
 70 71  1  0
 70 69  1  0
 71 67  1  0
 72 73  2  0
 73 74  1  0
 75 74  2  0
 76 75  1  0
 77 51  1  0
 77 82  1  0
 77 78  1  0
 78 81  1  1
 78 79  1  0
 80 78  1  0
 82 85  1  0
 83 87  1  0
 83 82  1  0
 84 83  2  0
 87 86  1  0
 89 87  1  0
 89 90  1  0
 89 88  1  0
M  ISO  4  11 100  20 100  49 101  50 101
M  END
>  <TORSDO>  (82) 
F 19

>  <SCORE>  (82) 
-13.923

>  <name>  (82) 
88

>  <ligand_id>  (82) 
88

>  <original_smiles>  (82) 
[H]c1nc(C(C([H])([H])[H])(C([H])([H])[H])C([H])([H])N(C(=O)N2C([H])([H])C([H])([H])C([H])([H])C([H])(n3nc(-c4c([H])c([H])c(Oc5c([H])c([H])c(F)c([H])c5F)c([H])c4[H])c(C(=O)N([H])[H])c3N([H])[H])C2([H])[H])C([H])([H])[H])c([H])nc1C([H])([H])Oc1c([H])c([H])c2c(c1[H])C([H])([H])N(C(=O)C([H])(N([H])C(=O)C([H])(N([H])C([H])([H])[H])C([H])([H])[H])C(C([H])([H])[H])(C([H])([H])[H])C([H])([H])[H])C([H])(C(=O)N([H])C1([H])c3c([H])c([H])c([H])c([H])c3C([H])([H])C([H])([H])C1([H])[H])C2([H])[H]

>  <smiles>  (82) 
[H]c1nc(C(C([H])([H])[H])(C([H])([H])[H])C([H])([H])N(C(=O)N2C([H])([H])C([H])([H])C([H])([H])C([H])(n3nc(-c4c([H])c([H])c(Oc5c([H])c([H])c(F)c([H])c5F)c([H])c4[H])c(C(=O)N([H])[H])c3N([H])[H])C2([H])[H])C([H])([H])[H])c([H])nc1C([H])([H])Oc1c([H])c([H])c2c(c1[H])C([H])([H])N(C(=O)C([H])(N([H])C(=O)C([H])(N([H])C([H])([H])[H])C([H])([H])[H])C(C([H])([H])[H])(C([H])([H])[H])C([H])([H])[H])C([H])(C(=O)N([H])C1([H])c3c([H])c([H])c([H])c([H])c3C([H])([H])C([H])([H])C1([H])[H])C2([H])[H]

$$$$
89:0:0
     RDKit          3D

 90 98  0  0  1  0  0  0  0  0999 V2000
  -29.7270  -21.4950   19.6210 C   0  0  0  0  0  3  0  0  0  0  0  0
  -28.2560  -19.4390   20.0910 C   0  0  0  0  0  2  0  0  0  0  0  0
  -29.7060  -18.0690   20.6790 C   0  0  0  0  0  0  0  0  0  0  0  0
  -28.3600  -18.1600   20.4540 N   0  0  0  0  0  0  0  0  0  0  0  0
  -30.3910  -19.1940   20.3950 N   0  0  0  0  0  2  0  0  0  0  0  0
  -29.4150  -20.1060   20.0620 N   0  0  0  0  0  0  0  0  0  0  0  0
  -31.7910  -17.0280   21.7680 C   0  0  0  0  0  1  0  0  0  0  0  0
  -30.3150  -16.8320   21.3490 C   0  0  0  0  0  0  0  0  0  0  0  0
  -30.5790  -14.5620   20.0620 C   0  0  0  0  0  0  0  0  0  0  0  0
  -30.2940  -12.3800   18.8860 C   0  0  0  0  0  2  0  0  0  0  0  0
  -29.2600  -12.4760   17.7480 C   0  0  0  0  0  2  0  0  0  0  0  0
  -27.8260  -12.2830   18.2730 C   0  0  0  0  0  2  0  0  0  0  0  0
  -27.5320  -13.1360   19.5330 C   0  0  0  0  0  3  0  0  0  0  0  0
  -28.6600  -13.0040   20.5820 C   0  0  0  0  0  2  0  0  0  0  0  0
  -29.9290  -13.3660   19.9250 N   0  0  0  0  0  0  0  0  0  0  0  0
  -31.6570  -14.7850   19.5030 O   0  0  0  0  0  0  0  0  0  0  0  0
  -29.9320  -15.4980   20.7960 N   0  0  0  0  0  4  0  0  0  0  0  0
  -29.0130  -15.2110   21.0920 H   0  0  0  0  0  0  0  0  0  0  0  0
  -25.1810  -13.7080   20.4060 C   0  0  0  0  0  0  0  0  0  0  0  0
  -24.1510  -12.9200   20.8420 C   0  0  0  0  0  0  0  0  0  0  0  0
  -24.6230  -11.5740   20.7680 C   0  0  0  0  0  0  0  0  0  0  0  0
  -26.2170  -12.8380   20.0960 N   0  0  0  0  0  0  0  0  0  0  0  0
  -25.8900  -11.5500   20.3740 N   0  0  0  0  0  0  0  0  0  0  0  0
  -23.9240  -10.3010   20.9960 C   0  0  0  0  0  0  0  0  0  0  0  0
  -24.3580   -9.3900   21.9850 C   0  0  0  0  0  3  0  0  0  0  0  0
  -23.6610   -8.1820   22.2030 C   0  0  0  0  0  3  0  0  0  0  0  0
  -22.5160   -7.8750   21.4310 C   0  0  0  0  0  0  0  0  0  0  0  0
  -22.1000   -8.7750   20.4330 C   0  0  0  0  0  3  0  0  0  0  0  0
  -22.7980   -9.9740   20.2150 C   0  0  0  0  0  3  0  0  0  0  0  0
  -21.7920   -6.7140   21.5530 O   0  0  0  0  0  0  0  0  0  0  0  0
  -21.6730   -6.0590   22.7530 C   0  0  0  0  0  0  0  0  0  0  0  0
  -21.0760   -6.6720   23.8790 C   0  0  0  0  0  3  0  0  0  0  0  0
  -20.9120   -5.9400   25.0730 C   0  0  0  0  0  3  0  0  0  0  0  0
  -21.3330   -4.5990   25.1400 C   0  0  0  0  0  0  0  0  0  0  0  0
  -21.9220   -3.9880   24.0210 C   0  0  0  0  0  3  0  0  0  0  0  0
  -22.0890   -4.7150   22.8300 C   0  0  0  0  0  0  0  0  0  0  0  0
  -22.6370   -4.1150   21.7440 F   0  0  0  0  0  0  0  0  0  0  0  0
  -21.1700   -3.8950   26.2840 F   0  0  0  0  0  0  0  0  0  0  0  0
  -22.7680  -13.3710   21.2190 C   0  0  0  0  0  0  0  0  0  0  0  0
  -22.1070  -12.6480   22.1160 N   0  0  0  0  0  0  0  0  0  0  0  0
  -22.2820  -14.4020   20.7510 O   0  0  0  0  0  0  0  0  0  0  0  0
  -22.5120  -11.8130   22.5120 H   0  0  0  0  0  0  0  0  0  0  0  0
  -21.1840  -12.9290   22.4110 H   0  0  0  0  0  0  0  0  0  0  0  0
  -25.3240  -15.0810   20.2270 N   0  0  0  0  0  0  0  0  0  0  0  0
  -24.5850  -15.7400   20.4440 H   0  0  0  0  0  0  0  0  0  0  0  0
  -26.1620  -15.5280   19.8710 H   0  0  0  0  0  0  0  0  0  0  0  0
  -28.8830  -22.6530   20.2750 C   0  0  0  0  0  3  0  0  0  0  0  0
  -29.1840  -24.1360   19.8260 C   0  0  0  0  0  2  0  0  0  0  0  0
  -28.2590  -25.2170   20.5020 C   0  0  0  0  0  2  0  0  0  0  0  0
  -28.4520  -26.6260   20.1680 O   0  0  0  0  0  0  0  0  0  0  0  0
  -24.6750  -31.9350   23.2370 C   0  0  0  0  0  0  0  0  0  0  0  0
  -27.3130  -27.4270   20.1760 C   0  0  0  0  0  0  0  0  0  0  0  0
  -23.4800  -30.5510   21.5750 C   0  0  0  0  0  3  0  0  0  0  0  0
  -24.9380  -28.9980   20.1680 C   0  0  0  0  0  0  0  0  0  0  0  0
  -26.0180  -30.8740   21.4140 C   0  0  0  0  0  2  0  0  0  0  0  0
  -26.1020  -29.4980   20.7680 C   0  0  0  0  0  0  0  0  0  0  0  0
  -27.2950  -28.7240   20.7600 C   0  0  0  0  0  3  0  0  0  0  0  0
  -26.1290  -26.9620   19.5600 C   0  0  0  0  0  3  0  0  0  0  0  0
  -24.9480  -27.7310   19.5610 C   0  0  0  0  0  3  0  0  0  0  0  0
  -23.7050  -29.8720   20.1990 C   0  0  0  0  0  2  0  0  0  0  0  0
  -24.7420  -31.1370   22.1340 N   0  0  0  0  0  0  0  0  0  0  0  0
  -23.5890  -32.2170   23.7620 O   0  0  0  0  0  0  0  0  0  0  0  0
  -22.8000  -29.5370   22.5270 C   0  0  0  0  0  0  0  0  0  0  0  0
  -21.4770  -29.3580   22.3680 N   0  0  0  0  0  0  0  0  0  0  0  0
  -23.4610  -28.9140   23.3630 O   0  0  0  0  0  0  0  0  0  0  0  0
  -21.0090  -29.8960   21.6530 H   0  0  0  0  0  0  0  0  0  0  0  0
  -18.0860  -28.1890   22.8080 C   0  0  0  0  0  0  0  0  0  0  0  0
  -20.6400  -28.4320   23.1270 C   0  0  0  0  0  3  0  0  0  0  0  0
  -20.7440  -27.0000   22.5560 C   0  0  0  0  0  2  0  0  0  0  0  0
  -19.6550  -26.6810   21.5220 C   0  0  0  0  0  2  0  0  0  0  0  0
  -18.2660  -26.8330   22.1490 C   0  0  0  0  0  2  0  0  0  0  0  0
  -19.2020  -28.9470   23.2550 C   0  0  0  0  0  0  0  0  0  0  0  0
  -18.9840  -30.2110   23.8410 C   0  0  0  0  0  3  0  0  0  0  0  0
  -17.6780  -30.7180   23.9950 C   0  0  0  0  0  3  0  0  0  0  0  0
  -16.5780  -29.9600   23.5600 C   0  0  0  0  0  3  0  0  0  0  0  0
  -16.7820  -28.6980   22.9720 C   0  0  0  0  0  3  0  0  0  0  0  0
  -25.9570  -32.5520   23.8780 C   0  0  0  0  0  3  0  0  0  0  0  0
  -25.6630  -33.9580   24.1860 N   0  0  0  0  0  0  0  0  0  0  0  0
  -26.0310  -34.9970   23.4250 C   0  0  0  0  0  0  0  0  0  0  0  0
  -26.7230  -34.8700   22.4130 O   0  0  0  0  0  0  0  0  0  0  0  0
  -25.0470  -34.1300   24.9660 H   0  0  0  0  0  0  0  0  0  0  0  0
  -24.3520  -36.8240   23.0080 C   0  0  0  0  0  1  0  0  0  0  0  0
  -25.5590  -36.3990   23.8580 C   0  0  0  0  0  3  0  0  0  0  0  0
  -27.6770  -37.2630   24.7530 C   0  0  0  0  0  1  0  0  0  0  0  0
  -26.6150  -37.4310   23.7660 N   0  0  0  0  0  0  0  0  0  0  0  0
  -26.2200  -38.3610   23.8810 H   0  0  0  0  0  0  0  0  0  0  0  0
  -26.4350  -31.7840   25.1720 C   0  0  1  0  0  0  0  0  0  0  0  0
  -25.3150  -31.5630   26.2160 C   0  0  0  0  0  1  0  0  0  0  0  0
  -27.0140  -30.3980   24.8000 C   0  0  0  0  0  1  0  0  0  0  0  0
  -27.5720  -32.5780   25.8590 C   0  0  0  0  0  1  0  0  0  0  0  0
  1  6  1  0
  1 47  2  0
  2  4  1  0
  3  8  1  0
  4  3  2  0
  5  3  1  0
  6  2  1  0
  6  5  1  0
  8  7  1  0
  9 17  1  0
 10 15  1  0
 11 12  1  0
 11 10  1  0
 13 12  1  0
 13 22  1  0
 13 14  1  0
 15  9  1  0
 15 14  1  0
 16  9  2  0
 17 18  1  0
 17  8  2  0
 19 20  2  0
 20 39  1  0
 21 20  1  0
 21 24  1  0
 22 23  1  0
 22 19  1  0
 23 21  2  0
 24 25  1  0
 25 26  2  0
 27 30  1  0
 27 26  1  0
 28 27  2  0
 29 28  1  0
 29 24  2  0
 30 31  1  0
 31 36  2  0
 31 32  1  0
 32 33  2  0
 33 34  1  0
 34 38  1  0
 35 34  2  0
 36 35  1  0
 37 36  1  0
 39 40  1  0
 40 43  1  0
 40 42  1  0
 41 39  2  0
 44 19  1  0
 44 45  1  0
 46 44  1  0
 48 47  1  0
 48 49  1  0
 50 52  1  0
 50 49  1  0
 51 62  2  0
 52 57  1  0
 53 61  1  0
 53 63  1  0
 54 60  1  0
 54 56  1  0
 55 61  1  0
 56 55  1  0
 57 56  2  0
 58 59  1  0
 58 52  2  0
 59 54  2  0
 60 53  1  0
 61 51  1  0
 63 65  2  0
 64 63  1  0
 66 64  1  0
 67 76  2  0
 67 72  1  0
 68 64  1  0
 68 72  1  0
 69 68  1  0
 70 71  1  0
 70 69  1  0
 71 67  1  0
 72 73  2  0
 73 74  1  0
 75 74  2  0
 76 75  1  0
 77 51  1  0
 77 78  1  0
 77 87  1  0
 78 81  1  0
 79 83  1  0
 79 78  1  0
 80 79  2  0
 83 82  1  0
 85 83  1  0
 85 86  1  0
 85 84  1  0
 87 90  1  1
 87 88  1  0
 89 87  1  0
M  ISO  4   9 100  17 100  49 101  50 101
M  END
>  <TORSDO>  (83) 
F 21

>  <SCORE>  (83) 
-12.734

>  <name>  (83) 
89

>  <ligand_id>  (83) 
89

>  <original_smiles>  (83) 
[H]c1c([H])c([H])c2c(c1[H])C([H])([H])C([H])([H])C([H])([H])C2([H])N([H])C(=O)C1([H])N(C(=O)C([H])(N([H])C(=O)C([H])(N([H])C([H])([H])[H])C([H])([H])[H])C(C([H])([H])[H])(C([H])([H])[H])C([H])([H])[H])C([H])([H])c2c([H])c(OC([H])([H])C([H])([H])C([H])([H])C([H])([H])n3nc(C([H])(N([H])C(=O)N4C([H])([H])C([H])([H])C([H])([H])C([H])(n5nc(-c6c([H])c([H])c(Oc7c([H])c([H])c(F)c([H])c7F)c([H])c6[H])c(C(=O)N([H])[H])c5N([H])[H])C4([H])[H])C([H])([H])[H])nc3[H])c([H])c([H])c2C1([H])[H]

>  <smiles>  (83) 
[H]c1c([H])c([H])c2c(c1[H])C([H])([H])C([H])([H])C([H])([H])C2([H])N([H])C(=O)C1([H])N(C(=O)C([H])(N([H])C(=O)C([H])(N([H])C([H])([H])[H])C([H])([H])[H])C(C([H])([H])[H])(C([H])([H])[H])C([H])([H])[H])C([H])([H])c2c([H])c(OC([H])([H])C([H])([H])C([H])([H])C([H])([H])n3nc(C([H])(N([H])C(=O)N4C([H])([H])C([H])([H])C([H])([H])C([H])(n5nc(-c6c([H])c([H])c(Oc7c([H])c([H])c(F)c([H])c7F)c([H])c6[H])c(C(=O)N([H])[H])c5N([H])[H])C4([H])[H])C([H])([H])[H])nc3[H])c([H])c([H])c2C1([H])[H]

$$$$
90:0:0
     RDKit          3D

 94102  0  0  1  0  0  0  0  0999 V2000
  -32.1710  -24.2830   17.5860 C   0  0  0  0  0  0  0  0  0  0  0  0
  -34.3640  -24.4230   18.0920 C   0  0  0  0  0  0  0  0  0  0  0  0
  -32.8770  -25.7390   19.1210 C   0  0  0  0  0  0  0  0  0  0  0  0
  -33.4160  -23.8360   17.3440 N   0  0  0  0  0  4  0  0  0  0  0  0
  -31.8450  -25.2070   18.4750 N   0  0  0  0  0  0  0  0  0  0  0  0
  -34.1460  -25.3650   18.9980 N   0  0  0  0  0  2  0  0  0  0  0  0
  -33.7480  -26.7740   21.2380 C   0  0  0  0  0  1  0  0  0  0  0  0
  -31.3020  -26.1920   21.0710 C   0  0  0  0  0  1  0  0  0  0  0  0
  -32.1930  -28.1110   19.7900 C   0  0  0  0  0  1  0  0  0  0  0  0
  -32.5400  -26.6890   20.2910 C   0  0  2  0  0  0  0  0  0  0  0  0
  -30.9700  -23.5540   16.9460 C   0  0  0  0  0  2  0  0  0  0  0  0
  -30.2560  -24.2180   15.7110 C   0  0  0  0  0  2  0  0  0  0  0  0
  -29.1200  -25.2130   16.1140 C   0  0  0  0  0  2  0  0  0  0  0  0
  -27.7970  -24.9950   15.5430 O   0  0  0  0  0  0  0  0  0  0  0  0
  -22.9910  -26.6420   10.5160 C   0  0  0  0  0  0  0  0  0  0  0  0
  -27.2460  -26.0080   14.7580 C   0  0  0  0  0  0  0  0  0  0  0  0
  -24.7600  -28.3210   10.9140 C   0  0  0  0  0  3  0  0  0  0  0  0
  -26.1570  -27.9870   13.0240 C   0  0  0  0  0  0  0  0  0  0  0  0
  -23.9850  -26.7760   12.8040 C   0  0  0  0  0  2  0  0  0  0  0  0
  -25.3850  -26.8780   13.3870 C   0  0  0  0  0  0  0  0  0  0  0  0
  -25.9210  -25.8920   14.2570 C   0  0  0  0  0  3  0  0  0  0  0  0
  -27.9810  -27.1660   14.4040 C   0  0  0  0  0  3  0  0  0  0  0  0
  -27.4530  -28.1390   13.5380 C   0  0  0  0  0  3  0  0  0  0  0  0
  -25.5370  -28.9920   12.0790 C   0  0  0  0  0  2  0  0  0  0  0  0
  -23.8860  -27.1970   11.3830 N   0  0  0  0  0  0  0  0  0  0  0  0
  -22.8620  -27.0740    9.3620 O   0  0  0  0  0  0  0  0  0  0  0  0
  -25.7690  -27.9000    9.8190 C   0  0  0  0  0  0  0  0  0  0  0  0
  -26.1800  -28.8620    8.9780 N   0  0  0  0  0  0  0  0  0  0  0  0
  -26.1830  -26.7400    9.7580 O   0  0  0  0  0  0  0  0  0  0  0  0
  -25.7870  -29.7870    9.0840 H   0  0  0  0  0  0  0  0  0  0  0  0
  -27.9740  -30.6300    6.3850 C   0  0  0  0  0  0  0  0  0  0  0  0
  -27.1550  -28.7010    7.8990 C   0  0  0  0  0  3  0  0  0  0  0  0
  -28.5980  -28.6580    8.4510 C   0  0  0  0  0  2  0  0  0  0  0  0
  -29.2780  -30.0320    8.4700 C   0  0  0  0  0  2  0  0  0  0  0  0
  -29.3360  -30.6210    7.0580 C   0  0  0  0  0  2  0  0  0  0  0  0
  -26.9450  -29.7390    6.7910 C   0  0  0  0  0  0  0  0  0  0  0  0
  -25.6850  -29.8150    6.1570 C   0  0  0  0  0  3  0  0  0  0  0  0
  -25.4490  -30.7510    5.1330 C   0  0  0  0  0  3  0  0  0  0  0  0
  -26.4760  -31.6190    4.7230 C   0  0  0  0  0  3  0  0  0  0  0  0
  -27.7350  -31.5560    5.3470 C   0  0  0  0  0  3  0  0  0  0  0  0
  -22.0710  -25.4560   10.9430 C   0  0  0  0  0  3  0  0  0  0  0  0
  -20.6970  -25.7940   10.5440 N   0  0  0  0  0  0  0  0  0  0  0  0
  -19.8820  -26.6040   11.2320 C   0  0  0  0  0  0  0  0  0  0  0  0
  -20.1890  -27.0940   12.3210 O   0  0  0  0  0  0  0  0  0  0  0  0
  -20.3960  -25.4690    9.6360 H   0  0  0  0  0  0  0  0  0  0  0  0
  -18.5380  -28.3130    9.9650 C   0  0  0  0  0  1  0  0  0  0  0  0
  -18.5060  -26.9200   10.6130 C   0  0  0  0  0  3  0  0  0  0  0  0
  -16.9900  -25.4860   11.9090 C   0  0  0  0  0  1  0  0  0  0  0  0
  -17.3930  -26.8530   11.5860 N   0  0  0  0  0  0  0  0  0  0  0  0
  -16.5770  -27.3470   11.2350 H   0  0  0  0  0  0  0  0  0  0  0  0
  -22.5090  -24.0760   10.3170 C   0  0  1  0  0  0  0  0  0  0  0  0
  -22.0970  -23.9010    8.8360 C   0  0  0  0  0  1  0  0  0  0  0  0
  -24.0430  -23.9030   10.3990 C   0  0  0  0  0  1  0  0  0  0  0  0
  -21.8880  -22.9130   11.1250 C   0  0  0  0  0  1  0  0  0  0  0  0
  -35.8620  -24.0620   17.9010 C   0  0  0  0  0  2  0  0  0  0  0  0
  -36.1730  -22.5640   17.5140 C   0  0  0  0  0  2  0  0  0  0  0  0
  -37.6380  -20.6750   18.3650 C   0  0  0  0  0  0  0  0  0  0  0  0
  -38.0490  -18.2370   18.0960 C   0  0  0  0  0  2  0  0  0  0  0  0
  -37.3860  -17.7170   16.8040 C   0  0  0  0  0  2  0  0  0  0  0  0
  -35.9180  -17.3260   17.0610 C   0  0  0  0  0  2  0  0  0  0  0  0
  -35.1380  -18.4280   17.8220 C   0  0  0  0  0  3  0  0  0  0  0  0
  -35.9300  -18.9210   19.0500 C   0  0  0  0  0  2  0  0  0  0  0  0
  -37.2580  -19.3790   18.5980 N   0  0  0  0  0  0  0  0  0  0  0  0
  -38.7280  -20.9530   17.8530 O   0  0  0  0  0  0  0  0  0  0  0  0
  -36.4250  -22.0640   19.9560 C   0  0  0  0  0  1  0  0  0  0  0  0
  -36.7070  -21.6500   18.5770 N   0  0  0  0  0  0  0  0  0  0  0  0
  -32.5950  -18.6700   18.1340 C   0  0  0  0  0  0  0  0  0  0  0  0
  -31.6320  -17.7810   18.5250 C   0  0  0  0  0  0  0  0  0  0  0  0
  -32.3150  -16.5590   18.8100 C   0  0  0  0  0  0  0  0  0  0  0  0
  -33.7960  -17.9810   18.1930 N   0  0  0  0  0  0  0  0  0  0  0  0
  -33.6240  -16.7160   18.6570 N   0  0  0  0  0  0  0  0  0  0  0  0
  -31.7940  -15.2310   19.1600 C   0  0  0  0  0  0  0  0  0  0  0  0
  -31.4840  -14.8850   20.4940 C   0  0  0  0  0  3  0  0  0  0  0  0
  -30.9660  -13.6090   20.8000 C   0  0  0  0  0  3  0  0  0  0  0  0
  -30.7490  -12.6650   19.7710 C   0  0  0  0  0  0  0  0  0  0  0  0
  -31.0790  -13.0050   18.4470 C   0  0  0  0  0  3  0  0  0  0  0  0
  -31.6000  -14.2740   18.1420 C   0  0  0  0  0  3  0  0  0  0  0  0
  -30.2740  -11.3920   19.9780 O   0  0  0  0  0  0  0  0  0  0  0  0
  -29.0110  -11.1650   20.4630 C   0  0  0  0  0  0  0  0  0  0  0  0
  -27.8570  -11.4990   19.7220 C   0  0  0  0  0  3  0  0  0  0  0  0
  -26.5800  -11.1860   20.2270 C   0  0  0  0  0  3  0  0  0  0  0  0
  -26.4530  -10.5320   21.4680 C   0  0  0  0  0  0  0  0  0  0  0  0
  -27.6020  -10.1940   22.2050 C   0  0  0  0  0  3  0  0  0  0  0  0
  -28.8770  -10.5070   21.7020 C   0  0  0  0  0  0  0  0  0  0  0  0
  -29.9810  -10.1600   22.4080 F   0  0  0  0  0  0  0  0  0  0  0  0
  -25.2270  -10.2240   21.9500 F   0  0  0  0  0  0  0  0  0  0  0  0
  -30.1490  -18.0180   18.5440 C   0  0  0  0  0  0  0  0  0  0  0  0
  -29.4640  -17.5330   19.5740 N   0  0  0  0  0  0  0  0  0  0  0  0
  -29.5970  -18.6820   17.6680 O   0  0  0  0  0  0  0  0  0  0  0  0
  -29.9210  -17.0070   20.3040 H   0  0  0  0  0  0  0  0  0  0  0  0
  -28.4680  -17.6900   19.6330 H   0  0  0  0  0  0  0  0  0  0  0  0
  -32.5480  -19.9960   17.7150 N   0  0  0  0  0  0  0  0  0  0  0  0
  -31.6760  -20.5010   17.6130 H   0  0  0  0  0  0  0  0  0  0  0  0
  -33.3560  -20.5360   17.4290 H   0  0  0  0  0  0  0  0  0  0  0  0
  1  5  1  0
  2  6  1  0
  3 10  1  0
  4  1  2  0
  4  2  2  0
  5  3  2  0
  6  3  1  0
 10  9  1  6
 10  8  1  0
 10  7  1  0
 11  1  1  0
 12 13  1  0
 12 11  1  0
 14 13  1  0
 15 25  1  0
 16 14  1  0
 17 27  1  0
 17 25  1  0
 17 24  1  0
 18 20  2  0
 18 23  1  0
 19 20  1  0
 20 21  1  0
 21 16  2  0
 22 16  1  0
 23 22  2  0
 24 18  1  0
 25 19  1  0
 26 15  2  0
 28 30  1  0
 28 27  1  0
 29 27  2  0
 31 36  1  0
 31 35  1  0
 32 33  1  0
 32 28  1  0
 33 34  1  0
 35 34  1  0
 36 32  1  0
 37 36  2  0
 38 37  1  0
 39 38  2  0
 39 40  1  0
 40 31  2  0
 41 15  1  0
 42 41  1  0
 42 43  1  0
 43 44  2  0
 45 42  1  0
 47 46  1  0
 47 43  1  0
 47 49  1  0
 49 48  1  0
 50 49  1  0
 51 53  1  6
 51 41  1  0
 51 54  1  0
 52 51  1  0
 55  2  1  0
 56 55  1  0
 56 66  1  0
 57 66  1  0
 57 63  1  0
 58 63  1  0
 59 60  1  0
 59 58  1  0
 61 60  1  0
 61 70  1  0
 61 62  1  0
 63 62  1  0
 64 57  2  0
 66 65  1  0
 67 70  1  0
 67 68  2  0
 68 87  1  0
 68 69  1  0
 69 72  1  0
 70 71  1  0
 71 69  2  0
 72 73  1  0
 73 74  2  0
 75 78  1  0
 75 74  1  0
 76 75  2  0
 77 76  1  0
 77 72  2  0
 78 79  1  0
 79 84  1  0
 80 81  1  0
 80 79  2  0
 81 82  2  0
 82 86  1  0
 82 83  1  0
 84 83  2  0
 84 85  1  0
 87 88  1  0
 88 91  1  0
 88 90  1  0
 89 87  2  0
 92 67  1  0
 93 92  1  0
 94 92  1  0
M  ISO  4  13 101  14 101  57 100  66 100
M  END
>  <TORSDO>  (84) 
F 22

>  <SCORE>  (84) 
-6.160

>  <name>  (84) 
90

>  <ligand_id>  (84) 
90

>  <original_smiles>  (84) 
[H]c1c([H])c([H])c2c(c1[H])C([H])([H])C([H])([H])C([H])([H])C2([H])N([H])C(=O)C1([H])N(C(=O)C([H])(N([H])C(=O)C([H])(N([H])C([H])([H])[H])C([H])([H])[H])C(C([H])([H])[H])(C([H])([H])[H])C([H])([H])[H])C([H])([H])c2c([H])c(OC([H])([H])C([H])([H])C([H])([H])c3nc(C([H])([H])C([H])([H])N(C(=O)N4C([H])([H])C([H])([H])C([H])([H])C([H])(n5nc(-c6c([H])c([H])c(Oc7c([H])c([H])c(F)c([H])c7F)c([H])c6[H])c(C(=O)N([H])[H])c5N([H])[H])C4([H])[H])C([H])([H])[H])nc(C(C([H])([H])[H])(C([H])([H])[H])C([H])([H])[H])n3)c([H])c([H])c2C1([H])[H]

>  <smiles>  (84) 
[H]c1c([H])c([H])c2c(c1[H])C([H])([H])C([H])([H])C([H])([H])C2([H])N([H])C(=O)C1([H])N(C(=O)C([H])(N([H])C(=O)C([H])(N([H])C([H])([H])[H])C([H])([H])[H])C(C([H])([H])[H])(C([H])([H])[H])C([H])([H])[H])C([H])([H])c2c([H])c(OC([H])([H])C([H])([H])C([H])([H])c3nc(C([H])([H])C([H])([H])N(C(=O)N4C([H])([H])C([H])([H])C([H])([H])C([H])(n5nc(-c6c([H])c([H])c(Oc7c([H])c([H])c(F)c([H])c7F)c([H])c6[H])c(C(=O)N([H])[H])c5N([H])[H])C4([H])[H])C([H])([H])[H])nc(C(C([H])([H])[H])(C([H])([H])[H])C([H])([H])[H])n3)c([H])c([H])c2C1([H])[H]

$$$$
91:0:0
     RDKit          3D

 91 99  0  0  1  0  0  0  0  0999 V2000
  -27.2070  -22.7120   18.6860 C   0  0  0  0  0  1  0  0  0  0  0  0
  -27.1070  -23.5900   21.0140 C   0  0  0  0  0  1  0  0  0  0  0  0
  -28.0670  -23.0960   19.9120 C   0  0  1  0  0  0  0  0  0  0  0  0
  -28.9630  -21.3580   21.7620 C   0  0  0  0  0  3  0  0  0  0  0  0
  -29.4830  -20.0910   21.6760 C   0  0  0  0  0  3  0  0  0  0  0  0
  -28.7720  -21.7970   20.4150 C   0  0  0  0  0  0  0  0  0  0  0  0
  -29.2350  -20.8540   19.5780 N   0  0  0  0  0  0  0  0  0  0  0  0
  -29.6110  -19.7790   20.3420 N   0  0  0  0  0  0  0  0  0  0  0  0
  -30.0750  -18.5350   19.6860 C   0  0  0  0  0  3  0  0  0  0  0  0
  -30.1250  -17.1800   20.5170 C   0  0  0  0  0  3  0  0  0  0  0  0
  -31.2380  -14.8880   20.3100 C   0  0  0  0  0  0  0  0  0  0  0  0
  -30.9570  -12.6070   19.4160 C   0  0  0  0  0  2  0  0  0  0  0  0
  -30.0440  -12.6480   18.1700 C   0  0  0  0  0  2  0  0  0  0  0  0
  -28.5580  -12.5990   18.5690 C   0  0  0  0  0  2  0  0  0  0  0  0
  -28.1920  -13.5540   19.7380 C   0  0  0  0  0  3  0  0  0  0  0  0
  -29.2250  -13.4810   20.8840 C   0  0  0  0  0  2  0  0  0  0  0  0
  -30.5500  -13.7100   20.2990 N   0  0  0  0  0  0  0  0  0  0  0  0
  -32.4670  -14.9180   20.2060 O   0  0  0  0  0  0  0  0  0  0  0  0
  -30.7890  -16.1560   18.3280 C   0  0  0  0  0  1  0  0  0  0  0  0
  -30.5470  -15.9430   19.7690 N   0  0  0  0  0  0  0  0  0  0  0  0
  -25.8130  -14.2320   20.4340 C   0  0  0  0  0  0  0  0  0  0  0  0
  -24.7110  -13.4930   20.7720 C   0  0  0  0  0  0  0  0  0  0  0  0
  -25.1270  -12.1270   20.7370 C   0  0  0  0  0  0  0  0  0  0  0  0
  -26.8300  -13.3180   20.2100 N   0  0  0  0  0  0  0  0  0  0  0  0
  -26.4210  -12.0470   20.4580 N   0  0  0  0  0  0  0  0  0  0  0  0
  -24.3540  -10.8880   20.8970 C   0  0  0  0  0  0  0  0  0  0  0  0
  -24.7110   -9.9110   21.8520 C   0  0  0  0  0  3  0  0  0  0  0  0
  -23.9420   -8.7360   21.9970 C   0  0  0  0  0  3  0  0  0  0  0  0
  -22.7990   -8.5330   21.1880 C   0  0  0  0  0  0  0  0  0  0  0  0
  -22.4610   -9.4960   20.2230 C   0  0  0  0  0  3  0  0  0  0  0  0
  -23.2310  -10.6620   20.0750 C   0  0  0  0  0  3  0  0  0  0  0  0
  -22.0060   -7.4110   21.2440 O   0  0  0  0  0  0  0  0  0  0  0  0
  -21.8330   -6.7100   22.4100 C   0  0  0  0  0  0  0  0  0  0  0  0
  -21.3210   -7.3200   23.5770 C   0  0  0  0  0  3  0  0  0  0  0  0
  -21.0950   -6.5450   24.7330 C   0  0  0  0  0  3  0  0  0  0  0  0
  -21.3680   -5.1630   24.7210 C   0  0  0  0  0  0  0  0  0  0  0  0
  -21.8720   -4.5550   23.5580 C   0  0  0  0  0  3  0  0  0  0  0  0
  -22.1010   -5.3260   22.4050 C   0  0  0  0  0  0  0  0  0  0  0  0
  -22.5670   -4.7300   21.2810 F   0  0  0  0  0  0  0  0  0  0  0  0
  -21.1420   -4.4200   25.8290 F   0  0  0  0  0  0  0  0  0  0  0  0
  -23.3250  -14.0160   21.0190 C   0  0  0  0  0  0  0  0  0  0  0  0
  -22.5620  -13.3470   21.8780 N   0  0  0  0  0  0  0  0  0  0  0  0
  -22.9290  -15.0510   20.4870 O   0  0  0  0  0  0  0  0  0  0  0  0
  -22.8950  -12.5090   22.3300 H   0  0  0  0  0  0  0  0  0  0  0  0
  -21.6330  -13.6810   22.0900 H   0  0  0  0  0  0  0  0  0  0  0  0
  -26.0320  -15.5970   20.2750 N   0  0  0  0  0  0  0  0  0  0  0  0
  -25.2940  -16.2830   20.3890 H   0  0  0  0  0  0  0  0  0  0  0  0
  -26.9090  -16.0020   19.9720 H   0  0  0  0  0  0  0  0  0  0  0  0
  -29.0520  -24.2790   19.5740 C   0  0  0  0  0  2  0  0  0  0  0  0
  -28.5170  -25.5890   18.8570 C   0  0  0  0  0  2  0  0  0  0  0  0
  -28.3770  -26.8190   19.6280 O   0  0  0  0  0  0  0  0  0  0  0  0
  -24.5880  -31.7910   23.1180 C   0  0  0  0  0  0  0  0  0  0  0  0
  -27.1870  -27.5450   19.6680 C   0  0  0  0  0  0  0  0  0  0  0  0
  -23.3430  -30.4510   21.4560 C   0  0  0  0  0  3  0  0  0  0  0  0
  -24.7650  -29.0340   19.8760 C   0  0  0  0  0  0  0  0  0  0  0  0
  -25.8550  -30.8690   21.1730 C   0  0  0  0  0  2  0  0  0  0  0  0
  -25.9410  -29.5380   20.4450 C   0  0  0  0  0  0  0  0  0  0  0  0
  -27.1490  -28.7990   20.3400 C   0  0  0  0  0  3  0  0  0  0  0  0
  -25.9820  -27.0700   19.1010 C   0  0  0  0  0  3  0  0  0  0  0  0
  -24.7840  -27.8030   19.2020 C   0  0  0  0  0  3  0  0  0  0  0  0
  -23.5060  -29.8620   20.0310 C   0  0  0  0  0  2  0  0  0  0  0  0
  -24.6160  -31.0520   21.9730 N   0  0  0  0  0  0  0  0  0  0  0  0
  -23.5240  -32.0030   23.7180 O   0  0  0  0  0  0  0  0  0  0  0  0
  -22.7620  -29.3590   22.3820 C   0  0  0  0  0  0  0  0  0  0  0  0
  -21.4440  -29.1200   22.2740 N   0  0  0  0  0  0  0  0  0  0  0  0
  -23.4900  -28.7320   23.1560 O   0  0  0  0  0  0  0  0  0  0  0  0
  -20.9140  -29.6830   21.6240 H   0  0  0  0  0  0  0  0  0  0  0  0
  -18.1560  -27.6910   22.7330 C   0  0  0  0  0  0  0  0  0  0  0  0
  -20.6900  -28.1110   23.0190 C   0  0  0  0  0  3  0  0  0  0  0  0
  -20.8880  -26.7050   22.4100 C   0  0  0  0  0  2  0  0  0  0  0  0
  -19.8120  -26.3340   21.3850 C   0  0  0  0  0  2  0  0  0  0  0  0
  -18.4210  -26.3730   22.0250 C   0  0  0  0  0  2  0  0  0  0  0  0
  -19.2200  -28.5140   23.1850 C   0  0  0  0  0  0  0  0  0  0  0  0
  -18.9190  -29.7450   23.8070 C   0  0  0  0  0  3  0  0  0  0  0  0
  -17.5840  -30.1560   23.9800 C   0  0  0  0  0  3  0  0  0  0  0  0
  -16.5320  -29.3310   23.5440 C   0  0  0  0  0  3  0  0  0  0  0  0
  -16.8190  -28.1000   22.9270 C   0  0  0  0  0  3  0  0  0  0  0  0
  -25.8830  -32.4210   23.7170 C   0  0  0  0  0  3  0  0  0  0  0  0
  -25.5650  -33.8040   24.1000 N   0  0  0  0  0  0  0  0  0  0  0  0
  -25.8720  -34.8850   23.3710 C   0  0  0  0  0  0  0  0  0  0  0  0
  -26.5230  -34.8230   22.3250 O   0  0  0  0  0  0  0  0  0  0  0  0
  -24.9860  -33.9250   24.9180 H   0  0  0  0  0  0  0  0  0  0  0  0
  -24.1170  -36.6660   23.1060 C   0  0  0  0  0  1  0  0  0  0  0  0
  -25.3760  -36.2510   23.8820 C   0  0  0  0  0  3  0  0  0  0  0  0
  -27.5150  -37.1330   24.7060 C   0  0  0  0  0  1  0  0  0  0  0  0
  -26.3950  -37.3200   23.7880 N   0  0  0  0  0  0  0  0  0  0  0  0
  -25.9810  -38.2300   23.9740 H   0  0  0  0  0  0  0  0  0  0  0  0
  -26.4540  -31.6180   24.9500 C   0  0  1  0  0  0  0  0  0  0  0  0
  -25.4040  -31.3390   26.0500 C   0  0  0  0  0  1  0  0  0  0  0  0
  -27.0350  -30.2570   24.4970 C   0  0  0  0  0  1  0  0  0  0  0  0
  -27.6230  -32.4040   25.5900 C   0  0  0  0  0  1  0  0  0  0  0  0
  3  1  1  6
  3  6  1  0
  3  2  1  0
  5  4  2  0
  6  4  1  0
  7  8  1  0
  7  6  2  0
  8  5  1  0
  9  8  1  0
  9 10  2  0
 12 17  1  0
 13 14  1  0
 13 12  1  0
 15 14  1  0
 15 24  1  0
 15 16  1  0
 17 11  1  0
 17 16  1  0
 18 11  2  0
 19 20  1  0
 20 11  1  0
 20 10  1  0
 21 22  2  0
 22 41  1  0
 23 22  1  0
 23 26  1  0
 24 21  1  0
 24 25  1  0
 25 23  2  0
 26 27  1  0
 27 28  2  0
 29 32  1  0
 29 28  1  0
 30 29  2  0
 31 30  1  0
 31 26  2  0
 32 33  1  0
 33 34  1  0
 34 35  2  0
 36 35  1  0
 36 40  1  0
 37 36  2  0
 38 33  2  0
 38 37  1  0
 39 38  1  0
 41 42  1  0
 42 45  1  0
 42 44  1  0
 43 41  2  0
 46 47  1  0
 46 21  1  0
 48 46  1  0
 49  3  1  0
 50 49  1  0
 50 51  1  0
 51 53  1  0
 52 63  2  0
 53 58  1  0
 54 62  1  0
 54 64  1  0
 55 61  1  0
 55 57  1  0
 56 62  1  0
 57 56  1  0
 58 57  2  0
 59 60  1  0
 59 53  2  0
 60 55  2  0
 61 54  1  0
 62 52  1  0
 64 66  2  0
 65 64  1  0
 67 65  1  0
 68 77  2  0
 68 73  1  0
 69 65  1  0
 69 73  1  0
 70 69  1  0
 71 72  1  0
 71 70  1  0
 72 68  1  0
 73 74  2  0
 74 75  1  0
 76 75  2  0
 77 76  1  0
 78 52  1  0
 78 79  1  0
 78 88  1  0
 79 82  1  0
 80 84  1  0
 80 79  1  0
 81 80  2  0
 84 83  1  0
 86 84  1  0
 86 87  1  0
 86 85  1  0
 88 91  1  1
 88 89  1  0
 90 88  1  0
M  ISO  4  11 100  20 100  50 101  51 101
M  END
>  <TORSDO>  (85) 
F 21

>  <SCORE>  (85) 
-12.324

>  <name>  (85) 
91

>  <ligand_id>  (85) 
91

>  <original_smiles>  (85) 
[H]c1c([H])c([H])c2c(c1[H])C([H])([H])C([H])([H])C([H])([H])C2([H])N([H])C(=O)C1([H])N(C(=O)C([H])(N([H])C(=O)C([H])(N([H])C([H])([H])[H])C([H])([H])[H])C(C([H])([H])[H])(C([H])([H])[H])C([H])([H])[H])C([H])([H])c2c([H])c(OC([H])([H])C([H])([H])C(c3nn(C([H])([H])C([H])([H])N(C(=O)N4C([H])([H])C([H])([H])C([H])([H])C([H])(n5nc(-c6c([H])c([H])c(Oc7c([H])c([H])c(F)c([H])c7F)c([H])c6[H])c(C(=O)N([H])[H])c5N([H])[H])C4([H])[H])C([H])([H])[H])c([H])c3[H])(C([H])([H])[H])C([H])([H])[H])c([H])c([H])c2C1([H])[H]

>  <smiles>  (85) 
[H]c1c([H])c([H])c2c(c1[H])C([H])([H])C([H])([H])C([H])([H])C2([H])N([H])C(=O)C1([H])N(C(=O)C([H])(N([H])C(=O)C([H])(N([H])C([H])([H])[H])C([H])([H])[H])C(C([H])([H])[H])(C([H])([H])[H])C([H])([H])[H])C([H])([H])c2c([H])c(OC([H])([H])C([H])([H])C(c3nn(C([H])([H])C([H])([H])N(C(=O)N4C([H])([H])C([H])([H])C([H])([H])C([H])(n5nc(-c6c([H])c([H])c(Oc7c([H])c([H])c(F)c([H])c7F)c([H])c6[H])c(C(=O)N([H])[H])c5N([H])[H])C4([H])[H])C([H])([H])[H])c([H])c3[H])(C([H])([H])[H])C([H])([H])[H])c([H])c([H])c2C1([H])[H]

$$$$
92:0:0
     RDKit          3D

 93101  0  0  1  0  0  0  0  0999 V2000
  -28.1100  -22.7790   22.8380 C   0  0  0  0  0  1  0  0  0  0  0  0
  -28.3400  -22.6890   21.3760 N   0  0  1  0  0  4  0  0  0  0  0  0
  -29.3380  -22.5850   21.2780 H   0  0  0  0  0  0  0  0  0  0  0  0
  -27.7170  -21.4650   20.7980 C   0  0  0  0  0  2  0  0  0  0  0  0
  -28.1940  -21.1300   19.3680 C   0  0  0  0  0  2  0  0  0  0  0  0
  -29.5550  -20.4090   19.2690 C   0  0  0  0  0  2  0  0  0  0  0  0
  -30.1350  -18.2710   20.6420 C   0  0  0  0  0  3  0  0  0  0  0  0
  -29.5080  -18.9500   19.6350 C   0  0  0  0  0  0  0  0  0  0  0  0
  -28.8160  -18.0280   18.8540 N   0  0  0  0  0  0  0  0  0  0  0  0
  -28.9880  -16.8380   19.3360 N   0  0  0  0  0  0  0  0  0  0  0  0
  -29.8290  -16.9370   20.3970 N   0  0  0  0  0  0  0  0  0  0  0  0
  -31.2840  -16.0130   22.2080 C   0  0  0  0  0  1  0  0  0  0  0  0
  -30.2030  -15.7250   21.1430 C   0  0  0  0  0  3  0  0  0  0  0  0
  -30.7000  -14.5990   20.1900 C   0  0  0  0  0  0  0  0  0  0  0  0
  -30.3400  -12.4960   18.9390 C   0  0  0  0  0  2  0  0  0  0  0  0
  -29.3440  -12.7230   17.7850 C   0  0  0  0  0  2  0  0  0  0  0  0
  -27.8900  -12.5620   18.2700 C   0  0  0  0  0  2  0  0  0  0  0  0
  -27.6050  -13.3620   19.5690 C   0  0  0  0  0  3  0  0  0  0  0  0
  -28.7050  -13.0950   20.6200 C   0  0  0  0  0  2  0  0  0  0  0  0
  -30.0030  -13.4400   20.0190 N   0  0  0  0  0  0  0  0  0  0  0  0
  -31.7380  -14.8240   19.5560 O   0  0  0  0  0  0  0  0  0  0  0  0
  -25.2280  -13.9490   20.3640 C   0  0  0  0  0  0  0  0  0  0  0  0
  -24.1810  -13.1650   20.7700 C   0  0  0  0  0  0  0  0  0  0  0  0
  -24.6520  -11.8170   20.7150 C   0  0  0  0  0  0  0  0  0  0  0  0
  -26.2710  -13.0770   20.0940 N   0  0  0  0  0  0  0  0  0  0  0  0
  -25.9290  -11.7910   20.3580 N   0  0  0  0  0  0  0  0  0  0  0  0
  -23.9460  -10.5490   20.9280 C   0  0  0  0  0  0  0  0  0  0  0  0
  -24.3880   -9.6090   21.8860 C   0  0  0  0  0  3  0  0  0  0  0  0
  -23.6820   -8.4030   22.0850 C   0  0  0  0  0  3  0  0  0  0  0  0
  -22.5210   -8.1270   21.3240 C   0  0  0  0  0  0  0  0  0  0  0  0
  -22.0990   -9.0550   20.3560 C   0  0  0  0  0  3  0  0  0  0  0  0
  -22.8050  -10.2530   20.1550 C   0  0  0  0  0  3  0  0  0  0  0  0
  -21.7860   -6.9700   21.4290 O   0  0  0  0  0  0  0  0  0  0  0  0
  -21.7010   -6.2790   22.6110 C   0  0  0  0  0  0  0  0  0  0  0  0
  -21.2150   -6.8810   23.7920 C   0  0  0  0  0  3  0  0  0  0  0  0
  -21.0770   -6.1150   24.9670 C   0  0  0  0  0  3  0  0  0  0  0  0
  -21.4140   -4.7470   24.9610 C   0  0  0  0  0  0  0  0  0  0  0  0
  -21.8900   -4.1450   23.7840 C   0  0  0  0  0  3  0  0  0  0  0  0
  -22.0300   -4.9090   22.6110 C   0  0  0  0  0  0  0  0  0  0  0  0
  -22.4710   -4.3180   21.4740 F   0  0  0  0  0  0  0  0  0  0  0  0
  -21.2730   -4.0100   26.0870 F   0  0  0  0  0  0  0  0  0  0  0  0
  -22.7910  -13.6280   21.1010 C   0  0  0  0  0  0  0  0  0  0  0  0
  -22.1020  -12.9160   21.9850 N   0  0  0  0  0  0  0  0  0  0  0  0
  -22.3260  -14.6560   20.6110 O   0  0  0  0  0  0  0  0  0  0  0  0
  -22.4910  -12.0840   22.4040 H   0  0  0  0  0  0  0  0  0  0  0  0
  -21.1710  -13.2080   22.2490 H   0  0  0  0  0  0  0  0  0  0  0  0
  -25.3730  -15.3220   20.1860 N   0  0  0  0  0  0  0  0  0  0  0  0
  -24.6030  -15.9660   20.3190 H   0  0  0  0  0  0  0  0  0  0  0  0
  -26.2070  -15.7690   19.8230 H   0  0  0  0  0  0  0  0  0  0  0  0
  -27.9730  -23.9530   20.6730 C   0  0  0  0  0  2  0  0  0  0  0  0
  -29.1990  -24.6000   20.0030 C   0  0  0  0  0  2  0  0  0  0  0  0
  -28.8880  -25.8900   19.2220 C   0  0  0  0  0  2  0  0  0  0  0  0
  -28.6130  -26.9630   20.1250 O   0  0  0  0  0  0  0  0  0  0  0  0
  -24.6680  -31.9550   23.2570 C   0  0  0  0  0  0  0  0  0  0  0  0
  -27.3920  -27.6030   20.1200 C   0  0  0  0  0  0  0  0  0  0  0  0
  -23.4830  -30.5480   21.6030 C   0  0  0  0  0  3  0  0  0  0  0  0
  -24.9600  -29.0500   20.1660 C   0  0  0  0  0  0  0  0  0  0  0  0
  -26.0010  -30.9540   21.4070 C   0  0  0  0  0  2  0  0  0  0  0  0
  -26.1080  -29.5910   20.7580 C   0  0  0  0  0  0  0  0  0  0  0  0
  -27.3200  -28.8700   20.7390 C   0  0  0  0  0  3  0  0  0  0  0  0
  -26.2150  -27.0590   19.5510 C   0  0  0  0  0  3  0  0  0  0  0  0
  -25.0070  -27.7800   19.5670 C   0  0  0  0  0  3  0  0  0  0  0  0
  -23.7030  -29.8860   20.2170 C   0  0  0  0  0  2  0  0  0  0  0  0
  -24.7350  -31.1670   22.1470 N   0  0  0  0  0  0  0  0  0  0  0  0
  -23.5820  -32.2030   23.8010 O   0  0  0  0  0  0  0  0  0  0  0  0
  -22.8520  -29.5050   22.5530 C   0  0  0  0  0  0  0  0  0  0  0  0
  -21.5350  -29.2910   22.4150 N   0  0  0  0  0  0  0  0  0  0  0  0
  -23.5470  -28.8910   23.3680 O   0  0  0  0  0  0  0  0  0  0  0  0
  -21.0360  -29.8420   21.7290 H   0  0  0  0  0  0  0  0  0  0  0  0
  -18.1860  -28.0130   22.8700 C   0  0  0  0  0  0  0  0  0  0  0  0
  -20.7330  -28.3330   23.1750 C   0  0  0  0  0  3  0  0  0  0  0  0
  -20.8780  -26.9060   22.5950 C   0  0  0  0  0  2  0  0  0  0  0  0
  -19.7960  -26.5600   21.5670 C   0  0  0  0  0  2  0  0  0  0  0  0
  -18.4030  -26.6700   22.1950 C   0  0  0  0  0  2  0  0  0  0  0  0
  -19.2810  -28.8010   23.3160 C   0  0  0  0  0  0  0  0  0  0  0  0
  -19.0250  -30.0570   23.9060 C   0  0  0  0  0  3  0  0  0  0  0  0
  -17.7080  -30.5290   24.0560 C   0  0  0  0  0  3  0  0  0  0  0  0
  -16.6270  -29.7390   23.6290 C   0  0  0  0  0  3  0  0  0  0  0  0
  -16.8660  -28.4830   23.0420 C   0  0  0  0  0  3  0  0  0  0  0  0
  -25.9440  -32.5990   23.8810 C   0  0  0  0  0  3  0  0  0  0  0  0
  -25.6230  -33.9960   24.2010 N   0  0  0  0  0  0  0  0  0  0  0  0
  -25.9500  -35.0470   23.4370 C   0  0  0  0  0  0  0  0  0  0  0  0
  -26.6310  -34.9440   22.4120 O   0  0  0  0  0  0  0  0  0  0  0  0
  -25.0230  -34.1480   24.9990 H   0  0  0  0  0  0  0  0  0  0  0  0
  -24.2100  -36.8200   23.0520 C   0  0  0  0  0  1  0  0  0  0  0  0
  -25.4450  -36.4320   23.8810 C   0  0  0  0  0  3  0  0  0  0  0  0
  -27.5620  -37.3420   24.7300 C   0  0  0  0  0  1  0  0  0  0  0  0
  -26.4690  -37.4950   23.7740 N   0  0  0  0  0  0  0  0  0  0  0  0
  -26.0530  -38.4110   23.9140 H   0  0  0  0  0  0  0  0  0  0  0  0
  -26.4650  -31.8370   25.1620 C   0  0  1  0  0  0  0  0  0  0  0  0
  -25.3720  -31.5860   26.2270 C   0  0  0  0  0  1  0  0  0  0  0  0
  -27.0670  -30.4660   24.7730 C   0  0  0  0  0  1  0  0  0  0  0  0
  -27.6030  -32.6460   25.8290 C   0  0  0  0  0  1  0  0  0  0  0  0
  2  1  1  0
  2  3  1  1
  4  2  1  0
  5  4  1  0
  6  5  1  0
  6  8  1  0
  8  7  2  0
  9 10  2  0
  9  8  1  0
 10 11  1  0
 11  7  1  0
 11 13  1  0
 13 12  1  0
 14 13  1  0
 15 20  1  0
 16 17  1  0
 16 15  1  0
 18 17  1  0
 18 25  1  0
 18 19  1  0
 20 14  1  0
 20 19  1  0
 21 14  2  0
 22 23  2  0
 23 42  1  0
 24 23  1  0
 24 27  1  0
 25 26  1  0
 25 22  1  0
 26 24  2  0
 27 28  1  0
 28 29  2  0
 30 33  1  0
 30 29  1  0
 31 30  2  0
 32 31  1  0
 32 27  2  0
 33 34  1  0
 34 39  2  0
 34 35  1  0
 35 36  2  0
 37 36  1  0
 37 41  1  0
 38 37  2  0
 39 38  1  0
 40 39  1  0
 42 43  1  0
 43 46  1  0
 43 45  1  0
 44 42  2  0
 47 48  1  0
 47 22  1  0
 49 47  1  0
 50  2  1  0
 51 50  1  0
 52 51  1  0
 52 53  1  0
 54 65  2  0
 55 53  1  0
 55 60  1  0
 56 64  1  0
 56 66  1  0
 57 63  1  0
 57 59  1  0
 58 64  1  0
 59 58  1  0
 60 59  2  0
 61 62  1  0
 61 55  2  0
 62 57  2  0
 63 56  1  0
 64 54  1  0
 66 68  2  0
 67 66  1  0
 69 67  1  0
 70 79  2  0
 70 75  1  0
 71 67  1  0
 71 75  1  0
 72 71  1  0
 73 74  1  0
 73 72  1  0
 74 70  1  0
 75 76  2  0
 76 77  1  0
 78 77  2  0
 79 78  1  0
 80 54  1  0
 80 81  1  0
 80 90  1  0
 81 84  1  0
 82 86  1  0
 82 81  1  0
 83 82  2  0
 86 85  1  0
 88 86  1  0
 88 89  1  0
 88 87  1  0
 90 93  1  1
 90 91  1  0
 92 90  1  0
M  ISO  4  13 100  14 100  52 101  53 101
M  END
>  <TORSDO>  (86) 
F 24

>  <SCORE>  (86) 
-11.406

>  <name>  (86) 
92

>  <ligand_id>  (86) 
92

>  <original_smiles>  (86) 
[H]c1c([H])c([H])c2c(c1[H])C([H])([H])C([H])([H])C([H])([H])C2([H])N([H])C(=O)C1([H])N(C(=O)C([H])(N([H])C(=O)C([H])(N([H])C([H])([H])[H])C([H])([H])[H])C(C([H])([H])[H])(C([H])([H])[H])C([H])([H])[H])C([H])([H])c2c([H])c(OC([H])([H])C([H])([H])C([H])([H])[N+]([H])(C([H])([H])[H])C([H])([H])C([H])([H])C([H])([H])c3nnn(C([H])(C(=O)N4C([H])([H])C([H])([H])C([H])([H])C([H])(n5nc(-c6c([H])c([H])c(Oc7c([H])c([H])c(F)c([H])c7F)c([H])c6[H])c(C(=O)N([H])[H])c5N([H])[H])C4([H])[H])C([H])([H])[H])c3[H])c([H])c([H])c2C1([H])[H]

>  <smiles>  (86) 
[H]c1c([H])c([H])c2c(c1[H])C([H])([H])C([H])([H])C([H])([H])C2([H])N([H])C(=O)C1([H])N(C(=O)C([H])(N([H])C(=O)C([H])(N([H])C([H])([H])[H])C([H])([H])[H])C(C([H])([H])[H])(C([H])([H])[H])C([H])([H])[H])C([H])([H])c2c([H])c(OC([H])([H])C([H])([H])C([H])([H])[N+]([H])(C([H])([H])[H])C([H])([H])C([H])([H])C([H])([H])c3nnn(C([H])(C(=O)N4C([H])([H])C([H])([H])C([H])([H])C([H])(n5nc(-c6c([H])c([H])c(Oc7c([H])c([H])c(F)c([H])c7F)c([H])c6[H])c(C(=O)N([H])[H])c5N([H])[H])C4([H])[H])C([H])([H])[H])c3[H])c([H])c([H])c2C1([H])[H]

$$$$
93:0:0
     RDKit          3D

 92100  0  0  1  0  0  0  0  0999 V2000
  -29.5460  -21.0950   22.1580 C   0  0  0  0  0  3  0  0  0  0  0  0
  -28.8670  -21.2580   19.8860 C   0  0  0  0  0  3  0  0  0  0  0  0
  -29.0630  -21.9040   21.1160 C   0  0  0  0  0  0  0  0  0  0  0  0
  -29.4120  -19.2330   20.8250 C   0  0  0  0  0  0  0  0  0  0  0  0
  -29.7150  -19.7670   22.0070 N   0  0  0  0  0  0  0  0  0  0  0  0
  -29.0540  -19.9320   19.7470 N   0  0  0  0  0  0  0  0  0  0  0  0
  -29.3620  -17.6930   20.7290 C   0  0  1  0  0  0  0  0  0  0  0  0
  -28.9850  -17.1960   21.9100 F   0  0  0  0  0  0  0  0  0  0  0  0
  -28.4280  -17.3390   19.8380 F   0  0  0  0  0  0  0  0  0  0  0  0
  -30.6830  -16.9940   20.3300 C   0  0  0  0  0  2  0  0  0  0  0  0
  -31.1670  -14.5950   19.7800 C   0  0  0  0  0  0  0  0  0  0  0  0
  -30.8460  -12.3680   18.7670 C   0  0  0  0  0  2  0  0  0  0  0  0
  -29.7930  -12.4640   17.6440 C   0  0  0  0  0  2  0  0  0  0  0  0
  -28.3580  -12.3460   18.2010 C   0  0  0  0  0  2  0  0  0  0  0  0
  -28.1130  -13.2540   19.4360 C   0  0  0  0  0  3  0  0  0  0  0  0
  -29.2600  -13.0890   20.4580 C   0  0  0  0  0  2  0  0  0  0  0  0
  -30.5310  -13.3930   19.7740 N   0  0  0  0  0  0  0  0  0  0  0  0
  -32.1720  -14.8400   19.1070 O   0  0  0  0  0  0  0  0  0  0  0  0
  -30.5460  -15.5400   20.4920 N   0  0  0  0  0  0  0  0  0  0  0  0
  -29.7510  -15.2380   21.0330 H   0  0  0  0  0  0  0  0  0  0  0  0
  -25.8290  -13.8990   20.4350 C   0  0  0  0  0  0  0  0  0  0  0  0
  -24.7740  -13.1410   20.8710 C   0  0  0  0  0  0  0  0  0  0  0  0
  -25.1710  -11.7800   20.6990 C   0  0  0  0  0  0  0  0  0  0  0  0
  -26.8070  -12.9990   20.0410 N   0  0  0  0  0  0  0  0  0  0  0  0
  -26.4180  -11.7150   20.2470 N   0  0  0  0  0  0  0  0  0  0  0  0
  -24.4180  -10.5350   20.8900 C   0  0  0  0  0  0  0  0  0  0  0  0
  -24.8300   -9.5600   21.8240 C   0  0  0  0  0  3  0  0  0  0  0  0
  -24.0830   -8.3760   21.9990 C   0  0  0  0  0  3  0  0  0  0  0  0
  -22.9070   -8.1610   21.2420 C   0  0  0  0  0  0  0  0  0  0  0  0
  -22.5100   -9.1290   20.3000 C   0  0  0  0  0  3  0  0  0  0  0  0
  -23.2590  -10.3030   20.1240 C   0  0  0  0  0  3  0  0  0  0  0  0
  -22.1280   -7.0330   21.3330 O   0  0  0  0  0  0  0  0  0  0  0  0
  -21.9370   -6.3790   22.5240 C   0  0  0  0  0  0  0  0  0  0  0  0
  -21.3900   -7.0320   23.6510 C   0  0  0  0  0  3  0  0  0  0  0  0
  -21.1440   -6.3050   24.8350 C   0  0  0  0  0  3  0  0  0  0  0  0
  -21.4350   -4.9290   24.8880 C   0  0  0  0  0  0  0  0  0  0  0  0
  -21.9730   -4.2780   23.7650 C   0  0  0  0  0  3  0  0  0  0  0  0
  -22.2200   -5.0000   22.5860 C   0  0  0  0  0  0  0  0  0  0  0  0
  -22.7200   -4.3630   21.5000 F   0  0  0  0  0  0  0  0  0  0  0  0
  -21.1900   -4.2300   26.0220 F   0  0  0  0  0  0  0  0  0  0  0  0
  -23.4390  -13.6500   21.3330 C   0  0  0  0  0  0  0  0  0  0  0  0
  -22.7880  -12.9310   22.2410 N   0  0  0  0  0  0  0  0  0  0  0  0
  -22.9860  -14.7180   20.9270 O   0  0  0  0  0  0  0  0  0  0  0  0
  -23.1660  -12.0660   22.5980 H   0  0  0  0  0  0  0  0  0  0  0  0
  -21.8940  -13.2540   22.5860 H   0  0  0  0  0  0  0  0  0  0  0  0
  -26.0300  -15.2690   20.3280 N   0  0  0  0  0  0  0  0  0  0  0  0
  -25.3180  -15.9410   20.5900 H   0  0  0  0  0  0  0  0  0  0  0  0
  -26.8860  -15.7000   20.0030 H   0  0  0  0  0  0  0  0  0  0  0  0
  -28.6160  -23.3500   21.3570 C   0  0  0  0  0  2  0  0  0  0  0  0
  -29.4320  -24.4890   20.6890 C   0  0  0  0  0  2  0  0  0  0  0  0
  -28.8680  -25.8770   21.0920 C   0  0  0  0  0  2  0  0  0  0  0  0
  -28.9500  -26.9010   20.0790 O   0  0  0  0  0  0  0  0  0  0  0  0
  -24.6240  -31.6890   23.0670 C   0  0  0  0  0  0  0  0  0  0  0  0
  -27.7710  -27.6020   19.9810 C   0  0  0  0  0  0  0  0  0  0  0  0
  -23.6160  -30.2360   21.3410 C   0  0  0  0  0  3  0  0  0  0  0  0
  -25.2560  -28.8820   19.9300 C   0  0  0  0  0  0  0  0  0  0  0  0
  -26.1020  -30.8250   21.2550 C   0  0  0  0  0  2  0  0  0  0  0  0
  -26.3390  -29.4910   20.5790 C   0  0  0  0  0  0  0  0  0  0  0  0
  -27.6010  -28.8590   20.6030 C   0  0  0  0  0  3  0  0  0  0  0  0
  -26.6800  -27.0070   19.3150 C   0  0  0  0  0  3  0  0  0  0  0  0
  -25.4230  -27.6390   19.2920 C   0  0  0  0  0  3  0  0  0  0  0  0
  -23.9380  -29.6190   19.9530 C   0  0  0  0  0  2  0  0  0  0  0  0
  -24.7950  -30.9320   21.9470 N   0  0  0  0  0  0  0  0  0  0  0  0
  -23.5030  -31.8500   23.5660 O   0  0  0  0  0  0  0  0  0  0  0  0
  -23.0240  -29.1320   22.2450 C   0  0  0  0  0  0  0  0  0  0  0  0
  -21.7240  -28.8460   22.0670 N   0  0  0  0  0  0  0  0  0  0  0  0
  -23.7320  -28.5380   23.0630 O   0  0  0  0  0  0  0  0  0  0  0  0
  -21.2120  -29.3850   21.3830 H   0  0  0  0  0  0  0  0  0  0  0  0
  -18.4400  -27.3850   22.4310 C   0  0  0  0  0  0  0  0  0  0  0  0
  -20.9650  -27.8140   22.7720 C   0  0  0  0  0  3  0  0  0  0  0  0
  -21.1880  -26.4250   22.1310 C   0  0  0  0  0  2  0  0  0  0  0  0
  -20.1290  -26.0720   21.0810 C   0  0  0  0  0  2  0  0  0  0  0  0
  -18.7300  -26.0840   21.6990 C   0  0  0  0  0  2  0  0  0  0  0  0
  -19.4900  -28.2060   22.9190 C   0  0  0  0  0  0  0  0  0  0  0  0
  -19.1660  -29.4230   23.5570 C   0  0  0  0  0  3  0  0  0  0  0  0
  -17.8250  -29.8180   23.7180 C   0  0  0  0  0  3  0  0  0  0  0  0
  -16.7900  -28.9950   23.2450 C   0  0  0  0  0  3  0  0  0  0  0  0
  -17.0980  -27.7790   22.6070 C   0  0  0  0  0  3  0  0  0  0  0  0
  -25.8260  -32.4110   23.7570 C   0  0  0  0  0  3  0  0  0  0  0  0
  -25.3940  -33.7760   24.0780 N   0  0  0  0  0  0  0  0  0  0  0  0
  -25.6770  -34.8550   23.3360 C   0  0  0  0  0  0  0  0  0  0  0  0
  -26.3980  -34.8080   22.3350 O   0  0  0  0  0  0  0  0  0  0  0  0
  -24.7600  -33.8810   24.8560 H   0  0  0  0  0  0  0  0  0  0  0  0
  -23.8260  -36.5050   22.9060 C   0  0  0  0  0  1  0  0  0  0  0  0
  -25.0610  -36.2000   23.7720 C   0  0  0  0  0  3  0  0  0  0  0  0
  -27.0790  -37.2500   24.6970 C   0  0  0  0  0  1  0  0  0  0  0  0
  -26.0100  -37.3320   23.7040 N   0  0  0  0  0  0  0  0  0  0  0  0
  -25.5260  -38.2150   23.8350 H   0  0  0  0  0  0  0  0  0  0  0  0
  -26.3390  -31.6680   25.0530 C   0  0  1  0  0  0  0  0  0  0  0  0
  -25.2140  -31.3150   26.0530 C   0  0  0  0  0  1  0  0  0  0  0  0
  -27.0660  -30.3540   24.6770 C   0  0  0  0  0  1  0  0  0  0  0  0
  -27.3750  -32.5510   25.7880 C   0  0  0  0  0  1  0  0  0  0  0  0
  2  3  1  0
  3 49  1  0
  3  1  2  0
  4  5  2  0
  5  1  1  0
  6  2  2  0
  6  4  1  0
  7  4  1  0
  7  8  1  1
  9  7  1  0
 10 19  1  0
 10  7  1  0
 11 19  1  0
 12 17  1  0
 13 14  1  0
 13 12  1  0
 15 14  1  0
 15 24  1  0
 15 16  1  0
 17 11  1  0
 17 16  1  0
 18 11  2  0
 19 20  1  0
 21 22  2  0
 22 41  1  0
 23 22  1  0
 23 26  1  0
 24 25  1  0
 24 21  1  0
 25 23  2  0
 26 27  1  0
 27 28  2  0
 29 32  1  0
 29 28  1  0
 30 29  2  0
 31 30  1  0
 31 26  2  0
 32 33  1  0
 33 38  2  0
 33 34  1  0
 34 35  2  0
 35 36  1  0
 36 40  1  0
 37 36  2  0
 38 37  1  0
 39 38  1  0
 41 42  1  0
 42 45  1  0
 42 44  1  0
 43 41  2  0
 46 21  1  0
 46 47  1  0
 48 46  1  0
 50 51  1  0
 50 49  1  0
 52 51  1  0
 53 64  2  0
 54 52  1  0
 54 59  1  0
 55 63  1  0
 55 65  1  0
 56 62  1  0
 56 58  1  0
 57 63  1  0
 58 59  2  0
 58 57  1  0
 60 54  2  0
 61 60  1  0
 61 56  2  0
 62 55  1  0
 63 53  1  0
 65 67  2  0
 66 65  1  0
 68 66  1  0
 69 78  2  0
 69 74  1  0
 70 66  1  0
 70 74  1  0
 71 70  1  0
 72 73  1  0
 72 71  1  0
 73 69  1  0
 74 75  2  0
 75 76  1  0
 77 76  2  0
 78 77  1  0
 79 53  1  0
 79 80  1  0
 79 89  1  0
 80 83  1  0
 81 85  1  0
 81 80  1  0
 82 81  2  0
 85 84  1  0
 87 85  1  0
 87 88  1  0
 87 86  1  0
 89 92  1  1
 89 90  1  0
 91 89  1  0
M  ISO  4  11 100  19 100  51 101  52 101
M  END
>  <TORSDO>  (87) 
F 21

>  <SCORE>  (87) 
-11.453

>  <name>  (87) 
93

>  <ligand_id>  (87) 
93

>  <original_smiles>  (87) 
[H]c1nc(C(F)(F)C([H])([H])N([H])C(=O)N2C([H])([H])C([H])([H])C([H])([H])C([H])(n3nc(-c4c([H])c([H])c(Oc5c([H])c([H])c(F)c([H])c5F)c([H])c4[H])c(C(=O)N([H])[H])c3N([H])[H])C2([H])[H])nc([H])c1C([H])([H])C([H])([H])C([H])([H])Oc1c([H])c([H])c2c(c1[H])C([H])([H])N(C(=O)C([H])(N([H])C(=O)C([H])(N([H])C([H])([H])[H])C([H])([H])[H])C(C([H])([H])[H])(C([H])([H])[H])C([H])([H])[H])C([H])(C(=O)N([H])C1([H])c3c([H])c([H])c([H])c([H])c3C([H])([H])C([H])([H])C1([H])[H])C2([H])[H]

>  <smiles>  (87) 
[H]c1nc(C(F)(F)C([H])([H])N([H])C(=O)N2C([H])([H])C([H])([H])C([H])([H])C([H])(n3nc(-c4c([H])c([H])c(Oc5c([H])c([H])c(F)c([H])c5F)c([H])c4[H])c(C(=O)N([H])[H])c3N([H])[H])C2([H])[H])nc([H])c1C([H])([H])C([H])([H])C([H])([H])Oc1c([H])c([H])c2c(c1[H])C([H])([H])N(C(=O)C([H])(N([H])C(=O)C([H])(N([H])C([H])([H])[H])C([H])([H])[H])C(C([H])([H])[H])(C([H])([H])[H])C([H])([H])[H])C([H])(C(=O)N([H])C1([H])c3c([H])c([H])c([H])c([H])c3C([H])([H])C([H])([H])C1([H])[H])C2([H])[H]

$$$$
94:0:0
     RDKit          3D

 90 98  0  0  1  0  0  0  0  0999 V2000
  -27.8650  -20.0860   20.0410 C   0  0  0  0  0  2  0  0  0  0  0  0
  -29.4470  -18.7070   20.2790 C   0  0  0  0  0  0  0  0  0  0  0  0
  -28.1320  -18.7720   19.8940 N   0  0  0  0  0  0  0  0  0  0  0  0
  -29.9260  -19.9320   20.6540 N   0  0  0  0  0  2  0  0  0  0  0  0
  -28.8830  -20.8460   20.4740 N   0  0  0  0  0  0  0  0  0  0  0  0
  -28.9000  -22.2990   20.9850 C   0  0  0  0  0  3  0  0  0  0  0  0
  -28.5490  -23.6170   20.0860 C   0  0  0  0  0  3  0  0  0  0  0  0
  -28.1980  -25.0220   20.8490 C   0  0  0  0  0  2  0  0  0  0  0  0
  -28.3400  -26.4110   20.2750 O   0  0  0  0  0  0  0  0  0  0  0  0
  -24.5790  -31.9010   23.2620 C   0  0  0  0  0  0  0  0  0  0  0  0
  -27.2340  -27.2910   20.2720 C   0  0  0  0  0  0  0  0  0  0  0  0
  -23.4040  -30.4930   21.6100 C   0  0  0  0  0  3  0  0  0  0  0  0
  -24.8770  -28.9290   20.2130 C   0  0  0  0  0  0  0  0  0  0  0  0
  -25.9470  -30.8050   21.4630 C   0  0  0  0  0  2  0  0  0  0  0  0
  -26.0400  -29.4190   20.8240 C   0  0  0  0  0  0  0  0  0  0  0  0
  -27.2260  -28.6130   20.8350 C   0  0  0  0  0  3  0  0  0  0  0  0
  -26.0500  -26.8640   19.6420 C   0  0  0  0  0  3  0  0  0  0  0  0
  -24.8860  -27.6610   19.6100 C   0  0  0  0  0  3  0  0  0  0  0  0
  -23.6400  -29.8070   20.2380 C   0  0  0  0  0  2  0  0  0  0  0  0
  -24.6610  -31.0860   22.1680 N   0  0  0  0  0  0  0  0  0  0  0  0
  -23.4860  -32.1770   23.7790 O   0  0  0  0  0  0  0  0  0  0  0  0
  -22.7260  -29.4810   22.5670 C   0  0  0  0  0  0  0  0  0  0  0  0
  -21.4000  -29.3100   22.4300 N   0  0  0  0  0  0  0  0  0  0  0  0
  -23.3960  -28.8560   23.3940 O   0  0  0  0  0  0  0  0  0  0  0  0
  -20.9190  -29.8680   21.7380 H   0  0  0  0  0  0  0  0  0  0  0  0
  -18.0130  -28.1370   22.9240 C   0  0  0  0  0  0  0  0  0  0  0  0
  -20.5730  -28.3730   23.1940 C   0  0  0  0  0  3  0  0  0  0  0  0
  -20.6620  -26.9450   22.6080 C   0  0  0  0  0  2  0  0  0  0  0  0
  -19.5580  -26.6390   21.5910 C   0  0  0  0  0  2  0  0  0  0  0  0
  -18.1780  -26.7920   22.2360 C   0  0  0  0  0  2  0  0  0  0  0  0
  -19.1380  -28.8860   23.3580 C   0  0  0  0  0  0  0  0  0  0  0  0
  -18.9290  -30.1450   23.9630 C   0  0  0  0  0  3  0  0  0  0  0  0
  -17.6290  -30.6560   24.1340 C   0  0  0  0  0  3  0  0  0  0  0  0
  -16.5180  -29.9040   23.7130 C   0  0  0  0  0  3  0  0  0  0  0  0
  -16.7110  -28.6450   23.1150 C   0  0  0  0  0  3  0  0  0  0  0  0
  -25.8500  -32.5410   23.9010 C   0  0  0  0  0  3  0  0  0  0  0  0
  -25.5360  -33.9450   24.2070 N   0  0  0  0  0  0  0  0  0  0  0  0
  -25.8880  -34.9880   23.4440 C   0  0  0  0  0  0  0  0  0  0  0  0
  -26.5780  -34.8710   22.4280 O   0  0  0  0  0  0  0  0  0  0  0  0
  -24.9260  -34.1100   24.9940 H   0  0  0  0  0  0  0  0  0  0  0  0
  -24.1800  -36.7890   23.0270 C   0  0  0  0  0  1  0  0  0  0  0  0
  -25.3970  -36.3840   23.8750 C   0  0  0  0  0  3  0  0  0  0  0  0
  -27.5110  -37.2680   24.7570 C   0  0  0  0  0  1  0  0  0  0  0  0
  -26.4380  -37.4300   23.7790 N   0  0  0  0  0  0  0  0  0  0  0  0
  -26.0330  -38.3540   23.9030 H   0  0  0  0  0  0  0  0  0  0  0  0
  -26.3370  -31.7880   25.2010 C   0  0  1  0  0  0  0  0  0  0  0  0
  -25.2200  -31.5710   26.2490 C   0  0  0  0  0  1  0  0  0  0  0  0
  -26.9240  -30.4040   24.8440 C   0  0  0  0  0  1  0  0  0  0  0  0
  -27.4750  -32.5910   25.8740 C   0  0  0  0  0  1  0  0  0  0  0  0
  -30.3520  -17.4210   20.0410 C   0  0  0  0  0  3  0  0  0  0  0  0
  -30.6370  -14.8240   20.3590 C   0  0  0  0  0  0  0  0  0  0  0  0
  -30.4230  -12.5470   19.3600 C   0  0  0  0  0  2  0  0  0  0  0  0
  -29.4860  -12.6190   18.1360 C   0  0  0  0  0  2  0  0  0  0  0  0
  -28.0180  -12.4400   18.5720 C   0  0  0  0  0  2  0  0  0  0  0  0
  -27.6410  -13.3240   19.7890 C   0  0  0  0  0  3  0  0  0  0  0  0
  -28.7050  -13.2580   20.9080 C   0  0  0  0  0  2  0  0  0  0  0  0
  -29.9920  -13.6080   20.3010 N   0  0  0  0  0  0  0  0  0  0  0  0
  -31.8440  -14.8710   20.1100 O   0  0  0  0  0  0  0  0  0  0  0  0
  -29.8920  -16.0010   20.4180 N   0  0  0  0  0  0  0  0  0  0  0  0
  -28.9050  -15.9080   20.5970 H   0  0  0  0  0  0  0  0  0  0  0  0
  -25.2590  -13.8990   20.5300 C   0  0  0  0  0  0  0  0  0  0  0  0
  -24.1960  -13.1170   20.8970 C   0  0  0  0  0  0  0  0  0  0  0  0
  -24.6650  -11.7680   20.8610 C   0  0  0  0  0  0  0  0  0  0  0  0
  -26.3040  -13.0250   20.2880 N   0  0  0  0  0  0  0  0  0  0  0  0
  -25.9580  -11.7380   20.5520 N   0  0  0  0  0  0  0  0  0  0  0  0
  -23.9430  -10.5020   21.0440 C   0  0  0  0  0  0  0  0  0  0  0  0
  -24.3680   -9.5380   21.9850 C   0  0  0  0  0  3  0  0  0  0  0  0
  -23.6440   -8.3380   22.1560 C   0  0  0  0  0  3  0  0  0  0  0  0
  -22.4820   -8.0930   21.3860 C   0  0  0  0  0  0  0  0  0  0  0  0
  -22.0770   -9.0470   20.4360 C   0  0  0  0  0  3  0  0  0  0  0  0
  -22.8010  -10.2370   20.2630 C   0  0  0  0  0  3  0  0  0  0  0  0
  -21.7310   -6.9450   21.4670 O   0  0  0  0  0  0  0  0  0  0  0  0
  -21.6600   -6.2120   22.6240 C   0  0  0  0  0  0  0  0  0  0  0  0
  -21.1880   -6.7700   23.8320 C   0  0  0  0  0  3  0  0  0  0  0  0
  -21.0650   -5.9630   24.9800 C   0  0  0  0  0  3  0  0  0  0  0  0
  -21.4030   -4.5980   24.9210 C   0  0  0  0  0  0  0  0  0  0  0  0
  -21.8680   -4.0390   23.7180 C   0  0  0  0  0  3  0  0  0  0  0  0
  -21.9930   -4.8440   22.5710 C   0  0  0  0  0  0  0  0  0  0  0  0
  -22.4210   -4.2950   21.4090 F   0  0  0  0  0  0  0  0  0  0  0  0
  -21.2780   -3.8190   26.0210 F   0  0  0  0  0  0  0  0  0  0  0  0
  -22.7970  -13.5880   21.1680 C   0  0  0  0  0  0  0  0  0  0  0  0
  -22.0680  -12.8830   22.0260 N   0  0  0  0  0  0  0  0  0  0  0  0
  -22.3590  -14.6170   20.6540 O   0  0  0  0  0  0  0  0  0  0  0  0
  -22.4360  -12.0510   22.4630 H   0  0  0  0  0  0  0  0  0  0  0  0
  -21.1310  -13.1840   22.2510 H   0  0  0  0  0  0  0  0  0  0  0  0
  -25.4150  -15.2720   20.3590 N   0  0  0  0  0  0  0  0  0  0  0  0
  -24.6420  -15.9180   20.4700 H   0  0  0  0  0  0  0  0  0  0  0  0
  -26.2570  -15.7210   20.0220 H   0  0  0  0  0  0  0  0  0  0  0  0
  -31.4850  -18.6650   18.0190 C   0  0  0  0  0  1  0  0  0  0  0  0
  -30.7770  -17.4030   18.5420 C   0  0  0  0  0  2  0  0  0  0  0  0
  1  5  1  0
  2  4  1  0
  3  1  1  0
  3  2  2  0
  5  4  1  0
  5  6  1  0
  7  8  1  0
  7  6  2  0
  9  8  1  0
 10 21  2  0
 11  9  1  0
 11 16  1  0
 12 20  1  0
 12 22  1  0
 13 19  1  0
 13 15  1  0
 14 20  1  0
 15 16  2  0
 15 14  1  0
 17 11  2  0
 18 17  1  0
 18 13  2  0
 19 12  1  0
 20 10  1  0
 22 24  2  0
 23 22  1  0
 25 23  1  0
 26 35  2  0
 26 31  1  0
 27 23  1  0
 27 31  1  0
 28 27  1  0
 29 30  1  0
 29 28  1  0
 30 26  1  0
 31 32  2  0
 32 33  1  0
 34 33  2  0
 35 34  1  0
 36 10  1  0
 36 37  1  0
 36 46  1  0
 37 40  1  0
 38 42  1  0
 38 37  1  0
 39 38  2  0
 42 41  1  0
 44 42  1  0
 44 45  1  0
 44 43  1  0
 46 49  1  1
 46 47  1  0
 48 46  1  0
 50 90  1  0
 50  2  1  0
 50 59  1  0
 51 59  1  0
 52 57  1  0
 53 54  1  0
 53 52  1  0
 55 54  1  0
 55 64  1  0
 55 56  1  0
 57 51  1  0
 57 56  1  0
 58 51  2  0
 59 60  1  0
 61 62  2  0
 62 81  1  0
 63 62  1  0
 63 66  1  0
 64 61  1  0
 64 65  1  0
 65 63  2  0
 66 67  1  0
 67 68  2  0
 69 72  1  0
 69 68  1  0
 70 69  2  0
 71 70  1  0
 71 66  2  0
 72 73  1  0
 73 74  1  0
 74 75  2  0
 76 75  1  0
 76 80  1  0
 77 76  2  0
 78 73  2  0
 78 77  1  0
 79 78  1  0
 81 82  1  0
 82 85  1  0
 82 84  1  0
 83 81  2  0
 86 87  1  0
 86 61  1  0
 88 86  1  0
 89 90  1  0
M  ISO  4   8 101   9 101  51 100  59 100
M  END
>  <TORSDO>  (88) 
F 21

>  <SCORE>  (88) 
-13.573

>  <name>  (88) 
94

>  <ligand_id>  (88) 
94

>  <original_smiles>  (88) 
[H]c1c([H])c([H])c2c(c1[H])C([H])([H])C([H])([H])C([H])([H])C2([H])N([H])C(=O)C1([H])N(C(=O)C([H])(N([H])C(=O)C([H])(N([H])C([H])([H])[H])C([H])([H])[H])C(C([H])([H])[H])(C([H])([H])[H])C([H])([H])[H])C([H])([H])c2c([H])c(OC([H])([H])C([H])([H])C([H])([H])n3nc(C([H])(N([H])C(=O)N4C([H])([H])C([H])([H])C([H])([H])C([H])(n5nc(-c6c([H])c([H])c(Oc7c([H])c([H])c(F)c([H])c7F)c([H])c6[H])c(C(=O)N([H])[H])c5N([H])[H])C4([H])[H])C([H])([H])C([H])([H])[H])nc3[H])c([H])c([H])c2C1([H])[H]

>  <smiles>  (88) 
[H]c1c([H])c([H])c2c(c1[H])C([H])([H])C([H])([H])C([H])([H])C2([H])N([H])C(=O)C1([H])N(C(=O)C([H])(N([H])C(=O)C([H])(N([H])C([H])([H])[H])C([H])([H])[H])C(C([H])([H])[H])(C([H])([H])[H])C([H])([H])[H])C([H])([H])c2c([H])c(OC([H])([H])C([H])([H])C([H])([H])n3nc(C([H])(N([H])C(=O)N4C([H])([H])C([H])([H])C([H])([H])C([H])(n5nc(-c6c([H])c([H])c(Oc7c([H])c([H])c(F)c([H])c7F)c([H])c6[H])c(C(=O)N([H])[H])c5N([H])[H])C4([H])[H])C([H])([H])C([H])([H])[H])nc3[H])c([H])c([H])c2C1([H])[H]

$$$$
95:0:0
     RDKit          3D

 92100  0  0  1  0  0  0  0  0999 V2000
  -28.1480  -20.5340   20.2180 C   0  0  0  0  0  3  0  0  0  0  0  0
  -29.3460  -19.7910   19.9800 C   0  0  0  0  0  0  0  0  0  0  0  0
  -30.4870  -21.8520   20.1520 C   0  0  0  0  0  0  0  0  0  0  0  0
  -29.2750  -22.5900   20.3560 C   0  0  0  0  0  0  0  0  0  0  0  0
  -31.8480  -22.5190   20.1970 C   0  0  0  0  0  1  0  0  0  0  0  0
  -28.1070  -21.8920   20.4040 N   0  0  0  0  0  0  0  0  0  0  0  0
  -30.5150  -20.4930   19.9630 N   0  0  0  0  0  0  0  0  0  0  0  0
  -29.9990  -18.1010   18.1920 C   0  0  0  0  0  1  0  0  0  0  0  0
  -27.9320  -17.6950   19.4780 C   0  0  0  0  0  1  0  0  0  0  0  0
  -29.3730  -18.2410   19.6000 C   0  0  2  0  0  0  0  0  0  0  0  0
  -30.1740  -17.2720   20.5910 C   0  0  0  0  0  2  0  0  0  0  0  0
  -30.6320  -14.6890   20.3720 C   0  0  0  0  0  0  0  0  0  0  0  0
  -30.3930  -12.4470   19.3590 C   0  0  0  0  0  2  0  0  0  0  0  0
  -29.4440  -12.5400   18.1450 C   0  0  0  0  0  2  0  0  0  0  0  0
  -27.9760  -12.3920   18.5840 C   0  0  0  0  0  2  0  0  0  0  0  0
  -27.6100  -13.2820   19.7980 C   0  0  0  0  0  3  0  0  0  0  0  0
  -28.6730  -13.1820   20.9150 C   0  0  0  0  0  2  0  0  0  0  0  0
  -29.9800  -13.4850   20.3160 N   0  0  0  0  0  0  0  0  0  0  0  0
  -31.8260  -14.7930   20.0880 O   0  0  0  0  0  0  0  0  0  0  0  0
  -29.8400  -15.7950   20.5290 N   0  0  0  0  0  0  0  0  0  0  0  0
  -28.8640  -15.5740   20.6310 H   0  0  0  0  0  0  0  0  0  0  0  0
  -25.2170  -13.8890   20.5120 C   0  0  0  0  0  0  0  0  0  0  0  0
  -24.1450  -13.1190   20.8800 C   0  0  0  0  0  0  0  0  0  0  0  0
  -24.6070  -11.7690   20.8590 C   0  0  0  0  0  0  0  0  0  0  0  0
  -26.2610  -13.0050   20.2870 N   0  0  0  0  0  0  0  0  0  0  0  0
  -25.8980  -11.7260   20.5560 N   0  0  0  0  0  0  0  0  0  0  0  0
  -23.8750  -10.5070   21.0500 C   0  0  0  0  0  0  0  0  0  0  0  0
  -24.3030   -9.5360   21.9810 C   0  0  0  0  0  3  0  0  0  0  0  0
  -23.5680   -8.3440   22.1600 C   0  0  0  0  0  3  0  0  0  0  0  0
  -22.3930   -8.1120   21.4070 C   0  0  0  0  0  0  0  0  0  0  0  0
  -21.9850   -9.0710   20.4630 C   0  0  0  0  0  3  0  0  0  0  0  0
  -22.7210  -10.2550   20.2830 C   0  0  0  0  0  3  0  0  0  0  0  0
  -21.6350   -6.9690   21.4940 O   0  0  0  0  0  0  0  0  0  0  0  0
  -21.5840   -6.2250   22.6450 C   0  0  0  0  0  0  0  0  0  0  0  0
  -21.1660   -6.7820   23.8730 C   0  0  0  0  0  3  0  0  0  0  0  0
  -21.0630   -5.9640   25.0160 C   0  0  0  0  0  3  0  0  0  0  0  0
  -21.3690   -4.5920   24.9320 C   0  0  0  0  0  0  0  0  0  0  0  0
  -21.7800   -4.0350   23.7080 C   0  0  0  0  0  3  0  0  0  0  0  0
  -21.8840   -4.8500   22.5670 C   0  0  0  0  0  0  0  0  0  0  0  0
  -22.2610   -4.3060   21.3850 F   0  0  0  0  0  0  0  0  0  0  0  0
  -21.2620   -3.8040   26.0280 F   0  0  0  0  0  0  0  0  0  0  0  0
  -22.7500  -13.6040   21.1410 C   0  0  0  0  0  0  0  0  0  0  0  0
  -22.0130  -12.9170   22.0080 N   0  0  0  0  0  0  0  0  0  0  0  0
  -22.3160  -14.6230   20.6050 O   0  0  0  0  0  0  0  0  0  0  0  0
  -22.3760  -12.0930   22.4630 H   0  0  0  0  0  0  0  0  0  0  0  0
  -21.0760  -13.2250   22.2260 H   0  0  0  0  0  0  0  0  0  0  0  0
  -25.3810  -15.2590   20.3280 N   0  0  0  0  0  0  0  0  0  0  0  0
  -24.6050  -15.9050   20.4240 H   0  0  0  0  0  0  0  0  0  0  0  0
  -26.2140  -15.6950   19.9590 H   0  0  0  0  0  0  0  0  0  0  0  0
  -29.2380  -24.1300   20.7010 C   0  0  0  0  0  3  0  0  0  0  0  0
  -28.2660  -25.1040   19.9270 C   0  0  0  0  0  3  0  0  0  0  0  0
  -28.3590  -26.5410   20.2750 O   0  0  0  0  0  0  0  0  0  0  0  0
  -24.6110  -31.9090   23.2740 C   0  0  0  0  0  0  0  0  0  0  0  0
  -27.2200  -27.3580   20.2150 C   0  0  0  0  0  0  0  0  0  0  0  0
  -23.4060  -30.5180   21.6290 C   0  0  0  0  0  3  0  0  0  0  0  0
  -24.8510  -28.9600   20.2070 C   0  0  0  0  0  0  0  0  0  0  0  0
  -25.9460  -30.8250   21.4560 C   0  0  0  0  0  2  0  0  0  0  0  0
  -26.0200  -29.4480   20.8090 C   0  0  0  0  0  0  0  0  0  0  0  0
  -27.2010  -28.6540   20.8110 C   0  0  0  0  0  3  0  0  0  0  0  0
  -26.0300  -26.9250   19.5810 C   0  0  0  0  0  3  0  0  0  0  0  0
  -24.8580  -27.7030   19.5860 C   0  0  0  0  0  3  0  0  0  0  0  0
  -23.6210  -29.8390   20.2500 C   0  0  0  0  0  2  0  0  0  0  0  0
  -24.6730  -31.1000   22.1770 N   0  0  0  0  0  0  0  0  0  0  0  0
  -23.5270  -32.1940   23.8050 O   0  0  0  0  0  0  0  0  0  0  0  0
  -22.7360  -29.5040   22.5880 C   0  0  0  0  0  0  0  0  0  0  0  0
  -21.4090  -29.3320   22.4560 N   0  0  0  0  0  0  0  0  0  0  0  0
  -23.4080  -28.8720   23.4080 O   0  0  0  0  0  0  0  0  0  0  0  0
  -20.9270  -29.8930   21.7670 H   0  0  0  0  0  0  0  0  0  0  0  0
  -18.0220  -28.1640   22.9480 C   0  0  0  0  0  0  0  0  0  0  0  0
  -20.5820  -28.4020   23.2240 C   0  0  0  0  0  3  0  0  0  0  0  0
  -20.6740  -26.9710   22.6490 C   0  0  0  0  0  2  0  0  0  0  0  0
  -19.5720  -26.6570   21.6320 C   0  0  0  0  0  2  0  0  0  0  0  0
  -18.1900  -26.8130   22.2720 C   0  0  0  0  0  2  0  0  0  0  0  0
  -19.1460  -28.9170   23.3800 C   0  0  0  0  0  0  0  0  0  0  0  0
  -18.9360  -30.1810   23.9720 C   0  0  0  0  0  3  0  0  0  0  0  0
  -17.6350  -30.6930   24.1350 C   0  0  0  0  0  3  0  0  0  0  0  0
  -16.5250  -29.9370   23.7180 C   0  0  0  0  0  3  0  0  0  0  0  0
  -16.7200  -28.6750   23.1300 C   0  0  0  0  0  3  0  0  0  0  0  0
  -25.8960  -32.5350   23.8990 C   0  0  0  0  0  3  0  0  0  0  0  0
  -26.4010  -31.7670   25.1830 C   0  0  1  0  0  0  0  0  0  0  0  0
  -25.3000  -31.5430   26.2470 C   0  0  0  0  0  1  0  0  0  0  0  0
  -26.9730  -30.3810   24.8020 C   0  0  0  0  0  1  0  0  0  0  0  0
  -27.5540  -32.5550   25.8470 C   0  0  0  0  0  1  0  0  0  0  0  0
  -25.5960  -33.9380   24.2200 N   0  0  0  0  0  0  0  0  0  0  0  0
  -25.9360  -34.9840   23.4570 C   0  0  0  0  0  0  0  0  0  0  0  0
  -26.6070  -34.8700   22.4260 O   0  0  0  0  0  0  0  0  0  0  0  0
  -25.0010  -34.1000   25.0210 H   0  0  0  0  0  0  0  0  0  0  0  0
  -24.2200  -36.7870   23.0900 C   0  0  0  0  0  1  0  0  0  0  0  0
  -25.4590  -36.3780   23.9040 C   0  0  0  0  0  3  0  0  0  0  0  0
  -27.5990  -37.2540   24.7310 C   0  0  0  0  0  1  0  0  0  0  0  0
  -26.5000  -37.4230   23.7870 N   0  0  0  0  0  0  0  0  0  0  0  0
  -26.0990  -38.3470   23.9270 H   0  0  0  0  0  0  0  0  0  0  0  0
  1  6  1  0
  2  1  2  0
  3  5  1  0
  3  4  1  0
  4  6  2  0
  4 50  1  0
  7  2  1  0
  7  3  2  0
 10  8  1  6
  9 10  1  0
 10  2  1  0
 10 11  1  0
 12 20  1  0
 13 18  1  0
 14 15  1  0
 14 13  1  0
 16 15  1  0
 16 25  1  0
 16 17  1  0
 18 12  1  0
 18 17  1  0
 19 12  2  0
 20 11  1  0
 20 21  1  0
 22 23  2  0
 23 42  1  0
 24 23  1  0
 24 27  1  0
 25 22  1  0
 25 26  1  0
 26 24  2  0
 27 28  1  0
 28 29  2  0
 30 33  1  0
 30 29  1  0
 31 30  2  0
 32 31  1  0
 32 27  2  0
 33 34  1  0
 34 35  1  0
 35 36  2  0
 37 36  1  0
 37 41  1  0
 38 37  2  0
 39 34  2  0
 39 38  1  0
 40 39  1  0
 42 43  1  0
 43 46  1  0
 43 45  1  0
 44 42  2  0
 47 48  1  0
 47 22  1  0
 49 47  1  0
 51 52  1  0
 51 50  2  0
 53 64  2  0
 54 52  1  0
 54 59  1  0
 55 63  1  0
 55 65  1  0
 56 62  1  0
 56 58  1  0
 57 63  1  0
 58 59  2  0
 58 57  1  0
 60 61  1  0
 60 54  2  0
 61 56  2  0
 62 55  1  0
 63 53  1  0
 65 67  2  0
 66 65  1  0
 68 66  1  0
 69 78  2  0
 69 74  1  0
 70 66  1  0
 70 74  1  0
 71 70  1  0
 72 73  1  0
 72 71  1  0
 73 69  1  0
 74 75  2  0
 75 76  1  0
 77 76  2  0
 78 77  1  0
 79 53  1  0
 79 84  1  0
 79 80  1  0
 80 83  1  1
 80 81  1  0
 82 80  1  0
 84 87  1  0
 85 89  1  0
 85 84  1  0
 86 85  2  0
 89 88  1  0
 91 89  1  0
 91 92  1  0
 91 90  1  0
M  ISO  4  12 100  20 100  51 101  52 101
M  END
>  <TORSDO>  (89) 
F 20

>  <SCORE>  (89) 
-14.070

>  <name>  (89) 
95

>  <ligand_id>  (89) 
95

>  <original_smiles>  (89) 
[H]c1nc(C([H])([H])C([H])([H])Oc2c([H])c([H])c3c(c2[H])C([H])([H])N(C(=O)C([H])(N([H])C(=O)C([H])(N([H])C([H])([H])[H])C([H])([H])[H])C(C([H])([H])[H])(C([H])([H])[H])C([H])([H])[H])C([H])(C(=O)N([H])C2([H])c4c([H])c([H])c([H])c([H])c4C([H])([H])C([H])([H])C2([H])[H])C3([H])[H])c(C([H])([H])[H])nc1C(C([H])([H])[H])(C([H])([H])[H])C([H])([H])N([H])C(=O)N1C([H])([H])C([H])([H])C([H])([H])C([H])(n2nc(-c3c([H])c([H])c(Oc4c([H])c([H])c(F)c([H])c4F)c([H])c3[H])c(C(=O)N([H])[H])c2N([H])[H])C1([H])[H]

>  <smiles>  (89) 
[H]c1nc(C([H])([H])C([H])([H])Oc2c([H])c([H])c3c(c2[H])C([H])([H])N(C(=O)C([H])(N([H])C(=O)C([H])(N([H])C([H])([H])[H])C([H])([H])[H])C(C([H])([H])[H])(C([H])([H])[H])C([H])([H])[H])C([H])(C(=O)N([H])C2([H])c4c([H])c([H])c([H])c([H])c4C([H])([H])C([H])([H])C2([H])[H])C3([H])[H])c(C([H])([H])[H])nc1C(C([H])([H])[H])(C([H])([H])[H])C([H])([H])N([H])C(=O)N1C([H])([H])C([H])([H])C([H])([H])C([H])(n2nc(-c3c([H])c([H])c(Oc4c([H])c([H])c(F)c([H])c4F)c([H])c3[H])c(C(=O)N([H])[H])c2N([H])[H])C1([H])[H]

$$$$
97:0:0
     RDKit          3D

 99107  0  0  1  0  0  0  0  0999 V2000
  -28.9840  -21.7010   19.4890 C   0  0  0  0  0  3  0  0  0  0  0  0
  -27.9450  -21.0210   20.1590 C   0  0  0  0  0  0  0  0  0  0  0  0
  -28.7930  -23.0750   19.2330 C   0  0  0  0  0  0  0  0  0  0  0  0
  -26.7530  -22.9670   20.2910 C   0  0  0  0  0  0  0  0  0  0  0  0
  -25.5070  -23.6870   20.7560 C   0  0  0  0  0  1  0  0  0  0  0  0
  -26.8390  -21.6740   20.5610 N   0  0  0  0  0  0  0  0  0  0  0  0
  -27.6580  -23.6810   19.6410 N   0  0  0  0  0  0  0  0  0  0  0  0
  -29.6250  -23.4380   16.9180 C   0  0  0  0  0  1  0  0  0  0  0  0
  -29.3790  -25.4190   18.4330 C   0  0  0  0  0  1  0  0  0  0  0  0
  -29.7750  -23.9180   18.3760 C   0  0  1  0  0  0  0  0  0  0  0  0
  -31.2550  -23.7340   18.8630 C   0  0  0  0  0  2  0  0  0  0  0  0
  -32.0760  -24.9950   19.2820 C   0  0  0  0  0  2  0  0  0  0  0  0
  -32.4110  -26.0120   18.1690 C   0  0  0  0  0  2  0  0  0  0  0  0
  -31.9300  -27.3170   18.5110 O   0  0  0  0  0  0  0  0  0  0  0  0
  -25.7510  -28.1840   21.9100 C   0  0  0  0  0  0  0  0  0  0  0  0
  -30.5870  -27.6160   18.3810 C   0  0  0  0  0  0  0  0  0  0  0  0
  -25.6180  -28.2000   19.4390 C   0  0  0  0  0  3  0  0  0  0  0  0
  -27.8490  -28.3270   18.2140 C   0  0  0  0  0  0  0  0  0  0  0  0
  -27.7560  -28.9330   20.6380 C   0  0  0  0  0  2  0  0  0  0  0  0
  -28.5280  -28.4390   19.4320 C   0  0  0  0  0  0  0  0  0  0  0  0
  -29.8930  -28.0940   19.5160 C   0  0  0  0  0  3  0  0  0  0  0  0
  -29.8820  -27.5110   17.1570 C   0  0  0  0  0  3  0  0  0  0  0  0
  -28.5210  -27.8620   17.0720 C   0  0  0  0  0  3  0  0  0  0  0  0
  -26.3910  -28.7240   18.2010 C   0  0  0  0  0  2  0  0  0  0  0  0
  -26.3720  -28.4100   20.7180 N   0  0  0  0  0  0  0  0  0  0  0  0
  -24.5600  -27.8460   21.9570 O   0  0  0  0  0  0  0  0  0  0  0  0
  -25.2360  -26.7220   19.1920 C   0  0  0  0  0  0  0  0  0  0  0  0
  -24.2870  -26.5020   18.2670 N   0  0  0  0  0  0  0  0  0  0  0  0
  -25.8030  -25.8120   19.8010 O   0  0  0  0  0  0  0  0  0  0  0  0
  -23.8720  -27.3050   17.8160 H   0  0  0  0  0  0  0  0  0  0  0  0
  -21.9830  -24.8550   16.0250 C   0  0  0  0  0  0  0  0  0  0  0  0
  -23.7920  -25.1950   17.8390 C   0  0  0  0  0  3  0  0  0  0  0  0
  -24.7690  -24.5310   16.8420 C   0  0  0  0  0  2  0  0  0  0  0  0
  -24.4280  -24.8250   15.3780 C   0  0  0  0  0  2  0  0  0  0  0  0
  -23.0180  -24.3240   15.0490 C   0  0  0  0  0  2  0  0  0  0  0  0
  -22.3480  -25.2820   17.3290 C   0  0  0  0  0  0  0  0  0  0  0  0
  -21.3510  -25.8040   18.1820 C   0  0  0  0  0  3  0  0  0  0  0  0
  -20.0140  -25.9010   17.7530 C   0  0  0  0  0  3  0  0  0  0  0  0
  -19.6550  -25.4600   16.4680 C   0  0  0  0  0  3  0  0  0  0  0  0
  -20.6370  -24.9360   15.6070 C   0  0  0  0  0  3  0  0  0  0  0  0
  -26.4980  -28.3620   23.2680 C   0  0  0  0  0  3  0  0  0  0  0  0
  -26.8090  -26.9930   23.9890 C   0  0  1  0  0  0  0  0  0  0  0  0
  -25.5840  -26.0550   24.0970 C   0  0  0  0  0  1  0  0  0  0  0  0
  -27.9280  -26.2270   23.2460 C   0  0  0  0  0  1  0  0  0  0  0  0
  -27.3290  -27.2590   25.4220 C   0  0  0  0  0  1  0  0  0  0  0  0
  -25.6670  -29.2190   24.1210 N   0  0  0  0  0  0  0  0  0  0  0  0
  -25.8920  -30.5210   24.3430 C   0  0  0  0  0  0  0  0  0  0  0  0
  -26.8780  -31.1150   23.8980 O   0  0  0  0  0  0  0  0  0  0  0  0
  -24.8150  -28.8100   24.4760 H   0  0  0  0  0  0  0  0  0  0  0  0
  -23.9420  -32.1080   24.2710 C   0  0  0  0  0  1  0  0  0  0  0  0
  -24.8590  -31.2870   25.1920 C   0  0  0  0  0  3  0  0  0  0  0  0
  -26.1320  -31.4440   27.2860 C   0  0  0  0  0  1  0  0  0  0  0  0
  -25.4700  -32.1730   26.2070 N   0  0  0  0  0  0  0  0  0  0  0  0
  -24.7700  -32.7810   26.6220 H   0  0  0  0  0  0  0  0  0  0  0  0
  -27.9800  -19.5420   20.5430 C   0  0  0  0  0  2  0  0  0  0  0  0
  -28.8170  -18.6270   19.6180 C   0  0  0  0  0  2  0  0  0  0  0  0
  -29.8650  -17.5690   21.6480 C   0  0  0  0  0  1  0  0  0  0  0  0
  -29.3950  -17.3770   20.2430 N   0  0  2  0  0  4  0  0  0  0  0  0
  -28.6190  -16.7370   20.3210 H   0  0  0  0  0  0  0  0  0  0  0  0
  -29.7240  -15.9590   18.1640 C   0  0  0  0  0  1  0  0  0  0  0  0
  -30.4110  -16.6840   19.3640 C   0  0  2  0  0  0  0  0  0  0  0  0
  -31.2480  -15.5390   20.0720 C   0  0  0  0  0  0  0  0  0  0  0  0
  -31.5410  -13.1430   20.5600 C   0  0  0  0  0  2  0  0  0  0  0  0
  -30.9390  -12.3080   19.4070 C   0  0  0  0  0  2  0  0  0  0  0  0
  -29.4540  -12.0040   19.6840 C   0  0  0  0  0  2  0  0  0  0  0  0
  -28.6560  -13.2670   20.1050 C   0  0  0  0  0  3  0  0  0  0  0  0
  -29.4160  -14.0880   21.1700 C   0  0  0  0  0  2  0  0  0  0  0  0
  -30.7600  -14.3960   20.6560 N   0  0  0  0  0  0  0  0  0  0  0  0
  -32.4570  -15.6280   19.8690 O   0  0  0  0  0  0  0  0  0  0  0  0
  -26.2130  -13.7600   20.7310 C   0  0  0  0  0  0  0  0  0  0  0  0
  -25.1730  -12.9440   21.0780 C   0  0  0  0  0  0  0  0  0  0  0  0
  -25.6980  -11.6150   21.0820 C   0  0  0  0  0  0  0  0  0  0  0  0
  -27.3040  -12.9290   20.5410 N   0  0  0  0  0  0  0  0  0  0  0  0
  -27.0000  -11.6350   20.8190 N   0  0  0  0  0  0  0  0  0  0  0  0
  -25.0260  -10.3240   21.2660 C   0  0  0  0  0  0  0  0  0  0  0  0
  -25.0360   -9.6560   22.5110 C   0  0  0  0  0  3  0  0  0  0  0  0
  -24.3680   -8.4230   22.6670 C   0  0  0  0  0  3  0  0  0  0  0  0
  -23.6780   -7.8450   21.5760 C   0  0  0  0  0  0  0  0  0  0  0  0
  -23.6930   -8.5010   20.3310 C   0  0  0  0  0  3  0  0  0  0  0  0
  -24.3630   -9.7260   20.1760 C   0  0  0  0  0  3  0  0  0  0  0  0
  -23.0220   -6.6400   21.6300 O   0  0  0  0  0  0  0  0  0  0  0  0
  -22.1380   -6.3450   22.6370 C   0  0  0  0  0  0  0  0  0  0  0  0
  -20.9670   -7.1070   22.8470 C   0  0  0  0  0  3  0  0  0  0  0  0
  -20.0490   -6.7270   23.8470 C   0  0  0  0  0  3  0  0  0  0  0  0
  -20.2940   -5.5820   24.6290 C   0  0  0  0  0  0  0  0  0  0  0  0
  -21.4570   -4.8210   24.4190 C   0  0  0  0  0  3  0  0  0  0  0  0
  -22.3730   -5.1990   23.4230 C   0  0  0  0  0  0  0  0  0  0  0  0
  -23.4810   -4.4490   23.2110 F   0  0  0  0  0  0  0  0  0  0  0  0
  -19.4090   -5.2120   25.5840 F   0  0  0  0  0  0  0  0  0  0  0  0
  -23.7430  -13.3550   21.2860 C   0  0  0  0  0  0  0  0  0  0  0  0
  -23.0370  -12.6900   22.1930 N   0  0  0  0  0  0  0  0  0  0  0  0
  -23.2600  -14.3070   20.6740 O   0  0  0  0  0  0  0  0  0  0  0  0
  -23.4430  -11.9250   22.7110 H   0  0  0  0  0  0  0  0  0  0  0  0
  -22.0780  -12.9500   22.3690 H   0  0  0  0  0  0  0  0  0  0  0  0
  -26.3210  -15.1350   20.5370 N   0  0  0  0  0  0  0  0  0  0  0  0
  -25.4440  -15.6460   20.5130 H   0  0  0  0  0  0  0  0  0  0  0  0
  -26.9650  -15.4770   19.8380 H   0  0  0  0  0  0  0  0  0  0  0  0
  -31.9990  -17.6110   17.3820 C   0  0  0  0  0  1  0  0  0  0  0  0
  -31.3920  -17.7950   18.7930 C   0  0  0  0  0  2  0  0  0  0  0  0
  1  2  2  0
  2 55  1  0
  2  6  1  0
  3  1  1  0
  3  7  2  0
  4  6  2  0
  4  5  1  0
  7  4  1  0
 10  8  1  6
 10  9  1  0
 10 11  1  0
 10  3  1  0
 11 12  1  0
 13 14  1  0
 13 12  1  0
 15 26  2  0
 16 14  1  0
 16 21  1  0
 17 27  1  0
 17 25  1  0
 18 20  1  0
 19 25  1  0
 20 21  2  0
 20 19  1  0
 22 16  2  0
 23 22  1  0
 23 18  2  0
 24 18  1  0
 24 17  1  0
 25 15  1  0
 27 29  2  0
 28 27  1  0
 30 28  1  0
 31 36  1  0
 32 28  1  0
 33 32  1  0
 34 33  1  0
 35 34  1  0
 35 31  1  0
 36 32  1  0
 36 37  2  0
 38 37  1  0
 39 38  2  0
 40 31  2  0
 40 39  1  0
 41 15  1  0
 41 42  1  0
 41 46  1  0
 42 43  1  1
 42 45  1  0
 44 42  1  0
 46 47  1  0
 46 49  1  0
 47 51  1  0
 48 47  2  0
 51 50  1  0
 51 53  1  0
 53 54  1  0
 53 52  1  0
 56 58  1  0
 56 55  1  0
 58 59  1  1
 58 57  1  0
 61 60  1  6
 61 62  1  0
 61 58  1  0
 62 68  1  0
 63 68  1  0
 64 65  1  0
 64 63  1  0
 66 65  1  0
 66 73  1  0
 66 67  1  0
 68 67  1  0
 69 62  2  0
 70 71  2  0
 71 72  1  0
 71 90  1  0
 72 75  1  0
 73 70  1  0
 73 74  1  0
 74 72  2  0
 75 76  1  0
 76 77  2  0
 78 81  1  0
 78 77  1  0
 79 78  2  0
 80 79  1  0
 80 75  2  0
 81 82  1  0
 82 83  2  0
 82 87  1  0
 83 84  1  0
 84 85  2  0
 85 89  1  0
 86 85  1  0
 87 86  2  0
 88 87  1  0
 90 91  1  0
 91 94  1  0
 91 93  1  0
 92 90  2  0
 95 70  1  0
 96 95  1  0
 97 95  1  0
 98 99  1  0
 99 61  1  0
M  ISO  4  13 101  14 101  61 100  62 100
M  END
>  <TORSDO>  (90) 
F 25

>  <SCORE>  (90) 
-3.664

>  <name>  (90) 
97

>  <ligand_id>  (90) 
97

>  <original_smiles>  (90) 
[H]c1c(C([H])([H])C([H])([H])[N+]([H])(C([H])([H])[H])C(C(=O)N2C([H])([H])C([H])([H])C([H])([H])C([H])(n3nc(-c4c([H])c([H])c(Oc5c([H])c([H])c(F)c([H])c5F)c([H])c4[H])c(C(=O)N([H])[H])c3N([H])[H])C2([H])[H])(C([H])([H])[H])C([H])([H])C([H])([H])[H])nc(C([H])([H])[H])nc1C(C([H])([H])[H])(C([H])([H])[H])C([H])([H])C([H])([H])C([H])([H])Oc1c([H])c([H])c2c(c1[H])C([H])([H])N(C(=O)C([H])(N([H])C(=O)C([H])(N([H])C([H])([H])[H])C([H])([H])[H])C(C([H])([H])[H])(C([H])([H])[H])C([H])([H])[H])C([H])(C(=O)N([H])C1([H])c3c([H])c([H])c([H])c([H])c3C([H])([H])C([H])([H])C1([H])[H])C2([H])[H]

>  <smiles>  (90) 
[H]c1c(C([H])([H])C([H])([H])[N+]([H])(C([H])([H])[H])C(C(=O)N2C([H])([H])C([H])([H])C([H])([H])C([H])(n3nc(-c4c([H])c([H])c(Oc5c([H])c([H])c(F)c([H])c5F)c([H])c4[H])c(C(=O)N([H])[H])c3N([H])[H])C2([H])[H])(C([H])([H])[H])C([H])([H])C([H])([H])[H])nc(C([H])([H])[H])nc1C(C([H])([H])[H])(C([H])([H])[H])C([H])([H])C([H])([H])C([H])([H])Oc1c([H])c([H])c2c(c1[H])C([H])([H])N(C(=O)C([H])(N([H])C(=O)C([H])(N([H])C([H])([H])[H])C([H])([H])[H])C(C([H])([H])[H])(C([H])([H])[H])C([H])([H])[H])C([H])(C(=O)N([H])C1([H])c3c([H])c([H])c([H])c([H])c3C([H])([H])C([H])([H])C1([H])[H])C2([H])[H]

$$$$
