0:0:0
     RDKit          3D

 90 98  0  0  1  0  0  0  0  0999 V2000
  -31.1210  -22.5270   20.3830 C   0  0  0  0  0  2  0  0  0  0  0  0
  -29.0320  -23.3010   20.0980 C   0  0  0  0  0  0  0  0  0  0  0  0
  -29.5670  -20.9210   20.1280 C   0  0  0  0  0  0  0  0  0  0  0  0
  -30.3160  -23.5870   20.2710 N   0  0  0  0  0  0  0  0  0  0  0  0
  -30.8390  -21.2210   20.3370 N   0  0  0  0  0  0  0  0  0  0  0  0
  -28.6220  -21.9570   20.0430 N   0  0  0  0  0  2  0  0  0  0  0  0
  -27.8030  -19.1270   19.6380 C   0  0  0  0  0  1  0  0  0  0  0  0
  -29.0300  -19.0500   21.7940 C   0  0  0  0  0  1  0  0  0  0  0  0
  -29.1920  -19.2870   20.2830 C   0  0  2  0  0  0  0  0  0  0  0  0
  -30.2000  -17.9730   19.7690 C   0  0  0  0  0  2  0  0  0  0  0  0
  -30.6020  -15.1730   19.8240 C   0  0  0  0  0  0  0  0  0  0  0  0
  -30.4930  -12.7510   19.0130 C   0  0  0  0  0  2  0  0  0  0  0  0
  -29.4950  -12.5510   17.8470 C   0  0  0  0  0  2  0  0  0  0  0  0
  -28.0650  -12.3230   18.3760 C   0  0  0  0  0  2  0  0  0  0  0  0
  -27.6840  -13.2940   19.5210 C   0  0  0  0  0  3  0  0  0  0  0  0
  -28.8070  -13.4600   20.5680 C   0  0  0  0  0  2  0  0  0  0  0  0
  -30.0110  -13.8950   19.8430 N   0  0  0  0  0  0  0  0  0  0  0  0
  -31.8320  -15.1880   19.6940 O   0  0  0  0  0  0  0  0  0  0  0  0
  -28.9020  -16.3150   18.5260 C   0  0  0  0  0  1  0  0  0  0  0  0
  -29.8270  -16.3990   19.6700 N   0  0  0  0  0  0  0  0  0  0  0  0
  -25.3800  -13.8850   20.4540 C   0  0  0  0  0  0  0  0  0  0  0  0
  -24.3290  -13.1100   20.8570 C   0  0  0  0  0  0  0  0  0  0  0  0
  -24.7730  -11.7570   20.7480 C   0  0  0  0  0  0  0  0  0  0  0  0
  -26.3900  -12.9990   20.1140 N   0  0  0  0  0  0  0  0  0  0  0  0
  -26.0410  -11.7140   20.3600 N   0  0  0  0  0  0  0  0  0  0  0  0
  -24.0470  -10.4970   20.9330 C   0  0  0  0  0  0  0  0  0  0  0  0
  -24.4680   -9.5350   21.8750 C   0  0  0  0  0  3  0  0  0  0  0  0
  -23.7400   -8.3380   22.0500 C   0  0  0  0  0  3  0  0  0  0  0  0
  -22.5790   -8.0970   21.2790 C   0  0  0  0  0  0  0  0  0  0  0  0
  -22.1770   -9.0480   20.3230 C   0  0  0  0  0  3  0  0  0  0  0  0
  -22.9070  -10.2340   20.1480 C   0  0  0  0  0  3  0  0  0  0  0  0
  -21.8220   -6.9530   21.3630 O   0  0  0  0  0  0  0  0  0  0  0  0
  -21.6750   -6.2730   22.5450 C   0  0  0  0  0  0  0  0  0  0  0  0
  -21.1270   -6.8850   23.6930 C   0  0  0  0  0  3  0  0  0  0  0  0
  -20.9320   -6.1300   24.8680 C   0  0  0  0  0  3  0  0  0  0  0  0
  -21.2730   -4.7650   24.8920 C   0  0  0  0  0  0  0  0  0  0  0  0
  -21.8130   -4.1530   23.7480 C   0  0  0  0  0  3  0  0  0  0  0  0
  -22.0120   -4.9050   22.5760 C   0  0  0  0  0  0  0  0  0  0  0  0
  -22.5130   -4.3060   21.4700 F   0  0  0  0  0  0  0  0  0  0  0  0
  -21.0780   -4.0370   26.0160 F   0  0  0  0  0  0  0  0  0  0  0  0
  -22.9570  -13.5920   21.2270 C   0  0  0  0  0  0  0  0  0  0  0  0
  -22.2720  -12.8710   22.1070 N   0  0  0  0  0  0  0  0  0  0  0  0
  -22.5040  -14.6420   20.7740 O   0  0  0  0  0  0  0  0  0  0  0  0
  -22.6520  -12.0200   22.4940 H   0  0  0  0  0  0  0  0  0  0  0  0
  -21.3540  -13.1740   22.3990 H   0  0  0  0  0  0  0  0  0  0  0  0
  -25.5520  -15.2600   20.3190 N   0  0  0  0  0  0  0  0  0  0  0  0
  -24.8090  -15.9220   20.5190 H   0  0  0  0  0  0  0  0  0  0  0  0
  -26.4020  -15.7020   19.9980 H   0  0  0  0  0  0  0  0  0  0  0  0
  -28.0130  -24.6160   19.9170 C   0  0  0  0  0  2  0  0  0  0  0  0
  -28.3200  -26.1540   20.1130 O   0  0  0  0  0  0  0  0  0  0  0  0
  -24.6380  -31.8060   23.1940 C   0  0  0  0  0  0  0  0  0  0  0  0
  -27.2710  -27.1600   20.0640 C   0  0  0  0  0  0  0  0  0  0  0  0
  -23.4630  -30.4490   21.5080 C   0  0  0  0  0  3  0  0  0  0  0  0
  -24.9350  -28.9190   20.0560 C   0  0  0  0  0  0  0  0  0  0  0  0
  -26.0200  -30.7240   21.3780 C   0  0  0  0  0  2  0  0  0  0  0  0
  -26.1090  -29.3470   20.6880 C   0  0  0  0  0  0  0  0  0  0  0  0
  -27.2770  -28.4870   20.6720 C   0  0  0  0  0  3  0  0  0  0  0  0
  -26.0650  -26.8470   19.3940 C   0  0  0  0  0  3  0  0  0  0  0  0
  -24.9280  -27.6840   19.3930 C   0  0  0  0  0  3  0  0  0  0  0  0
  -23.7030  -29.8120   20.1140 C   0  0  0  0  0  2  0  0  0  0  0  0
  -24.7270  -31.0140   22.0810 N   0  0  0  0  0  0  0  0  0  0  0  0
  -23.5450  -32.0710   23.7170 O   0  0  0  0  0  0  0  0  0  0  0  0
  -22.7780  -29.4140   22.4370 C   0  0  0  0  0  0  0  0  0  0  0  0
  -21.4510  -29.2440   22.2980 N   0  0  0  0  0  0  0  0  0  0  0  0
  -23.4450  -28.7640   23.2470 O   0  0  0  0  0  0  0  0  0  0  0  0
  -20.9670  -29.8170   21.6210 H   0  0  0  0  0  0  0  0  0  0  0  0
  -18.0640  -28.0390   22.7680 C   0  0  0  0  0  0  0  0  0  0  0  0
  -20.6260  -28.2840   23.0380 C   0  0  0  0  0  3  0  0  0  0  0  0
  -20.7210  -26.8720   22.4150 C   0  0  0  0  0  2  0  0  0  0  0  0
  -19.6160  -26.5880   21.3920 C   0  0  0  0  0  2  0  0  0  0  0  0
  -18.2350  -26.7150   22.0430 C   0  0  0  0  0  2  0  0  0  0  0  0
  -19.1870  -28.7830   23.2210 C   0  0  0  0  0  0  0  0  0  0  0  0
  -18.9720  -30.0230   23.8620 C   0  0  0  0  0  3  0  0  0  0  0  0
  -17.6690  -30.5200   24.0520 C   0  0  0  0  0  3  0  0  0  0  0  0
  -16.5620  -29.7740   23.6130 C   0  0  0  0  0  3  0  0  0  0  0  0
  -16.7600  -28.5340   22.9780 C   0  0  0  0  0  3  0  0  0  0  0  0
  -25.9040  -32.4350   23.8500 C   0  0  0  0  0  3  0  0  0  0  0  0
  -26.3870  -31.6560   25.1350 C   0  0  1  0  0  0  0  0  0  0  0  0
  -25.2660  -31.4180   26.1750 C   0  0  0  0  0  1  0  0  0  0  0  0
  -26.9750  -30.2780   24.7570 C   0  0  0  0  0  1  0  0  0  0  0  0
  -27.5240  -32.4430   25.8280 C   0  0  0  0  0  1  0  0  0  0  0  0
  -25.5890  -33.8320   24.1880 N   0  0  0  0  0  0  0  0  0  0  0  0
  -25.9120  -34.8930   23.4370 C   0  0  0  0  0  0  0  0  0  0  0  0
  -26.5730  -34.8000   22.4000 O   0  0  0  0  0  0  0  0  0  0  0  0
  -24.9990  -33.9790   24.9940 H   0  0  0  0  0  0  0  0  0  0  0  0
  -24.1620  -36.6770   23.1350 C   0  0  0  0  0  1  0  0  0  0  0  0
  -25.4280  -36.2780   23.9110 C   0  0  0  0  0  3  0  0  0  0  0  0
  -27.5720  -37.1840   24.6930 C   0  0  0  0  0  1  0  0  0  0  0  0
  -26.4480  -37.3400   23.7730 N   0  0  0  0  0  0  0  0  0  0  0  0
  -26.0380  -38.2570   23.9260 H   0  0  0  0  0  0  0  0  0  0  0  0
  2  4  2  0
  3  9  1  0
  3  5  2  0
  4  1  1  0
  5  1  1  0
  6  2  1  0
  6  3  1  0
  9  7  1  6
  9  8  1  0
 10  9  1  0
 11 17  1  0
 12 17  1  0
 13 14  1  0
 13 12  1  0
 15 14  1  0
 15 24  1  0
 15 16  1  0
 17 16  1  0
 18 11  2  0
 19 20  1  0
 20 10  1  0
 20 11  1  0
 21 22  2  0
 22 41  1  0
 23 22  1  0
 23 26  1  0
 24 25  1  0
 24 21  1  0
 25 23  2  0
 26 27  1  0
 27 28  2  0
 29 32  1  0
 29 28  1  0
 30 29  2  0
 31 30  1  0
 31 26  2  0
 32 33  1  0
 33 38  2  0
 33 34  1  0
 34 35  2  0
 35 36  1  0
 36 40  1  0
 37 36  2  0
 38 37  1  0
 39 38  1  0
 41 42  1  0
 42 45  1  0
 42 44  1  0
 43 41  2  0
 46 21  1  0
 46 47  1  0
 48 46  1  0
 49  2  1  0
 49 50  1  0
 51 62  2  0
 52 50  1  0
 52 57  1  0
 53 61  1  0
 53 63  1  0
 54 60  1  0
 54 56  1  0
 55 61  1  0
 56 55  1  0
 57 56  2  0
 58 52  2  0
 59 58  1  0
 59 54  2  0
 60 53  1  0
 61 51  1  0
 63 65  2  0
 64 63  1  0
 66 64  1  0
 67 76  2  0
 67 72  1  0
 68 64  1  0
 68 72  1  0
 69 68  1  0
 70 71  1  0
 70 69  1  0
 71 67  1  0
 72 73  2  0
 73 74  1  0
 75 74  2  0
 76 75  1  0
 77 51  1  0
 77 82  1  0
 77 78  1  0
 78 81  1  1
 78 79  1  0
 80 78  1  0
 82 85  1  0
 83 87  1  0
 83 82  1  0
 84 83  2  0
 87 86  1  0
 89 87  1  0
 89 90  1  0
 89 88  1  0
M  ISO  4  11 100  20 100  49 101  50 101
M  END
>  <TORSDO>  (1) 
F 19

>  <SCORE>  (1) 
-13.049

>  <name>  (1) 
0

>  <ligand_id>  (1) 
0

>  <original_smiles>  (1) 
[H]c1nc(C([H])([H])Oc2c([H])c([H])c3c(c2[H])C([H])([H])N(C(=O)C([H])(N([H])C(=O)C([H])(N([H])C([H])([H])[H])C([H])([H])[H])C(C([H])([H])[H])(C([H])([H])[H])C([H])([H])[H])C([H])(C(=O)N([H])C2([H])c4c([H])c([H])c([H])c([H])c4C([H])([H])C([H])([H])C2([H])[H])C3([H])[H])nc(C(C([H])([H])[H])(C([H])([H])[H])C([H])([H])N(C(=O)N2C([H])([H])C([H])([H])C([H])([H])C([H])(n3nc(-c4c([H])c([H])c(Oc5c([H])c([H])c(F)c([H])c5F)c([H])c4[H])c(C(=O)N([H])[H])c3N([H])[H])C2([H])[H])C([H])([H])[H])n1

>  <smiles>  (1) 
[H]c1nc(C([H])([H])Oc2c([H])c([H])c3c(c2[H])C([H])([H])N(C(=O)C([H])(N([H])C(=O)C([H])(N([H])C([H])([H])[H])C([H])([H])[H])C(C([H])([H])[H])(C([H])([H])[H])C([H])([H])[H])C([H])(C(=O)N([H])C2([H])c4c([H])c([H])c([H])c([H])c4C([H])([H])C([H])([H])C2([H])[H])C3([H])[H])nc(C(C([H])([H])[H])(C([H])([H])[H])C([H])([H])N(C(=O)N2C([H])([H])C([H])([H])C([H])([H])C([H])(n3nc(-c4c([H])c([H])c(Oc5c([H])c([H])c(F)c([H])c5F)c([H])c4[H])c(C(=O)N([H])[H])c3N([H])[H])C2([H])[H])C([H])([H])[H])n1

$$$$
1:0:0
     RDKit          3D

 91 99  0  0  1  0  0  0  0  0999 V2000
  -30.9630  -22.4280   20.6880 C   0  0  0  0  0  3  0  0  0  0  0  0
  -31.2880  -23.7630   20.4340 C   0  0  0  0  0  0  0  0  0  0  0  0
  -29.6120  -22.0730   20.6320 C   0  0  0  0  0  0  0  0  0  0  0  0
  -29.0760  -24.2680   20.1240 C   0  0  0  0  0  0  0  0  0  0  0  0
  -32.7340  -24.2040   20.4120 C   0  0  0  0  0  1  0  0  0  0  0  0
  -30.3430  -24.6850   20.1630 N   0  0  0  0  0  0  0  0  0  0  0  0
  -28.6820  -23.0040   20.3340 N   0  0  0  0  0  0  0  0  0  0  0  0
  -27.9700  -25.2820   19.7750 C   0  0  0  0  0  2  0  0  0  0  0  0
  -28.1370  -26.6660   20.1960 O   0  0  0  0  0  0  0  0  0  0  0  0
  -24.5100  -31.9500   23.3920 C   0  0  0  0  0  0  0  0  0  0  0  0
  -27.0040  -27.4790   20.1730 C   0  0  0  0  0  0  0  0  0  0  0  0
  -23.2620  -30.6380   21.7120 C   0  0  0  0  0  3  0  0  0  0  0  0
  -24.6670  -29.1060   20.2370 C   0  0  0  0  0  0  0  0  0  0  0  0
  -25.8040  -30.9070   21.5310 C   0  0  0  0  0  2  0  0  0  0  0  0
  -25.8440  -29.5500   20.8520 C   0  0  0  0  0  0  0  0  0  0  0  0
  -27.0110  -28.7420   20.8230 C   0  0  0  0  0  3  0  0  0  0  0  0
  -25.8030  -27.0820   19.5290 C   0  0  0  0  0  3  0  0  0  0  0  0
  -24.6420  -27.8710   19.5760 C   0  0  0  0  0  3  0  0  0  0  0  0
  -23.4540  -30.0050   20.3090 C   0  0  0  0  0  2  0  0  0  0  0  0
  -24.5450  -31.1770   22.2700 N   0  0  0  0  0  0  0  0  0  0  0  0
  -23.4350  -32.2430   23.9360 O   0  0  0  0  0  0  0  0  0  0  0  0
  -22.5760  -29.6070   22.6390 C   0  0  0  0  0  0  0  0  0  0  0  0
  -21.2490  -29.4640   22.4960 N   0  0  0  0  0  0  0  0  0  0  0  0
  -23.2370  -28.9390   23.4380 O   0  0  0  0  0  0  0  0  0  0  0  0
  -20.7780  -30.0560   21.8260 H   0  0  0  0  0  0  0  0  0  0  0  0
  -17.8380  -28.3470   22.9340 C   0  0  0  0  0  0  0  0  0  0  0  0
  -20.3990  -28.5310   23.2340 C   0  0  0  0  0  3  0  0  0  0  0  0
  -20.4700  -27.1130   22.6230 C   0  0  0  0  0  2  0  0  0  0  0  0
  -19.3700  -26.8440   21.5910 C   0  0  0  0  0  2  0  0  0  0  0  0
  -17.9860  -27.0100   22.2270 C   0  0  0  0  0  2  0  0  0  0  0  0
  -18.9730  -29.0690   23.3930 C   0  0  0  0  0  0  0  0  0  0  0  0
  -18.7820  -30.3220   24.0120 C   0  0  0  0  0  3  0  0  0  0  0  0
  -17.4910  -30.8550   24.1760 C   0  0  0  0  0  3  0  0  0  0  0  0
  -16.3700  -30.1300   23.7340 C   0  0  0  0  0  3  0  0  0  0  0  0
  -16.5450  -28.8770   23.1190 C   0  0  0  0  0  3  0  0  0  0  0  0
  -25.8140  -32.5220   24.0300 C   0  0  0  0  0  3  0  0  0  0  0  0
  -25.5450  -33.9150   24.4120 N   0  0  0  0  0  0  0  0  0  0  0  0
  -25.9210  -34.9850   23.6990 C   0  0  0  0  0  0  0  0  0  0  0  0
  -26.6010  -34.8990   22.6720 O   0  0  0  0  0  0  0  0  0  0  0  0
  -24.9490  -34.0590   25.2130 H   0  0  0  0  0  0  0  0  0  0  0  0
  -24.2800  -36.8620   23.3610 C   0  0  0  0  0  1  0  0  0  0  0  0
  -25.4700  -36.3700   24.2000 C   0  0  0  0  0  3  0  0  0  0  0  0
  -27.5960  -37.1330   25.1640 C   0  0  0  0  0  1  0  0  0  0  0  0
  -26.5480  -37.3830   24.1770 N   0  0  0  0  0  0  0  0  0  0  0  0
  -26.1720  -38.3130   24.3430 H   0  0  0  0  0  0  0  0  0  0  0  0
  -26.3110  -31.6900   25.2740 C   0  0  1  0  0  0  0  0  0  0  0  0
  -25.2130  -31.4400   26.3340 C   0  0  0  0  0  1  0  0  0  0  0  0
  -26.8570  -30.3140   24.8250 C   0  0  0  0  0  1  0  0  0  0  0  0
  -27.4820  -32.4260   25.9640 C   0  0  0  0  0  1  0  0  0  0  0  0
  -29.1090  -20.7950   20.8060 O   0  0  0  0  0  0  0  0  0  0  0  0
  -29.9050  -19.7580   21.4150 C   0  0  0  0  0  2  0  0  0  0  0  0
  -29.6430  -18.4280   20.6720 C   0  0  0  0  0  3  0  0  0  0  0  0
  -30.2850  -17.1160   21.2650 C   0  0  0  0  0  3  0  0  0  0  0  0
  -30.7690  -14.7200   20.6690 C   0  0  0  0  0  0  0  0  0  0  0  0
  -30.5690  -12.4590   19.6980 C   0  0  0  0  0  2  0  0  0  0  0  0
  -29.6890  -12.4790   18.4300 C   0  0  0  0  0  2  0  0  0  0  0  0
  -28.1870  -12.4060   18.7810 C   0  0  0  0  0  2  0  0  0  0  0  0
  -27.7540  -13.3100   19.9690 C   0  0  0  0  0  3  0  0  0  0  0  0
  -28.7630  -13.2560   21.1330 C   0  0  0  0  0  2  0  0  0  0  0  0
  -30.1010  -13.5320   20.5870 N   0  0  0  0  0  0  0  0  0  0  0  0
  -31.9950  -14.7990   20.5590 O   0  0  0  0  0  0  0  0  0  0  0  0
  -29.5320  -16.0950   19.1440 C   0  0  0  0  0  1  0  0  0  0  0  0
  -30.0110  -15.8460   20.5130 N   0  0  0  0  0  0  0  0  0  0  0  0
  -25.3270  -13.8930   20.5830 C   0  0  0  0  0  0  0  0  0  0  0  0
  -24.2530  -13.1080   20.9060 C   0  0  0  0  0  0  0  0  0  0  0  0
  -24.7360  -11.7620   20.9130 C   0  0  0  0  0  0  0  0  0  0  0  0
  -26.3910  -13.0220   20.4020 N   0  0  0  0  0  0  0  0  0  0  0  0
  -26.0400  -11.7380   20.6700 N   0  0  0  0  0  0  0  0  0  0  0  0
  -24.0230  -10.4900   21.0810 C   0  0  0  0  0  0  0  0  0  0  0  0
  -24.4200   -9.5440   22.0520 C   0  0  0  0  0  3  0  0  0  0  0  0
  -23.7100   -8.3350   22.2060 C   0  0  0  0  0  3  0  0  0  0  0  0
  -22.5880   -8.0630   21.3870 C   0  0  0  0  0  0  0  0  0  0  0  0
  -22.2100   -8.9990   20.4070 C   0  0  0  0  0  3  0  0  0  0  0  0
  -22.9220  -10.1990   20.2520 C   0  0  0  0  0  3  0  0  0  0  0  0
  -21.8530   -6.9050   21.4470 O   0  0  0  0  0  0  0  0  0  0  0  0
  -21.7400   -6.1820   22.6090 C   0  0  0  0  0  0  0  0  0  0  0  0
  -21.1860   -6.7400   23.7810 C   0  0  0  0  0  3  0  0  0  0  0  0
  -21.0250   -5.9430   24.9320 C   0  0  0  0  0  3  0  0  0  0  0  0
  -21.4110   -4.5890   24.9100 C   0  0  0  0  0  0  0  0  0  0  0  0
  -21.9570   -4.0310   23.7420 C   0  0  0  0  0  3  0  0  0  0  0  0
  -22.1200   -4.8260   22.5920 C   0  0  0  0  0  0  0  0  0  0  0  0
  -22.6290   -4.2780   21.4630 F   0  0  0  0  0  0  0  0  0  0  0  0
  -21.2490   -3.8200   26.0130 F   0  0  0  0  0  0  0  0  0  0  0  0
  -22.8340  -13.5630   21.1000 C   0  0  0  0  0  0  0  0  0  0  0  0
  -22.0720  -12.8630   21.9310 N   0  0  0  0  0  0  0  0  0  0  0  0
  -22.4060  -14.5780   20.5460 O   0  0  0  0  0  0  0  0  0  0  0  0
  -22.4310  -12.0450   22.4000 H   0  0  0  0  0  0  0  0  0  0  0  0
  -21.1190  -13.1490   22.1080 H   0  0  0  0  0  0  0  0  0  0  0  0
  -25.4850  -15.2660   20.3990 N   0  0  0  0  0  0  0  0  0  0  0  0
  -24.7130  -15.9190   20.4820 H   0  0  0  0  0  0  0  0  0  0  0  0
  -26.3580  -15.7100   20.1410 H   0  0  0  0  0  0  0  0  0  0  0  0
  2  1  2  0
  3  1  1  0
  3 50  1  0
  4  6  2  0
  4  7  1  0
  5  2  1  0
  6  2  1  0
  7  3  2  0
  8  4  1  0
  8  9  1  0
 10 21  2  0
 11  9  1  0
 11 16  1  0
 12 20  1  0
 12 22  1  0
 13 19  1  0
 13 15  1  0
 14 20  1  0
 15 14  1  0
 16 15  2  0
 17 18  1  0
 17 11  2  0
 18 13  2  0
 19 12  1  0
 20 10  1  0
 22 24  2  0
 23 22  1  0
 25 23  1  0
 26 35  2  0
 26 31  1  0
 27 23  1  0
 27 31  1  0
 28 27  1  0
 29 30  1  0
 29 28  1  0
 30 26  1  0
 31 32  2  0
 32 33  1  0
 34 33  2  0
 35 34  1  0
 36 10  1  0
 36 37  1  0
 36 46  1  0
 37 40  1  0
 38 42  1  0
 38 37  1  0
 39 38  2  0
 42 41  1  0
 44 42  1  0
 44 45  1  0
 44 43  1  0
 46 49  1  1
 46 47  1  0
 48 46  1  0
 50 51  1  0
 52 53  2  0
 52 51  1  0
 55 60  1  0
 56 57  1  0
 56 55  1  0
 58 57  1  0
 58 67  1  0
 58 59  1  0
 60 54  1  0
 60 59  1  0
 61 54  2  0
 62 63  1  0
 63 54  1  0
 63 53  1  0
 64 65  2  0
 65 66  1  0
 65 84  1  0
 66 69  1  0
 67 64  1  0
 67 68  1  0
 68 66  2  0
 69 70  1  0
 70 71  2  0
 72 75  1  0
 72 71  1  0
 73 72  2  0
 74 73  1  0
 74 69  2  0
 75 76  1  0
 76 77  1  0
 77 78  2  0
 79 78  1  0
 79 83  1  0
 80 79  2  0
 81 76  2  0
 81 80  1  0
 82 81  1  0
 84 85  1  0
 85 88  1  0
 85 87  1  0
 86 84  2  0
 89 90  1  0
 89 64  1  0
 91 89  1  0
M  ISO  4   8 101   9 101  54 100  63 100
M  END
>  <TORSDO>  (2) 
F 21

>  <SCORE>  (2) 
-12.768

>  <name>  (2) 
1

>  <ligand_id>  (2) 
1

>  <original_smiles>  (2) 
[H]c1c(OC([H])([H])C([H])([H])C([H])([H])N(C(=O)N2C([H])([H])C([H])([H])C([H])([H])C([H])(n3nc(-c4c([H])c([H])c(Oc5c([H])c([H])c(F)c([H])c5F)c([H])c4[H])c(C(=O)N([H])[H])c3N([H])[H])C2([H])[H])C([H])([H])[H])nc(C([H])([H])Oc2c([H])c([H])c3c(c2[H])C([H])([H])N(C(=O)C([H])(N([H])C(=O)C([H])(N([H])C([H])([H])[H])C([H])([H])[H])C(C([H])([H])[H])(C([H])([H])[H])C([H])([H])[H])C([H])(C(=O)N([H])C2([H])c4c([H])c([H])c([H])c([H])c4C([H])([H])C([H])([H])C2([H])[H])C3([H])[H])nc1C([H])([H])[H]

>  <smiles>  (2) 
[H]c1c(OC([H])([H])C([H])([H])C([H])([H])N(C(=O)N2C([H])([H])C([H])([H])C([H])([H])C([H])(n3nc(-c4c([H])c([H])c(Oc5c([H])c([H])c(F)c([H])c5F)c([H])c4[H])c(C(=O)N([H])[H])c3N([H])[H])C2([H])[H])C([H])([H])[H])nc(C([H])([H])Oc2c([H])c([H])c3c(c2[H])C([H])([H])N(C(=O)C([H])(N([H])C(=O)C([H])(N([H])C([H])([H])[H])C([H])([H])[H])C(C([H])([H])[H])(C([H])([H])[H])C([H])([H])[H])C([H])(C(=O)N([H])C2([H])c4c([H])c([H])c([H])c([H])c4C([H])([H])C([H])([H])C2([H])[H])C3([H])[H])nc1C([H])([H])[H]

$$$$
2:0:0
     RDKit          3D

 91 99  0  0  1  0  0  0  0  0999 V2000
  -28.6890  -21.2270   21.2520 C   0  0  0  0  0  3  0  0  0  0  0  0
  -29.5150  -20.4730   20.3390 C   0  0  0  0  0  0  0  0  0  0  0  0
  -29.5380  -22.5670   19.1140 C   0  0  0  0  0  0  0  0  0  0  0  0
  -28.7110  -23.3110   20.0440 C   0  0  0  0  0  0  0  0  0  0  0  0
  -29.9570  -23.1950   17.8000 C   0  0  0  0  0  1  0  0  0  0  0  0
  -28.3080  -22.5570   21.1170 N   0  0  0  0  0  0  0  0  0  0  0  0
  -29.9480  -21.2350   19.2730 N   0  0  0  0  0  0  0  0  0  0  0  0
  -29.4340  -18.4520   21.9820 C   0  0  0  0  0  1  0  0  0  0  0  0
  -31.5940  -19.1360   20.9970 C   0  0  0  0  0  1  0  0  0  0  0  0
  -30.1000  -18.9500   20.6760 C   0  0  2  0  0  0  0  0  0  0  0  0
  -30.0420  -17.6380   19.6460 C   0  0  0  0  0  2  0  0  0  0  0  0
  -30.8120  -14.9880   19.8140 C   0  0  0  0  0  0  0  0  0  0  0  0
  -30.6240  -12.6490   18.8780 C   0  0  0  0  0  2  0  0  0  0  0  0
  -29.6290  -12.6460   17.6920 C   0  0  0  0  0  2  0  0  0  0  0  0
  -28.1840  -12.4590   18.1950 C   0  0  0  0  0  2  0  0  0  0  0  0
  -27.8550  -13.3740   19.4050 C   0  0  0  0  0  3  0  0  0  0  0  0
  -28.9650  -13.3380   20.4780 C   0  0  0  0  0  2  0  0  0  0  0  0
  -30.2210  -13.7280   19.8220 N   0  0  0  0  0  0  0  0  0  0  0  0
  -31.9590  -15.0880   19.3660 O   0  0  0  0  0  0  0  0  0  0  0  0
  -30.0380  -16.1300   20.1120 N   0  0  0  0  0  0  0  0  0  0  0  0
  -29.1580  -15.8720   20.5360 H   0  0  0  0  0  0  0  0  0  0  0  0
  -25.5210  -13.9740   20.2730 C   0  0  0  0  0  0  0  0  0  0  0  0
  -24.4690  -13.2070   20.6910 C   0  0  0  0  0  0  0  0  0  0  0  0
  -24.9140  -11.8520   20.6150 C   0  0  0  0  0  0  0  0  0  0  0  0
  -26.5400  -13.0870   19.9640 N   0  0  0  0  0  0  0  0  0  0  0  0
  -26.1840  -11.8040   20.2310 N   0  0  0  0  0  0  0  0  0  0  0  0
  -24.1830  -10.5960   20.8260 C   0  0  0  0  0  0  0  0  0  0  0  0
  -24.5890   -9.6550   21.7980 C   0  0  0  0  0  3  0  0  0  0  0  0
  -23.8560   -8.4650   21.9950 C   0  0  0  0  0  3  0  0  0  0  0  0
  -22.7010   -8.2070   21.2200 C   0  0  0  0  0  0  0  0  0  0  0  0
  -22.3140   -9.1340   20.2370 C   0  0  0  0  0  3  0  0  0  0  0  0
  -23.0470  -10.3160   20.0390 C   0  0  0  0  0  3  0  0  0  0  0  0
  -21.9430   -7.0660   21.3240 O   0  0  0  0  0  0  0  0  0  0  0  0
  -21.7810   -6.4160   22.5210 C   0  0  0  0  0  0  0  0  0  0  0  0
  -21.2100   -7.0560   23.6430 C   0  0  0  0  0  3  0  0  0  0  0  0
  -20.9970   -6.3320   24.8340 C   0  0  0  0  0  3  0  0  0  0  0  0
  -21.3430   -4.9700   24.9010 C   0  0  0  0  0  0  0  0  0  0  0  0
  -21.9060   -4.3290   23.7830 C   0  0  0  0  0  3  0  0  0  0  0  0
  -22.1210   -5.0510   22.5950 C   0  0  0  0  0  0  0  0  0  0  0  0
  -22.6450   -4.4250   21.5140 F   0  0  0  0  0  0  0  0  0  0  0  0
  -21.1310   -4.2710   26.0400 F   0  0  0  0  0  0  0  0  0  0  0  0
  -23.0960  -13.6990   21.0470 C   0  0  0  0  0  0  0  0  0  0  0  0
  -22.4160  -13.0110   21.9560 N   0  0  0  0  0  0  0  0  0  0  0  0
  -22.6400  -14.7300   20.5550 O   0  0  0  0  0  0  0  0  0  0  0  0
  -22.7980  -12.1770   22.3770 H   0  0  0  0  0  0  0  0  0  0  0  0
  -21.4970  -13.3250   22.2390 H   0  0  0  0  0  0  0  0  0  0  0  0
  -25.6890  -15.3470   20.1040 N   0  0  0  0  0  0  0  0  0  0  0  0
  -24.9260  -15.9970   20.2500 H   0  0  0  0  0  0  0  0  0  0  0  0
  -26.5040  -15.7820   19.6900 H   0  0  0  0  0  0  0  0  0  0  0  0
  -27.8910  -24.7040   19.7220 C   0  0  0  0  0  2  0  0  0  0  0  0
  -28.1900  -26.1750   20.1030 O   0  0  0  0  0  0  0  0  0  0  0  0
  -24.5360  -31.8180   23.0920 C   0  0  0  0  0  0  0  0  0  0  0  0
  -27.1390  -27.1600   20.0120 C   0  0  0  0  0  0  0  0  0  0  0  0
  -23.3340  -30.4100   21.4650 C   0  0  0  0  0  3  0  0  0  0  0  0
  -24.7870  -28.8690   20.0160 C   0  0  0  0  0  0  0  0  0  0  0  0
  -25.8840  -30.7100   21.2750 C   0  0  0  0  0  2  0  0  0  0  0  0
  -25.9660  -29.3240   20.6190 C   0  0  0  0  0  0  0  0  0  0  0  0
  -27.1410  -28.4820   20.6120 C   0  0  0  0  0  3  0  0  0  0  0  0
  -25.9390  -26.8250   19.3410 C   0  0  0  0  0  3  0  0  0  0  0  0
  -24.7840  -27.6310   19.3620 C   0  0  0  0  0  3  0  0  0  0  0  0
  -23.5490  -29.7460   20.0800 C   0  0  0  0  0  2  0  0  0  0  0  0
  -24.6050  -31.0010   21.9980 N   0  0  0  0  0  0  0  0  0  0  0  0
  -23.4540  -32.0880   23.6330 O   0  0  0  0  0  0  0  0  0  0  0  0
  -22.6840  -29.3880   22.4310 C   0  0  0  0  0  0  0  0  0  0  0  0
  -21.3670  -29.1630   22.2900 N   0  0  0  0  0  0  0  0  0  0  0  0
  -23.3680  -28.8020   23.2750 O   0  0  0  0  0  0  0  0  0  0  0  0
  -20.8690  -29.6900   21.5850 H   0  0  0  0  0  0  0  0  0  0  0  0
  -18.0340  -27.8140   22.7430 C   0  0  0  0  0  0  0  0  0  0  0  0
  -20.5700  -28.2100   23.0680 C   0  0  0  0  0  3  0  0  0  0  0  0
  -20.7550  -26.7680   22.5400 C   0  0  0  0  0  2  0  0  0  0  0  0
  -19.6980  -26.3620   21.5070 C   0  0  0  0  0  2  0  0  0  0  0  0
  -18.2940  -26.4570   22.1110 C   0  0  0  0  0  2  0  0  0  0  0  0
  -19.1020  -28.6440   23.1770 C   0  0  0  0  0  0  0  0  0  0  0  0
  -18.8050  -29.9090   23.7300 C   0  0  0  0  0  3  0  0  0  0  0  0
  -17.4720  -30.3470   23.8500 C   0  0  0  0  0  3  0  0  0  0  0  0
  -16.4190  -29.5180   23.4270 C   0  0  0  0  0  3  0  0  0  0  0  0
  -16.7000  -28.2520   22.8820 C   0  0  0  0  0  3  0  0  0  0  0  0
  -25.8140  -32.4700   23.7020 C   0  0  0  0  0  3  0  0  0  0  0  0
  -26.3740  -31.6850   24.9530 C   0  0  1  0  0  0  0  0  0  0  0  0
  -25.3040  -31.3750   26.0260 C   0  0  0  0  0  1  0  0  0  0  0  0
  -27.0090  -30.3410   24.5240 C   0  0  0  0  0  1  0  0  0  0  0  0
  -27.4990  -32.5080   25.6230 C   0  0  0  0  0  1  0  0  0  0  0  0
  -25.4780  -33.8540   24.0720 N   0  0  0  0  0  0  0  0  0  0  0  0
  -25.7810  -34.9340   23.3410 C   0  0  0  0  0  0  0  0  0  0  0  0
  -26.4420  -34.8730   22.3010 O   0  0  0  0  0  0  0  0  0  0  0  0
  -24.8910  -33.9730   24.8850 H   0  0  0  0  0  0  0  0  0  0  0  0
  -24.0260  -36.7160   23.0430 C   0  0  0  0  0  1  0  0  0  0  0  0
  -25.2720  -36.3010   23.8430 C   0  0  0  0  0  3  0  0  0  0  0  0
  -27.3900  -37.1950   24.7090 C   0  0  0  0  0  1  0  0  0  0  0  0
  -26.2880  -37.3730   23.7660 N   0  0  0  0  0  0  0  0  0  0  0  0
  -25.8680  -38.2810   23.9390 H   0  0  0  0  0  0  0  0  0  0  0  0
  2 10  1  0
  2  1  2  0
  3  7  2  0
  3  4  1  0
  4  6  2  0
  5  3  1  0
  6  1  1  0
  7  2  1  0
 10  9  1  1
 10  8  1  0
 11 20  1  0
 11 10  1  0
 12 18  1  0
 12 20  1  0
 13 18  1  0
 14 15  1  0
 14 13  1  0
 16 15  1  0
 16 25  1  0
 16 17  1  0
 18 17  1  0
 19 12  2  0
 20 21  1  0
 22 23  2  0
 23 42  1  0
 24 23  1  0
 24 27  1  0
 25 26  1  0
 25 22  1  0
 26 24  2  0
 27 28  1  0
 28 29  2  0
 30 33  1  0
 30 29  1  0
 31 30  2  0
 32 31  1  0
 32 27  2  0
 33 34  1  0
 34 39  2  0
 34 35  1  0
 35 36  2  0
 36 37  1  0
 37 41  1  0
 38 37  2  0
 39 38  1  0
 40 39  1  0
 42 43  1  0
 43 46  1  0
 43 45  1  0
 44 42  2  0
 47 48  1  0
 47 22  1  0
 49 47  1  0
 50  4  1  0
 50 51  1  0
 52 63  2  0
 53 51  1  0
 53 58  1  0
 54 62  1  0
 54 64  1  0
 55 61  1  0
 55 57  1  0
 56 62  1  0
 57 56  1  0
 58 57  2  0
 59 60  1  0
 59 53  2  0
 60 55  2  0
 61 54  1  0
 62 52  1  0
 64 66  2  0
 65 64  1  0
 67 65  1  0
 68 77  2  0
 68 73  1  0
 69 65  1  0
 69 73  1  0
 70 69  1  0
 71 72  1  0
 71 70  1  0
 72 68  1  0
 73 74  2  0
 74 75  1  0
 76 75  2  0
 77 76  1  0
 78 52  1  0
 78 83  1  0
 78 79  1  0
 79 82  1  1
 79 80  1  0
 81 79  1  0
 83 86  1  0
 84 88  1  0
 84 83  1  0
 85 84  2  0
 88 87  1  0
 90 88  1  0
 90 91  1  0
 90 89  1  0
M  ISO  4  12 100  20 100  50 101  51 101
M  END
>  <TORSDO>  (3) 
F 19

>  <SCORE>  (3) 
-12.879

>  <name>  (3) 
2

>  <ligand_id>  (3) 
2

>  <original_smiles>  (3) 
[H]c1nc(C([H])([H])Oc2c([H])c([H])c3c(c2[H])C([H])([H])N(C(=O)C([H])(N([H])C(=O)C([H])(N([H])C([H])([H])[H])C([H])([H])[H])C(C([H])([H])[H])(C([H])([H])[H])C([H])([H])[H])C([H])(C(=O)N([H])C2([H])c4c([H])c([H])c([H])c([H])c4C([H])([H])C([H])([H])C2([H])[H])C3([H])[H])c(C([H])([H])[H])nc1C(C([H])([H])[H])(C([H])([H])[H])C([H])([H])N([H])C(=O)N1C([H])([H])C([H])([H])C([H])([H])C([H])(n2nc(-c3c([H])c([H])c(Oc4c([H])c([H])c(F)c([H])c4F)c([H])c3[H])c(C(=O)N([H])[H])c2N([H])[H])C1([H])[H]

>  <smiles>  (3) 
[H]c1nc(C([H])([H])Oc2c([H])c([H])c3c(c2[H])C([H])([H])N(C(=O)C([H])(N([H])C(=O)C([H])(N([H])C([H])([H])[H])C([H])([H])[H])C(C([H])([H])[H])(C([H])([H])[H])C([H])([H])[H])C([H])(C(=O)N([H])C2([H])c4c([H])c([H])c([H])c([H])c4C([H])([H])C([H])([H])C2([H])[H])C3([H])[H])c(C([H])([H])[H])nc1C(C([H])([H])[H])(C([H])([H])[H])C([H])([H])N([H])C(=O)N1C([H])([H])C([H])([H])C([H])([H])C([H])(n2nc(-c3c([H])c([H])c(Oc4c([H])c([H])c(F)c([H])c4F)c([H])c3[H])c(C(=O)N([H])[H])c2N([H])[H])C1([H])[H]

$$$$
3:0:0
     RDKit          3D

 93101  0  0  1  0  0  0  0  0999 V2000
  -29.9450  -21.1560   20.1120 C   0  0  0  0  0  0  0  0  0  0  0  0
  -30.6520  -19.0710   19.9150 C   0  0  0  0  0  0  0  0  0  0  0  0
  -30.1100  -20.9120   18.8040 N   0  0  0  0  0  0  0  0  0  0  0  0
  -30.5750  -19.5950   18.6820 N   0  0  0  0  0  0  0  0  0  0  0  0
  -30.2670  -20.0230   20.8430 N   0  0  0  0  0  0  0  0  0  0  0  0
  -29.2530  -22.4550   20.6990 C   0  0  0  0  0  2  0  0  0  0  0  0
  -29.5470  -23.9710   20.2010 C   0  0  0  0  0  3  0  0  0  0  0  0
  -28.4510  -25.1090   20.5710 C   0  0  0  0  0  3  0  0  0  0  0  0
  -28.6160  -26.5770   20.2800 O   0  0  0  0  0  0  0  0  0  0  0  0
  -24.6710  -31.9160   23.2550 C   0  0  0  0  0  0  0  0  0  0  0  0
  -27.4700  -27.4110   20.2420 C   0  0  0  0  0  0  0  0  0  0  0  0
  -23.5380  -30.4990   21.5810 C   0  0  0  0  0  3  0  0  0  0  0  0
  -25.0580  -28.9850   20.1830 C   0  0  0  0  0  0  0  0  0  0  0  0
  -26.0740  -30.8750   21.4520 C   0  0  0  0  0  2  0  0  0  0  0  0
  -26.2050  -29.4960   20.8050 C   0  0  0  0  0  0  0  0  0  0  0  0
  -27.4120  -28.7250   20.8190 C   0  0  0  0  0  3  0  0  0  0  0  0
  -26.2970  -26.9650   19.5890 C   0  0  0  0  0  3  0  0  0  0  0  0
  -25.1100  -27.7260   19.5640 C   0  0  0  0  0  3  0  0  0  0  0  0
  -23.8000  -29.8300   20.2040 C   0  0  0  0  0  2  0  0  0  0  0  0
  -24.7800  -31.1140   22.1550 N   0  0  0  0  0  0  0  0  0  0  0  0
  -23.5700  -32.1650   23.7660 O   0  0  0  0  0  0  0  0  0  0  0  0
  -22.8730  -29.4670   22.5230 C   0  0  0  0  0  0  0  0  0  0  0  0
  -21.5560  -29.2490   22.3530 N   0  0  0  0  0  0  0  0  0  0  0  0
  -23.5410  -28.8620   23.3650 O   0  0  0  0  0  0  0  0  0  0  0  0
  -21.0760  -29.7910   21.6480 H   0  0  0  0  0  0  0  0  0  0  0  0
  -18.2070  -27.9310   22.7280 C   0  0  0  0  0  0  0  0  0  0  0  0
  -20.7410  -28.2870   23.0960 C   0  0  0  0  0  3  0  0  0  0  0  0
  -20.9190  -26.8580   22.5340 C   0  0  0  0  0  2  0  0  0  0  0  0
  -19.8700  -26.4880   21.4810 C   0  0  0  0  0  2  0  0  0  0  0  0
  -18.4580  -26.5860   22.0690 C   0  0  0  0  0  2  0  0  0  0  0  0
  -19.2790  -28.7360   23.1970 C   0  0  0  0  0  0  0  0  0  0  0  0
  -18.9910  -29.9930   23.7720 C   0  0  0  0  0  3  0  0  0  0  0  0
  -17.6630  -30.4450   23.8860 C   0  0  0  0  0  3  0  0  0  0  0  0
  -16.6040  -29.6380   23.4330 C   0  0  0  0  0  3  0  0  0  0  0  0
  -16.8780  -28.3830   22.8610 C   0  0  0  0  0  3  0  0  0  0  0  0
  -25.9240  -32.5730   23.9130 C   0  0  0  0  0  3  0  0  0  0  0  0
  -25.5870  -33.9720   24.2180 N   0  0  0  0  0  0  0  0  0  0  0  0
  -25.9240  -35.0200   23.4540 C   0  0  0  0  0  0  0  0  0  0  0  0
  -26.6200  -34.9110   22.4410 O   0  0  0  0  0  0  0  0  0  0  0  0
  -24.9700  -34.1280   25.0020 H   0  0  0  0  0  0  0  0  0  0  0  0
  -24.1800  -36.7840   23.0380 C   0  0  0  0  0  1  0  0  0  0  0  0
  -25.4090  -36.4070   23.8810 C   0  0  0  0  0  3  0  0  0  0  0  0
  -27.5140  -37.3340   24.7450 C   0  0  0  0  0  1  0  0  0  0  0  0
  -26.4300  -37.4730   23.7750 N   0  0  0  0  0  0  0  0  0  0  0  0
  -26.0100  -38.3900   23.8980 H   0  0  0  0  0  0  0  0  0  0  0  0
  -26.4050  -31.8220   25.2150 C   0  0  1  0  0  0  0  0  0  0  0  0
  -25.2790  -31.5820   26.2480 C   0  0  0  0  0  1  0  0  0  0  0  0
  -27.0170  -30.4490   24.8590 C   0  0  0  0  0  1  0  0  0  0  0  0
  -27.5240  -32.6380   25.9050 C   0  0  0  0  0  1  0  0  0  0  0  0
  -31.1780  -17.5870   20.2150 C   0  0  0  0  0  2  0  0  0  0  0  0
  -30.8860  -15.0080   19.9270 C   0  0  0  0  0  0  0  0  0  0  0  0
  -30.5980  -12.6960   18.9580 C   0  0  0  0  0  2  0  0  0  0  0  0
  -29.5660  -12.6390   17.8120 C   0  0  0  0  0  2  0  0  0  0  0  0
  -28.1360  -12.4430   18.3570 C   0  0  0  0  0  2  0  0  0  0  0  0
  -27.8250  -13.3360   19.5870 C   0  0  0  0  0  3  0  0  0  0  0  0
  -28.9960  -13.3210   20.6040 C   0  0  0  0  0  2  0  0  0  0  0  0
  -30.1870  -13.7960   19.8750 N   0  0  0  0  0  0  0  0  0  0  0  0
  -32.0910  -14.9440   19.6710 O   0  0  0  0  0  0  0  0  0  0  0  0
  -30.3100  -16.3100   20.0490 N   0  0  0  0  0  0  0  0  0  0  0  0
  -25.4740  -13.9450   20.4220 C   0  0  0  0  0  0  0  0  0  0  0  0
  -24.4330  -13.1860   20.8600 C   0  0  0  0  0  0  0  0  0  0  0  0
  -24.8760  -11.8320   20.7660 C   0  0  0  0  0  0  0  0  0  0  0  0
  -26.5120  -13.0630   20.1530 N   0  0  0  0  0  0  0  0  0  0  0  0
  -26.1520  -11.7810   20.4010 N   0  0  0  0  0  0  0  0  0  0  0  0
  -24.1350  -10.5850   20.9420 C   0  0  0  0  0  0  0  0  0  0  0  0
  -24.5830   -9.5860   21.8300 C   0  0  0  0  0  3  0  0  0  0  0  0
  -23.8420   -8.3980   21.9980 C   0  0  0  0  0  3  0  0  0  0  0  0
  -22.6410   -8.2030   21.2770 C   0  0  0  0  0  0  0  0  0  0  0  0
  -22.2130   -9.1920   20.3730 C   0  0  0  0  0  3  0  0  0  0  0  0
  -22.9540  -10.3710   20.2020 C   0  0  0  0  0  3  0  0  0  0  0  0
  -21.8700   -7.0700   21.3610 O   0  0  0  0  0  0  0  0  0  0  0  0
  -21.8190   -6.3220   22.5090 C   0  0  0  0  0  0  0  0  0  0  0  0
  -21.3990   -6.8730   23.7400 C   0  0  0  0  0  3  0  0  0  0  0  0
  -21.2940   -6.0530   24.8800 C   0  0  0  0  0  3  0  0  0  0  0  0
  -21.5960   -4.6810   24.7930 C   0  0  0  0  0  0  0  0  0  0  0  0
  -22.0060   -4.1270   23.5680 C   0  0  0  0  0  3  0  0  0  0  0  0
  -22.1150   -4.9460   22.4290 C   0  0  0  0  0  0  0  0  0  0  0  0
  -22.4930   -4.4040   21.2460 F   0  0  0  0  0  0  0  0  0  0  0  0
  -21.4860   -3.8900   25.8870 F   0  0  0  0  0  0  0  0  0  0  0  0
  -23.0670  -13.6850   21.2300 C   0  0  0  0  0  0  0  0  0  0  0  0
  -22.3890  -12.9830   22.1300 N   0  0  0  0  0  0  0  0  0  0  0  0
  -22.6140  -14.7320   20.7670 O   0  0  0  0  0  0  0  0  0  0  0  0
  -22.7720  -12.1380   22.5260 H   0  0  0  0  0  0  0  0  0  0  0  0
  -21.4750  -13.2950   22.4260 H   0  0  0  0  0  0  0  0  0  0  0  0
  -25.5820  -15.3090   20.1940 N   0  0  0  0  0  0  0  0  0  0  0  0
  -24.7910  -15.9380   20.2750 H   0  0  0  0  0  0  0  0  0  0  0  0
  -26.4100  -15.7470   19.8130 H   0  0  0  0  0  0  0  0  0  0  0  0
  -28.3630  -16.5950   18.4520 C   0  0  0  0  0  1  0  0  0  0  0  0
  -28.0210  -16.4570   21.1430 C   0  0  0  0  0  1  0  0  0  0  0  0
  -28.8910  -16.7130   19.9010 C   0  0  0  0  0  3  0  0  0  0  0  0
  -30.1890  -19.8520   22.2820 C   0  0  0  0  0  2  0  0  0  0  0  0
  -31.3630  -20.2360   24.5060 C   0  0  0  0  0  1  0  0  0  0  0  0
  -31.3980  -20.4760   22.9940 C   0  0  0  0  0  2  0  0  0  0  0  0
  1  6  1  0
  1  5  1  0
  2 50  1  0
  2  5  1  0
  3  1  2  0
  4  3  1  0
  4  2  2  0
  5 91  1  0
  7  8  2  0
  7  6  1  0
  9  8  1  0
 10 21  2  0
 11  9  1  0
 11 16  1  0
 12 20  1  0
 12 22  1  0
 13 19  1  0
 13 15  1  0
 14 20  1  0
 15 16  2  0
 15 14  1  0
 17 11  2  0
 18 17  1  0
 18 13  2  0
 19 12  1  0
 20 10  1  0
 22 24  2  0
 23 22  1  0
 25 23  1  0
 26 35  2  0
 26 31  1  0
 27 23  1  0
 27 31  1  0
 28 27  1  0
 29 30  1  0
 29 28  1  0
 30 26  1  0
 31 32  2  0
 32 33  1  0
 34 33  2  0
 35 34  1  0
 36 10  1  0
 36 37  1  0
 36 46  1  0
 37 40  1  0
 38 42  1  0
 38 37  1  0
 39 38  2  0
 42 41  1  0
 44 42  1  0
 44 45  1  0
 44 43  1  0
 46 49  1  1
 46 47  1  0
 48 46  1  0
 51 59  1  0
 52 57  1  0
 53 54  1  0
 53 52  1  0
 55 54  1  0
 55 63  1  0
 55 56  1  0
 57 51  1  0
 57 56  1  0
 58 51  2  0
 59 50  1  0
 60 61  2  0
 61 80  1  0
 62 61  1  0
 62 65  1  0
 63 64  1  0
 63 60  1  0
 64 62  2  0
 65 66  1  0
 66 67  2  0
 68 71  1  0
 68 67  1  0
 69 68  2  0
 70 69  1  0
 70 65  2  0
 71 72  1  0
 72 73  1  0
 73 74  2  0
 75 74  1  0
 75 79  1  0
 76 75  2  0
 77 72  2  0
 77 76  1  0
 78 77  1  0
 80 81  1  0
 81 84  1  0
 81 83  1  0
 82 80  2  0
 85 86  1  0
 85 60  1  0
 87 85  1  0
 88 90  1  0
 90 59  1  0
 90 89  1  0
 91 93  1  0
 93 92  1  0
M  ISO  4   8 101   9 101  51 100  59 100
M  END
>  <TORSDO>  (4) 
F 23

>  <SCORE>  (4) 
-11.504

>  <name>  (4) 
3

>  <ligand_id>  (4) 
3

>  <original_smiles>  (4) 
[H]c1c([H])c([H])c2c(c1[H])C([H])([H])C([H])([H])C([H])([H])C2([H])N([H])C(=O)C1([H])N(C(=O)C([H])(N([H])C(=O)C([H])(N([H])C([H])([H])[H])C([H])([H])[H])C(C([H])([H])[H])(C([H])([H])[H])C([H])([H])[H])C([H])([H])c2c([H])c(OC([H])([H])C([H])([H])C([H])([H])c3nnc(C([H])([H])N(C(=O)N4C([H])([H])C([H])([H])C([H])([H])C([H])(n5nc(-c6c([H])c([H])c(Oc7c([H])c([H])c(F)c([H])c7F)c([H])c6[H])c(C(=O)N([H])[H])c5N([H])[H])C4([H])[H])C([H])(C([H])([H])[H])C([H])([H])[H])n3C([H])([H])C([H])([H])C([H])([H])[H])c([H])c([H])c2C1([H])[H]

>  <smiles>  (4) 
[H]c1c([H])c([H])c2c(c1[H])C([H])([H])C([H])([H])C([H])([H])C2([H])N([H])C(=O)C1([H])N(C(=O)C([H])(N([H])C(=O)C([H])(N([H])C([H])([H])[H])C([H])([H])[H])C(C([H])([H])[H])(C([H])([H])[H])C([H])([H])[H])C([H])([H])c2c([H])c(OC([H])([H])C([H])([H])C([H])([H])c3nnc(C([H])([H])N(C(=O)N4C([H])([H])C([H])([H])C([H])([H])C([H])(n5nc(-c6c([H])c([H])c(Oc7c([H])c([H])c(F)c([H])c7F)c([H])c6[H])c(C(=O)N([H])[H])c5N([H])[H])C4([H])[H])C([H])(C([H])([H])[H])C([H])([H])[H])n3C([H])([H])C([H])([H])C([H])([H])[H])c([H])c([H])c2C1([H])[H]

$$$$
5:0:0
     RDKit          3D

 88 96  0  0  1  0  0  0  0  0999 V2000
  -29.5560  -20.7940   18.8860 C   0  0  0  0  0  3  0  0  0  0  0  0
  -29.6780  -19.9230   20.0510 C   0  0  0  0  0  0  0  0  0  0  0  0
  -28.9830  -22.0760   21.1320 C   0  0  0  0  0  0  0  0  0  0  0  0
  -28.8580  -22.9460   19.9530 C   0  0  0  0  0  0  0  0  0  0  0  0
  -28.6240  -22.6470   22.4880 C   0  0  0  0  0  1  0  0  0  0  0  0
  -29.1630  -22.1630   18.8380 N   0  0  0  0  0  0  0  0  0  0  0  0
  -29.3850  -20.7010   21.1760 N   0  0  0  0  0  0  0  0  0  0  0  0
  -30.4300  -18.3490   20.0610 C   0  0  0  0  0  2  0  0  0  0  0  0
  -30.6870  -15.4740   20.1480 C   0  0  0  0  0  0  0  0  0  0  0  0
  -30.6570  -13.0440   19.2170 C   0  0  0  0  0  2  0  0  0  0  0  0
  -29.6930  -12.8330   18.0190 C   0  0  0  0  0  2  0  0  0  0  0  0
  -28.2510  -12.5680   18.4910 C   0  0  0  0  0  2  0  0  0  0  0  0
  -27.8400  -13.5060   19.6540 C   0  0  0  0  0  3  0  0  0  0  0  0
  -28.9330  -13.5700   20.7430 C   0  0  0  0  0  2  0  0  0  0  0  0
  -30.1200  -14.1590   20.0880 N   0  0  0  0  0  0  0  0  0  0  0  0
  -31.8970  -15.4620   19.8680 O   0  0  0  0  0  0  0  0  0  0  0  0
  -28.5740  -16.8400   20.7150 C   0  0  0  0  0  1  0  0  0  0  0  0
  -29.9650  -16.7770   20.2750 N   0  0  0  0  0  0  0  0  0  0  0  0
  -25.4790  -14.0580   20.4580 C   0  0  0  0  0  0  0  0  0  0  0  0
  -24.4280  -13.2760   20.8400 C   0  0  0  0  0  0  0  0  0  0  0  0
  -24.8960  -11.9280   20.7770 C   0  0  0  0  0  0  0  0  0  0  0  0
  -26.5220  -13.1890   20.1860 N   0  0  0  0  0  0  0  0  0  0  0  0
  -26.1800  -11.8990   20.4410 N   0  0  0  0  0  0  0  0  0  0  0  0
  -24.1720  -10.6650   20.9600 C   0  0  0  0  0  0  0  0  0  0  0  0
  -24.5860   -9.7070   21.9120 C   0  0  0  0  0  3  0  0  0  0  0  0
  -23.8590   -8.5090   22.0840 C   0  0  0  0  0  3  0  0  0  0  0  0
  -22.7040   -8.2620   21.3060 C   0  0  0  0  0  0  0  0  0  0  0  0
  -22.3110   -9.2080   20.3430 C   0  0  0  0  0  3  0  0  0  0  0  0
  -23.0370  -10.3980   20.1700 C   0  0  0  0  0  3  0  0  0  0  0  0
  -21.9510   -7.1160   21.3870 O   0  0  0  0  0  0  0  0  0  0  0  0
  -21.8210   -6.4210   22.5620 C   0  0  0  0  0  0  0  0  0  0  0  0
  -21.2560   -7.0070   23.7160 C   0  0  0  0  0  3  0  0  0  0  0  0
  -21.0790   -6.2370   24.8820 C   0  0  0  0  0  3  0  0  0  0  0  0
  -21.4550   -4.8800   24.8950 C   0  0  0  0  0  0  0  0  0  0  0  0
  -22.0110   -4.2930   23.7450 C   0  0  0  0  0  3  0  0  0  0  0  0
  -22.1920   -5.0610   22.5820 C   0  0  0  0  0  0  0  0  0  0  0  0
  -22.7090   -4.4840   21.4690 F   0  0  0  0  0  0  0  0  0  0  0  0
  -21.2790   -4.1380   26.0120 F   0  0  0  0  0  0  0  0  0  0  0  0
  -23.0370  -13.7500   21.1470 C   0  0  0  0  0  0  0  0  0  0  0  0
  -22.3340  -13.0550   22.0330 N   0  0  0  0  0  0  0  0  0  0  0  0
  -22.5850  -14.7750   20.6400 O   0  0  0  0  0  0  0  0  0  0  0  0
  -22.7100  -12.2230   22.4650 H   0  0  0  0  0  0  0  0  0  0  0  0
  -21.4050  -13.3590   22.2860 H   0  0  0  0  0  0  0  0  0  0  0  0
  -25.6220  -15.4310   20.2920 N   0  0  0  0  0  0  0  0  0  0  0  0
  -24.8480  -16.0740   20.4210 H   0  0  0  0  0  0  0  0  0  0  0  0
  -26.4600  -15.8810   19.9550 H   0  0  0  0  0  0  0  0  0  0  0  0
  -28.0200  -24.4730   19.8100 C   0  0  0  0  0  2  0  0  0  0  0  0
  -28.3760  -26.0650   19.9460 O   0  0  0  0  0  0  0  0  0  0  0  0
  -24.7650  -31.8390   23.1730 C   0  0  0  0  0  0  0  0  0  0  0  0
  -27.3610  -27.1530   19.9240 C   0  0  0  0  0  0  0  0  0  0  0  0
  -23.5780  -30.5080   21.4780 C   0  0  0  0  0  3  0  0  0  0  0  0
  -25.0360  -28.9940   19.9710 C   0  0  0  0  0  0  0  0  0  0  0  0
  -26.1410  -30.7600   21.3240 C   0  0  0  0  0  2  0  0  0  0  0  0
  -26.2220  -29.3850   20.6060 C   0  0  0  0  0  0  0  0  0  0  0  0
  -27.3790  -28.4880   20.5600 C   0  0  0  0  0  3  0  0  0  0  0  0
  -26.1420  -26.9140   19.2480 C   0  0  0  0  0  3  0  0  0  0  0  0
  -25.0210  -27.7800   19.2690 C   0  0  0  0  0  3  0  0  0  0  0  0
  -23.8040  -29.8950   20.0700 C   0  0  0  0  0  2  0  0  0  0  0  0
  -24.8500  -31.0600   22.0480 N   0  0  0  0  0  0  0  0  0  0  0  0
  -23.6740  -32.0890   23.7140 O   0  0  0  0  0  0  0  0  0  0  0  0
  -22.9040  -29.4570   22.3990 C   0  0  0  0  0  0  0  0  0  0  0  0
  -21.5740  -29.2850   22.2780 N   0  0  0  0  0  0  0  0  0  0  0  0
  -23.5830  -28.7960   23.1900 O   0  0  0  0  0  0  0  0  0  0  0  0
  -21.0820  -29.8710   21.6180 H   0  0  0  0  0  0  0  0  0  0  0  0
  -18.2020  -28.0440   22.7770 C   0  0  0  0  0  0  0  0  0  0  0  0
  -20.7660  -28.3040   23.0070 C   0  0  0  0  0  3  0  0  0  0  0  0
  -20.8580  -26.9070   22.3490 C   0  0  0  0  0  2  0  0  0  0  0  0
  -19.7380  -26.6390   21.3390 C   0  0  0  0  0  2  0  0  0  0  0  0
  -18.3680  -26.7390   22.0170 C   0  0  0  0  0  2  0  0  0  0  0  0
  -19.3270  -28.7860   23.2280 C   0  0  0  0  0  0  0  0  0  0  0  0
  -19.1150  -30.0060   23.9050 C   0  0  0  0  0  3  0  0  0  0  0  0
  -17.8130  -30.4880   24.1320 C   0  0  0  0  0  3  0  0  0  0  0  0
  -16.7020  -29.7440   23.6960 C   0  0  0  0  0  3  0  0  0  0  0  0
  -16.8970  -28.5230   23.0240 C   0  0  0  0  0  3  0  0  0  0  0  0
  -26.0310  -32.4680   23.8300 C   0  0  0  0  0  3  0  0  0  0  0  0
  -25.7050  -33.8540   24.2040 N   0  0  0  0  0  0  0  0  0  0  0  0
  -25.9980  -34.9390   23.4720 C   0  0  0  0  0  0  0  0  0  0  0  0
  -26.6370  -34.8760   22.4180 O   0  0  0  0  0  0  0  0  0  0  0  0
  -25.1360  -33.9740   25.0290 H   0  0  0  0  0  0  0  0  0  0  0  0
  -24.2230  -36.7120   23.2530 C   0  0  0  0  0  1  0  0  0  0  0  0
  -25.5110  -36.3090   23.9890 C   0  0  0  0  0  3  0  0  0  0  0  0
  -27.6640  -37.2240   24.7390 C   0  0  0  0  0  1  0  0  0  0  0  0
  -26.5180  -37.3840   23.8480 N   0  0  0  0  0  0  0  0  0  0  0  0
  -26.1020  -38.2950   24.0250 H   0  0  0  0  0  0  0  0  0  0  0  0
  -26.5310  -31.6680   25.0970 C   0  0  1  0  0  0  0  0  0  0  0  0
  -25.4250  -31.4040   26.1460 C   0  0  0  0  0  1  0  0  0  0  0  0
  -27.1240  -30.3020   24.6840 C   0  0  0  0  0  1  0  0  0  0  0  0
  -27.6730  -32.4490   25.7900 C   0  0  0  0  0  1  0  0  0  0  0  0
  1  2  1  0
  2  8  1  0
  2  7  2  0
  3  7  1  0
  3  5  1  0
  4  3  2  0
  6  1  2  0
  6  4  1  0
  8 18  1  0
  9 18  1  0
 10 15  1  0
 11 12  1  0
 11 10  1  0
 13 12  1  0
 13 22  1  0
 13 14  1  0
 15  9  1  0
 15 14  1  0
 16  9  2  0
 18 17  1  0
 19 20  2  0
 20 39  1  0
 21 20  1  0
 21 24  1  0
 22 23  1  0
 22 19  1  0
 23 21  2  0
 24 25  1  0
 25 26  2  0
 27 30  1  0
 27 26  1  0
 28 27  2  0
 29 28  1  0
 29 24  2  0
 30 31  1  0
 31 36  2  0
 31 32  1  0
 32 33  2  0
 33 34  1  0
 34 38  1  0
 35 34  2  0
 36 35  1  0
 37 36  1  0
 39 40  1  0
 40 43  1  0
 40 42  1  0
 41 39  2  0
 44 45  1  0
 44 19  1  0
 46 44  1  0
 47 48  1  0
 47  4  1  0
 49 60  2  0
 50 48  1  0
 50 55  1  0
 51 59  1  0
 51 61  1  0
 52 58  1  0
 52 54  1  0
 53 59  1  0
 54 53  1  0
 55 54  2  0
 56 57  1  0
 56 50  2  0
 57 52  2  0
 58 51  1  0
 59 49  1  0
 61 63  2  0
 62 61  1  0
 64 62  1  0
 65 74  2  0
 65 70  1  0
 66 62  1  0
 66 70  1  0
 67 66  1  0
 68 69  1  0
 68 67  1  0
 69 65  1  0
 70 71  2  0
 71 72  1  0
 73 72  2  0
 74 73  1  0
 75 49  1  0
 75 76  1  0
 75 85  1  0
 76 79  1  0
 77 81  1  0
 77 76  1  0
 78 77  2  0
 81 80  1  0
 83 81  1  0
 83 84  1  0
 83 82  1  0
 85 88  1  1
 85 86  1  0
 87 85  1  0
M  ISO  4   9 100  18 100  47 101  48 101
M  END
>  <TORSDO>  (5) 
F 18

>  <SCORE>  (5) 
-15.529

>  <name>  (5) 
5

>  <ligand_id>  (5) 
5

>  <original_smiles>  (5) 
[H]c1nc(C([H])([H])Oc2c([H])c([H])c3c(c2[H])C([H])([H])N(C(=O)C([H])(N([H])C(=O)C([H])(N([H])C([H])([H])[H])C([H])([H])[H])C(C([H])([H])[H])(C([H])([H])[H])C([H])([H])[H])C([H])(C(=O)N([H])C2([H])c4c([H])c([H])c([H])c([H])c4C([H])([H])C([H])([H])C2([H])[H])C3([H])[H])c(C([H])([H])[H])nc1C([H])([H])N(C(=O)N1C([H])([H])C([H])([H])C([H])([H])C([H])(n2nc(-c3c([H])c([H])c(Oc4c([H])c([H])c(F)c([H])c4F)c([H])c3[H])c(C(=O)N([H])[H])c2N([H])[H])C1([H])[H])C([H])([H])[H]

>  <smiles>  (5) 
[H]c1nc(C([H])([H])Oc2c([H])c([H])c3c(c2[H])C([H])([H])N(C(=O)C([H])(N([H])C(=O)C([H])(N([H])C([H])([H])[H])C([H])([H])[H])C(C([H])([H])[H])(C([H])([H])[H])C([H])([H])[H])C([H])(C(=O)N([H])C2([H])c4c([H])c([H])c([H])c([H])c4C([H])([H])C([H])([H])C2([H])[H])C3([H])[H])c(C([H])([H])[H])nc1C([H])([H])N(C(=O)N1C([H])([H])C([H])([H])C([H])([H])C([H])(n2nc(-c3c([H])c([H])c(Oc4c([H])c([H])c(F)c([H])c4F)c([H])c3[H])c(C(=O)N([H])[H])c2N([H])[H])C1([H])[H])C([H])([H])[H]

$$$$
6:0:0
     RDKit          3D

 89 97  0  0  1  0  0  0  0  0999 V2000
  -29.5910  -22.0960   21.0050 C   0  0  0  0  0  3  0  0  0  0  0  0
  -28.6180  -22.7310   20.1240 C   0  0  0  0  0  0  0  0  0  0  0  0
  -29.4420  -19.7760   20.1250 C   0  0  0  0  0  0  0  0  0  0  0  0
  -29.9760  -20.7200   20.9770 N   0  0  0  0  0  0  0  0  0  0  0  0
  -28.1370  -21.7080   19.2900 N   0  0  0  0  0  0  0  0  0  0  0  0
  -28.5300  -20.3520   19.2590 N   0  0  0  0  0  2  0  0  0  0  0  0
  -29.7660  -22.6260   23.4770 C   0  0  0  0  0  1  0  0  0  0  0  0
  -30.2930  -22.9190   22.0690 C   0  0  0  0  0  2  0  0  0  0  0  0
  -27.8120  -24.2910   20.1480 C   0  0  0  0  0  2  0  0  0  0  0  0
  -28.1920  -25.8800   20.3080 O   0  0  0  0  0  0  0  0  0  0  0  0
  -24.6560  -31.8790   23.2600 C   0  0  0  0  0  0  0  0  0  0  0  0
  -27.1940  -26.9870   20.2520 C   0  0  0  0  0  0  0  0  0  0  0  0
  -23.4560  -30.4840   21.6260 C   0  0  0  0  0  3  0  0  0  0  0  0
  -24.8990  -28.8720   20.2100 C   0  0  0  0  0  0  0  0  0  0  0  0
  -26.0270  -30.6790   21.4870 C   0  0  0  0  0  2  0  0  0  0  0  0
  -26.0910  -29.2710   20.8290 C   0  0  0  0  0  0  0  0  0  0  0  0
  -27.2330  -28.3510   20.8260 C   0  0  0  0  0  3  0  0  0  0  0  0
  -25.9670  -26.7400   19.5920 C   0  0  0  0  0  3  0  0  0  0  0  0
  -24.8600  -27.6230   19.5750 C   0  0  0  0  0  3  0  0  0  0  0  0
  -23.6860  -29.7990   20.2520 C   0  0  0  0  0  2  0  0  0  0  0  0
  -24.7350  -31.0420   22.1760 N   0  0  0  0  0  0  0  0  0  0  0  0
  -23.5670  -32.1790   23.7770 O   0  0  0  0  0  0  0  0  0  0  0  0
  -22.7560  -29.4950   22.5940 C   0  0  0  0  0  0  0  0  0  0  0  0
  -21.4270  -29.3290   22.4650 N   0  0  0  0  0  0  0  0  0  0  0  0
  -23.4170  -28.8750   23.4320 O   0  0  0  0  0  0  0  0  0  0  0  0
  -20.9460  -29.8830   21.7710 H   0  0  0  0  0  0  0  0  0  0  0  0
  -18.0420  -28.1140   22.9520 C   0  0  0  0  0  0  0  0  0  0  0  0
  -20.5990  -28.3960   23.2380 C   0  0  0  0  0  3  0  0  0  0  0  0
  -20.7120  -26.9560   22.6820 C   0  0  0  0  0  2  0  0  0  0  0  0
  -19.6210  -26.6180   21.6590 C   0  0  0  0  0  2  0  0  0  0  0  0
  -18.2330  -26.7600   22.2880 C   0  0  0  0  0  2  0  0  0  0  0  0
  -19.1530  -28.8880   23.3830 C   0  0  0  0  0  0  0  0  0  0  0  0
  -18.9200  -30.1530   23.9650 C   0  0  0  0  0  3  0  0  0  0  0  0
  -17.6090  -30.6440   24.1200 C   0  0  0  0  0  3  0  0  0  0  0  0
  -16.5130  -29.8670   23.7050 C   0  0  0  0  0  3  0  0  0  0  0  0
  -16.7310  -28.6040   23.1260 C   0  0  0  0  0  3  0  0  0  0  0  0
  -25.9300  -32.5170   23.8900 C   0  0  0  0  0  3  0  0  0  0  0  0
  -26.4280  -31.7580   25.1830 C   0  0  1  0  0  0  0  0  0  0  0  0
  -25.3230  -31.5400   26.2440 C   0  0  0  0  0  1  0  0  0  0  0  0
  -27.0080  -30.3700   24.8260 C   0  0  0  0  0  1  0  0  0  0  0  0
  -27.5750  -32.5570   25.8450 C   0  0  0  0  0  1  0  0  0  0  0  0
  -25.6190  -33.9190   24.2180 N   0  0  0  0  0  0  0  0  0  0  0  0
  -25.9370  -34.9780   23.4570 C   0  0  0  0  0  0  0  0  0  0  0  0
  -26.5860  -34.8730   22.4130 O   0  0  0  0  0  0  0  0  0  0  0  0
  -25.0370  -34.0730   25.0290 H   0  0  0  0  0  0  0  0  0  0  0  0
  -24.1910  -36.7710   23.1680 C   0  0  0  0  0  1  0  0  0  0  0  0
  -25.4630  -36.3680   23.9300 C   0  0  0  0  0  3  0  0  0  0  0  0
  -27.6220  -37.2730   24.6750 C   0  0  0  0  0  1  0  0  0  0  0  0
  -26.4860  -37.4250   23.7710 N   0  0  0  0  0  0  0  0  0  0  0  0
  -26.0800  -38.3440   23.9240 H   0  0  0  0  0  0  0  0  0  0  0  0
  -30.1560  -18.1960   19.8960 C   0  0  0  0  0  2  0  0  0  0  0  0
  -30.4770  -15.3180   20.0090 C   0  0  0  0  0  0  0  0  0  0  0  0
  -30.3720  -12.9200   19.0140 C   0  0  0  0  0  2  0  0  0  0  0  0
  -29.3670  -12.7600   17.8430 C   0  0  0  0  0  2  0  0  0  0  0  0
  -27.9460  -12.4750   18.3590 C   0  0  0  0  0  2  0  0  0  0  0  0
  -27.5770  -13.3720   19.5650 C   0  0  0  0  0  3  0  0  0  0  0  0
  -28.7070  -13.4330   20.6170 C   0  0  0  0  0  2  0  0  0  0  0  0
  -29.8850  -14.0150   19.9360 N   0  0  0  0  0  0  0  0  0  0  0  0
  -31.6620  -15.3090   19.6440 O   0  0  0  0  0  0  0  0  0  0  0  0
  -28.6080  -16.6120   21.1020 C   0  0  0  0  0  1  0  0  0  0  0  0
  -29.7740  -16.6170   20.2290 N   0  0  0  0  0  0  0  0  0  0  0  0
  -25.2420  -13.8930   20.4630 C   0  0  0  0  0  0  0  0  0  0  0  0
  -24.2130  -13.0980   20.8780 C   0  0  0  0  0  0  0  0  0  0  0  0
  -24.6870  -11.7550   20.7800 C   0  0  0  0  0  0  0  0  0  0  0  0
  -26.2810  -13.0360   20.1400 N   0  0  0  0  0  0  0  0  0  0  0  0
  -25.9600  -11.7400   20.3940 N   0  0  0  0  0  0  0  0  0  0  0  0
  -23.9770  -10.4840   20.9690 C   0  0  0  0  0  0  0  0  0  0  0  0
  -24.4310   -9.5150   21.8900 C   0  0  0  0  0  3  0  0  0  0  0  0
  -23.7180   -8.3110   22.0710 C   0  0  0  0  0  3  0  0  0  0  0  0
  -22.5350   -8.0690   21.3310 C   0  0  0  0  0  0  0  0  0  0  0  0
  -22.1020   -9.0260   20.3970 C   0  0  0  0  0  3  0  0  0  0  0  0
  -22.8160  -10.2210   20.2150 C   0  0  0  0  0  3  0  0  0  0  0  0
  -21.7910   -6.9170   21.4240 O   0  0  0  0  0  0  0  0  0  0  0  0
  -21.7160   -6.2010   22.5920 C   0  0  0  0  0  0  0  0  0  0  0  0
  -21.2430   -6.7780   23.7900 C   0  0  0  0  0  3  0  0  0  0  0  0
  -21.1150   -5.9860   24.9490 C   0  0  0  0  0  3  0  0  0  0  0  0
  -21.4520   -4.6210   24.9110 C   0  0  0  0  0  0  0  0  0  0  0  0
  -21.9200   -4.0440   23.7170 C   0  0  0  0  0  3  0  0  0  0  0  0
  -22.0480   -4.8310   22.5600 C   0  0  0  0  0  0  0  0  0  0  0  0
  -22.4770   -4.2650   21.4070 F   0  0  0  0  0  0  0  0  0  0  0  0
  -21.3220   -3.8580   26.0220 F   0  0  0  0  0  0  0  0  0  0  0  0
  -22.8320  -13.5580   21.2410 C   0  0  0  0  0  0  0  0  0  0  0  0
  -22.1610  -12.8360   22.1310 N   0  0  0  0  0  0  0  0  0  0  0  0
  -22.3580  -14.5930   20.7710 O   0  0  0  0  0  0  0  0  0  0  0  0
  -22.5650  -12.0060   22.5400 H   0  0  0  0  0  0  0  0  0  0  0  0
  -21.2310  -13.1150   22.4080 H   0  0  0  0  0  0  0  0  0  0  0  0
  -25.3600  -15.2680   20.3020 N   0  0  0  0  0  0  0  0  0  0  0  0
  -24.5750  -15.8890   20.4640 H   0  0  0  0  0  0  0  0  0  0  0  0
  -26.1580  -15.7350   19.8950 H   0  0  0  0  0  0  0  0  0  0  0  0
  1  8  1  0
  2  9  1  0
  2  1  1  0
  3  4  2  0
  4  1  1  0
  5  2  2  0
  6  5  1  0
  6  3  1  0
  8  7  1  0
  9 10  1  0
 11 22  2  0
 12 10  1  0
 12 17  1  0
 13 21  1  0
 13 23  1  0
 14 20  1  0
 14 16  1  0
 15 21  1  0
 16 15  1  0
 17 16  2  0
 18 12  2  0
 19 18  1  0
 19 14  2  0
 20 13  1  0
 21 11  1  0
 23 25  2  0
 24 23  1  0
 26 24  1  0
 27 36  2  0
 27 32  1  0
 28 24  1  0
 28 32  1  0
 29 28  1  0
 30 31  1  0
 30 29  1  0
 31 27  1  0
 32 33  2  0
 33 34  1  0
 35 34  2  0
 36 35  1  0
 37 11  1  0
 37 42  1  0
 37 38  1  0
 38 41  1  1
 38 39  1  0
 40 38  1  0
 42 45  1  0
 43 47  1  0
 43 42  1  0
 44 43  2  0
 47 46  1  0
 49 50  1  0
 49 47  1  0
 49 48  1  0
 51  3  1  0
 51 61  1  0
 52 61  1  0
 53 58  1  0
 54 55  1  0
 54 53  1  0
 56 55  1  0
 56 65  1  0
 56 57  1  0
 58 52  1  0
 58 57  1  0
 59 52  2  0
 61 60  1  0
 62 63  2  0
 63 82  1  0
 64 63  1  0
 64 67  1  0
 65 66  1  0
 65 62  1  0
 66 64  2  0
 67 68  1  0
 68 69  2  0
 70 73  1  0
 70 69  1  0
 71 70  2  0
 72 71  1  0
 72 67  2  0
 73 74  1  0
 74 75  1  0
 75 76  2  0
 77 76  1  0
 77 81  1  0
 78 77  2  0
 79 74  2  0
 79 78  1  0
 80 79  1  0
 82 83  1  0
 83 86  1  0
 83 85  1  0
 84 82  2  0
 87 62  1  0
 87 88  1  0
 89 87  1  0
M  ISO  4   9 101  10 101  52 100  61 100
M  END
>  <TORSDO>  (6) 
F 19

>  <SCORE>  (6) 
-15.398

>  <name>  (6) 
6

>  <ligand_id>  (6) 
6

>  <original_smiles>  (6) 
[H]c1c([H])c([H])c2c(c1[H])C([H])([H])C([H])([H])C([H])([H])C2([H])N([H])C(=O)C1([H])N(C(=O)C([H])(N([H])C(=O)C([H])(N([H])C([H])([H])[H])C([H])([H])[H])C(C([H])([H])[H])(C([H])([H])[H])C([H])([H])[H])C([H])([H])c2c([H])c(OC([H])([H])c3nnc(C([H])([H])N(C(=O)N4C([H])([H])C([H])([H])C([H])([H])C([H])(n5nc(-c6c([H])c([H])c(Oc7c([H])c([H])c(F)c([H])c7F)c([H])c6[H])c(C(=O)N([H])[H])c5N([H])[H])C4([H])[H])C([H])([H])[H])nc3C([H])([H])C([H])([H])[H])c([H])c([H])c2C1([H])[H]

>  <smiles>  (6) 
[H]c1c([H])c([H])c2c(c1[H])C([H])([H])C([H])([H])C([H])([H])C2([H])N([H])C(=O)C1([H])N(C(=O)C([H])(N([H])C(=O)C([H])(N([H])C([H])([H])[H])C([H])([H])[H])C(C([H])([H])[H])(C([H])([H])[H])C([H])([H])[H])C([H])([H])c2c([H])c(OC([H])([H])c3nnc(C([H])([H])N(C(=O)N4C([H])([H])C([H])([H])C([H])([H])C([H])(n5nc(-c6c([H])c([H])c(Oc7c([H])c([H])c(F)c([H])c7F)c([H])c6[H])c(C(=O)N([H])[H])c5N([H])[H])C4([H])[H])C([H])([H])[H])nc3C([H])([H])C([H])([H])[H])c([H])c([H])c2C1([H])[H]

$$$$
7:0:0
     RDKit          3D

 94102  0  0  1  0  0  0  0  0999 V2000
  -26.1640  -22.6500   19.5280 C   0  0  0  0  0  2  0  0  0  0  0  0
  -28.1960  -22.0080   20.1520 C   0  0  0  0  0  0  0  0  0  0  0  0
  -27.8420  -24.1180   19.4140 C   0  0  0  0  0  0  0  0  0  0  0  0
  -26.9250  -21.6700   19.9990 N   0  0  0  0  0  0  0  0  0  0  0  0
  -26.5530  -23.8710   19.2040 N   0  0  0  0  0  0  0  0  0  0  0  0
  -28.7230  -23.2140   19.8790 N   0  0  0  0  0  2  0  0  0  0  0  0
  -29.0880  -20.9090   20.7760 C   0  0  0  0  0  3  0  0  0  0  0  0
  -29.4810  -19.7030   19.8470 C   0  0  0  0  0  3  0  0  0  0  0  0
  -31.7030  -19.1850   20.7870 C   0  0  0  0  0  1  0  0  0  0  0  0
  -30.3570  -18.6310   20.4800 N   0  0  2  0  0  4  0  0  0  0  0  0
  -29.9300  -18.4260   21.3720 H   0  0  0  0  0  0  0  0  0  0  0  0
  -29.6380  -17.1560   18.4860 C   0  0  0  0  0  1  0  0  0  0  0  0
  -30.4680  -17.2670   19.7940 C   0  0  0  0  0  3  0  0  0  0  0  0
  -31.1430  -16.1180   22.0270 C   0  0  0  0  0  1  0  0  0  0  0  0
  -28.7850  -16.0790   21.2690 C   0  0  0  0  0  1  0  0  0  0  0  0
  -30.2490  -16.0070   20.7680 C   0  0  1  0  0  0  0  0  0  0  0  0
  -30.7500  -14.6500   20.0820 C   0  0  0  0  0  0  0  0  0  0  0  0
  -30.4500  -12.4500   18.9630 C   0  0  0  0  0  2  0  0  0  0  0  0
  -29.4780  -12.6040   17.7720 C   0  0  0  0  0  2  0  0  0  0  0  0
  -28.0160  -12.4420   18.2350 C   0  0  0  0  0  2  0  0  0  0  0  0
  -27.6990  -13.2850   19.4930 C   0  0  0  0  0  3  0  0  0  0  0  0
  -28.7870  -13.0690   20.5700 C   0  0  0  0  0  2  0  0  0  0  0  0
  -30.0750  -13.4570   19.9830 N   0  0  0  0  0  0  0  0  0  0  0  0
  -31.8610  -14.7340   19.5470 O   0  0  0  0  0  0  0  0  0  0  0  0
  -25.3300  -13.9060   20.2790 C   0  0  0  0  0  0  0  0  0  0  0  0
  -24.2760  -13.1340   20.6920 C   0  0  0  0  0  0  0  0  0  0  0  0
  -24.7360  -11.7860   20.6520 C   0  0  0  0  0  0  0  0  0  0  0  0
  -26.3640  -13.0200   20.0170 N   0  0  0  0  0  0  0  0  0  0  0  0
  -26.0130  -11.7420   20.3000 N   0  0  0  0  0  0  0  0  0  0  0  0
  -24.0180  -10.5260   20.8690 C   0  0  0  0  0  0  0  0  0  0  0  0
  -24.4560   -9.5800   21.8200 C   0  0  0  0  0  3  0  0  0  0  0  0
  -23.7340   -8.3830   22.0230 C   0  0  0  0  0  3  0  0  0  0  0  0
  -22.5620   -8.1240   21.2720 C   0  0  0  0  0  0  0  0  0  0  0  0
  -22.1490   -9.0590   20.3060 C   0  0  0  0  0  3  0  0  0  0  0  0
  -22.8710  -10.2470   20.1020 C   0  0  0  0  0  3  0  0  0  0  0  0
  -21.8150   -6.9760   21.3820 O   0  0  0  0  0  0  0  0  0  0  0  0
  -21.7330   -6.2800   22.5600 C   0  0  0  0  0  0  0  0  0  0  0  0
  -21.2770   -6.8840   23.7520 C   0  0  0  0  0  3  0  0  0  0  0  0
  -21.1370   -6.1140   24.9240 C   0  0  0  0  0  3  0  0  0  0  0  0
  -21.4470   -4.7410   24.9050 C   0  0  0  0  0  0  0  0  0  0  0  0
  -21.8980   -4.1360   23.7180 C   0  0  0  0  0  3  0  0  0  0  0  0
  -22.0360   -4.9020   22.5470 C   0  0  0  0  0  0  0  0  0  0  0  0
  -22.4490   -4.3110   21.4020 F   0  0  0  0  0  0  0  0  0  0  0  0
  -21.3080   -3.9990   26.0270 F   0  0  0  0  0  0  0  0  0  0  0  0
  -22.8880  -13.6140   21.0030 C   0  0  0  0  0  0  0  0  0  0  0  0
  -22.1890  -12.9240   21.9000 N   0  0  0  0  0  0  0  0  0  0  0  0
  -22.4320  -14.6340   20.4870 O   0  0  0  0  0  0  0  0  0  0  0  0
  -22.5740  -12.1010   22.3420 H   0  0  0  0  0  0  0  0  0  0  0  0
  -21.2530  -13.2160   22.1400 H   0  0  0  0  0  0  0  0  0  0  0  0
  -25.4760  -15.2750   20.0810 N   0  0  0  0  0  0  0  0  0  0  0  0
  -24.7040  -15.9200   20.1990 H   0  0  0  0  0  0  0  0  0  0  0  0
  -26.2910  -15.7130   19.6760 H   0  0  0  0  0  0  0  0  0  0  0  0
  -28.3530  -25.5170   18.9420 C   0  0  0  0  0  2  0  0  0  0  0  0
  -28.2830  -26.6660   19.8590 O   0  0  0  0  0  0  0  0  0  0  0  0
  -24.6120  -31.9060   23.2060 C   0  0  0  0  0  0  0  0  0  0  0  0
  -27.1360  -27.4530   19.9250 C   0  0  0  0  0  0  0  0  0  0  0  0
  -23.3640  -30.5390   21.5800 C   0  0  0  0  0  3  0  0  0  0  0  0
  -24.7630  -29.0190   20.0950 C   0  0  0  0  0  0  0  0  0  0  0  0
  -25.8960  -30.8630   21.3280 C   0  0  0  0  0  2  0  0  0  0  0  0
  -25.9520  -29.4970   20.6600 C   0  0  0  0  0  0  0  0  0  0  0  0
  -27.1390  -28.7160   20.5880 C   0  0  0  0  0  3  0  0  0  0  0  0
  -25.9230  -27.0340   19.3340 C   0  0  0  0  0  3  0  0  0  0  0  0
  -24.7440  -27.7800   19.4450 C   0  0  0  0  0  3  0  0  0  0  0  0
  -23.5370  -29.8960   20.1830 C   0  0  0  0  0  2  0  0  0  0  0  0
  -24.6450  -31.1170   22.0960 N   0  0  0  0  0  0  0  0  0  0  0  0
  -23.5430  -32.1760   23.7720 O   0  0  0  0  0  0  0  0  0  0  0  0
  -22.7320  -29.4980   22.5320 C   0  0  0  0  0  0  0  0  0  0  0  0
  -21.4060  -29.3080   22.4210 N   0  0  0  0  0  0  0  0  0  0  0  0
  -23.4300  -28.8650   23.3290 O   0  0  0  0  0  0  0  0  0  0  0  0
  -20.9040  -29.8740   21.7510 H   0  0  0  0  0  0  0  0  0  0  0  0
  -18.0490  -28.0640   22.9280 C   0  0  0  0  0  0  0  0  0  0  0  0
  -20.6040  -28.3550   23.1890 C   0  0  0  0  0  3  0  0  0  0  0  0
  -20.7240  -26.9290   22.6040 C   0  0  0  0  0  2  0  0  0  0  0  0
  -19.6210  -26.5940   21.5950 C   0  0  0  0  0  2  0  0  0  0  0  0
  -18.2400  -26.7190   22.2440 C   0  0  0  0  0  2  0  0  0  0  0  0
  -19.1590  -28.8380   23.3550 C   0  0  0  0  0  0  0  0  0  0  0  0
  -18.9270  -30.0960   23.9500 C   0  0  0  0  0  3  0  0  0  0  0  0
  -17.6150  -30.5810   24.1230 C   0  0  0  0  0  3  0  0  0  0  0  0
  -16.5200  -29.8020   23.7130 C   0  0  0  0  0  3  0  0  0  0  0  0
  -16.7370  -28.5450   23.1220 C   0  0  0  0  0  3  0  0  0  0  0  0
  -25.9120  -32.5280   23.8040 C   0  0  0  0  0  3  0  0  0  0  0  0
  -25.6130  -33.9220   24.1610 N   0  0  0  0  0  0  0  0  0  0  0  0
  -25.9280  -34.9830   23.4060 C   0  0  0  0  0  0  0  0  0  0  0  0
  -26.5730  -34.8900   22.3580 O   0  0  0  0  0  0  0  0  0  0  0  0
  -25.0440  -34.0660   24.9810 H   0  0  0  0  0  0  0  0  0  0  0  0
  -24.1950  -36.7820   23.1110 C   0  0  0  0  0  1  0  0  0  0  0  0
  -25.4520  -36.3660   23.8910 C   0  0  0  0  0  3  0  0  0  0  0  0
  -27.6090  -37.2330   24.6850 C   0  0  0  0  0  1  0  0  0  0  0  0
  -26.4850  -37.4180   23.7700 N   0  0  0  0  0  0  0  0  0  0  0  0
  -26.0850  -38.3370   23.9410 H   0  0  0  0  0  0  0  0  0  0  0  0
  -26.4530  -31.7360   25.0570 C   0  0  1  0  0  0  0  0  0  0  0  0
  -25.3830  -31.4890   26.1480 C   0  0  0  0  0  1  0  0  0  0  0  0
  -27.0200  -30.3630   24.6290 C   0  0  0  0  0  1  0  0  0  0  0  0
  -27.6210  -32.5170   25.7040 C   0  0  0  0  0  1  0  0  0  0  0  0
  1  4  1  0
  2  7  1  0
  3  6  1  0
  4  2  2  0
  5  3  2  0
  5  1  1  0
  6  2  1  0
  8 10  1  0
  8  7  2  0
 10  9  1  0
 10 11  1  1
 13 12  1  0
 13 10  1  0
 13 16  1  0
 16 15  1  1
 16 14  1  0
 17 16  1  0
 18 23  1  0
 19 20  1  0
 19 18  1  0
 21 20  1  0
 21 28  1  0
 21 22  1  0
 23 17  1  0
 23 22  1  0
 24 17  2  0
 25 26  2  0
 26 45  1  0
 27 26  1  0
 27 30  1  0
 28 25  1  0
 28 29  1  0
 29 27  2  0
 30 31  1  0
 31 32  2  0
 33 36  1  0
 33 32  1  0
 34 33  2  0
 35 34  1  0
 35 30  2  0
 36 37  1  0
 37 38  1  0
 38 39  2  0
 40 39  1  0
 40 44  1  0
 41 40  2  0
 42 37  2  0
 42 41  1  0
 43 42  1  0
 45 46  1  0
 46 49  1  0
 46 48  1  0
 47 45  2  0
 50 51  1  0
 50 25  1  0
 52 50  1  0
 53  3  1  0
 53 54  1  0
 54 56  1  0
 55 66  2  0
 56 61  1  0
 57 65  1  0
 57 67  1  0
 58 64  1  0
 58 60  1  0
 59 65  1  0
 60 59  1  0
 61 60  2  0
 62 63  1  0
 62 56  2  0
 63 58  2  0
 64 57  1  0
 65 55  1  0
 67 69  2  0
 68 67  1  0
 70 68  1  0
 71 80  2  0
 71 76  1  0
 72 68  1  0
 72 76  1  0
 73 72  1  0
 74 75  1  0
 74 73  1  0
 75 71  1  0
 76 77  2  0
 77 78  1  0
 79 78  2  0
 80 79  1  0
 81 55  1  0
 81 82  1  0
 81 91  1  0
 82 85  1  0
 83 87  1  0
 83 82  1  0
 84 83  2  0
 87 86  1  0
 89 87  1  0
 89 90  1  0
 89 88  1  0
 91 94  1  1
 91 92  1  0
 93 91  1  0
M  ISO  4  16 100  17 100  53 101  54 101
M  END
>  <TORSDO>  (7) 
F 22

>  <SCORE>  (7) 
-12.430

>  <name>  (7) 
7

>  <ligand_id>  (7) 
7

>  <original_smiles>  (7) 
[H]c1nc(C([H])([H])Oc2c([H])c([H])c3c(c2[H])C([H])([H])N(C(=O)C([H])(N([H])C(=O)C([H])(N([H])C([H])([H])[H])C([H])([H])[H])C(C([H])([H])[H])(C([H])([H])[H])C([H])([H])[H])C([H])(C(=O)N([H])C2([H])c4c([H])c([H])c([H])c([H])c4C([H])([H])C([H])([H])C2([H])[H])C3([H])[H])nc(C([H])([H])C([H])([H])[N+]([H])(C([H])([H])[H])C([H])(C([H])([H])[H])C(C(=O)N2C([H])([H])C([H])([H])C([H])([H])C([H])(n3nc(-c4c([H])c([H])c(Oc5c([H])c([H])c(F)c([H])c5F)c([H])c4[H])c(C(=O)N([H])[H])c3N([H])[H])C2([H])[H])(C([H])([H])[H])C([H])([H])[H])n1

>  <smiles>  (7) 
[H]c1nc(C([H])([H])Oc2c([H])c([H])c3c(c2[H])C([H])([H])N(C(=O)C([H])(N([H])C(=O)C([H])(N([H])C([H])([H])[H])C([H])([H])[H])C(C([H])([H])[H])(C([H])([H])[H])C([H])([H])[H])C([H])(C(=O)N([H])C2([H])c4c([H])c([H])c([H])c([H])c4C([H])([H])C([H])([H])C2([H])[H])C3([H])[H])nc(C([H])([H])C([H])([H])[N+]([H])(C([H])([H])[H])C([H])(C([H])([H])[H])C(C(=O)N2C([H])([H])C([H])([H])C([H])([H])C([H])(n3nc(-c4c([H])c([H])c(Oc5c([H])c([H])c(F)c([H])c5F)c([H])c4[H])c(C(=O)N([H])[H])c3N([H])[H])C2([H])[H])(C([H])([H])[H])C([H])([H])[H])n1

$$$$
9:0:0
     RDKit          3D

 92100  0  0  1  0  0  0  0  0999 V2000
  -28.2860  -21.6220   19.4360 C   0  0  0  0  0  3  0  0  0  0  0  0
  -29.3490  -22.4030   19.8550 C   0  0  0  0  0  0  0  0  0  0  0  0
  -29.8920  -19.8980   19.5200 C   0  0  0  0  0  3  0  0  0  0  0  0
  -28.5800  -20.2330   19.2430 N   0  0  0  0  0  0  0  0  0  0  0  0
  -30.3070  -21.2490   19.8770 N   0  0  0  0  0  0  0  0  0  0  0  0
  -31.2730  -21.4280   20.1170 H   0  0  0  0  0  0  0  0  0  0  0  0
  -27.6770  -17.8460   18.9620 C   0  0  0  0  0  1  0  0  0  0  0  0
  -27.4890  -19.5190   17.1350 C   0  0  0  0  0  1  0  0  0  0  0  0
  -26.1230  -19.7630   19.2300 C   0  0  0  0  0  1  0  0  0  0  0  0
  -27.5090  -19.3460   18.6720 C   0  0  2  0  0  0  0  0  0  0  0  0
  -31.7300  -18.3450   18.3280 C   0  0  0  0  0  1  0  0  0  0  0  0
  -30.7960  -18.3200   19.5560 C   0  0  0  0  0  0  0  0  0  0  0  0
  -31.1370  -15.3240   19.8560 C   0  0  0  0  0  0  0  0  0  0  0  0
  -31.0200  -12.7930   19.1750 C   0  0  0  0  0  2  0  0  0  0  0  0
  -30.0530  -12.4630   18.0110 C   0  0  0  0  0  2  0  0  0  0  0  0
  -28.6190  -12.2670   18.5220 C   0  0  0  0  0  2  0  0  0  0  0  0
  -28.2290  -13.3330   19.5700 C   0  0  0  0  0  3  0  0  0  0  0  0
  -29.3190  -13.5800   20.6340 C   0  0  0  0  0  2  0  0  0  0  0  0
  -30.5230  -14.0260   19.9090 N   0  0  0  0  0  0  0  0  0  0  0  0
  -32.3590  -15.2260   19.6580 O   0  0  0  0  0  0  0  0  0  0  0  0
  -30.4400  -16.6630   19.8160 N   0  0  0  0  0  4  0  0  0  0  0  0
  -29.4470  -16.5300   19.9180 H   0  0  0  0  0  0  0  0  0  0  0  0
  -25.9550  -14.0200   20.4830 C   0  0  0  0  0  0  0  0  0  0  0  0
  -24.8600  -13.3040   20.8780 C   0  0  0  0  0  0  0  0  0  0  0  0
  -25.2240  -11.9270   20.7640 C   0  0  0  0  0  0  0  0  0  0  0  0
  -26.9170  -13.0850   20.1490 N   0  0  0  0  0  0  0  0  0  0  0  0
  -26.4930  -11.8150   20.3840 N   0  0  0  0  0  0  0  0  0  0  0  0
  -24.4130  -10.7130   20.9340 C   0  0  0  0  0  0  0  0  0  0  0  0
  -24.7200   -9.7470   21.9170 C   0  0  0  0  0  3  0  0  0  0  0  0
  -23.9110   -8.6010   22.0730 C   0  0  0  0  0  3  0  0  0  0  0  0
  -22.7760   -8.4150   21.2460 C   0  0  0  0  0  0  0  0  0  0  0  0
  -22.4880   -9.3680   20.2530 C   0  0  0  0  0  3  0  0  0  0  0  0
  -23.3010  -10.5040   20.0950 C   0  0  0  0  0  3  0  0  0  0  0  0
  -21.9460   -7.3220   21.3100 O   0  0  0  0  0  0  0  0  0  0  0  0
  -21.6200   -6.7360   22.5060 C   0  0  0  0  0  0  0  0  0  0  0  0
  -21.0120   -7.4630   23.5520 C   0  0  0  0  0  3  0  0  0  0  0  0
  -20.6330   -6.8040   24.7390 C   0  0  0  0  0  3  0  0  0  0  0  0
  -20.8510   -5.4190   24.8750 C   0  0  0  0  0  0  0  0  0  0  0  0
  -21.4500   -4.6930   23.8310 C   0  0  0  0  0  3  0  0  0  0  0  0
  -21.8290   -5.3490   22.6490 C   0  0  0  0  0  0  0  0  0  0  0  0
  -22.3880   -4.6410   21.6380 F   0  0  0  0  0  0  0  0  0  0  0  0
  -20.4770   -4.7830   26.0110 F   0  0  0  0  0  0  0  0  0  0  0  0
  -23.5190  -13.8690   21.2420 C   0  0  0  0  0  0  0  0  0  0  0  0
  -22.8020  -13.2080   22.1430 N   0  0  0  0  0  0  0  0  0  0  0  0
  -23.1240  -14.9330   20.7640 O   0  0  0  0  0  0  0  0  0  0  0  0
  -23.1380  -12.3420   22.5380 H   0  0  0  0  0  0  0  0  0  0  0  0
  -21.9100  -13.5740   22.4420 H   0  0  0  0  0  0  0  0  0  0  0  0
  -26.2090  -15.3800   20.3500 N   0  0  0  0  0  0  0  0  0  0  0  0
  -25.4920  -16.0790   20.5170 H   0  0  0  0  0  0  0  0  0  0  0  0
  -27.0400  -15.7600   19.9210 H   0  0  0  0  0  0  0  0  0  0  0  0
  -29.4690  -24.1940   19.9120 C   0  0  0  0  0  2  0  0  0  0  0  0
  -28.9170  -25.4910   20.8430 O   0  0  0  0  0  0  0  0  0  0  0  0
  -24.7240  -31.3230   23.3770 C   0  0  0  0  0  0  0  0  0  0  0  0
  -27.8890  -26.5810   20.6100 C   0  0  0  0  0  0  0  0  0  0  0  0
  -23.8050  -29.8750   21.6150 C   0  0  0  0  0  3  0  0  0  0  0  0
  -25.4970  -28.3740   20.3370 C   0  0  0  0  0  0  0  0  0  0  0  0
  -26.3580  -30.2200   21.7580 C   0  0  0  0  0  2  0  0  0  0  0  0
  -26.5840  -28.8190   21.0970 C   0  0  0  0  0  0  0  0  0  0  0  0
  -27.7660  -27.9430   21.2130 C   0  0  0  0  0  3  0  0  0  0  0  0
  -26.7670  -26.3120   19.7880 C   0  0  0  0  0  3  0  0  0  0  0  0
  -25.6190  -27.1440   19.6680 C   0  0  0  0  0  3  0  0  0  0  0  0
  -24.2270  -29.2270   20.2660 C   0  0  0  0  0  2  0  0  0  0  0  0
  -24.9760  -30.5020   22.3050 N   0  0  0  0  0  0  0  0  0  0  0  0
  -23.5670  -31.5430   23.7740 O   0  0  0  0  0  0  0  0  0  0  0  0
  -23.0670  -28.8290   22.4960 C   0  0  0  0  0  0  0  0  0  0  0  0
  -21.7790  -28.5590   22.2030 N   0  0  0  0  0  0  0  0  0  0  0  0
  -23.6630  -28.2650   23.4160 O   0  0  0  0  0  0  0  0  0  0  0  0
  -21.3450  -29.0680   21.4460 H   0  0  0  0  0  0  0  0  0  0  0  0
  -18.4580  -27.0980   22.3190 C   0  0  0  0  0  0  0  0  0  0  0  0
  -20.9430  -27.5560   22.8750 C   0  0  0  0  0  3  0  0  0  0  0  0
  -21.2170  -26.1390   22.3220 C   0  0  0  0  0  2  0  0  0  0  0  0
  -20.2690  -25.7370   21.1880 C   0  0  0  0  0  2  0  0  0  0  0  0
  -18.8150  -25.7720   21.6690 C   0  0  0  0  0  2  0  0  0  0  0  0
  -19.4580  -27.9420   22.8730 C   0  0  0  0  0  0  0  0  0  0  0  0
  -19.0750  -29.1720   23.4450 C   0  0  0  0  0  3  0  0  0  0  0  0
  -17.7240  -29.5690   23.4650 C   0  0  0  0  0  3  0  0  0  0  0  0
  -16.7370  -28.7260   22.9260 C   0  0  0  0  0  3  0  0  0  0  0  0
  -17.1040  -27.4920   22.3600 C   0  0  0  0  0  3  0  0  0  0  0  0
  -25.8730  -32.0420   24.1490 C   0  0  0  0  0  3  0  0  0  0  0  0
  -26.1830  -31.3840   25.5510 C   0  0  1  0  0  0  0  0  0  0  0  0
  -24.9270  -31.1670   26.4290 C   0  0  0  0  0  1  0  0  0  0  0  0
  -26.8750  -30.0140   25.3770 C   0  0  0  0  0  1  0  0  0  0  0  0
  -27.1710  -32.2750   26.3430 C   0  0  0  0  0  1  0  0  0  0  0  0
  -25.4890  -33.4540   24.3300 N   0  0  0  0  0  0  0  0  0  0  0  0
  -25.8990  -34.4690   23.5580 C   0  0  0  0  0  0  0  0  0  0  0  0
  -26.7020  -34.3190   22.6350 O   0  0  0  0  0  0  0  0  0  0  0  0
  -24.7900  -33.6430   25.0350 H   0  0  0  0  0  0  0  0  0  0  0  0
  -24.2100  -36.2020   22.8650 C   0  0  0  0  0  1  0  0  0  0  0  0
  -25.3350  -35.8730   23.8580 C   0  0  0  0  0  3  0  0  0  0  0  0
  -27.3170  -36.8630   24.9190 C   0  0  0  0  0  1  0  0  0  0  0  0
  -26.3580  -36.9430   23.8200 N   0  0  0  0  0  0  0  0  0  0  0  0
  -25.9210  -37.8590   23.8480 H   0  0  0  0  0  0  0  0  0  0  0  0
  1  2  2  0
  2  5  1  0
  2 51  1  0
  3 12  1  0
  3  5  1  0
  4  1  1  0
  4  3  1  0
  5  6  1  0
 10  8  1  6
 10  7  1  0
 10  9  1  0
 10  4  1  0
 11 12  1  0
 12 21  2  0
 13 19  1  0
 14 19  1  0
 15 16  1  0
 15 14  1  0
 17 16  1  0
 17 26  1  0
 17 18  1  0
 19 18  1  0
 20 13  2  0
 21 13  1  0
 21 22  1  0
 23 24  2  0
 24 43  1  0
 25 24  1  0
 25 28  1  0
 26 27  1  0
 26 23  1  0
 27 25  2  0
 28 29  1  0
 29 30  2  0
 31 34  1  0
 31 30  1  0
 32 31  2  0
 33 32  1  0
 33 28  2  0
 34 35  1  0
 35 40  2  0
 35 36  1  0
 36 37  2  0
 37 38  1  0
 38 42  1  0
 39 38  2  0
 40 39  1  0
 41 40  1  0
 43 44  1  0
 44 47  1  0
 44 46  1  0
 45 43  2  0
 48 23  1  0
 48 49  1  0
 50 48  1  0
 51 52  1  0
 53 64  2  0
 54 52  1  0
 54 59  1  0
 55 63  1  0
 55 65  1  0
 56 58  1  0
 57 63  1  0
 58 59  2  0
 58 57  1  0
 60 54  2  0
 61 60  1  0
 61 56  2  0
 62 56  1  0
 62 55  1  0
 63 53  1  0
 65 67  2  0
 66 65  1  0
 68 66  1  0
 69 78  2  0
 69 74  1  0
 70 66  1  0
 71 70  1  0
 72 73  1  0
 72 71  1  0
 73 69  1  0
 74 70  1  0
 74 75  2  0
 75 76  1  0
 77 76  2  0
 78 77  1  0
 79 53  1  0
 79 84  1  0
 79 80  1  0
 80 83  1  1
 80 81  1  0
 82 80  1  0
 84 87  1  0
 85 89  1  0
 85 84  1  0
 86 85  2  0
 89 88  1  0
 91 92  1  0
 91 89  1  0
 91 90  1  0
M  ISO  4  13 100  21 100  51 101  52 101
M  END
>  <TORSDO>  (8) 
F 19

>  <SCORE>  (8) 
-13.131

>  <name>  (8) 
9

>  <ligand_id>  (8) 
9

>  <original_smiles>  (8) 
[H]c1c([H])c([H])c2c(c1[H])C([H])([H])C([H])([H])C([H])([H])C2([H])N([H])C(=O)C1([H])N(C(=O)C([H])(N([H])C(=O)C([H])(N([H])C([H])([H])[H])C([H])([H])[H])C(C([H])([H])[H])(C([H])([H])[H])C([H])([H])[H])C([H])([H])c2c([H])c(OC([H])([H])c3c([H])n(C(C([H])([H])[H])(C([H])([H])[H])C([H])([H])[H])c(C([H])(N([H])C(=O)N4C([H])([H])C([H])([H])C([H])([H])C([H])(n5nc(-c6c([H])c([H])c(Oc7c([H])c([H])c(F)c([H])c7F)c([H])c6[H])c(C(=O)N([H])[H])c5N([H])[H])C4([H])[H])C([H])([H])[H])[n+]3[H])c([H])c([H])c2C1([H])[H]

>  <smiles>  (8) 
[H]c1c([H])c([H])c2c(c1[H])C([H])([H])C([H])([H])C([H])([H])C2([H])N([H])C(=O)C1([H])N(C(=O)C([H])(N([H])C(=O)C([H])(N([H])C([H])([H])[H])C([H])([H])[H])C(C([H])([H])[H])(C([H])([H])[H])C([H])([H])[H])C([H])([H])c2c([H])c(OC([H])([H])c3c([H])n(C(C([H])([H])[H])(C([H])([H])[H])C([H])([H])[H])c(C([H])(N([H])C(=O)N4C([H])([H])C([H])([H])C([H])([H])C([H])(n5nc(-c6c([H])c([H])c(Oc7c([H])c([H])c(F)c([H])c7F)c([H])c6[H])c(C(=O)N([H])[H])c5N([H])[H])C4([H])[H])C([H])([H])[H])[n+]3[H])c([H])c([H])c2C1([H])[H]

$$$$
10:0:0
     RDKit          3D

 90 98  0  0  1  0  0  0  0  0999 V2000
  -27.7260  -23.1640   18.7970 C   0  0  0  0  0  1  0  0  0  0  0  0
  -27.2140  -22.4080   21.1040 C   0  0  0  0  0  1  0  0  0  0  0  0
  -28.2600  -23.1460   20.2360 C   0  0  1  0  0  0  0  0  0  0  0  0
  -31.3410  -20.8400   20.1120 C   0  0  0  0  0  3  0  0  0  0  0  0
  -30.7060  -22.8850   20.1570 C   0  0  0  0  0  3  0  0  0  0  0  0
  -29.9670  -20.7640   20.2190 C   0  0  0  0  0  0  0  0  0  0  0  0
  -31.8000  -22.1470   20.0740 N   0  0  0  0  0  0  0  0  0  0  0  0
  -29.5370  -22.2250   20.2500 N   0  0  0  0  0  0  0  0  0  0  0  0
  -29.3250  -19.2550   20.3040 C   0  0  0  0  0  3  0  0  0  0  0  0
  -30.2410  -17.8040   20.0870 C   0  0  0  0  0  3  0  0  0  0  0  0
  -30.5130  -15.0460   20.0250 C   0  0  0  0  0  0  0  0  0  0  0  0
  -30.3470  -12.7210   18.9670 C   0  0  0  0  0  2  0  0  0  0  0  0
  -29.3330  -12.6820   17.7970 C   0  0  0  0  0  2  0  0  0  0  0  0
  -27.8960  -12.4470   18.3070 C   0  0  0  0  0  2  0  0  0  0  0  0
  -27.5630  -13.3290   19.5380 C   0  0  0  0  0  3  0  0  0  0  0  0
  -28.6910  -13.2430   20.5860 C   0  0  0  0  0  2  0  0  0  0  0  0
  -29.9070  -13.7730   19.9400 N   0  0  0  0  0  0  0  0  0  0  0  0
  -31.6720  -15.0970   19.5950 O   0  0  0  0  0  0  0  0  0  0  0  0
  -28.6990  -16.2460   21.2900 C   0  0  0  0  0  1  0  0  0  0  0  0
  -29.8100  -16.2820   20.3400 N   0  0  0  0  0  0  0  0  0  0  0  0
  -25.2250  -13.9190   20.4120 C   0  0  0  0  0  0  0  0  0  0  0  0
  -24.1820  -13.1450   20.8390 C   0  0  0  0  0  0  0  0  0  0  0  0
  -24.6350  -11.7920   20.7510 C   0  0  0  0  0  0  0  0  0  0  0  0
  -26.2500  -13.0380   20.1010 N   0  0  0  0  0  0  0  0  0  0  0  0
  -25.9060  -11.7530   20.3690 N   0  0  0  0  0  0  0  0  0  0  0  0
  -23.9100  -10.5330   20.9520 C   0  0  0  0  0  0  0  0  0  0  0  0
  -24.3660   -9.5570   21.8650 C   0  0  0  0  0  3  0  0  0  0  0  0
  -23.6380   -8.3630   22.0570 C   0  0  0  0  0  3  0  0  0  0  0  0
  -22.4400   -8.1380   21.3390 C   0  0  0  0  0  0  0  0  0  0  0  0
  -22.0030   -9.1040   20.4140 C   0  0  0  0  0  3  0  0  0  0  0  0
  -22.7290  -10.2900   20.2190 C   0  0  0  0  0  3  0  0  0  0  0  0
  -21.6830   -6.9970   21.4410 O   0  0  0  0  0  0  0  0  0  0  0  0
  -21.6340   -6.2690   22.6020 C   0  0  0  0  0  0  0  0  0  0  0  0
  -21.2300   -6.8410   23.8280 C   0  0  0  0  0  3  0  0  0  0  0  0
  -21.1280   -6.0370   24.9810 C   0  0  0  0  0  3  0  0  0  0  0  0
  -21.4230   -4.6620   24.9070 C   0  0  0  0  0  0  0  0  0  0  0  0
  -21.8230   -4.0890   23.6870 C   0  0  0  0  0  3  0  0  0  0  0  0
  -21.9260   -4.8910   22.5370 C   0  0  0  0  0  0  0  0  0  0  0  0
  -22.2880   -4.3310   21.3580 F   0  0  0  0  0  0  0  0  0  0  0  0
  -21.3210   -3.8880   26.0130 F   0  0  0  0  0  0  0  0  0  0  0  0
  -22.8080  -13.6280   21.1960 C   0  0  0  0  0  0  0  0  0  0  0  0
  -22.1240  -12.9320   22.0980 N   0  0  0  0  0  0  0  0  0  0  0  0
  -22.3470  -14.6620   20.7120 O   0  0  0  0  0  0  0  0  0  0  0  0
  -22.5020  -12.0950   22.5150 H   0  0  0  0  0  0  0  0  0  0  0  0
  -21.2020  -13.2410   22.3700 H   0  0  0  0  0  0  0  0  0  0  0  0
  -25.3660  -15.2920   20.2310 N   0  0  0  0  0  0  0  0  0  0  0  0
  -24.5930  -15.9280   20.3870 H   0  0  0  0  0  0  0  0  0  0  0  0
  -26.1660  -15.7360   19.7990 H   0  0  0  0  0  0  0  0  0  0  0  0
  -28.2750  -24.7770   20.7830 C   0  0  0  0  0  2  0  0  0  0  0  0
  -28.4040  -26.1860   20.1160 O   0  0  0  0  0  0  0  0  0  0  0  0
  -24.6550  -31.8160   23.1130 C   0  0  0  0  0  0  0  0  0  0  0  0
  -27.3310  -27.1500   20.1090 C   0  0  0  0  0  0  0  0  0  0  0  0
  -23.4900  -30.4020   21.4610 C   0  0  0  0  0  3  0  0  0  0  0  0
  -24.9770  -28.8540   20.0420 C   0  0  0  0  0  0  0  0  0  0  0  0
  -26.0380  -30.7200   21.3050 C   0  0  0  0  0  2  0  0  0  0  0  0
  -26.1430  -29.3250   20.6620 C   0  0  0  0  0  0  0  0  0  0  0  0
  -27.3250  -28.4910   20.6710 C   0  0  0  0  0  3  0  0  0  0  0  0
  -26.1430  -26.7820   19.4490 C   0  0  0  0  0  3  0  0  0  0  0  0
  -24.9910  -27.5990   19.4110 C   0  0  0  0  0  3  0  0  0  0  0  0
  -23.7320  -29.7270   20.0830 C   0  0  0  0  0  2  0  0  0  0  0  0
  -24.7480  -31.0020   22.0160 N   0  0  0  0  0  0  0  0  0  0  0  0
  -23.5580  -32.0730   23.6330 O   0  0  0  0  0  0  0  0  0  0  0  0
  -22.8250  -29.3800   22.4170 C   0  0  0  0  0  0  0  0  0  0  0  0
  -21.4980  -29.1960   22.2950 N   0  0  0  0  0  0  0  0  0  0  0  0
  -23.5050  -28.7510   23.2310 O   0  0  0  0  0  0  0  0  0  0  0  0
  -21.0010  -29.7610   21.6190 H   0  0  0  0  0  0  0  0  0  0  0  0
  -18.1340  -27.9480   22.7880 C   0  0  0  0  0  0  0  0  0  0  0  0
  -20.6890  -28.2410   23.0570 C   0  0  0  0  0  3  0  0  0  0  0  0
  -20.8080  -26.8140   22.4710 C   0  0  0  0  0  2  0  0  0  0  0  0
  -19.7100  -26.4840   21.4560 C   0  0  0  0  0  2  0  0  0  0  0  0
  -18.3270  -26.6060   22.1000 C   0  0  0  0  0  2  0  0  0  0  0  0
  -19.2410  -28.7220   23.2220 C   0  0  0  0  0  0  0  0  0  0  0  0
  -19.0030  -29.9760   23.8240 C   0  0  0  0  0  3  0  0  0  0  0  0
  -17.6900  -30.4530   23.9990 C   0  0  0  0  0  3  0  0  0  0  0  0
  -16.5970  -29.6750   23.5790 C   0  0  0  0  0  3  0  0  0  0  0  0
  -16.8200  -28.4240   22.9770 C   0  0  0  0  0  3  0  0  0  0  0  0
  -25.9150  -32.4740   23.7530 C   0  0  0  0  0  3  0  0  0  0  0  0
  -26.4490  -31.6910   25.0160 C   0  0  1  0  0  0  0  0  0  0  0  0
  -25.3630  -31.4140   26.0820 C   0  0  0  0  0  1  0  0  0  0  0  0
  -27.0600  -30.3340   24.5990 C   0  0  0  0  0  1  0  0  0  0  0  0
  -27.5840  -32.4980   25.6870 C   0  0  0  0  0  1  0  0  0  0  0  0
  -25.5690  -33.8560   24.1180 N   0  0  0  0  0  0  0  0  0  0  0  0
  -25.8620  -34.9380   23.3820 C   0  0  0  0  0  0  0  0  0  0  0  0
  -26.5200  -34.8750   22.3390 O   0  0  0  0  0  0  0  0  0  0  0  0
  -24.9930  -33.9800   24.9380 H   0  0  0  0  0  0  0  0  0  0  0  0
  -24.0770  -36.6880   23.1000 C   0  0  0  0  0  1  0  0  0  0  0  0
  -25.3450  -36.3030   23.8790 C   0  0  0  0  0  3  0  0  0  0  0  0
  -27.4710  -37.2290   24.6870 C   0  0  0  0  0  1  0  0  0  0  0  0
  -26.3450  -37.3890   23.7700 N   0  0  0  0  0  0  0  0  0  0  0  0
  -25.9150  -38.2920   23.9490 H   0  0  0  0  0  0  0  0  0  0  0  0
  3  1  1  6
  3  8  1  0
  3 49  1  0
  3  2  1  0
  4  6  2  0
  5  8  1  0
  6  8  1  0
  6  9  1  0
  7  4  1  0
  7  5  2  0
 10  9  2  0
 10 20  1  0
 11 20  1  0
 12 17  1  0
 13 14  1  0
 13 12  1  0
 15 14  1  0
 15 24  1  0
 15 16  1  0
 17 11  1  0
 17 16  1  0
 18 11  2  0
 20 19  1  0
 21 22  2  0
 22 41  1  0
 23 22  1  0
 23 26  1  0
 24 25  1  0
 24 21  1  0
 25 23  2  0
 26 27  1  0
 27 28  2  0
 29 32  1  0
 29 28  1  0
 30 29  2  0
 31 30  1  0
 31 26  2  0
 32 33  1  0
 33 34  1  0
 34 35  2  0
 36 35  1  0
 36 40  1  0
 37 36  2  0
 38 33  2  0
 38 37  1  0
 39 38  1  0
 41 42  1  0
 42 45  1  0
 42 44  1  0
 43 41  2  0
 46 47  1  0
 46 21  1  0
 48 46  1  0
 50 49  1  0
 51 62  2  0
 52 50  1  0
 52 57  1  0
 53 61  1  0
 53 63  1  0
 54 60  1  0
 54 56  1  0
 55 61  1  0
 56 57  2  0
 56 55  1  0
 58 52  2  0
 59 58  1  0
 59 54  2  0
 60 53  1  0
 61 51  1  0
 63 65  2  0
 64 63  1  0
 66 64  1  0
 67 76  2  0
 67 72  1  0
 68 64  1  0
 68 72  1  0
 69 68  1  0
 70 71  1  0
 70 69  1  0
 71 67  1  0
 72 73  2  0
 73 74  1  0
 75 74  2  0
 76 75  1  0
 77 51  1  0
 77 82  1  0
 77 78  1  0
 78 81  1  1
 78 79  1  0
 80 78  1  0
 82 85  1  0
 83 87  1  0
 83 82  1  0
 84 83  2  0
 87 86  1  0
 89 87  1  0
 89 90  1  0
 89 88  1  0
M  ISO  4  11 100  20 100  49 101  50 101
M  END
>  <TORSDO>  (9) 
F 20

>  <SCORE>  (9) 
-14.783

>  <name>  (9) 
10

>  <ligand_id>  (9) 
10

>  <original_smiles>  (9) 
[H]c1nc([H])n(C(C([H])([H])[H])(C([H])([H])[H])C([H])([H])Oc2c([H])c([H])c3c(c2[H])C([H])([H])N(C(=O)C([H])(N([H])C(=O)C([H])(N([H])C([H])([H])[H])C([H])([H])[H])C(C([H])([H])[H])(C([H])([H])[H])C([H])([H])[H])C([H])(C(=O)N([H])C2([H])c4c([H])c([H])c([H])c([H])c4C([H])([H])C([H])([H])C2([H])[H])C3([H])[H])c1C([H])([H])C([H])([H])N(C(=O)N1C([H])([H])C([H])([H])C([H])([H])C([H])(n2nc(-c3c([H])c([H])c(Oc4c([H])c([H])c(F)c([H])c4F)c([H])c3[H])c(C(=O)N([H])[H])c2N([H])[H])C1([H])[H])C([H])([H])[H]

>  <smiles>  (9) 
[H]c1nc([H])n(C(C([H])([H])[H])(C([H])([H])[H])C([H])([H])Oc2c([H])c([H])c3c(c2[H])C([H])([H])N(C(=O)C([H])(N([H])C(=O)C([H])(N([H])C([H])([H])[H])C([H])([H])[H])C(C([H])([H])[H])(C([H])([H])[H])C([H])([H])[H])C([H])(C(=O)N([H])C2([H])c4c([H])c([H])c([H])c([H])c4C([H])([H])C([H])([H])C2([H])[H])C3([H])[H])c1C([H])([H])C([H])([H])N(C(=O)N1C([H])([H])C([H])([H])C([H])([H])C([H])(n2nc(-c3c([H])c([H])c(Oc4c([H])c([H])c(F)c([H])c4F)c([H])c3[H])c(C(=O)N([H])[H])c2N([H])[H])C1([H])[H])C([H])([H])[H]

$$$$
11:0:0
     RDKit          3D

 87 95  0  0  1  0  0  0  0  0999 V2000
  -29.2820  -19.8040   20.9310 C   0  0  0  0  0  3  0  0  0  0  0  0
  -29.0810  -21.0300   20.1650 C   0  0  0  0  0  0  0  0  0  0  0  0
  -29.2760  -20.4070   18.8970 N   0  0  0  0  0  0  0  0  0  0  0  0
  -29.4880  -19.0620   18.9080 N   0  0  0  0  0  0  0  0  0  0  0  0
  -29.5780  -18.5370   20.1790 N   0  0  0  0  0  0  0  0  0  0  0  0
  -29.0280  -22.7790   20.4740 C   0  0  0  0  0  3  0  0  0  0  0  0
  -27.9920  -24.2310   20.1160 C   0  0  0  0  0  3  0  0  0  0  0  0
  -28.1680  -25.8730   20.3470 O   0  0  0  0  0  0  0  0  0  0  0  0
  -24.6220  -31.9050   23.2370 C   0  0  0  0  0  0  0  0  0  0  0  0
  -27.1550  -26.9750   20.2640 C   0  0  0  0  0  0  0  0  0  0  0  0
  -23.4200  -30.4980   21.6150 C   0  0  0  0  0  3  0  0  0  0  0  0
  -24.8590  -28.8690   20.2040 C   0  0  0  0  0  0  0  0  0  0  0  0
  -25.9860  -30.6940   21.4610 C   0  0  0  0  0  2  0  0  0  0  0  0
  -26.0500  -29.2750   20.8180 C   0  0  0  0  0  0  0  0  0  0  0  0
  -27.1900  -28.3500   20.8220 C   0  0  0  0  0  3  0  0  0  0  0  0
  -25.9330  -26.7220   19.6000 C   0  0  0  0  0  3  0  0  0  0  0  0
  -24.8260  -27.6140   19.5740 C   0  0  0  0  0  3  0  0  0  0  0  0
  -23.6430  -29.7970   20.2460 C   0  0  0  0  0  2  0  0  0  0  0  0
  -24.6980  -31.0610   22.1580 N   0  0  0  0  0  0  0  0  0  0  0  0
  -23.5360  -32.2050   23.7580 O   0  0  0  0  0  0  0  0  0  0  0  0
  -22.7220  -29.5180   22.5930 C   0  0  0  0  0  0  0  0  0  0  0  0
  -21.3920  -29.3490   22.4660 N   0  0  0  0  0  0  0  0  0  0  0  0
  -23.3850  -28.9070   23.4360 O   0  0  0  0  0  0  0  0  0  0  0  0
  -20.9100  -29.8930   21.7640 H   0  0  0  0  0  0  0  0  0  0  0  0
  -18.0120  -28.1270   22.9720 C   0  0  0  0  0  0  0  0  0  0  0  0
  -20.5690  -28.4200   23.2490 C   0  0  0  0  0  3  0  0  0  0  0  0
  -20.6850  -26.9780   22.7020 C   0  0  0  0  0  2  0  0  0  0  0  0
  -19.5940  -26.6280   21.6850 C   0  0  0  0  0  2  0  0  0  0  0  0
  -18.2070  -26.7690   22.3180 C   0  0  0  0  0  2  0  0  0  0  0  0
  -19.1220  -28.9090   23.3940 C   0  0  0  0  0  0  0  0  0  0  0  0
  -18.8850  -30.1760   23.9710 C   0  0  0  0  0  3  0  0  0  0  0  0
  -17.5730  -30.6630   24.1270 C   0  0  0  0  0  3  0  0  0  0  0  0
  -16.4790  -29.8800   23.7180 C   0  0  0  0  0  3  0  0  0  0  0  0
  -16.7000  -28.6140   23.1460 C   0  0  0  0  0  3  0  0  0  0  0  0
  -25.8970  -32.5510   23.8620 C   0  0  0  0  0  3  0  0  0  0  0  0
  -26.4040  -31.7940   25.1520 C   0  0  1  0  0  0  0  0  0  0  0  0
  -25.3060  -31.5730   26.2190 C   0  0  0  0  0  1  0  0  0  0  0  0
  -26.9860  -30.4090   24.7890 C   0  0  0  0  0  1  0  0  0  0  0  0
  -27.5540  -32.5930   25.8080 C   0  0  0  0  0  1  0  0  0  0  0  0
  -25.5830  -33.9520   24.1900 N   0  0  0  0  0  0  0  0  0  0  0  0
  -25.9110  -35.0110   23.4370 C   0  0  0  0  0  0  0  0  0  0  0  0
  -26.5720  -34.9110   22.4010 O   0  0  0  0  0  0  0  0  0  0  0  0
  -24.9920  -34.1040   24.9940 H   0  0  0  0  0  0  0  0  0  0  0  0
  -24.1830  -36.8160   23.1120 C   0  0  0  0  0  1  0  0  0  0  0  0
  -25.4340  -36.4030   23.9050 C   0  0  0  0  0  3  0  0  0  0  0  0
  -27.5780  -37.2870   24.7130 C   0  0  0  0  0  1  0  0  0  0  0  0
  -26.4670  -37.4540   23.7800 N   0  0  0  0  0  0  0  0  0  0  0  0
  -26.0640  -38.3750   23.9290 H   0  0  0  0  0  0  0  0  0  0  0  0
  -29.6520  -16.8770   20.5650 C   0  0  0  0  0  3  0  0  0  0  0  0
  -30.4240  -15.3990   19.9460 C   0  0  0  0  0  0  0  0  0  0  0  0
  -30.3660  -12.9800   18.9420 C   0  0  0  0  0  2  0  0  0  0  0  0
  -29.3560  -12.8370   17.7700 C   0  0  0  0  0  2  0  0  0  0  0  0
  -27.9390  -12.5450   18.2960 C   0  0  0  0  0  2  0  0  0  0  0  0
  -27.5770  -13.4490   19.4980 C   0  0  0  0  0  3  0  0  0  0  0  0
  -28.7030  -13.5240   20.5500 C   0  0  0  0  0  2  0  0  0  0  0  0
  -29.8970  -14.0690   19.8790 N   0  0  0  0  0  0  0  0  0  0  0  0
  -31.5860  -15.4390   19.5100 O   0  0  0  0  0  0  0  0  0  0  0  0
  -25.2650  -13.9780   20.4350 C   0  0  0  0  0  0  0  0  0  0  0  0
  -24.2290  -13.1880   20.8510 C   0  0  0  0  0  0  0  0  0  0  0  0
  -24.6910  -11.8410   20.7410 C   0  0  0  0  0  0  0  0  0  0  0  0
  -26.2850  -13.1130   20.0860 N   0  0  0  0  0  0  0  0  0  0  0  0
  -25.9580  -11.8170   20.3390 N   0  0  0  0  0  0  0  0  0  0  0  0
  -23.9760  -10.5720   20.9400 C   0  0  0  0  0  0  0  0  0  0  0  0
  -24.4460   -9.5900   21.8400 C   0  0  0  0  0  3  0  0  0  0  0  0
  -23.7280   -8.3890   22.0290 C   0  0  0  0  0  3  0  0  0  0  0  0
  -22.5270   -8.1610   21.3180 C   0  0  0  0  0  0  0  0  0  0  0  0
  -22.0750   -9.1310   20.4050 C   0  0  0  0  0  3  0  0  0  0  0  0
  -22.7940  -10.3230   20.2140 C   0  0  0  0  0  3  0  0  0  0  0  0
  -21.7770   -7.0140   21.4170 O   0  0  0  0  0  0  0  0  0  0  0  0
  -21.7450   -6.2720   22.5710 C   0  0  0  0  0  0  0  0  0  0  0  0
  -21.3200   -6.8230   23.7990 C   0  0  0  0  0  3  0  0  0  0  0  0
  -21.2350   -6.0070   24.9450 C   0  0  0  0  0  3  0  0  0  0  0  0
  -21.5680   -4.6420   24.8650 C   0  0  0  0  0  0  0  0  0  0  0  0
  -21.9860   -4.0900   23.6410 C   0  0  0  0  0  3  0  0  0  0  0  0
  -22.0720   -4.9030   22.4970 C   0  0  0  0  0  0  0  0  0  0  0  0
  -22.4550   -4.3620   21.3150 F   0  0  0  0  0  0  0  0  0  0  0  0
  -21.4800   -3.8550   25.9630 F   0  0  0  0  0  0  0  0  0  0  0  0
  -22.8550  -13.6550   21.2300 C   0  0  0  0  0  0  0  0  0  0  0  0
  -22.1860  -12.9330   22.1210 N   0  0  0  0  0  0  0  0  0  0  0  0
  -22.3850  -14.6960   20.7720 O   0  0  0  0  0  0  0  0  0  0  0  0
  -22.5820  -12.0920   22.5140 H   0  0  0  0  0  0  0  0  0  0  0  0
  -21.2650  -13.2250   22.4150 H   0  0  0  0  0  0  0  0  0  0  0  0
  -25.4150  -15.3550   20.2940 N   0  0  0  0  0  0  0  0  0  0  0  0
  -24.6560  -16.0000   20.4840 H   0  0  0  0  0  0  0  0  0  0  0  0
  -26.2310  -15.8090   19.9070 H   0  0  0  0  0  0  0  0  0  0  0  0
  -31.3100  -17.3520   22.5130 C   0  0  0  0  0  1  0  0  0  0  0  0
  -29.9230  -16.8320   22.0890 C   0  0  0  0  0  2  0  0  0  0  0  0
  2  6  1  0
  2  1  2  0
  3  4  2  0
  3  2  1  0
  4  5  1  0
  5 49  1  0
  5  1  1  0
  7  8  1  0
  7  6  2  0
  9 20  2  0
 10  8  1  0
 10 15  1  0
 11 19  1  0
 11 21  1  0
 12 18  1  0
 12 14  1  0
 13 19  1  0
 14 15  2  0
 14 13  1  0
 16 10  2  0
 17 16  1  0
 17 12  2  0
 18 11  1  0
 19  9  1  0
 21 23  2  0
 22 21  1  0
 24 22  1  0
 25 34  2  0
 25 30  1  0
 26 22  1  0
 26 30  1  0
 27 26  1  0
 28 29  1  0
 28 27  1  0
 29 25  1  0
 30 31  2  0
 31 32  1  0
 33 32  2  0
 34 33  1  0
 35  9  1  0
 35 40  1  0
 35 36  1  0
 36 39  1  1
 36 37  1  0
 38 36  1  0
 40 43  1  0
 41 45  1  0
 41 40  1  0
 42 41  2  0
 45 44  1  0
 47 45  1  0
 47 48  1  0
 47 46  1  0
 49 87  1  0
 50 49  1  0
 51 56  1  0
 52 53  1  0
 52 51  1  0
 54 53  1  0
 54 61  1  0
 54 55  1  0
 56 50  1  0
 56 55  1  0
 57 50  2  0
 58 59  2  0
 59 78  1  0
 60 59  1  0
 60 63  1  0
 61 62  1  0
 61 58  1  0
 62 60  2  0
 63 64  1  0
 64 65  2  0
 66 69  1  0
 66 65  1  0
 67 66  2  0
 68 67  1  0
 68 63  2  0
 69 70  1  0
 70 71  1  0
 71 72  2  0
 73 72  1  0
 73 77  1  0
 74 73  2  0
 75 70  2  0
 75 74  1  0
 76 75  1  0
 78 79  1  0
 79 82  1  0
 79 81  1  0
 80 78  2  0
 83 58  1  0
 83 84  1  0
 85 83  1  0
 87 86  1  0
M  ISO  4   7 101   8 101  49 100  50 100
M  END
>  <TORSDO>  (10) 
F 20

>  <SCORE>  (10) 
-15.567

>  <name>  (10) 
11

>  <ligand_id>  (10) 
11

>  <original_smiles>  (10) 
[H]c1c([H])c([H])c2c(c1[H])C([H])([H])C([H])([H])C([H])([H])C2([H])N([H])C(=O)C1([H])N(C(=O)C([H])(N([H])C(=O)C([H])(N([H])C([H])([H])[H])C([H])([H])[H])C(C([H])([H])[H])(C([H])([H])[H])C([H])([H])[H])C([H])([H])c2c([H])c(OC([H])([H])C([H])([H])c3nnn(C([H])(C(=O)N4C([H])([H])C([H])([H])C([H])([H])C([H])(n5nc(-c6c([H])c([H])c(Oc7c([H])c([H])c(F)c([H])c7F)c([H])c6[H])c(C(=O)N([H])[H])c5N([H])[H])C4([H])[H])C([H])([H])C([H])([H])[H])c3[H])c([H])c([H])c2C1([H])[H]

>  <smiles>  (10) 
[H]c1c([H])c([H])c2c(c1[H])C([H])([H])C([H])([H])C([H])([H])C2([H])N([H])C(=O)C1([H])N(C(=O)C([H])(N([H])C(=O)C([H])(N([H])C([H])([H])[H])C([H])([H])[H])C(C([H])([H])[H])(C([H])([H])[H])C([H])([H])[H])C([H])([H])c2c([H])c(OC([H])([H])C([H])([H])c3nnn(C([H])(C(=O)N4C([H])([H])C([H])([H])C([H])([H])C([H])(n5nc(-c6c([H])c([H])c(Oc7c([H])c([H])c(F)c([H])c7F)c([H])c6[H])c(C(=O)N([H])[H])c5N([H])[H])C4([H])[H])C([H])([H])C([H])([H])[H])c3[H])c([H])c([H])c2C1([H])[H]

$$$$
12:0:0
     RDKit          3D

 88 96  0  0  1  0  0  0  0  0999 V2000
  -30.1630  -22.8720   20.1640 C   0  0  0  0  0  3  0  0  0  0  0  0
  -30.4190  -21.4990   20.1070 C   0  0  0  0  0  3  0  0  0  0  0  0
  -28.7690  -23.1050   19.9220 C   0  0  0  0  0  0  0  0  0  0  0  0
  -28.2810  -21.7960   19.7210 N   0  0  0  0  0  0  0  0  0  0  0  0
  -29.2720  -20.7560   19.8370 N   0  0  0  0  0  0  0  0  0  0  0  0
  -27.7730  -18.7500   20.3660 C   0  0  0  0  0  1  0  0  0  0  0  0
  -29.0470  -19.1670   19.6140 C   0  0  0  0  0  3  0  0  0  0  0  0
  -30.1910  -17.8910   19.7900 C   0  0  0  0  0  2  0  0  0  0  0  0
  -30.6340  -15.1020   19.8170 C   0  0  0  0  0  0  0  0  0  0  0  0
  -30.4960  -12.6880   18.9980 C   0  0  0  0  0  2  0  0  0  0  0  0
  -29.5110  -12.5490   17.8110 C   0  0  0  0  0  2  0  0  0  0  0  0
  -28.0700  -12.3530   18.3200 C   0  0  0  0  0  2  0  0  0  0  0  0
  -27.7070  -13.3330   19.4670 C   0  0  0  0  0  3  0  0  0  0  0  0
  -28.8110  -13.4280   20.5390 C   0  0  0  0  0  2  0  0  0  0  0  0
  -30.0400  -13.8330   19.8450 N   0  0  0  0  0  0  0  0  0  0  0  0
  -31.8300  -15.1310   19.5110 O   0  0  0  0  0  0  0  0  0  0  0  0
  -29.8670  -16.3170   19.9290 N   0  0  0  0  0  0  0  0  0  0  0  0
  -28.8900  -16.1380   20.1050 H   0  0  0  0  0  0  0  0  0  0  0  0
  -25.3950  -13.9470   20.3670 C   0  0  0  0  0  0  0  0  0  0  0  0
  -24.3370  -13.1890   20.7860 C   0  0  0  0  0  0  0  0  0  0  0  0
  -24.7660  -11.8280   20.7010 C   0  0  0  0  0  0  0  0  0  0  0  0
  -26.4000  -13.0510   20.0430 N   0  0  0  0  0  0  0  0  0  0  0  0
  -26.0340  -11.7700   20.3100 N   0  0  0  0  0  0  0  0  0  0  0  0
  -24.0190  -10.5800   20.9070 C   0  0  0  0  0  0  0  0  0  0  0  0
  -24.4480   -9.6050   21.8340 C   0  0  0  0  0  3  0  0  0  0  0  0
  -23.7000   -8.4250   22.0290 C   0  0  0  0  0  3  0  0  0  0  0  0
  -22.5060   -8.2110   21.2990 C   0  0  0  0  0  0  0  0  0  0  0  0
  -22.0950   -9.1740   20.3600 C   0  0  0  0  0  3  0  0  0  0  0  0
  -22.8440  -10.3460   20.1630 C   0  0  0  0  0  3  0  0  0  0  0  0
  -21.7280   -7.0830   21.4060 O   0  0  0  0  0  0  0  0  0  0  0  0
  -21.6460   -6.3730   22.5760 C   0  0  0  0  0  0  0  0  0  0  0  0
  -21.2010   -6.9650   23.7790 C   0  0  0  0  0  3  0  0  0  0  0  0
  -21.0660   -6.1810   24.9410 C   0  0  0  0  0  3  0  0  0  0  0  0
  -21.3660   -4.8060   24.9030 C   0  0  0  0  0  0  0  0  0  0  0  0
  -21.8030   -4.2130   23.7060 C   0  0  0  0  0  3  0  0  0  0  0  0
  -21.9400   -4.9940   22.5450 C   0  0  0  0  0  0  0  0  0  0  0  0
  -22.3420   -4.4140   21.3880 F   0  0  0  0  0  0  0  0  0  0  0  0
  -21.2280   -4.0510   26.0180 F   0  0  0  0  0  0  0  0  0  0  0  0
  -22.9700  -13.6940   21.1450 C   0  0  0  0  0  0  0  0  0  0  0  0
  -22.2770  -13.0070   22.0460 N   0  0  0  0  0  0  0  0  0  0  0  0
  -22.5290  -14.7360   20.6630 O   0  0  0  0  0  0  0  0  0  0  0  0
  -22.6470  -12.1620   22.4600 H   0  0  0  0  0  0  0  0  0  0  0  0
  -21.3630  -13.3300   22.3280 H   0  0  0  0  0  0  0  0  0  0  0  0
  -25.5790  -15.3170   20.2030 N   0  0  0  0  0  0  0  0  0  0  0  0
  -24.8240  -15.9760   20.3540 H   0  0  0  0  0  0  0  0  0  0  0  0
  -26.3980  -15.7460   19.7950 H   0  0  0  0  0  0  0  0  0  0  0  0
  -27.8920  -24.5320   19.7350 C   0  0  0  0  0  2  0  0  0  0  0  0
  -28.2330  -26.0360   20.1070 O   0  0  0  0  0  0  0  0  0  0  0  0
  -24.6040  -31.7640   23.1740 C   0  0  0  0  0  0  0  0  0  0  0  0
  -27.2130  -27.0810   20.0480 C   0  0  0  0  0  0  0  0  0  0  0  0
  -23.4310  -30.4050   21.4900 C   0  0  0  0  0  3  0  0  0  0  0  0
  -24.8980  -28.8760   20.0350 C   0  0  0  0  0  0  0  0  0  0  0  0
  -25.9930  -30.6650   21.3680 C   0  0  0  0  0  2  0  0  0  0  0  0
  -26.0740  -29.2870   20.6750 C   0  0  0  0  0  0  0  0  0  0  0  0
  -27.2320  -28.4080   20.6630 C   0  0  0  0  0  3  0  0  0  0  0  0
  -26.0070  -26.7960   19.3670 C   0  0  0  0  0  3  0  0  0  0  0  0
  -24.8820  -27.6470   19.3640 C   0  0  0  0  0  3  0  0  0  0  0  0
  -23.6720  -29.7760   20.0930 C   0  0  0  0  0  2  0  0  0  0  0  0
  -24.6950  -30.9670   22.0650 N   0  0  0  0  0  0  0  0  0  0  0  0
  -23.5090  -32.0310   23.6950 O   0  0  0  0  0  0  0  0  0  0  0  0
  -22.7430  -29.3690   22.4170 C   0  0  0  0  0  0  0  0  0  0  0  0
  -21.4140  -29.2040   22.2850 N   0  0  0  0  0  0  0  0  0  0  0  0
  -23.4120  -28.7180   23.2240 O   0  0  0  0  0  0  0  0  0  0  0  0
  -20.9310  -29.7840   21.6130 H   0  0  0  0  0  0  0  0  0  0  0  0
  -18.0280  -28.0050   22.7650 C   0  0  0  0  0  0  0  0  0  0  0  0
  -20.5900  -28.2450   23.0270 C   0  0  0  0  0  3  0  0  0  0  0  0
  -20.6810  -26.8330   22.4040 C   0  0  0  0  0  2  0  0  0  0  0  0
  -19.5710  -26.5510   21.3850 C   0  0  0  0  0  2  0  0  0  0  0  0
  -18.1930  -26.6790   22.0400 C   0  0  0  0  0  2  0  0  0  0  0  0
  -19.1520  -28.7470   23.2150 C   0  0  0  0  0  0  0  0  0  0  0  0
  -18.9390  -29.9870   23.8550 C   0  0  0  0  0  3  0  0  0  0  0  0
  -17.6370  -30.4850   24.0480 C   0  0  0  0  0  3  0  0  0  0  0  0
  -16.5280  -29.7390   23.6140 C   0  0  0  0  0  3  0  0  0  0  0  0
  -16.7240  -28.5000   22.9780 C   0  0  0  0  0  3  0  0  0  0  0  0
  -25.8690  -32.3950   23.8310 C   0  0  0  0  0  3  0  0  0  0  0  0
  -26.3510  -31.6190   25.1190 C   0  0  1  0  0  0  0  0  0  0  0  0
  -25.2330  -31.3840   26.1620 C   0  0  0  0  0  1  0  0  0  0  0  0
  -26.9390  -30.2390   24.7460 C   0  0  0  0  0  1  0  0  0  0  0  0
  -27.4910  -32.4050   25.8090 C   0  0  0  0  0  1  0  0  0  0  0  0
  -25.5540  -33.7940   24.1670 N   0  0  0  0  0  0  0  0  0  0  0  0
  -25.8840  -34.8520   23.4160 C   0  0  0  0  0  0  0  0  0  0  0  0
  -26.5500  -34.7540   22.3820 O   0  0  0  0  0  0  0  0  0  0  0  0
  -24.9670  -33.9430   24.9740 H   0  0  0  0  0  0  0  0  0  0  0  0
  -24.1450  -36.6410   23.0910 C   0  0  0  0  0  1  0  0  0  0  0  0
  -25.3990  -36.2390   23.8850 C   0  0  0  0  0  3  0  0  0  0  0  0
  -27.5360  -37.1320   24.6960 C   0  0  0  0  0  1  0  0  0  0  0  0
  -26.4270  -37.2960   23.7600 N   0  0  0  0  0  0  0  0  0  0  0  0
  -26.0200  -38.2150   23.9090 H   0  0  0  0  0  0  0  0  0  0  0  0
  2  1  2  0
  3  1  1  0
  4  5  1  0
  4  3  2  0
  5  2  1  0
  7  8  1  0
  7  5  1  0
  7  6  1  0
  8 17  1  0
  9 15  1  0
  9 17  1  0
 10 15  1  0
 11 12  1  0
 11 10  1  0
 13 12  1  0
 13 22  1  0
 13 14  1  0
 15 14  1  0
 16  9  2  0
 17 18  1  0
 19 20  2  0
 20 39  1  0
 21 20  1  0
 21 24  1  0
 22 23  1  0
 22 19  1  0
 23 21  2  0
 24 25  1  0
 25 26  2  0
 27 30  1  0
 27 26  1  0
 28 27  2  0
 29 28  1  0
 29 24  2  0
 30 31  1  0
 31 32  1  0
 32 33  2  0
 34 33  1  0
 34 38  1  0
 35 34  2  0
 36 31  2  0
 36 35  1  0
 37 36  1  0
 39 40  1  0
 40 43  1  0
 40 42  1  0
 41 39  2  0
 44 45  1  0
 44 19  1  0
 46 44  1  0
 47  3  1  0
 47 48  1  0
 49 60  2  0
 50 48  1  0
 50 55  1  0
 51 59  1  0
 51 61  1  0
 52 58  1  0
 52 54  1  0
 53 59  1  0
 54 53  1  0
 55 54  2  0
 56 50  2  0
 57 56  1  0
 57 52  2  0
 58 51  1  0
 59 49  1  0
 61 63  2  0
 62 61  1  0
 64 62  1  0
 65 74  2  0
 65 70  1  0
 66 62  1  0
 66 70  1  0
 67 66  1  0
 68 69  1  0
 68 67  1  0
 69 65  1  0
 70 71  2  0
 71 72  1  0
 73 72  2  0
 74 73  1  0
 75 49  1  0
 75 80  1  0
 75 76  1  0
 76 79  1  1
 76 77  1  0
 78 76  1  0
 80 83  1  0
 81 85  1  0
 81 80  1  0
 82 81  2  0
 85 84  1  0
 87 85  1  0
 87 88  1  0
 87 86  1  0
M  ISO  4   9 100  17 100  47 101  48 101
M  END
>  <TORSDO>  (11) 
F 19

>  <SCORE>  (11) 
-14.512

>  <name>  (11) 
12

>  <ligand_id>  (11) 
12

>  <original_smiles>  (11) 
[H]c1c([H])c([H])c2c(c1[H])C([H])([H])C([H])([H])C([H])([H])C2([H])N([H])C(=O)C1([H])N(C(=O)C([H])(N([H])C(=O)C([H])(N([H])C([H])([H])[H])C([H])([H])[H])C(C([H])([H])[H])(C([H])([H])[H])C([H])([H])[H])C([H])([H])c2c([H])c(OC([H])([H])c3nn(C([H])(C([H])([H])[H])C([H])([H])N([H])C(=O)N4C([H])([H])C([H])([H])C([H])([H])C([H])(n5nc(-c6c([H])c([H])c(Oc7c([H])c([H])c(F)c([H])c7F)c([H])c6[H])c(C(=O)N([H])[H])c5N([H])[H])C4([H])[H])c([H])c3[H])c([H])c([H])c2C1([H])[H]

>  <smiles>  (11) 
[H]c1c([H])c([H])c2c(c1[H])C([H])([H])C([H])([H])C([H])([H])C2([H])N([H])C(=O)C1([H])N(C(=O)C([H])(N([H])C(=O)C([H])(N([H])C([H])([H])[H])C([H])([H])[H])C(C([H])([H])[H])(C([H])([H])[H])C([H])([H])[H])C([H])([H])c2c([H])c(OC([H])([H])c3nn(C([H])(C([H])([H])[H])C([H])([H])N([H])C(=O)N4C([H])([H])C([H])([H])C([H])([H])C([H])(n5nc(-c6c([H])c([H])c(Oc7c([H])c([H])c(F)c([H])c7F)c([H])c6[H])c(C(=O)N([H])[H])c5N([H])[H])C4([H])[H])c([H])c3[H])c([H])c([H])c2C1([H])[H]

$$$$
13:0:0
     RDKit          3D

 89 97  0  0  1  0  0  0  0  0999 V2000
  -28.2960  -20.4040   20.9900 C   0  0  0  0  0  2  0  0  0  0  0  0
  -29.6470  -18.8590   20.4610 C   0  0  0  0  0  0  0  0  0  0  0  0
  -28.5380  -19.1030   21.2330 N   0  0  0  0  0  0  0  0  0  0  0  0
  -30.0270  -19.9740   19.7670 N   0  0  0  0  0  2  0  0  0  0  0  0
  -29.1570  -21.0050   20.1600 N   0  0  0  0  0  0  0  0  0  0  0  0
  -31.9750  -17.8230   20.6310 C   0  0  0  0  0  1  0  0  0  0  0  0
  -30.4680  -17.4970   20.6090 C   0  0  0  0  0  3  0  0  0  0  0  0
  -30.8410  -14.9710   19.8650 C   0  0  0  0  0  0  0  0  0  0  0  0
  -30.5910  -12.6540   18.9410 C   0  0  0  0  0  2  0  0  0  0  0  0
  -29.5980  -12.6480   17.7590 C   0  0  0  0  0  2  0  0  0  0  0  0
  -28.1520  -12.4810   18.2650 C   0  0  0  0  0  2  0  0  0  0  0  0
  -27.8190  -13.4000   19.4700 C   0  0  0  0  0  3  0  0  0  0  0  0
  -28.9370  -13.4040   20.5350 C   0  0  0  0  0  2  0  0  0  0  0  0
  -30.1860  -13.7550   19.8490 N   0  0  0  0  0  0  0  0  0  0  0  0
  -32.0470  -14.9860   19.6050 O   0  0  0  0  0  0  0  0  0  0  0  0
  -29.3200  -16.4730   18.6910 C   0  0  0  0  0  1  0  0  0  0  0  0
  -30.1090  -16.1740   19.8910 N   0  0  0  0  0  0  0  0  0  0  0  0
  -25.4910  -13.9960   20.3530 C   0  0  0  0  0  0  0  0  0  0  0  0
  -24.4390  -13.2230   20.7610 C   0  0  0  0  0  0  0  0  0  0  0  0
  -24.8890  -11.8690   20.6790 C   0  0  0  0  0  0  0  0  0  0  0  0
  -26.5110  -13.1110   20.0400 N   0  0  0  0  0  0  0  0  0  0  0  0
  -26.1600  -11.8270   20.3010 N   0  0  0  0  0  0  0  0  0  0  0  0
  -24.1630  -10.6090   20.8820 C   0  0  0  0  0  0  0  0  0  0  0  0
  -24.5680   -9.6750   21.8590 C   0  0  0  0  0  3  0  0  0  0  0  0
  -23.8430   -8.4780   22.0490 C   0  0  0  0  0  3  0  0  0  0  0  0
  -22.6990   -8.2100   21.2610 C   0  0  0  0  0  0  0  0  0  0  0  0
  -22.3130   -9.1330   20.2740 C   0  0  0  0  0  3  0  0  0  0  0  0
  -23.0390  -10.3210   20.0830 C   0  0  0  0  0  3  0  0  0  0  0  0
  -21.9490   -7.0620   21.3570 O   0  0  0  0  0  0  0  0  0  0  0  0
  -21.7850   -6.4080   22.5510 C   0  0  0  0  0  0  0  0  0  0  0  0
  -21.1770   -7.0290   23.6650 C   0  0  0  0  0  3  0  0  0  0  0  0
  -20.9660   -6.2990   24.8500 C   0  0  0  0  0  3  0  0  0  0  0  0
  -21.3500   -4.9460   24.9230 C   0  0  0  0  0  0  0  0  0  0  0  0
  -21.9490   -4.3240   23.8130 C   0  0  0  0  0  3  0  0  0  0  0  0
  -22.1630   -5.0530   22.6310 C   0  0  0  0  0  0  0  0  0  0  0  0
  -22.7230   -4.4430   21.5580 F   0  0  0  0  0  0  0  0  0  0  0  0
  -21.1390   -4.2420   26.0580 F   0  0  0  0  0  0  0  0  0  0  0  0
  -23.0630  -13.7060   21.1140 C   0  0  0  0  0  0  0  0  0  0  0  0
  -22.3720  -12.9940   21.9960 N   0  0  0  0  0  0  0  0  0  0  0  0
  -22.6110  -14.7500   20.6450 O   0  0  0  0  0  0  0  0  0  0  0  0
  -22.7520  -12.1490   22.3970 H   0  0  0  0  0  0  0  0  0  0  0  0
  -21.4500  -13.2990   22.2730 H   0  0  0  0  0  0  0  0  0  0  0  0
  -25.6570  -15.3690   20.1960 N   0  0  0  0  0  0  0  0  0  0  0  0
  -24.9090  -16.0290   20.3750 H   0  0  0  0  0  0  0  0  0  0  0  0
  -26.5080  -15.8110   19.8740 H   0  0  0  0  0  0  0  0  0  0  0  0
  -29.1570  -22.4160   19.5510 C   0  0  0  0  0  2  0  0  0  0  0  0
  -28.6300  -23.7540   20.3330 C   0  0  0  0  0  3  0  0  0  0  0  0
  -28.5340  -25.1670   19.5140 C   0  0  0  0  0  3  0  0  0  0  0  0
  -28.4100  -26.5430   20.1330 O   0  0  0  0  0  0  0  0  0  0  0  0
  -24.6320  -31.9220   23.1920 C   0  0  0  0  0  0  0  0  0  0  0  0
  -27.2750  -27.3900   20.0560 C   0  0  0  0  0  0  0  0  0  0  0  0
  -23.4350  -30.5310   21.5400 C   0  0  0  0  0  3  0  0  0  0  0  0
  -24.8950  -29.0170   20.0750 C   0  0  0  0  0  0  0  0  0  0  0  0
  -25.9730  -30.8740   21.3460 C   0  0  0  0  0  2  0  0  0  0  0  0
  -26.0630  -29.5030   20.6740 C   0  0  0  0  0  0  0  0  0  0  0  0
  -27.2510  -28.7020   20.6510 C   0  0  0  0  0  3  0  0  0  0  0  0
  -26.0760  -26.9720   19.4370 C   0  0  0  0  0  3  0  0  0  0  0  0
  -24.9070  -27.7620   19.4470 C   0  0  0  0  0  3  0  0  0  0  0  0
  -23.6480  -29.8800   20.1490 C   0  0  0  0  0  2  0  0  0  0  0  0
  -24.6990  -31.1280   22.0820 N   0  0  0  0  0  0  0  0  0  0  0  0
  -23.5470  -32.1760   23.7390 O   0  0  0  0  0  0  0  0  0  0  0  0
  -22.7900  -29.4940   22.4910 C   0  0  0  0  0  0  0  0  0  0  0  0
  -21.4740  -29.2680   22.3420 N   0  0  0  0  0  0  0  0  0  0  0  0
  -23.4770  -28.8950   23.3240 O   0  0  0  0  0  0  0  0  0  0  0  0
  -20.9780  -29.8030   21.6430 H   0  0  0  0  0  0  0  0  0  0  0  0
  -18.1430  -27.9180   22.7590 C   0  0  0  0  0  0  0  0  0  0  0  0
  -20.6770  -28.3020   23.1000 C   0  0  0  0  0  3  0  0  0  0  0  0
  -20.8630  -26.8700   22.5440 C   0  0  0  0  0  2  0  0  0  0  0  0
  -19.8080  -26.4860   21.5030 C   0  0  0  0  0  2  0  0  0  0  0  0
  -18.4030  -26.5720   22.1040 C   0  0  0  0  0  2  0  0  0  0  0  0
  -19.2110  -28.7360   23.2130 C   0  0  0  0  0  0  0  0  0  0  0  0
  -18.9150  -29.9930   23.7840 C   0  0  0  0  0  3  0  0  0  0  0  0
  -17.5830  -30.4320   23.9090 C   0  0  0  0  0  3  0  0  0  0  0  0
  -16.5290  -29.6110   23.4730 C   0  0  0  0  0  3  0  0  0  0  0  0
  -16.8100  -28.3560   22.9030 C   0  0  0  0  0  3  0  0  0  0  0  0
  -25.9080  -32.5650   23.8160 C   0  0  0  0  0  3  0  0  0  0  0  0
  -26.4340  -31.7930   25.0880 C   0  0  1  0  0  0  0  0  0  0  0  0
  -25.3420  -31.5290   26.1520 C   0  0  0  0  0  1  0  0  0  0  0  0
  -27.0410  -30.4280   24.6900 C   0  0  0  0  0  1  0  0  0  0  0  0
  -27.5690  -32.6010   25.7600 C   0  0  0  0  0  1  0  0  0  0  0  0
  -25.5840  -33.9580   24.1580 N   0  0  0  0  0  0  0  0  0  0  0  0
  -25.8900  -35.0200   23.4000 C   0  0  0  0  0  0  0  0  0  0  0  0
  -26.5430  -34.9310   22.3570 O   0  0  0  0  0  0  0  0  0  0  0  0
  -25.0040  -34.1010   24.9710 H   0  0  0  0  0  0  0  0  0  0  0  0
  -24.1370  -36.7960   23.0850 C   0  0  0  0  0  1  0  0  0  0  0  0
  -25.3940  -36.4000   23.8750 C   0  0  0  0  0  3  0  0  0  0  0  0
  -27.5240  -37.3110   24.6910 C   0  0  0  0  0  1  0  0  0  0  0  0
  -26.4130  -37.4660   23.7550 N   0  0  0  0  0  0  0  0  0  0  0  0
  -25.9960  -38.3800   23.9070 H   0  0  0  0  0  0  0  0  0  0  0  0
  1  3  1  0
  2  7  1  0
  2  3  2  0
  4  5  1  0
  4  2  1  0
  5  1  1  0
  7  6  1  0
  8 17  1  0
  9 14  1  0
 10 11  1  0
 10  9  1  0
 12 11  1  0
 12 21  1  0
 12 13  1  0
 14  8  1  0
 14 13  1  0
 15  8  2  0
 16 17  1  0
 17  7  1  0
 18 19  2  0
 19 38  1  0
 20 19  1  0
 20 23  1  0
 21 22  1  0
 21 18  1  0
 22 20  2  0
 23 24  1  0
 24 25  2  0
 26 29  1  0
 26 25  1  0
 27 26  2  0
 28 27  1  0
 28 23  2  0
 29 30  1  0
 30 35  2  0
 30 31  1  0
 31 32  2  0
 32 33  1  0
 33 37  1  0
 34 33  2  0
 35 34  1  0
 36 35  1  0
 38 39  1  0
 39 42  1  0
 39 41  1  0
 40 38  2  0
 43 18  1  0
 43 44  1  0
 45 43  1  0
 46  5  1  0
 46 47  1  0
 48 49  1  0
 48 47  2  0
 50 61  2  0
 51 49  1  0
 51 56  1  0
 52 60  1  0
 52 62  1  0
 53 59  1  0
 53 55  1  0
 54 60  1  0
 55 54  1  0
 56 55  2  0
 57 58  1  0
 57 51  2  0
 58 53  2  0
 59 52  1  0
 60 50  1  0
 62 64  2  0
 63 62  1  0
 65 63  1  0
 66 75  2  0
 66 71  1  0
 67 63  1  0
 67 71  1  0
 68 67  1  0
 69 70  1  0
 69 68  1  0
 70 66  1  0
 71 72  2  0
 72 73  1  0
 74 73  2  0
 75 74  1  0
 76 50  1  0
 76 81  1  0
 76 77  1  0
 77 80  1  1
 77 78  1  0
 79 77  1  0
 81 84  1  0
 82 86  1  0
 82 81  1  0
 83 82  2  0
 86 85  1  0
 88 86  1  0
 88 89  1  0
 88 87  1  0
M  ISO  4   8 100  17 100  48 101  49 101
M  END
>  <TORSDO>  (12) 
F 20

>  <SCORE>  (12) 
-12.709

>  <name>  (12) 
13

>  <ligand_id>  (12) 
13

>  <original_smiles>  (12) 
[H]c1c([H])c([H])c2c(c1[H])C([H])([H])C([H])([H])C([H])([H])C2([H])N([H])C(=O)C1([H])N(C(=O)C([H])(N([H])C(=O)C([H])(N([H])C([H])([H])[H])C([H])([H])[H])C(C([H])([H])[H])(C([H])([H])[H])C([H])([H])[H])C([H])([H])c2c([H])c(OC([H])([H])C([H])([H])C([H])([H])n3nc(C([H])(N(C(=O)N4C([H])([H])C([H])([H])C([H])([H])C([H])(n5nc(-c6c([H])c([H])c(Oc7c([H])c([H])c(F)c([H])c7F)c([H])c6[H])c(C(=O)N([H])[H])c5N([H])[H])C4([H])[H])C([H])([H])[H])C([H])([H])[H])nc3[H])c([H])c([H])c2C1([H])[H]

>  <smiles>  (12) 
[H]c1c([H])c([H])c2c(c1[H])C([H])([H])C([H])([H])C([H])([H])C2([H])N([H])C(=O)C1([H])N(C(=O)C([H])(N([H])C(=O)C([H])(N([H])C([H])([H])[H])C([H])([H])[H])C(C([H])([H])[H])(C([H])([H])[H])C([H])([H])[H])C([H])([H])c2c([H])c(OC([H])([H])C([H])([H])C([H])([H])n3nc(C([H])(N(C(=O)N4C([H])([H])C([H])([H])C([H])([H])C([H])(n5nc(-c6c([H])c([H])c(Oc7c([H])c([H])c(F)c([H])c7F)c([H])c6[H])c(C(=O)N([H])[H])c5N([H])[H])C4([H])[H])C([H])([H])[H])C([H])([H])[H])nc3[H])c([H])c([H])c2C1([H])[H]

$$$$
14:0:0
     RDKit          3D

 90 98  0  0  1  0  0  0  0  0999 V2000
  -30.4950  -20.3210   20.7810 C   0  0  0  0  0  3  0  0  0  0  0  0
  -29.2610  -19.8770   20.2740 C   0  0  0  0  0  0  0  0  0  0  0  0
  -28.6910  -22.5150   20.0930 C   0  0  0  0  0  0  0  0  0  0  0  0
  -30.0010  -22.6710   20.6330 C   0  0  0  0  0  0  0  0  0  0  0  0
  -30.8260  -21.6290   20.9690 N   0  0  0  0  0  0  0  0  0  0  0  0
  -28.3740  -21.0480   19.9480 N   0  0  0  0  0  0  0  0  0  0  0  0
  -32.0330  -24.2390   20.7190 C   0  0  0  0  0  1  0  0  0  0  0  0
  -30.2210  -24.3210   22.5140 C   0  0  0  0  0  1  0  0  0  0  0  0
  -30.5350  -24.0440   21.0340 C   0  0  0  0  0  3  0  0  0  0  0  0
  -29.0190  -18.1170   20.3930 C   0  0  0  0  0  2  0  0  0  0  0  0
  -30.3800  -15.3510   20.3070 C   0  0  0  0  0  0  0  0  0  0  0  0
  -30.2900  -12.8930   19.4150 C   0  0  0  0  0  2  0  0  0  0  0  0
  -29.3760  -12.6030   18.2030 C   0  0  0  0  0  2  0  0  0  0  0  0
  -27.9270  -12.3520   18.6460 C   0  0  0  0  0  2  0  0  0  0  0  0
  -27.4840  -13.3180   19.7720 C   0  0  0  0  0  3  0  0  0  0  0  0
  -28.5440  -13.5440   20.8710 C   0  0  0  0  0  2  0  0  0  0  0  0
  -29.7230  -14.0860   20.1690 N   0  0  0  0  0  0  0  0  0  0  0  0
  -31.6100  -15.1570   20.2490 O   0  0  0  0  0  0  0  0  0  0  0  0
  -30.7860  -17.2950   18.8870 C   0  0  0  0  0  1  0  0  0  0  0  0
  -29.9020  -16.7450   19.9270 N   0  0  0  0  0  0  0  0  0  0  0  0
  -25.1330  -13.8720   20.5620 C   0  0  0  0  0  0  0  0  0  0  0  0
  -24.0730  -13.0950   20.9290 C   0  0  0  0  0  0  0  0  0  0  0  0
  -24.5370  -11.7420   20.8890 C   0  0  0  0  0  0  0  0  0  0  0  0
  -26.1700  -12.9960   20.3050 N   0  0  0  0  0  0  0  0  0  0  0  0
  -25.8270  -11.7100   20.5710 N   0  0  0  0  0  0  0  0  0  0  0  0
  -23.8070  -10.4830   21.0700 C   0  0  0  0  0  0  0  0  0  0  0  0
  -24.2390   -9.5030   21.9900 C   0  0  0  0  0  3  0  0  0  0  0  0
  -23.5040   -8.3100   22.1650 C   0  0  0  0  0  3  0  0  0  0  0  0
  -22.3220   -8.0870   21.4180 C   0  0  0  0  0  0  0  0  0  0  0  0
  -21.9100   -9.0550   20.4860 C   0  0  0  0  0  3  0  0  0  0  0  0
  -22.6440  -10.2390   20.3090 C   0  0  0  0  0  3  0  0  0  0  0  0
  -21.5570   -6.9480   21.5020 O   0  0  0  0  0  0  0  0  0  0  0  0
  -21.5180   -6.1910   22.6450 C   0  0  0  0  0  0  0  0  0  0  0  0
  -21.0850   -6.7260   23.8780 C   0  0  0  0  0  3  0  0  0  0  0  0
  -20.9950   -5.8950   25.0120 C   0  0  0  0  0  3  0  0  0  0  0  0
  -21.3240   -4.5300   24.9150 C   0  0  0  0  0  0  0  0  0  0  0  0
  -21.7490   -3.9940   23.6870 C   0  0  0  0  0  3  0  0  0  0  0  0
  -21.8440   -4.8240   22.5540 C   0  0  0  0  0  0  0  0  0  0  0  0
  -22.2330   -4.2960   21.3680 F   0  0  0  0  0  0  0  0  0  0  0  0
  -21.2300   -3.7300   26.0040 F   0  0  0  0  0  0  0  0  0  0  0  0
  -22.6780  -13.5730   21.2010 C   0  0  0  0  0  0  0  0  0  0  0  0
  -21.9520  -12.8770   22.0680 N   0  0  0  0  0  0  0  0  0  0  0  0
  -22.2440  -14.6020   20.6830 O   0  0  0  0  0  0  0  0  0  0  0  0
  -22.3260  -12.0440   22.4990 H   0  0  0  0  0  0  0  0  0  0  0  0
  -21.0120  -13.1690   22.2920 H   0  0  0  0  0  0  0  0  0  0  0  0
  -25.3030  -15.2420   20.3910 N   0  0  0  0  0  0  0  0  0  0  0  0
  -24.5410  -15.9030   20.4960 H   0  0  0  0  0  0  0  0  0  0  0  0
  -26.1550  -15.6740   20.0590 H   0  0  0  0  0  0  0  0  0  0  0  0
  -27.6910  -23.9820   19.8060 C   0  0  0  0  0  2  0  0  0  0  0  0
  -27.9490  -25.6590   19.8620 O   0  0  0  0  0  0  0  0  0  0  0  0
  -24.3630  -31.6750   22.9300 C   0  0  0  0  0  0  0  0  0  0  0  0
  -26.9430  -26.7910   19.8270 C   0  0  0  0  0  0  0  0  0  0  0  0
  -23.1710  -30.2630   21.3090 C   0  0  0  0  0  3  0  0  0  0  0  0
  -24.6220  -28.6900   19.8390 C   0  0  0  0  0  0  0  0  0  0  0  0
  -25.7360  -30.5040   21.1210 C   0  0  0  0  0  2  0  0  0  0  0  0
  -25.8180  -29.0920   20.4480 C   0  0  0  0  0  0  0  0  0  0  0  0
  -26.9690  -28.1670   20.4150 C   0  0  0  0  0  3  0  0  0  0  0  0
  -25.7140  -26.5690   19.1660 C   0  0  0  0  0  3  0  0  0  0  0  0
  -24.6000  -27.4530   19.1770 C   0  0  0  0  0  3  0  0  0  0  0  0
  -23.3870  -29.5950   19.9240 C   0  0  0  0  0  2  0  0  0  0  0  0
  -24.4470  -30.8440   21.8390 N   0  0  0  0  0  0  0  0  0  0  0  0
  -23.2750  -31.9430   23.4670 O   0  0  0  0  0  0  0  0  0  0  0  0
  -22.5100  -29.2490   22.2790 C   0  0  0  0  0  0  0  0  0  0  0  0
  -21.1770  -29.0840   22.1990 N   0  0  0  0  0  0  0  0  0  0  0  0
  -23.2040  -28.6110   23.0750 O   0  0  0  0  0  0  0  0  0  0  0  0
  -20.6710  -29.6450   21.5300 H   0  0  0  0  0  0  0  0  0  0  0  0
  -17.8110  -27.8690   22.8230 C   0  0  0  0  0  0  0  0  0  0  0  0
  -20.3830  -28.1270   22.9770 C   0  0  0  0  0  3  0  0  0  0  0  0
  -20.4550  -26.7110   22.3570 C   0  0  0  0  0  2  0  0  0  0  0  0
  -19.3060  -26.4190   21.3870 C   0  0  0  0  0  2  0  0  0  0  0  0
  -17.9550  -26.5420   22.0950 C   0  0  0  0  0  2  0  0  0  0  0  0
  -18.9500  -28.6200   23.2220 C   0  0  0  0  0  0  0  0  0  0  0  0
  -18.7550  -29.8600   23.8700 C   0  0  0  0  0  3  0  0  0  0  0  0
  -17.4600  -30.3510   24.1140 C   0  0  0  0  0  3  0  0  0  0  0  0
  -16.3380  -29.5960   23.7290 C   0  0  0  0  0  3  0  0  0  0  0  0
  -16.5150  -28.3550   23.0920 C   0  0  0  0  0  3  0  0  0  0  0  0
  -25.6290  -32.3380   23.5520 C   0  0  0  0  0  3  0  0  0  0  0  0
  -26.2040  -31.5370   24.7850 C   0  0  1  0  0  0  0  0  0  0  0  0
  -25.1470  -31.2260   25.8710 C   0  0  0  0  0  1  0  0  0  0  0  0
  -26.8190  -30.1930   24.3350 C   0  0  0  0  0  1  0  0  0  0  0  0
  -27.3570  -32.3380   25.4370 C   0  0  0  0  0  1  0  0  0  0  0  0
  -25.2730  -33.7080   23.9660 N   0  0  0  0  0  0  0  0  0  0  0  0
  -25.6030  -34.8210   23.2960 C   0  0  0  0  0  0  0  0  0  0  0  0
  -26.3010  -34.8020   22.2780 O   0  0  0  0  0  0  0  0  0  0  0  0
  -24.6520  -33.7960   24.7570 H   0  0  0  0  0  0  0  0  0  0  0  0
  -23.8680  -36.6220   23.0110 C   0  0  0  0  0  1  0  0  0  0  0  0
  -25.0810  -36.1680   23.8390 C   0  0  0  0  0  3  0  0  0  0  0  0
  -27.1660  -37.0090   24.8280 C   0  0  0  0  0  1  0  0  0  0  0  0
  -26.1070  -37.2360   23.8490 N   0  0  0  0  0  0  0  0  0  0  0  0
  -25.6860  -38.1410   24.0400 H   0  0  0  0  0  0  0  0  0  0  0  0
  1  5  1  0
  2 10  1  0
  2  1  2  0
  3  4  1  0
  4  5  2  0
  4  9  1  0
  6  3  2  0
  6  2  1  0
  7  9  1  0
  9  8  1  0
 12 17  1  0
 13 14  1  0
 13 12  1  0
 15 14  1  0
 15 24  1  0
 15 16  1  0
 17 11  1  0
 17 16  1  0
 18 11  2  0
 19 20  1  0
 20 11  1  0
 20 10  1  0
 21 22  2  0
 22 41  1  0
 23 22  1  0
 23 26  1  0
 24 21  1  0
 24 25  1  0
 25 23  2  0
 26 27  1  0
 27 28  2  0
 29 32  1  0
 29 28  1  0
 30 29  2  0
 31 30  1  0
 31 26  2  0
 32 33  1  0
 33 34  1  0
 34 35  2  0
 36 35  1  0
 36 40  1  0
 37 36  2  0
 38 33  2  0
 38 37  1  0
 39 38  1  0
 41 42  1  0
 42 45  1  0
 42 44  1  0
 43 41  2  0
 46 47  1  0
 46 21  1  0
 48 46  1  0
 49 50  1  0
 49  3  1  0
 51 62  2  0
 52 50  1  0
 52 57  1  0
 53 61  1  0
 53 63  1  0
 54 60  1  0
 54 56  1  0
 55 61  1  0
 56 55  1  0
 57 56  2  0
 58 59  1  0
 58 52  2  0
 59 54  2  0
 60 53  1  0
 61 51  1  0
 63 65  2  0
 64 63  1  0
 66 64  1  0
 67 76  2  0
 67 72  1  0
 68 64  1  0
 68 72  1  0
 69 68  1  0
 70 71  1  0
 70 69  1  0
 71 67  1  0
 72 73  2  0
 73 74  1  0
 75 74  2  0
 76 75  1  0
 77 51  1  0
 77 82  1  0
 77 78  1  0
 78 81  1  1
 78 79  1  0
 80 78  1  0
 82 85  1  0
 83 87  1  0
 83 82  1  0
 84 83  2  0
 87 86  1  0
 87 89  1  0
 89 90  1  0
 89 88  1  0
M  ISO  4  11 100  20 100  49 101  50 101
M  END
>  <TORSDO>  (13) 
F 19

>  <SCORE>  (13) 
-15.451

>  <name>  (13) 
14

>  <ligand_id>  (13) 
14

>  <original_smiles>  (13) 
[H]c1nc(C([H])(C([H])([H])[H])C([H])([H])[H])c(C([H])([H])Oc2c([H])c([H])c3c(c2[H])C([H])([H])N(C(=O)C([H])(N([H])C(=O)C([H])(N([H])C([H])([H])[H])C([H])([H])[H])C(C([H])([H])[H])(C([H])([H])[H])C([H])([H])[H])C([H])(C(=O)N([H])C2([H])c4c([H])c([H])c([H])c([H])c4C([H])([H])C([H])([H])C2([H])[H])C3([H])[H])nc1C([H])([H])N(C(=O)N1C([H])([H])C([H])([H])C([H])([H])C([H])(n2nc(-c3c([H])c([H])c(Oc4c([H])c([H])c(F)c([H])c4F)c([H])c3[H])c(C(=O)N([H])[H])c2N([H])[H])C1([H])[H])C([H])([H])[H]

>  <smiles>  (13) 
[H]c1nc(C([H])(C([H])([H])[H])C([H])([H])[H])c(C([H])([H])Oc2c([H])c([H])c3c(c2[H])C([H])([H])N(C(=O)C([H])(N([H])C(=O)C([H])(N([H])C([H])([H])[H])C([H])([H])[H])C(C([H])([H])[H])(C([H])([H])[H])C([H])([H])[H])C([H])(C(=O)N([H])C2([H])c4c([H])c([H])c([H])c([H])c4C([H])([H])C([H])([H])C2([H])[H])C3([H])[H])nc1C([H])([H])N(C(=O)N1C([H])([H])C([H])([H])C([H])([H])C([H])(n2nc(-c3c([H])c([H])c(Oc4c([H])c([H])c(F)c([H])c4F)c([H])c3[H])c(C(=O)N([H])[H])c2N([H])[H])C1([H])[H])C([H])([H])[H]

$$$$
15:0:0
     RDKit          3D

 93101  0  0  1  0  0  0  0  0999 V2000
  -29.6520  -21.7140   20.6390 N   0  0  0  0  0  4  0  0  0  0  0  0
  -29.2330  -21.6970   21.5540 H   0  0  0  0  0  0  0  0  0  0  0  0
  -30.5840  -21.3590   20.7690 H   0  0  0  0  0  0  0  0  0  0  0  0
  -27.5060  -20.5750   20.3030 C   0  0  0  0  0  1  0  0  0  0  0  0
  -28.8810  -21.1180   18.2930 C   0  0  0  0  0  1  0  0  0  0  0  0
  -28.9490  -20.7020   19.7800 C   0  0  1  0  0  0  0  0  0  0  0  0
  -30.7940  -18.8680   19.1460 C   0  0  0  0  0  3  0  0  0  0  0  0
  -29.3080  -18.1910   20.5790 C   0  0  0  0  0  3  0  0  0  0  0  0
  -29.6460  -19.3210   19.8620 C   0  0  0  0  0  0  0  0  0  0  0  0
  -31.1400  -17.6140   19.4290 N   0  0  0  0  0  0  0  0  0  0  0  0
  -30.2050  -17.1620   20.2990 N   0  0  0  0  0  0  0  0  0  0  0  0
  -31.0010  -15.9450   22.2890 C   0  0  0  0  0  1  0  0  0  0  0  0
  -30.2650  -15.8180   20.9430 C   0  0  0  0  0  3  0  0  0  0  0  0
  -30.8730  -14.6140   20.1250 C   0  0  0  0  0  0  0  0  0  0  0  0
  -30.6030  -12.4070   19.0160 C   0  0  0  0  0  2  0  0  0  0  0  0
  -29.6030  -12.5290   17.8480 C   0  0  0  0  0  2  0  0  0  0  0  0
  -28.1500  -12.3700   18.3390 C   0  0  0  0  0  2  0  0  0  0  0  0
  -27.8460  -13.2320   19.5950 C   0  0  0  0  0  3  0  0  0  0  0  0
  -28.9510  -13.0430   20.6560 C   0  0  0  0  0  2  0  0  0  0  0  0
  -30.2300  -13.4080   20.0300 N   0  0  0  0  0  0  0  0  0  0  0  0
  -31.9580  -14.7850   19.5550 O   0  0  0  0  0  0  0  0  0  0  0  0
  -25.4890  -13.8250   20.4370 C   0  0  0  0  0  0  0  0  0  0  0  0
  -24.4380  -13.0450   20.8400 C   0  0  0  0  0  0  0  0  0  0  0  0
  -24.8900  -11.6940   20.7480 C   0  0  0  0  0  0  0  0  0  0  0  0
  -26.5180  -12.9470   20.1310 N   0  0  0  0  0  0  0  0  0  0  0  0
  -26.1630  -11.6590   20.3730 N   0  0  0  0  0  0  0  0  0  0  0  0
  -24.1700  -10.4290   20.9400 C   0  0  0  0  0  0  0  0  0  0  0  0
  -24.5870   -9.4790   21.8980 C   0  0  0  0  0  3  0  0  0  0  0  0
  -23.8670   -8.2780   22.0770 C   0  0  0  0  0  3  0  0  0  0  0  0
  -22.7150   -8.0200   21.2980 C   0  0  0  0  0  0  0  0  0  0  0  0
  -22.3170   -8.9580   20.3310 C   0  0  0  0  0  3  0  0  0  0  0  0
  -23.0370  -10.1500   20.1490 C   0  0  0  0  0  3  0  0  0  0  0  0
  -21.9680   -6.8690   21.3860 O   0  0  0  0  0  0  0  0  0  0  0  0
  -21.8280   -6.1900   22.5700 C   0  0  0  0  0  0  0  0  0  0  0  0
  -21.2790   -6.7990   23.7190 C   0  0  0  0  0  3  0  0  0  0  0  0
  -21.0900   -6.0450   24.8940 C   0  0  0  0  0  3  0  0  0  0  0  0
  -21.4390   -4.6810   24.9200 C   0  0  0  0  0  0  0  0  0  0  0  0
  -21.9810   -4.0710   23.7740 C   0  0  0  0  0  3  0  0  0  0  0  0
  -22.1720   -4.8230   22.6020 C   0  0  0  0  0  0  0  0  0  0  0  0
  -22.6750   -4.2250   21.4950 F   0  0  0  0  0  0  0  0  0  0  0  0
  -21.2500   -3.9540   26.0450 F   0  0  0  0  0  0  0  0  0  0  0  0
  -23.0580  -13.5200   21.2000 C   0  0  0  0  0  0  0  0  0  0  0  0
  -22.3760  -12.8060   22.0890 N   0  0  0  0  0  0  0  0  0  0  0  0
  -22.5940  -14.5550   20.7250 O   0  0  0  0  0  0  0  0  0  0  0  0
  -22.7630  -11.9660   22.4930 H   0  0  0  0  0  0  0  0  0  0  0  0
  -21.4530  -13.1050   22.3700 H   0  0  0  0  0  0  0  0  0  0  0  0
  -25.6520  -15.1980   20.2850 N   0  0  0  0  0  0  0  0  0  0  0  0
  -24.8940  -15.8540   20.4410 H   0  0  0  0  0  0  0  0  0  0  0  0
  -26.4790  -15.6350   19.8980 H   0  0  0  0  0  0  0  0  0  0  0  0
  -29.8370  -23.1510   20.2110 C   0  0  0  0  0  2  0  0  0  0  0  0
  -28.6070  -24.1460   20.3120 C   0  0  0  0  0  2  0  0  0  0  0  0
  -28.4810  -25.5360   21.0630 C   0  0  0  0  0  2  0  0  0  0  0  0
  -28.5480  -26.7610   20.2820 O   0  0  0  0  0  0  0  0  0  0  0  0
  -24.6300  -31.8810   23.3620 C   0  0  0  0  0  0  0  0  0  0  0  0
  -27.3980  -27.5250   20.2640 C   0  0  0  0  0  0  0  0  0  0  0  0
  -23.4930  -30.5260   21.6340 C   0  0  0  0  0  3  0  0  0  0  0  0
  -25.0060  -29.0340   20.2180 C   0  0  0  0  0  0  0  0  0  0  0  0
  -26.0230  -30.8980   21.5400 C   0  0  0  0  0  2  0  0  0  0  0  0
  -26.1410  -29.5460   20.8600 C   0  0  0  0  0  0  0  0  0  0  0  0
  -27.3460  -28.8030   20.8720 C   0  0  0  0  0  3  0  0  0  0  0  0
  -26.2510  -27.0290   19.6160 C   0  0  0  0  0  3  0  0  0  0  0  0
  -25.0570  -27.7790   19.5880 C   0  0  0  0  0  3  0  0  0  0  0  0
  -23.7560  -29.8870   20.2430 C   0  0  0  0  0  2  0  0  0  0  0  0
  -24.7310  -31.1170   22.2370 N   0  0  0  0  0  0  0  0  0  0  0  0
  -23.5280  -32.1310   23.8710 O   0  0  0  0  0  0  0  0  0  0  0  0
  -22.8120  -29.4740   22.5410 C   0  0  0  0  0  0  0  0  0  0  0  0
  -21.4870  -29.3140   22.3860 N   0  0  0  0  0  0  0  0  0  0  0  0
  -23.4730  -28.8050   23.3390 O   0  0  0  0  0  0  0  0  0  0  0  0
  -21.0150  -29.9080   21.7180 H   0  0  0  0  0  0  0  0  0  0  0  0
  -18.0820  -28.1840   22.8130 C   0  0  0  0  0  0  0  0  0  0  0  0
  -20.6440  -28.3540   23.0990 C   0  0  0  0  0  3  0  0  0  0  0  0
  -20.7090  -26.9560   22.4400 C   0  0  0  0  0  2  0  0  0  0  0  0
  -19.5990  -26.7260   21.4090 C   0  0  0  0  0  2  0  0  0  0  0  0
  -18.2210  -26.8720   22.0600 C   0  0  0  0  0  2  0  0  0  0  0  0
  -19.2190  -28.8880   23.2880 C   0  0  0  0  0  0  0  0  0  0  0  0
  -19.0340  -30.1210   23.9500 C   0  0  0  0  0  3  0  0  0  0  0  0
  -17.7450  -30.6470   24.1430 C   0  0  0  0  0  3  0  0  0  0  0  0
  -16.6200  -29.9370   23.6870 C   0  0  0  0  0  3  0  0  0  0  0  0
  -16.7900  -28.7070   23.0270 C   0  0  0  0  0  3  0  0  0  0  0  0
  -25.8890  -32.4980   24.0480 C   0  0  0  0  0  3  0  0  0  0  0  0
  -25.5760  -33.8950   24.3730 N   0  0  0  0  0  0  0  0  0  0  0  0
  -25.9670  -34.9510   23.6490 C   0  0  0  0  0  0  0  0  0  0  0  0
  -26.6980  -34.8510   22.6590 O   0  0  0  0  0  0  0  0  0  0  0  0
  -24.9370  -34.0500   25.1400 H   0  0  0  0  0  0  0  0  0  0  0  0
  -24.2980  -36.7770   23.1930 C   0  0  0  0  0  1  0  0  0  0  0  0
  -25.4670  -36.3410   24.0900 C   0  0  0  0  0  3  0  0  0  0  0  0
  -27.5390  -37.1840   25.1020 C   0  0  0  0  0  1  0  0  0  0  0  0
  -26.5200  -37.3790   24.0730 N   0  0  0  0  0  0  0  0  0  0  0  0
  -26.1170  -38.3040   24.1980 H   0  0  0  0  0  0  0  0  0  0  0  0
  -26.3430  -31.7130   25.3400 C   0  0  1  0  0  0  0  0  0  0  0  0
  -25.2000  -31.4670   26.3530 C   0  0  0  0  0  1  0  0  0  0  0  0
  -26.9420  -30.3390   24.9610 C   0  0  0  0  0  1  0  0  0  0  0  0
  -27.4600  -32.4980   26.0680 C   0  0  0  0  0  1  0  0  0  0  0  0
  1  3  1  0
  1  2  1  0
  6  5  1  6
  6  9  1  0
  6  4  1  0
  6  1  1  0
  7 10  2  0
  7  9  1  0
  9  8  2  0
 10 11  1  0
 11  8  1  0
 11 13  1  0
 13 12  1  0
 14 13  1  0
 15 20  1  0
 16 17  1  0
 16 15  1  0
 18 17  1  0
 18 25  1  0
 18 19  1  0
 20 14  1  0
 20 19  1  0
 21 14  2  0
 22 23  2  0
 23 42  1  0
 24 23  1  0
 24 27  1  0
 25 26  1  0
 25 22  1  0
 26 24  2  0
 27 28  1  0
 28 29  2  0
 30 33  1  0
 30 29  1  0
 31 30  2  0
 32 31  1  0
 32 27  2  0
 33 34  1  0
 34 39  2  0
 34 35  1  0
 35 36  2  0
 36 37  1  0
 37 41  1  0
 38 37  2  0
 39 38  1  0
 40 39  1  0
 42 43  1  0
 43 46  1  0
 43 45  1  0
 44 42  2  0
 47 22  1  0
 47 48  1  0
 49 47  1  0
 50 51  1  0
 50  1  1  0
 51 52  1  0
 53 52  1  0
 54 65  2  0
 55 53  1  0
 55 60  1  0
 56 64  1  0
 56 66  1  0
 57 63  1  0
 57 59  1  0
 58 64  1  0
 59 60  2  0
 59 58  1  0
 61 55  2  0
 62 61  1  0
 62 57  2  0
 63 56  1  0
 64 54  1  0
 66 68  2  0
 67 66  1  0
 69 67  1  0
 70 79  2  0
 70 75  1  0
 71 67  1  0
 71 75  1  0
 72 71  1  0
 73 74  1  0
 73 72  1  0
 74 70  1  0
 75 76  2  0
 76 77  1  0
 78 77  2  0
 79 78  1  0
 80 54  1  0
 80 81  1  0
 80 90  1  0
 81 84  1  0
 82 86  1  0
 82 81  1  0
 83 82  2  0
 86 85  1  0
 88 86  1  0
 88 89  1  0
 88 87  1  0
 90 93  1  1
 90 91  1  0
 92 90  1  0
M  ISO  4  13 100  14 100  52 101  53 101
M  END
>  <TORSDO>  (14) 
F 22

>  <SCORE>  (14) 
-12.505

>  <name>  (14) 
15

>  <ligand_id>  (14) 
15

>  <original_smiles>  (14) 
[H]c1nn(C([H])(C(=O)N2C([H])([H])C([H])([H])C([H])([H])C([H])(n3nc(-c4c([H])c([H])c(Oc5c([H])c([H])c(F)c([H])c5F)c([H])c4[H])c(C(=O)N([H])[H])c3N([H])[H])C2([H])[H])C([H])([H])[H])c([H])c1C(C([H])([H])[H])(C([H])([H])[H])[N+]([H])([H])C([H])([H])C([H])([H])C([H])([H])Oc1c([H])c([H])c2c(c1[H])C([H])([H])N(C(=O)C([H])(N([H])C(=O)C([H])(N([H])C([H])([H])[H])C([H])([H])[H])C(C([H])([H])[H])(C([H])([H])[H])C([H])([H])[H])C([H])(C(=O)N([H])C1([H])c3c([H])c([H])c([H])c([H])c3C([H])([H])C([H])([H])C1([H])[H])C2([H])[H]

>  <smiles>  (14) 
[H]c1nn(C([H])(C(=O)N2C([H])([H])C([H])([H])C([H])([H])C([H])(n3nc(-c4c([H])c([H])c(Oc5c([H])c([H])c(F)c([H])c5F)c([H])c4[H])c(C(=O)N([H])[H])c3N([H])[H])C2([H])[H])C([H])([H])[H])c([H])c1C(C([H])([H])[H])(C([H])([H])[H])[N+]([H])([H])C([H])([H])C([H])([H])C([H])([H])Oc1c([H])c([H])c2c(c1[H])C([H])([H])N(C(=O)C([H])(N([H])C(=O)C([H])(N([H])C([H])([H])[H])C([H])([H])[H])C(C([H])([H])[H])(C([H])([H])[H])C([H])([H])[H])C([H])(C(=O)N([H])C1([H])c3c([H])c([H])c([H])c([H])c3C([H])([H])C([H])([H])C1([H])[H])C2([H])[H]

$$$$
16:0:0
     RDKit          3D

 89 97  0  0  1  0  0  0  0  0999 V2000
  -31.2760  -18.9660   19.8690 C   0  0  0  0  0  3  0  0  0  0  0  0
  -30.8630  -21.2560   19.7570 C   0  0  0  0  0  2  0  0  0  0  0  0
  -30.0510  -18.7250   20.5300 C   0  0  0  0  0  3  0  0  0  0  0  0
  -29.6060  -21.1160   20.4010 C   0  0  0  0  0  0  0  0  0  0  0  0
  -31.6790  -20.2030   19.4870 N   0  0  0  0  0  0  0  0  0  0  0  0
  -29.2140  -19.8250   20.7870 N   0  0  0  0  0  0  0  0  0  0  0  0
  -29.7600  -17.2440   21.0820 C   0  0  0  0  0  2  0  0  0  0  0  0
  -30.5760  -14.8130   20.3570 C   0  0  0  0  0  0  0  0  0  0  0  0
  -30.3890  -12.5130   19.3750 C   0  0  0  0  0  2  0  0  0  0  0  0
  -29.4510  -12.5330   18.1480 C   0  0  0  0  0  2  0  0  0  0  0  0
  -27.9770  -12.3830   18.5810 C   0  0  0  0  0  2  0  0  0  0  0  0
  -27.5950  -13.2800   19.7900 C   0  0  0  0  0  3  0  0  0  0  0  0
  -28.6590  -13.2320   20.9060 C   0  0  0  0  0  2  0  0  0  0  0  0
  -29.9430  -13.5880   20.2910 N   0  0  0  0  0  0  0  0  0  0  0  0
  -31.7970  -14.8740   20.1780 O   0  0  0  0  0  0  0  0  0  0  0  0
  -29.4280  -16.3200   18.8380 C   0  0  0  0  0  1  0  0  0  0  0  0
  -29.8000  -15.9740   20.2150 N   0  0  0  0  0  0  0  0  0  0  0  0
  -25.2110  -13.8730   20.5140 C   0  0  0  0  0  0  0  0  0  0  0  0
  -24.1450  -13.0990   20.8800 C   0  0  0  0  0  0  0  0  0  0  0  0
  -24.6100  -11.7480   20.8610 C   0  0  0  0  0  0  0  0  0  0  0  0
  -26.2560  -12.9920   20.2860 N   0  0  0  0  0  0  0  0  0  0  0  0
  -25.9020  -11.7100   20.5610 N   0  0  0  0  0  0  0  0  0  0  0  0
  -23.8850  -10.4870   21.0520 C   0  0  0  0  0  0  0  0  0  0  0  0
  -24.3260   -9.5160   21.9770 C   0  0  0  0  0  3  0  0  0  0  0  0
  -23.6010   -8.3180   22.1580 C   0  0  0  0  0  3  0  0  0  0  0  0
  -22.4210   -8.0840   21.4120 C   0  0  0  0  0  0  0  0  0  0  0  0
  -21.9990   -9.0440   20.4750 C   0  0  0  0  0  3  0  0  0  0  0  0
  -22.7260  -10.2330   20.2930 C   0  0  0  0  0  3  0  0  0  0  0  0
  -21.6650   -6.9400   21.5030 O   0  0  0  0  0  0  0  0  0  0  0  0
  -21.6390   -6.1850   22.6480 C   0  0  0  0  0  0  0  0  0  0  0  0
  -21.2460   -6.7280   23.8900 C   0  0  0  0  0  3  0  0  0  0  0  0
  -21.1660   -5.9000   25.0270 C   0  0  0  0  0  3  0  0  0  0  0  0
  -21.4660   -4.5280   24.9230 C   0  0  0  0  0  0  0  0  0  0  0  0
  -21.8510   -3.9840   23.6850 C   0  0  0  0  0  3  0  0  0  0  0  0
  -21.9340   -4.8100   22.5500 C   0  0  0  0  0  0  0  0  0  0  0  0
  -22.2840   -4.2750   21.3560 F   0  0  0  0  0  0  0  0  0  0  0  0
  -21.3810   -3.7310   26.0140 F   0  0  0  0  0  0  0  0  0  0  0  0
  -22.7450  -13.5760   21.1380 C   0  0  0  0  0  0  0  0  0  0  0  0
  -22.0130  -12.8850   22.0040 N   0  0  0  0  0  0  0  0  0  0  0  0
  -22.3090  -14.5980   20.6090 O   0  0  0  0  0  0  0  0  0  0  0  0
  -22.3780  -12.0580   22.4540 H   0  0  0  0  0  0  0  0  0  0  0  0
  -21.0730  -13.1860   22.2190 H   0  0  0  0  0  0  0  0  0  0  0  0
  -25.3750  -15.2440   20.3330 N   0  0  0  0  0  0  0  0  0  0  0  0
  -24.6110  -15.9010   20.4470 H   0  0  0  0  0  0  0  0  0  0  0  0
  -26.2340  -15.6850   20.0280 H   0  0  0  0  0  0  0  0  0  0  0  0
  -28.7390  -22.2320   20.6430 O   0  0  0  0  0  0  0  0  0  0  0  0
  -29.1430  -23.6710   20.4290 C   0  0  0  0  0  3  0  0  0  0  0  0
  -28.0100  -24.8440   20.3580 C   0  0  0  0  0  3  0  0  0  0  0  0
  -28.2960  -26.3360   20.3020 O   0  0  0  0  0  0  0  0  0  0  0  0
  -24.6400  -31.9130   23.2410 C   0  0  0  0  0  0  0  0  0  0  0  0
  -27.2100  -27.2520   20.2370 C   0  0  0  0  0  0  0  0  0  0  0  0
  -23.4280  -30.5070   21.6170 C   0  0  0  0  0  3  0  0  0  0  0  0
  -24.8670  -28.9330   20.2010 C   0  0  0  0  0  0  0  0  0  0  0  0
  -25.9740  -30.7930   21.4300 C   0  0  0  0  0  2  0  0  0  0  0  0
  -26.0450  -29.4030   20.7940 C   0  0  0  0  0  0  0  0  0  0  0  0
  -27.2190  -28.5780   20.7960 C   0  0  0  0  0  3  0  0  0  0  0  0
  -26.0050  -26.8590   19.6090 C   0  0  0  0  0  3  0  0  0  0  0  0
  -24.8540  -27.6700   19.5940 C   0  0  0  0  0  3  0  0  0  0  0  0
  -23.6370  -29.8210   20.2430 C   0  0  0  0  0  2  0  0  0  0  0  0
  -24.7010  -31.0910   22.1510 N   0  0  0  0  0  0  0  0  0  0  0  0
  -23.5580  -32.2020   23.7740 O   0  0  0  0  0  0  0  0  0  0  0  0
  -22.7590  -29.5040   22.5880 C   0  0  0  0  0  0  0  0  0  0  0  0
  -21.4310  -29.3280   22.4600 N   0  0  0  0  0  0  0  0  0  0  0  0
  -23.4330  -28.8860   23.4170 O   0  0  0  0  0  0  0  0  0  0  0  0
  -20.9450  -29.8770   21.7650 H   0  0  0  0  0  0  0  0  0  0  0  0
  -18.0510  -28.1320   22.9620 C   0  0  0  0  0  0  0  0  0  0  0  0
  -20.6090  -28.4000   23.2410 C   0  0  0  0  0  3  0  0  0  0  0  0
  -20.7150  -26.9610   22.6870 C   0  0  0  0  0  2  0  0  0  0  0  0
  -19.6200  -26.6220   21.6720 C   0  0  0  0  0  2  0  0  0  0  0  0
  -18.2340  -26.7730   22.3060 C   0  0  0  0  0  2  0  0  0  0  0  0
  -19.1670  -28.9030   23.3850 C   0  0  0  0  0  0  0  0  0  0  0  0
  -18.9420  -30.1740   23.9580 C   0  0  0  0  0  3  0  0  0  0  0  0
  -17.6350  -30.6740   24.1120 C   0  0  0  0  0  3  0  0  0  0  0  0
  -16.5350  -29.9010   23.7030 C   0  0  0  0  0  3  0  0  0  0  0  0
  -16.7440  -28.6310   23.1340 C   0  0  0  0  0  3  0  0  0  0  0  0
  -25.9240  -32.5470   23.8560 C   0  0  0  0  0  3  0  0  0  0  0  0
  -26.4450  -31.7780   25.1330 C   0  0  1  0  0  0  0  0  0  0  0  0
  -25.3570  -31.5460   26.2060 C   0  0  0  0  0  1  0  0  0  0  0  0
  -27.0230  -30.3970   24.7430 C   0  0  0  0  0  1  0  0  0  0  0  0
  -27.6010  -32.5700   25.7870 C   0  0  0  0  0  1  0  0  0  0  0  0
  -25.6160  -33.9460   24.1870 N   0  0  0  0  0  0  0  0  0  0  0  0
  -25.9400  -35.0000   23.4270 C   0  0  0  0  0  0  0  0  0  0  0  0
  -26.5990  -34.8960   22.3880 O   0  0  0  0  0  0  0  0  0  0  0  0
  -25.0300  -34.0990   24.9950 H   0  0  0  0  0  0  0  0  0  0  0  0
  -24.2060  -36.7920   23.0950 C   0  0  0  0  0  1  0  0  0  0  0  0
  -25.4590  -36.3880   23.8890 C   0  0  0  0  0  3  0  0  0  0  0  0
  -27.6050  -37.2750   24.6880 C   0  0  0  0  0  1  0  0  0  0  0  0
  -26.4890  -37.4420   23.7610 N   0  0  0  0  0  0  0  0  0  0  0  0
  -26.0850  -38.3620   23.9130 H   0  0  0  0  0  0  0  0  0  0  0  0
  1  3  1  0
  2  4  1  0
  3  6  1  0
  3  7  1  0
  4 46  1  0
  4  6  2  0
  5  2  1  0
  5  1  2  0
  9 14  1  0
 10 11  1  0
 10  9  1  0
 12 11  1  0
 12 21  1  0
 12 13  1  0
 14  8  1  0
 14 13  1  0
 15  8  2  0
 16 17  1  0
 17  8  1  0
 17  7  1  0
 18 19  2  0
 19 38  1  0
 20 19  1  0
 20 23  1  0
 21 18  1  0
 21 22  1  0
 22 20  2  0
 23 24  1  0
 24 25  2  0
 26 29  1  0
 26 25  1  0
 27 26  2  0
 28 27  1  0
 28 23  2  0
 29 30  1  0
 30 31  1  0
 31 32  2  0
 33 32  1  0
 33 37  1  0
 34 33  2  0
 35 30  2  0
 35 34  1  0
 36 35  1  0
 38 39  1  0
 39 42  1  0
 39 41  1  0
 40 38  2  0
 43 44  1  0
 43 18  1  0
 45 43  1  0
 47 46  1  0
 48 47  2  0
 49 48  1  0
 50 61  2  0
 51 49  1  0
 51 56  1  0
 52 60  1  0
 52 62  1  0
 53 59  1  0
 53 55  1  0
 54 60  1  0
 55 56  2  0
 55 54  1  0
 57 51  2  0
 58 57  1  0
 58 53  2  0
 59 52  1  0
 60 50  1  0
 62 64  2  0
 63 62  1  0
 65 63  1  0
 66 75  2  0
 66 71  1  0
 67 63  1  0
 67 71  1  0
 68 67  1  0
 69 70  1  0
 69 68  1  0
 70 66  1  0
 71 72  2  0
 72 73  1  0
 74 73  2  0
 75 74  1  0
 76 50  1  0
 76 81  1  0
 76 77  1  0
 77 80  1  1
 77 78  1  0
 79 77  1  0
 81 84  1  0
 82 86  1  0
 82 81  1  0
 83 82  2  0
 86 85  1  0
 88 86  1  0
 88 89  1  0
 88 87  1  0
M  ISO  4   8 100  17 100  48 101  49 101
M  END
>  <TORSDO>  (15) 
F 20

>  <SCORE>  (15) 
-13.721

>  <name>  (15) 
16

>  <ligand_id>  (15) 
16

>  <original_smiles>  (15) 
[H]c1nc([H])c(C([H])([H])N(C(=O)N2C([H])([H])C([H])([H])C([H])([H])C([H])(n3nc(-c4c([H])c([H])c(Oc5c([H])c([H])c(F)c([H])c5F)c([H])c4[H])c(C(=O)N([H])[H])c3N([H])[H])C2([H])[H])C([H])([H])[H])nc1OC([H])([H])C([H])([H])Oc1c([H])c([H])c2c(c1[H])C([H])([H])N(C(=O)C([H])(N([H])C(=O)C([H])(N([H])C([H])([H])[H])C([H])([H])[H])C(C([H])([H])[H])(C([H])([H])[H])C([H])([H])[H])C([H])(C(=O)N([H])C1([H])c3c([H])c([H])c([H])c([H])c3C([H])([H])C([H])([H])C1([H])[H])C2([H])[H]

>  <smiles>  (15) 
[H]c1nc([H])c(C([H])([H])N(C(=O)N2C([H])([H])C([H])([H])C([H])([H])C([H])(n3nc(-c4c([H])c([H])c(Oc5c([H])c([H])c(F)c([H])c5F)c([H])c4[H])c(C(=O)N([H])[H])c3N([H])[H])C2([H])[H])C([H])([H])[H])nc1OC([H])([H])C([H])([H])Oc1c([H])c([H])c2c(c1[H])C([H])([H])N(C(=O)C([H])(N([H])C(=O)C([H])(N([H])C([H])([H])[H])C([H])([H])[H])C(C([H])([H])[H])(C([H])([H])[H])C([H])([H])[H])C([H])(C(=O)N([H])C1([H])c3c([H])c([H])c([H])c([H])c3C([H])([H])C([H])([H])C1([H])[H])C2([H])[H]

$$$$
17:0:0
     RDKit          3D

 95103  0  0  1  0  0  0  0  0999 V2000
  -30.5920  -20.8780   22.7470 C   0  0  0  0  0  0  0  0  0  0  0  0
  -30.7560  -19.9370   21.6930 C   0  0  0  0  0  0  0  0  0  0  0  0
  -30.6000  -21.6870   20.1630 C   0  0  0  0  0  0  0  0  0  0  0  0
  -30.2270  -22.5810   21.2090 C   0  0  0  0  0  0  0  0  0  0  0  0
  -30.5410  -20.4610   24.2050 C   0  0  0  0  0  1  0  0  0  0  0  0
  -30.3250  -22.1870   22.5040 N   0  0  0  0  0  0  0  0  0  0  0  0
  -30.8410  -20.3710   20.4090 N   0  0  0  0  0  0  0  0  0  0  0  0
  -32.0520  -21.8630   18.0830 C   0  0  0  0  0  1  0  0  0  0  0  0
  -30.6610  -22.0910   18.6950 C   0  0  0  0  0  2  0  0  0  0  0  0
  -29.4530  -23.8930   20.9750 C   0  0  0  0  0  2  0  0  0  0  0  0
  -30.2170  -25.2260   21.1550 C   0  0  0  0  0  2  0  0  0  0  0  0
  -29.2910  -26.4730   21.2650 C   0  0  0  0  0  2  0  0  0  0  0  0
  -28.5990  -26.7340   20.0400 O   0  0  0  0  0  0  0  0  0  0  0  0
  -24.7460  -31.8810   23.2240 C   0  0  0  0  0  0  0  0  0  0  0  0
  -27.4510  -27.4980   20.1140 C   0  0  0  0  0  0  0  0  0  0  0  0
  -23.5570  -30.4930   21.5570 C   0  0  0  0  0  3  0  0  0  0  0  0
  -25.0360  -28.9790   20.1250 C   0  0  0  0  0  0  0  0  0  0  0  0
  -26.0820  -30.8690   21.3810 C   0  0  0  0  0  2  0  0  0  0  0  0
  -26.1840  -29.5020   20.7370 C   0  0  0  0  0  0  0  0  0  0  0  0
  -27.3920  -28.7650   20.7420 C   0  0  0  0  0  3  0  0  0  0  0  0
  -26.2910  -26.9930   19.4900 C   0  0  0  0  0  3  0  0  0  0  0  0
  -25.0830  -27.7190   19.5030 C   0  0  0  0  0  3  0  0  0  0  0  0
  -23.7850  -29.8310   20.1700 C   0  0  0  0  0  2  0  0  0  0  0  0
  -24.8120  -31.0970   22.1130 N   0  0  0  0  0  0  0  0  0  0  0  0
  -23.6590  -32.1400   23.7610 O   0  0  0  0  0  0  0  0  0  0  0  0
  -22.9070  -29.4550   22.5010 C   0  0  0  0  0  0  0  0  0  0  0  0
  -21.5860  -29.2570   22.3580 N   0  0  0  0  0  0  0  0  0  0  0  0
  -23.5880  -28.8330   23.3220 O   0  0  0  0  0  0  0  0  0  0  0  0
  -21.1000  -29.8140   21.6690 H   0  0  0  0  0  0  0  0  0  0  0  0
  -18.2170  -28.0210   22.8040 C   0  0  0  0  0  0  0  0  0  0  0  0
  -20.7690  -28.3030   23.1080 C   0  0  0  0  0  3  0  0  0  0  0  0
  -20.8930  -26.8800   22.5180 C   0  0  0  0  0  2  0  0  0  0  0  0
  -19.8050  -26.5550   21.4890 C   0  0  0  0  0  2  0  0  0  0  0  0
  -18.4150  -26.6790   22.1190 C   0  0  0  0  0  2  0  0  0  0  0  0
  -19.3220  -28.7900   23.2550 C   0  0  0  0  0  0  0  0  0  0  0  0
  -19.0830  -30.0450   23.8570 C   0  0  0  0  0  3  0  0  0  0  0  0
  -17.7710  -30.5310   24.0110 C   0  0  0  0  0  3  0  0  0  0  0  0
  -16.6800  -29.7590   23.5770 C   0  0  0  0  0  3  0  0  0  0  0  0
  -16.9040  -28.5050   22.9790 C   0  0  0  0  0  3  0  0  0  0  0  0
  -26.0250  -32.5110   23.8600 C   0  0  0  0  0  3  0  0  0  0  0  0
  -25.7170  -33.9100   24.1820 N   0  0  0  0  0  0  0  0  0  0  0  0
  -26.0660  -34.9590   23.4260 C   0  0  0  0  0  0  0  0  0  0  0  0
  -26.7540  -34.8490   22.4070 O   0  0  0  0  0  0  0  0  0  0  0  0
  -25.1080  -34.0680   24.9720 H   0  0  0  0  0  0  0  0  0  0  0  0
  -24.3590  -36.7620   23.0260 C   0  0  0  0  0  1  0  0  0  0  0  0
  -25.5760  -36.3500   23.8690 C   0  0  0  0  0  3  0  0  0  0  0  0
  -27.6900  -37.2290   24.7590 C   0  0  0  0  0  1  0  0  0  0  0  0
  -26.6180  -37.3970   23.7810 N   0  0  0  0  0  0  0  0  0  0  0  0
  -26.2130  -38.3210   23.9080 H   0  0  0  0  0  0  0  0  0  0  0  0
  -26.5260  -31.7370   25.1410 C   0  0  1  0  0  0  0  0  0  0  0  0
  -25.4190  -31.4980   26.1940 C   0  0  0  0  0  1  0  0  0  0  0  0
  -27.1150  -30.3610   24.7530 C   0  0  0  0  0  1  0  0  0  0  0  0
  -27.6690  -32.5320   25.8160 C   0  0  0  0  0  1  0  0  0  0  0  0
  -30.2710  -18.4900   21.8570 C   0  0  0  0  0  2  0  0  0  0  0  0
  -31.1110  -17.2310   21.4020 C   0  0  0  0  0  2  0  0  0  0  0  0
  -30.9660  -14.8280   20.6270 C   0  0  0  0  0  0  0  0  0  0  0  0
  -30.7030  -12.7010   19.3480 C   0  0  0  0  0  2  0  0  0  0  0  0
  -29.7560  -12.8610   18.1380 C   0  0  0  0  0  2  0  0  0  0  0  0
  -28.2910  -12.6040   18.5510 C   0  0  0  0  0  2  0  0  0  0  0  0
  -27.9080  -13.4110   19.8060 C   0  0  0  0  0  3  0  0  0  0  0  0
  -28.9730  -13.2310   20.9300 C   0  0  0  0  0  2  0  0  0  0  0  0
  -30.2710  -13.6590   20.3900 N   0  0  0  0  0  0  0  0  0  0  0  0
  -32.1650  -14.8880   20.3320 O   0  0  0  0  0  0  0  0  0  0  0  0
  -30.3220  -15.9860   21.0530 N   0  0  0  0  0  0  0  0  0  0  0  0
  -25.5100  -14.0440   20.5230 C   0  0  0  0  0  0  0  0  0  0  0  0
  -24.4400  -13.2670   20.8640 C   0  0  0  0  0  0  0  0  0  0  0  0
  -24.9130  -11.9210   20.8320 C   0  0  0  0  0  0  0  0  0  0  0  0
  -26.5580  -13.1600   20.2840 N   0  0  0  0  0  0  0  0  0  0  0  0
  -26.2050  -11.8820   20.5450 N   0  0  0  0  0  0  0  0  0  0  0  0
  -24.1990  -10.6570   20.9990 C   0  0  0  0  0  0  0  0  0  0  0  0
  -24.5820   -9.7260   21.9880 C   0  0  0  0  0  3  0  0  0  0  0  0
  -23.8710   -8.5170   22.1360 C   0  0  0  0  0  3  0  0  0  0  0  0
  -22.7680   -8.2370   21.2960 C   0  0  0  0  0  0  0  0  0  0  0  0
  -22.4090   -9.1590   20.2980 C   0  0  0  0  0  3  0  0  0  0  0  0
  -23.1200  -10.3590   20.1460 C   0  0  0  0  0  3  0  0  0  0  0  0
  -22.0350   -7.0770   21.3550 O   0  0  0  0  0  0  0  0  0  0  0  0
  -21.8450   -6.4080   22.5360 C   0  0  0  0  0  0  0  0  0  0  0  0
  -21.1950   -7.0100   23.6370 C   0  0  0  0  0  3  0  0  0  0  0  0
  -20.9550   -6.2620   24.8070 C   0  0  0  0  0  3  0  0  0  0  0  0
  -21.3560   -4.9140   24.8770 C   0  0  0  0  0  0  0  0  0  0  0  0
  -21.9990   -4.3130   23.7800 C   0  0  0  0  0  3  0  0  0  0  0  0
  -22.2400   -5.0580   22.6120 C   0  0  0  0  0  0  0  0  0  0  0  0
  -22.8410   -4.4690   21.5510 F   0  0  0  0  0  0  0  0  0  0  0  0
  -21.1180   -4.1920   25.9970 F   0  0  0  0  0  0  0  0  0  0  0  0
  -23.0350  -13.7360   21.1070 C   0  0  0  0  0  0  0  0  0  0  0  0
  -22.2970  -13.0390   21.9630 N   0  0  0  0  0  0  0  0  0  0  0  0
  -22.5970  -14.7530   20.5720 O   0  0  0  0  0  0  0  0  0  0  0  0
  -22.6640  -12.2160   22.4180 H   0  0  0  0  0  0  0  0  0  0  0  0
  -21.3520  -13.3300   22.1660 H   0  0  0  0  0  0  0  0  0  0  0  0
  -25.6490  -15.4180   20.3770 N   0  0  0  0  0  0  0  0  0  0  0  0
  -24.8730  -16.0520   20.5270 H   0  0  0  0  0  0  0  0  0  0  0  0
  -26.4880  -15.8800   20.0510 H   0  0  0  0  0  0  0  0  0  0  0  0
  -28.9380  -16.3330   20.6610 C   0  0  0  0  0  2  0  0  0  0  0  0
  -27.6050  -17.8220   18.9760 C   0  0  0  0  0  1  0  0  0  0  0  0
  -28.9180  -17.1040   19.3120 C   0  0  0  0  0  2  0  0  0  0  0  0
  1  5  1  0
  2 54  1  0
  2  1  2  0
  3  7  2  0
  3  4  1  0
  4  6  2  0
  6  1  1  0
  7  2  1  0
  8  9  1  0
  9  3  1  0
 10 11  1  0
 10  4  1  0
 11 12  1  0
 13 15  1  0
 13 12  1  0
 14 25  2  0
 15 20  1  0
 16 24  1  0
 16 26  1  0
 17 23  1  0
 17 19  1  0
 18 24  1  0
 19 20  2  0
 19 18  1  0
 21 22  1  0
 21 15  2  0
 22 17  2  0
 23 16  1  0
 24 14  1  0
 26 28  2  0
 27 26  1  0
 29 27  1  0
 30 39  2  0
 30 35  1  0
 31 27  1  0
 31 35  1  0
 32 31  1  0
 33 34  1  0
 33 32  1  0
 34 30  1  0
 35 36  2  0
 36 37  1  0
 38 37  2  0
 39 38  1  0
 40 14  1  0
 40 41  1  0
 40 50  1  0
 41 44  1  0
 42 46  1  0
 42 41  1  0
 43 42  2  0
 46 45  1  0
 48 46  1  0
 48 49  1  0
 48 47  1  0
 50 53  1  1
 50 51  1  0
 52 50  1  0
 55 54  1  0
 56 64  1  0
 57 62  1  0
 58 59  1  0
 58 57  1  0
 60 59  1  0
 60 68  1  0
 60 61  1  0
 62 56  1  0
 62 61  1  0
 63 56  2  0
 64 55  1  0
 65 66  2  0
 66 85  1  0
 67 66  1  0
 67 70  1  0
 68 65  1  0
 68 69  1  0
 69 67  2  0
 70 71  1  0
 71 72  2  0
 73 76  1  0
 73 72  1  0
 74 73  2  0
 75 74  1  0
 75 70  2  0
 76 77  1  0
 77 82  2  0
 77 78  1  0
 78 79  2  0
 79 80  1  0
 80 84  1  0
 81 80  2  0
 82 81  1  0
 83 82  1  0
 85 86  1  0
 86 89  1  0
 86 88  1  0
 87 85  2  0
 90 65  1  0
 90 91  1  0
 92 90  1  0
 93 64  1  0
 94 95  1  0
 95 93  1  0
M  ISO  4  12 101  13 101  56 100  64 100
M  END
>  <TORSDO>  (16) 
F 24

>  <SCORE>  (16) 
-12.556

>  <name>  (16) 
17

>  <ligand_id>  (16) 
17

>  <original_smiles>  (16) 
[H]c1c([H])c([H])c2c(c1[H])C([H])([H])C([H])([H])C([H])([H])C2([H])N([H])C(=O)C1([H])N(C(=O)C([H])(N([H])C(=O)C([H])(N([H])C([H])([H])[H])C([H])([H])[H])C(C([H])([H])[H])(C([H])([H])[H])C([H])([H])[H])C([H])([H])c2c([H])c(OC([H])([H])C([H])([H])C([H])([H])c3nc(C([H])([H])[H])c(C([H])([H])C([H])([H])N(C(=O)N4C([H])([H])C([H])([H])C([H])([H])C([H])(n5nc(-c6c([H])c([H])c(Oc7c([H])c([H])c(F)c([H])c7F)c([H])c6[H])c(C(=O)N([H])[H])c5N([H])[H])C4([H])[H])C([H])([H])C([H])([H])C([H])([H])[H])nc3C([H])([H])C([H])([H])[H])c([H])c([H])c2C1([H])[H]

>  <smiles>  (16) 
[H]c1c([H])c([H])c2c(c1[H])C([H])([H])C([H])([H])C([H])([H])C2([H])N([H])C(=O)C1([H])N(C(=O)C([H])(N([H])C(=O)C([H])(N([H])C([H])([H])[H])C([H])([H])[H])C(C([H])([H])[H])(C([H])([H])[H])C([H])([H])[H])C([H])([H])c2c([H])c(OC([H])([H])C([H])([H])C([H])([H])c3nc(C([H])([H])[H])c(C([H])([H])C([H])([H])N(C(=O)N4C([H])([H])C([H])([H])C([H])([H])C([H])(n5nc(-c6c([H])c([H])c(Oc7c([H])c([H])c(F)c([H])c7F)c([H])c6[H])c(C(=O)N([H])[H])c5N([H])[H])C4([H])[H])C([H])([H])C([H])([H])C([H])([H])[H])nc3C([H])([H])C([H])([H])[H])c([H])c([H])c2C1([H])[H]

$$$$
18:0:0
     RDKit          3D

 88 96  0  0  1  0  0  0  0  0999 V2000
  -27.8570  -20.8480   20.5340 C   0  0  0  0  0  2  0  0  0  0  0  0
  -29.4360  -19.3870   20.2960 C   0  0  0  0  0  0  0  0  0  0  0  0
  -28.0880  -19.4990   20.5480 N   0  0  0  0  0  0  0  0  0  0  0  0
  -29.9570  -20.6770   20.1600 N   0  0  0  0  0  2  0  0  0  0  0  0
  -28.9100  -21.6620   20.3080 N   0  0  0  0  0  0  0  0  0  0  0  0
  -31.1390  -18.0510   21.6860 C   0  0  0  0  0  1  0  0  0  0  0  0
  -30.3220  -17.9630   20.3770 C   0  0  0  0  0  3  0  0  0  0  0  0
  -30.5760  -15.1930   20.0770 C   0  0  0  0  0  0  0  0  0  0  0  0
  -30.4440  -12.8030   19.1710 C   0  0  0  0  0  2  0  0  0  0  0  0
  -29.4810  -12.6810   17.9660 C   0  0  0  0  0  2  0  0  0  0  0  0
  -28.0300  -12.4650   18.4350 C   0  0  0  0  0  2  0  0  0  0  0  0
  -27.6440  -13.4090   19.6060 C   0  0  0  0  0  3  0  0  0  0  0  0
  -28.7310  -13.4900   20.6980 C   0  0  0  0  0  2  0  0  0  0  0  0
  -29.9680  -13.9270   20.0400 N   0  0  0  0  0  0  0  0  0  0  0  0
  -31.7710  -15.2150   19.7700 O   0  0  0  0  0  0  0  0  0  0  0  0
  -29.8540  -16.4270   20.2740 N   0  0  0  0  0  0  0  0  0  0  0  0
  -28.8660  -16.3030   20.4310 H   0  0  0  0  0  0  0  0  0  0  0  0
  -25.2930  -13.9780   20.4360 C   0  0  0  0  0  0  0  0  0  0  0  0
  -24.2390  -13.2010   20.8280 C   0  0  0  0  0  0  0  0  0  0  0  0
  -24.6980  -11.8480   20.7630 C   0  0  0  0  0  0  0  0  0  0  0  0
  -26.3240  -13.1020   20.1490 N   0  0  0  0  0  0  0  0  0  0  0  0
  -25.9790  -11.8140   20.4110 N   0  0  0  0  0  0  0  0  0  0  0  0
  -23.9680  -10.5850   20.9540 C   0  0  0  0  0  0  0  0  0  0  0  0
  -24.3930   -9.6230   21.8960 C   0  0  0  0  0  3  0  0  0  0  0  0
  -23.6630   -8.4290   22.0800 C   0  0  0  0  0  3  0  0  0  0  0  0
  -22.4930   -8.1880   21.3200 C   0  0  0  0  0  0  0  0  0  0  0  0
  -22.0870   -9.1390   20.3660 C   0  0  0  0  0  3  0  0  0  0  0  0
  -22.8190  -10.3230   20.1810 C   0  0  0  0  0  3  0  0  0  0  0  0
  -21.7380   -7.0430   21.4100 O   0  0  0  0  0  0  0  0  0  0  0  0
  -21.6350   -6.3380   22.5820 C   0  0  0  0  0  0  0  0  0  0  0  0
  -21.0970   -6.9150   23.7520 C   0  0  0  0  0  3  0  0  0  0  0  0
  -20.9460   -6.1350   24.9170 C   0  0  0  0  0  3  0  0  0  0  0  0
  -21.3250   -4.7800   24.9100 C   0  0  0  0  0  0  0  0  0  0  0  0
  -21.8550   -4.2010   23.7450 C   0  0  0  0  0  3  0  0  0  0  0  0
  -22.0070   -4.9780   22.5820 C   0  0  0  0  0  0  0  0  0  0  0  0
  -22.4990   -4.4100   21.4540 F   0  0  0  0  0  0  0  0  0  0  0  0
  -21.1710   -4.0270   26.0250 F   0  0  0  0  0  0  0  0  0  0  0  0
  -22.8550  -13.6800   21.1460 C   0  0  0  0  0  0  0  0  0  0  0  0
  -22.1490  -12.9800   22.0280 N   0  0  0  0  0  0  0  0  0  0  0  0
  -22.4060  -14.7130   20.6520 O   0  0  0  0  0  0  0  0  0  0  0  0
  -22.5310  -12.1490   22.4570 H   0  0  0  0  0  0  0  0  0  0  0  0
  -21.2200  -13.2840   22.2840 H   0  0  0  0  0  0  0  0  0  0  0  0
  -25.4560  -15.3510   20.2730 N   0  0  0  0  0  0  0  0  0  0  0  0
  -24.6990  -16.0070   20.4370 H   0  0  0  0  0  0  0  0  0  0  0  0
  -26.2780  -15.7940   19.8850 H   0  0  0  0  0  0  0  0  0  0  0  0
  -29.1130  -23.2770   20.3960 C   0  0  0  0  0  3  0  0  0  0  0  0
  -28.0260  -24.5950   20.1010 C   0  0  0  0  0  3  0  0  0  0  0  0
  -28.2610  -26.1640   20.2860 O   0  0  0  0  0  0  0  0  0  0  0  0
  -24.6520  -31.9280   23.2970 C   0  0  0  0  0  0  0  0  0  0  0  0
  -27.2190  -27.1890   20.2220 C   0  0  0  0  0  0  0  0  0  0  0  0
  -23.4530  -30.5510   21.6440 C   0  0  0  0  0  3  0  0  0  0  0  0
  -24.9000  -28.9810   20.1970 C   0  0  0  0  0  0  0  0  0  0  0  0
  -26.0110  -30.7990   21.4860 C   0  0  0  0  0  2  0  0  0  0  0  0
  -26.0810  -29.4080   20.8170 C   0  0  0  0  0  0  0  0  0  0  0  0
  -27.2380  -28.5290   20.8090 C   0  0  0  0  0  3  0  0  0  0  0  0
  -26.0140  -26.8830   19.5570 C   0  0  0  0  0  3  0  0  0  0  0  0
  -24.8830  -27.7360   19.5480 C   0  0  0  0  0  3  0  0  0  0  0  0
  -23.6730  -29.8830   20.2580 C   0  0  0  0  0  2  0  0  0  0  0  0
  -24.7260  -31.1180   22.1960 N   0  0  0  0  0  0  0  0  0  0  0  0
  -23.5650  -32.2080   23.8260 O   0  0  0  0  0  0  0  0  0  0  0  0
  -22.7670  -29.5370   22.5970 C   0  0  0  0  0  0  0  0  0  0  0  0
  -21.4410  -29.3580   22.4590 N   0  0  0  0  0  0  0  0  0  0  0  0
  -23.4330  -28.9140   23.4280 O   0  0  0  0  0  0  0  0  0  0  0  0
  -20.9590  -29.9110   21.7640 H   0  0  0  0  0  0  0  0  0  0  0  0
  -18.0630  -28.1260   22.9330 C   0  0  0  0  0  0  0  0  0  0  0  0
  -20.6190  -28.4090   23.2160 C   0  0  0  0  0  3  0  0  0  0  0  0
  -20.7360  -26.9820   22.6340 C   0  0  0  0  0  2  0  0  0  0  0  0
  -19.6420  -26.6560   21.6110 C   0  0  0  0  0  2  0  0  0  0  0  0
  -18.2540  -26.7850   22.2460 C   0  0  0  0  0  2  0  0  0  0  0  0
  -19.1730  -28.8960   23.3750 C   0  0  0  0  0  0  0  0  0  0  0  0
  -18.9370  -30.1480   23.9810 C   0  0  0  0  0  3  0  0  0  0  0  0
  -17.6270  -30.6350   24.1450 C   0  0  0  0  0  3  0  0  0  0  0  0
  -16.5320  -29.8630   23.7190 C   0  0  0  0  0  3  0  0  0  0  0  0
  -16.7510  -28.6100   23.1200 C   0  0  0  0  0  3  0  0  0  0  0  0
  -25.9260  -32.5590   23.9360 C   0  0  0  0  0  3  0  0  0  0  0  0
  -26.4140  -31.7990   25.2310 C   0  0  1  0  0  0  0  0  0  0  0  0
  -25.2980  -31.5830   26.2800 C   0  0  0  0  0  1  0  0  0  0  0  0
  -26.9970  -30.4140   24.8690 C   0  0  0  0  0  1  0  0  0  0  0  0
  -27.5620  -32.5930   25.9020 C   0  0  0  0  0  1  0  0  0  0  0  0
  -25.6220  -33.9630   24.2580 N   0  0  0  0  0  0  0  0  0  0  0  0
  -25.9380  -35.0120   23.4860 C   0  0  0  0  0  0  0  0  0  0  0  0
  -26.5780  -34.8990   22.4370 O   0  0  0  0  0  0  0  0  0  0  0  0
  -25.0560  -34.1280   25.0760 H   0  0  0  0  0  0  0  0  0  0  0  0
  -24.1910  -36.8030   23.1910 C   0  0  0  0  0  1  0  0  0  0  0  0
  -25.4700  -36.4090   23.9490 C   0  0  0  0  0  3  0  0  0  0  0  0
  -27.6320  -37.3160   24.6800 C   0  0  0  0  0  1  0  0  0  0  0  0
  -26.4950  -37.4600   23.7740 N   0  0  0  0  0  0  0  0  0  0  0  0
  -26.0950  -38.3840   23.9140 H   0  0  0  0  0  0  0  0  0  0  0  0
  1  3  1  0
  2  7  1  0
  2  3  2  0
  4  2  1  0
  4  5  1  0
  5 46  1  0
  5  1  1  0
  7  6  1  0
  8 16  1  0
  9 14  1  0
 10 11  1  0
 10  9  1  0
 12 11  1  0
 12 21  1  0
 12 13  1  0
 14  8  1  0
 14 13  1  0
 15  8  2  0
 16  7  1  0
 16 17  1  0
 18 19  2  0
 19 38  1  0
 20 19  1  0
 20 23  1  0
 21 22  1  0
 21 18  1  0
 22 20  2  0
 23 24  1  0
 24 25  2  0
 26 29  1  0
 26 25  1  0
 27 26  2  0
 28 27  1  0
 28 23  2  0
 29 30  1  0
 30 31  1  0
 31 32  2  0
 33 32  1  0
 33 37  1  0
 34 33  2  0
 35 30  2  0
 35 34  1  0
 36 35  1  0
 38 39  1  0
 39 42  1  0
 39 41  1  0
 40 38  2  0
 43 18  1  0
 43 44  1  0
 45 43  1  0
 47 48  1  0
 47 46  2  0
 49 60  2  0
 50 48  1  0
 50 55  1  0
 51 59  1  0
 51 61  1  0
 52 58  1  0
 52 54  1  0
 53 59  1  0
 54 53  1  0
 55 54  2  0
 56 50  2  0
 57 56  1  0
 57 52  2  0
 58 51  1  0
 59 49  1  0
 61 63  2  0
 62 61  1  0
 64 62  1  0
 65 74  2  0
 65 70  1  0
 66 62  1  0
 66 70  1  0
 67 66  1  0
 68 69  1  0
 68 67  1  0
 69 65  1  0
 70 71  2  0
 71 72  1  0
 73 72  2  0
 74 73  1  0
 75 49  1  0
 75 80  1  0
 75 76  1  0
 76 79  1  1
 76 77  1  0
 78 76  1  0
 80 83  1  0
 81 85  1  0
 81 80  1  0
 82 81  2  0
 85 84  1  0
 87 88  1  0
 87 85  1  0
 87 86  1  0
M  ISO  4   8 100  16 100  47 101  48 101
M  END
>  <TORSDO>  (17) 
F 19

>  <SCORE>  (17) 
-14.885

>  <name>  (17) 
18

>  <ligand_id>  (17) 
18

>  <original_smiles>  (17) 
[H]c1c([H])c([H])c2c(c1[H])C([H])([H])C([H])([H])C([H])([H])C2([H])N([H])C(=O)C1([H])N(C(=O)C([H])(N([H])C(=O)C([H])(N([H])C([H])([H])[H])C([H])([H])[H])C(C([H])([H])[H])(C([H])([H])[H])C([H])([H])[H])C([H])([H])c2c([H])c(OC([H])([H])C([H])([H])n3nc(C([H])(N([H])C(=O)N4C([H])([H])C([H])([H])C([H])([H])C([H])(n5nc(-c6c([H])c([H])c(Oc7c([H])c([H])c(F)c([H])c7F)c([H])c6[H])c(C(=O)N([H])[H])c5N([H])[H])C4([H])[H])C([H])([H])[H])nc3[H])c([H])c([H])c2C1([H])[H]

>  <smiles>  (17) 
[H]c1c([H])c([H])c2c(c1[H])C([H])([H])C([H])([H])C([H])([H])C2([H])N([H])C(=O)C1([H])N(C(=O)C([H])(N([H])C(=O)C([H])(N([H])C([H])([H])[H])C([H])([H])[H])C(C([H])([H])[H])(C([H])([H])[H])C([H])([H])[H])C([H])([H])c2c([H])c(OC([H])([H])C([H])([H])n3nc(C([H])(N([H])C(=O)N4C([H])([H])C([H])([H])C([H])([H])C([H])(n5nc(-c6c([H])c([H])c(Oc7c([H])c([H])c(F)c([H])c7F)c([H])c6[H])c(C(=O)N([H])[H])c5N([H])[H])C4([H])[H])C([H])([H])[H])nc3[H])c([H])c([H])c2C1([H])[H]

$$$$
19:0:0
     RDKit          3D

 91 99  0  0  1  0  0  0  0  0999 V2000
  -30.6550  -21.2810   21.0620 C   0  0  0  0  0  2  0  0  0  0  0  0
  -29.8380  -19.4050   20.6320 C   0  0  0  0  0  0  0  0  0  0  0  0
  -31.0190  -19.9920   21.0080 N   0  0  0  0  0  0  0  0  0  0  0  0
  -28.8560  -20.2860   20.3860 N   0  0  0  0  0  2  0  0  0  0  0  0
  -29.3930  -21.5000   20.6840 N   0  0  0  0  0  0  0  0  0  0  0  0
  -29.9910  -17.7920   18.7320 C   0  0  0  0  0  1  0  0  0  0  0  0
  -28.1990  -17.5100   20.4840 C   0  0  0  0  0  1  0  0  0  0  0  0
  -29.6680  -17.9270   20.2330 C   0  0  2  0  0  0  0  0  0  0  0  0
  -30.5720  -16.9280   21.0480 C   0  0  0  0  0  2  0  0  0  0  0  0
  -30.8210  -14.5190   20.2160 C   0  0  0  0  0  0  0  0  0  0  0  0
  -30.4520  -12.3870   19.0110 C   0  0  0  0  0  2  0  0  0  0  0  0
  -29.4580  -12.6150   17.8520 C   0  0  0  0  0  2  0  0  0  0  0  0
  -28.0040  -12.4680   18.3410 C   0  0  0  0  0  2  0  0  0  0  0  0
  -27.7240  -13.2830   19.6310 C   0  0  0  0  0  3  0  0  0  0  0  0
  -28.8240  -13.0390   20.6900 C   0  0  0  0  0  2  0  0  0  0  0  0
  -30.1290  -13.3520   20.0770 N   0  0  0  0  0  0  0  0  0  0  0  0
  -31.9020  -14.7230   19.6590 O   0  0  0  0  0  0  0  0  0  0  0  0
  -30.1930  -15.4930   20.9050 N   0  0  0  0  0  0  0  0  0  0  0  0
  -29.3180  -15.2230   21.3260 H   0  0  0  0  0  0  0  0  0  0  0  0
  -25.3560  -13.8880   20.4440 C   0  0  0  0  0  0  0  0  0  0  0  0
  -24.3010  -13.1160   20.8480 C   0  0  0  0  0  0  0  0  0  0  0  0
  -24.7530  -11.7630   20.7790 C   0  0  0  0  0  0  0  0  0  0  0  0
  -26.3880  -13.0060   20.1590 N   0  0  0  0  0  0  0  0  0  0  0  0
  -26.0290  -11.7220   20.4170 N   0  0  0  0  0  0  0  0  0  0  0  0
  -24.0250  -10.5030   20.9790 C   0  0  0  0  0  0  0  0  0  0  0  0
  -24.4680   -9.5370   21.9100 C   0  0  0  0  0  3  0  0  0  0  0  0
  -23.7410   -8.3420   22.0990 C   0  0  0  0  0  3  0  0  0  0  0  0
  -22.5590   -8.1060   21.3580 C   0  0  0  0  0  0  0  0  0  0  0  0
  -22.1360   -9.0600   20.4160 C   0  0  0  0  0  3  0  0  0  0  0  0
  -22.8630  -10.2460   20.2250 C   0  0  0  0  0  3  0  0  0  0  0  0
  -21.8030   -6.9620   21.4560 O   0  0  0  0  0  0  0  0  0  0  0  0
  -21.7440   -6.2360   22.6180 C   0  0  0  0  0  0  0  0  0  0  0  0
  -21.2880   -6.8010   23.8280 C   0  0  0  0  0  3  0  0  0  0  0  0
  -21.1780   -5.9990   24.9820 C   0  0  0  0  0  3  0  0  0  0  0  0
  -21.5140   -4.6340   24.9270 C   0  0  0  0  0  0  0  0  0  0  0  0
  -21.9620   -4.0680   23.7210 C   0  0  0  0  0  3  0  0  0  0  0  0
  -22.0740   -4.8660   22.5690 C   0  0  0  0  0  0  0  0  0  0  0  0
  -22.4860   -4.3110   21.4030 F   0  0  0  0  0  0  0  0  0  0  0  0
  -21.4010   -3.8610   26.0330 F   0  0  0  0  0  0  0  0  0  0  0  0
  -22.9190  -13.5980   21.1870 C   0  0  0  0  0  0  0  0  0  0  0  0
  -22.2220  -12.8900   22.0700 N   0  0  0  0  0  0  0  0  0  0  0  0
  -22.4670  -14.6360   20.7050 O   0  0  0  0  0  0  0  0  0  0  0  0
  -22.6000  -12.0480   22.4810 H   0  0  0  0  0  0  0  0  0  0  0  0
  -21.2980  -13.1960   22.3400 H   0  0  0  0  0  0  0  0  0  0  0  0
  -25.5100  -15.2590   20.2730 N   0  0  0  0  0  0  0  0  0  0  0  0
  -24.7420  -15.9060   20.4170 H   0  0  0  0  0  0  0  0  0  0  0  0
  -26.3330  -15.7020   19.8840 H   0  0  0  0  0  0  0  0  0  0  0  0
  -28.5310  -22.6910   20.6060 C   0  0  0  0  0  2  0  0  0  0  0  0
  -29.1780  -24.1140   20.5580 C   0  0  0  0  0  2  0  0  0  0  0  0
  -28.1040  -25.1510   20.1140 C   0  0  0  0  0  2  0  0  0  0  0  0
  -28.3620  -26.5780   20.2100 O   0  0  0  0  0  0  0  0  0  0  0  0
  -24.5890  -31.8780   23.1900 C   0  0  0  0  0  0  0  0  0  0  0  0
  -27.2240  -27.3820   20.1410 C   0  0  0  0  0  0  0  0  0  0  0  0
  -23.3880  -30.4740   21.5510 C   0  0  0  0  0  3  0  0  0  0  0  0
  -24.8420  -28.9370   20.1310 C   0  0  0  0  0  0  0  0  0  0  0  0
  -25.9210  -30.8180   21.3640 C   0  0  0  0  0  2  0  0  0  0  0  0
  -26.0060  -29.4440   20.7230 C   0  0  0  0  0  0  0  0  0  0  0  0
  -27.2010  -28.6780   20.7220 C   0  0  0  0  0  3  0  0  0  0  0  0
  -26.0360  -26.9170   19.5230 C   0  0  0  0  0  3  0  0  0  0  0  0
  -24.8550  -27.6750   19.5240 C   0  0  0  0  0  3  0  0  0  0  0  0
  -23.6000  -29.7980   20.1730 C   0  0  0  0  0  2  0  0  0  0  0  0
  -24.6510  -31.0710   22.0930 N   0  0  0  0  0  0  0  0  0  0  0  0
  -23.5060  -32.1540   23.7240 O   0  0  0  0  0  0  0  0  0  0  0  0
  -22.7310  -29.4540   22.5110 C   0  0  0  0  0  0  0  0  0  0  0  0
  -21.4030  -29.2840   22.3930 N   0  0  0  0  0  0  0  0  0  0  0  0
  -23.4140  -28.8190   23.3210 O   0  0  0  0  0  0  0  0  0  0  0  0
  -20.9130  -29.8480   21.7110 H   0  0  0  0  0  0  0  0  0  0  0  0
  -18.0170  -28.1380   22.9310 C   0  0  0  0  0  0  0  0  0  0  0  0
  -20.5830  -28.3540   23.1670 C   0  0  0  0  0  3  0  0  0  0  0  0
  -20.6550  -26.9260   22.5780 C   0  0  0  0  0  2  0  0  0  0  0  0
  -19.5340  -26.6280   21.5780 C   0  0  0  0  0  2  0  0  0  0  0  0
  -18.1630  -26.7900   22.2420 C   0  0  0  0  0  2  0  0  0  0  0  0
  -19.1540  -28.8780   23.3510 C   0  0  0  0  0  0  0  0  0  0  0  0
  -18.9640  -30.1390   23.9550 C   0  0  0  0  0  3  0  0  0  0  0  0
  -17.6700  -30.6610   24.1430 C   0  0  0  0  0  3  0  0  0  0  0  0
  -16.5480  -29.9160   23.7380 C   0  0  0  0  0  3  0  0  0  0  0  0
  -16.7230  -28.6570   23.1380 C   0  0  0  0  0  3  0  0  0  0  0  0
  -25.8730  -32.5120   23.8090 C   0  0  0  0  0  3  0  0  0  0  0  0
  -25.5600  -33.9080   24.1440 N   0  0  0  0  0  0  0  0  0  0  0  0
  -25.9020  -34.9630   23.3950 C   0  0  0  0  0  0  0  0  0  0  0  0
  -26.5860  -34.8650   22.3720 O   0  0  0  0  0  0  0  0  0  0  0  0
  -24.9560  -34.0580   24.9380 H   0  0  0  0  0  0  0  0  0  0  0  0
  -24.1990  -36.7720   23.0020 C   0  0  0  0  0  1  0  0  0  0  0  0
  -25.4080  -36.3490   23.8530 C   0  0  0  0  0  3  0  0  0  0  0  0
  -27.5150  -37.2100   24.7720 C   0  0  0  0  0  1  0  0  0  0  0  0
  -26.4510  -37.3960   23.7890 N   0  0  0  0  0  0  0  0  0  0  0  0
  -26.0460  -38.3170   23.9320 H   0  0  0  0  0  0  0  0  0  0  0  0
  -26.3950  -31.7370   25.0820 C   0  0  1  0  0  0  0  0  0  0  0  0
  -25.3050  -31.4870   26.1480 C   0  0  0  0  0  1  0  0  0  0  0  0
  -26.9880  -30.3660   24.6810 C   0  0  0  0  0  1  0  0  0  0  0  0
  -27.5410  -32.5350   25.7470 C   0  0  0  0  0  1  0  0  0  0  0  0
  2  3  2  0
  3  1  1  0
  4  2  1  0
  4  5  1  0
  5  1  1  0
  8  6  1  6
  8  7  1  0
  8  2  1  0
  8  9  1  0
 10 18  1  0
 11 16  1  0
 12 13  1  0
 12 11  1  0
 14 13  1  0
 14 23  1  0
 14 15  1  0
 16 10  1  0
 16 15  1  0
 17 10  2  0
 18  9  1  0
 18 19  1  0
 20 21  2  0
 21 40  1  0
 22 21  1  0
 22 25  1  0
 23 24  1  0
 23 20  1  0
 24 22  2  0
 25 26  1  0
 26 27  2  0
 28 31  1  0
 28 27  1  0
 29 28  2  0
 30 29  1  0
 30 25  2  0
 31 32  1  0
 32 33  1  0
 33 34  2  0
 35 34  1  0
 35 39  1  0
 36 35  2  0
 37 32  2  0
 37 36  1  0
 38 37  1  0
 40 41  1  0
 41 44  1  0
 41 43  1  0
 42 40  2  0
 45 46  1  0
 45 20  1  0
 47 45  1  0
 48  5  1  0
 49 48  1  0
 50 51  1  0
 50 49  1  0
 52 63  2  0
 53 51  1  0
 53 58  1  0
 54 62  1  0
 54 64  1  0
 55 61  1  0
 55 57  1  0
 56 62  1  0
 57 56  1  0
 58 57  2  0
 59 60  1  0
 59 53  2  0
 60 55  2  0
 61 54  1  0
 62 52  1  0
 64 66  2  0
 65 64  1  0
 67 65  1  0
 68 77  2  0
 68 73  1  0
 69 65  1  0
 69 73  1  0
 70 69  1  0
 71 72  1  0
 71 70  1  0
 72 68  1  0
 73 74  2  0
 74 75  1  0
 76 75  2  0
 77 76  1  0
 78 52  1  0
 78 79  1  0
 78 88  1  0
 79 82  1  0
 80 84  1  0
 80 79  1  0
 81 80  2  0
 84 83  1  0
 86 84  1  0
 86 87  1  0
 86 85  1  0
 88 91  1  1
 88 89  1  0
 90 88  1  0
M  ISO  4  10 100  18 100  50 101  51 101
M  END
>  <TORSDO>  (18) 
F 21

>  <SCORE>  (18) 
-13.687

>  <name>  (18) 
19

>  <ligand_id>  (18) 
19

>  <original_smiles>  (18) 
[H]c1c([H])c([H])c2c(c1[H])C([H])([H])C([H])([H])C([H])([H])C2([H])N([H])C(=O)C1([H])N(C(=O)C([H])(N([H])C(=O)C([H])(N([H])C([H])([H])[H])C([H])([H])[H])C(C([H])([H])[H])(C([H])([H])[H])C([H])([H])[H])C([H])([H])c2c([H])c(OC([H])([H])C([H])([H])C([H])([H])n3nc(C(C([H])([H])[H])(C([H])([H])[H])C([H])([H])N([H])C(=O)N4C([H])([H])C([H])([H])C([H])([H])C([H])(n5nc(-c6c([H])c([H])c(Oc7c([H])c([H])c(F)c([H])c7F)c([H])c6[H])c(C(=O)N([H])[H])c5N([H])[H])C4([H])[H])nc3[H])c([H])c([H])c2C1([H])[H]

>  <smiles>  (18) 
[H]c1c([H])c([H])c2c(c1[H])C([H])([H])C([H])([H])C([H])([H])C2([H])N([H])C(=O)C1([H])N(C(=O)C([H])(N([H])C(=O)C([H])(N([H])C([H])([H])[H])C([H])([H])[H])C(C([H])([H])[H])(C([H])([H])[H])C([H])([H])[H])C([H])([H])c2c([H])c(OC([H])([H])C([H])([H])C([H])([H])n3nc(C(C([H])([H])[H])(C([H])([H])[H])C([H])([H])N([H])C(=O)N4C([H])([H])C([H])([H])C([H])([H])C([H])(n5nc(-c6c([H])c([H])c(Oc7c([H])c([H])c(F)c([H])c7F)c([H])c6[H])c(C(=O)N([H])[H])c5N([H])[H])C4([H])[H])nc3[H])c([H])c([H])c2C1([H])[H]

$$$$
20:0:0
     RDKit          3D

 91 99  0  0  1  0  0  0  0  0999 V2000
  -29.2690  -21.1010   20.0530 C   0  0  0  0  0  0  0  0  0  0  0  0
  -28.8470  -23.3810   19.8510 C   0  0  0  0  0  0  0  0  0  0  0  0
  -30.2800  -21.8010   20.6070 N   0  0  0  0  0  0  0  0  0  0  0  0
  -30.0260  -23.2000   20.4790 N   0  0  0  0  0  0  0  0  0  0  0  0
  -28.3400  -22.0730   19.5470 N   0  0  0  0  0  0  0  0  0  0  0  0
  -25.9060  -22.3080   19.8670 C   0  0  0  0  0  1  0  0  0  0  0  0
  -26.7200  -20.3340   18.5790 C   0  0  0  0  0  1  0  0  0  0  0  0
  -26.8570  -22.5330   17.5320 C   0  0  0  0  0  1  0  0  0  0  0  0
  -27.0070  -21.8190   18.9040 C   0  0  2  0  0  0  0  0  0  0  0  0
  -29.1680  -19.4150   20.0190 C   0  0  0  0  0  3  0  0  0  0  0  0
  -30.2730  -18.1470   20.3590 C   0  0  0  0  0  3  0  0  0  0  0  0
  -30.6810  -15.3510   20.2790 C   0  0  0  0  0  0  0  0  0  0  0  0
  -30.5700  -12.9690   19.3730 C   0  0  0  0  0  2  0  0  0  0  0  0
  -29.6480  -12.8600   18.1350 C   0  0  0  0  0  2  0  0  0  0  0  0
  -28.1890  -12.6370   18.5710 C   0  0  0  0  0  2  0  0  0  0  0  0
  -27.7590  -13.6070   19.7010 C   0  0  0  0  0  3  0  0  0  0  0  0
  -28.8010  -13.6760   20.8370 C   0  0  0  0  0  2  0  0  0  0  0  0
  -30.0710  -14.0910   20.2260 N   0  0  0  0  0  0  0  0  0  0  0  0
  -31.8940  -15.3770   20.0450 O   0  0  0  0  0  0  0  0  0  0  0  0
  -29.9250  -16.5710   20.3850 N   0  0  0  0  0  0  0  0  0  0  0  0
  -28.9360  -16.3920   20.4950 H   0  0  0  0  0  0  0  0  0  0  0  0
  -25.3810  -14.2030   20.4290 C   0  0  0  0  0  0  0  0  0  0  0  0
  -24.3080  -13.4370   20.7900 C   0  0  0  0  0  0  0  0  0  0  0  0
  -24.7640  -12.0830   20.7660 C   0  0  0  0  0  0  0  0  0  0  0  0
  -26.4190  -13.3170   20.1950 N   0  0  0  0  0  0  0  0  0  0  0  0
  -26.0560  -12.0360   20.4660 N   0  0  0  0  0  0  0  0  0  0  0  0
  -24.0240  -10.8260   20.9470 C   0  0  0  0  0  0  0  0  0  0  0  0
  -24.4260   -9.8630   21.9000 C   0  0  0  0  0  3  0  0  0  0  0  0
  -23.6870   -8.6720   22.0680 C   0  0  0  0  0  3  0  0  0  0  0  0
  -22.5320   -8.4360   21.2860 C   0  0  0  0  0  0  0  0  0  0  0  0
  -22.1510   -9.3860   20.3230 C   0  0  0  0  0  3  0  0  0  0  0  0
  -22.8900  -10.5680   20.1510 C   0  0  0  0  0  3  0  0  0  0  0  0
  -21.7660   -7.2970   21.3650 O   0  0  0  0  0  0  0  0  0  0  0  0
  -21.6810   -6.5670   22.5230 C   0  0  0  0  0  0  0  0  0  0  0  0
  -21.2110   -7.1340   23.7280 C   0  0  0  0  0  3  0  0  0  0  0  0
  -21.0740   -6.3300   24.8770 C   0  0  0  0  0  3  0  0  0  0  0  0
  -21.3950   -4.9600   24.8220 C   0  0  0  0  0  0  0  0  0  0  0  0
  -21.8590   -4.3930   23.6210 C   0  0  0  0  0  3  0  0  0  0  0  0
  -21.9980   -5.1950   22.4740 C   0  0  0  0  0  0  0  0  0  0  0  0
  -22.4250   -4.6390   21.3140 F   0  0  0  0  0  0  0  0  0  0  0  0
  -21.2560   -4.1850   25.9220 F   0  0  0  0  0  0  0  0  0  0  0  0
  -22.9130  -13.9240   21.0450 C   0  0  0  0  0  0  0  0  0  0  0  0
  -22.1650  -13.2270   21.8960 N   0  0  0  0  0  0  0  0  0  0  0  0
  -22.4940  -14.9580   20.5270 O   0  0  0  0  0  0  0  0  0  0  0  0
  -22.5200  -12.3910   22.3350 H   0  0  0  0  0  0  0  0  0  0  0  0
  -21.2290  -13.5360   22.1120 H   0  0  0  0  0  0  0  0  0  0  0  0
  -25.5570  -15.5720   20.2500 N   0  0  0  0  0  0  0  0  0  0  0  0
  -24.7880  -16.2250   20.3480 H   0  0  0  0  0  0  0  0  0  0  0  0
  -26.3970  -16.0010   19.8870 H   0  0  0  0  0  0  0  0  0  0  0  0
  -28.1340  -24.8420   19.4190 C   0  0  0  0  0  2  0  0  0  0  0  0
  -28.5030  -26.3320   19.7990 O   0  0  0  0  0  0  0  0  0  0  0  0
  -24.6220  -31.7730   23.0900 C   0  0  0  0  0  0  0  0  0  0  0  0
  -27.4420  -27.3430   19.7830 C   0  0  0  0  0  0  0  0  0  0  0  0
  -23.5060  -30.4270   21.3560 C   0  0  0  0  0  3  0  0  0  0  0  0
  -25.0400  -29.0230   19.8440 C   0  0  0  0  0  0  0  0  0  0  0  0
  -26.0520  -30.8120   21.2370 C   0  0  0  0  0  2  0  0  0  0  0  0
  -26.1980  -29.4640   20.4970 C   0  0  0  0  0  0  0  0  0  0  0  0
  -27.3970  -28.6420   20.4540 C   0  0  0  0  0  3  0  0  0  0  0  0
  -26.2480  -27.0370   19.0830 C   0  0  0  0  0  3  0  0  0  0  0  0
  -25.0810  -27.8270   19.1220 C   0  0  0  0  0  3  0  0  0  0  0  0
  -23.7720  -29.8610   19.9380 C   0  0  0  0  0  2  0  0  0  0  0  0
  -24.7450  -31.0250   21.9500 N   0  0  0  0  0  0  0  0  0  0  0  0
  -23.5180  -31.9680   23.6230 O   0  0  0  0  0  0  0  0  0  0  0  0
  -22.8730  -29.3260   22.2460 C   0  0  0  0  0  0  0  0  0  0  0  0
  -21.5520  -29.1090   22.1130 N   0  0  0  0  0  0  0  0  0  0  0  0
  -23.5750  -28.6720   23.0200 O   0  0  0  0  0  0  0  0  0  0  0  0
  -21.0360  -29.6970   21.4740 H   0  0  0  0  0  0  0  0  0  0  0  0
  -18.2140  -27.7780   22.5990 C   0  0  0  0  0  0  0  0  0  0  0  0
  -20.7730  -28.0870   22.8210 C   0  0  0  0  0  3  0  0  0  0  0  0
  -20.8940  -26.7110   22.1250 C   0  0  0  0  0  2  0  0  0  0  0  0
  -19.7730  -26.4460   21.1150 C   0  0  0  0  0  2  0  0  0  0  0  0
  -18.4040  -26.4990   21.8010 C   0  0  0  0  0  2  0  0  0  0  0  0
  -19.3250  -28.5310   23.0640 C   0  0  0  0  0  0  0  0  0  0  0  0
  -19.0900  -29.7290   23.7730 C   0  0  0  0  0  3  0  0  0  0  0  0
  -17.7750  -30.1750   24.0180 C   0  0  0  0  0  3  0  0  0  0  0  0
  -16.6800  -29.4190   23.5650 C   0  0  0  0  0  3  0  0  0  0  0  0
  -16.9010  -28.2200   22.8630 C   0  0  0  0  0  3  0  0  0  0  0  0
  -25.8590  -32.4360   23.7660 C   0  0  0  0  0  3  0  0  0  0  0  0
  -26.3580  -31.6530   25.0410 C   0  0  1  0  0  0  0  0  0  0  0  0
  -25.2420  -31.3690   26.0720 C   0  0  0  0  0  1  0  0  0  0  0  0
  -26.9900  -30.2990   24.6440 C   0  0  0  0  0  1  0  0  0  0  0  0
  -27.4660  -32.4660   25.7530 C   0  0  0  0  0  1  0  0  0  0  0  0
  -25.4920  -33.8160   24.1270 N   0  0  0  0  0  0  0  0  0  0  0  0
  -25.7780  -34.9000   23.3950 C   0  0  0  0  0  0  0  0  0  0  0  0
  -26.4480  -34.8470   22.3610 O   0  0  0  0  0  0  0  0  0  0  0  0
  -24.9030  -33.9270   24.9390 H   0  0  0  0  0  0  0  0  0  0  0  0
  -23.9660  -36.6220   23.1100 C   0  0  0  0  0  1  0  0  0  0  0  0
  -25.2400  -36.2570   23.8890 C   0  0  0  0  0  3  0  0  0  0  0  0
  -27.3450  -37.2270   24.7010 C   0  0  0  0  0  1  0  0  0  0  0  0
  -26.2220  -37.3580   23.7760 N   0  0  0  0  0  0  0  0  0  0  0  0
  -25.7770  -38.2560   23.9440 H   0  0  0  0  0  0  0  0  0  0  0  0
  1  3  2  0
  2  4  2  0
  4  3  1  0
  5  2  1  0
  5  1  1  0
  9  7  1  6
  8  9  1  0
  9  5  1  0
  9  6  1  0
 10  1  1  0
 10 11  2  0
 11 20  1  0
 12 20  1  0
 13 18  1  0
 14 15  1  0
 14 13  1  0
 16 15  1  0
 16 25  1  0
 16 17  1  0
 18 12  1  0
 18 17  1  0
 19 12  2  0
 20 21  1  0
 22 23  2  0
 23 42  1  0
 24 23  1  0
 24 27  1  0
 25 22  1  0
 25 26  1  0
 26 24  2  0
 27 28  1  0
 28 29  2  0
 30 33  1  0
 30 29  1  0
 31 30  2  0
 32 31  1  0
 32 27  2  0
 33 34  1  0
 34 35  1  0
 35 36  2  0
 37 36  1  0
 37 41  1  0
 38 37  2  0
 39 34  2  0
 39 38  1  0
 40 39  1  0
 42 43  1  0
 43 46  1  0
 43 45  1  0
 44 42  2  0
 47 48  1  0
 47 22  1  0
 49 47  1  0
 50 51  1  0
 50  2  1  0
 52 63  2  0
 53 51  1  0
 53 58  1  0
 54 62  1  0
 54 64  1  0
 55 61  1  0
 55 57  1  0
 56 62  1  0
 57 56  1  0
 58 57  2  0
 59 60  1  0
 59 53  2  0
 60 55  2  0
 61 54  1  0
 62 52  1  0
 64 66  2  0
 65 64  1  0
 67 65  1  0
 68 77  2  0
 68 73  1  0
 69 65  1  0
 69 73  1  0
 70 69  1  0
 71 72  1  0
 71 70  1  0
 72 68  1  0
 73 74  2  0
 74 75  1  0
 76 75  2  0
 77 76  1  0
 78 52  1  0
 78 83  1  0
 78 79  1  0
 79 82  1  1
 79 80  1  0
 81 79  1  0
 83 86  1  0
 84 88  1  0
 84 83  1  0
 85 84  2  0
 88 87  1  0
 90 88  1  0
 90 91  1  0
 90 89  1  0
M  ISO  4  12 100  20 100  50 101  51 101
M  END
>  <TORSDO>  (19) 
F 20

>  <SCORE>  (19) 
-13.621

>  <name>  (19) 
20

>  <ligand_id>  (19) 
20

>  <original_smiles>  (19) 
[H]c1c([H])c([H])c2c(c1[H])C([H])([H])C([H])([H])C([H])([H])C2([H])N([H])C(=O)C1([H])N(C(=O)C([H])(N([H])C(=O)C([H])(N([H])C([H])([H])[H])C([H])([H])[H])C(C([H])([H])[H])(C([H])([H])[H])C([H])([H])[H])C([H])([H])c2c([H])c(OC([H])([H])c3nnc(C([H])([H])C([H])([H])N([H])C(=O)N4C([H])([H])C([H])([H])C([H])([H])C([H])(n5nc(-c6c([H])c([H])c(Oc7c([H])c([H])c(F)c([H])c7F)c([H])c6[H])c(C(=O)N([H])[H])c5N([H])[H])C4([H])[H])n3C(C([H])([H])[H])(C([H])([H])[H])C([H])([H])[H])c([H])c([H])c2C1([H])[H]

>  <smiles>  (19) 
[H]c1c([H])c([H])c2c(c1[H])C([H])([H])C([H])([H])C([H])([H])C2([H])N([H])C(=O)C1([H])N(C(=O)C([H])(N([H])C(=O)C([H])(N([H])C([H])([H])[H])C([H])([H])[H])C(C([H])([H])[H])(C([H])([H])[H])C([H])([H])[H])C([H])([H])c2c([H])c(OC([H])([H])c3nnc(C([H])([H])C([H])([H])N([H])C(=O)N4C([H])([H])C([H])([H])C([H])([H])C([H])(n5nc(-c6c([H])c([H])c(Oc7c([H])c([H])c(F)c([H])c7F)c([H])c6[H])c(C(=O)N([H])[H])c5N([H])[H])C4([H])[H])n3C(C([H])([H])[H])(C([H])([H])[H])C([H])([H])[H])c([H])c([H])c2C1([H])[H]

$$$$
21:0:0
     RDKit          3D

 87 95  0  0  1  0  0  0  0  0999 V2000
  -30.2390  -22.9160   19.9550 C   0  0  0  0  0  3  0  0  0  0  0  0
  -30.5070  -21.5460   20.0220 C   0  0  0  0  0  3  0  0  0  0  0  0
  -28.8270  -23.1300   20.0980 C   0  0  0  0  0  0  0  0  0  0  0  0
  -28.3410  -21.8130   20.2310 N   0  0  0  0  0  0  0  0  0  0  0  0
  -29.3490  -20.7900   20.1730 N   0  0  0  0  0  0  0  0  0  0  0  0
  -27.8910  -24.5240   19.9640 C   0  0  0  0  0  2  0  0  0  0  0  0
  -28.2390  -26.0540   20.1890 O   0  0  0  0  0  0  0  0  0  0  0  0
  -24.6200  -31.8320   23.1690 C   0  0  0  0  0  0  0  0  0  0  0  0
  -27.2060  -27.0850   20.1250 C   0  0  0  0  0  0  0  0  0  0  0  0
  -23.4270  -30.4420   21.5240 C   0  0  0  0  0  3  0  0  0  0  0  0
  -24.8810  -28.8690   20.0970 C   0  0  0  0  0  0  0  0  0  0  0  0
  -25.9860  -30.6950   21.3720 C   0  0  0  0  0  2  0  0  0  0  0  0
  -26.0630  -29.3000   20.7140 C   0  0  0  0  0  0  0  0  0  0  0  0
  -27.2240  -28.4250   20.7110 C   0  0  0  0  0  3  0  0  0  0  0  0
  -25.9930  -26.7780   19.4660 C   0  0  0  0  0  3  0  0  0  0  0  0
  -24.8630  -27.6230   19.4570 C   0  0  0  0  0  3  0  0  0  0  0  0
  -23.6540  -29.7700   20.1440 C   0  0  0  0  0  2  0  0  0  0  0  0
  -24.6980  -31.0120   22.0760 N   0  0  0  0  0  0  0  0  0  0  0  0
  -23.5310  -32.1160   23.6940 O   0  0  0  0  0  0  0  0  0  0  0  0
  -22.7430  -29.4330   22.4810 C   0  0  0  0  0  0  0  0  0  0  0  0
  -21.4140  -29.2650   22.3540 N   0  0  0  0  0  0  0  0  0  0  0  0
  -23.4120  -28.8030   23.3040 O   0  0  0  0  0  0  0  0  0  0  0  0
  -20.9290  -29.8260   21.6670 H   0  0  0  0  0  0  0  0  0  0  0  0
  -18.0310  -28.0610   22.8510 C   0  0  0  0  0  0  0  0  0  0  0  0
  -20.5900  -28.3250   23.1210 C   0  0  0  0  0  3  0  0  0  0  0  0
  -20.6920  -26.8950   22.5440 C   0  0  0  0  0  2  0  0  0  0  0  0
  -19.5910  -26.5740   21.5270 C   0  0  0  0  0  2  0  0  0  0  0  0
  -18.2100  -26.7150   22.1690 C   0  0  0  0  0  2  0  0  0  0  0  0
  -19.1480  -28.8240   23.2830 C   0  0  0  0  0  0  0  0  0  0  0  0
  -18.9260  -30.0830   23.8830 C   0  0  0  0  0  3  0  0  0  0  0  0
  -17.6190  -30.5790   24.0530 C   0  0  0  0  0  3  0  0  0  0  0  0
  -16.5170  -29.8140   23.6350 C   0  0  0  0  0  3  0  0  0  0  0  0
  -16.7240  -28.5570   23.0390 C   0  0  0  0  0  3  0  0  0  0  0  0
  -25.8940  -32.4690   23.8020 C   0  0  0  0  0  3  0  0  0  0  0  0
  -26.4100  -31.6880   25.0740 C   0  0  1  0  0  0  0  0  0  0  0  0
  -25.3160  -31.4400   26.1390 C   0  0  0  0  0  1  0  0  0  0  0  0
  -27.0000  -30.3160   24.6780 C   0  0  0  0  0  1  0  0  0  0  0  0
  -27.5560  -32.4810   25.7450 C   0  0  0  0  0  1  0  0  0  0  0  0
  -25.5730  -33.8620   24.1560 N   0  0  0  0  0  0  0  0  0  0  0  0
  -25.8780  -34.9310   23.4080 C   0  0  0  0  0  0  0  0  0  0  0  0
  -26.5270  -34.8500   22.3620 O   0  0  0  0  0  0  0  0  0  0  0  0
  -24.9940  -33.9970   24.9710 H   0  0  0  0  0  0  0  0  0  0  0  0
  -24.1160  -36.7090   23.1350 C   0  0  0  0  0  1  0  0  0  0  0  0
  -25.3890  -36.3100   23.8990 C   0  0  0  0  0  3  0  0  0  0  0  0
  -27.5390  -37.2160   24.6680 C   0  0  0  0  0  1  0  0  0  0  0  0
  -26.4040  -37.3780   23.7630 N   0  0  0  0  0  0  0  0  0  0  0  0
  -25.9910  -38.2900   23.9320 H   0  0  0  0  0  0  0  0  0  0  0  0
  -29.1290  -19.2140   20.4340 C   0  0  0  0  0  3  0  0  0  0  0  0
  -30.0920  -17.8490   19.9780 C   0  0  0  0  0  3  0  0  0  0  0  0
  -30.5330  -15.0680   19.9950 C   0  0  0  0  0  0  0  0  0  0  0  0
  -30.3680  -12.7380   18.9380 C   0  0  0  0  0  2  0  0  0  0  0  0
  -29.3460  -12.6980   17.7740 C   0  0  0  0  0  2  0  0  0  0  0  0
  -27.9120  -12.4630   18.2910 C   0  0  0  0  0  2  0  0  0  0  0  0
  -27.5930  -13.3240   19.5400 C   0  0  0  0  0  3  0  0  0  0  0  0
  -28.7290  -13.2430   20.5770 C   0  0  0  0  0  2  0  0  0  0  0  0
  -29.9360  -13.7870   19.9220 N   0  0  0  0  0  0  0  0  0  0  0  0
  -31.6760  -15.1300   19.5220 O   0  0  0  0  0  0  0  0  0  0  0  0
  -28.9590  -16.2250   21.5330 C   0  0  0  0  0  1  0  0  0  0  0  0
  -29.8300  -16.2960   20.3570 N   0  0  0  0  0  0  0  0  0  0  0  0
  -25.2630  -13.8780   20.4440 C   0  0  0  0  0  0  0  0  0  0  0  0
  -24.2260  -13.0910   20.8650 C   0  0  0  0  0  0  0  0  0  0  0  0
  -24.6880  -11.7430   20.7630 C   0  0  0  0  0  0  0  0  0  0  0  0
  -26.2890  -13.0080   20.1120 N   0  0  0  0  0  0  0  0  0  0  0  0
  -25.9540  -11.7170   20.3660 N   0  0  0  0  0  0  0  0  0  0  0  0
  -23.9720  -10.4760   20.9630 C   0  0  0  0  0  0  0  0  0  0  0  0
  -24.4320   -9.5030   21.8780 C   0  0  0  0  0  3  0  0  0  0  0  0
  -23.7140   -8.3030   22.0670 C   0  0  0  0  0  3  0  0  0  0  0  0
  -22.5220   -8.0650   21.3430 C   0  0  0  0  0  0  0  0  0  0  0  0
  -22.0810   -9.0270   20.4160 C   0  0  0  0  0  3  0  0  0  0  0  0
  -22.8000  -10.2190   20.2250 C   0  0  0  0  0  3  0  0  0  0  0  0
  -21.7750   -6.9160   21.4420 O   0  0  0  0  0  0  0  0  0  0  0  0
  -21.7180   -6.1930   22.6060 C   0  0  0  0  0  0  0  0  0  0  0  0
  -21.2820   -6.7690   23.8200 C   0  0  0  0  0  3  0  0  0  0  0  0
  -21.1720   -5.9730   24.9770 C   0  0  0  0  0  3  0  0  0  0  0  0
  -21.4880   -4.6020   24.9220 C   0  0  0  0  0  0  0  0  0  0  0  0
  -21.9160   -4.0250   23.7130 C   0  0  0  0  0  3  0  0  0  0  0  0
  -22.0270   -4.8190   22.5580 C   0  0  0  0  0  0  0  0  0  0  0  0
  -22.4200   -4.2540   21.3910 F   0  0  0  0  0  0  0  0  0  0  0  0
  -21.3750   -3.8340   26.0310 F   0  0  0  0  0  0  0  0  0  0  0  0
  -22.8510  -13.5600   21.2420 C   0  0  0  0  0  0  0  0  0  0  0  0
  -22.1850  -12.8460   22.1420 N   0  0  0  0  0  0  0  0  0  0  0  0
  -22.3790  -14.5950   20.7730 O   0  0  0  0  0  0  0  0  0  0  0  0
  -22.5810  -12.0100   22.5440 H   0  0  0  0  0  0  0  0  0  0  0  0
  -21.2640  -13.1420   22.4340 H   0  0  0  0  0  0  0  0  0  0  0  0
  -25.4090  -15.2520   20.2890 N   0  0  0  0  0  0  0  0  0  0  0  0
  -24.6480  -15.8980   20.4670 H   0  0  0  0  0  0  0  0  0  0  0  0
  -26.2250  -15.7020   19.8950 H   0  0  0  0  0  0  0  0  0  0  0  0
  1  2  2  0
  1  3  1  0
  2  5  1  0
  3  4  2  0
  5  4  1  0
  5 48  1  0
  6  3  1  0
  6  7  1  0
  8 19  2  0
  9  7  1  0
  9 14  1  0
 10 18  1  0
 10 20  1  0
 11 17  1  0
 11 13  1  0
 12 18  1  0
 13 12  1  0
 14 13  2  0
 15  9  2  0
 16 15  1  0
 16 11  2  0
 17 10  1  0
 18  8  1  0
 20 22  2  0
 21 20  1  0
 23 21  1  0
 24 33  2  0
 24 29  1  0
 25 21  1  0
 25 29  1  0
 26 25  1  0
 27 28  1  0
 27 26  1  0
 28 24  1  0
 29 30  2  0
 30 31  1  0
 32 31  2  0
 33 32  1  0
 34  8  1  0
 34 39  1  0
 34 35  1  0
 35 38  1  1
 35 36  1  0
 37 35  1  0
 39 42  1  0
 40 44  1  0
 40 39  1  0
 41 40  2  0
 44 43  1  0
 46 44  1  0
 46 47  1  0
 46 45  1  0
 49 59  1  0
 49 48  2  0
 50 59  1  0
 51 56  1  0
 52 53  1  0
 52 51  1  0
 54 53  1  0
 54 63  1  0
 54 55  1  0
 56 50  1  0
 56 55  1  0
 57 50  2  0
 59 58  1  0
 60 61  2  0
 61 80  1  0
 62 61  1  0
 62 65  1  0
 63 64  1  0
 63 60  1  0
 64 62  2  0
 65 66  1  0
 66 67  2  0
 68 71  1  0
 68 67  1  0
 69 68  2  0
 70 69  1  0
 70 65  2  0
 71 72  1  0
 72 73  1  0
 73 74  2  0
 75 74  1  0
 75 79  1  0
 76 75  2  0
 77 72  2  0
 77 76  1  0
 78 77  1  0
 80 81  1  0
 81 84  1  0
 81 83  1  0
 82 80  2  0
 85 60  1  0
 85 86  1  0
 87 85  1  0
M  ISO  4   6 101   7 101  50 100  59 100
M  END
>  <TORSDO>  (20) 
F 19

>  <SCORE>  (20) 
-14.285

>  <name>  (20) 
21

>  <ligand_id>  (20) 
21

>  <original_smiles>  (20) 
[H]c1c([H])c([H])c2c(c1[H])C([H])([H])C([H])([H])C([H])([H])C2([H])N([H])C(=O)C1([H])N(C(=O)C([H])(N([H])C(=O)C([H])(N([H])C([H])([H])[H])C([H])([H])[H])C(C([H])([H])[H])(C([H])([H])[H])C([H])([H])[H])C([H])([H])c2c([H])c(OC([H])([H])c3nn(C([H])([H])C([H])([H])N(C(=O)N4C([H])([H])C([H])([H])C([H])([H])C([H])(n5nc(-c6c([H])c([H])c(Oc7c([H])c([H])c(F)c([H])c7F)c([H])c6[H])c(C(=O)N([H])[H])c5N([H])[H])C4([H])[H])C([H])([H])[H])c([H])c3[H])c([H])c([H])c2C1([H])[H]

>  <smiles>  (20) 
[H]c1c([H])c([H])c2c(c1[H])C([H])([H])C([H])([H])C([H])([H])C2([H])N([H])C(=O)C1([H])N(C(=O)C([H])(N([H])C(=O)C([H])(N([H])C([H])([H])[H])C([H])([H])[H])C(C([H])([H])[H])(C([H])([H])[H])C([H])([H])[H])C([H])([H])c2c([H])c(OC([H])([H])c3nn(C([H])([H])C([H])([H])N(C(=O)N4C([H])([H])C([H])([H])C([H])([H])C([H])(n5nc(-c6c([H])c([H])c(Oc7c([H])c([H])c(F)c([H])c7F)c([H])c6[H])c(C(=O)N([H])[H])c5N([H])[H])C4([H])[H])C([H])([H])[H])c([H])c3[H])c([H])c([H])c2C1([H])[H]

$$$$
22:0:0
     RDKit          3D

 89 97  0  0  1  0  0  0  0  0999 V2000
  -28.8600  -22.6750   20.1690 C   0  0  0  0  0  0  0  0  0  0  0  0
  -29.5130  -20.2920   20.0960 C   0  0  0  0  0  3  0  0  0  0  0  0
  -30.5380  -20.3790   22.4070 C   0  0  0  0  0  1  0  0  0  0  0  0
  -28.9250  -21.4140   19.3880 N   0  0  0  0  0  0  0  0  0  0  0  0
  -29.4170  -22.3010   21.3410 N   0  0  0  0  0  2  0  0  0  0  0  0
  -29.8200  -20.9290   21.2690 N   0  0  0  0  0  0  0  0  0  0  0  0
  -31.6310  -18.8800   19.4790 C   0  0  0  0  0  1  0  0  0  0  0  0
  -29.5890  -18.6210   18.0880 C   0  0  0  0  0  1  0  0  0  0  0  0
  -30.1060  -18.6710   19.5370 C   0  0  2  0  0  0  0  0  0  0  0  0
  -30.6350  -15.6860   19.8190 C   0  0  0  0  0  0  0  0  0  0  0  0
  -30.6170  -13.1910   18.9840 C   0  0  0  0  0  2  0  0  0  0  0  0
  -29.6490  -12.8970   17.8060 C   0  0  0  0  0  2  0  0  0  0  0  0
  -28.2390  -12.5790   18.3320 C   0  0  0  0  0  2  0  0  0  0  0  0
  -27.8170  -13.5530   19.4570 C   0  0  0  0  0  3  0  0  0  0  0  0
  -28.9180  -13.7860   20.5200 C   0  0  0  0  0  2  0  0  0  0  0  0
  -30.0830  -14.3510   19.8140 N   0  0  0  0  0  0  0  0  0  0  0  0
  -31.8310  -15.6390   19.4910 O   0  0  0  0  0  0  0  0  0  0  0  0
  -29.9120  -17.0170   19.9860 N   0  0  0  0  0  0  0  0  0  0  0  0
  -28.9720  -16.8530   20.3190 H   0  0  0  0  0  0  0  0  0  0  0  0
  -25.5060  -14.0720   20.3840 C   0  0  0  0  0  0  0  0  0  0  0  0
  -24.4700  -13.2830   20.7960 C   0  0  0  0  0  0  0  0  0  0  0  0
  -24.9350  -11.9340   20.6940 C   0  0  0  0  0  0  0  0  0  0  0  0
  -26.5310  -13.2090   20.0460 N   0  0  0  0  0  0  0  0  0  0  0  0
  -26.2040  -11.9140   20.2970 N   0  0  0  0  0  0  0  0  0  0  0  0
  -24.2200  -10.6660   20.8900 C   0  0  0  0  0  0  0  0  0  0  0  0
  -24.6440   -9.7160   21.8440 C   0  0  0  0  0  3  0  0  0  0  0  0
  -23.9230   -8.5160   22.0310 C   0  0  0  0  0  3  0  0  0  0  0  0
  -22.7620   -8.2590   21.2650 C   0  0  0  0  0  0  0  0  0  0  0  0
  -22.3550   -9.1990   20.3010 C   0  0  0  0  0  3  0  0  0  0  0  0
  -23.0770  -10.3900   20.1130 C   0  0  0  0  0  3  0  0  0  0  0  0
  -22.0150   -7.1100   21.3590 O   0  0  0  0  0  0  0  0  0  0  0  0
  -21.8750   -6.4380   22.5470 C   0  0  0  0  0  0  0  0  0  0  0  0
  -21.2910   -7.0430   23.6810 C   0  0  0  0  0  3  0  0  0  0  0  0
  -21.1010   -6.2930   24.8590 C   0  0  0  0  0  3  0  0  0  0  0  0
  -21.4880   -4.9410   24.9040 C   0  0  0  0  0  0  0  0  0  0  0  0
  -22.0660   -4.3360   23.7750 C   0  0  0  0  0  3  0  0  0  0  0  0
  -22.2550   -5.0810   22.5990 C   0  0  0  0  0  0  0  0  0  0  0  0
  -22.7910   -4.4870   21.5050 F   0  0  0  0  0  0  0  0  0  0  0  0
  -21.3000   -4.2190   26.0330 F   0  0  0  0  0  0  0  0  0  0  0  0
  -23.0940  -13.7520   21.1640 C   0  0  0  0  0  0  0  0  0  0  0  0
  -22.4290  -13.0470   22.0710 N   0  0  0  0  0  0  0  0  0  0  0  0
  -22.6220  -14.7810   20.6830 O   0  0  0  0  0  0  0  0  0  0  0  0
  -22.8260  -12.2150   22.4820 H   0  0  0  0  0  0  0  0  0  0  0  0
  -21.5080  -13.3430   22.3590 H   0  0  0  0  0  0  0  0  0  0  0  0
  -25.6570  -15.4480   20.2360 N   0  0  0  0  0  0  0  0  0  0  0  0
  -24.8930  -16.0920   20.4070 H   0  0  0  0  0  0  0  0  0  0  0  0
  -26.4710  -15.8950   19.8360 H   0  0  0  0  0  0  0  0  0  0  0  0
  -27.9330  -24.2070   19.9380 C   0  0  0  0  0  2  0  0  0  0  0  0
  -28.2280  -25.8540   20.2020 O   0  0  0  0  0  0  0  0  0  0  0  0
  -24.6810  -31.9490   23.1450 C   0  0  0  0  0  0  0  0  0  0  0  0
  -27.2470  -27.0150   20.1110 C   0  0  0  0  0  0  0  0  0  0  0  0
  -23.4850  -30.5300   21.5300 C   0  0  0  0  0  3  0  0  0  0  0  0
  -24.9340  -28.9320   20.0850 C   0  0  0  0  0  0  0  0  0  0  0  0
  -26.0490  -30.7530   21.3490 C   0  0  0  0  0  2  0  0  0  0  0  0
  -26.1280  -29.3320   20.6980 C   0  0  0  0  0  0  0  0  0  0  0  0
  -27.2720  -28.3950   20.6880 C   0  0  0  0  0  3  0  0  0  0  0  0
  -26.0230  -26.8010   19.4320 C   0  0  0  0  0  3  0  0  0  0  0  0
  -24.9130  -27.6900   19.4280 C   0  0  0  0  0  3  0  0  0  0  0  0
  -23.7050  -29.8450   20.1520 C   0  0  0  0  0  2  0  0  0  0  0  0
  -24.7620  -31.1070   22.0610 N   0  0  0  0  0  0  0  0  0  0  0  0
  -23.5940  -32.2240   23.6810 O   0  0  0  0  0  0  0  0  0  0  0  0
  -22.8140  -29.5320   22.5120 C   0  0  0  0  0  0  0  0  0  0  0  0
  -21.4890  -29.3190   22.3870 N   0  0  0  0  0  0  0  0  0  0  0  0
  -23.4960  -28.9470   23.3570 O   0  0  0  0  0  0  0  0  0  0  0  0
  -20.9870  -29.8470   21.6860 H   0  0  0  0  0  0  0  0  0  0  0  0
  -18.1650  -27.9400   22.8600 C   0  0  0  0  0  0  0  0  0  0  0  0
  -20.6980  -28.3650   23.1730 C   0  0  0  0  0  3  0  0  0  0  0  0
  -20.8950  -26.9210   22.6560 C   0  0  0  0  0  2  0  0  0  0  0  0
  -19.8400  -26.4980   21.6290 C   0  0  0  0  0  2  0  0  0  0  0  0
  -18.4370  -26.5830   22.2340 C   0  0  0  0  0  2  0  0  0  0  0  0
  -19.2260  -28.7830   23.2850 C   0  0  0  0  0  0  0  0  0  0  0  0
  -18.9140  -30.0460   23.8340 C   0  0  0  0  0  3  0  0  0  0  0  0
  -17.5770  -30.4690   23.9580 C   0  0  0  0  0  3  0  0  0  0  0  0
  -16.5310  -29.6250   23.5450 C   0  0  0  0  0  3  0  0  0  0  0  0
  -16.8270  -28.3620   23.0030 C   0  0  0  0  0  3  0  0  0  0  0  0
  -25.9490  -32.6190   23.7560 C   0  0  0  0  0  3  0  0  0  0  0  0
  -25.6100  -34.0130   24.0980 N   0  0  0  0  0  0  0  0  0  0  0  0
  -25.9230  -35.0850   23.3560 C   0  0  0  0  0  0  0  0  0  0  0  0
  -26.5860  -35.0050   22.3200 O   0  0  0  0  0  0  0  0  0  0  0  0
  -25.0250  -34.1480   24.9090 H   0  0  0  0  0  0  0  0  0  0  0  0
  -24.1830  -36.8770   23.0320 C   0  0  0  0  0  1  0  0  0  0  0  0
  -25.4250  -36.4630   23.8400 C   0  0  0  0  0  3  0  0  0  0  0  0
  -27.5420  -37.3620   24.7040 C   0  0  0  0  0  1  0  0  0  0  0  0
  -26.4490  -37.5280   23.7500 N   0  0  0  0  0  0  0  0  0  0  0  0
  -26.0310  -38.4420   23.9010 H   0  0  0  0  0  0  0  0  0  0  0  0
  -26.4870  -31.8680   25.0360 C   0  0  1  0  0  0  0  0  0  0  0  0
  -25.4050  -31.6120   26.1110 C   0  0  0  0  0  1  0  0  0  0  0  0
  -27.1010  -30.5020   24.6570 C   0  0  0  0  0  1  0  0  0  0  0  0
  -27.6230  -32.6910   25.6880 C   0  0  0  0  0  1  0  0  0  0  0  0
  1  5  1  0
  2  9  1  0
  2  6  1  0
  4  2  1  0
  4  1  2  0
  6  5  1  0
  6  3  1  0
  9  7  1  6
  8  9  1  0
  9 18  1  0
 10 18  1  0
 11 16  1  0
 12 13  1  0
 12 11  1  0
 14 13  1  0
 14 23  1  0
 14 15  1  0
 16 10  1  0
 16 15  1  0
 17 10  2  0
 18 19  1  0
 20 21  2  0
 21 40  1  0
 22 21  1  0
 22 25  1  0
 23 24  1  0
 23 20  1  0
 24 22  2  0
 25 26  1  0
 26 27  2  0
 28 31  1  0
 28 27  1  0
 29 28  2  0
 30 29  1  0
 30 25  2  0
 31 32  1  0
 32 37  2  0
 32 33  1  0
 33 34  2  0
 34 35  1  0
 35 39  1  0
 36 35  2  0
 37 36  1  0
 38 37  1  0
 40 41  1  0
 41 44  1  0
 41 43  1  0
 42 40  2  0
 45 20  1  0
 45 46  1  0
 47 45  1  0
 48  1  1  0
 48 49  1  0
 50 61  2  0
 51 49  1  0
 51 56  1  0
 52 60  1  0
 52 62  1  0
 53 59  1  0
 53 55  1  0
 54 60  1  0
 55 54  1  0
 56 55  2  0
 57 51  2  0
 58 57  1  0
 58 53  2  0
 59 52  1  0
 60 50  1  0
 62 64  2  0
 63 62  1  0
 65 63  1  0
 66 75  2  0
 66 71  1  0
 67 63  1  0
 67 71  1  0
 68 67  1  0
 69 70  1  0
 69 68  1  0
 70 66  1  0
 71 72  2  0
 72 73  1  0
 74 73  2  0
 75 74  1  0
 76 50  1  0
 76 77  1  0
 76 86  1  0
 77 80  1  0
 78 82  1  0
 78 77  1  0
 79 78  2  0
 82 81  1  0
 84 82  1  0
 84 85  1  0
 84 83  1  0
 86 89  1  1
 86 87  1  0
 88 86  1  0
M  ISO  4  10 100  18 100  48 101  49 101
M  END
>  <TORSDO>  (21) 
F 18

>  <SCORE>  (21) 
-16.319

>  <name>  (21) 
22

>  <ligand_id>  (21) 
22

>  <original_smiles>  (21) 
[H]c1c([H])c([H])c2c(c1[H])C([H])([H])C([H])([H])C([H])([H])C2([H])N([H])C(=O)C1([H])N(C(=O)C([H])(N([H])C(=O)C([H])(N([H])C([H])([H])[H])C([H])([H])[H])C(C([H])([H])[H])(C([H])([H])[H])C([H])([H])[H])C([H])([H])c2c([H])c(OC([H])([H])c3nc(C(N([H])C(=O)N4C([H])([H])C([H])([H])C([H])([H])C([H])(n5nc(-c6c([H])c([H])c(Oc7c([H])c([H])c(F)c([H])c7F)c([H])c6[H])c(C(=O)N([H])[H])c5N([H])[H])C4([H])[H])(C([H])([H])[H])C([H])([H])[H])n(C([H])([H])[H])n3)c([H])c([H])c2C1([H])[H]

>  <smiles>  (21) 
[H]c1c([H])c([H])c2c(c1[H])C([H])([H])C([H])([H])C([H])([H])C2([H])N([H])C(=O)C1([H])N(C(=O)C([H])(N([H])C(=O)C([H])(N([H])C([H])([H])[H])C([H])([H])[H])C(C([H])([H])[H])(C([H])([H])[H])C([H])([H])[H])C([H])([H])c2c([H])c(OC([H])([H])c3nc(C(N([H])C(=O)N4C([H])([H])C([H])([H])C([H])([H])C([H])(n5nc(-c6c([H])c([H])c(Oc7c([H])c([H])c(F)c([H])c7F)c([H])c6[H])c(C(=O)N([H])[H])c5N([H])[H])C4([H])[H])(C([H])([H])[H])C([H])([H])[H])n(C([H])([H])[H])n3)c([H])c([H])c2C1([H])[H]

$$$$
23:0:0
     RDKit          3D

 99107  0  0  1  0  0  0  0  0999 V2000
  -30.2210  -19.7730   20.4000 C   0  0  0  0  0  2  0  0  0  0  0  0
  -28.1650  -18.2620   19.9950 C   0  0  0  0  0  3  0  0  0  0  0  0
  -27.6770  -16.9550   19.8910 C   0  0  0  0  0  0  0  0  0  0  0  0
  -29.5370  -18.4160   20.2270 C   0  0  0  0  0  0  0  0  0  0  0  0
  -29.7890  -16.1050   20.2630 C   0  0  0  0  0  0  0  0  0  0  0  0
  -26.2080  -16.6820   19.6610 C   0  0  0  0  0  1  0  0  0  0  0  0
  -28.4890  -15.8910   20.0280 N   0  0  0  0  0  0  0  0  0  0  0  0
  -30.3290  -17.3300   20.3230 N   0  0  0  0  0  0  0  0  0  0  0  0
  -30.5220  -14.2020   21.8570 C   0  0  0  0  0  1  0  0  0  0  0  0
  -30.7120  -14.8630   20.4510 C   0  0  1  0  0  0  0  0  0  0  0  0
  -30.5220  -13.8270   19.2820 C   0  0  0  0  0  0  0  0  0  0  0  0
  -29.9550  -11.5660   18.4500 C   0  0  0  0  0  2  0  0  0  0  0  0
  -28.8350  -11.5370   17.3970 C   0  0  0  0  0  2  0  0  0  0  0  0
  -27.4650  -11.4170   18.0790 C   0  0  0  0  0  2  0  0  0  0  0  0
  -27.2870  -12.4650   19.2020 C   0  0  0  0  0  3  0  0  0  0  0  0
  -28.5070  -12.5240   20.1490 C   0  0  0  0  0  2  0  0  0  0  0  0
  -29.7390  -12.7070   19.3640 N   0  0  0  0  0  0  0  0  0  0  0  0
  -31.2350  -13.9770   18.2830 O   0  0  0  0  0  0  0  0  0  0  0  0
  -25.1210  -13.1690   20.4020 C   0  0  0  0  0  0  0  0  0  0  0  0
  -24.1060  -12.4380   20.9610 C   0  0  0  0  0  0  0  0  0  0  0  0
  -24.4660  -11.0660   20.7930 C   0  0  0  0  0  0  0  0  0  0  0  0
  -26.0440  -12.2440   19.9380 N   0  0  0  0  0  0  0  0  0  0  0  0
  -25.6630  -10.9720   20.2270 N   0  0  0  0  0  0  0  0  0  0  0  0
  -23.7130   -9.8380   21.0830 C   0  0  0  0  0  0  0  0  0  0  0  0
  -24.2310   -8.8400   21.9380 C   0  0  0  0  0  3  0  0  0  0  0  0
  -23.4810   -7.6770   22.2190 C   0  0  0  0  0  3  0  0  0  0  0  0
  -22.1990   -7.5030   21.6450 C   0  0  0  0  0  0  0  0  0  0  0  0
  -21.7010   -8.4880   20.7730 C   0  0  0  0  0  3  0  0  0  0  0  0
  -22.4490   -9.6420   20.4910 C   0  0  0  0  0  3  0  0  0  0  0  0
  -21.4110   -6.3920   21.8380 O   0  0  0  0  0  0  0  0  0  0  0  0
  -21.4890   -5.6440   22.9860 C   0  0  0  0  0  0  0  0  0  0  0  0
  -21.2460   -6.2040   24.2580 C   0  0  0  0  0  3  0  0  0  0  0  0
  -21.2700   -5.3860   25.4050 C   0  0  0  0  0  3  0  0  0  0  0  0
  -21.5270   -4.0070   25.2820 C   0  0  0  0  0  0  0  0  0  0  0  0
  -21.7650   -3.4450   24.0150 C   0  0  0  0  0  3  0  0  0  0  0  0
  -21.7450   -4.2630   22.8700 C   0  0  0  0  0  0  0  0  0  0  0  0
  -21.9540   -3.7120   21.6500 F   0  0  0  0  0  0  0  0  0  0  0  0
  -21.5430   -3.2190   26.3820 F   0  0  0  0  0  0  0  0  0  0  0  0
  -22.8260  -12.9780   21.5330 C   0  0  0  0  0  0  0  0  0  0  0  0
  -22.2520  -12.2800   22.5080 N   0  0  0  0  0  0  0  0  0  0  0  0
  -22.3520  -14.0450   21.1490 O   0  0  0  0  0  0  0  0  0  0  0  0
  -22.6480  -11.4090   22.8290 H   0  0  0  0  0  0  0  0  0  0  0  0
  -21.4050  -12.6190   22.9430 H   0  0  0  0  0  0  0  0  0  0  0  0
  -25.3230  -14.5320   20.2240 N   0  0  0  0  0  0  0  0  0  0  0  0
  -24.6020  -15.2100   20.4400 H   0  0  0  0  0  0  0  0  0  0  0  0
  -26.0870  -14.9180   19.6860 H   0  0  0  0  0  0  0  0  0  0  0  0
  -32.2240  -15.3260   20.5060 C   0  0  1  0  0  0  0  0  0  0  0  0
  -32.4210  -16.2240   21.4770 F   0  0  0  0  0  0  0  0  0  0  0  0
  -33.0230  -14.2840   20.7780 F   0  0  0  0  0  0  0  0  0  0  0  0
  -32.7040  -15.8750   19.3860 F   0  0  0  0  0  0  0  0  0  0  0  0
  -29.2770  -20.9760   20.6390 C   0  0  0  0  0  2  0  0  0  0  0  0
  -30.0080  -22.3390   20.7320 C   0  0  0  0  0  2  0  0  0  0  0  0
  -28.5480  -23.7780   19.4060 C   0  0  0  0  0  1  0  0  0  0  0  0
  -29.0500  -23.4920   20.7740 N   0  0  2  0  0  4  0  0  0  0  0  0
  -28.2520  -23.1540   21.2900 H   0  0  0  0  0  0  0  0  0  0  0  0
  -30.0250  -24.4210   22.9300 C   0  0  0  0  0  1  0  0  0  0  0  0
  -29.5180  -24.7330   21.4980 C   0  0  0  0  0  3  0  0  0  0  0  0
  -28.4060  -25.8230   21.6200 C   0  0  0  0  0  2  0  0  0  0  0  0
  -28.1410  -26.4820   20.3830 O   0  0  0  0  0  0  0  0  0  0  0  0
  -24.4590  -31.8990   23.2590 C   0  0  0  0  0  0  0  0  0  0  0  0
  -27.0130  -27.2700   20.3930 C   0  0  0  0  0  0  0  0  0  0  0  0
  -23.2310  -30.4660   21.6580 C   0  0  0  0  0  3  0  0  0  0  0  0
  -24.6590  -28.8280   20.3220 C   0  0  0  0  0  0  0  0  0  0  0  0
  -25.7670  -30.7450   21.4820 C   0  0  0  0  0  2  0  0  0  0  0  0
  -25.8220  -29.3440   20.9090 C   0  0  0  0  0  0  0  0  0  0  0  0
  -27.0020  -28.5680   20.9520 C   0  0  0  0  0  3  0  0  0  0  0  0
  -25.8410  -26.7700   19.7910 C   0  0  0  0  0  3  0  0  0  0  0  0
  -24.6610  -27.5380   19.7650 C   0  0  0  0  0  3  0  0  0  0  0  0
  -23.4380  -29.7210   20.3120 C   0  0  0  0  0  2  0  0  0  0  0  0
  -24.5030  -31.0540   22.1900 N   0  0  0  0  0  0  0  0  0  0  0  0
  -23.3800  -32.2240   23.7740 O   0  0  0  0  0  0  0  0  0  0  0  0
  -22.5390  -29.5040   22.6510 C   0  0  0  0  0  0  0  0  0  0  0  0
  -21.2140  -29.3460   22.5030 N   0  0  0  0  0  0  0  0  0  0  0  0
  -23.1920  -28.9020   23.5070 O   0  0  0  0  0  0  0  0  0  0  0  0
  -20.7510  -29.8810   21.7810 H   0  0  0  0  0  0  0  0  0  0  0  0
  -17.8000  -28.2720   22.9990 C   0  0  0  0  0  0  0  0  0  0  0  0
  -20.3600  -28.4630   23.2980 C   0  0  0  0  0  3  0  0  0  0  0  0
  -20.4260  -27.0080   22.7790 C   0  0  0  0  0  2  0  0  0  0  0  0
  -19.3290  -26.6800   21.7630 C   0  0  0  0  0  2  0  0  0  0  0  0
  -17.9440  -26.8920   22.3800 C   0  0  0  0  0  2  0  0  0  0  0  0
  -18.9360  -29.0160   23.4150 C   0  0  0  0  0  0  0  0  0  0  0  0
  -18.7480  -30.3090   23.9520 C   0  0  0  0  0  3  0  0  0  0  0  0
  -17.4580  -30.8570   24.0790 C   0  0  0  0  0  3  0  0  0  0  0  0
  -16.3370  -30.1100   23.6790 C   0  0  0  0  0  3  0  0  0  0  0  0
  -16.5090  -28.8200   23.1450 C   0  0  0  0  0  3  0  0  0  0  0  0
  -25.7570  -32.5150   23.8680 C   0  0  0  0  0  3  0  0  0  0  0  0
  -26.2690  -31.7460   25.1470 C   0  0  1  0  0  0  0  0  0  0  0  0
  -25.1720  -31.5060   26.2110 C   0  0  0  0  0  1  0  0  0  0  0  0
  -26.8570  -30.3690   24.7580 C   0  0  0  0  0  1  0  0  0  0  0  0
  -27.4160  -32.5420   25.8130 C   0  0  0  0  0  1  0  0  0  0  0  0
  -25.4720  -33.9200   24.1840 N   0  0  0  0  0  0  0  0  0  0  0  0
  -25.8340  -34.9590   23.4190 C   0  0  0  0  0  0  0  0  0  0  0  0
  -26.5150  -34.8340   22.3980 O   0  0  0  0  0  0  0  0  0  0  0  0
  -24.8700  -34.0930   24.9760 H   0  0  0  0  0  0  0  0  0  0  0  0
  -24.1440  -36.7810   23.0260 C   0  0  0  0  0  1  0  0  0  0  0  0
  -25.3660  -36.3590   23.8580 C   0  0  0  0  0  3  0  0  0  0  0  0
  -27.5100  -37.2060   24.7050 C   0  0  0  0  0  1  0  0  0  0  0  0
  -26.4200  -37.3920   23.7510 N   0  0  0  0  0  0  0  0  0  0  0  0
  -26.0300  -38.3210   23.8930 H   0  0  0  0  0  0  0  0  0  0  0  0
  1 51  1  0
  2  4  1  0
  3  2  2  0
  3  7  1  0
  4  8  2  0
  4  1  1  0
  5  8  1  0
  5 10  1  0
  6  3  1  0
  7  5  2  0
 10 47  1  0
 10  9  1  1
 11 17  1  0
 11 10  1  0
 12 17  1  0
 13 14  1  0
 13 12  1  0
 15 14  1  0
 15 22  1  0
 15 16  1  0
 17 16  1  0
 18 11  2  0
 19 20  2  0
 20 39  1  0
 21 20  1  0
 21 24  1  0
 22 23  1  0
 22 19  1  0
 23 21  2  0
 24 25  1  0
 25 26  2  0
 27 30  1  0
 27 26  1  0
 28 27  2  0
 29 28  1  0
 29 24  2  0
 30 31  1  0
 31 32  1  0
 32 33  2  0
 34 33  1  0
 34 38  1  0
 35 34  2  0
 36 31  2  0
 36 35  1  0
 37 36  1  0
 39 40  1  0
 40 42  1  0
 40 43  1  0
 41 39  2  0
 44 19  1  0
 44 45  1  0
 46 44  1  0
 47 49  1  1
 47 48  1  0
 50 47  1  0
 51 52  1  0
 52 54  1  0
 53 54  1  0
 54 55  1  1
 54 57  1  0
 57 58  1  0
 57 56  1  0
 59 61  1  0
 59 58  1  0
 60 71  2  0
 61 66  1  0
 62 70  1  0
 62 72  1  0
 63 65  1  0
 64 70  1  0
 65 66  2  0
 65 64  1  0
 67 61  2  0
 68 67  1  0
 68 63  2  0
 69 63  1  0
 69 62  1  0
 70 60  1  0
 72 74  2  0
 73 72  1  0
 75 73  1  0
 76 85  2  0
 76 81  1  0
 77 73  1  0
 77 81  1  0
 78 77  1  0
 79 80  1  0
 79 78  1  0
 80 76  1  0
 81 82  2  0
 82 83  1  0
 84 83  2  0
 85 84  1  0
 86 60  1  0
 86 91  1  0
 86 87  1  0
 87 90  1  1
 87 88  1  0
 89 87  1  0
 91 94  1  0
 92 96  1  0
 92 91  1  0
 93 92  2  0
 96 95  1  0
 98 96  1  0
 98 99  1  0
 98 97  1  0
M  ISO  4  10 100  11 100  58 101  59 101
M  END
>  <TORSDO>  (22) 
F 24

>  <SCORE>  (22) 
-10.049

>  <name>  (22) 
23

>  <ligand_id>  (22) 
23

>  <original_smiles>  (22) 
[H]c1c(C([H])([H])[H])nc(C(C(=O)N2C([H])([H])C([H])([H])C([H])([H])C([H])(n3nc(-c4c([H])c([H])c(Oc5c([H])c([H])c(F)c([H])c5F)c([H])c4[H])c(C(=O)N([H])[H])c3N([H])[H])C2([H])[H])(C([H])([H])[H])C(F)(F)F)nc1C([H])([H])C([H])([H])C([H])([H])[N+]([H])(C([H])([H])[H])C([H])(C([H])([H])[H])C([H])([H])Oc1c([H])c([H])c2c(c1[H])C([H])([H])N(C(=O)C([H])(N([H])C(=O)C([H])(N([H])C([H])([H])[H])C([H])([H])[H])C(C([H])([H])[H])(C([H])([H])[H])C([H])([H])[H])C([H])(C(=O)N([H])C1([H])c3c([H])c([H])c([H])c([H])c3C([H])([H])C([H])([H])C1([H])[H])C2([H])[H]

>  <smiles>  (22) 
[H]c1c(C([H])([H])[H])nc(C(C(=O)N2C([H])([H])C([H])([H])C([H])([H])C([H])(n3nc(-c4c([H])c([H])c(Oc5c([H])c([H])c(F)c([H])c5F)c([H])c4[H])c(C(=O)N([H])[H])c3N([H])[H])C2([H])[H])(C([H])([H])[H])C(F)(F)F)nc1C([H])([H])C([H])([H])C([H])([H])[N+]([H])(C([H])([H])[H])C([H])(C([H])([H])[H])C([H])([H])Oc1c([H])c([H])c2c(c1[H])C([H])([H])N(C(=O)C([H])(N([H])C(=O)C([H])(N([H])C([H])([H])[H])C([H])([H])[H])C(C([H])([H])[H])(C([H])([H])[H])C([H])([H])[H])C([H])(C(=O)N([H])C1([H])c3c([H])c([H])c([H])c([H])c3C([H])([H])C([H])([H])C1([H])[H])C2([H])[H]

$$$$
24:0:0
     RDKit          3D

 94102  0  0  1  0  0  0  0  0999 V2000
  -30.4340  -18.6660   20.3170 C   0  0  0  0  0  0  0  0  0  0  0  0
  -30.5560  -20.4390   21.4710 C   0  0  0  0  0  3  0  0  0  0  0  0
  -30.1580  -19.1590   21.5590 N   0  0  0  0  0  0  0  0  0  0  0  0
  -30.8760  -19.6060   19.4640 N   0  0  0  0  0  2  0  0  0  0  0  0
  -30.9310  -20.7620   20.2080 N   0  0  0  0  0  0  0  0  0  0  0  0
  -30.6740  -20.5960   23.9730 C   0  0  0  0  0  1  0  0  0  0  0  0
  -29.0020  -21.9720   22.6900 C   0  0  0  0  0  1  0  0  0  0  0  0
  -31.4410  -22.5490   22.7090 C   0  0  0  0  0  1  0  0  0  0  0  0
  -30.4240  -21.3850   22.6670 C   0  0  2  0  0  0  0  0  0  0  0  0
  -30.1400  -17.2190   19.8630 C   0  0  0  0  0  2  0  0  0  0  0  0
  -30.9000  -14.9200   20.4200 C   0  0  0  0  0  0  0  0  0  0  0  0
  -30.7390  -12.5770   19.5960 C   0  0  0  0  0  2  0  0  0  0  0  0
  -29.8460  -12.5110   18.3380 C   0  0  0  0  0  2  0  0  0  0  0  0
  -28.3690  -12.3410   18.7340 C   0  0  0  0  0  2  0  0  0  0  0  0
  -27.9290  -13.3460   19.8280 C   0  0  0  0  0  3  0  0  0  0  0  0
  -28.9420  -13.4020   20.9920 C   0  0  0  0  0  2  0  0  0  0  0  0
  -30.2690  -13.7020   20.4330 N   0  0  0  0  0  0  0  0  0  0  0  0
  -32.0140  -15.0450   19.8980 O   0  0  0  0  0  0  0  0  0  0  0  0
  -30.1110  -16.3100   22.2330 C   0  0  0  0  0  1  0  0  0  0  0  0
  -30.1880  -16.0310   20.7940 N   0  0  0  0  0  0  0  0  0  0  0  0
  -25.5600  -13.9580   20.6060 C   0  0  0  0  0  0  0  0  0  0  0  0
  -24.4730  -13.1890   20.9320 C   0  0  0  0  0  0  0  0  0  0  0  0
  -24.9030  -11.8330   20.8150 C   0  0  0  0  0  0  0  0  0  0  0  0
  -26.5780  -13.0690   20.3060 N   0  0  0  0  0  0  0  0  0  0  0  0
  -26.1880  -11.7800   20.4900 N   0  0  0  0  0  0  0  0  0  0  0  0
  -24.1460  -10.5790   20.9330 C   0  0  0  0  0  0  0  0  0  0  0  0
  -24.5700   -9.5410   21.7920 C   0  0  0  0  0  3  0  0  0  0  0  0
  -23.8170   -8.3510   21.9040 C   0  0  0  0  0  3  0  0  0  0  0  0
  -22.6250   -8.1940   21.1560 C   0  0  0  0  0  0  0  0  0  0  0  0
  -22.2200   -9.2220   20.2840 C   0  0  0  0  0  3  0  0  0  0  0  0
  -22.9720  -10.4020   20.1720 C   0  0  0  0  0  3  0  0  0  0  0  0
  -21.8400   -7.0670   21.1830 O   0  0  0  0  0  0  0  0  0  0  0  0
  -21.8050   -6.2390   22.2770 C   0  0  0  0  0  0  0  0  0  0  0  0
  -21.4050   -6.7030   23.5490 C   0  0  0  0  0  3  0  0  0  0  0  0
  -21.3180   -5.8020   24.6300 C   0  0  0  0  0  3  0  0  0  0  0  0
  -21.6180   -4.4410   24.4370 C   0  0  0  0  0  0  0  0  0  0  0  0
  -22.0130   -3.9770   23.1700 C   0  0  0  0  0  3  0  0  0  0  0  0
  -22.1040   -4.8750   22.0920 C   0  0  0  0  0  0  0  0  0  0  0  0
  -22.4630   -4.4200   20.8670 F   0  0  0  0  0  0  0  0  0  0  0  0
  -21.5250   -3.5740   25.4720 F   0  0  0  0  0  0  0  0  0  0  0  0
  -23.0920  -13.6840   21.2480 C   0  0  0  0  0  0  0  0  0  0  0  0
  -22.3680  -12.9710   22.1060 N   0  0  0  0  0  0  0  0  0  0  0  0
  -22.6630  -14.7330   20.7740 O   0  0  0  0  0  0  0  0  0  0  0  0
  -22.7290  -12.1220   22.5120 H   0  0  0  0  0  0  0  0  0  0  0  0
  -21.4410  -13.2800   22.3620 H   0  0  0  0  0  0  0  0  0  0  0  0
  -25.7610  -15.3320   20.5230 N   0  0  0  0  0  0  0  0  0  0  0  0
  -25.0290  -16.0070   20.7100 H   0  0  0  0  0  0  0  0  0  0  0  0
  -26.6460  -15.7650   20.2950 H   0  0  0  0  0  0  0  0  0  0  0  0
  -31.4250  -22.0230   19.5850 C   0  0  0  0  0  2  0  0  0  0  0  0
  -30.3410  -23.0260   19.0390 C   0  0  0  0  0  2  0  0  0  0  0  0
  -30.0460  -24.3430   19.8680 C   0  0  0  0  0  2  0  0  0  0  0  0
  -29.8020  -25.6880   17.6040 C   0  0  0  0  0  1  0  0  0  0  0  0
  -30.1010  -25.7210   19.1120 C   0  0  0  0  0  3  0  0  0  0  0  0
  -29.5600  -26.8810   19.8090 O   0  0  0  0  0  0  0  0  0  0  0  0
  -24.8420  -30.9490   23.2630 C   0  0  0  0  0  0  0  0  0  0  0  0
  -28.2510  -27.3560   19.7940 C   0  0  0  0  0  0  0  0  0  0  0  0
  -23.9120  -29.6160   21.3960 C   0  0  0  0  0  3  0  0  0  0  0  0
  -25.6320  -28.4920   19.8690 C   0  0  0  0  0  0  0  0  0  0  0  0
  -26.3630  -30.3530   21.3730 C   0  0  0  0  0  2  0  0  0  0  0  0
  -26.6790  -29.1010   20.5710 C   0  0  0  0  0  0  0  0  0  0  0  0
  -27.9790  -28.5430   20.5240 C   0  0  0  0  0  3  0  0  0  0  0  0
  -27.1720  -26.7490   19.1090 C   0  0  0  0  0  3  0  0  0  0  0  0
  -25.8760  -27.3150   19.1360 C   0  0  0  0  0  3  0  0  0  0  0  0
  -24.2690  -29.1490   19.9580 C   0  0  0  0  0  2  0  0  0  0  0  0
  -25.0530  -30.3160   22.0710 N   0  0  0  0  0  0  0  0  0  0  0  0
  -23.7150  -30.9880   23.7770 O   0  0  0  0  0  0  0  0  0  0  0  0
  -23.3900  -28.3970   22.1900 C   0  0  0  0  0  0  0  0  0  0  0  0
  -22.1500  -27.9750   21.8960 N   0  0  0  0  0  0  0  0  0  0  0  0
  -24.1060  -27.8350   23.0240 O   0  0  0  0  0  0  0  0  0  0  0  0
  -21.6260  -28.4890   21.2020 H   0  0  0  0  0  0  0  0  0  0  0  0
  -19.1300  -25.9920   21.7730 C   0  0  0  0  0  0  0  0  0  0  0  0
  -21.4740  -26.8200   22.4860 C   0  0  0  0  0  3  0  0  0  0  0  0
  -22.0080  -25.4970   21.8920 C   0  0  0  0  0  2  0  0  0  0  0  0
  -21.1940  -25.0010   20.6930 C   0  0  0  0  0  2  0  0  0  0  0  0
  -19.7330  -24.7720   21.0930 C   0  0  0  0  0  2  0  0  0  0  0  0
  -19.9490  -26.9610   22.4120 C   0  0  0  0  0  0  0  0  0  0  0  0
  -19.3400  -28.0920   22.9960 C   0  0  0  0  0  3  0  0  0  0  0  0
  -17.9440  -28.2650   22.9480 C   0  0  0  0  0  3  0  0  0  0  0  0
  -17.1380  -27.2960   22.3280 C   0  0  0  0  0  3  0  0  0  0  0  0
  -17.7290  -26.1600   21.7470 C   0  0  0  0  0  3  0  0  0  0  0  0
  -25.9960  -31.6710   24.0250 C   0  0  0  0  0  3  0  0  0  0  0  0
  -25.5920  -33.0720   24.2150 N   0  0  0  0  0  0  0  0  0  0  0  0
  -26.0480  -34.1010   23.4890 C   0  0  0  0  0  0  0  0  0  0  0  0
  -26.9180  -33.9760   22.6210 O   0  0  0  0  0  0  0  0  0  0  0  0
  -24.8400  -33.2460   24.8660 H   0  0  0  0  0  0  0  0  0  0  0  0
  -24.4240  -35.8400   22.6750 C   0  0  0  0  0  1  0  0  0  0  0  0
  -25.4450  -35.4910   23.7690 C   0  0  0  0  0  3  0  0  0  0  0  0
  -27.3190  -36.4420   25.0390 C   0  0  0  0  0  1  0  0  0  0  0  0
  -26.4570  -36.5670   23.8670 N   0  0  0  0  0  0  0  0  0  0  0  0
  -26.0110  -37.4800   23.8960 H   0  0  0  0  0  0  0  0  0  0  0  0
  -26.3530  -31.0010   25.4090 C   0  0  1  0  0  0  0  0  0  0  0  0
  -25.1270  -30.7870   26.3300 C   0  0  0  0  0  1  0  0  0  0  0  0
  -27.0230  -29.6240   25.1940 C   0  0  0  0  0  1  0  0  0  0  0  0
  -27.3800  -31.8760   26.1670 C   0  0  0  0  0  1  0  0  0  0  0  0
  1  3  2  0
  2  3  1  0
  2  9  1  0
  4  5  1  0
  4  1  1  0
  5  2  1  0
  9  7  1  1
  9  8  1  0
  9  6  1  0
 10  1  1  0
 10 20  1  0
 11 17  1  0
 11 20  1  0
 12 17  1  0
 13 14  1  0
 13 12  1  0
 15 14  1  0
 15 24  1  0
 15 16  1  0
 17 16  1  0
 18 11  2  0
 20 19  1  0
 21 22  2  0
 22 41  1  0
 23 22  1  0
 23 26  1  0
 24 25  1  0
 24 21  1  0
 25 23  2  0
 26 27  1  0
 27 28  2  0
 29 32  1  0
 29 28  1  0
 30 29  2  0
 31 30  1  0
 31 26  2  0
 32 33  1  0
 33 34  1  0
 34 35  2  0
 36 35  1  0
 36 40  1  0
 37 36  2  0
 38 33  2  0
 38 37  1  0
 39 38  1  0
 41 42  1  0
 42 45  1  0
 42 44  1  0
 43 41  2  0
 46 21  1  0
 46 47  1  0
 48 46  1  0
 49  5  1  0
 50 49  1  0
 50 51  1  0
 53 52  1  0
 53 54  1  0
 53 51  1  0
 55 66  2  0
 56 54  1  0
 56 61  1  0
 57 65  1  0
 57 67  1  0
 58 64  1  0
 58 60  1  0
 59 65  1  0
 60 59  1  0
 61 60  2  0
 62 63  1  0
 62 56  2  0
 63 58  2  0
 64 57  1  0
 65 55  1  0
 67 69  2  0
 68 67  1  0
 70 68  1  0
 71 76  1  0
 72 68  1  0
 73 72  1  0
 74 75  1  0
 74 73  1  0
 75 71  1  0
 76 72  1  0
 76 77  2  0
 78 77  1  0
 79 78  2  0
 80 71  2  0
 80 79  1  0
 81 55  1  0
 81 82  1  0
 81 91  1  0
 82 85  1  0
 83 87  1  0
 83 82  1  0
 84 83  2  0
 87 86  1  0
 87 89  1  0
 89 90  1  0
 89 88  1  0
 91 94  1  1
 91 92  1  0
 93 91  1  0
M  ISO  4  11 100  20 100  53 101  54 101
M  END
>  <TORSDO>  (23) 
F 22

>  <SCORE>  (23) 
-9.962

>  <name>  (23) 
24

>  <ligand_id>  (23) 
24

>  <original_smiles>  (23) 
[H]c1c([H])c([H])c2c(c1[H])C([H])([H])C([H])([H])C([H])([H])C2([H])N([H])C(=O)C1([H])N(C(=O)C([H])(N([H])C(=O)C([H])(N([H])C([H])([H])[H])C([H])([H])[H])C(C([H])([H])[H])(C([H])([H])[H])C([H])([H])[H])C([H])([H])c2c([H])c(OC([H])(C([H])([H])[H])C([H])([H])C([H])([H])C([H])([H])n3nc(C([H])([H])N(C(=O)N4C([H])([H])C([H])([H])C([H])([H])C([H])(n5nc(-c6c([H])c([H])c(Oc7c([H])c([H])c(F)c([H])c7F)c([H])c6[H])c(C(=O)N([H])[H])c5N([H])[H])C4([H])[H])C([H])([H])[H])nc3C(C([H])([H])[H])(C([H])([H])[H])C([H])([H])[H])c([H])c([H])c2C1([H])[H]

>  <smiles>  (23) 
[H]c1c([H])c([H])c2c(c1[H])C([H])([H])C([H])([H])C([H])([H])C2([H])N([H])C(=O)C1([H])N(C(=O)C([H])(N([H])C(=O)C([H])(N([H])C([H])([H])[H])C([H])([H])[H])C(C([H])([H])[H])(C([H])([H])[H])C([H])([H])[H])C([H])([H])c2c([H])c(OC([H])(C([H])([H])[H])C([H])([H])C([H])([H])C([H])([H])n3nc(C([H])([H])N(C(=O)N4C([H])([H])C([H])([H])C([H])([H])C([H])(n5nc(-c6c([H])c([H])c(Oc7c([H])c([H])c(F)c([H])c7F)c([H])c6[H])c(C(=O)N([H])[H])c5N([H])[H])C4([H])[H])C([H])([H])[H])nc3C(C([H])([H])[H])(C([H])([H])[H])C([H])([H])[H])c([H])c([H])c2C1([H])[H]

$$$$
25:0:0
     RDKit          3D

 96104  0  0  1  0  0  0  0  0999 V2000
  -30.2150  -19.2610   21.6930 C   0  0  0  0  0  3  0  0  0  0  0  0
  -30.2720  -18.4960   20.5220 C   0  0  0  0  0  0  0  0  0  0  0  0
  -29.6120  -19.0760   19.4030 C   0  0  0  0  0  0  0  0  0  0  0  0
  -28.9630  -20.9160   20.6820 C   0  0  0  0  0  0  0  0  0  0  0  0
  -29.5930  -20.4530   21.7590 N   0  0  0  0  0  0  0  0  0  0  0  0
  -28.9770  -20.2870   19.5120 N   0  0  0  0  0  0  0  0  0  0  0  0
  -29.6410  -18.4380   18.0030 C   0  0  1  0  0  0  0  0  0  0  0  0
  -29.4700  -17.1140   18.0660 F   0  0  0  0  0  0  0  0  0  0  0  0
  -28.6790  -18.9370   17.2290 F   0  0  0  0  0  0  0  0  0  0  0  0
  -30.8100  -18.6810   17.4120 F   0  0  0  0  0  0  0  0  0  0  0  0
  -26.8990  -22.2790   19.9570 C   0  0  0  0  0  1  0  0  0  0  0  0
  -27.5750  -22.2450   22.2890 C   0  0  0  0  0  1  0  0  0  0  0  0
  -28.1600  -22.2530   20.8490 C   0  0  1  0  0  0  0  0  0  0  0  0
  -29.0100  -23.5870   20.6810 C   0  0  0  0  0  2  0  0  0  0  0  0
  -28.7730  -24.5960   19.4890 C   0  0  0  0  0  2  0  0  0  0  0  0
  -28.9580  -26.1030   19.9080 C   0  0  0  0  0  2  0  0  0  0  0  0
  -28.6760  -27.1430   18.9290 O   0  0  0  0  0  0  0  0  0  0  0  0
  -24.5330  -31.3580   22.9270 C   0  0  0  0  0  0  0  0  0  0  0  0
  -27.4600  -27.7780   19.0850 C   0  0  0  0  0  0  0  0  0  0  0  0
  -23.3890  -30.0220   21.1890 C   0  0  0  0  0  3  0  0  0  0  0  0
  -24.9040  -28.9320   19.4520 C   0  0  0  0  0  0  0  0  0  0  0  0
  -25.8130  -30.7870   20.8630 C   0  0  0  0  0  2  0  0  0  0  0  0
  -26.0310  -29.5380   20.0270 C   0  0  0  0  0  0  0  0  0  0  0  0
  -27.3150  -28.9650   19.8420 C   0  0  0  0  0  3  0  0  0  0  0  0
  -26.3240  -27.2070   18.4830 C   0  0  0  0  0  3  0  0  0  0  0  0
  -25.0470  -27.7690   18.6740 C   0  0  0  0  0  3  0  0  0  0  0  0
  -23.5610  -29.5740   19.7140 C   0  0  0  0  0  2  0  0  0  0  0  0
  -24.5980  -30.7350   21.7160 N   0  0  0  0  0  0  0  0  0  0  0  0
  -23.4810  -31.3830   23.5810 O   0  0  0  0  0  0  0  0  0  0  0  0
  -22.9770  -28.7990   22.0440 C   0  0  0  0  0  0  0  0  0  0  0  0
  -21.7070  -28.3790   21.9370 N   0  0  0  0  0  0  0  0  0  0  0  0
  -23.8030  -28.2290   22.7620 O   0  0  0  0  0  0  0  0  0  0  0  0
  -21.0930  -28.8780   21.3060 H   0  0  0  0  0  0  0  0  0  0  0  0
  -18.6980  -26.4080   22.2200 C   0  0  0  0  0  0  0  0  0  0  0  0
  -21.1230  -27.2110   22.6010 C   0  0  0  0  0  3  0  0  0  0  0  0
  -21.5650  -25.9080   21.8940 C   0  0  0  0  0  2  0  0  0  0  0  0
  -20.5750  -25.4030   20.8430 C   0  0  0  0  0  2  0  0  0  0  0  0
  -19.1860  -25.1930   21.4480 C   0  0  0  0  0  2  0  0  0  0  0  0
  -19.6060  -27.3570   22.7500 C   0  0  0  0  0  0  0  0  0  0  0  0
  -19.0910  -28.4880   23.4320 C   0  0  0  0  0  3  0  0  0  0  0  0
  -17.6980  -28.6700   23.5790 C   0  0  0  0  0  3  0  0  0  0  0  0
  -16.8110  -27.7170   23.0580 C   0  0  0  0  0  3  0  0  0  0  0  0
  -17.3110  -26.5890   22.3840 C   0  0  0  0  0  3  0  0  0  0  0  0
  -25.7670  -32.0910   23.5420 C   0  0  0  0  0  3  0  0  0  0  0  0
  -25.3410  -33.4530   23.8950 N   0  0  0  0  0  0  0  0  0  0  0  0
  -25.6420  -34.5530   23.1920 C   0  0  0  0  0  0  0  0  0  0  0  0
  -26.3650  -34.5350   22.1920 O   0  0  0  0  0  0  0  0  0  0  0  0
  -24.6970  -33.5340   24.6690 H   0  0  0  0  0  0  0  0  0  0  0  0
  -23.8190  -36.2450   22.7870 C   0  0  0  0  0  1  0  0  0  0  0  0
  -25.0310  -35.8870   23.6650 C   0  0  0  0  0  3  0  0  0  0  0  0
  -27.0440  -36.8670   24.6710 C   0  0  0  0  0  1  0  0  0  0  0  0
  -25.9940  -37.0090   23.6660 N   0  0  0  0  0  0  0  0  0  0  0  0
  -25.5190  -37.8930   23.8250 H   0  0  0  0  0  0  0  0  0  0  0  0
  -26.3740  -31.3560   24.7980 C   0  0  1  0  0  0  0  0  0  0  0  0
  -25.3290  -31.0270   25.8880 C   0  0  0  0  0  1  0  0  0  0  0  0
  -27.0510  -30.0320   24.3780 C   0  0  0  0  0  1  0  0  0  0  0  0
  -27.4760  -32.2300   25.4420 C   0  0  0  0  0  1  0  0  0  0  0  0
  -31.2250  -17.2670   20.4600 C   0  0  0  0  0  2  0  0  0  0  0  0
  -31.5000  -14.7730   20.6290 C   0  0  0  0  0  0  0  0  0  0  0  0
  -31.2400  -12.4710   19.7660 C   0  0  0  0  0  2  0  0  0  0  0  0
  -30.3920  -12.5210   18.4760 C   0  0  0  0  0  2  0  0  0  0  0  0
  -28.8900  -12.4800   18.8140 C   0  0  0  0  0  2  0  0  0  0  0  0
  -28.5050  -13.4920   19.9230 C   0  0  0  0  0  3  0  0  0  0  0  0
  -29.4580  -13.3930   21.1330 C   0  0  0  0  0  2  0  0  0  0  0  0
  -30.8230  -13.5930   20.6250 N   0  0  0  0  0  0  0  0  0  0  0  0
  -32.6900  -14.8370   20.3000 O   0  0  0  0  0  0  0  0  0  0  0  0
  -30.7480  -15.8990   20.7930 N   0  0  0  0  0  0  0  0  0  0  0  0
  -29.7720  -15.7620   21.0230 H   0  0  0  0  0  0  0  0  0  0  0  0
  -26.1560  -14.3160   20.5530 C   0  0  0  0  0  0  0  0  0  0  0  0
  -24.9930  -13.6460   20.8250 C   0  0  0  0  0  0  0  0  0  0  0  0
  -25.3090  -12.2550   20.7340 C   0  0  0  0  0  0  0  0  0  0  0  0
  -27.1100  -13.3400   20.3190 N   0  0  0  0  0  0  0  0  0  0  0  0
  -26.6020  -12.0920   20.4870 N   0  0  0  0  0  0  0  0  0  0  0  0
  -24.4510  -11.0710   20.8130 C   0  0  0  0  0  0  0  0  0  0  0  0
  -24.8080   -9.9490   21.5940 C   0  0  0  0  0  3  0  0  0  0  0  0
  -23.9570   -8.8260   21.6710 C   0  0  0  0  0  3  0  0  0  0  0  0
  -22.7310   -8.8180   20.9630 C   0  0  0  0  0  0  0  0  0  0  0  0
  -22.3890   -9.9270   20.1660 C   0  0  0  0  0  3  0  0  0  0  0  0
  -23.2420  -11.0430   20.0910 C   0  0  0  0  0  3  0  0  0  0  0  0
  -21.8520   -7.7610   20.9550 O   0  0  0  0  0  0  0  0  0  0  0  0
  -21.8500   -6.8220   21.9540 C   0  0  0  0  0  0  0  0  0  0  0  0
  -21.6770   -7.1740   23.3110 C   0  0  0  0  0  3  0  0  0  0  0  0
  -21.6150   -6.1690   24.2960 C   0  0  0  0  0  3  0  0  0  0  0  0
  -21.7100   -4.8130   23.9270 C   0  0  0  0  0  0  0  0  0  0  0  0
  -21.8740   -4.4610   22.5750 C   0  0  0  0  0  3  0  0  0  0  0  0
  -21.9410   -5.4630   21.5910 C   0  0  0  0  0  0  0  0  0  0  0  0
  -22.0790   -5.1150   20.2890 F   0  0  0  0  0  0  0  0  0  0  0  0
  -21.6410   -3.8470   24.8730 F   0  0  0  0  0  0  0  0  0  0  0  0
  -23.6430  -14.2570   21.0560 C   0  0  0  0  0  0  0  0  0  0  0  0
  -22.8150  -13.6180   21.8760 N   0  0  0  0  0  0  0  0  0  0  0  0
  -23.3300  -15.3320   20.5430 O   0  0  0  0  0  0  0  0  0  0  0  0
  -23.0800  -12.7470   22.3090 H   0  0  0  0  0  0  0  0  0  0  0  0
  -21.9060  -14.0090   22.0780 H   0  0  0  0  0  0  0  0  0  0  0  0
  -26.4870  -15.6630   20.4650 N   0  0  0  0  0  0  0  0  0  0  0  0
  -25.7990  -16.4000   20.5760 H   0  0  0  0  0  0  0  0  0  0  0  0
  -27.3780  -15.9930   20.1170 H   0  0  0  0  0  0  0  0  0  0  0  0
  1  5  1  0
  2  1  2  0
  3  6  2  0
  3  2  1  0
  4 13  1  0
  4  5  2  0
  6  4  1  0
  7  8  1  1
  7  3  1  0
  9  7  1  0
 10  7  1  0
 13 11  1  6
 13 12  1  0
 14 13  1  0
 15 16  1  0
 15 14  1  0
 17 19  1  0
 17 16  1  0
 18 29  2  0
 19 24  1  0
 20 28  1  0
 20 30  1  0
 21 27  1  0
 21 23  1  0
 22 28  1  0
 23 22  1  0
 24 23  2  0
 25 26  1  0
 25 19  2  0
 26 21  2  0
 27 20  1  0
 28 18  1  0
 30 32  2  0
 31 30  1  0
 33 31  1  0
 34 43  2  0
 34 39  1  0
 35 31  1  0
 35 39  1  0
 36 35  1  0
 37 38  1  0
 37 36  1  0
 38 34  1  0
 39 40  2  0
 40 41  1  0
 42 41  2  0
 43 42  1  0
 44 18  1  0
 44 45  1  0
 44 54  1  0
 45 48  1  0
 46 50  1  0
 46 45  1  0
 47 46  2  0
 50 49  1  0
 50 52  1  0
 52 53  1  0
 52 51  1  0
 54 57  1  1
 54 55  1  0
 56 54  1  0
 58  2  1  0
 58 67  1  0
 59 67  1  0
 60 65  1  0
 61 62  1  0
 61 60  1  0
 63 62  1  0
 63 72  1  0
 63 64  1  0
 65 59  1  0
 65 64  1  0
 66 59  2  0
 67 68  1  0
 69 70  2  0
 70 89  1  0
 71 74  1  0
 71 70  1  0
 72 73  1  0
 72 69  1  0
 73 71  2  0
 74 75  1  0
 75 76  2  0
 77 76  1  0
 78 77  2  0
 79 78  1  0
 79 74  2  0
 80 77  1  0
 80 81  1  0
 81 82  1  0
 82 83  2  0
 84 83  1  0
 84 88  1  0
 85 84  2  0
 86 81  2  0
 86 85  1  0
 87 86  1  0
 89 90  1  0
 90 93  1  0
 90 92  1  0
 91 89  2  0
 94 69  1  0
 94 95  1  0
 96 94  1  0
M  ISO  4  16 101  17 101  59 100  67 100
M  END
>  <TORSDO>  (24) 
F 22

>  <SCORE>  (24) 
-9.105

>  <name>  (24) 
25

>  <ligand_id>  (24) 
25

>  <original_smiles>  (24) 
[H]c1nc(C(C([H])([H])[H])(C([H])([H])[H])C([H])([H])C([H])([H])C([H])([H])Oc2c([H])c([H])c3c(c2[H])C([H])([H])N(C(=O)C([H])(N([H])C(=O)C([H])(N([H])C([H])([H])[H])C([H])([H])[H])C(C([H])([H])[H])(C([H])([H])[H])C([H])([H])[H])C([H])(C(=O)N([H])C2([H])c4c([H])c([H])c([H])c([H])c4C([H])([H])C([H])([H])C2([H])[H])C3([H])[H])nc(C(F)(F)F)c1C([H])([H])N([H])C(=O)N1C([H])([H])C([H])([H])C([H])([H])C([H])(n2nc(-c3c([H])c([H])c(Oc4c([H])c([H])c(F)c([H])c4F)c([H])c3[H])c(C(=O)N([H])[H])c2N([H])[H])C1([H])[H]

>  <smiles>  (24) 
[H]c1nc(C(C([H])([H])[H])(C([H])([H])[H])C([H])([H])C([H])([H])C([H])([H])Oc2c([H])c([H])c3c(c2[H])C([H])([H])N(C(=O)C([H])(N([H])C(=O)C([H])(N([H])C([H])([H])[H])C([H])([H])[H])C(C([H])([H])[H])(C([H])([H])[H])C([H])([H])[H])C([H])(C(=O)N([H])C2([H])c4c([H])c([H])c([H])c([H])c4C([H])([H])C([H])([H])C2([H])[H])C3([H])[H])nc(C(F)(F)F)c1C([H])([H])N([H])C(=O)N1C([H])([H])C([H])([H])C([H])([H])C([H])(n2nc(-c3c([H])c([H])c(Oc4c([H])c([H])c(F)c([H])c4F)c([H])c3[H])c(C(=O)N([H])[H])c2N([H])[H])C1([H])[H]

$$$$
26:0:0
     RDKit          3D

 89 97  0  0  1  0  0  0  0  0999 V2000
  -28.7130  -21.9460   21.7020 C   0  0  0  0  0  3  0  0  0  0  0  0
  -29.3580  -20.2100   20.5060 C   0  0  0  0  0  0  0  0  0  0  0  0
  -29.6090  -21.4250   19.8470 C   0  0  0  0  0  0  0  0  0  0  0  0
  -28.7590  -20.5960   21.7140 N   0  0  0  0  0  0  0  0  0  0  0  0
  -29.1940  -22.5540   20.5990 N   0  0  0  0  0  0  0  0  0  0  0  0
  -30.1480  -21.5300   18.6090 F   0  0  0  0  0  0  0  0  0  0  0  0
  -29.3810  -18.7220   19.9870 C   0  0  0  0  0  3  0  0  0  0  0  0
  -30.1440  -17.4600   20.6870 C   0  0  0  0  0  3  0  0  0  0  0  0
  -30.6990  -14.8970   20.3170 C   0  0  0  0  0  0  0  0  0  0  0  0
  -30.5470  -12.5700   19.4120 C   0  0  0  0  0  2  0  0  0  0  0  0
  -29.6250  -12.5100   18.1730 C   0  0  0  0  0  2  0  0  0  0  0  0
  -28.1350  -12.4140   18.5800 C   0  0  0  0  0  2  0  0  0  0  0  0
  -27.7320  -13.3330   19.7660 C   0  0  0  0  0  3  0  0  0  0  0  0
  -28.7860  -13.3250   20.8930 C   0  0  0  0  0  2  0  0  0  0  0  0
  -30.0760  -13.6680   20.2830 N   0  0  0  0  0  0  0  0  0  0  0  0
  -31.9290  -14.9650   20.2220 O   0  0  0  0  0  0  0  0  0  0  0  0
  -29.3810  -16.1630   18.7470 C   0  0  0  0  0  1  0  0  0  0  0  0
  -29.9220  -16.0450   20.1110 N   0  0  0  0  0  0  0  0  0  0  0  0
  -25.3370  -13.9240   20.4640 C   0  0  0  0  0  0  0  0  0  0  0  0
  -24.2700  -13.1480   20.8230 C   0  0  0  0  0  0  0  0  0  0  0  0
  -24.7450  -11.8000   20.8200 C   0  0  0  0  0  0  0  0  0  0  0  0
  -26.3890  -13.0460   20.2550 N   0  0  0  0  0  0  0  0  0  0  0  0
  -26.0410  -11.7670   20.5380 N   0  0  0  0  0  0  0  0  0  0  0  0
  -24.0270  -10.5340   21.0110 C   0  0  0  0  0  0  0  0  0  0  0  0
  -24.4560   -9.5810   21.9610 C   0  0  0  0  0  3  0  0  0  0  0  0
  -23.7390   -8.3780   22.1400 C   0  0  0  0  0  3  0  0  0  0  0  0
  -22.5790   -8.1220   21.3690 C   0  0  0  0  0  0  0  0  0  0  0  0
  -22.1710   -9.0640   20.4090 C   0  0  0  0  0  3  0  0  0  0  0  0
  -22.8890  -10.2590   20.2280 C   0  0  0  0  0  3  0  0  0  0  0  0
  -21.8340   -6.9720   21.4580 O   0  0  0  0  0  0  0  0  0  0  0  0
  -21.7750   -6.2400   22.6170 C   0  0  0  0  0  0  0  0  0  0  0  0
  -21.3060   -6.7980   23.8270 C   0  0  0  0  0  3  0  0  0  0  0  0
  -21.1960   -5.9920   24.9770 C   0  0  0  0  0  3  0  0  0  0  0  0
  -21.5450   -4.6290   24.9180 C   0  0  0  0  0  0  0  0  0  0  0  0
  -22.0070   -4.0710   23.7140 C   0  0  0  0  0  3  0  0  0  0  0  0
  -22.1190   -4.8750   22.5650 C   0  0  0  0  0  0  0  0  0  0  0  0
  -22.5440   -4.3280   21.4020 F   0  0  0  0  0  0  0  0  0  0  0  0
  -21.4320   -3.8520   26.0220 F   0  0  0  0  0  0  0  0  0  0  0  0
  -22.8640  -13.6170   21.0610 C   0  0  0  0  0  0  0  0  0  0  0  0
  -22.1250  -12.9240   21.9200 N   0  0  0  0  0  0  0  0  0  0  0  0
  -22.4290  -14.6330   20.5210 O   0  0  0  0  0  0  0  0  0  0  0  0
  -22.4900  -12.1020   22.3780 H   0  0  0  0  0  0  0  0  0  0  0  0
  -21.1810  -13.2190   22.1220 H   0  0  0  0  0  0  0  0  0  0  0  0
  -25.4960  -15.2940   20.2730 N   0  0  0  0  0  0  0  0  0  0  0  0
  -24.7280  -15.9490   20.3730 H   0  0  0  0  0  0  0  0  0  0  0  0
  -26.3630  -15.7360   19.9940 H   0  0  0  0  0  0  0  0  0  0  0  0
  -29.3710  -24.0430   20.3350 C   0  0  0  0  0  3  0  0  0  0  0  0
  -28.1120  -25.0340   20.2550 C   0  0  0  0  0  3  0  0  0  0  0  0
  -28.3280  -26.5180   20.2010 O   0  0  0  0  0  0  0  0  0  0  0  0
  -24.6040  -31.9520   23.2280 C   0  0  0  0  0  0  0  0  0  0  0  0
  -27.2080  -27.3780   20.1630 C   0  0  0  0  0  0  0  0  0  0  0  0
  -23.3930  -30.5450   21.6010 C   0  0  0  0  0  3  0  0  0  0  0  0
  -24.8370  -29.0000   20.1640 C   0  0  0  0  0  0  0  0  0  0  0  0
  -25.9310  -30.8720   21.3940 C   0  0  0  0  0  2  0  0  0  0  0  0
  -26.0120  -29.4910   20.7480 C   0  0  0  0  0  0  0  0  0  0  0  0
  -27.2000  -28.6940   20.7310 C   0  0  0  0  0  3  0  0  0  0  0  0
  -26.0060  -26.9490   19.5530 C   0  0  0  0  0  3  0  0  0  0  0  0
  -24.8390  -27.7360   19.5560 C   0  0  0  0  0  3  0  0  0  0  0  0
  -23.5980  -29.8700   20.2200 C   0  0  0  0  0  2  0  0  0  0  0  0
  -24.6620  -31.1410   22.1300 N   0  0  0  0  0  0  0  0  0  0  0  0
  -23.5250  -32.2250   23.7710 O   0  0  0  0  0  0  0  0  0  0  0  0
  -22.7440  -29.5270   22.5700 C   0  0  0  0  0  0  0  0  0  0  0  0
  -21.4210  -29.3290   22.4430 N   0  0  0  0  0  0  0  0  0  0  0  0
  -23.4300  -28.9190   23.3950 O   0  0  0  0  0  0  0  0  0  0  0  0
  -20.9250  -29.8730   21.7510 H   0  0  0  0  0  0  0  0  0  0  0  0
  -18.0620  -28.0780   22.9440 C   0  0  0  0  0  0  0  0  0  0  0  0
  -20.6150  -28.3860   23.2210 C   0  0  0  0  0  3  0  0  0  0  0  0
  -20.7440  -26.9500   22.6640 C   0  0  0  0  0  2  0  0  0  0  0  0
  -19.6540  -26.5950   21.6480 C   0  0  0  0  0  2  0  0  0  0  0  0
  -18.2660  -26.7240   22.2850 C   0  0  0  0  0  2  0  0  0  0  0  0
  -19.1640  -28.8650   23.3690 C   0  0  0  0  0  0  0  0  0  0  0  0
  -18.9210  -30.1300   23.9450 C   0  0  0  0  0  3  0  0  0  0  0  0
  -17.6060  -30.6090   24.1000 C   0  0  0  0  0  3  0  0  0  0  0  0
  -16.5180  -29.8190   23.6900 C   0  0  0  0  0  3  0  0  0  0  0  0
  -16.7470  -28.5550   23.1170 C   0  0  0  0  0  3  0  0  0  0  0  0
  -25.8890  -32.5930   23.8370 C   0  0  0  0  0  3  0  0  0  0  0  0
  -26.4150  -31.8320   25.1160 C   0  0  1  0  0  0  0  0  0  0  0  0
  -25.3290  -31.5980   26.1910 C   0  0  0  0  0  1  0  0  0  0  0  0
  -27.0010  -30.4540   24.7310 C   0  0  0  0  0  1  0  0  0  0  0  0
  -27.5660  -32.6360   25.7660 C   0  0  0  0  0  1  0  0  0  0  0  0
  -25.5760  -33.9920   24.1600 N   0  0  0  0  0  0  0  0  0  0  0  0
  -25.9070  -35.0430   23.3970 C   0  0  0  0  0  0  0  0  0  0  0  0
  -26.5760  -34.9370   22.3660 O   0  0  0  0  0  0  0  0  0  0  0  0
  -24.9830  -34.1490   24.9620 H   0  0  0  0  0  0  0  0  0  0  0  0
  -24.1850  -36.8410   23.0280 C   0  0  0  0  0  1  0  0  0  0  0  0
  -25.4190  -36.4330   23.8510 C   0  0  0  0  0  3  0  0  0  0  0  0
  -27.5450  -37.3170   24.7020 C   0  0  0  0  0  1  0  0  0  0  0  0
  -26.4540  -37.4840   23.7460 N   0  0  0  0  0  0  0  0  0  0  0  0
  -26.0490  -38.4060   23.8850 H   0  0  0  0  0  0  0  0  0  0  0  0
  1  4  2  0
  2  4  1  0
  3  2  2  0
  3  5  1  0
  5  1  1  0
  6  3  1  0
  7  2  1  0
  7  8  2  0
 10 15  1  0
 11 12  1  0
 11 10  1  0
 13 12  1  0
 13 22  1  0
 13 14  1  0
 15  9  1  0
 15 14  1  0
 16  9  2  0
 17 18  1  0
 18  9  1  0
 18  8  1  0
 19 20  2  0
 20 39  1  0
 21 20  1  0
 21 24  1  0
 22 19  1  0
 22 23  1  0
 23 21  2  0
 24 25  1  0
 25 26  2  0
 27 30  1  0
 27 26  1  0
 28 27  2  0
 29 28  1  0
 29 24  2  0
 30 31  1  0
 31 32  1  0
 32 33  2  0
 34 33  1  0
 34 38  1  0
 35 34  2  0
 36 31  2  0
 36 35  1  0
 37 36  1  0
 39 40  1  0
 40 43  1  0
 40 42  1  0
 41 39  2  0
 44 45  1  0
 44 19  1  0
 46 44  1  0
 47  5  1  0
 48 47  2  0
 49 48  1  0
 50 61  2  0
 51 49  1  0
 51 56  1  0
 52 60  1  0
 52 62  1  0
 53 59  1  0
 53 55  1  0
 54 60  1  0
 55 54  1  0
 56 55  2  0
 57 58  1  0
 57 51  2  0
 58 53  2  0
 59 52  1  0
 60 50  1  0
 62 64  2  0
 63 62  1  0
 65 63  1  0
 66 75  2  0
 66 71  1  0
 67 63  1  0
 67 71  1  0
 68 67  1  0
 69 70  1  0
 69 68  1  0
 70 66  1  0
 71 72  2  0
 72 73  1  0
 74 73  2  0
 75 74  1  0
 76 50  1  0
 76 81  1  0
 76 77  1  0
 77 80  1  1
 77 78  1  0
 79 77  1  0
 81 84  1  0
 82 86  1  0
 82 81  1  0
 83 82  2  0
 86 85  1  0
 88 86  1  0
 88 89  1  0
 88 87  1  0
M  ISO  4   9 100  18 100  48 101  49 101
M  END
>  <TORSDO>  (25) 
F 20

>  <SCORE>  (25) 
-13.241

>  <name>  (25) 
26

>  <ligand_id>  (25) 
26

>  <original_smiles>  (25) 
[H]c1c([H])c([H])c2c(c1[H])C([H])([H])C([H])([H])C([H])([H])C2([H])N([H])C(=O)C1([H])N(C(=O)C([H])(N([H])C(=O)C([H])(N([H])C([H])([H])[H])C([H])([H])[H])C(C([H])([H])[H])(C([H])([H])[H])C([H])([H])[H])C([H])([H])c2c([H])c(OC([H])([H])C([H])([H])n3c([H])nc(C([H])([H])C([H])([H])N(C(=O)N4C([H])([H])C([H])([H])C([H])([H])C([H])(n5nc(-c6c([H])c([H])c(Oc7c([H])c([H])c(F)c([H])c7F)c([H])c6[H])c(C(=O)N([H])[H])c5N([H])[H])C4([H])[H])C([H])([H])[H])c3F)c([H])c([H])c2C1([H])[H]

>  <smiles>  (25) 
[H]c1c([H])c([H])c2c(c1[H])C([H])([H])C([H])([H])C([H])([H])C2([H])N([H])C(=O)C1([H])N(C(=O)C([H])(N([H])C(=O)C([H])(N([H])C([H])([H])[H])C([H])([H])[H])C(C([H])([H])[H])(C([H])([H])[H])C([H])([H])[H])C([H])([H])c2c([H])c(OC([H])([H])C([H])([H])n3c([H])nc(C([H])([H])C([H])([H])N(C(=O)N4C([H])([H])C([H])([H])C([H])([H])C([H])(n5nc(-c6c([H])c([H])c(Oc7c([H])c([H])c(F)c([H])c7F)c([H])c6[H])c(C(=O)N([H])[H])c5N([H])[H])C4([H])[H])C([H])([H])[H])c3F)c([H])c([H])c2C1([H])[H]

$$$$
27:0:0
     RDKit          3D

 91 99  0  0  1  0  0  0  0  0999 V2000
  -30.0690  -21.2940   20.6990 C   0  0  0  0  0  0  0  0  0  0  0  0
  -31.0250  -21.8670   21.4350 N   0  0  0  0  0  0  0  0  0  0  0  0
  -31.8450  -20.8560   21.8420 N   0  0  0  0  0  0  0  0  0  0  0  0
  -31.4460  -19.7240   21.3720 N   0  0  0  0  0  0  0  0  0  0  0  0
  -30.3200  -19.9160   20.6160 N   0  0  0  0  0  0  0  0  0  0  0  0
  -28.2740  -18.4750   20.3990 C   0  0  0  0  0  1  0  0  0  0  0  0
  -29.8290  -18.7460   18.4450 C   0  0  0  0  0  1  0  0  0  0  0  0
  -29.7540  -18.6350   19.9830 C   0  0  1  0  0  0  0  0  0  0  0  0
  -30.5640  -17.2860   20.4330 C   0  0  0  0  0  2  0  0  0  0  0  0
  -30.7340  -14.7420   19.9640 C   0  0  0  0  0  0  0  0  0  0  0  0
  -30.4170  -12.4820   18.9540 C   0  0  0  0  0  2  0  0  0  0  0  0
  -29.4130  -12.5790   17.7840 C   0  0  0  0  0  2  0  0  0  0  0  0
  -27.9740  -12.4320   18.3120 C   0  0  0  0  0  2  0  0  0  0  0  0
  -27.6860  -13.3460   19.5340 C   0  0  0  0  0  3  0  0  0  0  0  0
  -28.7990  -13.2330   20.5960 C   0  0  0  0  0  2  0  0  0  0  0  0
  -30.0670  -13.5420   19.9240 N   0  0  0  0  0  0  0  0  0  0  0  0
  -31.9050  -14.8170   19.5830 O   0  0  0  0  0  0  0  0  0  0  0  0
  -30.0140  -15.8800   20.2590 N   0  0  0  0  0  0  0  0  0  0  0  0
  -29.0380  -15.7380   20.4760 H   0  0  0  0  0  0  0  0  0  0  0  0
  -25.3630  -13.9900   20.4110 C   0  0  0  0  0  0  0  0  0  0  0  0
  -24.2990  -13.2380   20.8240 C   0  0  0  0  0  0  0  0  0  0  0  0
  -24.7210  -11.8750   20.7410 C   0  0  0  0  0  0  0  0  0  0  0  0
  -26.3660  -13.0890   20.0970 N   0  0  0  0  0  0  0  0  0  0  0  0
  -25.9910  -11.8110   20.3590 N   0  0  0  0  0  0  0  0  0  0  0  0
  -23.9720  -10.6290   20.9450 C   0  0  0  0  0  0  0  0  0  0  0  0
  -24.4150   -9.6410   21.8510 C   0  0  0  0  0  3  0  0  0  0  0  0
  -23.6670   -8.4590   22.0400 C   0  0  0  0  0  3  0  0  0  0  0  0
  -22.4620   -8.2590   21.3250 C   0  0  0  0  0  0  0  0  0  0  0  0
  -22.0410   -9.2370   20.4050 C   0  0  0  0  0  3  0  0  0  0  0  0
  -22.7900  -10.4090   20.2120 C   0  0  0  0  0  3  0  0  0  0  0  0
  -21.6830   -7.1320   21.4270 O   0  0  0  0  0  0  0  0  0  0  0  0
  -21.6430   -6.3880   22.5780 C   0  0  0  0  0  0  0  0  0  0  0  0
  -21.2340   -6.9440   23.8110 C   0  0  0  0  0  3  0  0  0  0  0  0
  -21.1340   -6.1300   24.9550 C   0  0  0  0  0  3  0  0  0  0  0  0
  -21.4400   -4.7570   24.8690 C   0  0  0  0  0  0  0  0  0  0  0  0
  -21.8460   -4.2000   23.6430 C   0  0  0  0  0  3  0  0  0  0  0  0
  -21.9450   -5.0120   22.5000 C   0  0  0  0  0  0  0  0  0  0  0  0
  -22.3150   -4.4660   21.3170 F   0  0  0  0  0  0  0  0  0  0  0  0
  -21.3400   -3.9720   25.9660 F   0  0  0  0  0  0  0  0  0  0  0  0
  -22.9310  -13.7450   21.1770 C   0  0  0  0  0  0  0  0  0  0  0  0
  -22.2350  -13.0520   22.0680 N   0  0  0  0  0  0  0  0  0  0  0  0
  -22.4920  -14.7890   20.6980 O   0  0  0  0  0  0  0  0  0  0  0  0
  -22.6100  -12.2040   22.4680 H   0  0  0  0  0  0  0  0  0  0  0  0
  -21.3170  -13.3690   22.3440 H   0  0  0  0  0  0  0  0  0  0  0  0
  -25.5530  -15.3600   20.2520 N   0  0  0  0  0  0  0  0  0  0  0  0
  -24.8060  -16.0240   20.4220 H   0  0  0  0  0  0  0  0  0  0  0  0
  -26.3550  -15.7740   19.7960 H   0  0  0  0  0  0  0  0  0  0  0  0
  -28.9810  -22.2420   20.1000 C   0  0  0  0  0  2  0  0  0  0  0  0
  -29.0920  -23.8180   20.5070 C   0  0  0  0  0  3  0  0  0  0  0  0
  -28.0710  -24.9310   19.9610 C   0  0  0  0  0  3  0  0  0  0  0  0
  -28.2910  -26.3920   20.2440 O   0  0  0  0  0  0  0  0  0  0  0  0
  -24.5940  -31.8810   23.2220 C   0  0  0  0  0  0  0  0  0  0  0  0
  -27.1930  -27.2810   20.1710 C   0  0  0  0  0  0  0  0  0  0  0  0
  -23.3860  -30.4740   21.5950 C   0  0  0  0  0  3  0  0  0  0  0  0
  -24.8360  -28.9200   20.1640 C   0  0  0  0  0  0  0  0  0  0  0  0
  -25.9280  -30.7890   21.3980 C   0  0  0  0  0  2  0  0  0  0  0  0
  -26.0090  -29.4030   20.7570 C   0  0  0  0  0  0  0  0  0  0  0  0
  -27.1910  -28.5940   20.7520 C   0  0  0  0  0  3  0  0  0  0  0  0
  -25.9960  -26.8720   19.5410 C   0  0  0  0  0  3  0  0  0  0  0  0
  -24.8330  -27.6640   19.5450 C   0  0  0  0  0  3  0  0  0  0  0  0
  -23.5940  -29.7900   20.2180 C   0  0  0  0  0  2  0  0  0  0  0  0
  -24.6560  -31.0650   22.1280 N   0  0  0  0  0  0  0  0  0  0  0  0
  -23.5120  -32.1590   23.7590 O   0  0  0  0  0  0  0  0  0  0  0  0
  -22.7310  -29.4600   22.5620 C   0  0  0  0  0  0  0  0  0  0  0  0
  -21.4060  -29.2760   22.4390 N   0  0  0  0  0  0  0  0  0  0  0  0
  -23.4130  -28.8380   23.3800 O   0  0  0  0  0  0  0  0  0  0  0  0
  -20.9100  -29.8280   21.7530 H   0  0  0  0  0  0  0  0  0  0  0  0
  -18.0340  -28.0760   22.9670 C   0  0  0  0  0  0  0  0  0  0  0  0
  -20.5950  -28.3360   23.2150 C   0  0  0  0  0  3  0  0  0  0  0  0
  -20.6910  -26.9050   22.6380 C   0  0  0  0  0  2  0  0  0  0  0  0
  -19.5820  -26.5820   21.6330 C   0  0  0  0  0  2  0  0  0  0  0  0
  -18.2050  -26.7260   22.2880 C   0  0  0  0  0  2  0  0  0  0  0  0
  -19.1560  -28.8380   23.3880 C   0  0  0  0  0  0  0  0  0  0  0  0
  -18.9410  -30.1010   23.9800 C   0  0  0  0  0  3  0  0  0  0  0  0
  -17.6390  -30.6030   24.1560 C   0  0  0  0  0  3  0  0  0  0  0  0
  -16.5300  -29.8380   23.7520 C   0  0  0  0  0  3  0  0  0  0  0  0
  -16.7290  -28.5770   23.1620 C   0  0  0  0  0  3  0  0  0  0  0  0
  -25.8790  -32.5210   23.8350 C   0  0  0  0  0  3  0  0  0  0  0  0
  -25.5690  -33.9220   24.1530 N   0  0  0  0  0  0  0  0  0  0  0  0
  -25.8970  -34.9670   23.3820 C   0  0  0  0  0  0  0  0  0  0  0  0
  -26.5610  -34.8540   22.3470 O   0  0  0  0  0  0  0  0  0  0  0  0
  -24.9780  -34.0840   24.9540 H   0  0  0  0  0  0  0  0  0  0  0  0
  -24.1670  -36.7580   23.0200 C   0  0  0  0  0  1  0  0  0  0  0  0
  -25.4100  -36.3600   23.8290 C   0  0  0  0  0  3  0  0  0  0  0  0
  -27.5420  -37.2580   24.6490 C   0  0  0  0  0  1  0  0  0  0  0  0
  -26.4400  -37.4130   23.7030 N   0  0  0  0  0  0  0  0  0  0  0  0
  -26.0330  -38.3340   23.8400 H   0  0  0  0  0  0  0  0  0  0  0  0
  -26.3950  -31.7610   25.1180 C   0  0  1  0  0  0  0  0  0  0  0  0
  -25.2990  -31.5250   26.1850 C   0  0  0  0  0  1  0  0  0  0  0  0
  -26.9840  -30.3820   24.7400 C   0  0  0  0  0  1  0  0  0  0  0  0
  -27.5420  -32.5650   25.7770 C   0  0  0  0  0  1  0  0  0  0  0  0
  1  2  2  0
  2  3  1  0
  4  3  2  0
  5  1  1  0
  5  4  1  0
  8  7  1  6
  8  6  1  0
  8  9  1  0
  8  5  1  0
 10 18  1  0
 11 16  1  0
 12 13  1  0
 12 11  1  0
 14 13  1  0
 14 23  1  0
 14 15  1  0
 16 10  1  0
 16 15  1  0
 17 10  2  0
 18  9  1  0
 18 19  1  0
 20 21  2  0
 21 40  1  0
 22 21  1  0
 22 25  1  0
 23 24  1  0
 23 20  1  0
 24 22  2  0
 25 26  1  0
 26 27  2  0
 28 31  1  0
 28 27  1  0
 29 28  2  0
 30 29  1  0
 30 25  2  0
 31 32  1  0
 32 33  1  0
 33 34  2  0
 35 34  1  0
 35 39  1  0
 36 35  2  0
 37 32  2  0
 37 36  1  0
 38 37  1  0
 40 41  1  0
 41 44  1  0
 41 43  1  0
 42 40  2  0
 45 20  1  0
 45 46  1  0
 47 45  1  0
 48 49  1  0
 48  1  1  0
 50 51  1  0
 50 49  2  0
 52 63  2  0
 53 51  1  0
 53 58  1  0
 54 62  1  0
 54 64  1  0
 55 61  1  0
 55 57  1  0
 56 62  1  0
 57 56  1  0
 58 57  2  0
 59 60  1  0
 59 53  2  0
 60 55  2  0
 61 54  1  0
 62 52  1  0
 64 66  2  0
 65 64  1  0
 67 65  1  0
 68 77  2  0
 68 73  1  0
 69 65  1  0
 69 73  1  0
 70 69  1  0
 71 72  1  0
 71 70  1  0
 72 68  1  0
 73 74  2  0
 74 75  1  0
 76 75  2  0
 77 76  1  0
 78 52  1  0
 78 79  1  0
 78 88  1  0
 79 82  1  0
 80 84  1  0
 80 79  1  0
 81 80  2  0
 84 83  1  0
 86 84  1  0
 86 87  1  0
 86 85  1  0
 88 91  1  1
 88 89  1  0
 90 88  1  0
M  ISO  4  10 100  18 100  50 101  51 101
M  END
>  <TORSDO>  (26) 
F 21

>  <SCORE>  (26) 
-13.554

>  <name>  (26) 
27

>  <ligand_id>  (26) 
27

>  <original_smiles>  (26) 
[H]c1c([H])c([H])c2c(c1[H])C([H])([H])C([H])([H])C([H])([H])C2([H])N([H])C(=O)C1([H])N(C(=O)C([H])(N([H])C(=O)C([H])(N([H])C([H])([H])[H])C([H])([H])[H])C(C([H])([H])[H])(C([H])([H])[H])C([H])([H])[H])C([H])([H])c2c([H])c(OC([H])([H])C([H])([H])C([H])([H])c3nnnn3C(C([H])([H])[H])(C([H])([H])[H])C([H])([H])N([H])C(=O)N3C([H])([H])C([H])([H])C([H])([H])C([H])(n4nc(-c5c([H])c([H])c(Oc6c([H])c([H])c(F)c([H])c6F)c([H])c5[H])c(C(=O)N([H])[H])c4N([H])[H])C3([H])[H])c([H])c([H])c2C1([H])[H]

>  <smiles>  (26) 
[H]c1c([H])c([H])c2c(c1[H])C([H])([H])C([H])([H])C([H])([H])C2([H])N([H])C(=O)C1([H])N(C(=O)C([H])(N([H])C(=O)C([H])(N([H])C([H])([H])[H])C([H])([H])[H])C(C([H])([H])[H])(C([H])([H])[H])C([H])([H])[H])C([H])([H])c2c([H])c(OC([H])([H])C([H])([H])C([H])([H])c3nnnn3C(C([H])([H])[H])(C([H])([H])[H])C([H])([H])N([H])C(=O)N3C([H])([H])C([H])([H])C([H])([H])C([H])(n4nc(-c5c([H])c([H])c(Oc6c([H])c([H])c(F)c([H])c6F)c([H])c5[H])c(C(=O)N([H])[H])c4N([H])[H])C3([H])[H])c([H])c([H])c2C1([H])[H]

$$$$
28:0:0
     RDKit          3D

 91 99  0  0  1  0  0  0  0  0999 V2000
  -29.9730  -21.3060   19.9940 C   0  0  0  0  0  2  0  0  0  0  0  0
  -29.1340  -22.1670   20.9650 C   0  0  0  0  0  2  0  0  0  0  0  0
  -29.7790  -23.5200   21.3510 C   0  0  0  0  0  2  0  0  0  0  0  0
  -29.8370  -24.5610   20.2110 C   0  0  0  0  0  2  0  0  0  0  0  0
  -28.4790  -25.2220   19.8920 C   0  0  0  0  0  2  0  0  0  0  0  0
  -28.5010  -26.6090   20.2340 O   0  0  0  0  0  0  0  0  0  0  0  0
  -24.6470  -31.7760   23.2160 C   0  0  0  0  0  0  0  0  0  0  0  0
  -27.3090  -27.3060   20.1970 C   0  0  0  0  0  0  0  0  0  0  0  0
  -23.4480  -30.3550   21.5830 C   0  0  0  0  0  3  0  0  0  0  0  0
  -24.9080  -28.8040   20.1850 C   0  0  0  0  0  0  0  0  0  0  0  0
  -25.9740  -30.7140   21.3940 C   0  0  0  0  0  2  0  0  0  0  0  0
  -26.0630  -29.3370   20.7710 C   0  0  0  0  0  0  0  0  0  0  0  0
  -27.2640  -28.5950   20.7750 C   0  0  0  0  0  3  0  0  0  0  0  0
  -26.1330  -26.7870   19.6040 C   0  0  0  0  0  3  0  0  0  0  0  0
  -24.9380  -27.5270   19.6010 C   0  0  0  0  0  3  0  0  0  0  0  0
  -23.6640  -29.6620   20.2120 C   0  0  0  0  0  2  0  0  0  0  0  0
  -24.7070  -30.9640   22.1230 N   0  0  0  0  0  0  0  0  0  0  0  0
  -23.5640  -32.0530   23.7490 O   0  0  0  0  0  0  0  0  0  0  0  0
  -22.7950  -29.3440   22.5520 C   0  0  0  0  0  0  0  0  0  0  0  0
  -21.4730  -29.1500   22.4110 N   0  0  0  0  0  0  0  0  0  0  0  0
  -23.4730  -28.7360   23.3840 O   0  0  0  0  0  0  0  0  0  0  0  0
  -20.9870  -29.6920   21.7110 H   0  0  0  0  0  0  0  0  0  0  0  0
  -18.1080  -27.9200   22.8650 C   0  0  0  0  0  0  0  0  0  0  0  0
  -20.6540  -28.2200   23.1880 C   0  0  0  0  0  3  0  0  0  0  0  0
  -20.7890  -26.7770   22.6490 C   0  0  0  0  0  2  0  0  0  0  0  0
  -19.7150  -26.4140   21.6180 C   0  0  0  0  0  2  0  0  0  0  0  0
  -18.3170  -26.5570   22.2280 C   0  0  0  0  0  2  0  0  0  0  0  0
  -19.2060  -28.7070   23.3020 C   0  0  0  0  0  0  0  0  0  0  0  0
  -18.9580  -29.9820   23.8560 C   0  0  0  0  0  3  0  0  0  0  0  0
  -17.6440  -30.4710   23.9780 C   0  0  0  0  0  3  0  0  0  0  0  0
  -16.5600  -29.6820   23.5580 C   0  0  0  0  0  3  0  0  0  0  0  0
  -16.7920  -28.4080   23.0080 C   0  0  0  0  0  3  0  0  0  0  0  0
  -25.9320  -32.4130   23.8330 C   0  0  0  0  0  3  0  0  0  0  0  0
  -25.6130  -33.8050   24.1770 N   0  0  0  0  0  0  0  0  0  0  0  0
  -25.9290  -34.8660   23.4220 C   0  0  0  0  0  0  0  0  0  0  0  0
  -26.5930  -34.7780   22.3850 O   0  0  0  0  0  0  0  0  0  0  0  0
  -25.0240  -33.9490   24.9850 H   0  0  0  0  0  0  0  0  0  0  0  0
  -24.1750  -36.6380   23.0930 C   0  0  0  0  0  1  0  0  0  0  0  0
  -25.4290  -36.2450   23.8920 C   0  0  0  0  0  3  0  0  0  0  0  0
  -27.5610  -37.1510   24.7060 C   0  0  0  0  0  1  0  0  0  0  0  0
  -26.4480  -37.3110   23.7750 N   0  0  0  0  0  0  0  0  0  0  0  0
  -26.0320  -38.2260   23.9310 H   0  0  0  0  0  0  0  0  0  0  0  0
  -26.4680  -31.6340   25.0970 C   0  0  1  0  0  0  0  0  0  0  0  0
  -25.3870  -31.3760   26.1720 C   0  0  0  0  0  1  0  0  0  0  0  0
  -27.0600  -30.2670   24.6840 C   0  0  0  0  0  1  0  0  0  0  0  0
  -27.6150  -32.4320   25.7590 C   0  0  0  0  0  1  0  0  0  0  0  0
  -31.2400  -20.6640   20.6070 C   0  0  0  0  0  2  0  0  0  0  0  0
  -30.6890  -17.4830   21.8750 C   0  0  0  0  0  0  0  0  0  0  0  0
  -30.5540  -18.2070   23.0260 N   0  0  0  0  0  0  0  0  0  0  0  0
  -30.9420  -18.2240   20.8030 N   0  0  0  0  0  2  0  0  0  0  0  0
  -30.7340  -19.4470   22.6970 N   0  0  0  0  0  2  0  0  0  0  0  0
  -30.9670  -19.4520   21.3660 N   0  0  0  0  0  0  0  0  0  0  0  0
  -30.5360  -15.9930   21.8050 C   0  0  0  0  0  2  0  0  0  0  0  0
  -31.4370  -14.3960   20.1530 C   0  0  0  0  0  0  0  0  0  0  0  0
  -30.9390  -12.3220   18.9320 C   0  0  0  0  0  2  0  0  0  0  0  0
  -29.9830  -12.6600   17.7680 C   0  0  0  0  0  2  0  0  0  0  0  0
  -28.5150  -12.6220   18.2370 C   0  0  0  0  0  2  0  0  0  0  0  0
  -28.2800  -13.4220   19.5470 C   0  0  0  0  0  3  0  0  0  0  0  0
  -29.3450  -13.0630   20.6070 C   0  0  0  0  0  2  0  0  0  0  0  0
  -30.6710  -13.2830   20.0100 N   0  0  0  0  0  0  0  0  0  0  0  0
  -32.5720  -14.5020   19.6890 O   0  0  0  0  0  0  0  0  0  0  0  0
  -30.7630  -15.5100   20.4490 N   0  0  0  0  0  0  0  0  0  0  0  0
  -31.1430  -16.3010   19.9440 H   0  0  0  0  0  0  0  0  0  0  0  0
  -25.9460  -14.1820   20.3230 C   0  0  0  0  0  0  0  0  0  0  0  0
  -24.8360  -13.4760   20.7060 C   0  0  0  0  0  0  0  0  0  0  0  0
  -25.2030  -12.0970   20.6440 C   0  0  0  0  0  0  0  0  0  0  0  0
  -26.9230  -13.2360   20.0550 N   0  0  0  0  0  0  0  0  0  0  0  0
  -26.4810  -11.9760   20.3040 N   0  0  0  0  0  0  0  0  0  0  0  0
  -24.4000  -10.8830   20.8330 C   0  0  0  0  0  0  0  0  0  0  0  0
  -24.7800   -9.8810   21.7520 C   0  0  0  0  0  3  0  0  0  0  0  0
  -23.9810   -8.7300   21.9280 C   0  0  0  0  0  3  0  0  0  0  0  0
  -22.7870   -8.5740   21.1840 C   0  0  0  0  0  0  0  0  0  0  0  0
  -22.4250   -9.5650   20.2540 C   0  0  0  0  0  3  0  0  0  0  0  0
  -23.2250  -10.7060   20.0760 C   0  0  0  0  0  3  0  0  0  0  0  0
  -21.9610   -7.4790   21.2710 O   0  0  0  0  0  0  0  0  0  0  0  0
  -21.8630   -6.7430   22.4240 C   0  0  0  0  0  0  0  0  0  0  0  0
  -21.4920   -7.3290   23.6530 C   0  0  0  0  0  3  0  0  0  0  0  0
  -21.3340   -6.5230   24.7990 C   0  0  0  0  0  3  0  0  0  0  0  0
  -21.5370   -5.1320   24.7150 C   0  0  0  0  0  0  0  0  0  0  0  0
  -21.9010   -4.5470   23.4890 C   0  0  0  0  0  3  0  0  0  0  0  0
  -22.0610   -5.3500   22.3470 C   0  0  0  0  0  0  0  0  0  0  0  0
  -22.3910   -4.7770   21.1640 F   0  0  0  0  0  0  0  0  0  0  0  0
  -21.3770   -4.3570   25.8120 F   0  0  0  0  0  0  0  0  0  0  0  0
  -23.4810  -14.0410   21.0190 C   0  0  0  0  0  0  0  0  0  0  0  0
  -22.7390  -13.3950   21.9130 N   0  0  0  0  0  0  0  0  0  0  0  0
  -23.0900  -15.0890   20.5060 O   0  0  0  0  0  0  0  0  0  0  0  0
  -23.0680  -12.5470   22.3490 H   0  0  0  0  0  0  0  0  0  0  0  0
  -21.8300  -13.7560   22.1650 H   0  0  0  0  0  0  0  0  0  0  0  0
  -26.2010  -15.5400   20.1650 N   0  0  0  0  0  0  0  0  0  0  0  0
  -25.4870  -16.2470   20.3020 H   0  0  0  0  0  0  0  0  0  0  0  0
  -27.0790  -15.9220   19.8340 H   0  0  0  0  0  0  0  0  0  0  0  0
  1 47  1  0
  1  2  1  0
  2  3  1  0
  4  3  1  0
  5  4  1  0
  5  6  1  0
  7 18  2  0
  8  6  1  0
  8 13  1  0
  9 17  1  0
  9 19  1  0
 10 16  1  0
 10 12  1  0
 11 17  1  0
 12 13  2  0
 12 11  1  0
 14  8  2  0
 15 14  1  0
 15 10  2  0
 16  9  1  0
 17  7  1  0
 19 21  2  0
 20 19  1  0
 22 20  1  0
 23 32  2  0
 23 28  1  0
 24 20  1  0
 24 28  1  0
 25 24  1  0
 26 27  1  0
 26 25  1  0
 27 23  1  0
 28 29  2  0
 29 30  1  0
 31 30  2  0
 32 31  1  0
 33  7  1  0
 33 34  1  0
 33 43  1  0
 34 37  1  0
 35 39  1  0
 35 34  1  0
 36 35  2  0
 39 38  1  0
 41 39  1  0
 41 42  1  0
 41 40  1  0
 43 46  1  1
 43 44  1  0
 45 43  1  0
 47 52  1  0
 48 49  2  0
 50 52  1  0
 50 48  1  0
 51 49  1  0
 52 51  1  0
 53 48  1  0
 54 62  1  0
 55 60  1  0
 56 57  1  0
 56 55  1  0
 58 57  1  0
 58 67  1  0
 58 59  1  0
 60 54  1  0
 60 59  1  0
 61 54  2  0
 62 53  1  0
 63 62  1  0
 64 65  2  0
 65 84  1  0
 66 65  1  0
 66 69  1  0
 67 68  1  0
 67 64  1  0
 68 66  2  0
 69 70  1  0
 70 71  2  0
 72 75  1  0
 72 71  1  0
 73 72  2  0
 74 73  1  0
 74 69  2  0
 75 76  1  0
 76 77  1  0
 77 78  2  0
 79 78  1  0
 79 83  1  0
 80 79  2  0
 81 76  2  0
 81 80  1  0
 82 81  1  0
 84 85  1  0
 85 88  1  0
 85 87  1  0
 86 84  2  0
 89 90  1  0
 89 64  1  0
 91 89  1  0
M  ISO  4   5 101   6 101  54 100  62 100
M  END
>  <TORSDO>  (27) 
F 23

>  <SCORE>  (27) 
-11.871

>  <name>  (27) 
28

>  <ligand_id>  (27) 
28

>  <original_smiles>  (27) 
[H]c1c([H])c([H])c2c(c1[H])C([H])([H])C([H])([H])C([H])([H])C2([H])N([H])C(=O)C1([H])N(C(=O)C([H])(N([H])C(=O)C([H])(N([H])C([H])([H])[H])C([H])([H])[H])C(C([H])([H])[H])(C([H])([H])[H])C([H])([H])[H])C([H])([H])c2c([H])c(OC([H])([H])C([H])([H])C([H])([H])C([H])([H])C([H])([H])C([H])([H])n3nnc(C([H])([H])N([H])C(=O)N4C([H])([H])C([H])([H])C([H])([H])C([H])(n5nc(-c6c([H])c([H])c(Oc7c([H])c([H])c(F)c([H])c7F)c([H])c6[H])c(C(=O)N([H])[H])c5N([H])[H])C4([H])[H])n3)c([H])c([H])c2C1([H])[H]

>  <smiles>  (27) 
[H]c1c([H])c([H])c2c(c1[H])C([H])([H])C([H])([H])C([H])([H])C2([H])N([H])C(=O)C1([H])N(C(=O)C([H])(N([H])C(=O)C([H])(N([H])C([H])([H])[H])C([H])([H])[H])C(C([H])([H])[H])(C([H])([H])[H])C([H])([H])[H])C([H])([H])c2c([H])c(OC([H])([H])C([H])([H])C([H])([H])C([H])([H])C([H])([H])C([H])([H])n3nnc(C([H])([H])N([H])C(=O)N4C([H])([H])C([H])([H])C([H])([H])C([H])(n5nc(-c6c([H])c([H])c(Oc7c([H])c([H])c(F)c([H])c7F)c([H])c6[H])c(C(=O)N([H])[H])c5N([H])[H])C4([H])[H])n3)c([H])c([H])c2C1([H])[H]

$$$$
29:0:0
     RDKit          3D

 90 98  0  0  1  0  0  0  0  0999 V2000
  -29.2310  -21.1780   19.5240 C   0  0  0  0  0  3  0  0  0  0  0  0
  -29.2880  -20.5160   21.5600 C   0  0  0  0  0  3  0  0  0  0  0  0
  -29.1570  -22.3370   20.3190 C   0  0  0  0  0  0  0  0  0  0  0  0
  -29.2120  -21.8590   21.6350 N   0  0  0  0  0  0  0  0  0  0  0  0
  -29.3390  -19.9900   20.3200 N   0  0  0  0  0  0  0  0  0  0  0  0
  -27.8350  -18.0950   19.8330 C   0  0  0  0  0  1  0  0  0  0  0  0
  -29.9030  -18.3820   18.4820 C   0  0  0  0  0  1  0  0  0  0  0  0
  -29.3180  -18.5050   19.9010 C   0  0  1  0  0  0  0  0  0  0  0  0
  -30.1110  -17.4120   20.8050 C   0  0  0  0  0  2  0  0  0  0  0  0
  -30.6460  -14.8210   20.3950 C   0  0  0  0  0  0  0  0  0  0  0  0
  -30.5050  -12.5420   19.3740 C   0  0  0  0  0  2  0  0  0  0  0  0
  -29.5680  -12.5960   18.1470 C   0  0  0  0  0  2  0  0  0  0  0  0
  -28.0950  -12.4110   18.5660 C   0  0  0  0  0  2  0  0  0  0  0  0
  -27.7040  -13.2970   19.7780 C   0  0  0  0  0  3  0  0  0  0  0  0
  -28.7540  -13.2110   20.9060 C   0  0  0  0  0  2  0  0  0  0  0  0
  -30.0490  -13.5840   20.3210 N   0  0  0  0  0  0  0  0  0  0  0  0
  -31.8350  -14.9580   20.0940 O   0  0  0  0  0  0  0  0  0  0  0  0
  -29.8270  -15.9140   20.6270 N   0  0  0  0  0  0  0  0  0  0  0  0
  -28.8660  -15.6570   20.7890 H   0  0  0  0  0  0  0  0  0  0  0  0
  -25.3060  -13.8760   20.4870 C   0  0  0  0  0  0  0  0  0  0  0  0
  -24.2450  -13.0960   20.8560 C   0  0  0  0  0  0  0  0  0  0  0  0
  -24.7180  -11.7490   20.8360 C   0  0  0  0  0  0  0  0  0  0  0  0
  -26.3580  -13.0030   20.2600 N   0  0  0  0  0  0  0  0  0  0  0  0
  -26.0110  -11.7180   20.5350 N   0  0  0  0  0  0  0  0  0  0  0  0
  -23.9990  -10.4820   21.0270 C   0  0  0  0  0  0  0  0  0  0  0  0
  -24.4280   -9.5250   21.9740 C   0  0  0  0  0  3  0  0  0  0  0  0
  -23.7100   -8.3240   22.1530 C   0  0  0  0  0  3  0  0  0  0  0  0
  -22.5480   -8.0720   21.3860 C   0  0  0  0  0  0  0  0  0  0  0  0
  -22.1400   -9.0160   20.4270 C   0  0  0  0  0  3  0  0  0  0  0  0
  -22.8600  -10.2090   20.2460 C   0  0  0  0  0  3  0  0  0  0  0  0
  -21.8020   -6.9200   21.4720 O   0  0  0  0  0  0  0  0  0  0  0  0
  -21.7380   -6.1900   22.6320 C   0  0  0  0  0  0  0  0  0  0  0  0
  -21.2690   -6.7500   23.8400 C   0  0  0  0  0  3  0  0  0  0  0  0
  -21.1530   -5.9450   24.9910 C   0  0  0  0  0  3  0  0  0  0  0  0
  -21.4950   -4.5800   24.9330 C   0  0  0  0  0  0  0  0  0  0  0  0
  -21.9580   -4.0200   23.7300 C   0  0  0  0  0  3  0  0  0  0  0  0
  -22.0760   -4.8220   22.5810 C   0  0  0  0  0  0  0  0  0  0  0  0
  -22.5000   -4.2720   21.4190 F   0  0  0  0  0  0  0  0  0  0  0  0
  -21.3780   -3.8050   26.0360 F   0  0  0  0  0  0  0  0  0  0  0  0
  -22.8410  -13.5650   21.1120 C   0  0  0  0  0  0  0  0  0  0  0  0
  -22.1070  -12.8630   21.9690 N   0  0  0  0  0  0  0  0  0  0  0  0
  -22.4020  -14.5860   20.5860 O   0  0  0  0  0  0  0  0  0  0  0  0
  -22.4760  -12.0390   22.4180 H   0  0  0  0  0  0  0  0  0  0  0  0
  -21.1640  -13.1550   22.1790 H   0  0  0  0  0  0  0  0  0  0  0  0
  -25.4590  -15.2470   20.3030 N   0  0  0  0  0  0  0  0  0  0  0  0
  -24.6760  -15.8860   20.3950 H   0  0  0  0  0  0  0  0  0  0  0  0
  -26.2870  -15.6890   19.9260 H   0  0  0  0  0  0  0  0  0  0  0  0
  -29.2310  -23.8850   19.9540 C   0  0  0  0  0  3  0  0  0  0  0  0
  -28.1210  -24.9660   20.4070 C   0  0  0  0  0  3  0  0  0  0  0  0
  -28.3280  -26.4440   20.1590 O   0  0  0  0  0  0  0  0  0  0  0  0
  -24.6260  -31.9090   23.2210 C   0  0  0  0  0  0  0  0  0  0  0  0
  -27.2170  -27.3190   20.1500 C   0  0  0  0  0  0  0  0  0  0  0  0
  -23.4140  -30.5100   21.5910 C   0  0  0  0  0  3  0  0  0  0  0  0
  -24.8560  -28.9600   20.1530 C   0  0  0  0  0  0  0  0  0  0  0  0
  -25.9550  -30.8210   21.3940 C   0  0  0  0  0  2  0  0  0  0  0  0
  -26.0320  -29.4390   20.7440 C   0  0  0  0  0  0  0  0  0  0  0  0
  -27.2160  -28.6330   20.7290 C   0  0  0  0  0  3  0  0  0  0  0  0
  -26.0190  -26.9110   19.5220 C   0  0  0  0  0  3  0  0  0  0  0  0
  -24.8540  -27.7030   19.5300 C   0  0  0  0  0  3  0  0  0  0  0  0
  -23.6190  -29.8360   20.2090 C   0  0  0  0  0  2  0  0  0  0  0  0
  -24.6850  -31.0980   22.1250 N   0  0  0  0  0  0  0  0  0  0  0  0
  -23.5430  -32.1870   23.7620 O   0  0  0  0  0  0  0  0  0  0  0  0
  -22.7570  -29.4930   22.5550 C   0  0  0  0  0  0  0  0  0  0  0  0
  -21.4310  -29.3120   22.4340 N   0  0  0  0  0  0  0  0  0  0  0  0
  -23.4400  -28.8710   23.3730 O   0  0  0  0  0  0  0  0  0  0  0  0
  -20.9400  -29.8650   21.7450 H   0  0  0  0  0  0  0  0  0  0  0  0
  -18.0610  -28.0940   22.9470 C   0  0  0  0  0  0  0  0  0  0  0  0
  -20.6190  -28.3720   23.2090 C   0  0  0  0  0  3  0  0  0  0  0  0
  -20.7290  -26.9390   22.6400 C   0  0  0  0  0  2  0  0  0  0  0  0
  -19.6260  -26.6050   21.6300 C   0  0  0  0  0  2  0  0  0  0  0  0
  -18.2450  -26.7450   22.2750 C   0  0  0  0  0  2  0  0  0  0  0  0
  -19.1760  -28.8650   23.3720 C   0  0  0  0  0  0  0  0  0  0  0  0
  -18.9510  -30.1290   23.9610 C   0  0  0  0  0  3  0  0  0  0  0  0
  -17.6440  -30.6220   24.1300 C   0  0  0  0  0  3  0  0  0  0  0  0
  -16.5430  -29.8490   23.7210 C   0  0  0  0  0  3  0  0  0  0  0  0
  -16.7530  -28.5870   23.1360 C   0  0  0  0  0  3  0  0  0  0  0  0
  -25.9090  -32.5460   23.8350 C   0  0  0  0  0  3  0  0  0  0  0  0
  -26.4430  -31.7690   25.1010 C   0  0  1  0  0  0  0  0  0  0  0  0
  -25.3630  -31.5160   26.1790 C   0  0  0  0  0  1  0  0  0  0  0  0
  -27.0330  -30.3990   24.6960 C   0  0  0  0  0  1  0  0  0  0  0  0
  -27.5930  -32.5690   25.7590 C   0  0  0  0  0  1  0  0  0  0  0  0
  -25.5930  -33.9400   24.1820 N   0  0  0  0  0  0  0  0  0  0  0  0
  -25.9060  -35.0030   23.4290 C   0  0  0  0  0  0  0  0  0  0  0  0
  -26.5610  -34.9140   22.3880 O   0  0  0  0  0  0  0  0  0  0  0  0
  -25.0140  -34.0820   24.9950 H   0  0  0  0  0  0  0  0  0  0  0  0
  -24.1650  -36.7930   23.1140 C   0  0  0  0  0  1  0  0  0  0  0  0
  -25.4160  -36.3830   23.9090 C   0  0  0  0  0  3  0  0  0  0  0  0
  -27.5500  -37.2720   24.7330 C   0  0  0  0  0  1  0  0  0  0  0  0
  -26.4420  -37.4440   23.7980 N   0  0  0  0  0  0  0  0  0  0  0  0
  -26.0310  -38.3600   23.9590 H   0  0  0  0  0  0  0  0  0  0  0  0
  1  3  2  0
  1  5  1  0
  2  4  2  0
  3  4  1  0
  5  2  1  0
  8  6  1  6
  7  8  1  0
  8  5  1  0
  8  9  1  0
 10 18  1  0
 11 16  1  0
 12 13  1  0
 12 11  1  0
 14 13  1  0
 14 23  1  0
 14 15  1  0
 16 10  1  0
 16 15  1  0
 17 10  2  0
 18 19  1  0
 18  9  1  0
 20 21  2  0
 21 40  1  0
 22 21  1  0
 22 25  1  0
 23 20  1  0
 23 24  1  0
 24 22  2  0
 25 26  1  0
 26 27  2  0
 28 31  1  0
 28 27  1  0
 29 28  2  0
 30 29  1  0
 30 25  2  0
 31 32  1  0
 32 33  1  0
 33 34  2  0
 35 34  1  0
 35 39  1  0
 36 35  2  0
 37 32  2  0
 37 36  1  0
 38 37  1  0
 40 41  1  0
 41 44  1  0
 41 43  1  0
 42 40  2  0
 45 46  1  0
 45 20  1  0
 47 45  1  0
 48  3  1  0
 48 49  2  0
 50 49  1  0
 51 62  2  0
 52 50  1  0
 52 57  1  0
 53 61  1  0
 53 63  1  0
 54 60  1  0
 54 56  1  0
 55 61  1  0
 56 55  1  0
 57 56  2  0
 58 59  1  0
 58 52  2  0
 59 54  2  0
 60 53  1  0
 61 51  1  0
 63 65  2  0
 64 63  1  0
 66 64  1  0
 67 76  2  0
 67 72  1  0
 68 64  1  0
 68 72  1  0
 69 68  1  0
 70 71  1  0
 70 69  1  0
 71 67  1  0
 72 73  2  0
 73 74  1  0
 75 74  2  0
 76 75  1  0
 77 51  1  0
 77 82  1  0
 77 78  1  0
 78 81  1  1
 78 79  1  0
 80 78  1  0
 82 85  1  0
 83 87  1  0
 83 82  1  0
 84 83  2  0
 87 86  1  0
 89 87  1  0
 89 90  1  0
 89 88  1  0
M  ISO  4  10 100  18 100  49 101  50 101
M  END
>  <TORSDO>  (28) 
F 20

>  <SCORE>  (28) 
-13.873

>  <name>  (28) 
29

>  <ligand_id>  (28) 
29

>  <original_smiles>  (28) 
[H]c1c([H])c([H])c2c(c1[H])C([H])([H])C([H])([H])C([H])([H])C2([H])N([H])C(=O)C1([H])N(C(=O)C([H])(N([H])C(=O)C([H])(N([H])C([H])([H])[H])C([H])([H])[H])C(C([H])([H])[H])(C([H])([H])[H])C([H])([H])[H])C([H])([H])c2c([H])c(OC([H])([H])C([H])([H])c3nc([H])n(C(C([H])([H])[H])(C([H])([H])[H])C([H])([H])N([H])C(=O)N4C([H])([H])C([H])([H])C([H])([H])C([H])(n5nc(-c6c([H])c([H])c(Oc7c([H])c([H])c(F)c([H])c7F)c([H])c6[H])c(C(=O)N([H])[H])c5N([H])[H])C4([H])[H])c3[H])c([H])c([H])c2C1([H])[H]

>  <smiles>  (28) 
[H]c1c([H])c([H])c2c(c1[H])C([H])([H])C([H])([H])C([H])([H])C2([H])N([H])C(=O)C1([H])N(C(=O)C([H])(N([H])C(=O)C([H])(N([H])C([H])([H])[H])C([H])([H])[H])C(C([H])([H])[H])(C([H])([H])[H])C([H])([H])[H])C([H])([H])c2c([H])c(OC([H])([H])C([H])([H])c3nc([H])n(C(C([H])([H])[H])(C([H])([H])[H])C([H])([H])N([H])C(=O)N4C([H])([H])C([H])([H])C([H])([H])C([H])(n5nc(-c6c([H])c([H])c(Oc7c([H])c([H])c(F)c([H])c7F)c([H])c6[H])c(C(=O)N([H])[H])c5N([H])[H])C4([H])[H])c3[H])c([H])c([H])c2C1([H])[H]

$$$$
30:0:0
     RDKit          3D

 90 98  0  0  1  0  0  0  0  0999 V2000
  -27.1710  -22.7520   21.0950 C   0  0  0  0  0  0  0  0  0  0  0  0
  -29.0160  -21.8040   20.2220 C   0  0  0  0  0  0  0  0  0  0  0  0
  -28.5370  -24.0780   19.9340 C   0  0  0  0  0  0  0  0  0  0  0  0
  -25.8010  -22.6390   21.7350 C   0  0  0  0  0  1  0  0  0  0  0  0
  -27.9150  -21.6480   20.9580 N   0  0  0  0  0  4  0  0  0  0  0  0
  -27.4230  -23.9710   20.6400 N   0  0  0  0  0  0  0  0  0  0  0  0
  -29.3640  -23.0120   19.6740 N   0  0  0  0  0  2  0  0  0  0  0  0
  -30.0120  -20.5510   20.1400 C   0  0  0  0  0  3  0  0  0  0  0  0
  -29.5580  -18.9890   20.3690 C   0  0  0  0  0  3  0  0  0  0  0  0
  -30.6020  -17.7300   20.1490 C   0  0  0  0  0  2  0  0  0  0  0  0
  -30.9910  -15.1510   20.2900 C   0  0  0  0  0  0  0  0  0  0  0  0
  -30.6790  -12.8190   19.3830 C   0  0  0  0  0  2  0  0  0  0  0  0
  -29.7520  -12.7860   18.1280 C   0  0  0  0  0  2  0  0  0  0  0  0
  -28.2730  -13.0960   18.4440 C   0  0  0  0  0  2  0  0  0  0  0  0
  -28.0000  -13.0480   19.9470 C   0  0  0  0  0  3  0  0  0  0  0  0
  -28.9540  -13.8020   20.8740 C   0  0  0  0  0  2  0  0  0  0  0  0
  -30.2880  -13.9580   20.2700 N   0  0  0  0  0  0  0  0  0  0  0  0
  -32.1200  -15.1950   19.7930 O   0  0  0  0  0  0  0  0  0  0  0  0
  -30.5560  -16.4130   22.2390 C   0  0  0  0  0  1  0  0  0  0  0  0
  -30.4050  -16.3270   20.7760 N   0  0  0  0  0  0  0  0  0  0  0  0
  -25.6030  -14.0220   20.5620 C   0  0  0  0  0  0  0  0  0  0  0  0
  -24.4770  -13.2910   20.8960 C   0  0  0  0  0  0  0  0  0  0  0  0
  -24.8760  -11.9240   20.8340 C   0  0  0  0  0  0  0  0  0  0  0  0
  -26.5970  -13.0620   20.3290 N   0  0  0  0  0  0  0  0  0  0  0  0
  -26.1340  -11.8160   20.5120 N   0  0  0  0  0  0  0  0  0  0  0  0
  -24.1640  -10.6690   21.0000 C   0  0  0  0  0  0  0  0  0  0  0  0
  -24.5720   -9.7340   21.9740 C   0  0  0  0  0  3  0  0  0  0  0  0
  -23.8800   -8.5170   22.1130 C   0  0  0  0  0  3  0  0  0  0  0  0
  -22.7730   -8.2420   21.2760 C   0  0  0  0  0  0  0  0  0  0  0  0
  -22.4020   -9.1660   20.2830 C   0  0  0  0  0  3  0  0  0  0  0  0
  -23.0980  -10.3750   20.1390 C   0  0  0  0  0  3  0  0  0  0  0  0
  -22.0290   -7.0900   21.3440 O   0  0  0  0  0  0  0  0  0  0  0  0
  -21.8270   -6.4410   22.5320 C   0  0  0  0  0  0  0  0  0  0  0  0
  -21.1860   -7.0620   23.6300 C   0  0  0  0  0  3  0  0  0  0  0  0
  -20.9310   -6.3210   24.8060 C   0  0  0  0  0  3  0  0  0  0  0  0
  -21.3020   -4.9640   24.8770 C   0  0  0  0  0  0  0  0  0  0  0  0
  -21.9360   -4.3500   23.7880 C   0  0  0  0  0  3  0  0  0  0  0  0
  -22.1980   -5.0860   22.6220 C   0  0  0  0  0  0  0  0  0  0  0  0
  -22.7880   -4.4810   21.5620 F   0  0  0  0  0  0  0  0  0  0  0  0
  -21.0530   -4.2520   26.0000 F   0  0  0  0  0  0  0  0  0  0  0  0
  -23.0870  -13.7950   21.1750 C   0  0  0  0  0  0  0  0  0  0  0  0
  -22.3600  -13.0860   22.0300 N   0  0  0  0  0  0  0  0  0  0  0  0
  -22.6580  -14.8350   20.6840 O   0  0  0  0  0  0  0  0  0  0  0  0
  -22.7020  -12.2370   22.4450 H   0  0  0  0  0  0  0  0  0  0  0  0
  -21.4180  -13.3930   22.2360 H   0  0  0  0  0  0  0  0  0  0  0  0
  -25.8360  -15.3790   20.4100 N   0  0  0  0  0  0  0  0  0  0  0  0
  -26.7150  -15.7580   20.0800 H   0  0  0  0  0  0  0  0  0  0  0  0
  -25.1330  -16.0930   20.5770 H   0  0  0  0  0  0  0  0  0  0  0  0
  -28.7680  -25.5240   19.2950 C   0  0  0  0  0  2  0  0  0  0  0  0
  -28.5940  -26.8000   20.0830 O   0  0  0  0  0  0  0  0  0  0  0  0
  -24.7320  -31.9920   23.3940 C   0  0  0  0  0  0  0  0  0  0  0  0
  -27.4420  -27.6260   20.0640 C   0  0  0  0  0  0  0  0  0  0  0  0
  -23.5550  -30.6470   21.6950 C   0  0  0  0  0  3  0  0  0  0  0  0
  -25.0290  -29.2020   20.1820 C   0  0  0  0  0  0  0  0  0  0  0  0
  -26.0890  -31.0280   21.5100 C   0  0  0  0  0  2  0  0  0  0  0  0
  -26.1980  -29.6830   20.7830 C   0  0  0  0  0  0  0  0  0  0  0  0
  -27.4020  -28.9100   20.7040 C   0  0  0  0  0  3  0  0  0  0  0  0
  -26.2410  -27.2010   19.4550 C   0  0  0  0  0  3  0  0  0  0  0  0
  -25.0550  -27.9600   19.5150 C   0  0  0  0  0  3  0  0  0  0  0  0
  -23.7760  -30.0510   20.2810 C   0  0  0  0  0  2  0  0  0  0  0  0
  -24.8120  -31.2400   22.2580 N   0  0  0  0  0  0  0  0  0  0  0  0
  -23.6450  -32.2200   23.9470 O   0  0  0  0  0  0  0  0  0  0  0  0
  -22.9200  -29.5690   22.6050 C   0  0  0  0  0  0  0  0  0  0  0  0
  -21.6030  -29.3470   22.4550 N   0  0  0  0  0  0  0  0  0  0  0  0
  -23.6120  -28.9380   23.4110 O   0  0  0  0  0  0  0  0  0  0  0  0
  -21.1010  -29.9080   21.7780 H   0  0  0  0  0  0  0  0  0  0  0  0
  -18.2770  -27.9770   22.8330 C   0  0  0  0  0  0  0  0  0  0  0  0
  -20.8110  -28.3480   23.1770 C   0  0  0  0  0  3  0  0  0  0  0  0
  -20.9970  -26.9430   22.5570 C   0  0  0  0  0  2  0  0  0  0  0  0
  -19.9370  -26.6020   21.5070 C   0  0  0  0  0  2  0  0  0  0  0  0
  -18.5350  -26.6610   22.1200 C   0  0  0  0  0  2  0  0  0  0  0  0
  -19.3450  -28.7780   23.3150 C   0  0  0  0  0  0  0  0  0  0  0  0
  -19.0510  -30.0120   23.9380 C   0  0  0  0  0  3  0  0  0  0  0  0
  -17.7200  -30.4420   24.0870 C   0  0  0  0  0  3  0  0  0  0  0  0
  -16.6650  -29.6380   23.6240 C   0  0  0  0  0  3  0  0  0  0  0  0
  -16.9440  -28.4080   23.0010 C   0  0  0  0  0  3  0  0  0  0  0  0
  -26.0030  -32.6260   24.0430 C   0  0  0  0  0  3  0  0  0  0  0  0
  -26.5060  -31.8370   25.3150 C   0  0  1  0  0  0  0  0  0  0  0  0
  -25.3990  -31.5690   26.3610 C   0  0  0  0  0  1  0  0  0  0  0  0
  -27.1100  -30.4720   24.9100 C   0  0  0  0  0  1  0  0  0  0  0  0
  -27.6390  -32.6310   26.0110 C   0  0  0  0  0  1  0  0  0  0  0  0
  -25.6780  -34.0140   24.3940 N   0  0  0  0  0  0  0  0  0  0  0  0
  -26.0090  -35.0870   23.6590 C   0  0  0  0  0  0  0  0  0  0  0  0
  -26.6910  -35.0080   22.6340 O   0  0  0  0  0  0  0  0  0  0  0  0
  -25.0780  -34.1460   25.1930 H   0  0  0  0  0  0  0  0  0  0  0  0
  -24.2730  -36.8760   23.3150 C   0  0  0  0  0  1  0  0  0  0  0  0
  -25.5020  -36.4610   24.1380 C   0  0  0  0  0  3  0  0  0  0  0  0
  -27.6090  -37.3510   25.0310 C   0  0  0  0  0  1  0  0  0  0  0  0
  -26.5290  -37.5230   24.0650 N   0  0  0  0  0  0  0  0  0  0  0  0
  -26.1130  -38.4380   24.2120 H   0  0  0  0  0  0  0  0  0  0  0  0
  1  4  1  0
  2  5  2  0
  3  6  2  0
  5  1  2  0
  6  1  1  0
  7  3  1  0
  7  2  1  0
  8  2  1  0
  8  9  2  0
 10  9  1  0
 10 20  1  0
 11 20  1  0
 12 17  1  0
 13 14  1  0
 13 12  1  0
 15 14  1  0
 15 24  1  0
 15 16  1  0
 17 11  1  0
 17 16  1  0
 18 11  2  0
 20 19  1  0
 21 22  2  0
 22 41  1  0
 23 22  1  0
 23 26  1  0
 24 25  1  0
 24 21  1  0
 25 23  2  0
 26 27  1  0
 27 28  2  0
 29 32  1  0
 29 28  1  0
 30 29  2  0
 31 30  1  0
 31 26  2  0
 32 33  1  0
 33 38  2  0
 33 34  1  0
 34 35  2  0
 35 36  1  0
 36 40  1  0
 37 36  2  0
 38 37  1  0
 39 38  1  0
 41 42  1  0
 42 45  1  0
 42 44  1  0
 43 41  2  0
 46 21  1  0
 46 48  1  0
 47 46  1  0
 49  3  1  0
 49 50  1  0
 51 62  2  0
 52 50  1  0
 52 57  1  0
 53 61  1  0
 53 63  1  0
 54 60  1  0
 54 56  1  0
 55 61  1  0
 56 55  1  0
 57 56  2  0
 58 59  1  0
 58 52  2  0
 59 54  2  0
 60 53  1  0
 61 51  1  0
 63 65  2  0
 64 63  1  0
 66 64  1  0
 67 76  2  0
 67 72  1  0
 68 64  1  0
 68 72  1  0
 69 68  1  0
 70 71  1  0
 70 69  1  0
 71 67  1  0
 72 73  2  0
 73 74  1  0
 75 74  2  0
 76 75  1  0
 77 51  1  0
 77 82  1  0
 77 78  1  0
 78 81  1  1
 78 79  1  0
 80 78  1  0
 82 85  1  0
 83 87  1  0
 83 82  1  0
 84 83  2  0
 87 86  1  0
 89 87  1  0
 89 90  1  0
 89 88  1  0
M  ISO  4  11 100  20 100  49 101  50 101
M  END
>  <TORSDO>  (29) 
F 20

>  <SCORE>  (29) 
-12.451

>  <name>  (29) 
30

>  <ligand_id>  (29) 
30

>  <original_smiles>  (29) 
[H]c1c([H])c([H])c2c(c1[H])C([H])([H])C([H])([H])C([H])([H])C2([H])N([H])C(=O)C1([H])N(C(=O)C([H])(N([H])C(=O)C([H])(N([H])C([H])([H])[H])C([H])([H])[H])C(C([H])([H])[H])(C([H])([H])[H])C([H])([H])[H])C([H])([H])c2c([H])c(OC([H])([H])c3nc(C([H])([H])[H])nc(C([H])([H])C([H])([H])C([H])([H])N(C(=O)N4C([H])([H])C([H])([H])C([H])([H])C([H])(n5nc(-c6c([H])c([H])c(Oc7c([H])c([H])c(F)c([H])c7F)c([H])c6[H])c(C(=O)N([H])[H])c5N([H])[H])C4([H])[H])C([H])([H])[H])n3)c([H])c([H])c2C1([H])[H]

>  <smiles>  (29) 
[H]c1c([H])c([H])c2c(c1[H])C([H])([H])C([H])([H])C([H])([H])C2([H])N([H])C(=O)C1([H])N(C(=O)C([H])(N([H])C(=O)C([H])(N([H])C([H])([H])[H])C([H])([H])[H])C(C([H])([H])[H])(C([H])([H])[H])C([H])([H])[H])C([H])([H])c2c([H])c(OC([H])([H])c3nc(C([H])([H])[H])nc(C([H])([H])C([H])([H])C([H])([H])N(C(=O)N4C([H])([H])C([H])([H])C([H])([H])C([H])(n5nc(-c6c([H])c([H])c(Oc7c([H])c([H])c(F)c([H])c7F)c([H])c6[H])c(C(=O)N([H])[H])c5N([H])[H])C4([H])[H])C([H])([H])[H])n3)c([H])c([H])c2C1([H])[H]

$$$$
31:0:0
     RDKit          3D

 91 99  0  0  1  0  0  0  0  0999 V2000
  -30.4570  -22.5340   19.9790 C   0  0  0  0  0  3  0  0  0  0  0  0
  -31.2490  -21.3790   19.9730 C   0  0  0  0  0  0  0  0  0  0  0  0
  -29.0680  -22.3980   20.1130 C   0  0  0  0  0  0  0  0  0  0  0  0
  -29.4190  -20.0170   20.2900 C   0  0  0  0  0  0  0  0  0  0  0  0
  -32.7400  -21.4510   19.7330 C   0  0  0  0  0  1  0  0  0  0  0  0
  -30.7270  -20.1500   20.1140 N   0  0  0  0  0  0  0  0  0  0  0  0
  -28.5690  -21.1020   20.2740 N   0  0  0  0  0  0  0  0  0  0  0  0
  -28.1820  -18.1100   19.0680 C   0  0  0  0  0  1  0  0  0  0  0  0
  -28.9340  -18.4860   20.3560 C   0  0  0  0  0  3  0  0  0  0  0  0
  -30.0530  -17.3370   20.6750 C   0  0  0  0  0  2  0  0  0  0  0  0
  -30.5300  -14.7560   20.4120 C   0  0  0  0  0  0  0  0  0  0  0  0
  -30.3770  -12.5020   19.3560 C   0  0  0  0  0  2  0  0  0  0  0  0
  -29.4240  -12.5830   18.1440 C   0  0  0  0  0  2  0  0  0  0  0  0
  -27.9570  -12.4060   18.5790 C   0  0  0  0  0  2  0  0  0  0  0  0
  -27.5900  -13.2650   19.8180 C   0  0  0  0  0  3  0  0  0  0  0  0
  -28.6500  -13.1510   20.9320 C   0  0  0  0  0  2  0  0  0  0  0  0
  -29.9390  -13.5190   20.3390 N   0  0  0  0  0  0  0  0  0  0  0  0
  -31.7110  -14.8970   20.0770 O   0  0  0  0  0  0  0  0  0  0  0  0
  -29.7120  -15.8420   20.6720 N   0  0  0  0  0  0  0  0  0  0  0  0
  -28.7560  -15.6090   20.8970 H   0  0  0  0  0  0  0  0  0  0  0  0
  -25.2060  -13.8520   20.5490 C   0  0  0  0  0  0  0  0  0  0  0  0
  -24.1450  -13.0740   20.9240 C   0  0  0  0  0  0  0  0  0  0  0  0
  -24.6110  -11.7220   20.8880 C   0  0  0  0  0  0  0  0  0  0  0  0
  -26.2490  -12.9740   20.3080 N   0  0  0  0  0  0  0  0  0  0  0  0
  -25.8990  -11.6900   20.5700 N   0  0  0  0  0  0  0  0  0  0  0  0
  -23.8890  -10.4590   21.0750 C   0  0  0  0  0  0  0  0  0  0  0  0
  -24.3340   -9.4850   21.9950 C   0  0  0  0  0  3  0  0  0  0  0  0
  -23.6120   -8.2840   22.1710 C   0  0  0  0  0  3  0  0  0  0  0  0
  -22.4340   -8.0480   21.4260 C   0  0  0  0  0  0  0  0  0  0  0  0
  -22.0090   -9.0100   20.4910 C   0  0  0  0  0  3  0  0  0  0  0  0
  -22.7300  -10.2030   20.3150 C   0  0  0  0  0  3  0  0  0  0  0  0
  -21.6840   -6.9000   21.5120 O   0  0  0  0  0  0  0  0  0  0  0  0
  -21.6520   -6.1470   22.6560 C   0  0  0  0  0  0  0  0  0  0  0  0
  -21.2390   -6.6850   23.8940 C   0  0  0  0  0  3  0  0  0  0  0  0
  -21.1550   -5.8580   25.0300 C   0  0  0  0  0  3  0  0  0  0  0  0
  -21.4710   -4.4900   24.9300 C   0  0  0  0  0  0  0  0  0  0  0  0
  -21.8730   -3.9470   23.6980 C   0  0  0  0  0  3  0  0  0  0  0  0
  -21.9610   -4.7740   22.5640 C   0  0  0  0  0  0  0  0  0  0  0  0
  -22.3300   -4.2430   21.3740 F   0  0  0  0  0  0  0  0  0  0  0  0
  -21.3810   -3.6920   26.0200 F   0  0  0  0  0  0  0  0  0  0  0  0
  -22.7480  -13.5440   21.2040 C   0  0  0  0  0  0  0  0  0  0  0  0
  -22.0300  -12.8350   22.0700 N   0  0  0  0  0  0  0  0  0  0  0  0
  -22.3030  -14.5720   20.6960 O   0  0  0  0  0  0  0  0  0  0  0  0
  -22.4110  -12.0100   22.5070 H   0  0  0  0  0  0  0  0  0  0  0  0
  -21.0870  -13.1200   22.2970 H   0  0  0  0  0  0  0  0  0  0  0  0
  -25.3640  -15.2210   20.3670 N   0  0  0  0  0  0  0  0  0  0  0  0
  -24.5770  -15.8560   20.4370 H   0  0  0  0  0  0  0  0  0  0  0  0
  -26.1780  -15.6490   19.9400 H   0  0  0  0  0  0  0  0  0  0  0  0
  -28.1690  -23.7000   19.8610 C   0  0  0  0  0  2  0  0  0  0  0  0
  -28.4240  -25.0800   20.6780 C   0  0  0  0  0  2  0  0  0  0  0  0
  -28.3660  -26.4730   20.1160 O   0  0  0  0  0  0  0  0  0  0  0  0
  -24.6270  -31.8950   23.2320 C   0  0  0  0  0  0  0  0  0  0  0  0
  -27.2260  -27.2910   20.1890 C   0  0  0  0  0  0  0  0  0  0  0  0
  -23.4190  -30.4890   21.6030 C   0  0  0  0  0  3  0  0  0  0  0  0
  -24.8630  -28.9170   20.1860 C   0  0  0  0  0  0  0  0  0  0  0  0
  -25.9610  -30.7940   21.4120 C   0  0  0  0  0  2  0  0  0  0  0  0
  -26.0370  -29.4090   20.7690 C   0  0  0  0  0  0  0  0  0  0  0  0
  -27.2250  -28.6130   20.7490 C   0  0  0  0  0  3  0  0  0  0  0  0
  -26.0270  -26.8450   19.5980 C   0  0  0  0  0  3  0  0  0  0  0  0
  -24.8620  -27.6400   19.5920 C   0  0  0  0  0  3  0  0  0  0  0  0
  -23.6300  -29.8000   20.2290 C   0  0  0  0  0  2  0  0  0  0  0  0
  -24.6880  -31.0790   22.1370 N   0  0  0  0  0  0  0  0  0  0  0  0
  -23.5440  -32.1800   23.7650 O   0  0  0  0  0  0  0  0  0  0  0  0
  -22.7540  -29.4820   22.5700 C   0  0  0  0  0  0  0  0  0  0  0  0
  -21.4280  -29.3030   22.4460 N   0  0  0  0  0  0  0  0  0  0  0  0
  -23.4340  -28.8610   23.3930 O   0  0  0  0  0  0  0  0  0  0  0  0
  -20.9420  -29.8540   21.7530 H   0  0  0  0  0  0  0  0  0  0  0  0
  -18.0490  -28.1160   22.9590 C   0  0  0  0  0  0  0  0  0  0  0  0
  -20.6080  -28.3700   23.2220 C   0  0  0  0  0  3  0  0  0  0  0  0
  -20.7090  -26.9380   22.6470 C   0  0  0  0  0  2  0  0  0  0  0  0
  -19.6020  -26.6140   21.6380 C   0  0  0  0  0  2  0  0  0  0  0  0
  -18.2230  -26.7640   22.2850 C   0  0  0  0  0  2  0  0  0  0  0  0
  -19.1710  -28.8750   23.3840 C   0  0  0  0  0  0  0  0  0  0  0  0
  -18.9570  -30.1400   23.9720 C   0  0  0  0  0  3  0  0  0  0  0  0
  -17.6540  -30.6440   24.1420 C   0  0  0  0  0  3  0  0  0  0  0  0
  -16.5470  -29.8800   23.7350 C   0  0  0  0  0  3  0  0  0  0  0  0
  -16.7460  -28.6180   23.1500 C   0  0  0  0  0  3  0  0  0  0  0  0
  -25.9080  -32.5300   23.8530 C   0  0  0  0  0  3  0  0  0  0  0  0
  -26.4240  -31.7660   25.1330 C   0  0  1  0  0  0  0  0  0  0  0  0
  -25.3340  -31.5350   26.2060 C   0  0  0  0  0  1  0  0  0  0  0  0
  -27.0090  -30.3860   24.7550 C   0  0  0  0  0  1  0  0  0  0  0  0
  -27.5710  -32.5690   25.7880 C   0  0  0  0  0  1  0  0  0  0  0  0
  -25.5960  -33.9280   24.1800 N   0  0  0  0  0  0  0  0  0  0  0  0
  -25.9270  -34.9820   23.4200 C   0  0  0  0  0  0  0  0  0  0  0  0
  -26.5940  -34.8780   22.3870 O   0  0  0  0  0  0  0  0  0  0  0  0
  -24.9960  -34.0820   24.9780 H   0  0  0  0  0  0  0  0  0  0  0  0
  -24.1950  -36.7760   23.0700 C   0  0  0  0  0  1  0  0  0  0  0  0
  -25.4390  -36.3690   23.8790 C   0  0  0  0  0  3  0  0  0  0  0  0
  -27.5780  -37.2510   24.7070 C   0  0  0  0  0  1  0  0  0  0  0  0
  -26.4720  -37.4230   23.7670 N   0  0  0  0  0  0  0  0  0  0  0  0
  -26.0670  -38.3420   23.9170 H   0  0  0  0  0  0  0  0  0  0  0  0
  1  3  1  0
  2  1  2  0
  2  6  1  0
  3  7  2  0
  4  9  1  0
  5  2  1  0
  6  4  2  0
  7  4  1  0
  9  8  1  0
  9 10  1  0
 11 19  1  0
 12 17  1  0
 13 14  1  0
 13 12  1  0
 15 14  1  0
 15 24  1  0
 15 16  1  0
 17 11  1  0
 17 16  1  0
 18 11  2  0
 19 10  1  0
 19 20  1  0
 21 22  2  0
 22 41  1  0
 23 22  1  0
 23 26  1  0
 24 21  1  0
 24 25  1  0
 25 23  2  0
 26 27  1  0
 27 28  2  0
 29 32  1  0
 29 28  1  0
 30 29  2  0
 31 30  1  0
 31 26  2  0
 32 33  1  0
 33 34  1  0
 34 35  2  0
 36 35  1  0
 36 40  1  0
 37 36  2  0
 38 33  2  0
 38 37  1  0
 39 38  1  0
 41 42  1  0
 42 45  1  0
 42 44  1  0
 43 41  2  0
 46 47  1  0
 46 21  1  0
 48 46  1  0
 49  3  1  0
 49 50  1  0
 51 53  1  0
 51 50  1  0
 52 63  2  0
 53 58  1  0
 54 62  1  0
 54 64  1  0
 55 61  1  0
 55 57  1  0
 56 62  1  0
 57 56  1  0
 58 57  2  0
 59 53  2  0
 60 59  1  0
 60 55  2  0
 61 54  1  0
 62 52  1  0
 64 66  2  0
 65 64  1  0
 67 65  1  0
 68 77  2  0
 68 73  1  0
 69 65  1  0
 69 73  1  0
 70 69  1  0
 71 72  1  0
 71 70  1  0
 72 68  1  0
 73 74  2  0
 74 75  1  0
 76 75  2  0
 77 76  1  0
 78 52  1  0
 78 83  1  0
 78 79  1  0
 79 82  1  1
 79 80  1  0
 81 79  1  0
 83 86  1  0
 84 88  1  0
 84 83  1  0
 85 84  2  0
 88 87  1  0
 90 88  1  0
 90 91  1  0
 90 89  1  0
M  ISO  4  11 100  19 100  50 101  51 101
M  END
>  <TORSDO>  (30) 
F 20

>  <SCORE>  (30) 
-14.028

>  <name>  (30) 
31

>  <ligand_id>  (30) 
31

>  <original_smiles>  (30) 
[H]c1c(C([H])([H])[H])nc(C([H])(C([H])([H])[H])C([H])([H])N([H])C(=O)N2C([H])([H])C([H])([H])C([H])([H])C([H])(n3nc(-c4c([H])c([H])c(Oc5c([H])c([H])c(F)c([H])c5F)c([H])c4[H])c(C(=O)N([H])[H])c3N([H])[H])C2([H])[H])nc1C([H])([H])C([H])([H])Oc1c([H])c([H])c2c(c1[H])C([H])([H])N(C(=O)C([H])(N([H])C(=O)C([H])(N([H])C([H])([H])[H])C([H])([H])[H])C(C([H])([H])[H])(C([H])([H])[H])C([H])([H])[H])C([H])(C(=O)N([H])C1([H])c3c([H])c([H])c([H])c([H])c3C([H])([H])C([H])([H])C1([H])[H])C2([H])[H]

>  <smiles>  (30) 
[H]c1c(C([H])([H])[H])nc(C([H])(C([H])([H])[H])C([H])([H])N([H])C(=O)N2C([H])([H])C([H])([H])C([H])([H])C([H])(n3nc(-c4c([H])c([H])c(Oc5c([H])c([H])c(F)c([H])c5F)c([H])c4[H])c(C(=O)N([H])[H])c3N([H])[H])C2([H])[H])nc1C([H])([H])C([H])([H])Oc1c([H])c([H])c2c(c1[H])C([H])([H])N(C(=O)C([H])(N([H])C(=O)C([H])(N([H])C([H])([H])[H])C([H])([H])[H])C(C([H])([H])[H])(C([H])([H])[H])C([H])([H])[H])C([H])(C(=O)N([H])C1([H])c3c([H])c([H])c([H])c([H])c3C([H])([H])C([H])([H])C1([H])[H])C2([H])[H]

$$$$
32:0:0
     RDKit          3D

 90 98  0  0  1  0  0  0  0  0999 V2000
  -29.0320  -22.7320   20.0810 C   0  0  0  0  0  0  0  0  0  0  0  0
  -29.7280  -20.3630   20.0060 C   0  0  0  0  0  3  0  0  0  0  0  0
  -29.0040  -21.4380   19.3500 N   0  0  0  0  0  0  0  0  0  0  0  0
  -29.7580  -22.4130   21.1750 N   0  0  0  0  0  2  0  0  0  0  0  0
  -30.1630  -21.0390   21.1110 N   0  0  0  0  0  0  0  0  0  0  0  0
  -30.5160  -20.9510   23.5590 C   0  0  0  0  0  1  0  0  0  0  0  0
  -32.4870  -20.8810   21.9470 C   0  0  0  0  0  1  0  0  0  0  0  0
  -31.0120  -20.5090   22.1730 C   0  0  0  0  0  3  0  0  0  0  0  0
  -30.1270  -18.7270   17.9470 C   0  0  0  0  0  1  0  0  0  0  0  0
  -30.2630  -18.7140   19.4780 C   0  0  0  0  0  0  0  0  0  0  0  0
  -30.7140  -15.7380   19.7960 C   0  0  0  0  0  0  0  0  0  0  0  0
  -30.6920  -13.2260   19.0300 C   0  0  0  0  0  2  0  0  0  0  0  0
  -29.7350  -12.9050   17.8510 C   0  0  0  0  0  2  0  0  0  0  0  0
  -28.3160  -12.6150   18.3650 C   0  0  0  0  0  2  0  0  0  0  0  0
  -27.8870  -13.6270   19.4560 C   0  0  0  0  0  3  0  0  0  0  0  0
  -28.9730  -13.8790   20.5260 C   0  0  0  0  0  2  0  0  0  0  0  0
  -30.1540  -14.4100   19.8190 N   0  0  0  0  0  0  0  0  0  0  0  0
  -31.9200  -15.6880   19.5070 O   0  0  0  0  0  0  0  0  0  0  0  0
  -29.9870  -17.0690   19.8900 N   0  0  0  0  0  4  0  0  0  0  0  0
  -29.0280  -16.9260   20.1700 H   0  0  0  0  0  0  0  0  0  0  0  0
  -25.5780  -14.1990   20.3540 C   0  0  0  0  0  0  0  0  0  0  0  0
  -24.5230  -13.4320   20.7620 C   0  0  0  0  0  0  0  0  0  0  0  0
  -24.9620  -12.0740   20.6740 C   0  0  0  0  0  0  0  0  0  0  0  0
  -26.5870  -13.3120   20.0330 N   0  0  0  0  0  0  0  0  0  0  0  0
  -26.2350  -12.0260   20.2920 N   0  0  0  0  0  0  0  0  0  0  0  0
  -24.2190  -10.8220   20.8700 C   0  0  0  0  0  0  0  0  0  0  0  0
  -24.6320   -9.8580   21.8160 C   0  0  0  0  0  3  0  0  0  0  0  0
  -23.8860   -8.6730   22.0020 C   0  0  0  0  0  3  0  0  0  0  0  0
  -22.7130   -8.4460   21.2440 C   0  0  0  0  0  0  0  0  0  0  0  0
  -22.3190   -9.3980   20.2880 C   0  0  0  0  0  3  0  0  0  0  0  0
  -23.0650  -10.5730   20.1000 C   0  0  0  0  0  3  0  0  0  0  0  0
  -21.9410   -7.3120   21.3390 O   0  0  0  0  0  0  0  0  0  0  0  0
  -21.8040   -6.6310   22.5230 C   0  0  0  0  0  0  0  0  0  0  0  0
  -21.3030   -7.2550   23.6860 C   0  0  0  0  0  3  0  0  0  0  0  0
  -21.1130   -6.5010   24.8630 C   0  0  0  0  0  3  0  0  0  0  0  0
  -21.4140   -5.1260   24.8740 C   0  0  0  0  0  0  0  0  0  0  0  0
  -21.9080   -4.5030   23.7140 C   0  0  0  0  0  3  0  0  0  0  0  0
  -22.1000   -5.2540   22.5410 C   0  0  0  0  0  0  0  0  0  0  0  0
  -22.5550   -4.6440   21.4210 F   0  0  0  0  0  0  0  0  0  0  0  0
  -21.2250   -4.4000   26.0010 F   0  0  0  0  0  0  0  0  0  0  0  0
  -23.1510  -13.9300   21.1120 C   0  0  0  0  0  0  0  0  0  0  0  0
  -22.4540  -13.2290   21.9980 N   0  0  0  0  0  0  0  0  0  0  0  0
  -22.7110  -14.9750   20.6360 O   0  0  0  0  0  0  0  0  0  0  0  0
  -22.8250  -12.3830   22.4060 H   0  0  0  0  0  0  0  0  0  0  0  0
  -21.5360  -13.5440   22.2760 H   0  0  0  0  0  0  0  0  0  0  0  0
  -25.7570  -15.5700   20.1970 N   0  0  0  0  0  0  0  0  0  0  0  0
  -25.0020  -16.2320   20.3470 H   0  0  0  0  0  0  0  0  0  0  0  0
  -26.5770  -15.9940   19.7830 H   0  0  0  0  0  0  0  0  0  0  0  0
  -28.0410  -24.2380   19.9610 C   0  0  0  0  0  2  0  0  0  0  0  0
  -28.3210  -25.8990   20.1610 O   0  0  0  0  0  0  0  0  0  0  0  0
  -24.6910  -31.9240   23.1660 C   0  0  0  0  0  0  0  0  0  0  0  0
  -27.3220  -27.0470   20.0810 C   0  0  0  0  0  0  0  0  0  0  0  0
  -23.5110  -30.4990   21.5450 C   0  0  0  0  0  3  0  0  0  0  0  0
  -24.9790  -28.9320   20.0830 C   0  0  0  0  0  0  0  0  0  0  0  0
  -26.0720  -30.7590   21.3600 C   0  0  0  0  0  2  0  0  0  0  0  0
  -26.1710  -29.3450   20.6940 C   0  0  0  0  0  0  0  0  0  0  0  0
  -27.3280  -28.4240   20.6710 C   0  0  0  0  0  3  0  0  0  0  0  0
  -26.0970  -26.8230   19.4060 C   0  0  0  0  0  3  0  0  0  0  0  0
  -24.9750  -27.6970   19.4150 C   0  0  0  0  0  3  0  0  0  0  0  0
  -23.7380  -29.8270   20.1610 C   0  0  0  0  0  2  0  0  0  0  0  0
  -24.7810  -31.0910   22.0760 N   0  0  0  0  0  0  0  0  0  0  0  0
  -23.6030  -32.1820   23.7070 O   0  0  0  0  0  0  0  0  0  0  0  0
  -22.8590  -29.4850   22.5210 C   0  0  0  0  0  0  0  0  0  0  0  0
  -21.5420  -29.2360   22.3810 N   0  0  0  0  0  0  0  0  0  0  0  0
  -23.5450  -28.9220   23.3770 O   0  0  0  0  0  0  0  0  0  0  0  0
  -21.0340  -29.7460   21.6710 H   0  0  0  0  0  0  0  0  0  0  0  0
  -18.2590  -27.7440   22.8030 C   0  0  0  0  0  0  0  0  0  0  0  0
  -20.7680  -28.2620   23.1610 C   0  0  0  0  0  3  0  0  0  0  0  0
  -21.0270  -26.8200   22.6630 C   0  0  0  0  0  2  0  0  0  0  0  0
  -20.0080  -26.3520   21.6180 C   0  0  0  0  0  2  0  0  0  0  0  0
  -18.5900  -26.3920   22.1950 C   0  0  0  0  0  2  0  0  0  0  0  0
  -19.2800  -28.6270   23.2410 C   0  0  0  0  0  0  0  0  0  0  0  0
  -18.9150  -29.8830   23.7720 C   0  0  0  0  0  3  0  0  0  0  0  0
  -17.5610  -30.2600   23.8680 C   0  0  0  0  0  3  0  0  0  0  0  0
  -16.5540  -29.3760   23.4430 C   0  0  0  0  0  3  0  0  0  0  0  0
  -16.9040  -28.1200   22.9160 C   0  0  0  0  0  3  0  0  0  0  0  0
  -25.9520  -32.6070   23.7780 C   0  0  0  0  0  3  0  0  0  0  0  0
  -26.4980  -31.8590   25.0590 C   0  0  1  0  0  0  0  0  0  0  0  0
  -25.4200  -31.6020   26.1380 C   0  0  0  0  0  1  0  0  0  0  0  0
  -27.1150  -30.4930   24.6830 C   0  0  0  0  0  1  0  0  0  0  0  0
  -27.6320  -32.6880   25.7050 C   0  0  0  0  0  1  0  0  0  0  0  0
  -25.5980  -33.9970   24.1220 N   0  0  0  0  0  0  0  0  0  0  0  0
  -25.9190  -35.0740   23.3940 C   0  0  0  0  0  0  0  0  0  0  0  0
  -26.6040  -35.0050   22.3700 O   0  0  0  0  0  0  0  0  0  0  0  0
  -24.9890  -34.1210   24.9160 H   0  0  0  0  0  0  0  0  0  0  0  0
  -24.1650  -36.8530   23.0550 C   0  0  0  0  0  1  0  0  0  0  0  0
  -25.4020  -36.4470   23.8740 C   0  0  0  0  0  3  0  0  0  0  0  0
  -27.5070  -37.3560   24.7550 C   0  0  0  0  0  1  0  0  0  0  0  0
  -26.4170  -37.5220   23.7980 N   0  0  0  0  0  0  0  0  0  0  0  0
  -25.9920  -38.4310   23.9560 H   0  0  0  0  0  0  0  0  0  0  0  0
  1  4  1  0
  2 10  1  0
  2  5  1  0
  3  2  1  0
  3  1  2  0
  5  4  1  0
  5  8  1  0
  7  8  1  0
  8  6  1  0
  9 10  1  0
 10 19  2  0
 11 17  1  0
 11 19  1  0
 12 17  1  0
 13 14  1  0
 13 12  1  0
 15 14  1  0
 15 24  1  0
 15 16  1  0
 17 16  1  0
 18 11  2  0
 19 20  1  0
 21 22  2  0
 22 41  1  0
 23 22  1  0
 23 26  1  0
 24 25  1  0
 24 21  1  0
 25 23  2  0
 26 27  1  0
 27 28  2  0
 29 32  1  0
 29 28  1  0
 30 29  2  0
 31 30  1  0
 31 26  2  0
 32 33  1  0
 33 38  2  0
 33 34  1  0
 34 35  2  0
 35 36  1  0
 36 40  1  0
 37 36  2  0
 38 37  1  0
 39 38  1  0
 41 42  1  0
 42 45  1  0
 42 44  1  0
 43 41  2  0
 46 47  1  0
 46 21  1  0
 48 46  1  0
 49  1  1  0
 49 50  1  0
 51 62  2  0
 52 50  1  0
 52 57  1  0
 53 61  1  0
 53 63  1  0
 54 60  1  0
 54 56  1  0
 55 61  1  0
 56 55  1  0
 57 56  2  0
 58 59  1  0
 58 52  2  0
 59 54  2  0
 60 53  1  0
 61 51  1  0
 63 65  2  0
 64 63  1  0
 66 64  1  0
 67 76  2  0
 67 72  1  0
 68 64  1  0
 68 72  1  0
 69 68  1  0
 70 71  1  0
 70 69  1  0
 71 67  1  0
 72 73  2  0
 73 74  1  0
 75 74  2  0
 76 75  1  0
 77 51  1  0
 77 82  1  0
 77 78  1  0
 78 81  1  1
 78 79  1  0
 80 78  1  0
 82 85  1  0
 83 87  1  0
 83 82  1  0
 84 83  2  0
 87 86  1  0
 89 87  1  0
 89 90  1  0
 89 88  1  0
M  ISO  4  11 100  19 100  49 101  50 101
M  END
>  <TORSDO>  (31) 
F 19

>  <SCORE>  (31) 
-15.925

>  <name>  (31) 
32

>  <ligand_id>  (31) 
32

>  <original_smiles>  (31) 
[H]c1c([H])c([H])c2c(c1[H])C([H])([H])C([H])([H])C([H])([H])C2([H])N([H])C(=O)C1([H])N(C(=O)C([H])(N([H])C(=O)C([H])(N([H])C([H])([H])[H])C([H])([H])[H])C(C([H])([H])[H])(C([H])([H])[H])C([H])([H])[H])C([H])([H])c2c([H])c(OC([H])([H])c3nc(C([H])(N([H])C(=O)N4C([H])([H])C([H])([H])C([H])([H])C([H])(n5nc(-c6c([H])c([H])c(Oc7c([H])c([H])c(F)c([H])c7F)c([H])c6[H])c(C(=O)N([H])[H])c5N([H])[H])C4([H])[H])C([H])([H])[H])n(C([H])(C([H])([H])[H])C([H])([H])[H])n3)c([H])c([H])c2C1([H])[H]

>  <smiles>  (31) 
[H]c1c([H])c([H])c2c(c1[H])C([H])([H])C([H])([H])C([H])([H])C2([H])N([H])C(=O)C1([H])N(C(=O)C([H])(N([H])C(=O)C([H])(N([H])C([H])([H])[H])C([H])([H])[H])C(C([H])([H])[H])(C([H])([H])[H])C([H])([H])[H])C([H])([H])c2c([H])c(OC([H])([H])c3nc(C([H])(N([H])C(=O)N4C([H])([H])C([H])([H])C([H])([H])C([H])(n5nc(-c6c([H])c([H])c(Oc7c([H])c([H])c(F)c([H])c7F)c([H])c6[H])c(C(=O)N([H])[H])c5N([H])[H])C4([H])[H])C([H])([H])[H])n(C([H])(C([H])([H])[H])C([H])([H])[H])n3)c([H])c([H])c2C1([H])[H]

$$$$
33:0:0
     RDKit          3D

 91 99  0  0  1  0  0  0  0  0999 V2000
  -29.9820  -23.2850   21.0580 C   0  0  0  0  0  3  0  0  0  0  0  0
  -30.7310  -22.1410   21.4000 C   0  0  0  0  0  0  0  0  0  0  0  0
  -28.8720  -23.1580   20.2180 C   0  0  0  0  0  0  0  0  0  0  0  0
  -29.4210  -20.7000   20.1350 C   0  0  0  0  0  0  0  0  0  0  0  0
  -31.9320  -22.2730   22.3120 C   0  0  0  0  0  1  0  0  0  0  0  0
  -30.4490  -20.8910   20.9550 N   0  0  0  0  0  0  0  0  0  0  0  0
  -28.6280  -21.8130   19.7800 N   0  0  0  0  0  0  0  0  0  0  0  0
  -29.1290  -19.0770   18.1460 C   0  0  0  0  0  1  0  0  0  0  0  0
  -27.7520  -18.7310   20.2350 C   0  0  0  0  0  1  0  0  0  0  0  0
  -29.1460  -19.0980   19.6870 C   0  0  2  0  0  0  0  0  0  0  0  0
  -30.1600  -17.7700   20.1020 C   0  0  0  0  0  2  0  0  0  0  0  0
  -30.5540  -14.9970   19.8470 C   0  0  0  0  0  0  0  0  0  0  0  0
  -30.3530  -12.6280   18.9240 C   0  0  0  0  0  2  0  0  0  0  0  0
  -29.3300  -12.5560   17.7680 C   0  0  0  0  0  2  0  0  0  0  0  0
  -27.8980  -12.3640   18.3060 C   0  0  0  0  0  2  0  0  0  0  0  0
  -27.5860  -13.3000   19.5020 C   0  0  0  0  0  3  0  0  0  0  0  0
  -28.7240  -13.3340   20.5440 C   0  0  0  0  0  2  0  0  0  0  0  0
  -29.9410  -13.7410   19.8320 N   0  0  0  0  0  0  0  0  0  0  0  0
  -31.7470  -15.0310   19.5280 O   0  0  0  0  0  0  0  0  0  0  0  0
  -29.8000  -16.2060   20.0160 N   0  0  0  0  0  0  0  0  0  0  0  0
  -28.8170  -16.0180   20.1440 H   0  0  0  0  0  0  0  0  0  0  0  0
  -25.2960  -13.9030   20.4570 C   0  0  0  0  0  0  0  0  0  0  0  0
  -24.2440  -13.1440   20.8820 C   0  0  0  0  0  0  0  0  0  0  0  0
  -24.6640  -11.7830   20.7670 C   0  0  0  0  0  0  0  0  0  0  0  0
  -26.2910  -13.0100   20.1050 N   0  0  0  0  0  0  0  0  0  0  0  0
  -25.9260  -11.7250   20.3550 N   0  0  0  0  0  0  0  0  0  0  0  0
  -23.9160  -10.5340   20.9710 C   0  0  0  0  0  0  0  0  0  0  0  0
  -24.3800   -9.5290   21.8490 C   0  0  0  0  0  3  0  0  0  0  0  0
  -23.6340   -8.3460   22.0420 C   0  0  0  0  0  3  0  0  0  0  0  0
  -22.4080   -8.1610   21.3600 C   0  0  0  0  0  0  0  0  0  0  0  0
  -21.9590   -9.1550   20.4730 C   0  0  0  0  0  3  0  0  0  0  0  0
  -22.7060  -10.3300   20.2770 C   0  0  0  0  0  3  0  0  0  0  0  0
  -21.6290   -7.0340   21.4630 O   0  0  0  0  0  0  0  0  0  0  0  0
  -21.6290   -6.2620   22.5960 C   0  0  0  0  0  0  0  0  0  0  0  0
  -21.2910   -6.7940   23.8590 C   0  0  0  0  0  3  0  0  0  0  0  0
  -21.2410   -5.9500   24.9860 C   0  0  0  0  0  3  0  0  0  0  0  0
  -21.5160   -4.5770   24.8520 C   0  0  0  0  0  0  0  0  0  0  0  0
  -21.8460   -4.0440   23.5930 C   0  0  0  0  0  3  0  0  0  0  0  0
  -21.9020   -4.8840   22.4680 C   0  0  0  0  0  0  0  0  0  0  0  0
  -22.2020   -4.3640   21.2540 F   0  0  0  0  0  0  0  0  0  0  0  0
  -21.4580   -3.7640   25.9330 F   0  0  0  0  0  0  0  0  0  0  0  0
  -22.8870  -13.6460   21.2780 C   0  0  0  0  0  0  0  0  0  0  0  0
  -22.2100  -12.9370   22.1730 N   0  0  0  0  0  0  0  0  0  0  0  0
  -22.4410  -14.7030   20.8290 O   0  0  0  0  0  0  0  0  0  0  0  0
  -22.5860  -12.0780   22.5460 H   0  0  0  0  0  0  0  0  0  0  0  0
  -21.3040  -13.2530   22.4870 H   0  0  0  0  0  0  0  0  0  0  0  0
  -25.4820  -15.2750   20.3090 N   0  0  0  0  0  0  0  0  0  0  0  0
  -24.7330  -15.9360   20.4780 H   0  0  0  0  0  0  0  0  0  0  0  0
  -26.2900  -15.6930   19.8700 H   0  0  0  0  0  0  0  0  0  0  0  0
  -27.9530  -24.5080   19.8550 C   0  0  0  0  0  2  0  0  0  0  0  0
  -28.2310  -26.0220   20.2240 O   0  0  0  0  0  0  0  0  0  0  0  0
  -24.6120  -31.7850   23.1690 C   0  0  0  0  0  0  0  0  0  0  0  0
  -27.2030  -27.0490   20.1320 C   0  0  0  0  0  0  0  0  0  0  0  0
  -23.4280  -30.4040   21.5040 C   0  0  0  0  0  3  0  0  0  0  0  0
  -24.8930  -28.8370   20.0790 C   0  0  0  0  0  0  0  0  0  0  0  0
  -25.9880  -30.6540   21.3770 C   0  0  0  0  0  2  0  0  0  0  0  0
  -26.0670  -29.2620   20.7140 C   0  0  0  0  0  0  0  0  0  0  0  0
  -27.2210  -28.3840   20.7250 C   0  0  0  0  0  3  0  0  0  0  0  0
  -26.0060  -26.7450   19.4480 C   0  0  0  0  0  3  0  0  0  0  0  0
  -24.8790  -27.5960   19.4290 C   0  0  0  0  0  3  0  0  0  0  0  0
  -23.6670  -29.7370   20.1220 C   0  0  0  0  0  2  0  0  0  0  0  0
  -24.6960  -30.9700   22.0730 N   0  0  0  0  0  0  0  0  0  0  0  0
  -23.5200  -32.0680   23.6860 O   0  0  0  0  0  0  0  0  0  0  0  0
  -22.7330  -29.3940   22.4520 C   0  0  0  0  0  0  0  0  0  0  0  0
  -21.4000  -29.2550   22.3370 N   0  0  0  0  0  0  0  0  0  0  0  0
  -23.3980  -28.7360   23.2570 O   0  0  0  0  0  0  0  0  0  0  0  0
  -20.9190  -29.8340   21.6640 H   0  0  0  0  0  0  0  0  0  0  0  0
  -17.9950  -28.1400   22.8810 C   0  0  0  0  0  0  0  0  0  0  0  0
  -20.5650  -28.3190   23.0970 C   0  0  0  0  0  3  0  0  0  0  0  0
  -20.6090  -26.9020   22.4760 C   0  0  0  0  0  2  0  0  0  0  0  0
  -19.4760  -26.6460   21.4770 C   0  0  0  0  0  2  0  0  0  0  0  0
  -18.1140  -26.8110   22.1570 C   0  0  0  0  0  2  0  0  0  0  0  0
  -19.1440  -28.8560   23.3080 C   0  0  0  0  0  0  0  0  0  0  0  0
  -18.9730  -30.1030   23.9480 C   0  0  0  0  0  3  0  0  0  0  0  0
  -17.6860  -30.6340   24.1600 C   0  0  0  0  0  3  0  0  0  0  0  0
  -16.5520  -29.9140   23.7460 C   0  0  0  0  0  3  0  0  0  0  0  0
  -16.7070  -28.6680   23.1150 C   0  0  0  0  0  3  0  0  0  0  0  0
  -25.8840  -32.4160   23.8160 C   0  0  0  0  0  3  0  0  0  0  0  0
  -26.3740  -31.6410   25.1010 C   0  0  1  0  0  0  0  0  0  0  0  0
  -25.2610  -31.4110   26.1490 C   0  0  0  0  0  1  0  0  0  0  0  0
  -26.9550  -30.2570   24.7270 C   0  0  0  0  0  1  0  0  0  0  0  0
  -27.5170  -32.4290   25.7840 C   0  0  0  0  0  1  0  0  0  0  0  0
  -25.5700  -33.8150   24.1480 N   0  0  0  0  0  0  0  0  0  0  0  0
  -25.9000  -34.8740   23.3960 C   0  0  0  0  0  0  0  0  0  0  0  0
  -26.5640  -34.7740   22.3600 O   0  0  0  0  0  0  0  0  0  0  0  0
  -24.9770  -33.9650   24.9530 H   0  0  0  0  0  0  0  0  0  0  0  0
  -24.1630  -36.6680   23.0720 C   0  0  0  0  0  1  0  0  0  0  0  0
  -25.4180  -36.2630   23.8620 C   0  0  0  0  0  3  0  0  0  0  0  0
  -27.5650  -37.1530   24.6600 C   0  0  0  0  0  1  0  0  0  0  0  0
  -26.4480  -37.3170   23.7320 N   0  0  0  0  0  0  0  0  0  0  0  0
  -26.0440  -38.2370   23.8800 H   0  0  0  0  0  0  0  0  0  0  0  0
  1  2  2  0
  2  5  1  0
  3  1  1  0
  4  6  2  0
  6  2  1  0
  7  4  1  0
  7  3  2  0
 10  8  1  6
 10 11  1  0
 10  4  1  0
 10  9  1  0
 12 20  1  0
 13 18  1  0
 14 15  1  0
 14 13  1  0
 16 15  1  0
 16 25  1  0
 16 17  1  0
 18 12  1  0
 18 17  1  0
 19 12  2  0
 20 11  1  0
 20 21  1  0
 22 23  2  0
 23 42  1  0
 24 23  1  0
 24 27  1  0
 25 26  1  0
 25 22  1  0
 26 24  2  0
 27 28  1  0
 28 29  2  0
 30 33  1  0
 30 29  1  0
 31 30  2  0
 32 31  1  0
 32 27  2  0
 33 34  1  0
 34 35  1  0
 35 36  2  0
 37 36  1  0
 37 41  1  0
 38 37  2  0
 39 34  2  0
 39 38  1  0
 40 39  1  0
 42 43  1  0
 43 46  1  0
 43 45  1  0
 44 42  2  0
 47 22  1  0
 47 48  1  0
 49 47  1  0
 50  3  1  0
 50 51  1  0
 52 63  2  0
 53 51  1  0
 53 58  1  0
 54 62  1  0
 54 64  1  0
 55 61  1  0
 55 57  1  0
 56 62  1  0
 57 58  2  0
 57 56  1  0
 59 53  2  0
 60 59  1  0
 60 55  2  0
 61 54  1  0
 62 52  1  0
 64 66  2  0
 65 64  1  0
 67 65  1  0
 68 77  2  0
 68 73  1  0
 69 65  1  0
 69 73  1  0
 70 69  1  0
 71 72  1  0
 71 70  1  0
 72 68  1  0
 73 74  2  0
 74 75  1  0
 76 75  2  0
 77 76  1  0
 78 52  1  0
 78 83  1  0
 78 79  1  0
 79 82  1  1
 79 80  1  0
 81 79  1  0
 83 86  1  0
 84 88  1  0
 84 83  1  0
 85 84  2  0
 88 87  1  0
 90 88  1  0
 90 91  1  0
 90 89  1  0
M  ISO  4  12 100  20 100  50 101  51 101
M  END
>  <TORSDO>  (32) 
F 19

>  <SCORE>  (32) 
-14.066

>  <name>  (32) 
33

>  <ligand_id>  (32) 
33

>  <original_smiles>  (32) 
[H]c1c(C([H])([H])[H])nc(C(C([H])([H])[H])(C([H])([H])[H])C([H])([H])N([H])C(=O)N2C([H])([H])C([H])([H])C([H])([H])C([H])(n3nc(-c4c([H])c([H])c(Oc5c([H])c([H])c(F)c([H])c5F)c([H])c4[H])c(C(=O)N([H])[H])c3N([H])[H])C2([H])[H])nc1C([H])([H])Oc1c([H])c([H])c2c(c1[H])C([H])([H])N(C(=O)C([H])(N([H])C(=O)C([H])(N([H])C([H])([H])[H])C([H])([H])[H])C(C([H])([H])[H])(C([H])([H])[H])C([H])([H])[H])C([H])(C(=O)N([H])C1([H])c3c([H])c([H])c([H])c([H])c3C([H])([H])C([H])([H])C1([H])[H])C2([H])[H]

>  <smiles>  (32) 
[H]c1c(C([H])([H])[H])nc(C(C([H])([H])[H])(C([H])([H])[H])C([H])([H])N([H])C(=O)N2C([H])([H])C([H])([H])C([H])([H])C([H])(n3nc(-c4c([H])c([H])c(Oc5c([H])c([H])c(F)c([H])c5F)c([H])c4[H])c(C(=O)N([H])[H])c3N([H])[H])C2([H])[H])nc1C([H])([H])Oc1c([H])c([H])c2c(c1[H])C([H])([H])N(C(=O)C([H])(N([H])C(=O)C([H])(N([H])C([H])([H])[H])C([H])([H])[H])C(C([H])([H])[H])(C([H])([H])[H])C([H])([H])[H])C([H])(C(=O)N([H])C1([H])c3c([H])c([H])c([H])c([H])c3C([H])([H])C([H])([H])C1([H])[H])C2([H])[H]

$$$$
34:0:0
     RDKit          3D

 91 99  0  0  1  0  0  0  0  0999 V2000
  -30.9900  -22.3730   19.6540 C   0  0  0  0  0  0  0  0  0  0  0  0
  -28.9090  -23.1950   19.9590 C   0  0  0  0  0  0  0  0  0  0  0  0
  -29.4010  -20.8010   19.9610 C   0  0  0  0  0  0  0  0  0  0  0  0
  -32.4540  -22.6630   19.3910 C   0  0  0  0  0  1  0  0  0  0  0  0
  -30.1970  -23.4470   19.7430 N   0  0  0  0  0  4  0  0  0  0  0  0
  -30.6820  -21.0770   19.7600 N   0  0  0  0  0  0  0  0  0  0  0  0
  -28.4790  -21.8580   20.0760 N   0  0  0  0  0  2  0  0  0  0  0  0
  -27.8070  -18.8890   19.2630 C   0  0  0  0  0  1  0  0  0  0  0  0
  -28.6670  -18.9640   21.6200 C   0  0  0  0  0  1  0  0  0  0  0  0
  -29.0400  -19.1610   20.1420 C   0  0  2  0  0  0  0  0  0  0  0  0
  -30.1050  -17.8490   19.8020 C   0  0  0  0  0  2  0  0  0  0  0  0
  -30.6040  -15.0850   19.8590 C   0  0  0  0  0  0  0  0  0  0  0  0
  -30.4830  -12.7010   18.9660 C   0  0  0  0  0  2  0  0  0  0  0  0
  -29.4750  -12.5960   17.7960 C   0  0  0  0  0  2  0  0  0  0  0  0
  -28.0520  -12.3500   18.3280 C   0  0  0  0  0  2  0  0  0  0  0  0
  -27.6960  -13.2870   19.5110 C   0  0  0  0  0  3  0  0  0  0  0  0
  -28.8200  -13.3600   20.5660 C   0  0  0  0  0  2  0  0  0  0  0  0
  -30.0320  -13.8060   19.8680 N   0  0  0  0  0  0  0  0  0  0  0  0
  -31.7830  -15.1510   19.4970 O   0  0  0  0  0  0  0  0  0  0  0  0
  -29.8270  -16.2790   20.0450 N   0  0  0  0  0  0  0  0  0  0  0  0
  -28.8790  -16.0790   20.3290 H   0  0  0  0  0  0  0  0  0  0  0  0
  -25.3850  -13.8260   20.4610 C   0  0  0  0  0  0  0  0  0  0  0  0
  -24.3500  -13.0350   20.8770 C   0  0  0  0  0  0  0  0  0  0  0  0
  -24.8070  -11.6880   20.7510 C   0  0  0  0  0  0  0  0  0  0  0  0
  -26.4030  -12.9610   20.1010 N   0  0  0  0  0  0  0  0  0  0  0  0
  -26.0710  -11.6660   20.3420 N   0  0  0  0  0  0  0  0  0  0  0  0
  -24.0930  -10.4170   20.9390 C   0  0  0  0  0  0  0  0  0  0  0  0
  -24.5230   -9.4610   21.8850 C   0  0  0  0  0  3  0  0  0  0  0  0
  -23.8060   -8.2570   22.0620 C   0  0  0  0  0  3  0  0  0  0  0  0
  -22.6470   -8.0010   21.2920 C   0  0  0  0  0  0  0  0  0  0  0  0
  -22.2360   -8.9460   20.3360 C   0  0  0  0  0  3  0  0  0  0  0  0
  -22.9530  -10.1420   20.1570 C   0  0  0  0  0  3  0  0  0  0  0  0
  -21.9020   -6.8490   21.3790 O   0  0  0  0  0  0  0  0  0  0  0  0
  -21.7520   -6.1780   22.5640 C   0  0  0  0  0  0  0  0  0  0  0  0
  -21.1910   -6.7930   23.7030 C   0  0  0  0  0  3  0  0  0  0  0  0
  -20.9900   -6.0450   24.8820 C   0  0  0  0  0  3  0  0  0  0  0  0
  -21.3400   -4.6820   24.9180 C   0  0  0  0  0  0  0  0  0  0  0  0
  -21.8930   -4.0660   23.7820 C   0  0  0  0  0  3  0  0  0  0  0  0
  -22.0950   -4.8110   22.6080 C   0  0  0  0  0  0  0  0  0  0  0  0
  -22.6090   -4.2070   21.5090 F   0  0  0  0  0  0  0  0  0  0  0  0
  -21.1400   -3.9610   26.0470 F   0  0  0  0  0  0  0  0  0  0  0  0
  -22.9790  -13.4990   21.2720 C   0  0  0  0  0  0  0  0  0  0  0  0
  -22.3210  -12.7720   22.1680 N   0  0  0  0  0  0  0  0  0  0  0  0
  -22.5040  -14.5420   20.8230 O   0  0  0  0  0  0  0  0  0  0  0  0
  -22.7220  -11.9280   22.5490 H   0  0  0  0  0  0  0  0  0  0  0  0
  -21.4050  -13.0630   22.4780 H   0  0  0  0  0  0  0  0  0  0  0  0
  -25.5370  -15.2040   20.3290 N   0  0  0  0  0  0  0  0  0  0  0  0
  -24.7760  -15.8480   20.5110 H   0  0  0  0  0  0  0  0  0  0  0  0
  -26.3390  -15.6490   19.9020 H   0  0  0  0  0  0  0  0  0  0  0  0
  -27.8990  -24.5380   19.9800 C   0  0  0  0  0  2  0  0  0  0  0  0
  -28.2550  -26.0880   20.0070 O   0  0  0  0  0  0  0  0  0  0  0  0
  -24.6370  -31.7930   23.1270 C   0  0  0  0  0  0  0  0  0  0  0  0
  -27.2210  -27.1160   19.9810 C   0  0  0  0  0  0  0  0  0  0  0  0
  -23.4490  -30.4460   21.4430 C   0  0  0  0  0  3  0  0  0  0  0  0
  -24.9040  -28.9080   19.9820 C   0  0  0  0  0  0  0  0  0  0  0  0
  -26.0100  -30.7000   21.3040 C   0  0  0  0  0  2  0  0  0  0  0  0
  -26.0850  -29.3210   20.6140 C   0  0  0  0  0  0  0  0  0  0  0  0
  -27.2430  -28.4440   20.5930 C   0  0  0  0  0  3  0  0  0  0  0  0
  -26.0120  -26.8290   19.3080 C   0  0  0  0  0  3  0  0  0  0  0  0
  -24.8850  -27.6780   19.3110 C   0  0  0  0  0  3  0  0  0  0  0  0
  -23.6810  -29.8110   20.0470 C   0  0  0  0  0  2  0  0  0  0  0  0
  -24.7190  -31.0010   22.0130 N   0  0  0  0  0  0  0  0  0  0  0  0
  -23.5470  -32.0630   23.6550 O   0  0  0  0  0  0  0  0  0  0  0  0
  -22.7610  -29.4150   22.3730 C   0  0  0  0  0  0  0  0  0  0  0  0
  -21.4280  -29.2720   22.2580 N   0  0  0  0  0  0  0  0  0  0  0  0
  -23.4300  -28.7430   23.1630 O   0  0  0  0  0  0  0  0  0  0  0  0
  -20.9450  -29.8630   21.5960 H   0  0  0  0  0  0  0  0  0  0  0  0
  -18.0250  -28.1520   22.8060 C   0  0  0  0  0  0  0  0  0  0  0  0
  -20.5990  -28.3180   23.0010 C   0  0  0  0  0  3  0  0  0  0  0  0
  -20.6350  -26.9190   22.3430 C   0  0  0  0  0  2  0  0  0  0  0  0
  -19.4910  -26.6900   21.3500 C   0  0  0  0  0  2  0  0  0  0  0  0
  -18.1360  -26.8400   22.0460 C   0  0  0  0  0  2  0  0  0  0  0  0
  -19.1810  -28.8540   23.2400 C   0  0  0  0  0  0  0  0  0  0  0  0
  -19.0210  -30.0830   23.9140 C   0  0  0  0  0  3  0  0  0  0  0  0
  -17.7380  -30.6110   24.1560 C   0  0  0  0  0  3  0  0  0  0  0  0
  -16.5980  -29.9070   23.7350 C   0  0  0  0  0  3  0  0  0  0  0  0
  -16.7410  -28.6770   23.0660 C   0  0  0  0  0  3  0  0  0  0  0  0
  -25.9090  -32.4140   23.7790 C   0  0  0  0  0  3  0  0  0  0  0  0
  -26.4030  -31.6170   25.0510 C   0  0  1  0  0  0  0  0  0  0  0  0
  -25.2930  -31.3660   26.0990 C   0  0  0  0  0  1  0  0  0  0  0  0
  -26.9870  -30.2440   24.6480 C   0  0  0  0  0  1  0  0  0  0  0  0
  -27.5450  -32.3950   25.7450 C   0  0  0  0  0  1  0  0  0  0  0  0
  -25.5960  -33.8060   24.1400 N   0  0  0  0  0  0  0  0  0  0  0  0
  -25.9070  -34.8780   23.3990 C   0  0  0  0  0  0  0  0  0  0  0  0
  -26.5550  -34.7990   22.3520 O   0  0  0  0  0  0  0  0  0  0  0  0
  -25.0210  -33.9420   24.9580 H   0  0  0  0  0  0  0  0  0  0  0  0
  -24.1490  -36.6610   23.1450 C   0  0  0  0  0  1  0  0  0  0  0  0
  -25.4280  -36.2550   23.8960 C   0  0  0  0  0  3  0  0  0  0  0  0
  -27.5820  -37.1570   24.6550 C   0  0  0  0  0  1  0  0  0  0  0  0
  -26.4430  -37.3220   23.7550 N   0  0  0  0  0  0  0  0  0  0  0  0
  -26.0330  -38.2360   23.9270 H   0  0  0  0  0  0  0  0  0  0  0  0
  1  5  2  0
  1  6  1  0
  2 50  1  0
  2  7  1  0
  3  7  1  0
  3 10  1  0
  4  1  1  0
  5  2  2  0
  6  3  2  0
 10  8  1  6
 10  9  1  0
 11 20  1  0
 11 10  1  0
 12 18  1  0
 12 20  1  0
 13 18  1  0
 14 15  1  0
 14 13  1  0
 16 15  1  0
 16 25  1  0
 16 17  1  0
 18 17  1  0
 19 12  2  0
 20 21  1  0
 22 23  2  0
 23 42  1  0
 24 23  1  0
 24 27  1  0
 25 26  1  0
 25 22  1  0
 26 24  2  0
 27 28  1  0
 28 29  2  0
 30 33  1  0
 30 29  1  0
 31 30  2  0
 32 31  1  0
 32 27  2  0
 33 34  1  0
 34 39  2  0
 34 35  1  0
 35 36  2  0
 36 37  1  0
 37 41  1  0
 38 37  2  0
 39 38  1  0
 40 39  1  0
 42 43  1  0
 43 46  1  0
 43 45  1  0
 44 42  2  0
 47 22  1  0
 47 48  1  0
 49 47  1  0
 50 51  1  0
 52 63  2  0
 53 51  1  0
 53 58  1  0
 54 62  1  0
 54 64  1  0
 55 61  1  0
 55 57  1  0
 56 62  1  0
 57 56  1  0
 58 57  2  0
 59 60  1  0
 59 53  2  0
 60 55  2  0
 61 54  1  0
 62 52  1  0
 64 66  2  0
 65 64  1  0
 67 65  1  0
 68 77  2  0
 68 73  1  0
 69 65  1  0
 69 73  1  0
 70 69  1  0
 71 72  1  0
 71 70  1  0
 72 68  1  0
 73 74  2  0
 74 75  1  0
 76 75  2  0
 77 76  1  0
 78 52  1  0
 78 83  1  0
 78 79  1  0
 79 82  1  1
 79 80  1  0
 81 79  1  0
 83 86  1  0
 84 88  1  0
 84 83  1  0
 85 84  2  0
 88 87  1  0
 90 88  1  0
 90 91  1  0
 90 89  1  0
M  ISO  4  12 100  20 100  50 101  51 101
M  END
>  <TORSDO>  (33) 
F 19

>  <SCORE>  (33) 
-13.158

>  <name>  (33) 
34

>  <ligand_id>  (33) 
34

>  <original_smiles>  (33) 
[H]c1c([H])c([H])c2c(c1[H])C([H])([H])C([H])([H])C([H])([H])C2([H])N([H])C(=O)C1([H])N(C(=O)C([H])(N([H])C(=O)C([H])(N([H])C([H])([H])[H])C([H])([H])[H])C(C([H])([H])[H])(C([H])([H])[H])C([H])([H])[H])C([H])([H])c2c([H])c(OC([H])([H])c3nc(C([H])([H])[H])nc(C(C([H])([H])[H])(C([H])([H])[H])C([H])([H])N([H])C(=O)N4C([H])([H])C([H])([H])C([H])([H])C([H])(n5nc(-c6c([H])c([H])c(Oc7c([H])c([H])c(F)c([H])c7F)c([H])c6[H])c(C(=O)N([H])[H])c5N([H])[H])C4([H])[H])n3)c([H])c([H])c2C1([H])[H]

>  <smiles>  (33) 
[H]c1c([H])c([H])c2c(c1[H])C([H])([H])C([H])([H])C([H])([H])C2([H])N([H])C(=O)C1([H])N(C(=O)C([H])(N([H])C(=O)C([H])(N([H])C([H])([H])[H])C([H])([H])[H])C(C([H])([H])[H])(C([H])([H])[H])C([H])([H])[H])C([H])([H])c2c([H])c(OC([H])([H])c3nc(C([H])([H])[H])nc(C(C([H])([H])[H])(C([H])([H])[H])C([H])([H])N([H])C(=O)N4C([H])([H])C([H])([H])C([H])([H])C([H])(n5nc(-c6c([H])c([H])c(Oc7c([H])c([H])c(F)c([H])c7F)c([H])c6[H])c(C(=O)N([H])[H])c5N([H])[H])C4([H])[H])n3)c([H])c([H])c2C1([H])[H]

$$$$
35:0:0
     RDKit          3D

 92100  0  0  1  0  0  0  0  0999 V2000
  -31.5410  -20.8250   21.0480 C   0  0  0  0  0  3  0  0  0  0  0  0
  -30.2770  -20.9950   21.6630 C   0  0  0  0  0  0  0  0  0  0  0  0
  -31.6460  -19.6210   20.5540 N   0  0  0  0  0  0  0  0  0  0  0  0
  -29.5940  -19.8790   21.5430 N   0  0  0  0  0  0  0  0  0  0  0  0
  -30.4290  -19.0720   20.8180 N   0  0  0  0  0  0  0  0  0  0  0  0
  -28.5560  -17.5320   20.2820 C   0  0  0  0  0  1  0  0  0  0  0  0
  -30.6960  -17.4430   19.0040 C   0  0  0  0  0  1  0  0  0  0  0  0
  -30.0890  -17.6960   20.4060 C   0  0  1  0  0  0  0  0  0  0  0  0
  -30.6480  -16.6870   21.4580 C   0  0  0  0  0  2  0  0  0  0  0  0
  -30.7660  -14.4080   20.4180 C   0  0  0  0  0  0  0  0  0  0  0  0
  -30.3810  -12.3380   19.1430 C   0  0  0  0  0  2  0  0  0  0  0  0
  -29.4190  -12.5910   17.9640 C   0  0  0  0  0  2  0  0  0  0  0  0
  -27.9510  -12.4600   18.4140 C   0  0  0  0  0  2  0  0  0  0  0  0
  -27.6510  -13.2790   19.6950 C   0  0  0  0  0  3  0  0  0  0  0  0
  -28.7100  -12.9960   20.7850 C   0  0  0  0  0  2  0  0  0  0  0  0
  -30.0440  -13.2770   20.2200 N   0  0  0  0  0  0  0  0  0  0  0  0
  -31.8320  -14.6420   19.8390 O   0  0  0  0  0  0  0  0  0  0  0  0
  -30.2050  -15.3010   21.2410 N   0  0  0  0  0  0  0  0  0  0  0  0
  -29.3590  -15.0080   21.7080 H   0  0  0  0  0  0  0  0  0  0  0  0
  -25.2620  -13.9200   20.4110 C   0  0  0  0  0  0  0  0  0  0  0  0
  -24.1890  -13.1580   20.7960 C   0  0  0  0  0  0  0  0  0  0  0  0
  -24.6400  -11.8040   20.7760 C   0  0  0  0  0  0  0  0  0  0  0  0
  -26.2960  -13.0270   20.1820 N   0  0  0  0  0  0  0  0  0  0  0  0
  -25.9260  -11.7500   20.4560 N   0  0  0  0  0  0  0  0  0  0  0  0
  -23.9060  -10.5470   20.9840 C   0  0  0  0  0  0  0  0  0  0  0  0
  -24.3500   -9.5800   21.9130 C   0  0  0  0  0  3  0  0  0  0  0  0
  -23.6190   -8.3880   22.1080 C   0  0  0  0  0  3  0  0  0  0  0  0
  -22.4330   -8.1550   21.3730 C   0  0  0  0  0  0  0  0  0  0  0  0
  -22.0100   -9.1100   20.4310 C   0  0  0  0  0  3  0  0  0  0  0  0
  -22.7410  -10.2930   20.2350 C   0  0  0  0  0  3  0  0  0  0  0  0
  -21.6720   -7.0160   21.4770 O   0  0  0  0  0  0  0  0  0  0  0  0
  -21.6430   -6.2740   22.6310 C   0  0  0  0  0  0  0  0  0  0  0  0
  -21.2630   -6.8350   23.8700 C   0  0  0  0  0  3  0  0  0  0  0  0
  -21.1800   -6.0190   25.0150 C   0  0  0  0  0  3  0  0  0  0  0  0
  -21.4680   -4.6440   24.9240 C   0  0  0  0  0  0  0  0  0  0  0  0
  -21.8430   -4.0820   23.6900 C   0  0  0  0  0  3  0  0  0  0  0  0
  -21.9280   -4.8960   22.5470 C   0  0  0  0  0  0  0  0  0  0  0  0
  -22.2690   -4.3460   21.3560 F   0  0  0  0  0  0  0  0  0  0  0  0
  -21.3820   -3.8580   26.0230 F   0  0  0  0  0  0  0  0  0  0  0  0
  -22.7980  -13.6480   21.0770 C   0  0  0  0  0  0  0  0  0  0  0  0
  -22.0760  -12.9650   21.9600 N   0  0  0  0  0  0  0  0  0  0  0  0
  -22.3610  -14.6700   20.5520 O   0  0  0  0  0  0  0  0  0  0  0  0
  -22.4430  -12.1390   22.4090 H   0  0  0  0  0  0  0  0  0  0  0  0
  -21.1410  -13.2730   22.1910 H   0  0  0  0  0  0  0  0  0  0  0  0
  -25.4420  -15.2870   20.2200 N   0  0  0  0  0  0  0  0  0  0  0  0
  -24.6960  -15.9630   20.3410 H   0  0  0  0  0  0  0  0  0  0  0  0
  -26.3030  -15.7020   19.8900 H   0  0  0  0  0  0  0  0  0  0  0  0
  -29.7420  -22.2620   22.2710 C   0  0  0  0  0  2  0  0  0  0  0  0
  -28.9310  -23.0710   21.2430 C   0  0  0  0  0  2  0  0  0  0  0  0
  -29.0020  -24.6030   21.3930 C   0  0  0  0  0  2  0  0  0  0  0  0
  -28.1590  -25.2760   20.2980 C   0  0  0  0  0  2  0  0  0  0  0  0
  -28.3460  -26.6970   20.2470 O   0  0  0  0  0  0  0  0  0  0  0  0
  -24.5770  -31.8920   23.2420 C   0  0  0  0  0  0  0  0  0  0  0  0
  -27.1950  -27.4510   20.1720 C   0  0  0  0  0  0  0  0  0  0  0  0
  -23.3630  -30.5010   21.5960 C   0  0  0  0  0  3  0  0  0  0  0  0
  -24.8100  -28.9720   20.1580 C   0  0  0  0  0  0  0  0  0  0  0  0
  -25.8920  -30.8530   21.3990 C   0  0  0  0  0  2  0  0  0  0  0  0
  -25.9700  -29.4880   20.7530 C   0  0  0  0  0  0  0  0  0  0  0  0
  -27.1650  -28.7360   20.7550 C   0  0  0  0  0  3  0  0  0  0  0  0
  -26.0250  -26.9690   19.5370 C   0  0  0  0  0  3  0  0  0  0  0  0
  -24.8350  -27.7130   19.5410 C   0  0  0  0  0  3  0  0  0  0  0  0
  -23.5670  -29.8290   20.2120 C   0  0  0  0  0  2  0  0  0  0  0  0
  -24.6300  -31.0960   22.1370 N   0  0  0  0  0  0  0  0  0  0  0  0
  -23.4990  -32.1660   23.7880 O   0  0  0  0  0  0  0  0  0  0  0  0
  -22.7140  -29.4740   22.5530 C   0  0  0  0  0  0  0  0  0  0  0  0
  -21.3860  -29.3010   22.4330 N   0  0  0  0  0  0  0  0  0  0  0  0
  -23.3990  -28.8390   23.3590 O   0  0  0  0  0  0  0  0  0  0  0  0
  -20.8960  -29.8660   21.7530 H   0  0  0  0  0  0  0  0  0  0  0  0
  -18.0050  -28.1380   22.9460 C   0  0  0  0  0  0  0  0  0  0  0  0
  -20.5670  -28.3670   23.2060 C   0  0  0  0  0  3  0  0  0  0  0  0
  -20.6500  -26.9380   22.6220 C   0  0  0  0  0  2  0  0  0  0  0  0
  -19.5390  -26.6310   21.6140 C   0  0  0  0  0  2  0  0  0  0  0  0
  -18.1620  -26.7890   22.2650 C   0  0  0  0  0  2  0  0  0  0  0  0
  -19.1340  -28.8850   23.3740 C   0  0  0  0  0  0  0  0  0  0  0  0
  -18.9290  -30.1510   23.9670 C   0  0  0  0  0  3  0  0  0  0  0  0
  -17.6310  -30.6650   24.1400 C   0  0  0  0  0  3  0  0  0  0  0  0
  -16.5170  -29.9110   23.7300 C   0  0  0  0  0  3  0  0  0  0  0  0
  -16.7050  -28.6500   23.1380 C   0  0  0  0  0  3  0  0  0  0  0  0
  -25.8690  -32.5180   23.8570 C   0  0  0  0  0  3  0  0  0  0  0  0
  -25.5650  -33.9150   24.1900 N   0  0  0  0  0  0  0  0  0  0  0  0
  -25.8950  -34.9670   23.4290 C   0  0  0  0  0  0  0  0  0  0  0  0
  -26.5610  -34.8620   22.3950 O   0  0  0  0  0  0  0  0  0  0  0  0
  -24.9810  -34.0680   24.9980 H   0  0  0  0  0  0  0  0  0  0  0  0
  -24.1680  -36.7610   23.0810 C   0  0  0  0  0  1  0  0  0  0  0  0
  -25.4120  -36.3560   23.8890 C   0  0  0  0  0  3  0  0  0  0  0  0
  -27.5510  -37.2350   24.7100 C   0  0  0  0  0  1  0  0  0  0  0  0
  -26.4460  -37.4060   23.7720 N   0  0  0  0  0  0  0  0  0  0  0  0
  -26.0420  -38.3280   23.9210 H   0  0  0  0  0  0  0  0  0  0  0  0
  -26.3890  -31.7420   25.1290 C   0  0  1  0  0  0  0  0  0  0  0  0
  -25.3010  -31.5040   26.2020 C   0  0  0  0  0  1  0  0  0  0  0  0
  -26.9680  -30.3640   24.7310 C   0  0  0  0  0  1  0  0  0  0  0  0
  -27.5440  -32.5310   25.7900 C   0  0  0  0  0  1  0  0  0  0  0  0
  1  2  1  0
  2 48  1  0
  3  5  1  0
  3  1  2  0
  4  2  2  0
  5  4  1  0
  8  6  1  6
  7  8  1  0
  8  5  1  0
  8  9  1  0
 10 18  1  0
 11 16  1  0
 12 13  1  0
 12 11  1  0
 14 13  1  0
 14 23  1  0
 14 15  1  0
 16 10  1  0
 16 15  1  0
 17 10  2  0
 18  9  1  0
 18 19  1  0
 20 21  2  0
 21 40  1  0
 22 21  1  0
 22 25  1  0
 23 20  1  0
 23 24  1  0
 24 22  2  0
 25 26  1  0
 26 27  2  0
 28 31  1  0
 28 27  1  0
 29 28  2  0
 30 29  1  0
 30 25  2  0
 31 32  1  0
 32 33  1  0
 33 34  2  0
 35 34  1  0
 35 39  1  0
 36 35  2  0
 37 32  2  0
 37 36  1  0
 38 37  1  0
 40 41  1  0
 41 44  1  0
 41 43  1  0
 42 40  2  0
 45 46  1  0
 45 20  1  0
 47 45  1  0
 49 50  1  0
 49 48  1  0
 51 50  1  0
 52 51  1  0
 53 64  2  0
 54 52  1  0
 54 59  1  0
 55 63  1  0
 55 65  1  0
 56 62  1  0
 56 58  1  0
 57 63  1  0
 58 59  2  0
 58 57  1  0
 60 61  1  0
 60 54  2  0
 61 56  2  0
 62 55  1  0
 63 53  1  0
 65 67  2  0
 66 65  1  0
 68 66  1  0
 69 78  2  0
 69 74  1  0
 70 66  1  0
 70 74  1  0
 71 70  1  0
 72 73  1  0
 72 71  1  0
 73 69  1  0
 74 75  2  0
 75 76  1  0
 77 76  2  0
 78 77  1  0
 79 53  1  0
 79 80  1  0
 79 89  1  0
 80 83  1  0
 81 85  1  0
 81 80  1  0
 82 81  2  0
 85 84  1  0
 87 85  1  0
 87 88  1  0
 87 86  1  0
 89 92  1  1
 89 90  1  0
 91 89  1  0
M  ISO  4  10 100  18 100  51 101  52 101
M  END
>  <TORSDO>  (34) 
F 22

>  <SCORE>  (34) 
-13.414

>  <name>  (34) 
35

>  <ligand_id>  (34) 
35

>  <original_smiles>  (34) 
[H]c1nn(C(C([H])([H])[H])(C([H])([H])[H])C([H])([H])N([H])C(=O)N2C([H])([H])C([H])([H])C([H])([H])C([H])(n3nc(-c4c([H])c([H])c(Oc5c([H])c([H])c(F)c([H])c5F)c([H])c4[H])c(C(=O)N([H])[H])c3N([H])[H])C2([H])[H])nc1C([H])([H])C([H])([H])C([H])([H])C([H])([H])Oc1c([H])c([H])c2c(c1[H])C([H])([H])N(C(=O)C([H])(N([H])C(=O)C([H])(N([H])C([H])([H])[H])C([H])([H])[H])C(C([H])([H])[H])(C([H])([H])[H])C([H])([H])[H])C([H])(C(=O)N([H])C1([H])c3c([H])c([H])c([H])c([H])c3C([H])([H])C([H])([H])C1([H])[H])C2([H])[H]

>  <smiles>  (34) 
[H]c1nn(C(C([H])([H])[H])(C([H])([H])[H])C([H])([H])N([H])C(=O)N2C([H])([H])C([H])([H])C([H])([H])C([H])(n3nc(-c4c([H])c([H])c(Oc5c([H])c([H])c(F)c([H])c5F)c([H])c4[H])c(C(=O)N([H])[H])c3N([H])[H])C2([H])[H])nc1C([H])([H])C([H])([H])C([H])([H])C([H])([H])Oc1c([H])c([H])c2c(c1[H])C([H])([H])N(C(=O)C([H])(N([H])C(=O)C([H])(N([H])C([H])([H])[H])C([H])([H])[H])C(C([H])([H])[H])(C([H])([H])[H])C([H])([H])[H])C([H])(C(=O)N([H])C1([H])c3c([H])c([H])c([H])c([H])c3C([H])([H])C([H])([H])C1([H])[H])C2([H])[H]

$$$$
36:0:0
     RDKit          3D

 94103  0  0  1  0  0  0  0  0999 V2000
  -27.4240  -20.2520   20.5400 C   0  0  0  0  0  1  0  0  0  0  0  0
  -28.8220  -20.7280   20.0960 C   0  0  0  0  0  3  0  0  0  0  0  0
  -30.8760  -14.6670   20.4250 C   0  0  0  0  0  0  0  0  0  0  0  0
  -30.5530  -12.4580   19.3660 C   0  0  0  0  0  2  0  0  0  0  0  0
  -29.6270  -12.6300   18.1450 C   0  0  0  0  0  2  0  0  0  0  0  0
  -28.1540  -12.4880   18.5720 C   0  0  0  0  0  2  0  0  0  0  0  0
  -27.8030  -13.3480   19.8170 C   0  0  0  0  0  3  0  0  0  0  0  0
  -28.8620  -13.2020   20.9350 C   0  0  0  0  0  2  0  0  0  0  0  0
  -30.1760  -13.4940   20.3480 N   0  0  0  0  0  0  0  0  0  0  0  0
  -32.0560  -14.6990   20.0630 O   0  0  0  0  0  0  0  0  0  0  0  0
  -29.6010  -18.2400   20.5380 C   0  0  0  0  0  3  0  0  0  0  0  0
  -32.1790  -18.7790   19.8510 C   0  0  0  0  0  3  0  0  0  0  0  0
  -29.9140  -19.6000   20.1780 C   0  0  0  0  0  0  0  0  0  0  0  0
  -31.2540  -19.8310   19.7660 C   0  0  0  0  0  0  0  0  0  0  0  0
  -30.5750  -17.1940   20.4930 C   0  0  0  0  0  0  0  0  0  0  0  0
  -31.7470  -21.1450   19.1700 C   0  0  0  0  0  1  0  0  0  0  0  0
  -31.8540  -17.5250   20.2040 N   0  0  0  0  0  0  0  0  0  0  0  0
  -30.1800  -15.8090   20.7180 N   0  0  0  0  0  0  0  0  0  0  0  0
  -29.2190  -15.6660   20.9850 H   0  0  0  0  0  0  0  0  0  0  0  0
  -25.4160  -13.9480   20.5500 C   0  0  0  0  0  0  0  0  0  0  0  0
  -24.3430  -13.1760   20.9060 C   0  0  0  0  0  0  0  0  0  0  0  0
  -24.7940  -11.8220   20.8480 C   0  0  0  0  0  0  0  0  0  0  0  0
  -26.4540  -13.0650   20.3000 N   0  0  0  0  0  0  0  0  0  0  0  0
  -26.0850  -11.7800   20.5390 N   0  0  0  0  0  0  0  0  0  0  0  0
  -24.0570  -10.5620   21.0130 C   0  0  0  0  0  0  0  0  0  0  0  0
  -24.4660   -9.5850   21.9470 C   0  0  0  0  0  3  0  0  0  0  0  0
  -23.7300   -8.3900   22.1020 C   0  0  0  0  0  3  0  0  0  0  0  0
  -22.5700   -8.1650   21.3230 C   0  0  0  0  0  0  0  0  0  0  0  0
  -22.1790   -9.1310   20.3800 C   0  0  0  0  0  3  0  0  0  0  0  0
  -22.9160  -10.3170   20.2240 C   0  0  0  0  0  3  0  0  0  0  0  0
  -21.8090   -7.0230   21.3880 O   0  0  0  0  0  0  0  0  0  0  0  0
  -21.7180   -6.2810   22.5380 C   0  0  0  0  0  0  0  0  0  0  0  0
  -21.2040   -6.8250   23.7360 C   0  0  0  0  0  3  0  0  0  0  0  0
  -21.0650   -6.0080   24.8760 C   0  0  0  0  0  3  0  0  0  0  0  0
  -21.4270   -4.6490   24.8180 C   0  0  0  0  0  0  0  0  0  0  0  0
  -21.9330   -4.1050   23.6240 C   0  0  0  0  0  3  0  0  0  0  0  0
  -22.0750   -4.9190   22.4860 C   0  0  0  0  0  0  0  0  0  0  0  0
  -22.5420   -4.3850   21.3320 F   0  0  0  0  0  0  0  0  0  0  0  0
  -21.2860   -3.8620   25.9110 F   0  0  0  0  0  0  0  0  0  0  0  0
  -22.9510  -13.6600   21.1880 C   0  0  0  0  0  0  0  0  0  0  0  0
  -22.2150  -12.9510   22.0380 N   0  0  0  0  0  0  0  0  0  0  0  0
  -22.5220  -14.7010   20.6920 O   0  0  0  0  0  0  0  0  0  0  0  0
  -22.5730  -12.1070   22.4590 H   0  0  0  0  0  0  0  0  0  0  0  0
  -21.2810  -13.2560   22.2710 H   0  0  0  0  0  0  0  0  0  0  0  0
  -25.5910  -15.3190   20.3950 N   0  0  0  0  0  0  0  0  0  0  0  0
  -24.8240  -15.9750   20.5020 H   0  0  0  0  0  0  0  0  0  0  0  0
  -26.4320  -15.7550   20.0380 H   0  0  0  0  0  0  0  0  0  0  0  0
  -29.8930  -22.3760   21.7760 C   0  0  0  0  0  2  0  0  0  0  0  0
  -28.8830  -24.1270   21.2470 C   0  0  0  0  0  0  0  0  0  0  0  0
  -29.8310  -23.6650   22.1240 N   0  0  0  0  0  0  0  0  0  0  0  0
  -28.4540  -23.1960   20.3730 N   0  0  0  0  0  2  0  0  0  0  0  0
  -29.1160  -22.0430   20.7430 N   0  0  0  0  0  0  0  0  0  0  0  0
  -28.1150  -25.4310   21.4930 C   0  0  0  0  0  2  0  0  0  0  0  0
  -28.4880  -26.5550   20.6350 O   0  0  0  0  0  0  0  0  0  0  0  0
  -24.5810  -31.9370   23.2870 C   0  0  0  0  0  0  0  0  0  0  0  0
  -27.4070  -27.4090   20.4670 C   0  0  0  0  0  0  0  0  0  0  0  0
  -23.4740  -30.4730   21.6320 C   0  0  0  0  0  3  0  0  0  0  0  0
  -25.0160  -28.9260   20.3040 C   0  0  0  0  0  0  0  0  0  0  0  0
  -26.0070  -30.8540   21.5460 C   0  0  0  0  0  2  0  0  0  0  0  0
  -26.1430  -29.4670   20.9400 C   0  0  0  0  0  0  0  0  0  0  0  0
  -27.3460  -28.7150   21.0190 C   0  0  0  0  0  3  0  0  0  0  0  0
  -26.2730  -26.9110   19.7910 C   0  0  0  0  0  3  0  0  0  0  0  0
  -25.0810  -27.6510   19.7200 C   0  0  0  0  0  3  0  0  0  0  0  0
  -23.7570  -29.7660   20.2800 C   0  0  0  0  0  2  0  0  0  0  0  0
  -24.7030  -31.1050   22.2140 N   0  0  0  0  0  0  0  0  0  0  0  0
  -23.4720  -32.2060   23.7680 O   0  0  0  0  0  0  0  0  0  0  0  0
  -22.7930  -29.4660   22.5880 C   0  0  0  0  0  0  0  0  0  0  0  0
  -21.4740  -29.2730   22.4180 N   0  0  0  0  0  0  0  0  0  0  0  0
  -23.4500  -28.8620   23.4410 O   0  0  0  0  0  0  0  0  0  0  0  0
  -21.0050  -29.8170   21.7080 H   0  0  0  0  0  0  0  0  0  0  0  0
  -18.0750  -28.1240   22.8760 C   0  0  0  0  0  0  0  0  0  0  0  0
  -20.6350  -28.3430   23.1750 C   0  0  0  0  0  3  0  0  0  0  0  0
  -20.7210  -26.9120   22.5960 C   0  0  0  0  0  2  0  0  0  0  0  0
  -19.6260  -26.6080   21.5690 C   0  0  0  0  0  2  0  0  0  0  0  0
  -18.2390  -26.7740   22.1970 C   0  0  0  0  0  2  0  0  0  0  0  0
  -19.2010  -28.8680   23.3180 C   0  0  0  0  0  0  0  0  0  0  0  0
  -18.9960  -30.1340   23.9090 C   0  0  0  0  0  3  0  0  0  0  0  0
  -17.6970  -30.6550   24.0610 C   0  0  0  0  0  3  0  0  0  0  0  0
  -16.5860  -29.9060   23.6370 C   0  0  0  0  0  3  0  0  0  0  0  0
  -16.7750  -28.6430   23.0500 C   0  0  0  0  0  3  0  0  0  0  0  0
  -25.8260  -32.6060   23.9480 C   0  0  0  0  0  3  0  0  0  0  0  0
  -25.4900  -34.0120   24.2130 N   0  0  0  0  0  0  0  0  0  0  0  0
  -25.8450  -35.0390   23.4310 C   0  0  0  0  0  0  0  0  0  0  0  0
  -26.5640  -34.9070   22.4350 O   0  0  0  0  0  0  0  0  0  0  0  0
  -24.8680  -34.1900   24.9880 H   0  0  0  0  0  0  0  0  0  0  0  0
  -24.1260  -36.8000   22.9170 C   0  0  0  0  0  1  0  0  0  0  0  0
  -25.3210  -36.4370   23.8130 C   0  0  0  0  0  3  0  0  0  0  0  0
  -27.3880  -37.3750   24.7470 C   0  0  0  0  0  1  0  0  0  0  0  0
  -26.3490  -37.4960   23.7270 N   0  0  0  0  0  0  0  0  0  0  0  0
  -25.9260  -38.4160   23.8130 H   0  0  0  0  0  0  0  0  0  0  0  0
  -26.2920  -31.8850   25.2720 C   0  0  1  0  0  0  0  0  0  0  0  0
  -25.1500  -31.6490   26.2880 C   0  0  0  0  0  1  0  0  0  0  0  0
  -26.9270  -30.5120   24.9490 C   0  0  0  0  0  1  0  0  0  0  0  0
  -27.3870  -32.7270   25.9690 C   0  0  0  0  0  1  0  0  0  0  0  0
  2 13  1  0
  2  1  1  0
  2 52  1  0
  3 18  1  0
  4  9  1  0
  5  6  1  0
  5  4  1  0
  7  6  1  0
  7 23  1  0
  7  8  1  0
  9  3  1  0
  9  8  1  0
 10  3  2  0
 12 17  1  0
 13 11  2  0
 14 12  2  0
 14 13  1  0
 15 11  1  0
 15 18  1  0
 16 14  1  0
 17 15  2  0
 18 19  1  0
 20 21  2  0
 21 40  1  0
 22 21  1  0
 22 25  1  0
 23 24  1  0
 23 20  1  0
 24 22  2  0
 25 26  1  0
 26 27  2  0
 28 31  1  0
 28 27  1  0
 29 28  2  0
 30 29  1  0
 30 25  2  0
 31 32  1  0
 32 33  1  0
 33 34  2  0
 35 34  1  0
 35 39  1  0
 36 35  2  0
 37 32  2  0
 37 36  1  0
 38 37  1  0
 40 41  1  0
 41 44  1  0
 41 43  1  0
 42 40  2  0
 45 46  1  0
 45 20  1  0
 47 45  1  0
 48 50  1  0
 49 53  1  0
 49 50  2  0
 51 52  1  0
 51 49  1  0
 52 48  1  0
 54 53  1  0
 55 66  2  0
 56 54  1  0
 56 61  1  0
 57 65  1  0
 57 67  1  0
 58 60  1  0
 59 65  1  0
 60 61  2  0
 60 59  1  0
 62 56  2  0
 63 62  1  0
 63 58  2  0
 64 58  1  0
 64 57  1  0
 65 55  1  0
 67 69  2  0
 68 67  1  0
 70 68  1  0
 71 80  2  0
 71 76  1  0
 72 68  1  0
 72 76  1  0
 73 72  1  0
 74 75  1  0
 74 73  1  0
 75 71  1  0
 76 77  2  0
 77 78  1  0
 79 78  2  0
 80 79  1  0
 81 55  1  0
 81 82  1  0
 81 91  1  0
 82 85  1  0
 83 87  1  0
 83 82  1  0
 84 83  2  0
 87 86  1  0
 89 90  1  0
 89 87  1  0
 89 88  1  0
 91 94  1  1
 91 92  1  0
 93 91  1  0
M  ISO  4   3 100  18 100  53 101  54 101
M  END
>  <TORSDO>  (35) 
F 18

>  <SCORE>  (35) 
-14.430

>  <name>  (35) 
36

>  <ligand_id>  (35) 
36

>  <original_smiles>  (35) 
[H]c1nc(N([H])C(=O)N2C([H])([H])C([H])([H])C([H])([H])C([H])(n3nc(-c4c([H])c([H])c(Oc5c([H])c([H])c(F)c([H])c5F)c([H])c4[H])c(C(=O)N([H])[H])c3N([H])[H])C2([H])[H])c([H])c(C([H])(n2nc(C([H])([H])Oc3c([H])c([H])c4c(c3[H])C([H])([H])N(C(=O)C([H])(N([H])C(=O)C([H])(N([H])C([H])([H])[H])C([H])([H])[H])C(C([H])([H])[H])(C([H])([H])[H])C([H])([H])[H])C([H])(C(=O)N([H])C3([H])c5c([H])c([H])c([H])c([H])c5C([H])([H])C([H])([H])C3([H])[H])C4([H])[H])nc2[H])C([H])([H])[H])c1C([H])([H])[H]

>  <smiles>  (35) 
[H]c1nc(N([H])C(=O)N2C([H])([H])C([H])([H])C([H])([H])C([H])(n3nc(-c4c([H])c([H])c(Oc5c([H])c([H])c(F)c([H])c5F)c([H])c4[H])c(C(=O)N([H])[H])c3N([H])[H])C2([H])[H])c([H])c(C([H])(n2nc(C([H])([H])Oc3c([H])c([H])c4c(c3[H])C([H])([H])N(C(=O)C([H])(N([H])C(=O)C([H])(N([H])C([H])([H])[H])C([H])([H])[H])C(C([H])([H])[H])(C([H])([H])[H])C([H])([H])[H])C([H])(C(=O)N([H])C3([H])c5c([H])c([H])c([H])c([H])c5C([H])([H])C([H])([H])C3([H])[H])C4([H])[H])nc2[H])C([H])([H])[H])c1C([H])([H])[H]

$$$$
37:0:0
     RDKit          3D

 88 96  0  0  1  0  0  0  0  0999 V2000
  -29.7570  -22.6480   20.9610 C   0  0  0  0  0  3  0  0  0  0  0  0
  -28.3630  -21.8020   19.6050 C   0  0  0  0  0  3  0  0  0  0  0  0
  -28.6600  -23.0930   20.1350 C   0  0  0  0  0  0  0  0  0  0  0  0
  -30.0320  -21.3040   20.9290 N   0  0  0  0  0  0  0  0  0  0  0  0
  -29.1720  -20.6850   20.0640 N   0  0  0  0  0  0  0  0  0  0  0  0
  -27.7100  -18.6070   20.3510 C   0  0  0  0  0  1  0  0  0  0  0  0
  -29.0660  -19.0890   19.8080 C   0  0  0  0  0  3  0  0  0  0  0  0
  -30.2080  -17.8570   20.1380 C   0  0  0  0  0  2  0  0  0  0  0  0
  -30.6570  -15.0780   20.1080 C   0  0  0  0  0  0  0  0  0  0  0  0
  -30.5220  -12.6860   19.2480 C   0  0  0  0  0  2  0  0  0  0  0  0
  -29.5630  -12.5870   18.0380 C   0  0  0  0  0  2  0  0  0  0  0  0
  -28.1120  -12.3840   18.5100 C   0  0  0  0  0  2  0  0  0  0  0  0
  -27.7210  -13.3470   19.6580 C   0  0  0  0  0  3  0  0  0  0  0  0
  -28.7990  -13.4220   20.7580 C   0  0  0  0  0  2  0  0  0  0  0  0
  -30.0540  -13.8170   20.1030 N   0  0  0  0  0  0  0  0  0  0  0  0
  -31.8600  -15.1120   19.8300 O   0  0  0  0  0  0  0  0  0  0  0  0
  -29.8890  -16.2830   20.2080 N   0  0  0  0  0  0  0  0  0  0  0  0
  -28.9160  -16.0890   20.3920 H   0  0  0  0  0  0  0  0  0  0  0  0
  -25.3710  -13.9360   20.4780 C   0  0  0  0  0  0  0  0  0  0  0  0
  -24.3070  -13.1670   20.8640 C   0  0  0  0  0  0  0  0  0  0  0  0
  -24.7560  -11.8120   20.8090 C   0  0  0  0  0  0  0  0  0  0  0  0
  -26.3980  -13.0480   20.1960 N   0  0  0  0  0  0  0  0  0  0  0  0
  -26.0380  -11.7650   20.4630 N   0  0  0  0  0  0  0  0  0  0  0  0
  -24.0160  -10.5560   21.0000 C   0  0  0  0  0  0  0  0  0  0  0  0
  -24.4530   -9.5670   21.9100 C   0  0  0  0  0  3  0  0  0  0  0  0
  -23.7090   -8.3820   22.0920 C   0  0  0  0  0  3  0  0  0  0  0  0
  -22.5180   -8.1740   21.3580 C   0  0  0  0  0  0  0  0  0  0  0  0
  -22.1000   -9.1490   20.4350 C   0  0  0  0  0  3  0  0  0  0  0  0
  -22.8450  -10.3270   20.2520 C   0  0  0  0  0  3  0  0  0  0  0  0
  -21.7440   -7.0400   21.4460 O   0  0  0  0  0  0  0  0  0  0  0  0
  -21.7040   -6.2870   22.5910 C   0  0  0  0  0  0  0  0  0  0  0  0
  -21.2960   -6.8330   23.8270 C   0  0  0  0  0  3  0  0  0  0  0  0
  -21.2020   -6.0070   24.9660 C   0  0  0  0  0  3  0  0  0  0  0  0
  -21.5030   -4.6350   24.8690 C   0  0  0  0  0  0  0  0  0  0  0  0
  -21.9060   -4.0880   23.6390 C   0  0  0  0  0  3  0  0  0  0  0  0
  -22.0020   -4.9110   22.5020 C   0  0  0  0  0  0  0  0  0  0  0  0
  -22.3690   -4.3750   21.3130 F   0  0  0  0  0  0  0  0  0  0  0  0
  -21.4090   -3.8380   25.9610 F   0  0  0  0  0  0  0  0  0  0  0  0
  -22.9230  -13.6590   21.1740 C   0  0  0  0  0  0  0  0  0  0  0  0
  -22.2050  -12.9630   22.0480 N   0  0  0  0  0  0  0  0  0  0  0  0
  -22.4860  -14.6950   20.6750 O   0  0  0  0  0  0  0  0  0  0  0  0
  -22.5690  -12.1180   22.4650 H   0  0  0  0  0  0  0  0  0  0  0  0
  -21.2830  -13.2820   22.3030 H   0  0  0  0  0  0  0  0  0  0  0  0
  -25.5380  -15.3050   20.3190 N   0  0  0  0  0  0  0  0  0  0  0  0
  -24.7650  -15.9500   20.4570 H   0  0  0  0  0  0  0  0  0  0  0  0
  -26.3520  -15.7460   19.9180 H   0  0  0  0  0  0  0  0  0  0  0  0
  -27.8610  -24.5600   19.8910 C   0  0  0  0  0  2  0  0  0  0  0  0
  -28.2230  -26.0600   20.2360 O   0  0  0  0  0  0  0  0  0  0  0  0
  -24.6090  -31.8490   23.1860 C   0  0  0  0  0  0  0  0  0  0  0  0
  -27.2040  -27.1030   20.1500 C   0  0  0  0  0  0  0  0  0  0  0  0
  -23.4260  -30.4510   21.5420 C   0  0  0  0  0  3  0  0  0  0  0  0
  -24.8860  -28.8930   20.1110 C   0  0  0  0  0  0  0  0  0  0  0  0
  -25.9860  -30.7150   21.3900 C   0  0  0  0  0  2  0  0  0  0  0  0
  -26.0670  -29.3200   20.7330 C   0  0  0  0  0  0  0  0  0  0  0  0
  -27.2250  -28.4400   20.7400 C   0  0  0  0  0  3  0  0  0  0  0  0
  -25.9990  -26.8060   19.4700 C   0  0  0  0  0  3  0  0  0  0  0  0
  -24.8710  -27.6540   19.4580 C   0  0  0  0  0  3  0  0  0  0  0  0
  -23.6550  -29.7870   20.1610 C   0  0  0  0  0  2  0  0  0  0  0  0
  -24.6940  -31.0260   22.0940 N   0  0  0  0  0  0  0  0  0  0  0  0
  -23.5180  -32.1300   23.7040 O   0  0  0  0  0  0  0  0  0  0  0  0
  -22.7440  -29.4370   22.4980 C   0  0  0  0  0  0  0  0  0  0  0  0
  -21.4150  -29.2760   22.3790 N   0  0  0  0  0  0  0  0  0  0  0  0
  -23.4170  -28.8010   23.3140 O   0  0  0  0  0  0  0  0  0  0  0  0
  -20.9290  -29.8410   21.6970 H   0  0  0  0  0  0  0  0  0  0  0  0
  -18.0220  -28.1090   22.9080 C   0  0  0  0  0  0  0  0  0  0  0  0
  -20.5890  -28.3360   23.1420 C   0  0  0  0  0  3  0  0  0  0  0  0
  -20.6640  -26.9120   22.5420 C   0  0  0  0  0  2  0  0  0  0  0  0
  -19.5410  -26.6210   21.5400 C   0  0  0  0  0  2  0  0  0  0  0  0
  -18.1720  -26.7710   22.2070 C   0  0  0  0  0  2  0  0  0  0  0  0
  -19.1560  -28.8520   23.3330 C   0  0  0  0  0  0  0  0  0  0  0  0
  -18.9580  -30.1070   23.9510 C   0  0  0  0  0  3  0  0  0  0  0  0
  -17.6600  -30.6170   24.1470 C   0  0  0  0  0  3  0  0  0  0  0  0
  -16.5420  -29.8690   23.7370 C   0  0  0  0  0  3  0  0  0  0  0  0
  -16.7240  -28.6170   23.1230 C   0  0  0  0  0  3  0  0  0  0  0  0
  -25.8760  -32.4940   23.8230 C   0  0  0  0  0  3  0  0  0  0  0  0
  -26.3800  -31.7270   25.1070 C   0  0  1  0  0  0  0  0  0  0  0  0
  -25.2750  -31.4800   26.1630 C   0  0  0  0  0  1  0  0  0  0  0  0
  -26.9750  -30.3560   24.7210 C   0  0  0  0  0  1  0  0  0  0  0  0
  -27.5230  -32.5240   25.7800 C   0  0  0  0  0  1  0  0  0  0  0  0
  -25.5520  -33.8920   24.1570 N   0  0  0  0  0  0  0  0  0  0  0  0
  -25.8790  -34.9540   23.4090 C   0  0  0  0  0  0  0  0  0  0  0  0
  -26.5480  -34.8600   22.3770 O   0  0  0  0  0  0  0  0  0  0  0  0
  -24.9580  -34.0380   24.9620 H   0  0  0  0  0  0  0  0  0  0  0  0
  -24.1420  -36.7400   23.0670 C   0  0  0  0  0  1  0  0  0  0  0  0
  -25.3870  -36.3380   23.8750 C   0  0  0  0  0  3  0  0  0  0  0  0
  -27.5160  -37.2300   24.7130 C   0  0  0  0  0  1  0  0  0  0  0  0
  -26.4150  -37.3960   23.7650 N   0  0  0  0  0  0  0  0  0  0  0  0
  -26.0080  -38.3160   23.9120 H   0  0  0  0  0  0  0  0  0  0  0  0
  2  5  1  0
  2  3  2  0
  3  1  1  0
  4  1  2  0
  5  4  1  0
  7  5  1  0
  7  8  1  0
  7  6  1  0
  8 17  1  0
  9 17  1  0
 10 15  1  0
 11 12  1  0
 11 10  1  0
 13 12  1  0
 13 22  1  0
 13 14  1  0
 15  9  1  0
 15 14  1  0
 16  9  2  0
 17 18  1  0
 19 20  2  0
 20 39  1  0
 21 20  1  0
 21 24  1  0
 22 23  1  0
 22 19  1  0
 23 21  2  0
 24 25  1  0
 25 26  2  0
 27 30  1  0
 27 26  1  0
 28 27  2  0
 29 28  1  0
 29 24  2  0
 30 31  1  0
 31 32  1  0
 32 33  2  0
 34 33  1  0
 34 38  1  0
 35 34  2  0
 36 31  2  0
 36 35  1  0
 37 36  1  0
 39 40  1  0
 40 43  1  0
 40 42  1  0
 41 39  2  0
 44 45  1  0
 44 19  1  0
 46 44  1  0
 47  3  1  0
 47 48  1  0
 49 60  2  0
 50 48  1  0
 50 55  1  0
 51 59  1  0
 51 61  1  0
 52 58  1  0
 52 54  1  0
 53 59  1  0
 54 55  2  0
 54 53  1  0
 56 50  2  0
 57 56  1  0
 57 52  2  0
 58 51  1  0
 59 49  1  0
 61 63  2  0
 62 61  1  0
 64 62  1  0
 65 74  2  0
 65 70  1  0
 66 62  1  0
 66 70  1  0
 67 66  1  0
 68 69  1  0
 68 67  1  0
 69 65  1  0
 70 71  2  0
 71 72  1  0
 73 72  2  0
 74 73  1  0
 75 49  1  0
 75 80  1  0
 75 76  1  0
 76 79  1  1
 76 77  1  0
 78 76  1  0
 80 83  1  0
 81 85  1  0
 81 80  1  0
 82 81  2  0
 85 84  1  0
 87 85  1  0
 87 88  1  0
 87 86  1  0
M  ISO  4   9 100  17 100  47 101  48 101
M  END
>  <TORSDO>  (36) 
F 19

>  <SCORE>  (36) 
-14.733

>  <name>  (36) 
37

>  <ligand_id>  (36) 
37

>  <original_smiles>  (36) 
[H]c1nn(C([H])(C([H])([H])[H])C([H])([H])N([H])C(=O)N2C([H])([H])C([H])([H])C([H])([H])C([H])(n3nc(-c4c([H])c([H])c(Oc5c([H])c([H])c(F)c([H])c5F)c([H])c4[H])c(C(=O)N([H])[H])c3N([H])[H])C2([H])[H])c([H])c1C([H])([H])Oc1c([H])c([H])c2c(c1[H])C([H])([H])N(C(=O)C([H])(N([H])C(=O)C([H])(N([H])C([H])([H])[H])C([H])([H])[H])C(C([H])([H])[H])(C([H])([H])[H])C([H])([H])[H])C([H])(C(=O)N([H])C1([H])c3c([H])c([H])c([H])c([H])c3C([H])([H])C([H])([H])C1([H])[H])C2([H])[H]

>  <smiles>  (36) 
[H]c1nn(C([H])(C([H])([H])[H])C([H])([H])N([H])C(=O)N2C([H])([H])C([H])([H])C([H])([H])C([H])(n3nc(-c4c([H])c([H])c(Oc5c([H])c([H])c(F)c([H])c5F)c([H])c4[H])c(C(=O)N([H])[H])c3N([H])[H])C2([H])[H])c([H])c1C([H])([H])Oc1c([H])c([H])c2c(c1[H])C([H])([H])N(C(=O)C([H])(N([H])C(=O)C([H])(N([H])C([H])([H])[H])C([H])([H])[H])C(C([H])([H])[H])(C([H])([H])[H])C([H])([H])[H])C([H])(C(=O)N([H])C1([H])c3c([H])c([H])c([H])c([H])c3C([H])([H])C([H])([H])C1([H])[H])C2([H])[H]

$$$$
38:0:0
     RDKit          3D

 88 96  0  0  1  0  0  0  0  0999 V2000
  -28.9390  -19.1060   20.2560 C   0  0  0  0  0  3  0  0  0  0  0  0
  -31.0250  -18.7130   20.3310 C   0  0  0  0  0  3  0  0  0  0  0  0
  -29.5190  -20.3990   20.2150 C   0  0  0  0  0  0  0  0  0  0  0  0
  -30.8930  -20.0740   20.2500 N   0  0  0  0  0  0  0  0  0  0  0  0
  -29.8800  -17.9940   20.3140 N   0  0  0  0  0  0  0  0  0  0  0  0
  -28.7550  -16.4150   18.9060 C   0  0  0  0  0  1  0  0  0  0  0  0
  -28.5480  -16.3010   21.4820 C   0  0  0  0  0  1  0  0  0  0  0  0
  -29.5050  -16.4450   20.2710 C   0  0  2  0  0  0  0  0  0  0  0  0
  -30.4720  -15.0460   20.2520 C   0  0  0  0  0  0  0  0  0  0  0  0
  -30.4440  -12.6640   19.3380 C   0  0  0  0  0  2  0  0  0  0  0  0
  -29.4750  -12.5770   18.1290 C   0  0  0  0  0  2  0  0  0  0  0  0
  -28.0090  -12.3610   18.5720 C   0  0  0  0  0  2  0  0  0  0  0  0
  -27.6130  -13.2550   19.7740 C   0  0  0  0  0  3  0  0  0  0  0  0
  -28.7070  -13.2230   20.8640 C   0  0  0  0  0  2  0  0  0  0  0  0
  -29.9570  -13.7330   20.2600 N   0  0  0  0  0  0  0  0  0  0  0  0
  -31.6780  -15.1430   19.9970 O   0  0  0  0  0  0  0  0  0  0  0  0
  -25.2360  -13.8640   20.5140 C   0  0  0  0  0  0  0  0  0  0  0  0
  -24.1710  -13.0960   20.8920 C   0  0  0  0  0  0  0  0  0  0  0  0
  -24.6280  -11.7440   20.8500 C   0  0  0  0  0  0  0  0  0  0  0  0
  -26.2770  -12.9760   20.2790 N   0  0  0  0  0  0  0  0  0  0  0  0
  -25.9170  -11.6970   20.5370 N   0  0  0  0  0  0  0  0  0  0  0  0
  -23.8960  -10.4870   21.0310 C   0  0  0  0  0  0  0  0  0  0  0  0
  -24.3240   -9.5150   21.9590 C   0  0  0  0  0  3  0  0  0  0  0  0
  -23.5930   -8.3200   22.1310 C   0  0  0  0  0  3  0  0  0  0  0  0
  -22.4200   -8.0930   21.3720 C   0  0  0  0  0  0  0  0  0  0  0  0
  -22.0130   -9.0550   20.4310 C   0  0  0  0  0  3  0  0  0  0  0  0
  -22.7450  -10.2400   20.2580 C   0  0  0  0  0  3  0  0  0  0  0  0
  -21.6590   -6.9530   21.4550 O   0  0  0  0  0  0  0  0  0  0  0  0
  -21.5880   -6.2190   22.6120 C   0  0  0  0  0  0  0  0  0  0  0  0
  -21.1420   -6.7850   23.8260 C   0  0  0  0  0  3  0  0  0  0  0  0
  -21.0180   -5.9770   24.9740 C   0  0  0  0  0  3  0  0  0  0  0  0
  -21.3310   -4.6070   24.9080 C   0  0  0  0  0  0  0  0  0  0  0  0
  -21.7710   -4.0410   23.6990 C   0  0  0  0  0  3  0  0  0  0  0  0
  -21.8960   -4.8460   22.5530 C   0  0  0  0  0  0  0  0  0  0  0  0
  -22.3020   -4.2920   21.3850 F   0  0  0  0  0  0  0  0  0  0  0  0
  -21.2040   -3.8280   26.0090 F   0  0  0  0  0  0  0  0  0  0  0  0
  -22.7800  -13.5830   21.1760 C   0  0  0  0  0  0  0  0  0  0  0  0
  -22.0580  -12.8910   22.0500 N   0  0  0  0  0  0  0  0  0  0  0  0
  -22.3430  -14.6120   20.6610 O   0  0  0  0  0  0  0  0  0  0  0  0
  -22.4250  -12.0590   22.4870 H   0  0  0  0  0  0  0  0  0  0  0  0
  -21.1250  -13.1970   22.2860 H   0  0  0  0  0  0  0  0  0  0  0  0
  -25.3830  -15.2340   20.3240 N   0  0  0  0  0  0  0  0  0  0  0  0
  -24.6040  -15.8740   20.4300 H   0  0  0  0  0  0  0  0  0  0  0  0
  -26.2190  -15.6810   19.9750 H   0  0  0  0  0  0  0  0  0  0  0  0
  -28.8310  -21.8550   19.8540 C   0  0  0  0  0  2  0  0  0  0  0  0
  -29.0970  -23.4070   20.4430 C   0  0  0  0  0  3  0  0  0  0  0  0
  -28.1190  -24.7180   20.0230 C   0  0  0  0  0  3  0  0  0  0  0  0
  -28.3090  -26.2320   20.3210 O   0  0  0  0  0  0  0  0  0  0  0  0
  -24.6380  -31.8960   23.2530 C   0  0  0  0  0  0  0  0  0  0  0  0
  -27.2320  -27.1910   20.2340 C   0  0  0  0  0  0  0  0  0  0  0  0
  -23.4390  -30.5010   21.6100 C   0  0  0  0  0  3  0  0  0  0  0  0
  -24.8900  -28.9210   20.1920 C   0  0  0  0  0  0  0  0  0  0  0  0
  -25.9920  -30.7660   21.4510 C   0  0  0  0  0  2  0  0  0  0  0  0
  -26.0670  -29.3740   20.8020 C   0  0  0  0  0  0  0  0  0  0  0  0
  -27.2350  -28.5250   20.8060 C   0  0  0  0  0  3  0  0  0  0  0  0
  -26.0280  -26.8350   19.5830 C   0  0  0  0  0  3  0  0  0  0  0  0
  -24.8830  -27.6630   19.5680 C   0  0  0  0  0  3  0  0  0  0  0  0
  -23.6610  -29.8160   20.2350 C   0  0  0  0  0  2  0  0  0  0  0  0
  -24.7090  -31.0760   22.1590 N   0  0  0  0  0  0  0  0  0  0  0  0
  -23.5520  -32.1840   23.7770 O   0  0  0  0  0  0  0  0  0  0  0  0
  -22.7530  -29.4990   22.5730 C   0  0  0  0  0  0  0  0  0  0  0  0
  -21.4250  -29.3340   22.4420 N   0  0  0  0  0  0  0  0  0  0  0  0
  -23.4200  -28.8710   23.3990 O   0  0  0  0  0  0  0  0  0  0  0  0
  -20.9440  -29.8920   21.7520 H   0  0  0  0  0  0  0  0  0  0  0  0
  -18.0350  -28.1530   22.9380 C   0  0  0  0  0  0  0  0  0  0  0  0
  -20.5950  -28.4020   23.2110 C   0  0  0  0  0  3  0  0  0  0  0  0
  -20.6900  -26.9690   22.6370 C   0  0  0  0  0  2  0  0  0  0  0  0
  -19.5890  -26.6520   21.6210 C   0  0  0  0  0  2  0  0  0  0  0  0
  -18.2070  -26.8040   22.2610 C   0  0  0  0  0  2  0  0  0  0  0  0
  -19.1580  -28.9110   23.3690 C   0  0  0  0  0  0  0  0  0  0  0  0
  -18.9430  -30.1730   23.9630 C   0  0  0  0  0  3  0  0  0  0  0  0
  -17.6390  -30.6790   24.1280 C   0  0  0  0  0  3  0  0  0  0  0  0
  -16.5320  -29.9190   23.7110 C   0  0  0  0  0  3  0  0  0  0  0  0
  -16.7320  -28.6580   23.1230 C   0  0  0  0  0  3  0  0  0  0  0  0
  -25.9170  -32.5270   23.8840 C   0  0  0  0  0  3  0  0  0  0  0  0
  -26.4250  -31.7520   25.1620 C   0  0  1  0  0  0  0  0  0  0  0  0
  -25.3260  -31.5160   26.2240 C   0  0  0  0  0  1  0  0  0  0  0  0
  -27.0060  -30.3730   24.7730 C   0  0  0  0  0  1  0  0  0  0  0  0
  -27.5750  -32.5410   25.8300 C   0  0  0  0  0  1  0  0  0  0  0  0
  -25.6060  -33.9240   24.2220 N   0  0  0  0  0  0  0  0  0  0  0  0
  -25.9240  -34.9830   23.4660 C   0  0  0  0  0  0  0  0  0  0  0  0
  -26.5760  -34.8860   22.4220 O   0  0  0  0  0  0  0  0  0  0  0  0
  -25.0250  -34.0740   25.0340 H   0  0  0  0  0  0  0  0  0  0  0  0
  -24.1770  -36.7710   23.1670 C   0  0  0  0  0  1  0  0  0  0  0  0
  -25.4460  -36.3710   23.9390 C   0  0  0  0  0  3  0  0  0  0  0  0
  -27.6000  -37.2670   24.7030 C   0  0  0  0  0  1  0  0  0  0  0  0
  -26.4690  -37.4290   23.7940 N   0  0  0  0  0  0  0  0  0  0  0  0
  -26.0630  -38.3470   23.9520 H   0  0  0  0  0  0  0  0  0  0  0  0
  1  5  1  0
  3  4  1  0
  3  1  2  0
  4  2  2  0
  5  2  1  0
  8  6  1  6
  8  5  1  0
  8  7  1  0
  9 15  1  0
  9  8  1  0
 10 15  1  0
 11 12  1  0
 11 10  1  0
 13 12  1  0
 13 20  1  0
 13 14  1  0
 15 14  1  0
 16  9  2  0
 17 18  2  0
 18 37  1  0
 19 18  1  0
 19 22  1  0
 20 17  1  0
 20 21  1  0
 21 19  2  0
 22 23  1  0
 23 24  2  0
 25 28  1  0
 25 24  1  0
 26 25  2  0
 27 26  1  0
 27 22  2  0
 28 29  1  0
 29 30  1  0
 30 31  2  0
 32 31  1  0
 32 36  1  0
 33 32  2  0
 34 29  2  0
 34 33  1  0
 35 34  1  0
 37 38  1  0
 38 41  1  0
 38 40  1  0
 39 37  2  0
 42 43  1  0
 42 17  1  0
 44 42  1  0
 45  3  1  0
 45 46  1  0
 47 48  1  0
 47 46  2  0
 49 60  2  0
 50 48  1  0
 50 55  1  0
 51 59  1  0
 51 61  1  0
 52 58  1  0
 52 54  1  0
 53 59  1  0
 54 55  2  0
 54 53  1  0
 56 50  2  0
 57 56  1  0
 57 52  2  0
 58 51  1  0
 59 49  1  0
 61 63  2  0
 62 61  1  0
 64 62  1  0
 65 74  2  0
 65 70  1  0
 66 62  1  0
 66 70  1  0
 67 66  1  0
 68 69  1  0
 68 67  1  0
 69 65  1  0
 70 71  2  0
 71 72  1  0
 73 72  2  0
 74 73  1  0
 75 49  1  0
 75 80  1  0
 75 76  1  0
 76 79  1  1
 76 77  1  0
 78 76  1  0
 80 83  1  0
 81 85  1  0
 81 80  1  0
 82 81  2  0
 85 84  1  0
 87 85  1  0
 87 88  1  0
 87 86  1  0
M  ISO  4   8 100   9 100  47 101  48 101
M  END
>  <TORSDO>  (37) 
F 20

>  <SCORE>  (37) 
-13.408

>  <name>  (37) 
38

>  <ligand_id>  (37) 
38

>  <original_smiles>  (37) 
[H]c1c([H])c([H])c2c(c1[H])C([H])([H])C([H])([H])C([H])([H])C2([H])N([H])C(=O)C1([H])N(C(=O)C([H])(N([H])C(=O)C([H])(N([H])C([H])([H])[H])C([H])([H])[H])C(C([H])([H])[H])(C([H])([H])[H])C([H])([H])[H])C([H])([H])c2c([H])c(OC([H])([H])C([H])([H])C([H])([H])c3nc([H])n(C(C(=O)N4C([H])([H])C([H])([H])C([H])([H])C([H])(n5nc(-c6c([H])c([H])c(Oc7c([H])c([H])c(F)c([H])c7F)c([H])c6[H])c(C(=O)N([H])[H])c5N([H])[H])C4([H])[H])(C([H])([H])[H])C([H])([H])[H])c3[H])c([H])c([H])c2C1([H])[H]

>  <smiles>  (37) 
[H]c1c([H])c([H])c2c(c1[H])C([H])([H])C([H])([H])C([H])([H])C2([H])N([H])C(=O)C1([H])N(C(=O)C([H])(N([H])C(=O)C([H])(N([H])C([H])([H])[H])C([H])([H])[H])C(C([H])([H])[H])(C([H])([H])[H])C([H])([H])[H])C([H])([H])c2c([H])c(OC([H])([H])C([H])([H])C([H])([H])c3nc([H])n(C(C(=O)N4C([H])([H])C([H])([H])C([H])([H])C([H])(n5nc(-c6c([H])c([H])c(Oc7c([H])c([H])c(F)c([H])c7F)c([H])c6[H])c(C(=O)N([H])[H])c5N([H])[H])C4([H])[H])(C([H])([H])[H])C([H])([H])[H])c3[H])c([H])c([H])c2C1([H])[H]

$$$$
39:0:0
     RDKit          3D

 87 95  0  0  1  0  0  0  0  0999 V2000
  -29.8220  -22.6830   19.4550 C   0  0  0  0  0  3  0  0  0  0  0  0
  -28.3950  -21.7950   20.7370 C   0  0  0  0  0  3  0  0  0  0  0  0
  -28.7070  -23.1030   20.2670 C   0  0  0  0  0  0  0  0  0  0  0  0
  -30.1070  -21.3400   19.4470 N   0  0  0  0  0  0  0  0  0  0  0  0
  -29.2130  -20.6990   20.2520 N   0  0  0  0  0  0  0  0  0  0  0  0
  -27.8950  -24.5580   20.5240 C   0  0  0  0  0  2  0  0  0  0  0  0
  -28.2890  -26.0670   20.2710 O   0  0  0  0  0  0  0  0  0  0  0  0
  -24.6500  -31.8560   23.2010 C   0  0  0  0  0  0  0  0  0  0  0  0
  -27.2570  -27.0940   20.2230 C   0  0  0  0  0  0  0  0  0  0  0  0
  -23.4660  -30.4460   21.5660 C   0  0  0  0  0  3  0  0  0  0  0  0
  -24.9300  -28.8670   20.1600 C   0  0  0  0  0  0  0  0  0  0  0  0
  -26.0260  -30.7060   21.4210 C   0  0  0  0  0  2  0  0  0  0  0  0
  -26.1090  -29.3070   20.7780 C   0  0  0  0  0  0  0  0  0  0  0  0
  -27.2720  -28.4390   20.7920 C   0  0  0  0  0  3  0  0  0  0  0  0
  -26.0560  -26.7800   19.5440 C   0  0  0  0  0  3  0  0  0  0  0  0
  -24.9210  -27.6160   19.5260 C   0  0  0  0  0  3  0  0  0  0  0  0
  -23.7010  -29.7640   20.1940 C   0  0  0  0  0  2  0  0  0  0  0  0
  -24.7340  -31.0250   22.1170 N   0  0  0  0  0  0  0  0  0  0  0  0
  -23.5580  -32.1420   23.7190 O   0  0  0  0  0  0  0  0  0  0  0  0
  -22.7830  -29.4420   22.5290 C   0  0  0  0  0  0  0  0  0  0  0  0
  -21.4520  -29.2840   22.4130 N   0  0  0  0  0  0  0  0  0  0  0  0
  -23.4540  -28.8080   23.3480 O   0  0  0  0  0  0  0  0  0  0  0  0
  -20.9660  -29.8440   21.7260 H   0  0  0  0  0  0  0  0  0  0  0  0
  -18.0630  -28.1150   22.9470 C   0  0  0  0  0  0  0  0  0  0  0  0
  -20.6280  -28.3530   23.1900 C   0  0  0  0  0  3  0  0  0  0  0  0
  -20.7100  -26.9200   22.6130 C   0  0  0  0  0  2  0  0  0  0  0  0
  -19.5960  -26.6100   21.6080 C   0  0  0  0  0  2  0  0  0  0  0  0
  -18.2210  -26.7670   22.2650 C   0  0  0  0  0  2  0  0  0  0  0  0
  -19.1930  -28.8680   23.3670 C   0  0  0  0  0  0  0  0  0  0  0  0
  -18.9890  -30.1300   23.9660 C   0  0  0  0  0  3  0  0  0  0  0  0
  -17.6890  -30.6390   24.1480 C   0  0  0  0  0  3  0  0  0  0  0  0
  -16.5740  -29.8840   23.7430 C   0  0  0  0  0  3  0  0  0  0  0  0
  -16.7630  -28.6240   23.1470 C   0  0  0  0  0  3  0  0  0  0  0  0
  -25.9200  -32.5030   23.8310 C   0  0  0  0  0  3  0  0  0  0  0  0
  -26.4340  -31.7370   25.1120 C   0  0  1  0  0  0  0  0  0  0  0  0
  -25.3380  -31.4940   26.1760 C   0  0  0  0  0  1  0  0  0  0  0  0
  -27.0270  -30.3610   24.7310 C   0  0  0  0  0  1  0  0  0  0  0  0
  -27.5760  -32.5400   25.7780 C   0  0  0  0  0  1  0  0  0  0  0  0
  -25.5950  -33.8990   24.1660 N   0  0  0  0  0  0  0  0  0  0  0  0
  -25.9240  -34.9610   23.4190 C   0  0  0  0  0  0  0  0  0  0  0  0
  -26.5980  -34.8710   22.3900 O   0  0  0  0  0  0  0  0  0  0  0  0
  -24.9960  -34.0430   24.9660 H   0  0  0  0  0  0  0  0  0  0  0  0
  -24.1850  -36.7480   23.0720 C   0  0  0  0  0  1  0  0  0  0  0  0
  -25.4250  -36.3440   23.8870 C   0  0  0  0  0  3  0  0  0  0  0  0
  -27.5500  -37.2340   24.7360 C   0  0  0  0  0  1  0  0  0  0  0  0
  -26.4510  -37.4040   23.7880 N   0  0  0  0  0  0  0  0  0  0  0  0
  -26.0390  -38.3200   23.9430 H   0  0  0  0  0  0  0  0  0  0  0  0
  -29.1260  -19.1150   20.5160 C   0  0  0  0  0  3  0  0  0  0  0  0
  -30.0870  -17.7940   19.9760 C   0  0  0  0  0  3  0  0  0  0  0  0
  -30.5640  -15.0320   19.9980 C   0  0  0  0  0  0  0  0  0  0  0  0
  -30.3860  -12.7080   18.9400 C   0  0  0  0  0  2  0  0  0  0  0  0
  -29.3730  -12.6780   17.7690 C   0  0  0  0  0  2  0  0  0  0  0  0
  -27.9370  -12.4450   18.2750 C   0  0  0  0  0  2  0  0  0  0  0  0
  -27.6100  -13.3040   19.5220 C   0  0  0  0  0  3  0  0  0  0  0  0
  -28.7370  -13.2350   20.5700 C   0  0  0  0  0  2  0  0  0  0  0  0
  -29.9570  -13.7570   19.9230 N   0  0  0  0  0  0  0  0  0  0  0  0
  -31.7000  -15.1000   19.5080 O   0  0  0  0  0  0  0  0  0  0  0  0
  -29.1680  -16.1910   21.6760 C   0  0  0  0  0  1  0  0  0  0  0  0
  -29.8740  -16.2470   20.3920 N   0  0  0  0  0  0  0  0  0  0  0  0
  -25.2760  -13.8540   20.4060 C   0  0  0  0  0  0  0  0  0  0  0  0
  -24.2400  -13.0670   20.8270 C   0  0  0  0  0  0  0  0  0  0  0  0
  -24.7080  -11.7190   20.7440 C   0  0  0  0  0  0  0  0  0  0  0  0
  -26.3060  -12.9860   20.0890 N   0  0  0  0  0  0  0  0  0  0  0  0
  -25.9780  -11.6950   20.3560 N   0  0  0  0  0  0  0  0  0  0  0  0
  -23.9990  -10.4510   20.9540 C   0  0  0  0  0  0  0  0  0  0  0  0
  -24.4590   -9.4940   21.8840 C   0  0  0  0  0  3  0  0  0  0  0  0
  -23.7490   -8.2900   22.0840 C   0  0  0  0  0  3  0  0  0  0  0  0
  -22.5630   -8.0370   21.3550 C   0  0  0  0  0  0  0  0  0  0  0  0
  -22.1220   -8.9820   20.4130 C   0  0  0  0  0  3  0  0  0  0  0  0
  -22.8320  -10.1770   20.2120 C   0  0  0  0  0  3  0  0  0  0  0  0
  -21.8210   -6.8850   21.4660 O   0  0  0  0  0  0  0  0  0  0  0  0
  -21.7660   -6.1740   22.6370 C   0  0  0  0  0  0  0  0  0  0  0  0
  -21.3230   -6.7570   23.8450 C   0  0  0  0  0  3  0  0  0  0  0  0
  -21.2170   -5.9710   25.0090 C   0  0  0  0  0  3  0  0  0  0  0  0
  -21.5390   -4.6010   24.9670 C   0  0  0  0  0  0  0  0  0  0  0  0
  -21.9740   -4.0170   23.7650 C   0  0  0  0  0  3  0  0  0  0  0  0
  -22.0840   -4.8000   22.6030 C   0  0  0  0  0  0  0  0  0  0  0  0
  -22.4830   -4.2270   21.4420 F   0  0  0  0  0  0  0  0  0  0  0  0
  -21.4280   -3.8450   26.0840 F   0  0  0  0  0  0  0  0  0  0  0  0
  -22.8590  -13.5320   21.1900 C   0  0  0  0  0  0  0  0  0  0  0  0
  -22.1890  -12.8210   22.0880 N   0  0  0  0  0  0  0  0  0  0  0  0
  -22.3880  -14.5630   20.7120 O   0  0  0  0  0  0  0  0  0  0  0  0
  -22.5860  -11.9890   22.4990 H   0  0  0  0  0  0  0  0  0  0  0  0
  -21.2660  -13.1150   22.3730 H   0  0  0  0  0  0  0  0  0  0  0  0
  -25.4210  -15.2300   20.2410 N   0  0  0  0  0  0  0  0  0  0  0  0
  -24.6560  -15.8750   20.3990 H   0  0  0  0  0  0  0  0  0  0  0  0
  -26.2390  -15.6760   19.8460 H   0  0  0  0  0  0  0  0  0  0  0  0
  1  3  1  0
  3  6  1  0
  3  2  2  0
  4  1  2  0
  4  5  1  0
  5 48  1  0
  5  2  1  0
  7  6  1  0
  8 19  2  0
  9  7  1  0
  9 14  1  0
 10 18  1  0
 10 20  1  0
 11 17  1  0
 11 13  1  0
 12 18  1  0
 13 14  2  0
 13 12  1  0
 15  9  2  0
 16 15  1  0
 16 11  2  0
 17 10  1  0
 18  8  1  0
 20 22  2  0
 21 20  1  0
 23 21  1  0
 24 33  2  0
 24 29  1  0
 25 21  1  0
 25 29  1  0
 26 25  1  0
 27 28  1  0
 27 26  1  0
 28 24  1  0
 29 30  2  0
 30 31  1  0
 32 31  2  0
 33 32  1  0
 34  8  1  0
 34 39  1  0
 34 35  1  0
 35 38  1  1
 35 36  1  0
 37 35  1  0
 39 42  1  0
 40 44  1  0
 40 39  1  0
 41 40  2  0
 44 43  1  0
 46 44  1  0
 46 47  1  0
 46 45  1  0
 49 59  1  0
 49 48  2  0
 50 59  1  0
 51 56  1  0
 52 53  1  0
 52 51  1  0
 54 53  1  0
 54 63  1  0
 54 55  1  0
 56 50  1  0
 56 55  1  0
 57 50  2  0
 59 58  1  0
 60 61  2  0
 61 80  1  0
 62 61  1  0
 62 65  1  0
 63 64  1  0
 63 60  1  0
 64 62  2  0
 65 66  1  0
 66 67  2  0
 68 71  1  0
 68 67  1  0
 69 68  2  0
 70 69  1  0
 70 65  2  0
 71 72  1  0
 72 73  1  0
 73 74  2  0
 75 74  1  0
 75 79  1  0
 76 75  2  0
 77 72  2  0
 77 76  1  0
 78 77  1  0
 80 81  1  0
 81 84  1  0
 81 83  1  0
 82 80  2  0
 85 86  1  0
 85 60  1  0
 87 85  1  0
M  ISO  4   6 101   7 101  50 100  59 100
M  END
>  <TORSDO>  (38) 
F 19

>  <SCORE>  (38) 
-14.233

>  <name>  (38) 
39

>  <ligand_id>  (38) 
39

>  <original_smiles>  (38) 
[H]c1nn(C([H])([H])C([H])([H])N(C(=O)N2C([H])([H])C([H])([H])C([H])([H])C([H])(n3nc(-c4c([H])c([H])c(Oc5c([H])c([H])c(F)c([H])c5F)c([H])c4[H])c(C(=O)N([H])[H])c3N([H])[H])C2([H])[H])C([H])([H])[H])c([H])c1C([H])([H])Oc1c([H])c([H])c2c(c1[H])C([H])([H])N(C(=O)C([H])(N([H])C(=O)C([H])(N([H])C([H])([H])[H])C([H])([H])[H])C(C([H])([H])[H])(C([H])([H])[H])C([H])([H])[H])C([H])(C(=O)N([H])C1([H])c3c([H])c([H])c([H])c([H])c3C([H])([H])C([H])([H])C1([H])[H])C2([H])[H]

>  <smiles>  (38) 
[H]c1nn(C([H])([H])C([H])([H])N(C(=O)N2C([H])([H])C([H])([H])C([H])([H])C([H])(n3nc(-c4c([H])c([H])c(Oc5c([H])c([H])c(F)c([H])c5F)c([H])c4[H])c(C(=O)N([H])[H])c3N([H])[H])C2([H])[H])C([H])([H])[H])c([H])c1C([H])([H])Oc1c([H])c([H])c2c(c1[H])C([H])([H])N(C(=O)C([H])(N([H])C(=O)C([H])(N([H])C([H])([H])[H])C([H])([H])[H])C(C([H])([H])[H])(C([H])([H])[H])C([H])([H])[H])C([H])(C(=O)N([H])C1([H])c3c([H])c([H])c([H])c([H])c3C([H])([H])C([H])([H])C1([H])[H])C2([H])[H]

$$$$
40:0:0
     RDKit          3D

 91 99  0  0  1  0  0  0  0  0999 V2000
  -29.9820  -23.2850   21.0580 C   0  0  0  0  0  3  0  0  0  0  0  0
  -30.7310  -22.1410   21.4000 C   0  0  0  0  0  0  0  0  0  0  0  0
  -28.8720  -23.1580   20.2180 C   0  0  0  0  0  0  0  0  0  0  0  0
  -29.4210  -20.7000   20.1350 C   0  0  0  0  0  0  0  0  0  0  0  0
  -31.9320  -22.2730   22.3120 C   0  0  0  0  0  1  0  0  0  0  0  0
  -30.4490  -20.8910   20.9550 N   0  0  0  0  0  0  0  0  0  0  0  0
  -28.6280  -21.8130   19.7800 N   0  0  0  0  0  0  0  0  0  0  0  0
  -29.1290  -19.0770   18.1460 C   0  0  0  0  0  1  0  0  0  0  0  0
  -27.7520  -18.7310   20.2350 C   0  0  0  0  0  1  0  0  0  0  0  0
  -29.1460  -19.0980   19.6870 C   0  0  2  0  0  0  0  0  0  0  0  0
  -30.1600  -17.7700   20.1020 C   0  0  0  0  0  2  0  0  0  0  0  0
  -30.5540  -14.9970   19.8470 C   0  0  0  0  0  0  0  0  0  0  0  0
  -30.3530  -12.6280   18.9240 C   0  0  0  0  0  2  0  0  0  0  0  0
  -29.3300  -12.5560   17.7680 C   0  0  0  0  0  2  0  0  0  0  0  0
  -27.8980  -12.3640   18.3060 C   0  0  0  0  0  2  0  0  0  0  0  0
  -27.5860  -13.3000   19.5020 C   0  0  0  0  0  3  0  0  0  0  0  0
  -28.7240  -13.3340   20.5440 C   0  0  0  0  0  2  0  0  0  0  0  0
  -29.9410  -13.7410   19.8320 N   0  0  0  0  0  0  0  0  0  0  0  0
  -31.7470  -15.0310   19.5280 O   0  0  0  0  0  0  0  0  0  0  0  0
  -29.8000  -16.2060   20.0160 N   0  0  0  0  0  0  0  0  0  0  0  0
  -28.8170  -16.0180   20.1440 H   0  0  0  0  0  0  0  0  0  0  0  0
  -25.2960  -13.9030   20.4570 C   0  0  0  0  0  0  0  0  0  0  0  0
  -24.2440  -13.1440   20.8820 C   0  0  0  0  0  0  0  0  0  0  0  0
  -24.6640  -11.7830   20.7670 C   0  0  0  0  0  0  0  0  0  0  0  0
  -26.2910  -13.0100   20.1050 N   0  0  0  0  0  0  0  0  0  0  0  0
  -25.9260  -11.7250   20.3550 N   0  0  0  0  0  0  0  0  0  0  0  0
  -23.9160  -10.5340   20.9710 C   0  0  0  0  0  0  0  0  0  0  0  0
  -24.3800   -9.5290   21.8490 C   0  0  0  0  0  3  0  0  0  0  0  0
  -23.6340   -8.3460   22.0420 C   0  0  0  0  0  3  0  0  0  0  0  0
  -22.4080   -8.1610   21.3600 C   0  0  0  0  0  0  0  0  0  0  0  0
  -21.9590   -9.1550   20.4730 C   0  0  0  0  0  3  0  0  0  0  0  0
  -22.7060  -10.3300   20.2770 C   0  0  0  0  0  3  0  0  0  0  0  0
  -21.6290   -7.0340   21.4630 O   0  0  0  0  0  0  0  0  0  0  0  0
  -21.6290   -6.2620   22.5960 C   0  0  0  0  0  0  0  0  0  0  0  0
  -21.2910   -6.7940   23.8590 C   0  0  0  0  0  3  0  0  0  0  0  0
  -21.2410   -5.9500   24.9860 C   0  0  0  0  0  3  0  0  0  0  0  0
  -21.5160   -4.5770   24.8520 C   0  0  0  0  0  0  0  0  0  0  0  0
  -21.8460   -4.0440   23.5930 C   0  0  0  0  0  3  0  0  0  0  0  0
  -21.9020   -4.8840   22.4680 C   0  0  0  0  0  0  0  0  0  0  0  0
  -22.2020   -4.3640   21.2540 F   0  0  0  0  0  0  0  0  0  0  0  0
  -21.4580   -3.7640   25.9330 F   0  0  0  0  0  0  0  0  0  0  0  0
  -22.8870  -13.6460   21.2780 C   0  0  0  0  0  0  0  0  0  0  0  0
  -22.2100  -12.9370   22.1730 N   0  0  0  0  0  0  0  0  0  0  0  0
  -22.4410  -14.7030   20.8290 O   0  0  0  0  0  0  0  0  0  0  0  0
  -22.5860  -12.0780   22.5460 H   0  0  0  0  0  0  0  0  0  0  0  0
  -21.3040  -13.2530   22.4870 H   0  0  0  0  0  0  0  0  0  0  0  0
  -25.4820  -15.2750   20.3090 N   0  0  0  0  0  0  0  0  0  0  0  0
  -24.7330  -15.9360   20.4780 H   0  0  0  0  0  0  0  0  0  0  0  0
  -26.2900  -15.6930   19.8700 H   0  0  0  0  0  0  0  0  0  0  0  0
  -27.9530  -24.5080   19.8550 C   0  0  0  0  0  2  0  0  0  0  0  0
  -28.2310  -26.0220   20.2240 O   0  0  0  0  0  0  0  0  0  0  0  0
  -24.6120  -31.7850   23.1690 C   0  0  0  0  0  0  0  0  0  0  0  0
  -27.2030  -27.0490   20.1320 C   0  0  0  0  0  0  0  0  0  0  0  0
  -23.4280  -30.4040   21.5040 C   0  0  0  0  0  3  0  0  0  0  0  0
  -24.8930  -28.8370   20.0790 C   0  0  0  0  0  0  0  0  0  0  0  0
  -25.9880  -30.6540   21.3770 C   0  0  0  0  0  2  0  0  0  0  0  0
  -26.0670  -29.2620   20.7140 C   0  0  0  0  0  0  0  0  0  0  0  0
  -27.2210  -28.3840   20.7250 C   0  0  0  0  0  3  0  0  0  0  0  0
  -26.0060  -26.7450   19.4480 C   0  0  0  0  0  3  0  0  0  0  0  0
  -24.8790  -27.5960   19.4290 C   0  0  0  0  0  3  0  0  0  0  0  0
  -23.6670  -29.7370   20.1220 C   0  0  0  0  0  2  0  0  0  0  0  0
  -24.6960  -30.9700   22.0730 N   0  0  0  0  0  0  0  0  0  0  0  0
  -23.5200  -32.0680   23.6860 O   0  0  0  0  0  0  0  0  0  0  0  0
  -22.7330  -29.3940   22.4520 C   0  0  0  0  0  0  0  0  0  0  0  0
  -21.4000  -29.2550   22.3370 N   0  0  0  0  0  0  0  0  0  0  0  0
  -23.3980  -28.7360   23.2570 O   0  0  0  0  0  0  0  0  0  0  0  0
  -20.9190  -29.8340   21.6640 H   0  0  0  0  0  0  0  0  0  0  0  0
  -17.9950  -28.1400   22.8810 C   0  0  0  0  0  0  0  0  0  0  0  0
  -20.5650  -28.3190   23.0970 C   0  0  0  0  0  3  0  0  0  0  0  0
  -20.6090  -26.9020   22.4760 C   0  0  0  0  0  2  0  0  0  0  0  0
  -19.4760  -26.6460   21.4770 C   0  0  0  0  0  2  0  0  0  0  0  0
  -18.1140  -26.8110   22.1570 C   0  0  0  0  0  2  0  0  0  0  0  0
  -19.1440  -28.8560   23.3080 C   0  0  0  0  0  0  0  0  0  0  0  0
  -18.9730  -30.1030   23.9480 C   0  0  0  0  0  3  0  0  0  0  0  0
  -17.6860  -30.6340   24.1600 C   0  0  0  0  0  3  0  0  0  0  0  0
  -16.5520  -29.9140   23.7460 C   0  0  0  0  0  3  0  0  0  0  0  0
  -16.7070  -28.6680   23.1150 C   0  0  0  0  0  3  0  0  0  0  0  0
  -25.8840  -32.4160   23.8160 C   0  0  0  0  0  3  0  0  0  0  0  0
  -26.3740  -31.6410   25.1010 C   0  0  1  0  0  0  0  0  0  0  0  0
  -25.2610  -31.4110   26.1490 C   0  0  0  0  0  1  0  0  0  0  0  0
  -26.9550  -30.2570   24.7270 C   0  0  0  0  0  1  0  0  0  0  0  0
  -27.5170  -32.4290   25.7840 C   0  0  0  0  0  1  0  0  0  0  0  0
  -25.5700  -33.8150   24.1480 N   0  0  0  0  0  0  0  0  0  0  0  0
  -25.9000  -34.8740   23.3960 C   0  0  0  0  0  0  0  0  0  0  0  0
  -26.5640  -34.7740   22.3600 O   0  0  0  0  0  0  0  0  0  0  0  0
  -24.9770  -33.9650   24.9530 H   0  0  0  0  0  0  0  0  0  0  0  0
  -24.1630  -36.6680   23.0720 C   0  0  0  0  0  1  0  0  0  0  0  0
  -25.4180  -36.2630   23.8620 C   0  0  0  0  0  3  0  0  0  0  0  0
  -27.5650  -37.1530   24.6600 C   0  0  0  0  0  1  0  0  0  0  0  0
  -26.4480  -37.3170   23.7320 N   0  0  0  0  0  0  0  0  0  0  0  0
  -26.0440  -38.2370   23.8800 H   0  0  0  0  0  0  0  0  0  0  0  0
  1  2  2  0
  2  5  1  0
  3  1  1  0
  4  6  2  0
  6  2  1  0
  7  4  1  0
  7  3  2  0
 10  8  1  6
 10 11  1  0
 10  4  1  0
 10  9  1  0
 12 20  1  0
 13 18  1  0
 14 15  1  0
 14 13  1  0
 16 15  1  0
 16 25  1  0
 16 17  1  0
 18 12  1  0
 18 17  1  0
 19 12  2  0
 20 11  1  0
 20 21  1  0
 22 23  2  0
 23 42  1  0
 24 23  1  0
 24 27  1  0
 25 26  1  0
 25 22  1  0
 26 24  2  0
 27 28  1  0
 28 29  2  0
 30 33  1  0
 30 29  1  0
 31 30  2  0
 32 31  1  0
 32 27  2  0
 33 34  1  0
 34 35  1  0
 35 36  2  0
 37 36  1  0
 37 41  1  0
 38 37  2  0
 39 34  2  0
 39 38  1  0
 40 39  1  0
 42 43  1  0
 43 46  1  0
 43 45  1  0
 44 42  2  0
 47 22  1  0
 47 48  1  0
 49 47  1  0
 50  3  1  0
 50 51  1  0
 52 63  2  0
 53 51  1  0
 53 58  1  0
 54 62  1  0
 54 64  1  0
 55 61  1  0
 55 57  1  0
 56 62  1  0
 57 58  2  0
 57 56  1  0
 59 53  2  0
 60 59  1  0
 60 55  2  0
 61 54  1  0
 62 52  1  0
 64 66  2  0
 65 64  1  0
 67 65  1  0
 68 77  2  0
 68 73  1  0
 69 65  1  0
 69 73  1  0
 70 69  1  0
 71 72  1  0
 71 70  1  0
 72 68  1  0
 73 74  2  0
 74 75  1  0
 76 75  2  0
 77 76  1  0
 78 52  1  0
 78 83  1  0
 78 79  1  0
 79 82  1  1
 79 80  1  0
 81 79  1  0
 83 86  1  0
 84 88  1  0
 84 83  1  0
 85 84  2  0
 88 87  1  0
 90 88  1  0
 90 91  1  0
 90 89  1  0
M  ISO  4  12 100  20 100  50 101  51 101
M  END
>  <TORSDO>  (39) 
F 19

>  <SCORE>  (39) 
-14.066

>  <name>  (39) 
40

>  <ligand_id>  (39) 
40

>  <original_smiles>  (39) 
[H]c1c(C([H])([H])[H])nc(C(C([H])([H])[H])(C([H])([H])[H])C([H])([H])N([H])C(=O)N2C([H])([H])C([H])([H])C([H])([H])C([H])(n3nc(-c4c([H])c([H])c(Oc5c([H])c([H])c(F)c([H])c5F)c([H])c4[H])c(C(=O)N([H])[H])c3N([H])[H])C2([H])[H])nc1C([H])([H])Oc1c([H])c([H])c2c(c1[H])C([H])([H])N(C(=O)C([H])(N([H])C(=O)C([H])(N([H])C([H])([H])[H])C([H])([H])[H])C(C([H])([H])[H])(C([H])([H])[H])C([H])([H])[H])C([H])(C(=O)N([H])C1([H])c3c([H])c([H])c([H])c([H])c3C([H])([H])C([H])([H])C1([H])[H])C2([H])[H]

>  <smiles>  (39) 
[H]c1c(C([H])([H])[H])nc(C(C([H])([H])[H])(C([H])([H])[H])C([H])([H])N([H])C(=O)N2C([H])([H])C([H])([H])C([H])([H])C([H])(n3nc(-c4c([H])c([H])c(Oc5c([H])c([H])c(F)c([H])c5F)c([H])c4[H])c(C(=O)N([H])[H])c3N([H])[H])C2([H])[H])nc1C([H])([H])Oc1c([H])c([H])c2c(c1[H])C([H])([H])N(C(=O)C([H])(N([H])C(=O)C([H])(N([H])C([H])([H])[H])C([H])([H])[H])C(C([H])([H])[H])(C([H])([H])[H])C([H])([H])[H])C([H])(C(=O)N([H])C1([H])c3c([H])c([H])c([H])c([H])c3C([H])([H])C([H])([H])C1([H])[H])C2([H])[H]

$$$$
41:0:0
     RDKit          3D

 91 99  0  0  1  0  0  0  0  0999 V2000
  -28.0380  -20.3970   21.2350 C   0  0  0  0  0  1  0  0  0  0  0  0
  -30.5280  -20.7440   21.4210 C   0  0  0  0  0  1  0  0  0  0  0  0
  -29.3450  -20.6060   20.4450 C   0  0  1  0  0  0  0  0  0  0  0  0
  -29.6270  -19.2940   19.4800 C   0  0  0  0  0  0  0  0  0  0  0  0
  -29.4920  -19.5790   18.1830 N   0  0  0  0  0  0  0  0  0  0  0  0
  -29.6890  -18.4240   17.4870 N   0  0  0  0  0  0  0  0  0  0  0  0
  -29.9080  -17.4300   18.2750 N   0  0  0  0  0  0  0  0  0  0  0  0
  -29.9240  -17.8660   19.5680 N   0  0  0  0  0  0  0  0  0  0  0  0
  -28.8590  -16.4600   21.3600 C   0  0  0  0  0  1  0  0  0  0  0  0
  -31.2250  -17.0730   21.5670 C   0  0  0  0  0  1  0  0  0  0  0  0
  -30.1540  -16.6350   20.5460 C   0  0  2  0  0  0  0  0  0  0  0  0
  -30.7320  -15.1440   19.9580 C   0  0  0  0  0  0  0  0  0  0  0  0
  -30.5700  -12.8120   18.9340 C   0  0  0  0  0  2  0  0  0  0  0  0
  -29.5560  -12.7820   17.7600 C   0  0  0  0  0  2  0  0  0  0  0  0
  -28.1110  -12.5800   18.2520 C   0  0  0  0  0  2  0  0  0  0  0  0
  -27.7900  -13.4500   19.4890 C   0  0  0  0  0  3  0  0  0  0  0  0
  -28.9100  -13.3680   20.5400 C   0  0  0  0  0  2  0  0  0  0  0  0
  -30.1400  -13.8680   19.9060 N   0  0  0  0  0  0  0  0  0  0  0  0
  -31.8720  -15.1740   19.4710 O   0  0  0  0  0  0  0  0  0  0  0  0
  -25.4530  -14.0060   20.3690 C   0  0  0  0  0  0  0  0  0  0  0  0
  -24.4140  -13.2180   20.7860 C   0  0  0  0  0  0  0  0  0  0  0  0
  -24.8750  -11.8710   20.6900 C   0  0  0  0  0  0  0  0  0  0  0  0
  -26.4820  -13.1360   20.0540 N   0  0  0  0  0  0  0  0  0  0  0  0
  -26.1470  -11.8450   20.3100 N   0  0  0  0  0  0  0  0  0  0  0  0
  -24.1590  -10.6030   20.8870 C   0  0  0  0  0  0  0  0  0  0  0  0
  -24.5780   -9.6640   21.8540 C   0  0  0  0  0  3  0  0  0  0  0  0
  -23.8630   -8.4590   22.0370 C   0  0  0  0  0  3  0  0  0  0  0  0
  -22.7150   -8.1900   21.2550 C   0  0  0  0  0  0  0  0  0  0  0  0
  -22.3200   -9.1170   20.2750 C   0  0  0  0  0  3  0  0  0  0  0  0
  -23.0340  -10.3120   20.0900 C   0  0  0  0  0  3  0  0  0  0  0  0
  -21.9700   -7.0410   21.3460 O   0  0  0  0  0  0  0  0  0  0  0  0
  -21.8060   -6.3820   22.5370 C   0  0  0  0  0  0  0  0  0  0  0  0
  -21.2260   -7.0090   23.6620 C   0  0  0  0  0  3  0  0  0  0  0  0
  -21.0130   -6.2730   24.8460 C   0  0  0  0  0  3  0  0  0  0  0  0
  -21.3690   -4.9120   24.9010 C   0  0  0  0  0  0  0  0  0  0  0  0
  -21.9430   -4.2860   23.7810 C   0  0  0  0  0  3  0  0  0  0  0  0
  -22.1580   -5.0190   22.6010 C   0  0  0  0  0  0  0  0  0  0  0  0
  -22.6910   -4.4060   21.5170 F   0  0  0  0  0  0  0  0  0  0  0  0
  -21.1590   -4.2020   26.0350 F   0  0  0  0  0  0  0  0  0  0  0  0
  -23.0370  -13.6840   21.1550 C   0  0  0  0  0  0  0  0  0  0  0  0
  -22.3700  -12.9580   22.0460 N   0  0  0  0  0  0  0  0  0  0  0  0
  -22.5670  -14.7230   20.6970 O   0  0  0  0  0  0  0  0  0  0  0  0
  -22.7710  -12.1140   22.4260 H   0  0  0  0  0  0  0  0  0  0  0  0
  -21.4530  -13.2450   22.3550 H   0  0  0  0  0  0  0  0  0  0  0  0
  -25.6010  -15.3760   20.1980 N   0  0  0  0  0  0  0  0  0  0  0  0
  -24.8330  -16.0270   20.3290 H   0  0  0  0  0  0  0  0  0  0  0  0
  -26.4010  -15.8030   19.7500 H   0  0  0  0  0  0  0  0  0  0  0  0
  -29.2340  -22.1690   19.7620 C   0  0  0  0  0  2  0  0  0  0  0  0
  -28.2310  -23.4780   20.1520 C   0  0  0  0  0  2  0  0  0  0  0  0
  -28.6140  -25.0310   20.6590 C   0  0  0  0  0  2  0  0  0  0  0  0
  -28.4600  -26.4350   20.0350 O   0  0  0  0  0  0  0  0  0  0  0  0
  -24.6700  -31.9480   23.1880 C   0  0  0  0  0  0  0  0  0  0  0  0
  -27.3320  -27.3110   20.1400 C   0  0  0  0  0  0  0  0  0  0  0  0
  -23.4910  -30.5330   21.5490 C   0  0  0  0  0  3  0  0  0  0  0  0
  -24.9620  -28.9800   20.1300 C   0  0  0  0  0  0  0  0  0  0  0  0
  -26.0350  -30.8560   21.3680 C   0  0  0  0  0  2  0  0  0  0  0  0
  -26.1350  -29.4640   20.7250 C   0  0  0  0  0  0  0  0  0  0  0  0
  -27.3240  -28.6470   20.7070 C   0  0  0  0  0  3  0  0  0  0  0  0
  -26.1290  -26.9060   19.5300 C   0  0  0  0  0  3  0  0  0  0  0  0
  -24.9650  -27.7110   19.5280 C   0  0  0  0  0  3  0  0  0  0  0  0
  -23.7200  -29.8580   20.1710 C   0  0  0  0  0  2  0  0  0  0  0  0
  -24.7520  -31.1340   22.0910 N   0  0  0  0  0  0  0  0  0  0  0  0
  -23.5810  -32.2120   23.7190 O   0  0  0  0  0  0  0  0  0  0  0  0
  -22.8360  -29.5110   22.5100 C   0  0  0  0  0  0  0  0  0  0  0  0
  -21.5100  -29.3200   22.3870 N   0  0  0  0  0  0  0  0  0  0  0  0
  -23.5210  -28.8920   23.3270 O   0  0  0  0  0  0  0  0  0  0  0  0
  -21.0120  -29.8750   21.7050 H   0  0  0  0  0  0  0  0  0  0  0  0
  -18.1450  -28.0850   22.9070 C   0  0  0  0  0  0  0  0  0  0  0  0
  -20.7050  -28.3670   23.1550 C   0  0  0  0  0  3  0  0  0  0  0  0
  -20.8130  -26.9410   22.5650 C   0  0  0  0  0  2  0  0  0  0  0  0
  -19.7050  -26.6190   21.5590 C   0  0  0  0  0  2  0  0  0  0  0  0
  -18.3270  -26.7440   22.2160 C   0  0  0  0  0  2  0  0  0  0  0  0
  -19.2600  -28.8540   23.3330 C   0  0  0  0  0  0  0  0  0  0  0  0
  -19.0340  -30.1080   23.9410 C   0  0  0  0  0  3  0  0  0  0  0  0
  -17.7260  -30.5930   24.1260 C   0  0  0  0  0  3  0  0  0  0  0  0
  -16.6260  -29.8200   23.7170 C   0  0  0  0  0  3  0  0  0  0  0  0
  -16.8360  -28.5680   23.1130 C   0  0  0  0  0  3  0  0  0  0  0  0
  -25.9380  -32.6060   23.8140 C   0  0  0  0  0  3  0  0  0  0  0  0
  -25.5990  -33.9930   24.1680 N   0  0  0  0  0  0  0  0  0  0  0  0
  -25.9150  -35.0680   23.4320 C   0  0  0  0  0  0  0  0  0  0  0  0
  -26.5910  -34.9950   22.4020 O   0  0  0  0  0  0  0  0  0  0  0  0
  -25.0000  -34.1230   24.9700 H   0  0  0  0  0  0  0  0  0  0  0  0
  -24.1690  -36.8470   23.0940 C   0  0  0  0  0  1  0  0  0  0  0  0
  -25.4050  -36.4400   23.9130 C   0  0  0  0  0  3  0  0  0  0  0  0
  -27.5120  -37.3380   24.7970 C   0  0  0  0  0  1  0  0  0  0  0  0
  -26.4240  -37.5100   23.8370 N   0  0  0  0  0  0  0  0  0  0  0  0
  -26.0030  -38.4200   23.9980 H   0  0  0  0  0  0  0  0  0  0  0  0
  -26.4740  -31.8330   25.0820 C   0  0  1  0  0  0  0  0  0  0  0  0
  -25.3860  -31.5380   26.1420 C   0  0  0  0  0  1  0  0  0  0  0  0
  -27.1060  -30.4820   24.6720 C   0  0  0  0  0  1  0  0  0  0  0  0
  -27.5950  -32.6550   25.7630 C   0  0  0  0  0  1  0  0  0  0  0  0
  3  1  1  1
  3  2  1  0
  4  8  1  0
  4  3  1  0
  5  4  2  0
  6  5  1  0
  6  7  2  0
  7  8  1  0
  8 11  1  0
 11  9  1  1
 11 10  1  0
 12 11  1  0
 13 18  1  0
 14 15  1  0
 14 13  1  0
 16 15  1  0
 16 23  1  0
 16 17  1  0
 18 12  1  0
 18 17  1  0
 19 12  2  0
 20 21  2  0
 21 40  1  0
 22 21  1  0
 22 25  1  0
 23 24  1  0
 23 20  1  0
 24 22  2  0
 25 26  1  0
 26 27  2  0
 28 31  1  0
 28 27  1  0
 29 28  2  0
 30 29  1  0
 30 25  2  0
 31 32  1  0
 32 37  2  0
 32 33  1  0
 33 34  2  0
 34 35  1  0
 35 39  1  0
 36 35  2  0
 37 36  1  0
 38 37  1  0
 40 41  1  0
 41 44  1  0
 41 43  1  0
 42 40  2  0
 45 46  1  0
 45 20  1  0
 47 45  1  0
 48 49  1  0
 48  3  1  0
 49 50  1  0
 51 53  1  0
 51 50  1  0
 52 63  2  0
 53 58  1  0
 54 62  1  0
 54 64  1  0
 55 61  1  0
 55 57  1  0
 56 62  1  0
 57 56  1  0
 58 57  2  0
 59 53  2  0
 60 59  1  0
 60 55  2  0
 61 54  1  0
 62 52  1  0
 64 66  2  0
 65 64  1  0
 67 65  1  0
 68 77  2  0
 68 73  1  0
 69 65  1  0
 69 73  1  0
 70 69  1  0
 71 72  1  0
 71 70  1  0
 72 68  1  0
 73 74  2  0
 74 75  1  0
 76 75  2  0
 77 76  1  0
 78 52  1  0
 78 79  1  0
 78 88  1  0
 79 82  1  0
 80 84  1  0
 80 79  1  0
 81 80  2  0
 84 83  1  0
 86 84  1  0
 86 87  1  0
 86 85  1  0
 88 91  1  1
 88 89  1  0
 90 88  1  0
M  ISO  4  11 100  12 100  50 101  51 101
M  END
>  <TORSDO>  (40) 
F 21

>  <SCORE>  (40) 
-13.688

>  <name>  (40) 
41

>  <ligand_id>  (40) 
41

>  <original_smiles>  (40) 
[H]c1c([H])c([H])c2c(c1[H])C([H])([H])C([H])([H])C([H])([H])C2([H])N([H])C(=O)C1([H])N(C(=O)C([H])(N([H])C(=O)C([H])(N([H])C([H])([H])[H])C([H])([H])[H])C(C([H])([H])[H])(C([H])([H])[H])C([H])([H])[H])C([H])([H])c2c([H])c(OC([H])([H])C([H])([H])C([H])([H])C(c3nnnn3C(C(=O)N3C([H])([H])C([H])([H])C([H])([H])C([H])(n4nc(-c5c([H])c([H])c(Oc6c([H])c([H])c(F)c([H])c6F)c([H])c5[H])c(C(=O)N([H])[H])c4N([H])[H])C3([H])[H])(C([H])([H])[H])C([H])([H])[H])(C([H])([H])[H])C([H])([H])[H])c([H])c([H])c2C1([H])[H]

>  <smiles>  (40) 
[H]c1c([H])c([H])c2c(c1[H])C([H])([H])C([H])([H])C([H])([H])C2([H])N([H])C(=O)C1([H])N(C(=O)C([H])(N([H])C(=O)C([H])(N([H])C([H])([H])[H])C([H])([H])[H])C(C([H])([H])[H])(C([H])([H])[H])C([H])([H])[H])C([H])([H])c2c([H])c(OC([H])([H])C([H])([H])C([H])([H])C(c3nnnn3C(C(=O)N3C([H])([H])C([H])([H])C([H])([H])C([H])(n4nc(-c5c([H])c([H])c(Oc6c([H])c([H])c(F)c([H])c6F)c([H])c5[H])c(C(=O)N([H])[H])c4N([H])[H])C3([H])[H])(C([H])([H])[H])C([H])([H])[H])(C([H])([H])[H])C([H])([H])[H])c([H])c([H])c2C1([H])[H]

$$$$
42:0:0
     RDKit          3D

 91 99  0  0  1  0  0  0  0  0999 V2000
  -28.8530  -23.2200   20.0480 C   0  0  0  0  0  0  0  0  0  0  0  0
  -29.2970  -20.9200   20.1570 C   0  0  0  0  0  0  0  0  0  0  0  0
  -30.0450  -23.0300   20.6440 N   0  0  0  0  0  0  0  0  0  0  0  0
  -30.3210  -21.6280   20.6870 N   0  0  0  0  0  0  0  0  0  0  0  0
  -28.3990  -21.9250   19.6550 N   0  0  0  0  0  0  0  0  0  0  0  0
  -29.2840  -19.1070   21.9400 C   0  0  0  0  0  1  0  0  0  0  0  0
  -27.7330  -18.7220   20.0900 C   0  0  0  0  0  1  0  0  0  0  0  0
  -29.1480  -19.2240   20.4090 C   0  0  1  0  0  0  0  0  0  0  0  0
  -30.1210  -17.9050   19.8420 C   0  0  0  0  0  2  0  0  0  0  0  0
  -30.5740  -15.1090   19.8720 C   0  0  0  0  0  0  0  0  0  0  0  0
  -30.3830  -12.7420   18.9340 C   0  0  0  0  0  2  0  0  0  0  0  0
  -29.3660  -12.6870   17.7710 C   0  0  0  0  0  2  0  0  0  0  0  0
  -27.9490  -12.4400   18.3150 C   0  0  0  0  0  2  0  0  0  0  0  0
  -27.6170  -13.3610   19.5170 C   0  0  0  0  0  3  0  0  0  0  0  0
  -28.7540  -13.4040   20.5630 C   0  0  0  0  0  2  0  0  0  0  0  0
  -29.9660  -13.8430   19.8600 N   0  0  0  0  0  0  0  0  0  0  0  0
  -31.7470  -15.1470   19.4920 O   0  0  0  0  0  0  0  0  0  0  0  0
  -29.8390  -16.3280   20.0990 N   0  0  0  0  0  0  0  0  0  0  0  0
  -28.8960  -16.1380   20.3990 H   0  0  0  0  0  0  0  0  0  0  0  0
  -25.3080  -13.9120   20.4610 C   0  0  0  0  0  0  0  0  0  0  0  0
  -24.2670  -13.1280   20.8810 C   0  0  0  0  0  0  0  0  0  0  0  0
  -24.7200  -11.7800   20.7610 C   0  0  0  0  0  0  0  0  0  0  0  0
  -26.3230  -13.0400   20.1100 N   0  0  0  0  0  0  0  0  0  0  0  0
  -25.9870  -11.7500   20.3570 N   0  0  0  0  0  0  0  0  0  0  0  0
  -24.0010  -10.5140   20.9590 C   0  0  0  0  0  0  0  0  0  0  0  0
  -24.4560   -9.5410   21.8740 C   0  0  0  0  0  3  0  0  0  0  0  0
  -23.7370   -8.3400   22.0630 C   0  0  0  0  0  3  0  0  0  0  0  0
  -22.5430   -8.1040   21.3400 C   0  0  0  0  0  0  0  0  0  0  0  0
  -22.1050   -9.0650   20.4130 C   0  0  0  0  0  3  0  0  0  0  0  0
  -22.8260  -10.2570   20.2240 C   0  0  0  0  0  3  0  0  0  0  0  0
  -21.7950   -6.9540   21.4350 O   0  0  0  0  0  0  0  0  0  0  0  0
  -21.7240   -6.2390   22.6030 C   0  0  0  0  0  0  0  0  0  0  0  0
  -21.2740   -6.8190   23.8100 C   0  0  0  0  0  3  0  0  0  0  0  0
  -21.1560   -6.0290   24.9700 C   0  0  0  0  0  3  0  0  0  0  0  0
  -21.4740   -4.6580   24.9240 C   0  0  0  0  0  0  0  0  0  0  0  0
  -21.9170   -4.0760   23.7220 C   0  0  0  0  0  3  0  0  0  0  0  0
  -22.0410   -4.8670   22.5650 C   0  0  0  0  0  0  0  0  0  0  0  0
  -22.4470   -4.2970   21.4050 F   0  0  0  0  0  0  0  0  0  0  0  0
  -21.3520   -3.8940   26.0360 F   0  0  0  0  0  0  0  0  0  0  0  0
  -22.8960  -13.6040   21.2640 C   0  0  0  0  0  0  0  0  0  0  0  0
  -22.2330  -12.8870   22.1660 N   0  0  0  0  0  0  0  0  0  0  0  0
  -22.4260  -14.6400   20.8000 O   0  0  0  0  0  0  0  0  0  0  0  0
  -22.6280  -12.0480   22.5610 H   0  0  0  0  0  0  0  0  0  0  0  0
  -21.3180  -13.1810   22.4680 H   0  0  0  0  0  0  0  0  0  0  0  0
  -25.4620  -15.2860   20.3220 N   0  0  0  0  0  0  0  0  0  0  0  0
  -24.7000  -15.9220   20.5330 H   0  0  0  0  0  0  0  0  0  0  0  0
  -26.2840  -15.7410   19.9460 H   0  0  0  0  0  0  0  0  0  0  0  0
  -25.9250  -22.4150   19.1810 C   0  0  0  0  0  1  0  0  0  0  0  0
  -27.2460  -21.7330   18.7610 C   0  0  0  0  0  2  0  0  0  0  0  0
  -28.0190  -24.6540   19.7740 C   0  0  0  0  0  2  0  0  0  0  0  0
  -28.3430  -26.1390   20.1920 O   0  0  0  0  0  0  0  0  0  0  0  0
  -24.6560  -31.8490   23.2090 C   0  0  0  0  0  0  0  0  0  0  0  0
  -27.2930  -27.1610   20.1250 C   0  0  0  0  0  0  0  0  0  0  0  0
  -23.4640  -30.4650   21.5540 C   0  0  0  0  0  3  0  0  0  0  0  0
  -24.9300  -28.9100   20.1180 C   0  0  0  0  0  0  0  0  0  0  0  0
  -26.0190  -30.7410   21.3950 C   0  0  0  0  0  2  0  0  0  0  0  0
  -26.1110  -29.3530   20.7300 C   0  0  0  0  0  0  0  0  0  0  0  0
  -27.2870  -28.4990   20.7190 C   0  0  0  0  0  3  0  0  0  0  0  0
  -26.0810  -26.8460   19.4600 C   0  0  0  0  0  3  0  0  0  0  0  0
  -24.9300  -27.6680   19.4690 C   0  0  0  0  0  3  0  0  0  0  0  0
  -23.6930  -29.7950   20.1720 C   0  0  0  0  0  2  0  0  0  0  0  0
  -24.7320  -31.0400   22.1060 N   0  0  0  0  0  0  0  0  0  0  0  0
  -23.5690  -32.1220   23.7410 O   0  0  0  0  0  0  0  0  0  0  0  0
  -22.7870  -29.4490   22.5100 C   0  0  0  0  0  0  0  0  0  0  0  0
  -21.4590  -29.2780   22.3850 N   0  0  0  0  0  0  0  0  0  0  0  0
  -23.4620  -28.8190   23.3270 O   0  0  0  0  0  0  0  0  0  0  0  0
  -20.9700  -29.8380   21.7010 H   0  0  0  0  0  0  0  0  0  0  0  0
  -18.0870  -28.0480   22.8790 C   0  0  0  0  0  0  0  0  0  0  0  0
  -20.6410  -28.3320   23.1500 C   0  0  0  0  0  3  0  0  0  0  0  0
  -20.7500  -26.9050   22.5650 C   0  0  0  0  0  2  0  0  0  0  0  0
  -19.6550  -26.5810   21.5460 C   0  0  0  0  0  2  0  0  0  0  0  0
  -18.2740  -26.7070   22.1930 C   0  0  0  0  0  2  0  0  0  0  0  0
  -19.1960  -28.8200   23.3140 C   0  0  0  0  0  0  0  0  0  0  0  0
  -18.9630  -30.0770   23.9140 C   0  0  0  0  0  3  0  0  0  0  0  0
  -17.6510  -30.5600   24.0840 C   0  0  0  0  0  3  0  0  0  0  0  0
  -16.5560  -29.7870   23.6600 C   0  0  0  0  0  3  0  0  0  0  0  0
  -16.7760  -28.5330   23.0620 C   0  0  0  0  0  3  0  0  0  0  0  0
  -25.9310  -32.4830   23.8410 C   0  0  0  0  0  3  0  0  0  0  0  0
  -26.4420  -31.7090   25.1200 C   0  0  1  0  0  0  0  0  0  0  0  0
  -25.3400  -31.4730   26.1820 C   0  0  0  0  0  1  0  0  0  0  0  0
  -27.0250  -30.3270   24.7380 C   0  0  0  0  0  1  0  0  0  0  0  0
  -27.5880  -32.5020   25.7910 C   0  0  0  0  0  1  0  0  0  0  0  0
  -25.6150  -33.8790   24.1810 N   0  0  0  0  0  0  0  0  0  0  0  0
  -25.9370  -34.9400   23.4290 C   0  0  0  0  0  0  0  0  0  0  0  0
  -26.5920  -34.8460   22.3870 O   0  0  0  0  0  0  0  0  0  0  0  0
  -25.0280  -34.0260   24.9880 H   0  0  0  0  0  0  0  0  0  0  0  0
  -24.1870  -36.7280   23.1300 C   0  0  0  0  0  1  0  0  0  0  0  0
  -25.4530  -36.3250   23.9030 C   0  0  0  0  0  3  0  0  0  0  0  0
  -27.6020  -37.2280   24.6810 C   0  0  0  0  0  1  0  0  0  0  0  0
  -26.4750  -37.3860   23.7670 N   0  0  0  0  0  0  0  0  0  0  0  0
  -26.0650  -38.3020   23.9240 H   0  0  0  0  0  0  0  0  0  0  0  0
  1  3  2  0
  2  8  1  0
  2  4  2  0
  3  4  1  0
  5  1  1  0
  5  2  1  0
  8  7  1  1
  8  6  1  0
  9 18  1  0
  9  8  1  0
 10 18  1  0
 11 16  1  0
 12 13  1  0
 12 11  1  0
 14 13  1  0
 14 23  1  0
 14 15  1  0
 16 10  1  0
 16 15  1  0
 17 10  2  0
 18 19  1  0
 20 21  2  0
 21 40  1  0
 22 21  1  0
 22 25  1  0
 23 24  1  0
 23 20  1  0
 24 22  2  0
 25 26  1  0
 26 27  2  0
 28 31  1  0
 28 27  1  0
 29 28  2  0
 30 29  1  0
 30 25  2  0
 31 32  1  0
 32 33  1  0
 33 34  2  0
 35 34  1  0
 35 39  1  0
 36 35  2  0
 37 32  2  0
 37 36  1  0
 38 37  1  0
 40 41  1  0
 41 44  1  0
 41 43  1  0
 42 40  2  0
 45 20  1  0
 45 46  1  0
 47 45  1  0
 49 48  1  0
 49  5  1  0
 50  1  1  0
 50 51  1  0
 52 63  2  0
 53 51  1  0
 53 58  1  0
 54 62  1  0
 54 64  1  0
 55 61  1  0
 55 57  1  0
 56 62  1  0
 57 56  1  0
 58 57  2  0
 59 60  1  0
 59 53  2  0
 60 55  2  0
 61 54  1  0
 62 52  1  0
 64 66  2  0
 65 64  1  0
 67 65  1  0
 68 77  2  0
 68 73  1  0
 69 65  1  0
 69 73  1  0
 70 69  1  0
 71 72  1  0
 71 70  1  0
 72 68  1  0
 73 74  2  0
 74 75  1  0
 76 75  2  0
 77 76  1  0
 78 52  1  0
 78 83  1  0
 78 79  1  0
 79 82  1  1
 79 80  1  0
 81 79  1  0
 83 86  1  0
 84 88  1  0
 84 83  1  0
 85 84  2  0
 88 87  1  0
 90 88  1  0
 90 91  1  0
 90 89  1  0
M  ISO  4  10 100  18 100  50 101  51 101
M  END
>  <TORSDO>  (41) 
F 20

>  <SCORE>  (41) 
-13.564

>  <name>  (41) 
42

>  <ligand_id>  (41) 
42

>  <original_smiles>  (41) 
[H]c1c([H])c([H])c2c(c1[H])C([H])([H])C([H])([H])C([H])([H])C2([H])N([H])C(=O)C1([H])N(C(=O)C([H])(N([H])C(=O)C([H])(N([H])C([H])([H])[H])C([H])([H])[H])C(C([H])([H])[H])(C([H])([H])[H])C([H])([H])[H])C([H])([H])c2c([H])c(OC([H])([H])c3nnc(C(C([H])([H])[H])(C([H])([H])[H])C([H])([H])N([H])C(=O)N4C([H])([H])C([H])([H])C([H])([H])C([H])(n5nc(-c6c([H])c([H])c(Oc7c([H])c([H])c(F)c([H])c7F)c([H])c6[H])c(C(=O)N([H])[H])c5N([H])[H])C4([H])[H])n3C([H])([H])C([H])([H])[H])c([H])c([H])c2C1([H])[H]

>  <smiles>  (41) 
[H]c1c([H])c([H])c2c(c1[H])C([H])([H])C([H])([H])C([H])([H])C2([H])N([H])C(=O)C1([H])N(C(=O)C([H])(N([H])C(=O)C([H])(N([H])C([H])([H])[H])C([H])([H])[H])C(C([H])([H])[H])(C([H])([H])[H])C([H])([H])[H])C([H])([H])c2c([H])c(OC([H])([H])c3nnc(C(C([H])([H])[H])(C([H])([H])[H])C([H])([H])N([H])C(=O)N4C([H])([H])C([H])([H])C([H])([H])C([H])(n5nc(-c6c([H])c([H])c(Oc7c([H])c([H])c(F)c([H])c7F)c([H])c6[H])c(C(=O)N([H])[H])c5N([H])[H])C4([H])[H])n3C([H])([H])C([H])([H])[H])c([H])c([H])c2C1([H])[H]

$$$$
43:0:0
     RDKit          3D

 94102  0  0  1  0  0  0  0  0999 V2000
  -30.0860  -20.0920   21.6420 C   0  0  0  0  0  3  0  0  0  0  0  0
  -32.1320  -20.6150   20.0670 C   0  0  0  0  0  3  0  0  0  0  0  0
  -30.9070  -19.0040   21.1740 C   0  0  0  0  0  0  0  0  0  0  0  0
  -30.2510  -21.4240   21.1180 C   0  0  0  0  0  0  0  0  0  0  0  0
  -31.9830  -19.3350   20.4310 N   0  0  0  0  0  0  0  0  0  0  0  0
  -31.3180  -21.6440   20.3250 N   0  0  0  0  0  0  0  0  0  0  0  0
  -27.8310  -22.2700   21.4460 C   0  0  0  0  0  1  0  0  0  0  0  0
  -29.3240  -22.6830   21.4670 C   0  0  0  0  0  3  0  0  0  0  0  0
  -29.5070  -24.0790   20.6510 C   0  0  0  0  0  3  0  0  0  0  0  0
  -28.6770  -25.3950   21.0980 C   0  0  0  0  0  3  0  0  0  0  0  0
  -28.7460  -26.6740   20.3310 O   0  0  0  0  0  0  0  0  0  0  0  0
  -24.6870  -31.8980   23.2340 C   0  0  0  0  0  0  0  0  0  0  0  0
  -27.5920  -27.4760   20.2630 C   0  0  0  0  0  0  0  0  0  0  0  0
  -23.5970  -30.4690   21.5410 C   0  0  0  0  0  3  0  0  0  0  0  0
  -25.1540  -28.9890   20.1510 C   0  0  0  0  0  0  0  0  0  0  0  0
  -26.1200  -30.8980   21.4370 C   0  0  0  0  0  2  0  0  0  0  0  0
  -26.2810  -29.5250   20.7900 C   0  0  0  0  0  0  0  0  0  0  0  0
  -27.4990  -28.7880   20.8250 C   0  0  0  0  0  3  0  0  0  0  0  0
  -26.4430  -26.9890   19.5960 C   0  0  0  0  0  3  0  0  0  0  0  0
  -25.2430  -27.7280   19.5380 C   0  0  0  0  0  3  0  0  0  0  0  0
  -23.8790  -29.8100   20.1650 C   0  0  0  0  0  2  0  0  0  0  0  0
  -24.8170  -31.1060   22.1290 N   0  0  0  0  0  0  0  0  0  0  0  0
  -23.5770  -32.1290   23.7360 O   0  0  0  0  0  0  0  0  0  0  0  0
  -22.9390  -29.4250   22.4720 C   0  0  0  0  0  0  0  0  0  0  0  0
  -21.6210  -29.2180   22.3170 N   0  0  0  0  0  0  0  0  0  0  0  0
  -23.6160  -28.7970   23.2930 O   0  0  0  0  0  0  0  0  0  0  0  0
  -21.1320  -29.7690   21.6220 H   0  0  0  0  0  0  0  0  0  0  0  0
  -18.2440  -28.0030   22.7950 C   0  0  0  0  0  0  0  0  0  0  0  0
  -20.8070  -28.2500   23.0540 C   0  0  0  0  0  3  0  0  0  0  0  0
  -20.9030  -26.8460   22.4130 C   0  0  0  0  0  2  0  0  0  0  0  0
  -19.7900  -26.5680   21.3960 C   0  0  0  0  0  2  0  0  0  0  0  0
  -18.4120  -26.6870   22.0570 C   0  0  0  0  0  2  0  0  0  0  0  0
  -19.3680  -28.7460   23.2490 C   0  0  0  0  0  0  0  0  0  0  0  0
  -19.1530  -29.9800   23.9010 C   0  0  0  0  0  3  0  0  0  0  0  0
  -17.8510  -30.4740   24.0990 C   0  0  0  0  0  3  0  0  0  0  0  0
  -16.7420  -29.7280   23.6600 C   0  0  0  0  0  3  0  0  0  0  0  0
  -16.9410  -28.4950   23.0170 C   0  0  0  0  0  3  0  0  0  0  0  0
  -25.9240  -32.5710   23.9080 C   0  0  0  0  0  3  0  0  0  0  0  0
  -25.5690  -33.9680   24.1980 N   0  0  0  0  0  0  0  0  0  0  0  0
  -25.9190  -35.0140   23.4400 C   0  0  0  0  0  0  0  0  0  0  0  0
  -26.6410  -34.9060   22.4430 O   0  0  0  0  0  0  0  0  0  0  0  0
  -24.9310  -34.1210   24.9660 H   0  0  0  0  0  0  0  0  0  0  0  0
  -24.1830  -36.7680   22.9590 C   0  0  0  0  0  1  0  0  0  0  0  0
  -25.3850  -36.4000   23.8460 C   0  0  0  0  0  3  0  0  0  0  0  0
  -27.4430  -37.3420   24.7960 C   0  0  0  0  0  1  0  0  0  0  0  0
  -26.4050  -37.4690   23.7760 N   0  0  0  0  0  0  0  0  0  0  0  0
  -25.9760  -38.3850   23.8740 H   0  0  0  0  0  0  0  0  0  0  0  0
  -26.3900  -31.8350   25.2240 C   0  0  1  0  0  0  0  0  0  0  0  0
  -25.2470  -31.5820   26.2330 C   0  0  0  0  0  1  0  0  0  0  0  0
  -27.0340  -30.4720   24.8840 C   0  0  0  0  0  1  0  0  0  0  0  0
  -27.4810  -32.6730   25.9340 C   0  0  0  0  0  1  0  0  0  0  0  0
  -30.7460  -17.4480   21.5340 C   0  0  0  0  0  2  0  0  0  0  0  0
  -30.9360  -15.1150   20.3390 C   0  0  0  0  0  0  0  0  0  0  0  0
  -30.7070  -12.8250   19.2790 C   0  0  0  0  0  2  0  0  0  0  0  0
  -29.7570  -12.8410   18.0570 C   0  0  0  0  0  2  0  0  0  0  0  0
  -28.2890  -12.6190   18.4810 C   0  0  0  0  0  2  0  0  0  0  0  0
  -27.8910  -13.4810   19.7080 C   0  0  0  0  0  3  0  0  0  0  0  0
  -28.9860  -13.4950   20.8140 C   0  0  0  0  0  2  0  0  0  0  0  0
  -30.2620  -13.9010   20.2060 N   0  0  0  0  0  0  0  0  0  0  0  0
  -32.1480  -15.1230   20.1010 O   0  0  0  0  0  0  0  0  0  0  0  0
  -30.2500  -16.3390   20.5800 N   0  0  0  0  0  0  0  0  0  0  0  0
  -25.5460  -14.0910   20.5510 C   0  0  0  0  0  0  0  0  0  0  0  0
  -24.4740  -13.3340   20.9120 C   0  0  0  0  0  0  0  0  0  0  0  0
  -24.9140  -11.9800   20.8260 C   0  0  0  0  0  0  0  0  0  0  0  0
  -26.5650  -13.2020   20.2420 N   0  0  0  0  0  0  0  0  0  0  0  0
  -26.1970  -11.9210   20.4810 N   0  0  0  0  0  0  0  0  0  0  0  0
  -24.1770  -10.7340   21.0040 C   0  0  0  0  0  0  0  0  0  0  0  0
  -24.5760   -9.7760   21.9570 C   0  0  0  0  0  3  0  0  0  0  0  0
  -23.8340   -8.5900   22.1260 C   0  0  0  0  0  3  0  0  0  0  0  0
  -22.6820   -8.3560   21.3390 C   0  0  0  0  0  0  0  0  0  0  0  0
  -22.3040   -9.3070   20.3780 C   0  0  0  0  0  3  0  0  0  0  0  0
  -23.0450  -10.4830   20.2050 C   0  0  0  0  0  3  0  0  0  0  0  0
  -21.9160   -7.2180   21.4100 O   0  0  0  0  0  0  0  0  0  0  0  0
  -21.7830   -6.5150   22.5780 C   0  0  0  0  0  0  0  0  0  0  0  0
  -21.2240   -7.1020   23.7340 C   0  0  0  0  0  3  0  0  0  0  0  0
  -21.0330   -6.3280   24.8950 C   0  0  0  0  0  3  0  0  0  0  0  0
  -21.3940   -4.9670   24.9010 C   0  0  0  0  0  0  0  0  0  0  0  0
  -21.9510   -4.3800   23.7520 C   0  0  0  0  0  3  0  0  0  0  0  0
  -22.1400   -5.1510   22.5910 C   0  0  0  0  0  0  0  0  0  0  0  0
  -22.6560   -4.5780   21.4780 F   0  0  0  0  0  0  0  0  0  0  0  0
  -21.2020   -4.2210   26.0140 F   0  0  0  0  0  0  0  0  0  0  0  0
  -23.0920  -13.8350   21.2160 C   0  0  0  0  0  0  0  0  0  0  0  0
  -22.3710  -13.1490   22.0950 N   0  0  0  0  0  0  0  0  0  0  0  0
  -22.6630  -14.8690   20.7080 O   0  0  0  0  0  0  0  0  0  0  0  0
  -22.7370  -12.3170   22.5340 H   0  0  0  0  0  0  0  0  0  0  0  0
  -21.4370  -13.4580   22.3240 H   0  0  0  0  0  0  0  0  0  0  0  0
  -25.7020  -15.4590   20.4420 N   0  0  0  0  0  0  0  0  0  0  0  0
  -24.9310  -16.0850   20.6450 H   0  0  0  0  0  0  0  0  0  0  0  0
  -26.5210  -15.9320   20.0910 H   0  0  0  0  0  0  0  0  0  0  0  0
  -28.9460  -16.5360   19.8670 C   0  0  0  0  0  2  0  0  0  0  0  0
  -29.5140  -18.2720   18.0390 C   0  0  0  0  0  1  0  0  0  0  0  0
  -27.1940  -17.5450   18.2690 C   0  0  0  0  0  1  0  0  0  0  0  0
  -28.0600  -18.9130   20.1280 C   0  0  0  0  0  1  0  0  0  0  0  0
  -28.4810  -17.8290   19.1040 C   0  0  1  0  0  0  0  0  0  0  0  0
  2  6  2  0
  2  5  1  0
  3 52  1  0
  3  1  1  0
  4  8  1  0
  4  1  2  0
  5  3  2  0
  6  4  1  0
  8  7  1  0
  9 10  2  0
  9  8  1  0
 11 10  1  0
 12 23  2  0
 13 11  1  0
 13 18  1  0
 14 22  1  0
 14 24  1  0
 15 21  1  0
 15 17  1  0
 16 22  1  0
 17 18  2  0
 17 16  1  0
 19 13  2  0
 20 19  1  0
 20 15  2  0
 21 14  1  0
 22 12  1  0
 24 26  2  0
 25 24  1  0
 27 25  1  0
 28 37  2  0
 28 33  1  0
 29 25  1  0
 29 33  1  0
 30 29  1  0
 31 32  1  0
 31 30  1  0
 32 28  1  0
 33 34  2  0
 34 35  1  0
 36 35  2  0
 37 36  1  0
 38 12  1  0
 38 39  1  0
 38 48  1  0
 39 42  1  0
 40 44  1  0
 40 39  1  0
 41 40  2  0
 44 43  1  0
 46 44  1  0
 46 47  1  0
 46 45  1  0
 48 51  1  1
 48 49  1  0
 50 48  1  0
 53 61  1  0
 54 59  1  0
 55 56  1  0
 55 54  1  0
 57 56  1  0
 57 65  1  0
 57 58  1  0
 59 53  1  0
 59 58  1  0
 60 53  2  0
 61 52  1  0
 62 63  2  0
 63 82  1  0
 64 63  1  0
 64 67  1  0
 65 66  1  0
 65 62  1  0
 66 64  2  0
 67 68  1  0
 68 69  2  0
 70 73  1  0
 70 69  1  0
 71 70  2  0
 72 71  1  0
 72 67  2  0
 73 74  1  0
 74 79  2  0
 74 75  1  0
 75 76  2  0
 76 77  1  0
 77 81  1  0
 78 77  2  0
 79 78  1  0
 80 79  1  0
 82 83  1  0
 83 86  1  0
 83 85  1  0
 84 82  2  0
 87 62  1  0
 87 88  1  0
 89 87  1  0
 90 61  1  0
 94 91  1  6
 92 94  1  0
 94 90  1  0
 94 93  1  0
M  ISO  4  10 101  11 101  53 100  61 100
M  END
>  <TORSDO>  (42) 
F 22

>  <SCORE>  (42) 
-12.940

>  <name>  (42) 
43

>  <ligand_id>  (42) 
43

>  <original_smiles>  (42) 
[H]c1nc(C([H])([H])N(C(=O)N2C([H])([H])C([H])([H])C([H])([H])C([H])(n3nc(-c4c([H])c([H])c(Oc5c([H])c([H])c(F)c([H])c5F)c([H])c4[H])c(C(=O)N([H])[H])c3N([H])[H])C2([H])[H])C([H])([H])C(C([H])([H])[H])(C([H])([H])[H])C([H])([H])[H])c([H])c(C([H])(C([H])([H])[H])C([H])([H])C([H])([H])Oc2c([H])c([H])c3c(c2[H])C([H])([H])N(C(=O)C([H])(N([H])C(=O)C([H])(N([H])C([H])([H])[H])C([H])([H])[H])C(C([H])([H])[H])(C([H])([H])[H])C([H])([H])[H])C([H])(C(=O)N([H])C2([H])c4c([H])c([H])c([H])c([H])c4C([H])([H])C([H])([H])C2([H])[H])C3([H])[H])n1

>  <smiles>  (42) 
[H]c1nc(C([H])([H])N(C(=O)N2C([H])([H])C([H])([H])C([H])([H])C([H])(n3nc(-c4c([H])c([H])c(Oc5c([H])c([H])c(F)c([H])c5F)c([H])c4[H])c(C(=O)N([H])[H])c3N([H])[H])C2([H])[H])C([H])([H])C(C([H])([H])[H])(C([H])([H])[H])C([H])([H])[H])c([H])c(C([H])(C([H])([H])[H])C([H])([H])C([H])([H])Oc2c([H])c([H])c3c(c2[H])C([H])([H])N(C(=O)C([H])(N([H])C(=O)C([H])(N([H])C([H])([H])[H])C([H])([H])[H])C(C([H])([H])[H])(C([H])([H])[H])C([H])([H])[H])C([H])(C(=O)N([H])C2([H])c4c([H])c([H])c([H])c([H])c4C([H])([H])C([H])([H])C2([H])[H])C3([H])[H])n1

$$$$
44:0:0
     RDKit          3D

 93101  0  0  1  0  0  0  0  0999 V2000
  -30.1560  -20.6030   21.3620 C   0  0  0  0  0  3  0  0  0  0  0  0
  -29.1360  -21.2160   20.5880 C   0  0  0  0  0  0  0  0  0  0  0  0
  -29.9660  -18.5760   20.1920 C   0  0  0  0  0  0  0  0  0  0  0  0
  -28.9320  -19.1820   19.4090 C   0  0  0  0  0  0  0  0  0  0  0  0
  -30.5700  -19.3160   21.1660 N   0  0  0  0  0  0  0  0  0  0  0  0
  -28.5330  -20.4870   19.6060 N   0  0  0  0  0  0  0  0  0  0  0  0
  -28.2560  -18.4180   18.2640 C   0  0  1  0  0  0  0  0  0  0  0  0
  -27.9450  -17.1740   18.6360 F   0  0  0  0  0  0  0  0  0  0  0  0
  -27.1300  -19.0200   17.8730 F   0  0  0  0  0  0  0  0  0  0  0  0
  -29.0830  -18.3560   17.2190 F   0  0  0  0  0  0  0  0  0  0  0  0
  -28.5320  -22.6040   20.9840 C   0  0  0  0  0  2  0  0  0  0  0  0
  -28.8770  -23.9450   20.2110 C   0  0  0  0  0  2  0  0  0  0  0  0
  -28.2130  -25.2340   20.8590 C   0  0  0  0  0  2  0  0  0  0  0  0
  -28.4350  -26.5780   20.2960 O   0  0  0  0  0  0  0  0  0  0  0  0
  -24.6400  -31.9340   23.2700 C   0  0  0  0  0  0  0  0  0  0  0  0
  -27.3180  -27.4100   20.2600 C   0  0  0  0  0  0  0  0  0  0  0  0
  -23.4610  -30.5120   21.6310 C   0  0  0  0  0  3  0  0  0  0  0  0
  -24.9350  -28.9690   20.2240 C   0  0  0  0  0  0  0  0  0  0  0  0
  -25.9930  -30.8660   21.4570 C   0  0  0  0  0  2  0  0  0  0  0  0
  -26.0920  -29.4850   20.8220 C   0  0  0  0  0  0  0  0  0  0  0  0
  -27.2910  -28.7170   20.8290 C   0  0  0  0  0  3  0  0  0  0  0  0
  -26.1430  -26.9390   19.6370 C   0  0  0  0  0  3  0  0  0  0  0  0
  -24.9600  -27.7000   19.6240 C   0  0  0  0  0  3  0  0  0  0  0  0
  -23.6880  -29.8290   20.2570 C   0  0  0  0  0  2  0  0  0  0  0  0
  -24.7160  -31.1200   22.1770 N   0  0  0  0  0  0  0  0  0  0  0  0
  -23.5510  -32.2030   23.7970 O   0  0  0  0  0  0  0  0  0  0  0  0
  -22.8040  -29.4940   22.5950 C   0  0  0  0  0  0  0  0  0  0  0  0
  -21.4820  -29.3000   22.4570 N   0  0  0  0  0  0  0  0  0  0  0  0
  -23.4840  -28.8820   23.4230 O   0  0  0  0  0  0  0  0  0  0  0  0
  -20.9940  -29.8470   21.7620 H   0  0  0  0  0  0  0  0  0  0  0  0
  -18.1130  -28.0750   22.9400 C   0  0  0  0  0  0  0  0  0  0  0  0
  -20.6670  -28.3600   23.2290 C   0  0  0  0  0  3  0  0  0  0  0  0
  -20.7870  -26.9250   22.6650 C   0  0  0  0  0  2  0  0  0  0  0  0
  -19.6950  -26.5850   21.6450 C   0  0  0  0  0  2  0  0  0  0  0  0
  -18.3070  -26.7220   22.2770 C   0  0  0  0  0  2  0  0  0  0  0  0
  -19.2210  -28.8510   23.3720 C   0  0  0  0  0  0  0  0  0  0  0  0
  -18.9870  -30.1160   23.9530 C   0  0  0  0  0  3  0  0  0  0  0  0
  -17.6750  -30.6060   24.1060 C   0  0  0  0  0  3  0  0  0  0  0  0
  -16.5820  -29.8280   23.6900 C   0  0  0  0  0  3  0  0  0  0  0  0
  -16.8010  -28.5650   23.1120 C   0  0  0  0  0  3  0  0  0  0  0  0
  -25.9140  -32.5820   23.8940 C   0  0  0  0  0  3  0  0  0  0  0  0
  -25.5920  -33.9820   24.2030 N   0  0  0  0  0  0  0  0  0  0  0  0
  -25.9330  -35.0280   23.4400 C   0  0  0  0  0  0  0  0  0  0  0  0
  -26.6200  -34.9170   22.4200 O   0  0  0  0  0  0  0  0  0  0  0  0
  -24.9810  -34.1420   24.9910 H   0  0  0  0  0  0  0  0  0  0  0  0
  -24.2070  -36.8120   23.0320 C   0  0  0  0  0  1  0  0  0  0  0  0
  -25.4310  -36.4190   23.8740 C   0  0  0  0  0  3  0  0  0  0  0  0
  -27.5440  -37.3180   24.7430 C   0  0  0  0  0  1  0  0  0  0  0  0
  -26.4630  -37.4740   23.7740 N   0  0  0  0  0  0  0  0  0  0  0  0
  -26.0510  -38.3950   23.9020 H   0  0  0  0  0  0  0  0  0  0  0  0
  -26.4230  -31.8300   25.1860 C   0  0  1  0  0  0  0  0  0  0  0  0
  -25.3180  -31.5840   26.2400 C   0  0  0  0  0  1  0  0  0  0  0  0
  -27.0350  -30.4590   24.8150 C   0  0  0  0  0  1  0  0  0  0  0  0
  -27.5520  -32.6490   25.8570 C   0  0  0  0  0  1  0  0  0  0  0  0
  -30.6250  -17.1810   19.8770 C   0  0  0  0  0  2  0  0  0  0  0  0
  -30.8480  -14.7080   20.1550 C   0  0  0  0  0  0  0  0  0  0  0  0
  -30.5180  -12.5330   18.9890 C   0  0  0  0  0  2  0  0  0  0  0  0
  -29.5260  -12.7070   17.8190 C   0  0  0  0  0  2  0  0  0  0  0  0
  -28.0720  -12.5380   18.3030 C   0  0  0  0  0  2  0  0  0  0  0  0
  -27.7760  -13.3470   19.5950 C   0  0  0  0  0  3  0  0  0  0  0  0
  -28.8810  -13.1210   20.6460 C   0  0  0  0  0  2  0  0  0  0  0  0
  -30.1570  -13.5220   20.0310 N   0  0  0  0  0  0  0  0  0  0  0  0
  -31.9790  -14.7980   19.6670 O   0  0  0  0  0  0  0  0  0  0  0  0
  -29.4500  -16.0090   21.7590 C   0  0  0  0  0  1  0  0  0  0  0  0
  -30.1790  -15.8730   20.4920 N   0  0  0  0  0  0  0  0  0  0  0  0
  -25.4130  -13.9220   20.4160 C   0  0  0  0  0  0  0  0  0  0  0  0
  -24.3660  -13.1360   20.8150 C   0  0  0  0  0  0  0  0  0  0  0  0
  -24.8330  -11.7880   20.7430 C   0  0  0  0  0  0  0  0  0  0  0  0
  -26.4500  -13.0500   20.1270 N   0  0  0  0  0  0  0  0  0  0  0  0
  -26.1090  -11.7610   20.3830 N   0  0  0  0  0  0  0  0  0  0  0  0
  -24.1210  -10.5180   20.9410 C   0  0  0  0  0  0  0  0  0  0  0  0
  -24.5620   -9.5630   21.8830 C   0  0  0  0  0  3  0  0  0  0  0  0
  -23.8500   -8.3590   22.0670 C   0  0  0  0  0  3  0  0  0  0  0  0
  -22.6820   -8.1010   21.3100 C   0  0  0  0  0  0  0  0  0  0  0  0
  -22.2600   -9.0450   20.3580 C   0  0  0  0  0  3  0  0  0  0  0  0
  -22.9730  -10.2420   20.1710 C   0  0  0  0  0  3  0  0  0  0  0  0
  -21.9420   -6.9470   21.4030 O   0  0  0  0  0  0  0  0  0  0  0  0
  -21.8560   -6.2410   22.5760 C   0  0  0  0  0  0  0  0  0  0  0  0
  -21.3610   -6.8240   23.7630 C   0  0  0  0  0  3  0  0  0  0  0  0
  -21.2240   -6.0420   24.9270 C   0  0  0  0  0  3  0  0  0  0  0  0
  -21.5690   -4.6780   24.9040 C   0  0  0  0  0  0  0  0  0  0  0  0
  -22.0560   -4.0940   23.7210 C   0  0  0  0  0  3  0  0  0  0  0  0
  -22.1950   -4.8730   22.5600 C   0  0  0  0  0  0  0  0  0  0  0  0
  -22.6450   -4.3000   21.4170 F   0  0  0  0  0  0  0  0  0  0  0  0
  -21.4290   -3.9240   26.0200 F   0  0  0  0  0  0  0  0  0  0  0  0
  -22.9780  -13.6020   21.1500 C   0  0  0  0  0  0  0  0  0  0  0  0
  -22.2880  -12.8850   22.0300 N   0  0  0  0  0  0  0  0  0  0  0  0
  -22.5160  -14.6340   20.6660 O   0  0  0  0  0  0  0  0  0  0  0  0
  -22.6750  -12.0500   22.4420 H   0  0  0  0  0  0  0  0  0  0  0  0
  -21.3590  -13.1790   22.2960 H   0  0  0  0  0  0  0  0  0  0  0  0
  -25.5640  -15.2950   20.2530 N   0  0  0  0  0  0  0  0  0  0  0  0
  -24.7940  -15.9400   20.3900 H   0  0  0  0  0  0  0  0  0  0  0  0
  -26.3900  -15.7380   19.8710 H   0  0  0  0  0  0  0  0  0  0  0  0
  2 11  1  0
  2  1  2  0
  3  5  2  0
  4  6  2  0
  4  3  1  0
  5  1  1  0
  6  2  1  0
  7  8  1  1
  7  4  1  0
  9  7  1  0
 10  7  1  0
 12 13  1  0
 12 11  1  0
 14 13  1  0
 15 26  2  0
 16 14  1  0
 16 21  1  0
 17 25  1  0
 17 27  1  0
 18 24  1  0
 18 20  1  0
 19 25  1  0
 20 21  2  0
 20 19  1  0
 22 16  2  0
 23 22  1  0
 23 18  2  0
 24 17  1  0
 25 15  1  0
 27 29  2  0
 28 27  1  0
 30 28  1  0
 31 40  2  0
 31 36  1  0
 32 28  1  0
 32 36  1  0
 33 32  1  0
 34 35  1  0
 34 33  1  0
 35 31  1  0
 36 37  2  0
 37 38  1  0
 39 38  2  0
 40 39  1  0
 41 15  1  0
 41 42  1  0
 41 51  1  0
 42 45  1  0
 43 47  1  0
 43 42  1  0
 44 43  2  0
 47 46  1  0
 49 47  1  0
 49 50  1  0
 49 48  1  0
 51 54  1  1
 51 52  1  0
 53 51  1  0
 55  3  1  0
 55 65  1  0
 56 65  1  0
 57 62  1  0
 58 59  1  0
 58 57  1  0
 60 59  1  0
 60 69  1  0
 60 61  1  0
 62 56  1  0
 62 61  1  0
 63 56  2  0
 65 64  1  0
 66 67  2  0
 67 86  1  0
 68 67  1  0
 68 71  1  0
 69 70  1  0
 69 66  1  0
 70 68  2  0
 71 72  1  0
 72 73  2  0
 74 77  1  0
 74 73  1  0
 75 74  2  0
 76 75  1  0
 76 71  2  0
 77 78  1  0
 78 79  1  0
 79 80  2  0
 81 80  1  0
 81 85  1  0
 82 81  2  0
 83 78  2  0
 83 82  1  0
 84 83  1  0
 86 87  1  0
 87 90  1  0
 87 89  1  0
 88 86  2  0
 91 92  1  0
 91 66  1  0
 93 91  1  0
M  ISO  4  13 101  14 101  56 100  65 100
M  END
>  <TORSDO>  (43) 
F 21

>  <SCORE>  (43) 
-13.493

>  <name>  (43) 
44

>  <ligand_id>  (43) 
44

>  <original_smiles>  (43) 
[H]c1nc(C([H])([H])N(C(=O)N2C([H])([H])C([H])([H])C([H])([H])C([H])(n3nc(-c4c([H])c([H])c(Oc5c([H])c([H])c(F)c([H])c5F)c([H])c4[H])c(C(=O)N([H])[H])c3N([H])[H])C2([H])[H])C([H])([H])[H])c(C(F)(F)F)nc1C([H])([H])C([H])([H])C([H])([H])Oc1c([H])c([H])c2c(c1[H])C([H])([H])N(C(=O)C([H])(N([H])C(=O)C([H])(N([H])C([H])([H])[H])C([H])([H])[H])C(C([H])([H])[H])(C([H])([H])[H])C([H])([H])[H])C([H])(C(=O)N([H])C1([H])c3c([H])c([H])c([H])c([H])c3C([H])([H])C([H])([H])C1([H])[H])C2([H])[H]

>  <smiles>  (43) 
[H]c1nc(C([H])([H])N(C(=O)N2C([H])([H])C([H])([H])C([H])([H])C([H])(n3nc(-c4c([H])c([H])c(Oc5c([H])c([H])c(F)c([H])c5F)c([H])c4[H])c(C(=O)N([H])[H])c3N([H])[H])C2([H])[H])C([H])([H])[H])c(C(F)(F)F)nc1C([H])([H])C([H])([H])C([H])([H])Oc1c([H])c([H])c2c(c1[H])C([H])([H])N(C(=O)C([H])(N([H])C(=O)C([H])(N([H])C([H])([H])[H])C([H])([H])[H])C(C([H])([H])[H])(C([H])([H])[H])C([H])([H])[H])C([H])(C(=O)N([H])C1([H])c3c([H])c([H])c([H])c([H])c3C([H])([H])C([H])([H])C1([H])[H])C2([H])[H]

$$$$
45:0:0
     RDKit          3D

 90 98  0  0  1  0  0  0  0  0999 V2000
  -28.3830  -21.6960   21.7300 C   0  0  0  0  0  2  0  0  0  0  0  0
  -29.3560  -20.2850   20.4950 C   0  0  0  0  0  0  0  0  0  0  0  0
  -28.8030  -20.4240   21.7400 N   0  0  0  0  0  0  0  0  0  0  0  0
  -29.2360  -21.4550   19.7620 N   0  0  0  0  0  2  0  0  0  0  0  0
  -28.5920  -22.3950   20.6060 N   0  0  0  0  0  0  0  0  0  0  0  0
  -31.3630  -18.8330   21.1250 C   0  0  0  0  0  1  0  0  0  0  0  0
  -30.7600  -19.0720   18.7330 C   0  0  0  0  0  1  0  0  0  0  0  0
  -30.1750  -18.9280   20.1510 C   0  0  2  0  0  0  0  0  0  0  0  0
  -29.3840  -17.4900   20.1700 C   0  0  0  0  0  2  0  0  0  0  0  0
  -30.7230  -15.0380   20.1770 C   0  0  0  0  0  0  0  0  0  0  0  0
  -30.6520  -12.7070   19.2330 C   0  0  0  0  0  2  0  0  0  0  0  0
  -29.7040  -12.7210   18.0100 C   0  0  0  0  0  2  0  0  0  0  0  0
  -28.2370  -12.5260   18.4440 C   0  0  0  0  0  2  0  0  0  0  0  0
  -27.8520  -13.4190   19.6530 C   0  0  0  0  0  3  0  0  0  0  0  0
  -28.9150  -13.3490   20.7730 C   0  0  0  0  0  2  0  0  0  0  0  0
  -30.2010  -13.7560   20.1830 N   0  0  0  0  0  0  0  0  0  0  0  0
  -31.8450  -15.2350   19.6990 O   0  0  0  0  0  0  0  0  0  0  0  0
  -29.8760  -16.0660   20.5910 N   0  0  0  0  0  0  0  0  0  0  0  0
  -29.1510  -15.6380   21.1470 H   0  0  0  0  0  0  0  0  0  0  0  0
  -25.4630  -13.9920   20.3910 C   0  0  0  0  0  0  0  0  0  0  0  0
  -24.4050  -13.2100   20.7700 C   0  0  0  0  0  0  0  0  0  0  0  0
  -24.8770  -11.8620   20.7360 C   0  0  0  0  0  0  0  0  0  0  0  0
  -26.5120  -13.1200   20.1480 N   0  0  0  0  0  0  0  0  0  0  0  0
  -26.1660  -11.8330   20.4160 N   0  0  0  0  0  0  0  0  0  0  0  0
  -24.1610  -10.5960   20.9320 C   0  0  0  0  0  0  0  0  0  0  0  0
  -24.5740   -9.6560   21.9020 C   0  0  0  0  0  3  0  0  0  0  0  0
  -23.8560   -8.4550   22.0850 C   0  0  0  0  0  3  0  0  0  0  0  0
  -22.7120   -8.1840   21.2990 C   0  0  0  0  0  0  0  0  0  0  0  0
  -22.3190   -9.1120   20.3190 C   0  0  0  0  0  3  0  0  0  0  0  0
  -23.0370  -10.3060   20.1330 C   0  0  0  0  0  3  0  0  0  0  0  0
  -21.9700   -7.0310   21.3890 O   0  0  0  0  0  0  0  0  0  0  0  0
  -21.8520   -6.3410   22.5670 C   0  0  0  0  0  0  0  0  0  0  0  0
  -21.3030   -6.9330   23.7260 C   0  0  0  0  0  3  0  0  0  0  0  0
  -21.1360   -6.1660   24.8970 C   0  0  0  0  0  3  0  0  0  0  0  0
  -21.5090   -4.8080   24.9100 C   0  0  0  0  0  0  0  0  0  0  0  0
  -22.0500   -4.2150   23.7550 C   0  0  0  0  0  3  0  0  0  0  0  0
  -22.2180   -4.9790   22.5870 C   0  0  0  0  0  0  0  0  0  0  0  0
  -22.7200   -4.3980   21.4720 F   0  0  0  0  0  0  0  0  0  0  0  0
  -21.3420   -4.0690   26.0310 F   0  0  0  0  0  0  0  0  0  0  0  0
  -23.0070  -13.6790   21.0540 C   0  0  0  0  0  0  0  0  0  0  0  0
  -22.2880  -12.9750   21.9220 N   0  0  0  0  0  0  0  0  0  0  0  0
  -22.5600  -14.7040   20.5410 O   0  0  0  0  0  0  0  0  0  0  0  0
  -22.6630  -12.1480   22.3610 H   0  0  0  0  0  0  0  0  0  0  0  0
  -21.3510  -13.2720   22.1530 H   0  0  0  0  0  0  0  0  0  0  0  0
  -25.6140  -15.3640   20.2120 N   0  0  0  0  0  0  0  0  0  0  0  0
  -24.8390  -16.0090   20.3220 H   0  0  0  0  0  0  0  0  0  0  0  0
  -26.4490  -15.8090   19.8540 H   0  0  0  0  0  0  0  0  0  0  0  0
  -27.9290  -23.7790   20.3180 C   0  0  0  0  0  2  0  0  0  0  0  0
  -28.6060  -25.1340   19.7110 C   0  0  0  0  0  2  0  0  0  0  0  0
  -28.4250  -26.5600   20.2230 O   0  0  0  0  0  0  0  0  0  0  0  0
  -24.6640  -31.9710   23.2560 C   0  0  0  0  0  0  0  0  0  0  0  0
  -27.2880  -27.4050   20.1320 C   0  0  0  0  0  0  0  0  0  0  0  0
  -23.4560  -30.5710   21.6170 C   0  0  0  0  0  3  0  0  0  0  0  0
  -24.9070  -29.0350   20.1530 C   0  0  0  0  0  0  0  0  0  0  0  0
  -25.9920  -30.9040   21.4060 C   0  0  0  0  0  2  0  0  0  0  0  0
  -26.0780  -29.5250   20.7430 C   0  0  0  0  0  0  0  0  0  0  0  0
  -27.2650  -28.7210   20.7180 C   0  0  0  0  0  3  0  0  0  0  0  0
  -26.0940  -26.9810   19.5140 C   0  0  0  0  0  3  0  0  0  0  0  0
  -24.9210  -27.7740   19.5270 C   0  0  0  0  0  3  0  0  0  0  0  0
  -23.6610  -29.9030   20.2290 C   0  0  0  0  0  2  0  0  0  0  0  0
  -24.7230  -31.1700   22.1490 N   0  0  0  0  0  0  0  0  0  0  0  0
  -23.5840  -32.2310   23.8080 O   0  0  0  0  0  0  0  0  0  0  0  0
  -22.8130  -29.5450   22.5820 C   0  0  0  0  0  0  0  0  0  0  0  0
  -21.4920  -29.3350   22.4550 N   0  0  0  0  0  0  0  0  0  0  0  0
  -23.5050  -28.9400   23.4040 O   0  0  0  0  0  0  0  0  0  0  0  0
  -20.9890  -29.8780   21.7670 H   0  0  0  0  0  0  0  0  0  0  0  0
  -18.1490  -28.0320   22.9430 C   0  0  0  0  0  0  0  0  0  0  0  0
  -20.6970  -28.3750   23.2260 C   0  0  0  0  0  3  0  0  0  0  0  0
  -20.8460  -26.9450   22.6570 C   0  0  0  0  0  2  0  0  0  0  0  0
  -19.7620  -26.5830   21.6370 C   0  0  0  0  0  2  0  0  0  0  0  0
  -18.3720  -26.6880   22.2720 C   0  0  0  0  0  2  0  0  0  0  0  0
  -19.2410  -28.8320   23.3760 C   0  0  0  0  0  0  0  0  0  0  0  0
  -18.9780  -30.0880   23.9640 C   0  0  0  0  0  3  0  0  0  0  0  0
  -17.6570  -30.5470   24.1210 C   0  0  0  0  0  3  0  0  0  0  0  0
  -16.5800  -29.7460   23.7040 C   0  0  0  0  0  3  0  0  0  0  0  0
  -16.8270  -28.4910   23.1200 C   0  0  0  0  0  3  0  0  0  0  0  0
  -25.9440  -32.6160   23.8700 C   0  0  0  0  0  3  0  0  0  0  0  0
  -26.4650  -31.8620   25.1560 C   0  0  1  0  0  0  0  0  0  0  0  0
  -25.3730  -31.6270   26.2260 C   0  0  0  0  0  1  0  0  0  0  0  0
  -27.0590  -30.4840   24.7800 C   0  0  0  0  0  1  0  0  0  0  0  0
  -27.6090  -32.6710   25.8110 C   0  0  0  0  0  1  0  0  0  0  0  0
  -25.6300  -34.0170   24.1890 N   0  0  0  0  0  0  0  0  0  0  0  0
  -25.9640  -35.0680   23.4280 C   0  0  0  0  0  0  0  0  0  0  0  0
  -26.6370  -34.9590   22.3990 O   0  0  0  0  0  0  0  0  0  0  0  0
  -25.0330  -34.1740   24.9880 H   0  0  0  0  0  0  0  0  0  0  0  0
  -24.2450  -36.8660   23.0520 C   0  0  0  0  0  1  0  0  0  0  0  0
  -25.4770  -36.4590   23.8770 C   0  0  0  0  0  3  0  0  0  0  0  0
  -27.6020  -37.3460   24.7300 C   0  0  0  0  0  1  0  0  0  0  0  0
  -26.5120  -37.5090   23.7710 N   0  0  0  0  0  0  0  0  0  0  0  0
  -26.1070  -38.4310   23.9080 H   0  0  0  0  0  0  0  0  0  0  0  0
  1  3  1  0
  2  3  2  0
  4  2  1  0
  4  5  1  0
  5  1  1  0
  8  7  1  6
  8  9  1  0
  8  2  1  0
  8  6  1  0
  9 18  1  0
 10 16  1  0
 10 18  1  0
 11 16  1  0
 12 13  1  0
 12 11  1  0
 14 13  1  0
 14 23  1  0
 14 15  1  0
 16 15  1  0
 17 10  2  0
 18 19  1  0
 20 21  2  0
 21 40  1  0
 22 21  1  0
 22 25  1  0
 23 20  1  0
 23 24  1  0
 24 22  2  0
 25 26  1  0
 26 27  2  0
 28 31  1  0
 28 27  1  0
 29 28  2  0
 30 29  1  0
 30 25  2  0
 31 32  1  0
 32 37  2  0
 32 33  1  0
 33 34  2  0
 34 35  1  0
 35 39  1  0
 36 35  2  0
 37 36  1  0
 38 37  1  0
 40 41  1  0
 41 44  1  0
 41 43  1  0
 42 40  2  0
 45 46  1  0
 45 20  1  0
 47 45  1  0
 48  5  1  0
 49 50  1  0
 49 48  1  0
 51 62  2  0
 52 50  1  0
 52 57  1  0
 53 61  1  0
 53 63  1  0
 54 60  1  0
 54 56  1  0
 55 61  1  0
 56 55  1  0
 57 56  2  0
 58 59  1  0
 58 52  2  0
 59 54  2  0
 60 53  1  0
 61 51  1  0
 63 65  2  0
 64 63  1  0
 66 64  1  0
 67 76  2  0
 67 72  1  0
 68 64  1  0
 68 72  1  0
 69 68  1  0
 70 71  1  0
 70 69  1  0
 71 67  1  0
 72 73  2  0
 73 74  1  0
 75 74  2  0
 76 75  1  0
 77 51  1  0
 77 82  1  0
 77 78  1  0
 78 81  1  1
 78 79  1  0
 80 78  1  0
 82 85  1  0
 83 87  1  0
 83 82  1  0
 84 83  2  0
 87 86  1  0
 89 87  1  0
 89 90  1  0
 89 88  1  0
M  ISO  4  10 100  18 100  49 101  50 101
M  END
>  <TORSDO>  (44) 
F 20

>  <SCORE>  (44) 
-13.239

>  <name>  (44) 
45

>  <ligand_id>  (44) 
45

>  <original_smiles>  (44) 
[H]c1c([H])c([H])c2c(c1[H])C([H])([H])C([H])([H])C([H])([H])C2([H])N([H])C(=O)C1([H])N(C(=O)C([H])(N([H])C(=O)C([H])(N([H])C([H])([H])[H])C([H])([H])[H])C(C([H])([H])[H])(C([H])([H])[H])C([H])([H])[H])C([H])([H])c2c([H])c(OC([H])([H])C([H])([H])n3nc(C(C([H])([H])[H])(C([H])([H])[H])C([H])([H])N([H])C(=O)N4C([H])([H])C([H])([H])C([H])([H])C([H])(n5nc(-c6c([H])c([H])c(Oc7c([H])c([H])c(F)c([H])c7F)c([H])c6[H])c(C(=O)N([H])[H])c5N([H])[H])C4([H])[H])nc3[H])c([H])c([H])c2C1([H])[H]

>  <smiles>  (44) 
[H]c1c([H])c([H])c2c(c1[H])C([H])([H])C([H])([H])C([H])([H])C2([H])N([H])C(=O)C1([H])N(C(=O)C([H])(N([H])C(=O)C([H])(N([H])C([H])([H])[H])C([H])([H])[H])C(C([H])([H])[H])(C([H])([H])[H])C([H])([H])[H])C([H])([H])c2c([H])c(OC([H])([H])C([H])([H])n3nc(C(C([H])([H])[H])(C([H])([H])[H])C([H])([H])N([H])C(=O)N4C([H])([H])C([H])([H])C([H])([H])C([H])(n5nc(-c6c([H])c([H])c(Oc7c([H])c([H])c(F)c([H])c7F)c([H])c6[H])c(C(=O)N([H])[H])c5N([H])[H])C4([H])[H])nc3[H])c([H])c([H])c2C1([H])[H]

$$$$
46:0:0
     RDKit          3D

 91 99  0  0  1  0  0  0  0  0999 V2000
  -30.3820  -20.8830   19.6680 C   0  0  0  0  0  3  0  0  0  0  0  0
  -28.6620  -20.0790   20.7530 C   0  0  0  0  0  3  0  0  0  0  0  0
  -29.1060  -21.2510   20.1890 C   0  0  0  0  0  0  0  0  0  0  0  0
  -30.6730  -19.5990   19.8730 N   0  0  0  0  0  0  0  0  0  0  0  0
  -29.5990  -19.0860   20.5170 N   0  0  0  0  0  0  0  0  0  0  0  0
  -28.3280  -22.5540   20.0390 C   0  0  0  0  0  2  0  0  0  0  0  0
  -28.9860  -23.9250   20.3950 C   0  0  0  0  0  2  0  0  0  0  0  0
  -28.0060  -25.0490   19.9590 C   0  0  0  0  0  2  0  0  0  0  0  0
  -28.2320  -26.4430   20.2890 O   0  0  0  0  0  0  0  0  0  0  0  0
  -24.5240  -31.8310   23.2050 C   0  0  0  0  0  0  0  0  0  0  0  0
  -27.0970  -27.2550   20.2200 C   0  0  0  0  0  0  0  0  0  0  0  0
  -23.3020  -30.4220   21.5860 C   0  0  0  0  0  3  0  0  0  0  0  0
  -24.7360  -28.8440   20.1910 C   0  0  0  0  0  0  0  0  0  0  0  0
  -25.8400  -30.7230   21.3940 C   0  0  0  0  0  2  0  0  0  0  0  0
  -25.9060  -29.3380   20.7820 C   0  0  0  0  0  0  0  0  0  0  0  0
  -27.0880  -28.5530   20.7950 C   0  0  0  0  0  3  0  0  0  0  0  0
  -25.9030  -26.8070   19.5980 C   0  0  0  0  0  3  0  0  0  0  0  0
  -24.7330  -27.5780   19.5950 C   0  0  0  0  0  3  0  0  0  0  0  0
  -23.5070  -29.7240   20.2180 C   0  0  0  0  0  2  0  0  0  0  0  0
  -24.5750  -31.0080   22.1190 N   0  0  0  0  0  0  0  0  0  0  0  0
  -23.4440  -32.1270   23.7360 O   0  0  0  0  0  0  0  0  0  0  0  0
  -22.6340  -29.4240   22.5610 C   0  0  0  0  0  0  0  0  0  0  0  0
  -21.3110  -29.2370   22.4150 N   0  0  0  0  0  0  0  0  0  0  0  0
  -23.3020  -28.8210   23.4050 O   0  0  0  0  0  0  0  0  0  0  0  0
  -20.8340  -29.7710   21.7010 H   0  0  0  0  0  0  0  0  0  0  0  0
  -17.9330  -28.0410   22.8710 C   0  0  0  0  0  0  0  0  0  0  0  0
  -20.4810  -28.3210   23.1990 C   0  0  0  0  0  3  0  0  0  0  0  0
  -20.6060  -26.8730   22.6740 C   0  0  0  0  0  2  0  0  0  0  0  0
  -19.5310  -26.5100   21.6450 C   0  0  0  0  0  2  0  0  0  0  0  0
  -18.1320  -26.6700   22.2480 C   0  0  0  0  0  2  0  0  0  0  0  0
  -19.0360  -28.8220   23.3040 C   0  0  0  0  0  0  0  0  0  0  0  0
  -18.7960  -30.1030   23.8460 C   0  0  0  0  0  3  0  0  0  0  0  0
  -17.4860  -30.6050   23.9620 C   0  0  0  0  0  3  0  0  0  0  0  0
  -16.3960  -29.8220   23.5460 C   0  0  0  0  0  3  0  0  0  0  0  0
  -16.6200  -28.5420   23.0070 C   0  0  0  0  0  3  0  0  0  0  0  0
  -25.8140  -32.4570   23.8170 C   0  0  0  0  0  3  0  0  0  0  0  0
  -25.5130  -33.8590   24.1400 N   0  0  0  0  0  0  0  0  0  0  0  0
  -25.8390  -34.9030   23.3670 C   0  0  0  0  0  0  0  0  0  0  0  0
  -26.4970  -34.7890   22.3300 O   0  0  0  0  0  0  0  0  0  0  0  0
  -24.9320  -34.0240   24.9470 H   0  0  0  0  0  0  0  0  0  0  0  0
  -24.1090  -36.6940   23.0190 C   0  0  0  0  0  1  0  0  0  0  0  0
  -25.3610  -36.2980   23.8190 C   0  0  0  0  0  3  0  0  0  0  0  0
  -27.5140  -37.1770   24.6050 C   0  0  0  0  0  1  0  0  0  0  0  0
  -26.3960  -37.3470   23.6800 N   0  0  0  0  0  0  0  0  0  0  0  0
  -25.9940  -38.2690   23.8310 H   0  0  0  0  0  0  0  0  0  0  0  0
  -26.3290  -31.6900   25.0960 C   0  0  1  0  0  0  0  0  0  0  0  0
  -25.2360  -31.4620   26.1660 C   0  0  0  0  0  1  0  0  0  0  0  0
  -26.9060  -30.3100   24.7060 C   0  0  0  0  0  1  0  0  0  0  0  0
  -27.4790  -32.4850   25.7580 C   0  0  0  0  0  1  0  0  0  0  0  0
  -29.5340  -17.6740   20.9360 C   0  0  0  0  0  3  0  0  0  0  0  0
  -30.2760  -16.6560   20.0120 C   0  0  0  0  0  3  0  0  0  0  0  0
  -30.5190  -14.3370   19.3940 C   0  0  0  0  0  0  0  0  0  0  0  0
  -29.7860  -12.4020   18.0200 C   0  0  0  0  0  2  0  0  0  0  0  0
  -28.6510  -12.7690   17.0460 C   0  0  0  0  0  2  0  0  0  0  0  0
  -27.2840  -12.6030   17.7310 C   0  0  0  0  0  2  0  0  0  0  0  0
  -27.2270  -13.2940   19.1170 C   0  0  0  0  0  3  0  0  0  0  0  0
  -28.4630  -12.9650   19.9730 C   0  0  0  0  0  2  0  0  0  0  0  0
  -29.6850  -13.2690   19.2120 N   0  0  0  0  0  0  0  0  0  0  0  0
  -31.4180  -14.5940   18.5820 O   0  0  0  0  0  0  0  0  0  0  0  0
  -30.2550  -15.2120   20.4140 N   0  0  0  0  0  0  0  0  0  0  0  0
  -25.0540  -13.8380   20.3840 C   0  0  0  0  0  0  0  0  0  0  0  0
  -24.0580  -13.0410   20.8820 C   0  0  0  0  0  0  0  0  0  0  0  0
  -24.4570  -11.6970   20.6090 C   0  0  0  0  0  0  0  0  0  0  0  0
  -25.9930  -12.9780   19.8350 N   0  0  0  0  0  0  0  0  0  0  0  0
  -25.6520  -11.6770   20.0310 N   0  0  0  0  0  0  0  0  0  0  0  0
  -23.7380  -10.4290   20.8080 C   0  0  0  0  0  0  0  0  0  0  0  0
  -24.3120   -9.3590   21.5300 C   0  0  0  0  0  3  0  0  0  0  0  0
  -23.5930   -8.1580   21.7240 C   0  0  0  0  0  3  0  0  0  0  0  0
  -22.2870   -8.0200   21.1970 C   0  0  0  0  0  0  0  0  0  0  0  0
  -21.7300   -9.0790   20.4610 C   0  0  0  0  0  3  0  0  0  0  0  0
  -22.4470  -10.2700   20.2640 C   0  0  0  0  0  3  0  0  0  0  0  0
  -21.5280   -6.8790   21.3100 O   0  0  0  0  0  0  0  0  0  0  0  0
  -21.6850   -6.0110   22.3600 C   0  0  0  0  0  0  0  0  0  0  0  0
  -21.5680   -6.4320   23.7020 C   0  0  0  0  0  3  0  0  0  0  0  0
  -21.6680   -5.4940   24.7490 C   0  0  0  0  0  3  0  0  0  0  0  0
  -21.8810   -4.1330   24.4560 C   0  0  0  0  0  0  0  0  0  0  0  0
  -21.9960   -3.7100   23.1190 C   0  0  0  0  0  3  0  0  0  0  0  0
  -21.8960   -4.6470   22.0750 C   0  0  0  0  0  0  0  0  0  0  0  0
  -21.9870   -4.2310   20.7890 F   0  0  0  0  0  0  0  0  0  0  0  0
  -21.9690   -3.2290   25.4590 F   0  0  0  0  0  0  0  0  0  0  0  0
  -22.7640  -13.5020   21.4870 C   0  0  0  0  0  0  0  0  0  0  0  0
  -22.2090  -12.7320   22.4190 N   0  0  0  0  0  0  0  0  0  0  0  0
  -22.2570  -14.5770   21.1680 O   0  0  0  0  0  0  0  0  0  0  0  0
  -22.6350  -11.8630   22.7040 H   0  0  0  0  0  0  0  0  0  0  0  0
  -21.3470  -13.0230   22.8580 H   0  0  0  0  0  0  0  0  0  0  0  0
  -25.2250  -15.2170   20.3300 N   0  0  0  0  0  0  0  0  0  0  0  0
  -24.5160  -15.8600   20.6660 H   0  0  0  0  0  0  0  0  0  0  0  0
  -26.0000  -15.6810   19.8730 H   0  0  0  0  0  0  0  0  0  0  0  0
  -30.6920  -13.4990   22.3080 C   0  0  0  0  0  1  0  0  0  0  0  0
  -32.1530  -15.5180   22.0740 C   0  0  0  0  0  1  0  0  0  0  0  0
  -30.7340  -14.9650   21.8130 C   0  0  0  0  0  3  0  0  0  0  0  0
  1  4  2  0
  1  3  1  0
  3  2  2  0
  4  5  1  0
  5  2  1  0
  5 50  1  0
  6  3  1  0
  6  7  1  0
  8  9  1  0
  8  7  1  0
 10 21  2  0
 11  9  1  0
 11 16  1  0
 12 20  1  0
 12 22  1  0
 13 19  1  0
 13 15  1  0
 14 20  1  0
 15 16  2  0
 15 14  1  0
 17 11  2  0
 18 17  1  0
 18 13  2  0
 19 12  1  0
 20 10  1  0
 22 24  2  0
 23 22  1  0
 25 23  1  0
 26 35  2  0
 26 31  1  0
 27 23  1  0
 27 31  1  0
 28 27  1  0
 29 30  1  0
 29 28  1  0
 30 26  1  0
 31 32  2  0
 32 33  1  0
 34 33  2  0
 35 34  1  0
 36 10  1  0
 36 37  1  0
 36 46  1  0
 37 40  1  0
 38 42  1  0
 38 37  1  0
 39 38  2  0
 42 41  1  0
 44 42  1  0
 44 45  1  0
 44 43  1  0
 46 49  1  1
 46 47  1  0
 48 46  1  0
 51 60  1  0
 51 50  2  0
 52 60  1  0
 53 58  1  0
 54 55  1  0
 54 53  1  0
 56 55  1  0
 56 64  1  0
 56 57  1  0
 58 52  1  0
 58 57  1  0
 59 52  2  0
 60 91  1  0
 61 62  2  0
 62 81  1  0
 63 66  1  0
 63 62  1  0
 64 65  1  0
 64 61  1  0
 65 63  2  0
 66 67  1  0
 67 68  2  0
 69 72  1  0
 69 68  1  0
 70 69  2  0
 71 70  1  0
 71 66  2  0
 72 73  1  0
 73 74  1  0
 74 75  2  0
 76 75  1  0
 76 80  1  0
 77 76  2  0
 78 73  2  0
 78 77  1  0
 79 78  1  0
 81 82  1  0
 82 84  1  0
 82 85  1  0
 83 81  2  0
 86 61  1  0
 86 87  1  0
 88 86  1  0
 91 90  1  0
 91 89  1  0
M  ISO  4   8 101   9 101  52 100  60 100
M  END
>  <TORSDO>  (45) 
F 22

>  <SCORE>  (45) 
-8.123

>  <name>  (45) 
46

>  <ligand_id>  (45) 
46

>  <original_smiles>  (45) 
[H]c1nn(C([H])([H])C([H])([H])N(C(=O)N2C([H])([H])C([H])([H])C([H])([H])C([H])(n3nc(-c4c([H])c([H])c(Oc5c([H])c([H])c(F)c([H])c5F)c([H])c4[H])c(C(=O)N([H])[H])c3N([H])[H])C2([H])[H])C([H])(C([H])([H])[H])C([H])([H])[H])c([H])c1C([H])([H])C([H])([H])C([H])([H])Oc1c([H])c([H])c2c(c1[H])C([H])([H])N(C(=O)C([H])(N([H])C(=O)C([H])(N([H])C([H])([H])[H])C([H])([H])[H])C(C([H])([H])[H])(C([H])([H])[H])C([H])([H])[H])C([H])(C(=O)N([H])C1([H])c3c([H])c([H])c([H])c([H])c3C([H])([H])C([H])([H])C1([H])[H])C2([H])[H]

>  <smiles>  (45) 
[H]c1nn(C([H])([H])C([H])([H])N(C(=O)N2C([H])([H])C([H])([H])C([H])([H])C([H])(n3nc(-c4c([H])c([H])c(Oc5c([H])c([H])c(F)c([H])c5F)c([H])c4[H])c(C(=O)N([H])[H])c3N([H])[H])C2([H])[H])C([H])(C([H])([H])[H])C([H])([H])[H])c([H])c1C([H])([H])C([H])([H])C([H])([H])Oc1c([H])c([H])c2c(c1[H])C([H])([H])N(C(=O)C([H])(N([H])C(=O)C([H])(N([H])C([H])([H])[H])C([H])([H])[H])C(C([H])([H])[H])(C([H])([H])[H])C([H])([H])[H])C([H])(C(=O)N([H])C1([H])c3c([H])c([H])c([H])c([H])c3C([H])([H])C([H])([H])C1([H])[H])C2([H])[H]

$$$$
47:0:0
     RDKit          3D

 86 94  0  0  1  0  0  0  0  0999 V2000
  -29.3250  -19.7700   20.9210 C   0  0  0  0  0  3  0  0  0  0  0  0
  -29.1410  -20.9990   20.1560 C   0  0  0  0  0  0  0  0  0  0  0  0
  -29.3980  -20.3890   18.8920 N   0  0  0  0  0  0  0  0  0  0  0  0
  -29.6250  -19.0460   18.9000 N   0  0  0  0  0  0  0  0  0  0  0  0
  -29.6680  -18.5140   20.1700 N   0  0  0  0  0  0  0  0  0  0  0  0
  -30.0230  -16.8310   22.0670 C   0  0  0  0  0  1  0  0  0  0  0  0
  -29.7510  -16.8560   20.5510 C   0  0  0  0  0  3  0  0  0  0  0  0
  -30.5480  -15.3860   19.9490 C   0  0  0  0  0  0  0  0  0  0  0  0
  -30.5030  -12.9710   18.9360 C   0  0  0  0  0  2  0  0  0  0  0  0
  -29.4880  -12.8290   17.7700 C   0  0  0  0  0  2  0  0  0  0  0  0
  -28.0740  -12.5270   18.3000 C   0  0  0  0  0  2  0  0  0  0  0  0
  -27.7140  -13.4250   19.5090 C   0  0  0  0  0  3  0  0  0  0  0  0
  -28.8440  -13.5000   20.5560 C   0  0  0  0  0  2  0  0  0  0  0  0
  -30.0310  -14.0540   19.8810 N   0  0  0  0  0  0  0  0  0  0  0  0
  -31.7130  -15.4370   19.5210 O   0  0  0  0  0  0  0  0  0  0  0  0
  -25.4030  -13.9410   20.4580 C   0  0  0  0  0  0  0  0  0  0  0  0
  -24.3740  -13.1450   20.8730 C   0  0  0  0  0  0  0  0  0  0  0  0
  -24.8390  -11.7980   20.7540 C   0  0  0  0  0  0  0  0  0  0  0  0
  -26.4270  -13.0810   20.1000 N   0  0  0  0  0  0  0  0  0  0  0  0
  -26.1050  -11.7830   20.3460 N   0  0  0  0  0  0  0  0  0  0  0  0
  -24.1300  -10.5260   20.9480 C   0  0  0  0  0  0  0  0  0  0  0  0
  -24.5810   -9.5610   21.8750 C   0  0  0  0  0  3  0  0  0  0  0  0
  -23.8680   -8.3560   22.0580 C   0  0  0  0  0  3  0  0  0  0  0  0
  -22.6900   -8.1080   21.3140 C   0  0  0  0  0  0  0  0  0  0  0  0
  -22.2580   -9.0630   20.3760 C   0  0  0  0  0  3  0  0  0  0  0  0
  -22.9710  -10.2580   20.1920 C   0  0  0  0  0  3  0  0  0  0  0  0
  -21.9470   -6.9560   21.4060 O   0  0  0  0  0  0  0  0  0  0  0  0
  -21.8530   -6.2520   22.5810 C   0  0  0  0  0  0  0  0  0  0  0  0
  -21.3170   -6.8280   23.7530 C   0  0  0  0  0  3  0  0  0  0  0  0
  -21.1740   -6.0490   24.9180 C   0  0  0  0  0  3  0  0  0  0  0  0
  -21.5550   -4.6950   24.9110 C   0  0  0  0  0  0  0  0  0  0  0  0
  -22.0840   -4.1170   23.7430 C   0  0  0  0  0  3  0  0  0  0  0  0
  -22.2280   -4.8940   22.5800 C   0  0  0  0  0  0  0  0  0  0  0  0
  -22.7180   -4.3270   21.4520 F   0  0  0  0  0  0  0  0  0  0  0  0
  -21.4110   -3.9430   26.0280 F   0  0  0  0  0  0  0  0  0  0  0  0
  -22.9990  -13.6040   21.2620 C   0  0  0  0  0  0  0  0  0  0  0  0
  -22.3410  -12.8790   22.1580 N   0  0  0  0  0  0  0  0  0  0  0  0
  -22.5210  -14.6420   20.8050 O   0  0  0  0  0  0  0  0  0  0  0  0
  -22.7420  -12.0390   22.5480 H   0  0  0  0  0  0  0  0  0  0  0  0
  -21.4210  -13.1690   22.4610 H   0  0  0  0  0  0  0  0  0  0  0  0
  -25.5490  -15.3180   20.3240 N   0  0  0  0  0  0  0  0  0  0  0  0
  -24.7890  -15.9600   20.5210 H   0  0  0  0  0  0  0  0  0  0  0  0
  -26.3630  -15.7770   19.9370 H   0  0  0  0  0  0  0  0  0  0  0  0
  -29.0520  -22.7460   20.4720 C   0  0  0  0  0  3  0  0  0  0  0  0
  -28.0240  -24.1910   20.0600 C   0  0  0  0  0  3  0  0  0  0  0  0
  -28.1900  -25.8360   20.2770 O   0  0  0  0  0  0  0  0  0  0  0  0
  -24.6270  -31.8650   23.1490 C   0  0  0  0  0  0  0  0  0  0  0  0
  -27.1710  -26.9310   20.1900 C   0  0  0  0  0  0  0  0  0  0  0  0
  -23.4220  -30.4410   21.5440 C   0  0  0  0  0  3  0  0  0  0  0  0
  -24.8630  -28.8140   20.1320 C   0  0  0  0  0  0  0  0  0  0  0  0
  -25.9870  -30.6520   21.3720 C   0  0  0  0  0  2  0  0  0  0  0  0
  -26.0550  -29.2300   20.7370 C   0  0  0  0  0  0  0  0  0  0  0  0
  -27.2010  -28.3110   20.7390 C   0  0  0  0  0  3  0  0  0  0  0  0
  -25.9470  -26.6700   19.5330 C   0  0  0  0  0  3  0  0  0  0  0  0
  -24.8340  -27.5540   19.5090 C   0  0  0  0  0  3  0  0  0  0  0  0
  -23.6420  -29.7330   20.1770 C   0  0  0  0  0  2  0  0  0  0  0  0
  -24.7010  -31.0150   22.0740 N   0  0  0  0  0  0  0  0  0  0  0  0
  -23.5410  -32.1610   23.6750 O   0  0  0  0  0  0  0  0  0  0  0  0
  -22.7380  -29.4610   22.5320 C   0  0  0  0  0  0  0  0  0  0  0  0
  -21.4080  -29.2850   22.4170 N   0  0  0  0  0  0  0  0  0  0  0  0
  -23.4100  -28.8580   23.3720 O   0  0  0  0  0  0  0  0  0  0  0  0
  -20.9170  -29.8220   21.7150 H   0  0  0  0  0  0  0  0  0  0  0  0
  -18.0360  -28.0630   22.9690 C   0  0  0  0  0  0  0  0  0  0  0  0
  -20.5960  -28.3550   23.2100 C   0  0  0  0  0  3  0  0  0  0  0  0
  -20.7050  -26.9140   22.6610 C   0  0  0  0  0  2  0  0  0  0  0  0
  -19.5990  -26.5650   21.6600 C   0  0  0  0  0  2  0  0  0  0  0  0
  -18.2200  -26.7060   22.3120 C   0  0  0  0  0  2  0  0  0  0  0  0
  -19.1510  -28.8440   23.3770 C   0  0  0  0  0  0  0  0  0  0  0  0
  -18.9220  -30.1110   23.9560 C   0  0  0  0  0  3  0  0  0  0  0  0
  -17.6120  -30.5990   24.1290 C   0  0  0  0  0  3  0  0  0  0  0  0
  -16.5130  -29.8170   23.7350 C   0  0  0  0  0  3  0  0  0  0  0  0
  -16.7250  -28.5500   23.1610 C   0  0  0  0  0  3  0  0  0  0  0  0
  -25.9010  -32.5230   23.7610 C   0  0  0  0  0  3  0  0  0  0  0  0
  -26.4380  -31.7620   25.0360 C   0  0  1  0  0  0  0  0  0  0  0  0
  -25.3580  -31.5100   26.1140 C   0  0  0  0  0  1  0  0  0  0  0  0
  -27.0400  -30.3920   24.6500 C   0  0  0  0  0  1  0  0  0  0  0  0
  -27.5820  -32.5740   25.6880 C   0  0  0  0  0  1  0  0  0  0  0  0
  -25.5710  -33.9180   24.1070 N   0  0  0  0  0  0  0  0  0  0  0  0
  -25.8950  -34.9900   23.3720 C   0  0  0  0  0  0  0  0  0  0  0  0
  -26.5640  -34.9090   22.3390 O   0  0  0  0  0  0  0  0  0  0  0  0
  -24.9750  -34.0520   24.9120 H   0  0  0  0  0  0  0  0  0  0  0  0
  -24.1720  -36.7970   23.0410 C   0  0  0  0  0  1  0  0  0  0  0  0
  -25.4020  -36.3690   23.8580 C   0  0  0  0  0  3  0  0  0  0  0  0
  -27.5190  -37.2440   24.7470 C   0  0  0  0  0  1  0  0  0  0  0  0
  -26.4360  -37.4260   23.7840 N   0  0  0  0  0  0  0  0  0  0  0  0
  -26.0250  -38.3420   23.9380 H   0  0  0  0  0  0  0  0  0  0  0  0
  2 44  1  0
  2  1  2  0
  3  4  2  0
  3  2  1  0
  4  5  1  0
  5  7  1  0
  5  1  1  0
  7  6  1  0
  8  7  1  0
  9 14  1  0
 10 11  1  0
 10  9  1  0
 12 11  1  0
 12 19  1  0
 12 13  1  0
 14  8  1  0
 14 13  1  0
 15  8  2  0
 16 17  2  0
 17 36  1  0
 18 17  1  0
 18 21  1  0
 19 20  1  0
 19 16  1  0
 20 18  2  0
 21 22  1  0
 22 23  2  0
 24 27  1  0
 24 23  1  0
 25 24  2  0
 26 25  1  0
 26 21  2  0
 27 28  1  0
 28 29  1  0
 29 30  2  0
 31 30  1  0
 31 35  1  0
 32 31  2  0
 33 28  2  0
 33 32  1  0
 34 33  1  0
 36 37  1  0
 37 40  1  0
 37 39  1  0
 38 36  2  0
 41 16  1  0
 41 42  1  0
 43 41  1  0
 45 46  1  0
 45 44  2  0
 47 58  2  0
 48 46  1  0
 48 53  1  0
 49 57  1  0
 49 59  1  0
 50 56  1  0
 50 52  1  0
 51 57  1  0
 52 53  2  0
 52 51  1  0
 54 48  2  0
 55 54  1  0
 55 50  2  0
 56 49  1  0
 57 47  1  0
 59 61  2  0
 60 59  1  0
 62 60  1  0
 63 72  2  0
 63 68  1  0
 64 60  1  0
 64 68  1  0
 65 64  1  0
 66 67  1  0
 66 65  1  0
 67 63  1  0
 68 69  2  0
 69 70  1  0
 71 70  2  0
 72 71  1  0
 73 47  1  0
 73 78  1  0
 73 74  1  0
 74 77  1  1
 74 75  1  0
 76 74  1  0
 78 81  1  0
 79 83  1  0
 79 78  1  0
 80 79  2  0
 83 82  1  0
 85 83  1  0
 85 86  1  0
 85 84  1  0
M  ISO  4   7 100   8 100  45 101  46 101
M  END
>  <TORSDO>  (46) 
F 19

>  <SCORE>  (46) 
-16.126

>  <name>  (46) 
47

>  <ligand_id>  (46) 
47

>  <original_smiles>  (46) 
[H]c1c([H])c([H])c2c(c1[H])C([H])([H])C([H])([H])C([H])([H])C2([H])N([H])C(=O)C1([H])N(C(=O)C([H])(N([H])C(=O)C([H])(N([H])C([H])([H])[H])C([H])([H])[H])C(C([H])([H])[H])(C([H])([H])[H])C([H])([H])[H])C([H])([H])c2c([H])c(OC([H])([H])C([H])([H])c3nnn(C([H])(C(=O)N4C([H])([H])C([H])([H])C([H])([H])C([H])(n5nc(-c6c([H])c([H])c(Oc7c([H])c([H])c(F)c([H])c7F)c([H])c6[H])c(C(=O)N([H])[H])c5N([H])[H])C4([H])[H])C([H])([H])[H])c3[H])c([H])c([H])c2C1([H])[H]

>  <smiles>  (46) 
[H]c1c([H])c([H])c2c(c1[H])C([H])([H])C([H])([H])C([H])([H])C2([H])N([H])C(=O)C1([H])N(C(=O)C([H])(N([H])C(=O)C([H])(N([H])C([H])([H])[H])C([H])([H])[H])C(C([H])([H])[H])(C([H])([H])[H])C([H])([H])[H])C([H])([H])c2c([H])c(OC([H])([H])C([H])([H])c3nnn(C([H])(C(=O)N4C([H])([H])C([H])([H])C([H])([H])C([H])(n5nc(-c6c([H])c([H])c(Oc7c([H])c([H])c(F)c([H])c7F)c([H])c6[H])c(C(=O)N([H])[H])c5N([H])[H])C4([H])[H])C([H])([H])[H])c3[H])c([H])c([H])c2C1([H])[H]

$$$$
48:0:0
     RDKit          3D

 89 97  0  0  1  0  0  0  0  0999 V2000
  -28.1830  -21.7600   19.9750 C   0  0  0  0  0  3  0  0  0  0  0  0
  -28.6560  -23.1030   19.9830 C   0  0  0  0  0  0  0  0  0  0  0  0
  -30.0410  -22.8530   20.1350 N   0  0  0  0  0  0  0  0  0  0  0  0
  -30.3410  -21.5430   20.2300 N   0  0  0  0  0  0  0  0  0  0  0  0
  -29.2210  -20.7500   20.1110 N   0  0  0  0  0  0  0  0  0  0  0  0
  -29.3420  -19.0440   21.9490 C   0  0  0  0  0  1  0  0  0  0  0  0
  -27.7410  -18.6740   20.0930 C   0  0  0  0  0  1  0  0  0  0  0  0
  -29.1700  -19.1530   20.4230 C   0  0  1  0  0  0  0  0  0  0  0  0
  -30.1780  -17.9130   19.8080 C   0  0  0  0  0  2  0  0  0  0  0  0
  -30.7010  -15.1420   19.8380 C   0  0  0  0  0  0  0  0  0  0  0  0
  -30.5710  -12.7610   18.9410 C   0  0  0  0  0  2  0  0  0  0  0  0
  -29.5690  -12.6450   17.7680 C   0  0  0  0  0  2  0  0  0  0  0  0
  -28.1390  -12.4140   18.2880 C   0  0  0  0  0  2  0  0  0  0  0  0
  -27.7780  -13.3610   19.4620 C   0  0  0  0  0  3  0  0  0  0  0  0
  -28.8970  -13.4300   20.5250 C   0  0  0  0  0  2  0  0  0  0  0  0
  -30.1180  -13.8680   19.8360 N   0  0  0  0  0  0  0  0  0  0  0  0
  -31.8820  -15.2040   19.4770 O   0  0  0  0  0  0  0  0  0  0  0  0
  -29.9330  -16.3380   20.0440 N   0  0  0  0  0  0  0  0  0  0  0  0
  -28.9930  -16.1310   20.3430 H   0  0  0  0  0  0  0  0  0  0  0  0
  -25.4590  -13.9150   20.3900 C   0  0  0  0  0  0  0  0  0  0  0  0
  -24.4190  -13.1300   20.8060 C   0  0  0  0  0  0  0  0  0  0  0  0
  -24.8710  -11.7800   20.6900 C   0  0  0  0  0  0  0  0  0  0  0  0
  -26.4780  -13.0440   20.0420 N   0  0  0  0  0  0  0  0  0  0  0  0
  -26.1390  -11.7510   20.2900 N   0  0  0  0  0  0  0  0  0  0  0  0
  -24.1510  -10.5150   20.8790 C   0  0  0  0  0  0  0  0  0  0  0  0
  -24.5500   -9.5760   21.8560 C   0  0  0  0  0  3  0  0  0  0  0  0
  -23.8280   -8.3760   22.0320 C   0  0  0  0  0  3  0  0  0  0  0  0
  -22.6910   -8.1060   21.2340 C   0  0  0  0  0  0  0  0  0  0  0  0
  -22.3110   -9.0320   20.2470 C   0  0  0  0  0  3  0  0  0  0  0  0
  -23.0340  -10.2250   20.0690 C   0  0  0  0  0  3  0  0  0  0  0  0
  -21.9430   -6.9560   21.3180 O   0  0  0  0  0  0  0  0  0  0  0  0
  -21.7320   -6.3220   22.5170 C   0  0  0  0  0  0  0  0  0  0  0  0
  -21.1050   -6.9700   23.6030 C   0  0  0  0  0  3  0  0  0  0  0  0
  -20.8450   -6.2590   24.7930 C   0  0  0  0  0  3  0  0  0  0  0  0
  -21.2020   -4.9000   24.8940 C   0  0  0  0  0  0  0  0  0  0  0  0
  -21.8200   -4.2520   23.8110 C   0  0  0  0  0  3  0  0  0  0  0  0
  -22.0810   -4.9600   22.6240 C   0  0  0  0  0  0  0  0  0  0  0  0
  -22.6590   -4.3250   21.5760 F   0  0  0  0  0  0  0  0  0  0  0  0
  -20.9460   -4.2150   26.0330 F   0  0  0  0  0  0  0  0  0  0  0  0
  -23.0460  -13.6030   21.1860 C   0  0  0  0  0  0  0  0  0  0  0  0
  -22.3770  -12.8850   22.0810 N   0  0  0  0  0  0  0  0  0  0  0  0
  -22.5760  -14.6420   20.7230 O   0  0  0  0  0  0  0  0  0  0  0  0
  -22.7700  -12.0440   22.4770 H   0  0  0  0  0  0  0  0  0  0  0  0
  -21.4560  -13.1760   22.3730 H   0  0  0  0  0  0  0  0  0  0  0  0
  -25.6180  -15.2900   20.2490 N   0  0  0  0  0  0  0  0  0  0  0  0
  -24.8610  -15.9390   20.4320 H   0  0  0  0  0  0  0  0  0  0  0  0
  -26.4130  -15.7260   19.8010 H   0  0  0  0  0  0  0  0  0  0  0  0
  -27.8160  -24.5580   19.8370 C   0  0  0  0  0  2  0  0  0  0  0  0
  -28.2050  -26.0880   20.0070 O   0  0  0  0  0  0  0  0  0  0  0  0
  -24.5320  -31.7810   23.0740 C   0  0  0  0  0  0  0  0  0  0  0  0
  -27.1720  -27.1240   19.9440 C   0  0  0  0  0  0  0  0  0  0  0  0
  -23.3510  -30.3960   21.4180 C   0  0  0  0  0  3  0  0  0  0  0  0
  -24.8210  -28.8770   19.9510 C   0  0  0  0  0  0  0  0  0  0  0  0
  -25.9050  -30.6940   21.2490 C   0  0  0  0  0  2  0  0  0  0  0  0
  -26.0010  -29.3140   20.5660 C   0  0  0  0  0  0  0  0  0  0  0  0
  -27.1750  -28.4560   20.5450 C   0  0  0  0  0  3  0  0  0  0  0  0
  -25.9610  -26.8180   19.2770 C   0  0  0  0  0  3  0  0  0  0  0  0
  -24.8170  -27.6460   19.2860 C   0  0  0  0  0  3  0  0  0  0  0  0
  -23.5800  -29.7600   20.0230 C   0  0  0  0  0  2  0  0  0  0  0  0
  -24.6150  -30.9800   21.9680 N   0  0  0  0  0  0  0  0  0  0  0  0
  -23.4430  -32.0320   23.6140 O   0  0  0  0  0  0  0  0  0  0  0  0
  -22.7000  -29.3520   22.3640 C   0  0  0  0  0  0  0  0  0  0  0  0
  -21.3720  -29.1620   22.2540 N   0  0  0  0  0  0  0  0  0  0  0  0
  -23.3910  -28.7180   23.1620 O   0  0  0  0  0  0  0  0  0  0  0  0
  -20.8650  -29.7290   21.5910 H   0  0  0  0  0  0  0  0  0  0  0  0
  -18.0130  -27.9140   22.8050 C   0  0  0  0  0  0  0  0  0  0  0  0
  -20.5770  -28.1950   23.0170 C   0  0  0  0  0  3  0  0  0  0  0  0
  -20.6760  -26.7810   22.3990 C   0  0  0  0  0  2  0  0  0  0  0  0
  -19.5530  -26.4770   21.4020 C   0  0  0  0  0  2  0  0  0  0  0  0
  -18.1850  -26.5890   22.0830 C   0  0  0  0  0  2  0  0  0  0  0  0
  -19.1350  -28.6770   23.2270 C   0  0  0  0  0  0  0  0  0  0  0  0
  -18.9150  -29.9200   23.8630 C   0  0  0  0  0  3  0  0  0  0  0  0
  -17.6090  -30.3970   24.0800 C   0  0  0  0  0  3  0  0  0  0  0  0
  -16.5030  -29.6340   23.6650 C   0  0  0  0  0  3  0  0  0  0  0  0
  -16.7070  -28.3940   23.0330 C   0  0  0  0  0  3  0  0  0  0  0  0
  -25.7990  -32.4350   23.7040 C   0  0  0  0  0  3  0  0  0  0  0  0
  -26.3400  -31.6480   24.9620 C   0  0  1  0  0  0  0  0  0  0  0  0
  -25.2590  -31.3580   26.0300 C   0  0  0  0  0  1  0  0  0  0  0  0
  -26.9550  -30.2950   24.5450 C   0  0  0  0  0  1  0  0  0  0  0  0
  -27.4770  -32.4570   25.6330 C   0  0  0  0  0  1  0  0  0  0  0  0
  -25.4530  -33.8170   24.0730 N   0  0  0  0  0  0  0  0  0  0  0  0
  -25.7350  -34.9000   23.3340 C   0  0  0  0  0  0  0  0  0  0  0  0
  -26.3790  -34.8420   22.2840 O   0  0  0  0  0  0  0  0  0  0  0  0
  -24.8850  -33.9360   24.8980 H   0  0  0  0  0  0  0  0  0  0  0  0
  -23.9430  -36.6480   23.0830 C   0  0  0  0  0  1  0  0  0  0  0  0
  -25.2230  -36.2610   23.8430 C   0  0  0  0  0  3  0  0  0  0  0  0
  -27.3510  -37.2000   24.6300 C   0  0  0  0  0  1  0  0  0  0  0  0
  -26.2170  -37.3510   23.7210 N   0  0  0  0  0  0  0  0  0  0  0  0
  -25.7840  -38.2530   23.9000 H   0  0  0  0  0  0  0  0  0  0  0  0
  1  2  2  0
  1  5  1  0
  2  3  1  0
  3  4  2  0
  5  4  1  0
  5  8  1  0
  8  7  1  1
  8  6  1  0
  9 18  1  0
  9  8  1  0
 10 18  1  0
 11 16  1  0
 12 13  1  0
 12 11  1  0
 14 13  1  0
 14 23  1  0
 14 15  1  0
 16 10  1  0
 16 15  1  0
 17 10  2  0
 18 19  1  0
 20 21  2  0
 21 40  1  0
 22 21  1  0
 22 25  1  0
 23 24  1  0
 23 20  1  0
 24 22  2  0
 25 26  1  0
 26 27  2  0
 28 31  1  0
 28 27  1  0
 29 28  2  0
 30 29  1  0
 30 25  2  0
 31 32  1  0
 32 37  2  0
 32 33  1  0
 33 34  2  0
 34 35  1  0
 35 39  1  0
 36 35  2  0
 37 36  1  0
 38 37  1  0
 40 41  1  0
 41 44  1  0
 41 43  1  0
 42 40  2  0
 45 20  1  0
 45 46  1  0
 47 45  1  0
 48  2  1  0
 48 49  1  0
 50 61  2  0
 51 49  1  0
 51 56  1  0
 52 60  1  0
 52 62  1  0
 53 59  1  0
 53 55  1  0
 54 60  1  0
 55 54  1  0
 56 55  2  0
 57 58  1  0
 57 51  2  0
 58 53  2  0
 59 52  1  0
 60 50  1  0
 62 64  2  0
 63 62  1  0
 65 63  1  0
 66 75  2  0
 66 71  1  0
 67 63  1  0
 67 71  1  0
 68 67  1  0
 69 70  1  0
 69 68  1  0
 70 66  1  0
 71 72  2  0
 72 73  1  0
 74 73  2  0
 75 74  1  0
 76 50  1  0
 76 81  1  0
 76 77  1  0
 77 80  1  1
 77 78  1  0
 79 77  1  0
 81 84  1  0
 82 86  1  0
 82 81  1  0
 83 82  2  0
 86 85  1  0
 88 86  1  0
 88 89  1  0
 88 87  1  0
M  ISO  4  10 100  18 100  48 101  49 101
M  END
>  <TORSDO>  (47) 
F 19

>  <SCORE>  (47) 
-13.169

>  <name>  (47) 
48

>  <ligand_id>  (47) 
48

>  <original_smiles>  (47) 
[H]c1c([H])c([H])c2c(c1[H])C([H])([H])C([H])([H])C([H])([H])C2([H])N([H])C(=O)C1([H])N(C(=O)C([H])(N([H])C(=O)C([H])(N([H])C([H])([H])[H])C([H])([H])[H])C(C([H])([H])[H])(C([H])([H])[H])C([H])([H])[H])C([H])([H])c2c([H])c(OC([H])([H])c3nnn(C(C([H])([H])[H])(C([H])([H])[H])C([H])([H])N([H])C(=O)N4C([H])([H])C([H])([H])C([H])([H])C([H])(n5nc(-c6c([H])c([H])c(Oc7c([H])c([H])c(F)c([H])c7F)c([H])c6[H])c(C(=O)N([H])[H])c5N([H])[H])C4([H])[H])c3[H])c([H])c([H])c2C1([H])[H]

>  <smiles>  (47) 
[H]c1c([H])c([H])c2c(c1[H])C([H])([H])C([H])([H])C([H])([H])C2([H])N([H])C(=O)C1([H])N(C(=O)C([H])(N([H])C(=O)C([H])(N([H])C([H])([H])[H])C([H])([H])[H])C(C([H])([H])[H])(C([H])([H])[H])C([H])([H])[H])C([H])([H])c2c([H])c(OC([H])([H])c3nnn(C(C([H])([H])[H])(C([H])([H])[H])C([H])([H])N([H])C(=O)N4C([H])([H])C([H])([H])C([H])([H])C([H])(n5nc(-c6c([H])c([H])c(Oc7c([H])c([H])c(F)c([H])c7F)c([H])c6[H])c(C(=O)N([H])[H])c5N([H])[H])C4([H])[H])c3[H])c([H])c([H])c2C1([H])[H]

$$$$
49:0:0
     RDKit          3D

 90 98  0  0  1  0  0  0  0  0999 V2000
  -28.3560  -20.5090   19.8410 C   0  0  0  0  0  3  0  0  0  0  0  0
  -30.2720  -20.1920   20.7920 C   0  0  0  0  0  3  0  0  0  0  0  0
  -29.3480  -21.2130   20.5820 C   0  0  0  0  0  0  0  0  0  0  0  0
  -28.6550  -19.2230   19.6200 N   0  0  0  0  0  0  0  0  0  0  0  0
  -29.8480  -18.9730   20.2260 N   0  0  0  0  0  0  0  0  0  0  0  0
  -31.6200  -17.8080   18.9580 C   0  0  0  0  0  1  0  0  0  0  0  0
  -30.6030  -17.6380   20.1100 C   0  0  0  0  0  3  0  0  0  0  0  0
  -28.8790  -16.3240   18.8170 C   0  0  0  0  0  1  0  0  0  0  0  0
  -28.9790  -16.2150   21.4050 C   0  0  0  0  0  1  0  0  0  0  0  0
  -29.7910  -16.2160   20.0780 C   0  0  2  0  0  0  0  0  0  0  0  0
  -30.6130  -14.8030   19.9580 C   0  0  0  0  0  0  0  0  0  0  0  0
  -30.3910  -12.5120   18.9720 C   0  0  0  0  0  2  0  0  0  0  0  0
  -29.3720  -12.5590   17.8100 C   0  0  0  0  0  2  0  0  0  0  0  0
  -27.9250  -12.3770   18.3250 C   0  0  0  0  0  2  0  0  0  0  0  0
  -27.6190  -13.2500   19.5680 C   0  0  0  0  0  3  0  0  0  0  0  0
  -28.7560  -13.1430   20.6040 C   0  0  0  0  0  2  0  0  0  0  0  0
  -30.0070  -13.5560   19.9500 N   0  0  0  0  0  0  0  0  0  0  0  0
  -31.8040  -14.8540   19.6410 O   0  0  0  0  0  0  0  0  0  0  0  0
  -25.2960  -13.8730   20.4600 C   0  0  0  0  0  0  0  0  0  0  0  0
  -24.2460  -13.1040   20.8770 C   0  0  0  0  0  0  0  0  0  0  0  0
  -24.6880  -11.7510   20.7860 C   0  0  0  0  0  0  0  0  0  0  0  0
  -26.3090  -12.9810   20.1410 N   0  0  0  0  0  0  0  0  0  0  0  0
  -25.9570  -11.7000   20.4040 N   0  0  0  0  0  0  0  0  0  0  0  0
  -23.9580  -10.4940   20.9900 C   0  0  0  0  0  0  0  0  0  0  0  0
  -24.4190   -9.5230   21.9020 C   0  0  0  0  0  3  0  0  0  0  0  0
  -23.7000   -8.3240   22.0910 C   0  0  0  0  0  3  0  0  0  0  0  0
  -22.5060   -8.0920   21.3690 C   0  0  0  0  0  0  0  0  0  0  0  0
  -22.0600   -9.0590   20.4520 C   0  0  0  0  0  3  0  0  0  0  0  0
  -22.7790  -10.2500   20.2600 C   0  0  0  0  0  3  0  0  0  0  0  0
  -21.7580   -6.9460   21.4650 O   0  0  0  0  0  0  0  0  0  0  0  0
  -21.7110   -6.2180   22.6250 C   0  0  0  0  0  0  0  0  0  0  0  0
  -21.2720   -6.7810   23.8440 C   0  0  0  0  0  3  0  0  0  0  0  0
  -21.1750   -5.9760   24.9960 C   0  0  0  0  0  3  0  0  0  0  0  0
  -21.5080   -4.6090   24.9310 C   0  0  0  0  0  0  0  0  0  0  0  0
  -21.9410   -4.0460   23.7190 C   0  0  0  0  0  3  0  0  0  0  0  0
  -22.0400   -4.8480   22.5680 C   0  0  0  0  0  0  0  0  0  0  0  0
  -22.4370   -4.2960   21.3950 F   0  0  0  0  0  0  0  0  0  0  0  0
  -21.4070   -3.8350   26.0360 F   0  0  0  0  0  0  0  0  0  0  0  0
  -22.8730  -13.5960   21.2320 C   0  0  0  0  0  0  0  0  0  0  0  0
  -22.1820  -12.8960   22.1280 N   0  0  0  0  0  0  0  0  0  0  0  0
  -22.4210  -14.6330   20.7540 O   0  0  0  0  0  0  0  0  0  0  0  0
  -22.5590  -12.0610   22.5470 H   0  0  0  0  0  0  0  0  0  0  0  0
  -21.2640  -13.2170   22.4030 H   0  0  0  0  0  0  0  0  0  0  0  0
  -25.4510  -15.2450   20.2990 N   0  0  0  0  0  0  0  0  0  0  0  0
  -24.6730  -15.8760   20.4590 H   0  0  0  0  0  0  0  0  0  0  0  0
  -26.2590  -15.6960   19.8890 H   0  0  0  0  0  0  0  0  0  0  0  0
  -29.3070  -22.6980   21.1020 C   0  0  0  0  0  2  0  0  0  0  0  0
  -28.8230  -23.9080   20.1810 C   0  0  0  0  0  2  0  0  0  0  0  0
  -28.5910  -25.2860   20.9580 C   0  0  0  0  0  2  0  0  0  0  0  0
  -28.5790  -26.5830   20.2560 O   0  0  0  0  0  0  0  0  0  0  0  0
  -24.6400  -31.8800   23.2160 C   0  0  0  0  0  0  0  0  0  0  0  0
  -27.4190  -27.3640   20.2780 C   0  0  0  0  0  0  0  0  0  0  0  0
  -23.5040  -30.4590   21.5410 C   0  0  0  0  0  3  0  0  0  0  0  0
  -25.0210  -28.9070   20.1870 C   0  0  0  0  0  0  0  0  0  0  0  0
  -26.0340  -30.8250   21.4200 C   0  0  0  0  0  2  0  0  0  0  0  0
  -26.1590  -29.4320   20.8120 C   0  0  0  0  0  0  0  0  0  0  0  0
  -27.3620  -28.6700   20.8540 C   0  0  0  0  0  3  0  0  0  0  0  0
  -26.2610  -26.8730   19.6430 C   0  0  0  0  0  3  0  0  0  0  0  0
  -25.0700  -27.6290   19.5980 C   0  0  0  0  0  3  0  0  0  0  0  0
  -23.7730  -29.7650   20.1770 C   0  0  0  0  0  2  0  0  0  0  0  0
  -24.7430  -31.0730   22.1180 N   0  0  0  0  0  0  0  0  0  0  0  0
  -23.5400  -32.1380   23.7230 O   0  0  0  0  0  0  0  0  0  0  0  0
  -22.8220  -29.4420   22.4920 C   0  0  0  0  0  0  0  0  0  0  0  0
  -21.4960  -29.2720   22.3500 N   0  0  0  0  0  0  0  0  0  0  0  0
  -23.4890  -28.8080   23.3130 O   0  0  0  0  0  0  0  0  0  0  0  0
  -21.0160  -29.8430   21.6660 H   0  0  0  0  0  0  0  0  0  0  0  0
  -18.1080  -28.0990   22.8280 C   0  0  0  0  0  0  0  0  0  0  0  0
  -20.6680  -28.3290   23.1050 C   0  0  0  0  0  3  0  0  0  0  0  0
  -20.7560  -26.9040   22.5080 C   0  0  0  0  0  2  0  0  0  0  0  0
  -19.6530  -26.6130   21.4860 C   0  0  0  0  0  2  0  0  0  0  0  0
  -18.2720  -26.7590   22.1310 C   0  0  0  0  0  2  0  0  0  0  0  0
  -19.2320  -28.8440   23.2730 C   0  0  0  0  0  0  0  0  0  0  0  0
  -19.0220  -30.0990   23.8860 C   0  0  0  0  0  3  0  0  0  0  0  0
  -17.7200  -30.6070   24.0580 C   0  0  0  0  0  3  0  0  0  0  0  0
  -16.6110  -29.8610   23.6250 C   0  0  0  0  0  3  0  0  0  0  0  0
  -16.8060  -28.6090   23.0160 C   0  0  0  0  0  3  0  0  0  0  0  0
  -25.8980  -32.5350   23.8730 C   0  0  0  0  0  3  0  0  0  0  0  0
  -25.5620  -33.9310   24.1900 N   0  0  0  0  0  0  0  0  0  0  0  0
  -25.8950  -34.9830   23.4320 C   0  0  0  0  0  0  0  0  0  0  0  0
  -26.5850  -34.8790   22.4150 O   0  0  0  0  0  0  0  0  0  0  0  0
  -24.9600  -34.0790   24.9860 H   0  0  0  0  0  0  0  0  0  0  0  0
  -24.1520  -36.7530   23.0260 C   0  0  0  0  0  1  0  0  0  0  0  0
  -25.3800  -36.3690   23.8670 C   0  0  0  0  0  3  0  0  0  0  0  0
  -27.4860  -37.2890   24.7380 C   0  0  0  0  0  1  0  0  0  0  0  0
  -26.4020  -37.4350   23.7710 N   0  0  0  0  0  0  0  0  0  0  0  0
  -25.9800  -38.3510   23.9030 H   0  0  0  0  0  0  0  0  0  0  0  0
  -26.3870  -31.7770   25.1710 C   0  0  1  0  0  0  0  0  0  0  0  0
  -25.2670  -31.5350   26.2100 C   0  0  0  0  0  1  0  0  0  0  0  0
  -26.9970  -30.4060   24.8010 C   0  0  0  0  0  1  0  0  0  0  0  0
  -27.5120  -32.5840   25.8610 C   0  0  0  0  0  1  0  0  0  0  0  0
  1  3  1  0
  3  2  2  0
  3 47  1  0
  4  1  2  0
  4  5  1  0
  5  2  1  0
  7  6  1  0
  7  5  1  0
 10  8  1  6
 10  7  1  0
 10  9  1  0
 11 10  1  0
 12 17  1  0
 13 14  1  0
 13 12  1  0
 15 14  1  0
 15 22  1  0
 15 16  1  0
 17 11  1  0
 17 16  1  0
 18 11  2  0
 19 20  2  0
 20 39  1  0
 21 20  1  0
 21 24  1  0
 22 23  1  0
 22 19  1  0
 23 21  2  0
 24 25  1  0
 25 26  2  0
 27 30  1  0
 27 26  1  0
 28 27  2  0
 29 28  1  0
 29 24  2  0
 30 31  1  0
 31 32  1  0
 32 33  2  0
 34 33  1  0
 34 38  1  0
 35 34  2  0
 36 31  2  0
 36 35  1  0
 37 36  1  0
 39 40  1  0
 40 43  1  0
 40 42  1  0
 41 39  2  0
 44 45  1  0
 44 19  1  0
 46 44  1  0
 48 49  1  0
 48 47  1  0
 50 52  1  0
 50 49  1  0
 51 62  2  0
 52 57  1  0
 53 61  1  0
 53 63  1  0
 54 56  1  0
 55 61  1  0
 56 57  2  0
 56 55  1  0
 58 52  2  0
 59 58  1  0
 59 54  2  0
 60 54  1  0
 60 53  1  0
 61 51  1  0
 63 65  2  0
 64 63  1  0
 66 64  1  0
 67 76  2  0
 67 72  1  0
 68 64  1  0
 68 72  1  0
 69 68  1  0
 70 71  1  0
 70 69  1  0
 71 67  1  0
 72 73  2  0
 73 74  1  0
 75 74  2  0
 76 75  1  0
 77 51  1  0
 77 78  1  0
 77 87  1  0
 78 81  1  0
 79 83  1  0
 79 78  1  0
 80 79  2  0
 83 82  1  0
 85 83  1  0
 85 86  1  0
 85 84  1  0
 87 90  1  1
 87 88  1  0
 89 87  1  0
M  ISO  4  10 100  11 100  49 101  50 101
M  END
>  <TORSDO>  (48) 
F 21

>  <SCORE>  (48) 
-13.166

>  <name>  (48) 
49

>  <ligand_id>  (48) 
49

>  <original_smiles>  (48) 
[H]c1nn(C([H])(C([H])([H])[H])C(C(=O)N2C([H])([H])C([H])([H])C([H])([H])C([H])(n3nc(-c4c([H])c([H])c(Oc5c([H])c([H])c(F)c([H])c5F)c([H])c4[H])c(C(=O)N([H])[H])c3N([H])[H])C2([H])[H])(C([H])([H])[H])C([H])([H])[H])c([H])c1C([H])([H])C([H])([H])C([H])([H])Oc1c([H])c([H])c2c(c1[H])C([H])([H])N(C(=O)C([H])(N([H])C(=O)C([H])(N([H])C([H])([H])[H])C([H])([H])[H])C(C([H])([H])[H])(C([H])([H])[H])C([H])([H])[H])C([H])(C(=O)N([H])C1([H])c3c([H])c([H])c([H])c([H])c3C([H])([H])C([H])([H])C1([H])[H])C2([H])[H]

>  <smiles>  (48) 
[H]c1nn(C([H])(C([H])([H])[H])C(C(=O)N2C([H])([H])C([H])([H])C([H])([H])C([H])(n3nc(-c4c([H])c([H])c(Oc5c([H])c([H])c(F)c([H])c5F)c([H])c4[H])c(C(=O)N([H])[H])c3N([H])[H])C2([H])[H])(C([H])([H])[H])C([H])([H])[H])c([H])c1C([H])([H])C([H])([H])C([H])([H])Oc1c([H])c([H])c2c(c1[H])C([H])([H])N(C(=O)C([H])(N([H])C(=O)C([H])(N([H])C([H])([H])[H])C([H])([H])[H])C(C([H])([H])[H])(C([H])([H])[H])C([H])([H])[H])C([H])(C(=O)N([H])C1([H])c3c([H])c([H])c([H])c([H])c3C([H])([H])C([H])([H])C1([H])[H])C2([H])[H]

$$$$
50:0:0
     RDKit          3D

 91 99  0  0  1  0  0  0  0  0999 V2000
  -30.0560  -22.0690   19.8350 C   0  0  0  0  0  3  0  0  0  0  0  0
  -29.2670  -22.9100   20.5710 C   0  0  0  0  0  0  0  0  0  0  0  0
  -28.3940  -22.1110   21.3130 N   0  0  0  0  0  0  0  0  0  0  0  0
  -28.6240  -20.8510   21.0640 N   0  0  0  0  0  0  0  0  0  0  0  0
  -29.6320  -20.7840   20.1550 N   0  0  0  0  0  0  0  0  0  0  0  0
  -30.4030  -19.5420   18.1700 C   0  0  0  0  0  1  0  0  0  0  0  0
  -30.2280  -19.5040   19.7050 C   0  0  0  0  0  3  0  0  0  0  0  0
  -28.2450  -17.8400   19.4850 C   0  0  0  0  0  1  0  0  0  0  0  0
  -29.5670  -18.1590   20.2070 C   0  0  0  0  0  3  0  0  0  0  0  0
  -30.5790  -16.9620   20.1120 C   0  0  0  0  0  2  0  0  0  0  0  0
  -30.7690  -14.5130   20.1130 C   0  0  0  0  0  0  0  0  0  0  0  0
  -30.3360  -12.3910   18.9170 C   0  0  0  0  0  2  0  0  0  0  0  0
  -29.3320  -12.6180   17.7690 C   0  0  0  0  0  2  0  0  0  0  0  0
  -27.8860  -12.4740   18.2810 C   0  0  0  0  0  2  0  0  0  0  0  0
  -27.6290  -13.2810   19.5820 C   0  0  0  0  0  3  0  0  0  0  0  0
  -28.7460  -13.0390   20.6170 C   0  0  0  0  0  2  0  0  0  0  0  0
  -30.0320  -13.3680   19.9800 N   0  0  0  0  0  0  0  0  0  0  0  0
  -31.8610  -14.6280   19.5430 O   0  0  0  0  0  0  0  0  0  0  0  0
  -29.9250  -15.6650   22.0950 C   0  0  0  0  0  1  0  0  0  0  0  0
  -30.1740  -15.6260   20.6470 N   0  0  0  0  0  0  0  0  0  0  0  0
  -25.2850  -13.8790   20.4570 C   0  0  0  0  0  0  0  0  0  0  0  0
  -24.2370  -13.1050   20.8750 C   0  0  0  0  0  0  0  0  0  0  0  0
  -24.6870  -11.7510   20.7830 C   0  0  0  0  0  0  0  0  0  0  0  0
  -26.3080  -12.9990   20.1390 N   0  0  0  0  0  0  0  0  0  0  0  0
  -25.9550  -11.7130   20.3950 N   0  0  0  0  0  0  0  0  0  0  0  0
  -23.9650  -10.4890   20.9910 C   0  0  0  0  0  0  0  0  0  0  0  0
  -24.4310   -9.5110   21.8980 C   0  0  0  0  0  3  0  0  0  0  0  0
  -23.7090   -8.3140   22.0940 C   0  0  0  0  0  3  0  0  0  0  0  0
  -22.5070   -8.0850   21.3800 C   0  0  0  0  0  0  0  0  0  0  0  0
  -22.0600   -9.0530   20.4630 C   0  0  0  0  0  3  0  0  0  0  0  0
  -22.7830  -10.2410   20.2660 C   0  0  0  0  0  3  0  0  0  0  0  0
  -21.7550   -6.9400   21.4840 O   0  0  0  0  0  0  0  0  0  0  0  0
  -21.7270   -6.2010   22.6390 C   0  0  0  0  0  0  0  0  0  0  0  0
  -21.3380   -6.7650   23.8740 C   0  0  0  0  0  3  0  0  0  0  0  0
  -21.2530   -5.9550   25.0220 C   0  0  0  0  0  3  0  0  0  0  0  0
  -21.5450   -4.5790   24.9390 C   0  0  0  0  0  0  0  0  0  0  0  0
  -21.9290   -4.0160   23.7100 C   0  0  0  0  0  3  0  0  0  0  0  0
  -22.0160   -4.8240   22.5620 C   0  0  0  0  0  0  0  0  0  0  0  0
  -22.3630   -4.2710   21.3760 F   0  0  0  0  0  0  0  0  0  0  0  0
  -21.4570   -3.8000   26.0410 F   0  0  0  0  0  0  0  0  0  0  0  0
  -22.8620  -13.5850   21.2390 C   0  0  0  0  0  0  0  0  0  0  0  0
  -22.1850  -12.8820   22.1390 N   0  0  0  0  0  0  0  0  0  0  0  0
  -22.4000  -14.6210   20.7630 O   0  0  0  0  0  0  0  0  0  0  0  0
  -22.5740  -12.0470   22.5490 H   0  0  0  0  0  0  0  0  0  0  0  0
  -21.2640  -13.1890   22.4240 H   0  0  0  0  0  0  0  0  0  0  0  0
  -25.4450  -15.2520   20.2980 N   0  0  0  0  0  0  0  0  0  0  0  0
  -24.6890  -15.9040   20.4690 H   0  0  0  0  0  0  0  0  0  0  0  0
  -26.2750  -15.6920   19.9210 H   0  0  0  0  0  0  0  0  0  0  0  0
  -29.3360  -24.4270   20.7100 C   0  0  0  0  0  2  0  0  0  0  0  0
  -28.1980  -25.2140   20.0280 C   0  0  0  0  0  2  0  0  0  0  0  0
  -28.3390  -26.6430   20.2130 O   0  0  0  0  0  0  0  0  0  0  0  0
  -24.5590  -31.8780   23.2420 C   0  0  0  0  0  0  0  0  0  0  0  0
  -27.1820  -27.4020   20.1690 C   0  0  0  0  0  0  0  0  0  0  0  0
  -23.3510  -30.4730   21.6060 C   0  0  0  0  0  3  0  0  0  0  0  0
  -24.7980  -28.9370   20.1800 C   0  0  0  0  0  0  0  0  0  0  0  0
  -25.8800  -30.8230   21.4060 C   0  0  0  0  0  2  0  0  0  0  0  0
  -25.9620  -29.4500   20.7670 C   0  0  0  0  0  0  0  0  0  0  0  0
  -27.1560  -28.6900   20.7580 C   0  0  0  0  0  3  0  0  0  0  0  0
  -26.0010  -26.9220   19.5550 C   0  0  0  0  0  3  0  0  0  0  0  0
  -24.8150  -27.6740   19.5680 C   0  0  0  0  0  3  0  0  0  0  0  0
  -23.5590  -29.8000   20.2250 C   0  0  0  0  0  2  0  0  0  0  0  0
  -24.6160  -31.0740   22.1420 N   0  0  0  0  0  0  0  0  0  0  0  0
  -23.4780  -32.1520   23.7810 O   0  0  0  0  0  0  0  0  0  0  0  0
  -22.7000  -29.4520   22.5670 C   0  0  0  0  0  0  0  0  0  0  0  0
  -21.3730  -29.2760   22.4460 N   0  0  0  0  0  0  0  0  0  0  0  0
  -23.3850  -28.8240   23.3790 O   0  0  0  0  0  0  0  0  0  0  0  0
  -20.8820  -29.8390   21.7660 H   0  0  0  0  0  0  0  0  0  0  0  0
  -17.9950  -28.0990   22.9590 C   0  0  0  0  0  0  0  0  0  0  0  0
  -20.5550  -28.3420   23.2200 C   0  0  0  0  0  3  0  0  0  0  0  0
  -20.6470  -26.9100   22.6420 C   0  0  0  0  0  2  0  0  0  0  0  0
  -19.5390  -26.5940   21.6340 C   0  0  0  0  0  2  0  0  0  0  0  0
  -18.1610  -26.7470   22.2830 C   0  0  0  0  0  2  0  0  0  0  0  0
  -19.1200  -28.8540   23.3850 C   0  0  0  0  0  0  0  0  0  0  0  0
  -18.9120  -30.1190   23.9750 C   0  0  0  0  0  3  0  0  0  0  0  0
  -17.6110  -30.6280   24.1450 C   0  0  0  0  0  3  0  0  0  0  0  0
  -16.5000  -29.8710   23.7350 C   0  0  0  0  0  3  0  0  0  0  0  0
  -16.6930  -28.6070   23.1490 C   0  0  0  0  0  3  0  0  0  0  0  0
  -25.8470  -32.5090   23.8580 C   0  0  0  0  0  3  0  0  0  0  0  0
  -25.5380  -33.9080   24.1850 N   0  0  0  0  0  0  0  0  0  0  0  0
  -25.8600  -34.9560   23.4150 C   0  0  0  0  0  0  0  0  0  0  0  0
  -26.5190  -34.8500   22.3770 O   0  0  0  0  0  0  0  0  0  0  0  0
  -24.9530  -34.0660   24.9910 H   0  0  0  0  0  0  0  0  0  0  0  0
  -24.1140  -36.7360   23.0800 C   0  0  0  0  0  1  0  0  0  0  0  0
  -25.3740  -36.3460   23.8710 C   0  0  0  0  0  3  0  0  0  0  0  0
  -27.5200  -37.2480   24.6490 C   0  0  0  0  0  1  0  0  0  0  0  0
  -26.3970  -37.4040   23.7280 N   0  0  0  0  0  0  0  0  0  0  0  0
  -25.9900  -38.3220   23.8800 H   0  0  0  0  0  0  0  0  0  0  0  0
  -26.3680  -31.7390   25.1320 C   0  0  1  0  0  0  0  0  0  0  0  0
  -25.2790  -31.5030   26.2050 C   0  0  0  0  0  1  0  0  0  0  0  0
  -26.9490  -30.3610   24.7370 C   0  0  0  0  0  1  0  0  0  0  0  0
  -27.5200  -32.5350   25.7910 C   0  0  0  0  0  1  0  0  0  0  0  0
  1  5  1  0
  1  2  2  0
  2 49  1  0
  2  3  1  0
  4  3  2  0
  5  4  1  0
  7  6  1  0
  7  5  1  0
  7  9  1  0
  9  8  1  0
 10  9  1  0
 10 20  1  0
 11 20  1  0
 12 17  1  0
 13 14  1  0
 13 12  1  0
 15 14  1  0
 15 24  1  0
 15 16  1  0
 17 11  1  0
 17 16  1  0
 18 11  2  0
 20 19  1  0
 21 22  2  0
 22 41  1  0
 23 22  1  0
 23 26  1  0
 24 25  1  0
 24 21  1  0
 25 23  2  0
 26 27  1  0
 27 28  2  0
 29 32  1  0
 29 28  1  0
 30 29  2  0
 31 30  1  0
 31 26  2  0
 32 33  1  0
 33 34  1  0
 34 35  2  0
 36 35  1  0
 36 40  1  0
 37 36  2  0
 38 33  2  0
 38 37  1  0
 39 38  1  0
 41 42  1  0
 42 45  1  0
 42 44  1  0
 43 41  2  0
 46 21  1  0
 46 47  1  0
 48 46  1  0
 50 51  1  0
 50 49  1  0
 52 63  2  0
 53 51  1  0
 53 58  1  0
 54 62  1  0
 54 64  1  0
 55 61  1  0
 55 57  1  0
 56 62  1  0
 57 56  1  0
 58 57  2  0
 59 60  1  0
 59 53  2  0
 60 55  2  0
 61 54  1  0
 62 52  1  0
 64 66  2  0
 65 64  1  0
 67 65  1  0
 68 77  2  0
 68 73  1  0
 69 65  1  0
 69 73  1  0
 70 69  1  0
 71 72  1  0
 71 70  1  0
 72 68  1  0
 73 74  2  0
 74 75  1  0
 76 75  2  0
 77 76  1  0
 78 52  1  0
 78 79  1  0
 78 88  1  0
 79 82  1  0
 80 84  1  0
 80 79  1  0
 81 80  2  0
 84 83  1  0
 86 84  1  0
 86 87  1  0
 86 85  1  0
 88 91  1  1
 88 89  1  0
 90 88  1  0
M  ISO  4  11 100  20 100  50 101  51 101
M  END
>  <TORSDO>  (49) 
F 21

>  <SCORE>  (49) 
-13.038

>  <name>  (49) 
50

>  <ligand_id>  (49) 
50

>  <original_smiles>  (49) 
[H]c1c([H])c([H])c2c(c1[H])C([H])([H])C([H])([H])C([H])([H])C2([H])N([H])C(=O)C1([H])N(C(=O)C([H])(N([H])C(=O)C([H])(N([H])C([H])([H])[H])C([H])([H])[H])C(C([H])([H])[H])(C([H])([H])[H])C([H])([H])[H])C([H])([H])c2c([H])c(OC([H])([H])C([H])([H])c3nnn(C([H])(C([H])([H])[H])C([H])(C([H])([H])[H])C([H])([H])N(C(=O)N4C([H])([H])C([H])([H])C([H])([H])C([H])(n5nc(-c6c([H])c([H])c(Oc7c([H])c([H])c(F)c([H])c7F)c([H])c6[H])c(C(=O)N([H])[H])c5N([H])[H])C4([H])[H])C([H])([H])[H])c3[H])c([H])c([H])c2C1([H])[H]

>  <smiles>  (49) 
[H]c1c([H])c([H])c2c(c1[H])C([H])([H])C([H])([H])C([H])([H])C2([H])N([H])C(=O)C1([H])N(C(=O)C([H])(N([H])C(=O)C([H])(N([H])C([H])([H])[H])C([H])([H])[H])C(C([H])([H])[H])(C([H])([H])[H])C([H])([H])[H])C([H])([H])c2c([H])c(OC([H])([H])C([H])([H])c3nnn(C([H])(C([H])([H])[H])C([H])(C([H])([H])[H])C([H])([H])N(C(=O)N4C([H])([H])C([H])([H])C([H])([H])C([H])(n5nc(-c6c([H])c([H])c(Oc7c([H])c([H])c(F)c([H])c7F)c([H])c6[H])c(C(=O)N([H])[H])c5N([H])[H])C4([H])[H])C([H])([H])[H])c3[H])c([H])c([H])c2C1([H])[H]

$$$$
52:0:0
     RDKit          3D

 93101  0  0  1  0  0  0  0  0999 V2000
  -29.8060  -22.6720   21.6470 C   0  0  0  0  0  3  0  0  0  0  0  0
  -28.6800  -22.8180   20.8680 C   0  0  0  0  0  0  0  0  0  0  0  0
  -29.3570  -20.6640   20.7880 C   0  0  0  0  0  3  0  0  0  0  0  0
  -28.3880  -21.5350   20.4220 N   0  0  0  0  0  0  0  0  0  0  0  0
  -30.1910  -21.3580   21.5690 N   0  0  0  0  0  0  0  0  0  0  0  0
  -31.0250  -20.9790   21.9990 H   0  0  0  0  0  0  0  0  0  0  0  0
  -27.8850  -24.0470   20.4530 C   0  0  0  0  0  2  0  0  0  0  0  0
  -28.2890  -25.3820   21.1360 C   0  0  0  0  0  2  0  0  0  0  0  0
  -28.1790  -26.5320   20.2810 O   0  0  0  0  0  0  0  0  0  0  0  0
  -24.5090  -31.8610   23.2910 C   0  0  0  0  0  0  0  0  0  0  0  0
  -27.0140  -27.2660   20.3250 C   0  0  0  0  0  0  0  0  0  0  0  0
  -23.2600  -30.4650   21.6730 C   0  0  0  0  0  3  0  0  0  0  0  0
  -24.6640  -28.8410   20.2920 C   0  0  0  0  0  0  0  0  0  0  0  0
  -25.7930  -30.7370   21.4720 C   0  0  0  0  0  2  0  0  0  0  0  0
  -25.8360  -29.3460   20.8700 C   0  0  0  0  0  0  0  0  0  0  0  0
  -27.0130  -28.5650   20.8820 C   0  0  0  0  0  3  0  0  0  0  0  0
  -25.8330  -26.7730   19.7370 C   0  0  0  0  0  3  0  0  0  0  0  0
  -24.6560  -27.5520   19.7240 C   0  0  0  0  0  3  0  0  0  0  0  0
  -23.4480  -29.7420   20.3110 C   0  0  0  0  0  2  0  0  0  0  0  0
  -24.5390  -31.0370   22.2040 N   0  0  0  0  0  0  0  0  0  0  0  0
  -23.4370  -32.1770   23.8260 O   0  0  0  0  0  0  0  0  0  0  0  0
  -22.5700  -29.4910   22.6550 C   0  0  0  0  0  0  0  0  0  0  0  0
  -21.2450  -29.3280   22.5060 N   0  0  0  0  0  0  0  0  0  0  0  0
  -23.2250  -28.8800   23.5030 O   0  0  0  0  0  0  0  0  0  0  0  0
  -20.7750  -29.8690   21.7930 H   0  0  0  0  0  0  0  0  0  0  0  0
  -17.8510  -28.1750   22.9480 C   0  0  0  0  0  0  0  0  0  0  0  0
  -20.3980  -28.4280   23.2890 C   0  0  0  0  0  3  0  0  0  0  0  0
  -20.5110  -26.9730   22.7760 C   0  0  0  0  0  2  0  0  0  0  0  0
  -19.4400  -26.6160   21.7400 C   0  0  0  0  0  2  0  0  0  0  0  0
  -18.0390  -26.7970   22.3330 C   0  0  0  0  0  2  0  0  0  0  0  0
  -18.9600  -28.9460   23.3800 C   0  0  0  0  0  0  0  0  0  0  0  0
  -18.7340  -30.2350   23.9100 C   0  0  0  0  0  3  0  0  0  0  0  0
  -17.4300  -30.7510   24.0140 C   0  0  0  0  0  3  0  0  0  0  0  0
  -16.3330  -29.9780   23.5950 C   0  0  0  0  0  3  0  0  0  0  0  0
  -16.5440  -28.6910   23.0700 C   0  0  0  0  0  3  0  0  0  0  0  0
  -25.8150  -32.4610   23.9000 C   0  0  0  0  0  3  0  0  0  0  0  0
  -25.5510  -33.8720   24.2110 N   0  0  0  0  0  0  0  0  0  0  0  0
  -25.9300  -34.9040   23.4450 C   0  0  0  0  0  0  0  0  0  0  0  0
  -26.6110  -34.7660   22.4250 O   0  0  0  0  0  0  0  0  0  0  0  0
  -24.9530  -34.0570   25.0030 H   0  0  0  0  0  0  0  0  0  0  0  0
  -24.2810  -36.7580   23.0290 C   0  0  0  0  0  1  0  0  0  0  0  0
  -25.4820  -36.3140   23.8780 C   0  0  0  0  0  3  0  0  0  0  0  0
  -27.6210  -37.1260   24.7660 C   0  0  0  0  0  1  0  0  0  0  0  0
  -26.5550  -37.3270   23.7880 N   0  0  0  0  0  0  0  0  0  0  0  0
  -26.1800  -38.2640   23.9140 H   0  0  0  0  0  0  0  0  0  0  0  0
  -26.3090  -31.6910   25.1860 C   0  0  1  0  0  0  0  0  0  0  0  0
  -25.2130  -31.5000   26.2580 C   0  0  0  0  0  1  0  0  0  0  0  0
  -26.8490  -30.2910   24.8090 C   0  0  0  0  0  1  0  0  0  0  0  0
  -27.4840  -32.4590   25.8370 C   0  0  0  0  0  1  0  0  0  0  0  0
  -29.6010  -19.2510   20.2860 C   0  0  0  0  0  2  0  0  0  0  0  0
  -29.6690  -18.0690   21.2940 C   0  0  0  0  0  2  0  0  0  0  0  0
  -30.3700  -16.8570   20.6140 C   0  0  0  0  0  2  0  0  0  0  0  0
  -30.7960  -14.4320   20.7360 C   0  0  0  0  0  0  0  0  0  0  0  0
  -30.5020  -12.3030   19.5370 C   0  0  0  0  0  2  0  0  0  0  0  0
  -29.6110  -12.5710   18.3070 C   0  0  0  0  0  2  0  0  0  0  0  0
  -28.1200  -12.4490   18.6790 C   0  0  0  0  0  2  0  0  0  0  0  0
  -27.7550  -13.2410   19.9630 C   0  0  0  0  0  3  0  0  0  0  0  0
  -28.7700  -12.9750   21.0990 C   0  0  0  0  0  2  0  0  0  0  0  0
  -30.1140  -13.2650   20.5820 N   0  0  0  0  0  0  0  0  0  0  0  0
  -31.9520  -14.5810   20.3300 O   0  0  0  0  0  0  0  0  0  0  0  0
  -30.0600  -15.5030   21.1150 N   0  0  0  0  0  0  0  0  0  0  0  0
  -29.1200  -15.3190   21.4340 H   0  0  0  0  0  0  0  0  0  0  0  0
  -25.3350  -13.8550   20.5830 C   0  0  0  0  0  0  0  0  0  0  0  0
  -24.2520  -13.0870   20.9180 C   0  0  0  0  0  0  0  0  0  0  0  0
  -24.7120  -11.7340   20.9100 C   0  0  0  0  0  0  0  0  0  0  0  0
  -26.3840  -12.9700   20.3910 N   0  0  0  0  0  0  0  0  0  0  0  0
  -26.0120  -11.6900   20.6470 N   0  0  0  0  0  0  0  0  0  0  0  0
  -23.9760  -10.4740   21.0810 C   0  0  0  0  0  0  0  0  0  0  0  0
  -24.3800   -9.5090   22.0300 C   0  0  0  0  0  3  0  0  0  0  0  0
  -23.6480   -8.3130   22.1930 C   0  0  0  0  0  3  0  0  0  0  0  0
  -22.4970   -8.0730   21.4030 C   0  0  0  0  0  0  0  0  0  0  0  0
  -22.1140   -9.0260   20.4440 C   0  0  0  0  0  3  0  0  0  0  0  0
  -22.8450  -10.2150   20.2800 C   0  0  0  0  0  3  0  0  0  0  0  0
  -21.7390   -6.9310   21.4730 O   0  0  0  0  0  0  0  0  0  0  0  0
  -21.6600   -6.1860   22.6230 C   0  0  0  0  0  0  0  0  0  0  0  0
  -21.1830   -6.7320   23.8350 C   0  0  0  0  0  3  0  0  0  0  0  0
  -21.0540   -5.9120   24.9730 C   0  0  0  0  0  3  0  0  0  0  0  0
  -21.3940   -4.5480   24.9010 C   0  0  0  0  0  0  0  0  0  0  0  0
  -21.8640   -4.0020   23.6940 C   0  0  0  0  0  3  0  0  0  0  0  0
  -21.9950   -4.8180   22.5580 C   0  0  0  0  0  0  0  0  0  0  0  0
  -22.4280   -4.2820   21.3920 F   0  0  0  0  0  0  0  0  0  0  0  0
  -21.2620   -3.7580   25.9920 F   0  0  0  0  0  0  0  0  0  0  0  0
  -22.8460  -13.5670   21.1360 C   0  0  0  0  0  0  0  0  0  0  0  0
  -22.0890  -12.8750   21.9790 N   0  0  0  0  0  0  0  0  0  0  0  0
  -22.4290  -14.5900   20.5940 O   0  0  0  0  0  0  0  0  0  0  0  0
  -22.4420  -12.0500   22.4400 H   0  0  0  0  0  0  0  0  0  0  0  0
  -21.1400  -13.1730   22.1630 H   0  0  0  0  0  0  0  0  0  0  0  0
  -25.5120  -15.2240   20.4050 N   0  0  0  0  0  0  0  0  0  0  0  0
  -24.7390  -15.8790   20.4620 H   0  0  0  0  0  0  0  0  0  0  0  0
  -26.3690  -15.6510   20.0790 H   0  0  0  0  0  0  0  0  0  0  0  0
  -27.2140  -21.1310   19.6280 C   0  0  0  0  0  2  0  0  0  0  0  0
  -26.3010  -20.4480   17.3540 C   0  0  0  0  0  1  0  0  0  0  0  0
  -27.5120  -20.9790   18.1290 C   0  0  0  0  0  2  0  0  0  0  0  0
  2  1  2  0
  3 50  1  0
  3  5  1  0
  4  3  1  0
  4  2  1  0
  5  1  1  0
  5  6  1  0
  7  2  1  0
  7  8  1  0
  9 11  1  0
  9  8  1  0
 10 21  2  0
 11 16  1  0
 12 20  1  0
 12 22  1  0
 13 19  1  0
 13 15  1  0
 14 20  1  0
 15 16  2  0
 15 14  1  0
 17 11  2  0
 18 17  1  0
 18 13  2  0
 19 12  1  0
 20 10  1  0
 22 24  2  0
 23 22  1  0
 25 23  1  0
 26 35  2  0
 26 31  1  0
 27 23  1  0
 27 31  1  0
 28 27  1  0
 29 30  1  0
 29 28  1  0
 30 26  1  0
 31 32  2  0
 32 33  1  0
 34 33  2  0
 35 34  1  0
 36 10  1  0
 36 37  1  0
 36 46  1  0
 37 40  1  0
 38 42  1  0
 38 37  1  0
 39 38  2  0
 42 41  1  0
 44 42  1  0
 44 45  1  0
 44 43  1  0
 46 49  1  1
 46 47  1  0
 48 46  1  0
 50 51  1  0
 52 61  1  0
 52 51  1  0
 53 61  1  0
 54 59  1  0
 55 56  1  0
 55 54  1  0
 57 56  1  0
 57 66  1  0
 57 58  1  0
 59 53  1  0
 59 58  1  0
 60 53  2  0
 61 62  1  0
 63 64  2  0
 64 83  1  0
 65 64  1  0
 65 68  1  0
 66 63  1  0
 66 67  1  0
 67 65  2  0
 68 69  1  0
 69 70  2  0
 71 74  1  0
 71 70  1  0
 72 71  2  0
 73 72  1  0
 73 68  2  0
 74 75  1  0
 75 76  1  0
 76 77  2  0
 78 77  1  0
 78 82  1  0
 79 78  2  0
 80 75  2  0
 80 79  1  0
 81 80  1  0
 83 84  1  0
 84 87  1  0
 84 86  1  0
 85 83  2  0
 88 89  1  0
 88 63  1  0
 90 88  1  0
 91  4  1  0
 92 93  1  0
 93 91  1  0
M  ISO  4   8 101   9 101  53 100  61 100
M  END
>  <TORSDO>  (50) 
F 23

>  <SCORE>  (50) 
-12.591

>  <name>  (50) 
52

>  <ligand_id>  (50) 
52

>  <original_smiles>  (50) 
[H]c1c([H])c([H])c2c(c1[H])C([H])([H])C([H])([H])C([H])([H])C2([H])N([H])C(=O)C1([H])N(C(=O)C([H])(N([H])C(=O)C([H])(N([H])C([H])([H])[H])C([H])([H])[H])C(C([H])([H])[H])(C([H])([H])[H])C([H])([H])[H])C([H])([H])c2c([H])c(OC([H])([H])C([H])([H])c3c([H])[n+]([H])c(C([H])([H])C([H])([H])C([H])([H])N([H])C(=O)N4C([H])([H])C([H])([H])C([H])([H])C([H])(n5nc(-c6c([H])c([H])c(Oc7c([H])c([H])c(F)c([H])c7F)c([H])c6[H])c(C(=O)N([H])[H])c5N([H])[H])C4([H])[H])n3C([H])([H])C([H])([H])C([H])([H])[H])c([H])c([H])c2C1([H])[H]

>  <smiles>  (50) 
[H]c1c([H])c([H])c2c(c1[H])C([H])([H])C([H])([H])C([H])([H])C2([H])N([H])C(=O)C1([H])N(C(=O)C([H])(N([H])C(=O)C([H])(N([H])C([H])([H])[H])C([H])([H])[H])C(C([H])([H])[H])(C([H])([H])[H])C([H])([H])[H])C([H])([H])c2c([H])c(OC([H])([H])C([H])([H])c3c([H])[n+]([H])c(C([H])([H])C([H])([H])C([H])([H])N([H])C(=O)N4C([H])([H])C([H])([H])C([H])([H])C([H])(n5nc(-c6c([H])c([H])c(Oc7c([H])c([H])c(F)c([H])c7F)c([H])c6[H])c(C(=O)N([H])[H])c5N([H])[H])C4([H])[H])n3C([H])([H])C([H])([H])C([H])([H])[H])c([H])c([H])c2C1([H])[H]

$$$$
53:0:0
     RDKit          3D

 91 99  0  0  1  0  0  0  0  0999 V2000
  -30.1790  -20.3200   20.2860 C   0  0  0  0  0  0  0  0  0  0  0  0
  -29.9950  -21.9770   21.6040 C   0  0  0  0  0  3  0  0  0  0  0  0
  -30.0820  -22.8500   22.8110 C   0  0  0  0  0  1  0  0  0  0  0  0
  -30.3280  -20.6690   21.6030 N   0  0  0  0  0  0  0  0  0  0  0  0
  -29.7720  -21.3830   19.5320 N   0  0  0  0  0  2  0  0  0  0  0  0
  -29.6410  -22.4720   20.4040 N   0  0  0  0  0  0  0  0  0  0  0  0
  -30.6430  -18.9310   19.6700 C   0  0  0  0  0  2  0  0  0  0  0  0
  -30.8770  -17.5490   20.5350 C   0  0  0  0  0  2  0  0  0  0  0  0
  -30.7340  -14.9390   20.0030 C   0  0  0  0  0  0  0  0  0  0  0  0
  -30.4640  -12.6650   18.9350 C   0  0  0  0  0  2  0  0  0  0  0  0
  -29.4490  -12.6600   17.7720 C   0  0  0  0  0  2  0  0  0  0  0  0
  -28.0090  -12.4440   18.2870 C   0  0  0  0  0  2  0  0  0  0  0  0
  -27.6840  -13.2960   19.5430 C   0  0  0  0  0  3  0  0  0  0  0  0
  -28.8350  -13.2330   20.5740 C   0  0  0  0  0  2  0  0  0  0  0  0
  -30.0420  -13.7270   19.8890 N   0  0  0  0  0  0  0  0  0  0  0  0
  -31.9400  -14.9000   19.7420 O   0  0  0  0  0  0  0  0  0  0  0  0
  -30.1380  -16.2270   20.2040 N   0  0  0  0  0  0  0  0  0  0  0  0
  -25.3010  -13.8940   20.3050 C   0  0  0  0  0  0  0  0  0  0  0  0
  -24.2610  -13.1280   20.7310 C   0  0  0  0  0  0  0  0  0  0  0  0
  -24.7340  -11.7840   20.7010 C   0  0  0  0  0  0  0  0  0  0  0  0
  -26.3610  -13.0230   20.0840 N   0  0  0  0  0  0  0  0  0  0  0  0
  -26.0190  -11.7450   20.3690 N   0  0  0  0  0  0  0  0  0  0  0  0
  -24.0210  -10.5270   20.9110 C   0  0  0  0  0  0  0  0  0  0  0  0
  -24.4800   -9.5760   21.8480 C   0  0  0  0  0  3  0  0  0  0  0  0
  -23.7650   -8.3780   22.0510 C   0  0  0  0  0  3  0  0  0  0  0  0
  -22.5830   -8.1260   21.3160 C   0  0  0  0  0  0  0  0  0  0  0  0
  -22.1470   -9.0650   20.3660 C   0  0  0  0  0  3  0  0  0  0  0  0
  -22.8600  -10.2550   20.1610 C   0  0  0  0  0  3  0  0  0  0  0  0
  -21.8360   -6.9790   21.4300 O   0  0  0  0  0  0  0  0  0  0  0  0
  -21.7940   -6.2630   22.5970 C   0  0  0  0  0  0  0  0  0  0  0  0
  -21.3430   -6.8350   23.8070 C   0  0  0  0  0  3  0  0  0  0  0  0
  -21.2550   -6.0420   24.9690 C   0  0  0  0  0  3  0  0  0  0  0  0
  -21.6040   -4.6790   24.9210 C   0  0  0  0  0  0  0  0  0  0  0  0
  -22.0460   -4.1070   23.7150 C   0  0  0  0  0  3  0  0  0  0  0  0
  -22.1390   -4.8980   22.5560 C   0  0  0  0  0  0  0  0  0  0  0  0
  -22.5460   -4.3390   21.3910 F   0  0  0  0  0  0  0  0  0  0  0  0
  -21.5110   -3.9150   26.0340 F   0  0  0  0  0  0  0  0  0  0  0  0
  -22.8730  -13.6120   21.0430 C   0  0  0  0  0  0  0  0  0  0  0  0
  -22.1820  -12.9360   21.9520 N   0  0  0  0  0  0  0  0  0  0  0  0
  -22.4150  -14.6280   20.5220 O   0  0  0  0  0  0  0  0  0  0  0  0
  -22.5620  -12.1100   22.3920 H   0  0  0  0  0  0  0  0  0  0  0  0
  -21.2570  -13.2480   22.2090 H   0  0  0  0  0  0  0  0  0  0  0  0
  -25.3940  -15.2560   20.0650 N   0  0  0  0  0  0  0  0  0  0  0  0
  -24.6240  -15.8880   20.2520 H   0  0  0  0  0  0  0  0  0  0  0  0
  -26.2660  -15.7270   19.8650 H   0  0  0  0  0  0  0  0  0  0  0  0
  -28.1520  -16.7470   18.7090 C   0  0  0  0  0  1  0  0  0  0  0  0
  -27.8740  -16.2530   21.3810 C   0  0  0  0  0  1  0  0  0  0  0  0
  -28.7150  -16.6430   20.1480 C   0  0  0  0  0  3  0  0  0  0  0  0
  -29.4490  -23.9270   19.9320 C   0  0  0  0  0  3  0  0  0  0  0  0
  -28.3850  -24.9650   20.6020 C   0  0  0  0  0  3  0  0  0  0  0  0
  -28.5030  -26.4580   20.3910 O   0  0  0  0  0  0  0  0  0  0  0  0
  -24.6090  -31.9030   23.3000 C   0  0  0  0  0  0  0  0  0  0  0  0
  -27.3580  -27.2970   20.3660 C   0  0  0  0  0  0  0  0  0  0  0  0
  -23.4620  -30.4670   21.6510 C   0  0  0  0  0  3  0  0  0  0  0  0
  -24.9680  -28.9050   20.2830 C   0  0  0  0  0  0  0  0  0  0  0  0
  -26.0050  -30.8040   21.5240 C   0  0  0  0  0  2  0  0  0  0  0  0
  -26.1180  -29.4120   20.8990 C   0  0  0  0  0  0  0  0  0  0  0  0
  -27.3170  -28.6230   20.9220 C   0  0  0  0  0  3  0  0  0  0  0  0
  -26.1780  -26.8530   19.7290 C   0  0  0  0  0  3  0  0  0  0  0  0
  -25.0020  -27.6330   19.6870 C   0  0  0  0  0  3  0  0  0  0  0  0
  -23.7200  -29.7690   20.2880 C   0  0  0  0  0  2  0  0  0  0  0  0
  -24.7100  -31.0780   22.2160 N   0  0  0  0  0  0  0  0  0  0  0  0
  -23.5100  -32.1750   23.8060 O   0  0  0  0  0  0  0  0  0  0  0  0
  -22.7830  -29.4600   22.6100 C   0  0  0  0  0  0  0  0  0  0  0  0
  -21.4600  -29.2780   22.4640 N   0  0  0  0  0  0  0  0  0  0  0  0
  -23.4490  -28.8440   23.4470 O   0  0  0  0  0  0  0  0  0  0  0  0
  -20.9820  -29.8290   21.7650 H   0  0  0  0  0  0  0  0  0  0  0  0
  -18.0750  -28.0820   22.9330 C   0  0  0  0  0  0  0  0  0  0  0  0
  -20.6310  -28.3420   23.2270 C   0  0  0  0  0  3  0  0  0  0  0  0
  -20.7370  -26.9090   22.6550 C   0  0  0  0  0  2  0  0  0  0  0  0
  -19.6450  -26.5850   21.6300 C   0  0  0  0  0  2  0  0  0  0  0  0
  -18.2570  -26.7320   22.2600 C   0  0  0  0  0  2  0  0  0  0  0  0
  -19.1890  -28.8450   23.3720 C   0  0  0  0  0  0  0  0  0  0  0  0
  -18.9650  -30.1080   23.9600 C   0  0  0  0  0  3  0  0  0  0  0  0
  -17.6580  -30.6100   24.1110 C   0  0  0  0  0  3  0  0  0  0  0  0
  -16.5590  -29.8440   23.6880 C   0  0  0  0  0  3  0  0  0  0  0  0
  -16.7680  -28.5810   23.1070 C   0  0  0  0  0  3  0  0  0  0  0  0
  -25.8690  -32.5580   23.9470 C   0  0  0  0  0  3  0  0  0  0  0  0
  -25.5480  -33.9660   24.2250 N   0  0  0  0  0  0  0  0  0  0  0  0
  -25.9130  -34.9980   23.4520 C   0  0  0  0  0  0  0  0  0  0  0  0
  -26.6240  -34.8650   22.4520 O   0  0  0  0  0  0  0  0  0  0  0  0
  -24.9230  -34.1420   24.9980 H   0  0  0  0  0  0  0  0  0  0  0  0
  -24.2180  -36.7910   22.9630 C   0  0  0  0  0  1  0  0  0  0  0  0
  -25.4110  -36.4000   23.8500 C   0  0  0  0  0  3  0  0  0  0  0  0
  -27.4990  -37.2980   24.7790 C   0  0  0  0  0  1  0  0  0  0  0  0
  -26.4550  -37.4450   23.7680 N   0  0  0  0  0  0  0  0  0  0  0  0
  -26.0460  -38.3700   23.8660 H   0  0  0  0  0  0  0  0  0  0  0  0
  -26.3410  -31.8300   25.2650 C   0  0  1  0  0  0  0  0  0  0  0  0
  -25.2110  -31.6190   26.3000 C   0  0  0  0  0  1  0  0  0  0  0  0
  -26.9420  -30.4430   24.9370 C   0  0  0  0  0  1  0  0  0  0  0  0
  -27.4650  -32.6480   25.9430 C   0  0  0  0  0  1  0  0  0  0  0  0
  1  4  2  0
  2  3  1  0
  4  2  1  0
  5  1  1  0
  5  6  1  0
  6  2  1  0
  7  1  1  0
  7  8  1  0
  9 17  1  0
 10 15  1  0
 11 12  1  0
 11 10  1  0
 13 12  1  0
 13 21  1  0
 13 14  1  0
 15  9  1  0
 15 14  1  0
 16  9  2  0
 17  8  1  0
 18 19  2  0
 19 38  1  0
 20 19  1  0
 20 23  1  0
 21 18  1  0
 21 22  1  0
 22 20  2  0
 23 24  1  0
 24 25  2  0
 26 29  1  0
 26 25  1  0
 27 26  2  0
 28 27  1  0
 28 23  2  0
 29 30  1  0
 30 31  1  0
 31 32  2  0
 33 32  1  0
 33 37  1  0
 34 33  2  0
 35 30  2  0
 35 34  1  0
 36 35  1  0
 38 39  1  0
 39 42  1  0
 39 41  1  0
 40 38  2  0
 43 44  1  0
 43 18  1  0
 45 43  1  0
 46 48  1  0
 48 17  1  0
 48 47  1  0
 49  6  1  0
 49 50  2  0
 51 50  1  0
 52 63  2  0
 53 51  1  0
 53 58  1  0
 54 62  1  0
 54 64  1  0
 55 61  1  0
 55 57  1  0
 56 62  1  0
 57 58  2  0
 57 56  1  0
 59 53  2  0
 60 59  1  0
 60 55  2  0
 61 54  1  0
 62 52  1  0
 64 66  2  0
 65 64  1  0
 67 65  1  0
 68 77  2  0
 68 73  1  0
 69 65  1  0
 69 73  1  0
 70 69  1  0
 71 72  1  0
 71 70  1  0
 72 68  1  0
 73 74  2  0
 74 75  1  0
 76 75  2  0
 77 76  1  0
 78 52  1  0
 78 79  1  0
 78 88  1  0
 79 82  1  0
 80 84  1  0
 80 79  1  0
 81 80  2  0
 84 83  1  0
 86 84  1  0
 86 87  1  0
 86 85  1  0
 88 91  1  1
 88 89  1  0
 90 88  1  0
M  ISO  4   9 100  17 100  50 101  51 101
M  END
>  <TORSDO>  (51) 
F 21

>  <SCORE>  (51) 
-12.434

>  <name>  (51) 
53

>  <ligand_id>  (51) 
53

>  <original_smiles>  (51) 
[H]c1c([H])c([H])c2c(c1[H])C([H])([H])C([H])([H])C([H])([H])C2([H])N([H])C(=O)C1([H])N(C(=O)C([H])(N([H])C(=O)C([H])(N([H])C([H])([H])[H])C([H])([H])[H])C(C([H])([H])[H])(C([H])([H])[H])C([H])([H])[H])C([H])([H])c2c([H])c(OC([H])([H])C([H])([H])n3nc(C([H])([H])C([H])([H])N(C(=O)N4C([H])([H])C([H])([H])C([H])([H])C([H])(n5nc(-c6c([H])c([H])c(Oc7c([H])c([H])c(F)c([H])c7F)c([H])c6[H])c(C(=O)N([H])[H])c5N([H])[H])C4([H])[H])C([H])(C([H])([H])[H])C([H])([H])[H])nc3C([H])([H])[H])c([H])c([H])c2C1([H])[H]

>  <smiles>  (51) 
[H]c1c([H])c([H])c2c(c1[H])C([H])([H])C([H])([H])C([H])([H])C2([H])N([H])C(=O)C1([H])N(C(=O)C([H])(N([H])C(=O)C([H])(N([H])C([H])([H])[H])C([H])([H])[H])C(C([H])([H])[H])(C([H])([H])[H])C([H])([H])[H])C([H])([H])c2c([H])c(OC([H])([H])C([H])([H])n3nc(C([H])([H])C([H])([H])N(C(=O)N4C([H])([H])C([H])([H])C([H])([H])C([H])(n5nc(-c6c([H])c([H])c(Oc7c([H])c([H])c(F)c([H])c7F)c([H])c6[H])c(C(=O)N([H])[H])c5N([H])[H])C4([H])[H])C([H])(C([H])([H])[H])C([H])([H])[H])nc3C([H])([H])[H])c([H])c([H])c2C1([H])[H]

$$$$
54:0:0
     RDKit          3D

 89 97  0  0  1  0  0  0  0  0999 V2000
  -28.8500  -20.4740   20.5310 C   0  0  0  0  0  3  0  0  0  0  0  0
  -29.1560  -21.8840   20.1570 C   0  0  0  0  0  0  0  0  0  0  0  0
  -29.7800  -19.3360   20.2890 C   0  0  0  0  0  0  0  0  0  0  0  0
  -31.1600  -20.9980   19.3740 C   0  0  0  0  0  0  0  0  0  0  0  0
  -32.4840  -21.2900   18.7010 C   0  0  0  0  0  1  0  0  0  0  0  0
  -30.3610  -22.0470   19.5760 N   0  0  0  0  0  0  0  0  0  0  0  0
  -30.9290  -19.7200   19.6820 N   0  0  0  0  0  0  0  0  0  0  0  0
  -28.2090  -23.2530   20.0450 C   0  0  0  0  0  2  0  0  0  0  0  0
  -28.4050  -24.7760   20.7720 C   0  0  0  0  0  2  0  0  0  0  0  0
  -28.3190  -26.2490   20.2370 O   0  0  0  0  0  0  0  0  0  0  0  0
  -24.5930  -31.8990   23.2600 C   0  0  0  0  0  0  0  0  0  0  0  0
  -27.2090  -27.1660   20.2940 C   0  0  0  0  0  0  0  0  0  0  0  0
  -23.4090  -30.4910   21.6190 C   0  0  0  0  0  3  0  0  0  0  0  0
  -24.8700  -28.8990   20.2270 C   0  0  0  0  0  0  0  0  0  0  0  0
  -25.9620  -30.7630   21.4680 C   0  0  0  0  0  2  0  0  0  0  0  0
  -26.0440  -29.3610   20.8340 C   0  0  0  0  0  0  0  0  0  0  0  0
  -27.2160  -28.5150   20.8400 C   0  0  0  0  0  3  0  0  0  0  0  0
  -26.0050  -26.7920   19.6640 C   0  0  0  0  0  3  0  0  0  0  0  0
  -24.8640  -27.6270   19.6260 C   0  0  0  0  0  3  0  0  0  0  0  0
  -23.6420  -29.7970   20.2500 C   0  0  0  0  0  2  0  0  0  0  0  0
  -24.6740  -31.0740   22.1720 N   0  0  0  0  0  0  0  0  0  0  0  0
  -23.5030  -32.1840   23.7790 O   0  0  0  0  0  0  0  0  0  0  0  0
  -22.7230  -29.4910   22.5840 C   0  0  0  0  0  0  0  0  0  0  0  0
  -21.3970  -29.3200   22.4500 N   0  0  0  0  0  0  0  0  0  0  0  0
  -23.3910  -28.8700   23.4160 O   0  0  0  0  0  0  0  0  0  0  0  0
  -20.9150  -29.8710   21.7530 H   0  0  0  0  0  0  0  0  0  0  0  0
  -18.0120  -28.1260   22.9430 C   0  0  0  0  0  0  0  0  0  0  0  0
  -20.5700  -28.3860   23.2200 C   0  0  0  0  0  3  0  0  0  0  0  0
  -20.6730  -26.9520   22.6480 C   0  0  0  0  0  2  0  0  0  0  0  0
  -19.5740  -26.6290   21.6300 C   0  0  0  0  0  2  0  0  0  0  0  0
  -18.1900  -26.7770   22.2690 C   0  0  0  0  0  2  0  0  0  0  0  0
  -19.1300  -28.8890   23.3760 C   0  0  0  0  0  0  0  0  0  0  0  0
  -18.9090  -30.1510   23.9670 C   0  0  0  0  0  3  0  0  0  0  0  0
  -17.6040  -30.6520   24.1310 C   0  0  0  0  0  3  0  0  0  0  0  0
  -16.5000  -29.8870   23.7130 C   0  0  0  0  0  3  0  0  0  0  0  0
  -16.7060  -28.6260   23.1260 C   0  0  0  0  0  3  0  0  0  0  0  0
  -25.8640  -32.5420   23.8950 C   0  0  0  0  0  3  0  0  0  0  0  0
  -26.3540  -31.7920   25.1950 C   0  0  1  0  0  0  0  0  0  0  0  0
  -25.2410  -31.5810   26.2490 C   0  0  0  0  0  1  0  0  0  0  0  0
  -26.9350  -30.4030   24.8430 C   0  0  0  0  0  1  0  0  0  0  0  0
  -27.4980  -32.5920   25.8610 C   0  0  0  0  0  1  0  0  0  0  0  0
  -25.5520  -33.9470   24.2020 N   0  0  0  0  0  0  0  0  0  0  0  0
  -25.9020  -34.9920   23.4410 C   0  0  0  0  0  0  0  0  0  0  0  0
  -26.5880  -34.8760   22.4230 O   0  0  0  0  0  0  0  0  0  0  0  0
  -24.9430  -34.1110   24.9900 H   0  0  0  0  0  0  0  0  0  0  0  0
  -24.1940  -36.7980   23.0420 C   0  0  0  0  0  1  0  0  0  0  0  0
  -25.4180  -36.3890   23.8790 C   0  0  0  0  0  3  0  0  0  0  0  0
  -27.5420  -37.2690   24.7430 C   0  0  0  0  0  1  0  0  0  0  0  0
  -26.4600  -37.4340   23.7760 N   0  0  0  0  0  0  0  0  0  0  0  0
  -26.0570  -38.3590   23.9050 H   0  0  0  0  0  0  0  0  0  0  0  0
  -29.7250  -17.7220   20.7840 C   0  0  0  0  0  2  0  0  0  0  0  0
  -30.4920  -15.0640   20.2960 C   0  0  0  0  0  0  0  0  0  0  0  0
  -30.4030  -12.6940   19.3700 C   0  0  0  0  0  2  0  0  0  0  0  0
  -29.4670  -12.5740   18.1440 C   0  0  0  0  0  2  0  0  0  0  0  0
  -28.0000  -12.3840   18.5790 C   0  0  0  0  0  2  0  0  0  0  0  0
  -27.5840  -13.3190   19.7450 C   0  0  0  0  0  3  0  0  0  0  0  0
  -28.6430  -13.3740   20.8630 C   0  0  0  0  0  2  0  0  0  0  0  0
  -29.8940  -13.8030   20.2270 N   0  0  0  0  0  0  0  0  0  0  0  0
  -31.7260  -15.0900   20.2140 O   0  0  0  0  0  0  0  0  0  0  0  0
  -29.2090  -16.3770   18.7070 C   0  0  0  0  0  1  0  0  0  0  0  0
  -29.7200  -16.2680   20.0930 N   0  0  0  0  0  0  0  0  0  0  0  0
  -25.2050  -13.8960   20.4850 C   0  0  0  0  0  0  0  0  0  0  0  0
  -24.1420  -13.1170   20.8500 C   0  0  0  0  0  0  0  0  0  0  0  0
  -24.6140  -11.7690   20.8310 C   0  0  0  0  0  0  0  0  0  0  0  0
  -26.2520  -13.0190   20.2520 N   0  0  0  0  0  0  0  0  0  0  0  0
  -25.9070  -11.7360   20.5310 N   0  0  0  0  0  0  0  0  0  0  0  0
  -23.8940  -10.5040   21.0230 C   0  0  0  0  0  0  0  0  0  0  0  0
  -24.3250   -9.5430   21.9640 C   0  0  0  0  0  3  0  0  0  0  0  0
  -23.6040   -8.3440   22.1430 C   0  0  0  0  0  3  0  0  0  0  0  0
  -22.4380   -8.0950   21.3790 C   0  0  0  0  0  0  0  0  0  0  0  0
  -22.0280   -9.0450   20.4260 C   0  0  0  0  0  3  0  0  0  0  0  0
  -22.7500  -10.2360   20.2460 C   0  0  0  0  0  3  0  0  0  0  0  0
  -21.6890   -6.9470   21.4670 O   0  0  0  0  0  0  0  0  0  0  0  0
  -21.6310   -6.2120   22.6240 C   0  0  0  0  0  0  0  0  0  0  0  0
  -21.1840   -6.7710   23.8410 C   0  0  0  0  0  3  0  0  0  0  0  0
  -21.0760   -5.9620   24.9890 C   0  0  0  0  0  3  0  0  0  0  0  0
  -21.4040   -4.5940   24.9210 C   0  0  0  0  0  0  0  0  0  0  0  0
  -21.8440   -4.0350   23.7090 C   0  0  0  0  0  3  0  0  0  0  0  0
  -21.9540   -4.8420   22.5630 C   0  0  0  0  0  0  0  0  0  0  0  0
  -22.3590   -4.2920   21.3920 F   0  0  0  0  0  0  0  0  0  0  0  0
  -21.2920   -3.8150   26.0220 F   0  0  0  0  0  0  0  0  0  0  0  0
  -22.7400  -13.5900   21.1060 C   0  0  0  0  0  0  0  0  0  0  0  0
  -22.0060  -12.8920   21.9660 N   0  0  0  0  0  0  0  0  0  0  0  0
  -22.3040  -14.6110   20.5770 O   0  0  0  0  0  0  0  0  0  0  0  0
  -22.3710  -12.0670   22.4160 H   0  0  0  0  0  0  0  0  0  0  0  0
  -21.0660  -13.1930   22.1800 H   0  0  0  0  0  0  0  0  0  0  0  0
  -25.3670  -15.2670   20.3030 N   0  0  0  0  0  0  0  0  0  0  0  0
  -24.6020  -15.9230   20.4170 H   0  0  0  0  0  0  0  0  0  0  0  0
  -26.2260  -15.7070   20.0030 H   0  0  0  0  0  0  0  0  0  0  0  0
  2  1  2  0
  3  1  1  0
  3 51  1  0
  4  6  2  0
  4  7  1  0
  5  4  1  0
  6  2  1  0
  7  3  2  0
  8  2  1  0
  8  9  1  0
 10 12  1  0
 10  9  1  0
 11 22  2  0
 12 17  1  0
 13 21  1  0
 13 23  1  0
 14 20  1  0
 14 16  1  0
 15 21  1  0
 16 17  2  0
 16 15  1  0
 18 12  2  0
 19 18  1  0
 19 14  2  0
 20 13  1  0
 21 11  1  0
 23 25  2  0
 24 23  1  0
 26 24  1  0
 27 36  2  0
 27 32  1  0
 28 24  1  0
 28 32  1  0
 29 28  1  0
 30 31  1  0
 30 29  1  0
 31 27  1  0
 32 33  2  0
 33 34  1  0
 35 34  2  0
 36 35  1  0
 37 11  1  0
 37 42  1  0
 37 38  1  0
 38 41  1  1
 38 39  1  0
 40 38  1  0
 42 45  1  0
 43 47  1  0
 43 42  1  0
 44 43  2  0
 47 46  1  0
 49 47  1  0
 49 50  1  0
 49 48  1  0
 53 58  1  0
 54 55  1  0
 54 53  1  0
 56 55  1  0
 56 65  1  0
 56 57  1  0
 58 52  1  0
 58 57  1  0
 59 52  2  0
 60 61  1  0
 61 52  1  0
 61 51  1  0
 62 63  2  0
 63 82  1  0
 64 63  1  0
 64 67  1  0
 65 62  1  0
 65 66  1  0
 66 64  2  0
 67 68  1  0
 68 69  2  0
 70 73  1  0
 70 69  1  0
 71 70  2  0
 72 71  1  0
 72 67  2  0
 73 74  1  0
 74 75  1  0
 75 76  2  0
 77 76  1  0
 77 81  1  0
 78 77  2  0
 79 74  2  0
 79 78  1  0
 80 79  1  0
 82 83  1  0
 83 86  1  0
 83 85  1  0
 84 82  2  0
 87 88  1  0
 87 62  1  0
 89 87  1  0
M  ISO  4   9 101  10 101  52 100  61 100
M  END
>  <TORSDO>  (52) 
F 19

>  <SCORE>  (52) 
-14.814

>  <name>  (52) 
54

>  <ligand_id>  (52) 
54

>  <original_smiles>  (52) 
[H]c1c(C([H])([H])N(C(=O)N2C([H])([H])C([H])([H])C([H])([H])C([H])(n3nc(-c4c([H])c([H])c(Oc5c([H])c([H])c(F)c([H])c5F)c([H])c4[H])c(C(=O)N([H])[H])c3N([H])[H])C2([H])[H])C([H])([H])[H])nc(C([H])([H])[H])nc1C([H])([H])C([H])([H])Oc1c([H])c([H])c2c(c1[H])C([H])([H])N(C(=O)C([H])(N([H])C(=O)C([H])(N([H])C([H])([H])[H])C([H])([H])[H])C(C([H])([H])[H])(C([H])([H])[H])C([H])([H])[H])C([H])(C(=O)N([H])C1([H])c3c([H])c([H])c([H])c([H])c3C([H])([H])C([H])([H])C1([H])[H])C2([H])[H]

>  <smiles>  (52) 
[H]c1c(C([H])([H])N(C(=O)N2C([H])([H])C([H])([H])C([H])([H])C([H])(n3nc(-c4c([H])c([H])c(Oc5c([H])c([H])c(F)c([H])c5F)c([H])c4[H])c(C(=O)N([H])[H])c3N([H])[H])C2([H])[H])C([H])([H])[H])nc(C([H])([H])[H])nc1C([H])([H])C([H])([H])Oc1c([H])c([H])c2c(c1[H])C([H])([H])N(C(=O)C([H])(N([H])C(=O)C([H])(N([H])C([H])([H])[H])C([H])([H])[H])C(C([H])([H])[H])(C([H])([H])[H])C([H])([H])[H])C([H])(C(=O)N([H])C1([H])c3c([H])c([H])c([H])c([H])c3C([H])([H])C([H])([H])C1([H])[H])C2([H])[H]

$$$$
55:0:0
     RDKit          3D

 89 97  0  0  1  0  0  0  0  0999 V2000
  -30.1000  -22.7340   19.8430 C   0  0  0  0  0  3  0  0  0  0  0  0
  -28.2100  -21.7940   19.7310 C   0  0  0  0  0  3  0  0  0  0  0  0
  -28.7120  -23.1240   19.8080 C   0  0  0  0  0  0  0  0  0  0  0  0
  -30.3590  -21.3880   19.7880 N   0  0  0  0  0  0  0  0  0  0  0  0
  -29.1780  -20.7090   19.6930 N   0  0  0  0  0  0  0  0  0  0  0  0
  -28.1270  -18.6940   20.7690 C   0  0  0  0  0  1  0  0  0  0  0  0
  -28.1630  -18.9090   18.2850 C   0  0  0  0  0  1  0  0  0  0  0  0
  -28.9940  -19.1030   19.5670 C   0  0  1  0  0  0  0  0  0  0  0  0
  -30.1990  -17.8880   19.4900 C   0  0  0  0  0  2  0  0  0  0  0  0
  -30.7310  -15.1280   19.6740 C   0  0  0  0  0  0  0  0  0  0  0  0
  -30.6270  -12.6860   18.9520 C   0  0  0  0  0  2  0  0  0  0  0  0
  -29.6350  -12.4960   17.7810 C   0  0  0  0  0  2  0  0  0  0  0  0
  -28.2100  -12.2690   18.3150 C   0  0  0  0  0  2  0  0  0  0  0  0
  -27.8330  -13.2810   19.4280 C   0  0  0  0  0  3  0  0  0  0  0  0
  -28.9450  -13.4550   20.4860 C   0  0  0  0  0  2  0  0  0  0  0  0
  -30.1640  -13.8510   19.7660 N   0  0  0  0  0  0  0  0  0  0  0  0
  -31.9160  -15.1780   19.3300 O   0  0  0  0  0  0  0  0  0  0  0  0
  -29.9410  -16.3220   19.7630 N   0  0  0  0  0  0  0  0  0  0  0  0
  -28.9850  -16.1190   20.0110 H   0  0  0  0  0  0  0  0  0  0  0  0
  -25.5400  -13.8690   20.3940 C   0  0  0  0  0  0  0  0  0  0  0  0
  -24.4930  -13.0990   20.8190 C   0  0  0  0  0  0  0  0  0  0  0  0
  -24.9230  -11.7410   20.6920 C   0  0  0  0  0  0  0  0  0  0  0  0
  -26.5380  -12.9820   20.0270 N   0  0  0  0  0  0  0  0  0  0  0  0
  -26.1830  -11.6930   20.2720 N   0  0  0  0  0  0  0  0  0  0  0  0
  -24.1830  -10.4870   20.8860 C   0  0  0  0  0  0  0  0  0  0  0  0
  -24.5740   -9.5410   21.8580 C   0  0  0  0  0  3  0  0  0  0  0  0
  -23.8350   -8.3520   22.0400 C   0  0  0  0  0  3  0  0  0  0  0  0
  -22.6880   -8.1030   21.2490 C   0  0  0  0  0  0  0  0  0  0  0  0
  -22.3150   -9.0380   20.2680 C   0  0  0  0  0  3  0  0  0  0  0  0
  -23.0570  -10.2170   20.0840 C   0  0  0  0  0  3  0  0  0  0  0  0
  -21.9230   -6.9650   21.3370 O   0  0  0  0  0  0  0  0  0  0  0  0
  -21.7010   -6.3390   22.5380 C   0  0  0  0  0  0  0  0  0  0  0  0
  -21.0680   -6.9950   23.6150 C   0  0  0  0  0  3  0  0  0  0  0  0
  -20.7960   -6.2910   24.8050 C   0  0  0  0  0  3  0  0  0  0  0  0
  -21.1500   -4.9330   24.9190 C   0  0  0  0  0  0  0  0  0  0  0  0
  -21.7790   -4.2770   23.8450 C   0  0  0  0  0  3  0  0  0  0  0  0
  -22.0500   -4.9790   22.6560 C   0  0  0  0  0  0  0  0  0  0  0  0
  -22.6340   -4.3350   21.6170 F   0  0  0  0  0  0  0  0  0  0  0  0
  -20.8840   -4.2560   26.0590 F   0  0  0  0  0  0  0  0  0  0  0  0
  -23.1360  -13.5920   21.2230 C   0  0  0  0  0  0  0  0  0  0  0  0
  -22.4700  -12.8810   22.1250 N   0  0  0  0  0  0  0  0  0  0  0  0
  -22.6790  -14.6420   20.7770 O   0  0  0  0  0  0  0  0  0  0  0  0
  -22.8540  -12.0280   22.5050 H   0  0  0  0  0  0  0  0  0  0  0  0
  -21.5650  -13.1940   22.4410 H   0  0  0  0  0  0  0  0  0  0  0  0
  -25.7160  -15.2440   20.2640 N   0  0  0  0  0  0  0  0  0  0  0  0
  -24.9670  -15.8950   20.4730 H   0  0  0  0  0  0  0  0  0  0  0  0
  -26.5150  -15.6880   19.8360 H   0  0  0  0  0  0  0  0  0  0  0  0
  -27.8840  -24.5890   19.7130 C   0  0  0  0  0  2  0  0  0  0  0  0
  -28.2830  -26.0890   20.0040 O   0  0  0  0  0  0  0  0  0  0  0  0
  -24.6680  -31.7290   23.2230 C   0  0  0  0  0  0  0  0  0  0  0  0
  -27.2620  -27.1350   19.9750 C   0  0  0  0  0  0  0  0  0  0  0  0
  -23.4840  -30.4210   21.5050 C   0  0  0  0  0  3  0  0  0  0  0  0
  -24.9450  -28.9270   20.0120 C   0  0  0  0  0  0  0  0  0  0  0  0
  -26.0430  -30.6840   21.3770 C   0  0  0  0  0  2  0  0  0  0  0  0
  -26.1240  -29.3230   20.6560 C   0  0  0  0  0  0  0  0  0  0  0  0
  -27.2810  -28.4440   20.6240 C   0  0  0  0  0  3  0  0  0  0  0  0
  -26.0530  -26.8720   19.2850 C   0  0  0  0  0  3  0  0  0  0  0  0
  -24.9260  -27.7160   19.3110 C   0  0  0  0  0  3  0  0  0  0  0  0
  -23.7230  -29.8270   20.0940 C   0  0  0  0  0  2  0  0  0  0  0  0
  -24.7530  -30.9630   22.0920 N   0  0  0  0  0  0  0  0  0  0  0  0
  -23.5760  -31.9850   23.7550 O   0  0  0  0  0  0  0  0  0  0  0  0
  -22.7950  -29.3630   22.4070 C   0  0  0  0  0  0  0  0  0  0  0  0
  -21.4700  -29.1910   22.2530 N   0  0  0  0  0  0  0  0  0  0  0  0
  -23.4580  -28.7020   23.2100 O   0  0  0  0  0  0  0  0  0  0  0  0
  -20.9880  -29.7810   21.5890 H   0  0  0  0  0  0  0  0  0  0  0  0
  -18.0830  -27.9700   22.6830 C   0  0  0  0  0  0  0  0  0  0  0  0
  -20.6430  -28.2110   22.9670 C   0  0  0  0  0  3  0  0  0  0  0  0
  -20.7420  -26.8150   22.3100 C   0  0  0  0  0  2  0  0  0  0  0  0
  -19.6400  -26.5540   21.2780 C   0  0  0  0  0  2  0  0  0  0  0  0
  -18.2580  -26.6620   21.9280 C   0  0  0  0  0  2  0  0  0  0  0  0
  -19.2040  -28.7040   23.1570 C   0  0  0  0  0  0  0  0  0  0  0  0
  -18.9830  -29.9260   23.8280 C   0  0  0  0  0  3  0  0  0  0  0  0
  -17.6780  -30.4180   24.0210 C   0  0  0  0  0  3  0  0  0  0  0  0
  -16.5730  -29.6820   23.5600 C   0  0  0  0  0  3  0  0  0  0  0  0
  -16.7780  -28.4580   22.8970 C   0  0  0  0  0  3  0  0  0  0  0  0
  -25.9390  -32.3310   23.8940 C   0  0  0  0  0  3  0  0  0  0  0  0
  -26.3880  -31.5430   25.1860 C   0  0  1  0  0  0  0  0  0  0  0  0
  -25.2490  -31.3260   26.2110 C   0  0  0  0  0  1  0  0  0  0  0  0
  -26.9550  -30.1540   24.8130 C   0  0  0  0  0  1  0  0  0  0  0  0
  -27.5310  -32.3080   25.8940 C   0  0  0  0  0  1  0  0  0  0  0  0
  -25.6480  -33.7350   24.2270 N   0  0  0  0  0  0  0  0  0  0  0  0
  -25.9860  -34.7850   23.4660 C   0  0  0  0  0  0  0  0  0  0  0  0
  -26.6420  -34.6730   22.4260 O   0  0  0  0  0  0  0  0  0  0  0  0
  -25.0670  -33.8990   25.0360 H   0  0  0  0  0  0  0  0  0  0  0  0
  -24.2650  -36.5960   23.1570 C   0  0  0  0  0  1  0  0  0  0  0  0
  -25.5280  -36.1840   23.9300 C   0  0  0  0  0  3  0  0  0  0  0  0
  -27.6880  -37.0650   24.6970 C   0  0  0  0  0  1  0  0  0  0  0  0
  -26.5660  -37.2260   23.7760 N   0  0  0  0  0  0  0  0  0  0  0  0
  -26.1710  -38.1520   23.9160 H   0  0  0  0  0  0  0  0  0  0  0  0
  2  3  2  0
  3  1  1  0
  4  1  2  0
  5  2  1  0
  5  4  1  0
  8  7  1  6
  8  5  1  0
  8  6  1  0
  9  8  1  0
  9 18  1  0
 10 18  1  0
 10 16  1  0
 11 16  1  0
 12 13  1  0
 12 11  1  0
 14 13  1  0
 14 23  1  0
 14 15  1  0
 16 15  1  0
 17 10  2  0
 18 19  1  0
 20 21  2  0
 21 40  1  0
 22 21  1  0
 22 25  1  0
 23 24  1  0
 23 20  1  0
 24 22  2  0
 25 26  1  0
 26 27  2  0
 28 31  1  0
 28 27  1  0
 29 28  2  0
 30 29  1  0
 30 25  2  0
 31 32  1  0
 32 37  2  0
 32 33  1  0
 33 34  2  0
 34 35  1  0
 35 39  1  0
 36 35  2  0
 37 36  1  0
 38 37  1  0
 40 41  1  0
 41 44  1  0
 41 43  1  0
 42 40  2  0
 45 20  1  0
 45 46  1  0
 47 45  1  0
 48  3  1  0
 48 49  1  0
 50 61  2  0
 51 49  1  0
 51 56  1  0
 52 60  1  0
 52 62  1  0
 53 59  1  0
 53 55  1  0
 54 60  1  0
 55 54  1  0
 56 55  2  0
 57 58  1  0
 57 51  2  0
 58 53  2  0
 59 52  1  0
 60 50  1  0
 62 64  2  0
 63 62  1  0
 65 63  1  0
 66 75  2  0
 66 71  1  0
 67 63  1  0
 67 71  1  0
 68 67  1  0
 69 70  1  0
 69 68  1  0
 70 66  1  0
 71 72  2  0
 72 73  1  0
 74 73  2  0
 75 74  1  0
 76 50  1  0
 76 81  1  0
 76 77  1  0
 77 80  1  1
 77 78  1  0
 79 77  1  0
 81 84  1  0
 82 86  1  0
 82 81  1  0
 83 82  2  0
 86 85  1  0
 88 89  1  0
 88 86  1  0
 88 87  1  0
M  ISO  4  10 100  18 100  48 101  49 101
M  END
>  <TORSDO>  (53) 
F 19

>  <SCORE>  (53) 
-13.913

>  <name>  (53) 
55

>  <ligand_id>  (53) 
55

>  <original_smiles>  (53) 
[H]c1nn(C(C([H])([H])[H])(C([H])([H])[H])C([H])([H])N([H])C(=O)N2C([H])([H])C([H])([H])C([H])([H])C([H])(n3nc(-c4c([H])c([H])c(Oc5c([H])c([H])c(F)c([H])c5F)c([H])c4[H])c(C(=O)N([H])[H])c3N([H])[H])C2([H])[H])c([H])c1C([H])([H])Oc1c([H])c([H])c2c(c1[H])C([H])([H])N(C(=O)C([H])(N([H])C(=O)C([H])(N([H])C([H])([H])[H])C([H])([H])[H])C(C([H])([H])[H])(C([H])([H])[H])C([H])([H])[H])C([H])(C(=O)N([H])C1([H])c3c([H])c([H])c([H])c([H])c3C([H])([H])C([H])([H])C1([H])[H])C2([H])[H]

>  <smiles>  (53) 
[H]c1nn(C(C([H])([H])[H])(C([H])([H])[H])C([H])([H])N([H])C(=O)N2C([H])([H])C([H])([H])C([H])([H])C([H])(n3nc(-c4c([H])c([H])c(Oc5c([H])c([H])c(F)c([H])c5F)c([H])c4[H])c(C(=O)N([H])[H])c3N([H])[H])C2([H])[H])c([H])c1C([H])([H])Oc1c([H])c([H])c2c(c1[H])C([H])([H])N(C(=O)C([H])(N([H])C(=O)C([H])(N([H])C([H])([H])[H])C([H])([H])[H])C(C([H])([H])[H])(C([H])([H])[H])C([H])([H])[H])C([H])(C(=O)N([H])C1([H])c3c([H])c([H])c([H])c([H])c3C([H])([H])C([H])([H])C1([H])[H])C2([H])[H]

$$$$
56:0:0
     RDKit          3D

 91 99  0  0  1  0  0  0  0  0999 V2000
  -27.3470  -21.8430   18.9050 C   0  0  0  0  0  3  0  0  0  0  0  0
  -27.0310  -20.5970   18.4650 C   0  0  0  0  0  3  0  0  0  0  0  0
  -28.9460  -20.4030   19.6320 C   0  0  0  0  0  3  0  0  0  0  0  0
  -28.5300  -21.7940   19.6260 N   0  0  0  0  0  0  0  0  0  0  0  0
  -27.9930  -19.7700   18.9380 N   0  0  0  0  0  0  0  0  0  0  0  0
  -27.9910  -18.7700   18.7870 H   0  0  0  0  0  0  0  0  0  0  0  0
  -29.9900  -19.4160   21.7280 C   0  0  0  0  0  1  0  0  0  0  0  0
  -31.4390  -19.7900   19.7600 C   0  0  0  0  0  1  0  0  0  0  0  0
  -30.0450  -19.3110   20.1930 C   0  0  2  0  0  0  0  0  0  0  0  0
  -29.9150  -17.6610   19.6680 C   0  0  0  0  0  2  0  0  0  0  0  0
  -30.8560  -15.0620   19.9370 C   0  0  0  0  0  0  0  0  0  0  0  0
  -30.6360  -12.7080   18.9870 C   0  0  0  0  0  2  0  0  0  0  0  0
  -29.6520  -12.6510   17.7920 C   0  0  0  0  0  2  0  0  0  0  0  0
  -28.2020  -12.4650   18.2750 C   0  0  0  0  0  2  0  0  0  0  0  0
  -27.8620  -13.4250   19.4430 C   0  0  0  0  0  3  0  0  0  0  0  0
  -28.9510  -13.4020   20.5330 C   0  0  0  0  0  2  0  0  0  0  0  0
  -30.2200  -13.8120   19.9090 N   0  0  0  0  0  0  0  0  0  0  0  0
  -31.9710  -15.1180   19.4050 O   0  0  0  0  0  0  0  0  0  0  0  0
  -30.0290  -16.3420   21.8460 C   0  0  0  0  0  1  0  0  0  0  0  0
  -30.2090  -16.2630   20.3940 N   0  0  0  0  0  0  0  0  0  0  0  0
  -25.5580  -14.0930   20.3240 C   0  0  0  0  0  0  0  0  0  0  0  0
  -24.4830  -13.3550   20.7420 C   0  0  0  0  0  0  0  0  0  0  0  0
  -24.8880  -11.9880   20.6630 C   0  0  0  0  0  0  0  0  0  0  0  0
  -26.5410  -13.1750   20.0020 N   0  0  0  0  0  0  0  0  0  0  0  0
  -26.1540  -11.9030   20.2730 N   0  0  0  0  0  0  0  0  0  0  0  0
  -24.1210  -10.7550   20.8740 C   0  0  0  0  0  0  0  0  0  0  0  0
  -24.5410   -9.7710   21.7980 C   0  0  0  0  0  3  0  0  0  0  0  0
  -23.7740   -8.6020   21.9950 C   0  0  0  0  0  3  0  0  0  0  0  0
  -22.5750   -8.4090   21.2690 C   0  0  0  0  0  0  0  0  0  0  0  0
  -22.1730   -9.3820   20.3380 C   0  0  0  0  0  3  0  0  0  0  0  0
  -22.9390  -10.5420   20.1390 C   0  0  0  0  0  3  0  0  0  0  0  0
  -21.7790   -7.2950   21.3760 O   0  0  0  0  0  0  0  0  0  0  0  0
  -21.6970   -6.5790   22.5430 C   0  0  0  0  0  0  0  0  0  0  0  0
  -21.3050   -7.1800   23.7600 C   0  0  0  0  0  3  0  0  0  0  0  0
  -21.1630   -6.3930   24.9200 C   0  0  0  0  0  3  0  0  0  0  0  0
  -21.4080   -5.0070   24.8660 C   0  0  0  0  0  0  0  0  0  0  0  0
  -21.7960   -4.4070   23.6550 C   0  0  0  0  0  3  0  0  0  0  0  0
  -21.9370   -5.1920   22.4960 C   0  0  0  0  0  0  0  0  0  0  0  0
  -22.2900   -4.6060   21.3270 F   0  0  0  0  0  0  0  0  0  0  0  0
  -21.2660   -4.2490   25.9770 F   0  0  0  0  0  0  0  0  0  0  0  0
  -23.1280  -13.8890   21.1020 C   0  0  0  0  0  0  0  0  0  0  0  0
  -22.4260  -13.2150   22.0060 N   0  0  0  0  0  0  0  0  0  0  0  0
  -22.7040  -14.9360   20.6160 O   0  0  0  0  0  0  0  0  0  0  0  0
  -22.7830  -12.3650   22.4180 H   0  0  0  0  0  0  0  0  0  0  0  0
  -21.5170  -13.5530   22.2910 H   0  0  0  0  0  0  0  0  0  0  0  0
  -25.7730  -15.4590   20.1670 N   0  0  0  0  0  0  0  0  0  0  0  0
  -25.0490  -16.1440   20.3540 H   0  0  0  0  0  0  0  0  0  0  0  0
  -26.6370  -15.8650   19.8320 H   0  0  0  0  0  0  0  0  0  0  0  0
  -29.0170  -23.2350   20.1550 C   0  0  0  0  0  3  0  0  0  0  0  0
  -28.0870  -24.6490   19.8480 C   0  0  0  0  0  3  0  0  0  0  0  0
  -28.3080  -26.1780   20.1240 O   0  0  0  0  0  0  0  0  0  0  0  0
  -24.5270  -31.7680   23.1100 C   0  0  0  0  0  0  0  0  0  0  0  0
  -27.2370  -27.1510   20.0280 C   0  0  0  0  0  0  0  0  0  0  0  0
  -23.3660  -30.3700   21.4470 C   0  0  0  0  0  3  0  0  0  0  0  0
  -24.8630  -28.8540   19.9990 C   0  0  0  0  0  0  0  0  0  0  0  0
  -25.9140  -30.6940   21.2970 C   0  0  0  0  0  2  0  0  0  0  0  0
  -26.0290  -29.3130   20.6230 C   0  0  0  0  0  0  0  0  0  0  0  0
  -27.2130  -28.4820   20.6210 C   0  0  0  0  0  3  0  0  0  0  0  0
  -26.0440  -26.8020   19.3520 C   0  0  0  0  0  3  0  0  0  0  0  0
  -24.8860  -27.6120   19.3440 C   0  0  0  0  0  3  0  0  0  0  0  0
  -23.6120  -29.7190   20.0570 C   0  0  0  0  0  2  0  0  0  0  0  0
  -24.6220  -30.9650   22.0070 N   0  0  0  0  0  0  0  0  0  0  0  0
  -23.4340  -32.0200   23.6390 O   0  0  0  0  0  0  0  0  0  0  0  0
  -22.7080  -29.3310   22.3870 C   0  0  0  0  0  0  0  0  0  0  0  0
  -21.3830  -29.1350   22.2550 N   0  0  0  0  0  0  0  0  0  0  0  0
  -23.3910  -28.7040   23.2000 O   0  0  0  0  0  0  0  0  0  0  0  0
  -20.8870  -29.6930   21.5750 H   0  0  0  0  0  0  0  0  0  0  0  0
  -18.0300  -27.8430   22.7250 C   0  0  0  0  0  0  0  0  0  0  0  0
  -20.5810  -28.1670   23.0080 C   0  0  0  0  0  3  0  0  0  0  0  0
  -20.7220  -26.7450   22.4170 C   0  0  0  0  0  2  0  0  0  0  0  0
  -19.6350  -26.4070   21.3930 C   0  0  0  0  0  2  0  0  0  0  0  0
  -18.2460  -26.5080   22.0280 C   0  0  0  0  0  2  0  0  0  0  0  0
  -19.1270  -28.6290   23.1690 C   0  0  0  0  0  0  0  0  0  0  0  0
  -18.8730  -29.8760   23.7790 C   0  0  0  0  0  3  0  0  0  0  0  0
  -17.5550  -30.3420   23.9470 C   0  0  0  0  0  3  0  0  0  0  0  0
  -16.4730  -29.5540   23.5180 C   0  0  0  0  0  3  0  0  0  0  0  0
  -16.7110  -28.3070   22.9150 C   0  0  0  0  0  3  0  0  0  0  0  0
  -25.7900  -32.4240   23.7510 C   0  0  0  0  0  3  0  0  0  0  0  0
  -26.3200  -31.6430   25.0180 C   0  0  1  0  0  0  0  0  0  0  0  0
  -25.2260  -31.3660   26.0770 C   0  0  0  0  0  1  0  0  0  0  0  0
  -26.9330  -30.2840   24.6100 C   0  0  0  0  0  1  0  0  0  0  0  0
  -27.4520  -32.4540   25.6940 C   0  0  0  0  0  1  0  0  0  0  0  0
  -25.4420  -33.8080   24.1130 N   0  0  0  0  0  0  0  0  0  0  0  0
  -25.7400  -34.8860   23.3760 C   0  0  0  0  0  0  0  0  0  0  0  0
  -26.4040  -34.8210   22.3380 O   0  0  0  0  0  0  0  0  0  0  0  0
  -24.8500  -33.9290   24.9220 H   0  0  0  0  0  0  0  0  0  0  0  0
  -23.9590  -36.6400   23.0810 C   0  0  0  0  0  1  0  0  0  0  0  0
  -25.2210  -36.2520   23.8670 C   0  0  0  0  0  3  0  0  0  0  0  0
  -27.3410  -37.1740   24.6920 C   0  0  0  0  0  1  0  0  0  0  0  0
  -26.2220  -37.3350   23.7660 N   0  0  0  0  0  0  0  0  0  0  0  0
  -25.7950  -38.2380   23.9480 H   0  0  0  0  0  0  0  0  0  0  0  0
  1  4  1  0
  2  1  2  0
  2  5  1  0
  3  9  1  0
  4  3  1  0
  4 49  1  0
  5  3  1  0
  6  5  1  0
  9  8  1  6
  9  7  1  0
 10  9  1  0
 10 20  1  0
 11 20  1  0
 12 17  1  0
 13 14  1  0
 13 12  1  0
 15 14  1  0
 15 24  1  0
 15 16  1  0
 17 11  1  0
 17 16  1  0
 18 11  2  0
 20 19  1  0
 21 22  2  0
 22 41  1  0
 23 22  1  0
 23 26  1  0
 24 25  1  0
 24 21  1  0
 25 23  2  0
 26 27  1  0
 27 28  2  0
 29 32  1  0
 29 28  1  0
 30 29  2  0
 31 30  1  0
 31 26  2  0
 32 33  1  0
 33 34  1  0
 34 35  2  0
 36 35  1  0
 36 40  1  0
 37 36  2  0
 38 33  2  0
 38 37  1  0
 39 38  1  0
 41 42  1  0
 42 45  1  0
 42 44  1  0
 43 41  2  0
 46 21  1  0
 46 47  1  0
 48 46  1  0
 50 51  1  0
 50 49  2  0
 52 63  2  0
 53 51  1  0
 53 58  1  0
 54 62  1  0
 54 64  1  0
 55 61  1  0
 55 57  1  0
 56 62  1  0
 57 56  1  0
 58 57  2  0
 59 53  2  0
 60 59  1  0
 60 55  2  0
 61 54  1  0
 62 52  1  0
 64 66  2  0
 65 64  1  0
 67 65  1  0
 68 77  2  0
 68 73  1  0
 69 65  1  0
 69 73  1  0
 70 69  1  0
 71 72  1  0
 71 70  1  0
 72 68  1  0
 73 74  2  0
 74 75  1  0
 76 75  2  0
 77 76  1  0
 78 52  1  0
 78 83  1  0
 78 79  1  0
 79 82  1  1
 79 80  1  0
 81 79  1  0
 83 86  1  0
 84 88  1  0
 84 83  1  0
 85 84  2  0
 88 87  1  0
 90 88  1  0
 90 91  1  0
 90 89  1  0
M  ISO  4  11 100  20 100  50 101  51 101
M  END
>  <TORSDO>  (54) 
F 20

>  <SCORE>  (54) 
-14.742

>  <name>  (54) 
56

>  <ligand_id>  (54) 
56

>  <original_smiles>  (54) 
[H]c1c([H])c([H])c2c(c1[H])C([H])([H])C([H])([H])C([H])([H])C2([H])N([H])C(=O)C1([H])N(C(=O)C([H])(N([H])C(=O)C([H])(N([H])C([H])([H])[H])C([H])([H])[H])C(C([H])([H])[H])(C([H])([H])[H])C([H])([H])[H])C([H])([H])c2c([H])c(OC([H])([H])C([H])([H])n3c([H])c([H])[n+]([H])c3C(C([H])([H])[H])(C([H])([H])[H])C([H])([H])N(C(=O)N3C([H])([H])C([H])([H])C([H])([H])C([H])(n4nc(-c5c([H])c([H])c(Oc6c([H])c([H])c(F)c([H])c6F)c([H])c5[H])c(C(=O)N([H])[H])c4N([H])[H])C3([H])[H])C([H])([H])[H])c([H])c([H])c2C1([H])[H]

>  <smiles>  (54) 
[H]c1c([H])c([H])c2c(c1[H])C([H])([H])C([H])([H])C([H])([H])C2([H])N([H])C(=O)C1([H])N(C(=O)C([H])(N([H])C(=O)C([H])(N([H])C([H])([H])[H])C([H])([H])[H])C(C([H])([H])[H])(C([H])([H])[H])C([H])([H])[H])C([H])([H])c2c([H])c(OC([H])([H])C([H])([H])n3c([H])c([H])[n+]([H])c3C(C([H])([H])[H])(C([H])([H])[H])C([H])([H])N(C(=O)N3C([H])([H])C([H])([H])C([H])([H])C([H])(n4nc(-c5c([H])c([H])c(Oc6c([H])c([H])c(F)c([H])c6F)c([H])c5[H])c(C(=O)N([H])[H])c4N([H])[H])C3([H])[H])C([H])([H])[H])c([H])c([H])c2C1([H])[H]

$$$$
57:0:0
     RDKit          3D

 89 97  0  0  1  0  0  0  0  0999 V2000
  -29.6470  -20.3640   19.7980 C   0  0  0  0  0  3  0  0  0  0  0  0
  -27.5370  -17.5730   20.7350 C   0  0  0  0  0  3  0  0  0  0  0  0
  -29.0640  -18.8760   20.0820 C   0  0  0  0  0  0  0  0  0  0  0  0
  -27.8290  -18.8920   20.5900 N   0  0  0  0  0  0  0  0  0  0  0  0
  -28.5020  -16.7260   20.4060 N   0  0  0  0  0  0  0  0  0  0  0  0
  -29.5350  -17.5130   20.0070 N   0  0  0  0  0  0  0  0  0  0  0  0
  -31.9390  -17.6240   19.5600 C   0  0  0  0  0  1  0  0  0  0  0  0
  -30.4250  -16.5660   17.9140 C   0  0  0  0  0  1  0  0  0  0  0  0
  -30.7150  -16.6760   19.4290 C   0  0  2  0  0  0  0  0  0  0  0  0
  -31.2360  -15.1440   19.9660 C   0  0  0  0  0  0  0  0  0  0  0  0
  -31.0240  -12.7170   19.2870 C   0  0  0  0  0  2  0  0  0  0  0  0
  -30.1180  -12.5430   18.0500 C   0  0  0  0  0  2  0  0  0  0  0  0
  -28.6510  -12.3820   18.4840 C   0  0  0  0  0  2  0  0  0  0  0  0
  -28.2270  -13.4260   19.5470 C   0  0  0  0  0  3  0  0  0  0  0  0
  -29.2690  -13.6100   20.6650 C   0  0  0  0  0  2  0  0  0  0  0  0
  -30.5500  -13.9270   20.0230 N   0  0  0  0  0  0  0  0  0  0  0  0
  -32.4620  -15.0000   19.9800 O   0  0  0  0  0  0  0  0  0  0  0  0
  -25.8850  -14.1030   20.3020 C   0  0  0  0  0  0  0  0  0  0  0  0
  -24.7910  -13.3750   20.6760 C   0  0  0  0  0  0  0  0  0  0  0  0
  -25.2030  -12.0060   20.6540 C   0  0  0  0  0  0  0  0  0  0  0  0
  -26.8910  -13.1820   20.0680 N   0  0  0  0  0  0  0  0  0  0  0  0
  -26.4920  -11.9150   20.3490 N   0  0  0  0  0  0  0  0  0  0  0  0
  -24.4250  -10.7760   20.8440 C   0  0  0  0  0  0  0  0  0  0  0  0
  -24.7800   -9.8220   21.8240 C   0  0  0  0  0  3  0  0  0  0  0  0
  -24.0040   -8.6580   22.0020 C   0  0  0  0  0  3  0  0  0  0  0  0
  -22.8590   -8.4380   21.1980 C   0  0  0  0  0  0  0  0  0  0  0  0
  -22.5250   -9.3770   20.2100 C   0  0  0  0  0  3  0  0  0  0  0  0
  -23.3020  -10.5350   20.0300 C   0  0  0  0  0  3  0  0  0  0  0  0
  -22.0630   -7.3210   21.2830 O   0  0  0  0  0  0  0  0  0  0  0  0
  -21.8790   -6.6580   22.4680 C   0  0  0  0  0  0  0  0  0  0  0  0
  -21.3520   -7.3040   23.6090 C   0  0  0  0  0  3  0  0  0  0  0  0
  -21.1110   -6.5680   24.7860 C   0  0  0  0  0  3  0  0  0  0  0  0
  -21.3870   -5.1870   24.8240 C   0  0  0  0  0  0  0  0  0  0  0  0
  -21.9060   -4.5430   23.6870 C   0  0  0  0  0  3  0  0  0  0  0  0
  -22.1490   -5.2760   22.5130 C   0  0  0  0  0  0  0  0  0  0  0  0
  -22.6300   -4.6440   21.4140 F   0  0  0  0  0  0  0  0  0  0  0  0
  -21.1480   -4.4790   25.9520 F   0  0  0  0  0  0  0  0  0  0  0  0
  -23.4150  -13.9090   20.9450 C   0  0  0  0  0  0  0  0  0  0  0  0
  -22.6650  -13.2570   21.8250 N   0  0  0  0  0  0  0  0  0  0  0  0
  -23.0140  -14.9410   20.4080 O   0  0  0  0  0  0  0  0  0  0  0  0
  -23.0050  -12.4210   22.2780 H   0  0  0  0  0  0  0  0  0  0  0  0
  -21.7420  -13.5980   22.0520 H   0  0  0  0  0  0  0  0  0  0  0  0
  -26.1010  -15.4650   20.1060 N   0  0  0  0  0  0  0  0  0  0  0  0
  -25.3440  -16.1380   20.1350 H   0  0  0  0  0  0  0  0  0  0  0  0
  -26.9780  -15.8620   19.7910 H   0  0  0  0  0  0  0  0  0  0  0  0
  -28.6810  -21.7490   19.9220 C   0  0  0  0  0  3  0  0  0  0  0  0
  -29.1460  -23.3630   20.0170 C   0  0  0  0  0  3  0  0  0  0  0  0
  -28.0770  -24.6540   19.9330 C   0  0  0  0  0  3  0  0  0  0  0  0
  -28.3380  -26.1710   20.1350 O   0  0  0  0  0  0  0  0  0  0  0  0
  -24.5330  -31.7200   23.1640 C   0  0  0  0  0  0  0  0  0  0  0  0
  -27.2570  -27.1240   20.0900 C   0  0  0  0  0  0  0  0  0  0  0  0
  -23.3900  -30.3300   21.4830 C   0  0  0  0  0  3  0  0  0  0  0  0
  -24.8900  -28.8100   20.0610 C   0  0  0  0  0  0  0  0  0  0  0  0
  -25.9420  -30.6470   21.3710 C   0  0  0  0  0  2  0  0  0  0  0  0
  -26.0520  -29.2710   20.6930 C   0  0  0  0  0  0  0  0  0  0  0  0
  -27.2370  -28.4450   20.6920 C   0  0  0  0  0  3  0  0  0  0  0  0
  -26.0630  -26.7600   19.4280 C   0  0  0  0  0  3  0  0  0  0  0  0
  -24.9070  -27.5650   19.4180 C   0  0  0  0  0  3  0  0  0  0  0  0
  -23.6470  -29.6810   20.0990 C   0  0  0  0  0  2  0  0  0  0  0  0
  -24.6400  -30.9210   22.0600 N   0  0  0  0  0  0  0  0  0  0  0  0
  -23.4320  -31.9770   23.6750 O   0  0  0  0  0  0  0  0  0  0  0  0
  -22.7120  -29.2940   22.4130 C   0  0  0  0  0  0  0  0  0  0  0  0
  -21.3900  -29.1040   22.2590 N   0  0  0  0  0  0  0  0  0  0  0  0
  -23.3800  -28.6640   23.2390 O   0  0  0  0  0  0  0  0  0  0  0  0
  -20.9090  -29.6640   21.5700 H   0  0  0  0  0  0  0  0  0  0  0  0
  -18.0140  -27.8670   22.7080 C   0  0  0  0  0  0  0  0  0  0  0  0
  -20.5680  -28.1430   23.0000 C   0  0  0  0  0  3  0  0  0  0  0  0
  -20.6850  -26.7270   22.3910 C   0  0  0  0  0  2  0  0  0  0  0  0
  -19.5930  -26.4210   21.3610 C   0  0  0  0  0  2  0  0  0  0  0  0
  -18.2050  -26.5380   21.9980 C   0  0  0  0  0  2  0  0  0  0  0  0
  -19.1230  -28.6280   23.1630 C   0  0  0  0  0  0  0  0  0  0  0  0
  -18.8890  -29.8720   23.7890 C   0  0  0  0  0  3  0  0  0  0  0  0
  -17.5790  -30.3580   23.9610 C   0  0  0  0  0  3  0  0  0  0  0  0
  -16.4840  -29.5950   23.5180 C   0  0  0  0  0  3  0  0  0  0  0  0
  -16.7020  -28.3510   22.9000 C   0  0  0  0  0  3  0  0  0  0  0  0
  -25.7870  -32.3670   23.8270 C   0  0  0  0  0  3  0  0  0  0  0  0
  -25.4540  -33.7620   24.1510 N   0  0  0  0  0  0  0  0  0  0  0  0
  -25.7970  -34.8220   23.4070 C   0  0  0  0  0  0  0  0  0  0  0  0
  -26.4980  -34.7290   22.3960 O   0  0  0  0  0  0  0  0  0  0  0  0
  -24.8350  -33.9090   24.9360 H   0  0  0  0  0  0  0  0  0  0  0  0
  -24.0620  -36.6010   23.0190 C   0  0  0  0  0  1  0  0  0  0  0  0
  -25.2880  -36.2060   23.8570 C   0  0  0  0  0  3  0  0  0  0  0  0
  -27.3920  -37.1120   24.7390 C   0  0  0  0  0  1  0  0  0  0  0  0
  -26.3130  -37.2690   23.7680 N   0  0  0  0  0  0  0  0  0  0  0  0
  -25.8940  -38.1850   23.9060 H   0  0  0  0  0  0  0  0  0  0  0  0
  -26.2690  -31.6010   25.1210 C   0  0  1  0  0  0  0  0  0  0  0  0
  -25.1450  -31.3480   26.1530 C   0  0  0  0  0  1  0  0  0  0  0  0
  -26.8830  -30.2300   24.7550 C   0  0  0  0  0  1  0  0  0  0  0  0
  -27.3890  -32.4100   25.8200 C   0  0  0  0  0  1  0  0  0  0  0  0
  1 46  2  0
  1  3  1  0
  3  4  2  0
  4  2  1  0
  5  2  2  0
  6  3  1  0
  6  5  1  0
  9  8  1  6
  9  7  1  0
  9 10  1  0
  9  6  1  0
 10 17  2  0
 10 16  1  0
 11 16  1  0
 12 13  1  0
 12 11  1  0
 14 13  1  0
 14 21  1  0
 14 15  1  0
 16 15  1  0
 18 19  2  0
 19 38  1  0
 20 19  1  0
 20 23  1  0
 21 18  1  0
 21 22  1  0
 22 20  2  0
 23 24  1  0
 24 25  2  0
 26 29  1  0
 26 25  1  0
 27 26  2  0
 28 27  1  0
 28 23  2  0
 29 30  1  0
 30 35  2  0
 30 31  1  0
 31 32  2  0
 32 33  1  0
 33 37  1  0
 34 33  2  0
 35 34  1  0
 36 35  1  0
 38 39  1  0
 39 42  1  0
 39 41  1  0
 40 38  2  0
 43 44  1  0
 43 18  1  0
 45 43  1  0
 46 47  1  0
 48 47  2  0
 48 49  1  0
 50 61  2  0
 51 49  1  0
 51 56  1  0
 52 60  1  0
 52 62  1  0
 53 59  1  0
 53 55  1  0
 54 60  1  0
 55 54  1  0
 56 55  2  0
 57 51  2  0
 58 57  1  0
 58 53  2  0
 59 52  1  0
 60 50  1  0
 62 64  2  0
 63 62  1  0
 65 63  1  0
 66 75  2  0
 66 71  1  0
 67 63  1  0
 67 71  1  0
 68 67  1  0
 69 70  1  0
 69 68  1  0
 70 66  1  0
 71 72  2  0
 72 73  1  0
 74 73  2  0
 75 74  1  0
 76 50  1  0
 76 77  1  0
 76 86  1  0
 77 80  1  0
 78 82  1  0
 78 77  1  0
 79 78  2  0
 82 81  1  0
 84 82  1  0
 84 85  1  0
 84 83  1  0
 86 89  1  1
 86 87  1  0
 88 86  1  0
M  ISO  4   9 100  10 100  48 101  49 101
M  END
>  <TORSDO>  (55) 
F 21

>  <SCORE>  (55) 
-12.388

>  <name>  (55) 
57

>  <ligand_id>  (55) 
57

>  <original_smiles>  (55) 
[H]c1nc(C([H])([H])C([H])([H])C([H])([H])C([H])([H])Oc2c([H])c([H])c3c(c2[H])C([H])([H])N(C(=O)C([H])(N([H])C(=O)C([H])(N([H])C([H])([H])[H])C([H])([H])[H])C(C([H])([H])[H])(C([H])([H])[H])C([H])([H])[H])C([H])(C(=O)N([H])C2([H])c4c([H])c([H])c([H])c([H])c4C([H])([H])C([H])([H])C2([H])[H])C3([H])[H])n(C(C(=O)N2C([H])([H])C([H])([H])C([H])([H])C([H])(n3nc(-c4c([H])c([H])c(Oc5c([H])c([H])c(F)c([H])c5F)c([H])c4[H])c(C(=O)N([H])[H])c3N([H])[H])C2([H])[H])(C([H])([H])[H])C([H])([H])[H])n1

>  <smiles>  (55) 
[H]c1nc(C([H])([H])C([H])([H])C([H])([H])C([H])([H])Oc2c([H])c([H])c3c(c2[H])C([H])([H])N(C(=O)C([H])(N([H])C(=O)C([H])(N([H])C([H])([H])[H])C([H])([H])[H])C(C([H])([H])[H])(C([H])([H])[H])C([H])([H])[H])C([H])(C(=O)N([H])C2([H])c4c([H])c([H])c([H])c([H])c4C([H])([H])C([H])([H])C2([H])[H])C3([H])[H])n(C(C(=O)N2C([H])([H])C([H])([H])C([H])([H])C([H])(n3nc(-c4c([H])c([H])c(Oc5c([H])c([H])c(F)c([H])c5F)c([H])c4[H])c(C(=O)N([H])[H])c3N([H])[H])C2([H])[H])(C([H])([H])[H])C([H])([H])[H])n1

$$$$
58:0:0
     RDKit          3D

 90 98  0  0  1  0  0  0  0  0999 V2000
  -30.0020  -20.6700   20.5300 C   0  0  0  0  0  3  0  0  0  0  0  0
  -29.5720  -19.3250   20.0680 C   0  0  0  0  0  0  0  0  0  0  0  0
  -29.1150  -21.7280   20.1780 C   0  0  0  0  0  0  0  0  0  0  0  0
  -26.9630  -21.4700   18.8490 C   0  0  0  0  0  1  0  0  0  0  0  0
  -28.4140  -19.5920   19.4480 N   0  0  0  0  0  0  0  0  0  0  0  0
  -28.1540  -20.9660   19.5050 N   0  0  0  0  0  0  0  0  0  0  0  0
  -30.3780  -23.8210   19.4300 C   0  0  0  0  0  1  0  0  0  0  0  0
  -29.6750  -23.6320   21.8010 C   0  0  0  0  0  1  0  0  0  0  0  0
  -29.2210  -23.3920   20.3510 C   0  0  2  0  0  0  0  0  0  0  0  0
  -28.0520  -24.6130   20.1020 C   0  0  0  0  0  2  0  0  0  0  0  0
  -28.2750  -26.1640   20.2930 O   0  0  0  0  0  0  0  0  0  0  0  0
  -24.6410  -31.8940   23.2680 C   0  0  0  0  0  0  0  0  0  0  0  0
  -27.2170  -27.1550   20.2340 C   0  0  0  0  0  0  0  0  0  0  0  0
  -23.4460  -30.5010   21.6240 C   0  0  0  0  0  3  0  0  0  0  0  0
  -24.8940  -28.9220   20.2000 C   0  0  0  0  0  0  0  0  0  0  0  0
  -26.0020  -30.7560   21.4690 C   0  0  0  0  0  2  0  0  0  0  0  0
  -26.0740  -29.3620   20.8120 C   0  0  0  0  0  0  0  0  0  0  0  0
  -27.2360  -28.4970   20.8050 C   0  0  0  0  0  3  0  0  0  0  0  0
  -26.0060  -26.8200   19.5890 C   0  0  0  0  0  3  0  0  0  0  0  0
  -24.8730  -27.6660   19.5740 C   0  0  0  0  0  3  0  0  0  0  0  0
  -23.6680  -29.8240   20.2470 C   0  0  0  0  0  2  0  0  0  0  0  0
  -24.7170  -31.0730   22.1750 N   0  0  0  0  0  0  0  0  0  0  0  0
  -23.5540  -32.1810   23.7930 O   0  0  0  0  0  0  0  0  0  0  0  0
  -22.7590  -29.4970   22.5840 C   0  0  0  0  0  0  0  0  0  0  0  0
  -21.4310  -29.3280   22.4530 N   0  0  0  0  0  0  0  0  0  0  0  0
  -23.4260  -28.8720   23.4130 O   0  0  0  0  0  0  0  0  0  0  0  0
  -20.9500  -29.8830   21.7590 H   0  0  0  0  0  0  0  0  0  0  0  0
  -18.0460  -28.1350   22.9490 C   0  0  0  0  0  0  0  0  0  0  0  0
  -20.6060  -28.3920   23.2200 C   0  0  0  0  0  3  0  0  0  0  0  0
  -20.7040  -26.9600   22.6440 C   0  0  0  0  0  2  0  0  0  0  0  0
  -19.6030  -26.6410   21.6270 C   0  0  0  0  0  2  0  0  0  0  0  0
  -18.2200  -26.7880   22.2700 C   0  0  0  0  0  2  0  0  0  0  0  0
  -19.1650  -28.8960   23.3810 C   0  0  0  0  0  0  0  0  0  0  0  0
  -18.9450  -30.1560   23.9790 C   0  0  0  0  0  3  0  0  0  0  0  0
  -17.6410  -30.6560   24.1470 C   0  0  0  0  0  3  0  0  0  0  0  0
  -16.5360  -29.8930   23.7290 C   0  0  0  0  0  3  0  0  0  0  0  0
  -16.7400  -28.6350   23.1350 C   0  0  0  0  0  3  0  0  0  0  0  0
  -25.9170  -32.5280   23.9000 C   0  0  0  0  0  3  0  0  0  0  0  0
  -26.4140  -31.7640   25.1900 C   0  0  1  0  0  0  0  0  0  0  0  0
  -25.3080  -31.5380   26.2470 C   0  0  0  0  0  1  0  0  0  0  0  0
  -26.9960  -30.3800   24.8190 C   0  0  0  0  0  1  0  0  0  0  0  0
  -27.5610  -32.5580   25.8590 C   0  0  0  0  0  1  0  0  0  0  0  0
  -25.6080  -33.9300   24.2270 N   0  0  0  0  0  0  0  0  0  0  0  0
  -25.9250  -34.9820   23.4600 C   0  0  0  0  0  0  0  0  0  0  0  0
  -26.5730  -34.8740   22.4160 O   0  0  0  0  0  0  0  0  0  0  0  0
  -25.0290  -34.0860   25.0380 H   0  0  0  0  0  0  0  0  0  0  0  0
  -24.1750  -36.7650   23.1570 C   0  0  0  0  0  1  0  0  0  0  0  0
  -25.4480  -36.3730   23.9230 C   0  0  0  0  0  3  0  0  0  0  0  0
  -27.6050  -37.2840   24.6660 C   0  0  0  0  0  1  0  0  0  0  0  0
  -26.4700  -37.4310   23.7590 N   0  0  0  0  0  0  0  0  0  0  0  0
  -26.0640  -38.3510   23.9060 H   0  0  0  0  0  0  0  0  0  0  0  0
  -30.3640  -17.8420   20.0020 C   0  0  0  0  0  2  0  0  0  0  0  0
  -30.5910  -15.1060   20.0170 C   0  0  0  0  0  0  0  0  0  0  0  0
  -30.4030  -12.7930   18.9390 C   0  0  0  0  0  2  0  0  0  0  0  0
  -29.3820  -12.7800   17.7740 C   0  0  0  0  0  2  0  0  0  0  0  0
  -27.9490  -12.5440   18.2910 C   0  0  0  0  0  2  0  0  0  0  0  0
  -27.6320  -13.3910   19.5510 C   0  0  0  0  0  3  0  0  0  0  0  0
  -28.7710  -13.3110   20.5890 C   0  0  0  0  0  2  0  0  0  0  0  0
  -29.9750  -13.8390   19.9260 N   0  0  0  0  0  0  0  0  0  0  0  0
  -31.7510  -15.1480   19.5850 O   0  0  0  0  0  0  0  0  0  0  0  0
  -28.9070  -16.3680   21.3960 C   0  0  0  0  0  1  0  0  0  0  0  0
  -29.9000  -16.3470   20.3230 N   0  0  0  0  0  0  0  0  0  0  0  0
  -25.2970  -13.9250   20.4500 C   0  0  0  0  0  0  0  0  0  0  0  0
  -24.2660  -13.1330   20.8680 C   0  0  0  0  0  0  0  0  0  0  0  0
  -24.7350  -11.7880   20.7650 C   0  0  0  0  0  0  0  0  0  0  0  0
  -26.3300  -13.0630   20.1210 N   0  0  0  0  0  0  0  0  0  0  0  0
  -26.0060  -11.7690   20.3750 N   0  0  0  0  0  0  0  0  0  0  0  0
  -24.0260  -10.5160   20.9600 C   0  0  0  0  0  0  0  0  0  0  0  0
  -24.4830   -9.5480   21.8800 C   0  0  0  0  0  3  0  0  0  0  0  0
  -23.7700   -8.3420   22.0620 C   0  0  0  0  0  3  0  0  0  0  0  0
  -22.5870   -8.0990   21.3260 C   0  0  0  0  0  0  0  0  0  0  0  0
  -22.1490   -9.0570   20.3950 C   0  0  0  0  0  3  0  0  0  0  0  0
  -22.8610  -10.2540   20.2100 C   0  0  0  0  0  3  0  0  0  0  0  0
  -21.8440   -6.9470   21.4200 O   0  0  0  0  0  0  0  0  0  0  0  0
  -21.7700   -6.2310   22.5890 C   0  0  0  0  0  0  0  0  0  0  0  0
  -21.2940   -6.8070   23.7880 C   0  0  0  0  0  3  0  0  0  0  0  0
  -21.1700   -6.0170   24.9480 C   0  0  0  0  0  3  0  0  0  0  0  0
  -21.5130   -4.6510   24.9110 C   0  0  0  0  0  0  0  0  0  0  0  0
  -21.9810   -4.0740   23.7170 C   0  0  0  0  0  3  0  0  0  0  0  0
  -22.1070   -4.8630   22.5590 C   0  0  0  0  0  0  0  0  0  0  0  0
  -22.5400   -4.2970   21.4060 F   0  0  0  0  0  0  0  0  0  0  0  0
  -21.3870   -3.8900   26.0220 F   0  0  0  0  0  0  0  0  0  0  0  0
  -22.8870  -13.5960   21.2410 C   0  0  0  0  0  0  0  0  0  0  0  0
  -22.2180  -12.8750   22.1320 N   0  0  0  0  0  0  0  0  0  0  0  0
  -22.4130  -14.6320   20.7760 O   0  0  0  0  0  0  0  0  0  0  0  0
  -22.6130  -12.0350   22.5300 H   0  0  0  0  0  0  0  0  0  0  0  0
  -21.2950  -13.1660   22.4220 H   0  0  0  0  0  0  0  0  0  0  0  0
  -25.4300  -15.3000   20.2960 N   0  0  0  0  0  0  0  0  0  0  0  0
  -24.6630  -15.9390   20.4740 H   0  0  0  0  0  0  0  0  0  0  0  0
  -26.2440  -15.7580   19.9030 H   0  0  0  0  0  0  0  0  0  0  0  0
  2  1  1  0
  3  9  1  0
  3  1  2  0
  4  6  1  0
  5  6  1  0
  5  2  2  0
  6  3  1  0
  9  7  1  6
  9  8  1  0
 10 11  1  0
 10  9  1  0
 12 23  2  0
 13 11  1  0
 13 18  1  0
 14 22  1  0
 14 24  1  0
 15 21  1  0
 15 17  1  0
 16 22  1  0
 17 16  1  0
 18 17  2  0
 19 13  2  0
 20 19  1  0
 20 15  2  0
 21 14  1  0
 22 12  1  0
 24 26  2  0
 25 24  1  0
 27 25  1  0
 28 37  2  0
 28 33  1  0
 29 25  1  0
 29 33  1  0
 30 29  1  0
 31 32  1  0
 31 30  1  0
 32 28  1  0
 33 34  2  0
 34 35  1  0
 36 35  2  0
 37 36  1  0
 38 12  1  0
 38 43  1  0
 38 39  1  0
 39 42  1  1
 39 40  1  0
 41 39  1  0
 43 46  1  0
 44 48  1  0
 44 43  1  0
 45 44  2  0
 48 47  1  0
 50 51  1  0
 50 48  1  0
 50 49  1  0
 52  2  1  0
 52 62  1  0
 53 62  1  0
 54 59  1  0
 55 56  1  0
 55 54  1  0
 57 56  1  0
 57 66  1  0
 57 58  1  0
 59 53  1  0
 59 58  1  0
 60 53  2  0
 62 61  1  0
 63 64  2  0
 64 83  1  0
 65 64  1  0
 65 68  1  0
 66 67  1  0
 66 63  1  0
 67 65  2  0
 68 69  1  0
 69 70  2  0
 71 74  1  0
 71 70  1  0
 72 71  2  0
 73 72  1  0
 73 68  2  0
 74 75  1  0
 75 76  1  0
 76 77  2  0
 78 77  1  0
 78 82  1  0
 79 78  2  0
 80 75  2  0
 80 79  1  0
 81 80  1  0
 83 84  1  0
 84 87  1  0
 84 86  1  0
 85 83  2  0
 88 63  1  0
 88 89  1  0
 90 88  1  0
M  ISO  4  10 101  11 101  53 100  62 100
M  END
>  <TORSDO>  (56) 
F 19

>  <SCORE>  (56) 
-14.478

>  <name>  (56) 
58

>  <ligand_id>  (56) 
58

>  <original_smiles>  (56) 
[H]c1c([H])c([H])c2c(c1[H])C([H])([H])C([H])([H])C([H])([H])C2([H])N([H])C(=O)C1([H])N(C(=O)C([H])(N([H])C(=O)C([H])(N([H])C([H])([H])[H])C([H])([H])[H])C(C([H])([H])[H])(C([H])([H])[H])C([H])([H])[H])C([H])([H])c2c([H])c(OC([H])([H])C(c3c([H])c(C([H])([H])N(C(=O)N4C([H])([H])C([H])([H])C([H])([H])C([H])(n5nc(-c6c([H])c([H])c(Oc7c([H])c([H])c(F)c([H])c7F)c([H])c6[H])c(C(=O)N([H])[H])c5N([H])[H])C4([H])[H])C([H])([H])[H])nn3C([H])([H])[H])(C([H])([H])[H])C([H])([H])[H])c([H])c([H])c2C1([H])[H]

>  <smiles>  (56) 
[H]c1c([H])c([H])c2c(c1[H])C([H])([H])C([H])([H])C([H])([H])C2([H])N([H])C(=O)C1([H])N(C(=O)C([H])(N([H])C(=O)C([H])(N([H])C([H])([H])[H])C([H])([H])[H])C(C([H])([H])[H])(C([H])([H])[H])C([H])([H])[H])C([H])([H])c2c([H])c(OC([H])([H])C(c3c([H])c(C([H])([H])N(C(=O)N4C([H])([H])C([H])([H])C([H])([H])C([H])(n5nc(-c6c([H])c([H])c(Oc7c([H])c([H])c(F)c([H])c7F)c([H])c6[H])c(C(=O)N([H])[H])c5N([H])[H])C4([H])[H])C([H])([H])[H])nn3C([H])([H])[H])(C([H])([H])[H])C([H])([H])[H])c([H])c([H])c2C1([H])[H]

$$$$
59:0:0
     RDKit          3D

 88 96  0  0  1  0  0  0  0  0999 V2000
  -30.4480  -23.5910   19.7390 C   0  0  0  0  0  1  0  0  0  0  0  0
  -29.1260  -23.2440   20.4430 C   0  0  0  0  0  3  0  0  0  0  0  0
  -27.8180  -20.8390   20.3280 C   0  0  0  0  0  2  0  0  0  0  0  0
  -29.3880  -19.3480   20.3700 C   0  0  0  0  0  0  0  0  0  0  0  0
  -28.0160  -19.4830   20.3400 N   0  0  0  0  0  0  0  0  0  0  0  0
  -29.9460  -20.6270   20.3740 N   0  0  0  0  0  2  0  0  0  0  0  0
  -28.9100  -21.6330   20.3170 N   0  0  0  0  0  0  0  0  0  0  0  0
  -30.2420  -17.9050   20.3800 C   0  0  0  0  0  2  0  0  0  0  0  0
  -30.5340  -15.1360   20.3330 C   0  0  0  0  0  0  0  0  0  0  0  0
  -30.4390  -12.7610   19.3950 C   0  0  0  0  0  2  0  0  0  0  0  0
  -29.5130  -12.6690   18.1590 C   0  0  0  0  0  2  0  0  0  0  0  0
  -28.0550  -12.4300   18.5930 C   0  0  0  0  0  2  0  0  0  0  0  0
  -27.6290  -13.3560   19.7630 C   0  0  0  0  0  3  0  0  0  0  0  0
  -28.6820  -13.4170   20.8890 C   0  0  0  0  0  2  0  0  0  0  0  0
  -29.9360  -13.8670   20.2710 N   0  0  0  0  0  0  0  0  0  0  0  0
  -31.7430  -15.1650   20.0750 O   0  0  0  0  0  0  0  0  0  0  0  0
  -29.7920  -16.3640   20.4740 N   0  0  0  0  0  0  0  0  0  0  0  0
  -28.8040  -16.2460   20.6370 H   0  0  0  0  0  0  0  0  0  0  0  0
  -25.2450  -13.9010   20.5010 C   0  0  0  0  0  0  0  0  0  0  0  0
  -24.1890  -13.1150   20.8730 C   0  0  0  0  0  0  0  0  0  0  0  0
  -24.6710  -11.7690   20.8490 C   0  0  0  0  0  0  0  0  0  0  0  0
  -26.2980  -13.0360   20.2650 N   0  0  0  0  0  0  0  0  0  0  0  0
  -25.9640  -11.7490   20.5430 N   0  0  0  0  0  0  0  0  0  0  0  0
  -23.9570  -10.5000   21.0410 C   0  0  0  0  0  0  0  0  0  0  0  0
  -24.3840   -9.5480   21.9930 C   0  0  0  0  0  3  0  0  0  0  0  0
  -23.6680   -8.3440   22.1730 C   0  0  0  0  0  3  0  0  0  0  0  0
  -22.5110   -8.0850   21.4010 C   0  0  0  0  0  0  0  0  0  0  0  0
  -22.1040   -9.0260   20.4390 C   0  0  0  0  0  3  0  0  0  0  0  0
  -22.8210  -10.2200   20.2570 C   0  0  0  0  0  3  0  0  0  0  0  0
  -21.7660   -6.9340   21.4900 O   0  0  0  0  0  0  0  0  0  0  0  0
  -21.6910   -6.2130   22.6550 C   0  0  0  0  0  0  0  0  0  0  0  0
  -21.1900   -6.7760   23.8490 C   0  0  0  0  0  3  0  0  0  0  0  0
  -21.0650   -5.9800   25.0040 C   0  0  0  0  0  3  0  0  0  0  0  0
  -21.4320   -4.6220   24.9680 C   0  0  0  0  0  0  0  0  0  0  0  0
  -21.9270   -4.0570   23.7780 C   0  0  0  0  0  3  0  0  0  0  0  0
  -22.0530   -4.8510   22.6250 C   0  0  0  0  0  0  0  0  0  0  0  0
  -22.5100   -4.2970   21.4760 F   0  0  0  0  0  0  0  0  0  0  0  0
  -21.3060   -3.8540   26.0750 F   0  0  0  0  0  0  0  0  0  0  0  0
  -22.7860  -13.5770   21.1320 C   0  0  0  0  0  0  0  0  0  0  0  0
  -22.0620  -12.8820   22.0030 N   0  0  0  0  0  0  0  0  0  0  0  0
  -22.3390  -14.5920   20.5990 O   0  0  0  0  0  0  0  0  0  0  0  0
  -22.4380  -12.0640   22.4580 H   0  0  0  0  0  0  0  0  0  0  0  0
  -21.1200  -13.1760   22.2200 H   0  0  0  0  0  0  0  0  0  0  0  0
  -25.3890  -15.2740   20.3160 N   0  0  0  0  0  0  0  0  0  0  0  0
  -24.6090  -15.9130   20.4160 H   0  0  0  0  0  0  0  0  0  0  0  0
  -26.2210  -15.7220   19.9540 H   0  0  0  0  0  0  0  0  0  0  0  0
  -28.0370  -24.5410   20.0930 C   0  0  0  0  0  2  0  0  0  0  0  0
  -28.2540  -26.1080   20.3010 O   0  0  0  0  0  0  0  0  0  0  0  0
  -24.6230  -31.8760   23.2660 C   0  0  0  0  0  0  0  0  0  0  0  0
  -27.2060  -27.1230   20.2290 C   0  0  0  0  0  0  0  0  0  0  0  0
  -23.4280  -30.4820   21.6220 C   0  0  0  0  0  3  0  0  0  0  0  0
  -24.8810  -28.9060   20.1910 C   0  0  0  0  0  0  0  0  0  0  0  0
  -25.9850  -30.7380   21.4640 C   0  0  0  0  0  2  0  0  0  0  0  0
  -26.0610  -29.3430   20.8060 C   0  0  0  0  0  0  0  0  0  0  0  0
  -27.2220  -28.4690   20.8020 C   0  0  0  0  0  3  0  0  0  0  0  0
  -25.9970  -26.8040   19.5740 C   0  0  0  0  0  3  0  0  0  0  0  0
  -24.8660  -27.6530   19.5570 C   0  0  0  0  0  3  0  0  0  0  0  0
  -23.6540  -29.8080   20.2420 C   0  0  0  0  0  2  0  0  0  0  0  0
  -24.6990  -31.0560   22.1720 N   0  0  0  0  0  0  0  0  0  0  0  0
  -23.5350  -32.1580   23.7930 O   0  0  0  0  0  0  0  0  0  0  0  0
  -22.7460  -29.4760   22.5830 C   0  0  0  0  0  0  0  0  0  0  0  0
  -21.4190  -29.2960   22.4490 N   0  0  0  0  0  0  0  0  0  0  0  0
  -23.4160  -28.8560   23.4140 O   0  0  0  0  0  0  0  0  0  0  0  0
  -20.9340  -29.8470   21.7550 H   0  0  0  0  0  0  0  0  0  0  0  0
  -18.0460  -28.0600   22.9300 C   0  0  0  0  0  0  0  0  0  0  0  0
  -20.6010  -28.3530   23.2170 C   0  0  0  0  0  3  0  0  0  0  0  0
  -20.7220  -26.9200   22.6470 C   0  0  0  0  0  2  0  0  0  0  0  0
  -19.6320  -26.5820   21.6250 C   0  0  0  0  0  2  0  0  0  0  0  0
  -18.2440  -26.7130   22.2570 C   0  0  0  0  0  2  0  0  0  0  0  0
  -19.1530  -28.8380   23.3660 C   0  0  0  0  0  0  0  0  0  0  0  0
  -18.9130  -30.0970   23.9570 C   0  0  0  0  0  3  0  0  0  0  0  0
  -17.6010  -30.5800   24.1150 C   0  0  0  0  0  3  0  0  0  0  0  0
  -16.5090  -29.8020   23.6940 C   0  0  0  0  0  3  0  0  0  0  0  0
  -16.7330  -28.5430   23.1080 C   0  0  0  0  0  3  0  0  0  0  0  0
  -25.8960  -32.5160   23.8980 C   0  0  0  0  0  3  0  0  0  0  0  0
  -26.4030  -31.7490   25.1820 C   0  0  1  0  0  0  0  0  0  0  0  0
  -25.3010  -31.5130   26.2430 C   0  0  0  0  0  1  0  0  0  0  0  0
  -26.9910  -30.3690   24.8050 C   0  0  0  0  0  1  0  0  0  0  0  0
  -27.5470  -32.5470   25.8510 C   0  0  0  0  0  1  0  0  0  0  0  0
  -25.5790  -33.9140   24.2310 N   0  0  0  0  0  0  0  0  0  0  0  0
  -25.8770  -34.9710   23.4650 C   0  0  0  0  0  0  0  0  0  0  0  0
  -26.5110  -34.8730   22.4110 O   0  0  0  0  0  0  0  0  0  0  0  0
  -25.0100  -34.0630   25.0520 H   0  0  0  0  0  0  0  0  0  0  0  0
  -24.1070  -36.7420   23.1950 C   0  0  0  0  0  1  0  0  0  0  0  0
  -25.3960  -36.3570   23.9390 C   0  0  0  0  0  3  0  0  0  0  0  0
  -27.5550  -37.2860   24.6530 C   0  0  0  0  0  1  0  0  0  0  0  0
  -26.4050  -37.4250   23.7630 N   0  0  0  0  0  0  0  0  0  0  0  0
  -25.9930  -38.3410   23.9180 H   0  0  0  0  0  0  0  0  0  0  0  0
  2  1  1  0
  3  5  1  0
  4  6  1  0
  4  8  1  0
  5  4  2  0
  7  3  1  0
  7  6  1  0
  7  2  1  0
  8 17  1  0
  9 17  1  0
 10 15  1  0
 11 12  1  0
 11 10  1  0
 13 12  1  0
 13 22  1  0
 13 14  1  0
 15  9  1  0
 15 14  1  0
 16  9  2  0
 17 18  1  0
 19 20  2  0
 20 39  1  0
 21 20  1  0
 21 24  1  0
 22 19  1  0
 22 23  1  0
 23 21  2  0
 24 25  1  0
 25 26  2  0
 27 30  1  0
 27 26  1  0
 28 27  2  0
 29 28  1  0
 29 24  2  0
 30 31  1  0
 31 32  1  0
 32 33  2  0
 34 33  1  0
 34 38  1  0
 35 34  2  0
 36 31  2  0
 36 35  1  0
 37 36  1  0
 39 40  1  0
 40 43  1  0
 40 42  1  0
 41 39  2  0
 44 45  1  0
 44 19  1  0
 46 44  1  0
 47 48  1  0
 47  2  1  0
 49 60  2  0
 50 48  1  0
 50 55  1  0
 51 59  1  0
 51 61  1  0
 52 58  1  0
 52 54  1  0
 53 59  1  0
 54 53  1  0
 55 54  2  0
 56 50  2  0
 57 56  1  0
 57 52  2  0
 58 51  1  0
 59 49  1  0
 61 63  2  0
 62 61  1  0
 64 62  1  0
 65 74  2  0
 65 70  1  0
 66 62  1  0
 66 70  1  0
 67 66  1  0
 68 69  1  0
 68 67  1  0
 69 65  1  0
 70 71  2  0
 71 72  1  0
 73 72  2  0
 74 73  1  0
 75 49  1  0
 75 80  1  0
 75 76  1  0
 76 79  1  1
 76 77  1  0
 78 76  1  0
 80 83  1  0
 81 85  1  0
 81 80  1  0
 82 81  2  0
 85 84  1  0
 87 88  1  0
 87 85  1  0
 87 86  1  0
M  ISO  4   9 100  17 100  47 101  48 101
M  END
>  <TORSDO>  (57) 
F 19

>  <SCORE>  (57) 
-14.617

>  <name>  (57) 
59

>  <ligand_id>  (57) 
59

>  <original_smiles>  (57) 
[H]c1c([H])c([H])c2c(c1[H])C([H])([H])C([H])([H])C([H])([H])C2([H])N([H])C(=O)C1([H])N(C(=O)C([H])(N([H])C(=O)C([H])(N([H])C([H])([H])[H])C([H])([H])[H])C(C([H])([H])[H])(C([H])([H])[H])C([H])([H])[H])C([H])([H])c2c([H])c(OC([H])([H])C([H])(n3nc(C([H])([H])N([H])C(=O)N4C([H])([H])C([H])([H])C([H])([H])C([H])(n5nc(-c6c([H])c([H])c(Oc7c([H])c([H])c(F)c([H])c7F)c([H])c6[H])c(C(=O)N([H])[H])c5N([H])[H])C4([H])[H])nc3[H])C([H])([H])[H])c([H])c([H])c2C1([H])[H]

>  <smiles>  (57) 
[H]c1c([H])c([H])c2c(c1[H])C([H])([H])C([H])([H])C([H])([H])C2([H])N([H])C(=O)C1([H])N(C(=O)C([H])(N([H])C(=O)C([H])(N([H])C([H])([H])[H])C([H])([H])[H])C(C([H])([H])[H])(C([H])([H])[H])C([H])([H])[H])C([H])([H])c2c([H])c(OC([H])([H])C([H])(n3nc(C([H])([H])N([H])C(=O)N4C([H])([H])C([H])([H])C([H])([H])C([H])(n5nc(-c6c([H])c([H])c(Oc7c([H])c([H])c(F)c([H])c7F)c([H])c6[H])c(C(=O)N([H])[H])c5N([H])[H])C4([H])[H])nc3[H])C([H])([H])[H])c([H])c([H])c2C1([H])[H]

$$$$
60:0:0
     RDKit          3D

 94102  0  0  1  0  0  0  0  0999 V2000
  -30.0930  -18.9430   20.4960 C   0  0  0  0  0  0  0  0  0  0  0  0
  -30.2240  -19.6010   19.2250 C   0  0  0  0  0  0  0  0  0  0  0  0
  -29.6000  -19.8720   21.3280 N   0  0  0  0  0  0  0  0  0  0  0  0
  -29.8320  -20.8720   19.2980 N   0  0  0  0  0  0  0  0  0  0  0  0
  -29.4640  -21.0540   20.5910 N   0  0  0  0  0  0  0  0  0  0  0  0
  -30.8180  -19.0230   17.9600 C   0  0  1  0  0  0  0  0  0  0  0  0
  -30.2640  -19.5580   16.8690 F   0  0  0  0  0  0  0  0  0  0  0  0
  -32.1300  -19.2580   17.8980 F   0  0  0  0  0  0  0  0  0  0  0  0
  -30.6400  -17.7030   17.8850 F   0  0  0  0  0  0  0  0  0  0  0  0
  -30.5860  -17.4800   20.9290 C   0  0  0  0  0  2  0  0  0  0  0  0
  -30.6030  -14.9210   20.3070 C   0  0  0  0  0  0  0  0  0  0  0  0
  -30.3860  -12.6470   19.2480 C   0  0  0  0  0  2  0  0  0  0  0  0
  -29.4190  -12.6570   18.0440 C   0  0  0  0  0  2  0  0  0  0  0  0
  -27.9690  -12.4090   18.5070 C   0  0  0  0  0  2  0  0  0  0  0  0
  -27.5820  -13.2890   19.7170 C   0  0  0  0  0  3  0  0  0  0  0  0
  -28.6750  -13.2740   20.8210 C   0  0  0  0  0  2  0  0  0  0  0  0
  -29.9330  -13.7070   20.1870 N   0  0  0  0  0  0  0  0  0  0  0  0
  -31.8180  -14.9260   20.0870 O   0  0  0  0  0  0  0  0  0  0  0  0
  -28.5490  -16.3760   20.0970 C   0  0  0  0  0  1  0  0  0  0  0  0
  -29.9330  -16.1540   20.5050 N   0  0  0  0  0  0  0  0  0  0  0  0
  -25.2030  -13.8800   20.4700 C   0  0  0  0  0  0  0  0  0  0  0  0
  -24.1510  -13.0960   20.8500 C   0  0  0  0  0  0  0  0  0  0  0  0
  -24.6300  -11.7520   20.8180 C   0  0  0  0  0  0  0  0  0  0  0  0
  -26.2540  -13.0060   20.2310 N   0  0  0  0  0  0  0  0  0  0  0  0
  -25.9170  -11.7230   20.5040 N   0  0  0  0  0  0  0  0  0  0  0  0
  -23.9200  -10.4820   21.0070 C   0  0  0  0  0  0  0  0  0  0  0  0
  -24.3570   -9.5280   21.9510 C   0  0  0  0  0  3  0  0  0  0  0  0
  -23.6470   -8.3220   22.1260 C   0  0  0  0  0  3  0  0  0  0  0  0
  -22.4890   -8.0650   21.3560 C   0  0  0  0  0  0  0  0  0  0  0  0
  -22.0730   -9.0070   20.4000 C   0  0  0  0  0  3  0  0  0  0  0  0
  -22.7830  -10.2040   20.2230 C   0  0  0  0  0  3  0  0  0  0  0  0
  -21.7550   -6.9080   21.4400 O   0  0  0  0  0  0  0  0  0  0  0  0
  -21.6870   -6.1850   22.6030 C   0  0  0  0  0  0  0  0  0  0  0  0
  -21.1930   -6.7450   23.8010 C   0  0  0  0  0  3  0  0  0  0  0  0
  -21.0750   -5.9470   24.9560 C   0  0  0  0  0  3  0  0  0  0  0  0
  -21.4440   -4.5900   24.9150 C   0  0  0  0  0  0  0  0  0  0  0  0
  -21.9360   -4.0280   23.7240 C   0  0  0  0  0  3  0  0  0  0  0  0
  -22.0530   -4.8240   22.5700 C   0  0  0  0  0  0  0  0  0  0  0  0
  -22.5070   -4.2760   21.4180 F   0  0  0  0  0  0  0  0  0  0  0  0
  -21.3240   -3.8210   26.0230 F   0  0  0  0  0  0  0  0  0  0  0  0
  -22.7520  -13.5580   21.1310 C   0  0  0  0  0  0  0  0  0  0  0  0
  -22.0350  -12.8450   21.9930 N   0  0  0  0  0  0  0  0  0  0  0  0
  -22.3020  -14.5820   20.6180 O   0  0  0  0  0  0  0  0  0  0  0  0
  -22.4160  -12.0180   22.4270 H   0  0  0  0  0  0  0  0  0  0  0  0
  -21.0950  -13.1290   22.2310 H   0  0  0  0  0  0  0  0  0  0  0  0
  -25.3290  -15.2550   20.2860 N   0  0  0  0  0  0  0  0  0  0  0  0
  -24.5370  -15.8750   20.4180 H   0  0  0  0  0  0  0  0  0  0  0  0
  -26.1510  -15.7320   19.9410 H   0  0  0  0  0  0  0  0  0  0  0  0
  -28.8910  -22.3610   21.1500 C   0  0  0  0  0  3  0  0  0  0  0  0
  -28.9740  -23.7960   20.3690 C   0  0  0  0  0  3  0  0  0  0  0  0
  -29.3590  -25.5700   22.2110 C   0  0  0  0  0  1  0  0  0  0  0  0
  -27.0340  -24.8550   21.7000 C   0  0  0  0  0  1  0  0  0  0  0  0
  -28.4100  -25.1720   21.0670 C   0  0  2  0  0  0  0  0  0  0  0  0
  -28.4010  -26.4580   20.2660 O   0  0  0  0  0  0  0  0  0  0  0  0
  -24.5760  -31.8960   23.2250 C   0  0  0  0  0  0  0  0  0  0  0  0
  -27.2930  -27.3390   20.2450 C   0  0  0  0  0  0  0  0  0  0  0  0
  -23.4230  -30.4870   21.5570 C   0  0  0  0  0  3  0  0  0  0  0  0
  -24.9240  -28.9550   20.1570 C   0  0  0  0  0  0  0  0  0  0  0  0
  -25.9650  -30.8280   21.4310 C   0  0  0  0  0  2  0  0  0  0  0  0
  -26.0750  -29.4500   20.7830 C   0  0  0  0  0  0  0  0  0  0  0  0
  -27.2670  -28.6580   20.8120 C   0  0  0  0  0  3  0  0  0  0  0  0
  -26.1260  -26.9150   19.5790 C   0  0  0  0  0  3  0  0  0  0  0  0
  -24.9540  -27.6940   19.5390 C   0  0  0  0  0  3  0  0  0  0  0  0
  -23.6780  -29.8190   20.1790 C   0  0  0  0  0  2  0  0  0  0  0  0
  -24.6700  -31.0900   22.1270 N   0  0  0  0  0  0  0  0  0  0  0  0
  -23.4790  -32.1630   23.7380 O   0  0  0  0  0  0  0  0  0  0  0  0
  -22.7480  -29.4650   22.5020 C   0  0  0  0  0  0  0  0  0  0  0  0
  -21.4220  -29.2940   22.3650 N   0  0  0  0  0  0  0  0  0  0  0  0
  -23.4140  -28.8260   23.3210 O   0  0  0  0  0  0  0  0  0  0  0  0
  -20.9390  -29.8630   21.6820 H   0  0  0  0  0  0  0  0  0  0  0  0
  -18.0290  -28.1210   22.8380 C   0  0  0  0  0  0  0  0  0  0  0  0
  -20.5900  -28.3510   23.1160 C   0  0  0  0  0  3  0  0  0  0  0  0
  -20.6780  -26.9290   22.5120 C   0  0  0  0  0  2  0  0  0  0  0  0
  -19.5730  -26.6380   21.4910 C   0  0  0  0  0  2  0  0  0  0  0  0
  -18.1930  -26.7820   22.1370 C   0  0  0  0  0  2  0  0  0  0  0  0
  -19.1540  -28.8650   23.2820 C   0  0  0  0  0  0  0  0  0  0  0  0
  -18.9430  -30.1180   23.8970 C   0  0  0  0  0  3  0  0  0  0  0  0
  -17.6430  -30.6230   24.0790 C   0  0  0  0  0  3  0  0  0  0  0  0
  -16.5320  -29.8750   23.6520 C   0  0  0  0  0  3  0  0  0  0  0  0
  -16.7260  -28.6260   23.0340 C   0  0  0  0  0  3  0  0  0  0  0  0
  -25.8400  -32.5390   23.8740 C   0  0  0  0  0  3  0  0  0  0  0  0
  -25.5180  -33.9410   24.1810 N   0  0  0  0  0  0  0  0  0  0  0  0
  -25.8720  -34.9870   23.4220 C   0  0  0  0  0  0  0  0  0  0  0  0
  -26.5680  -34.8740   22.4100 O   0  0  0  0  0  0  0  0  0  0  0  0
  -24.9010  -34.1030   24.9620 H   0  0  0  0  0  0  0  0  0  0  0  0
  -24.1590  -36.7850   23.0070 C   0  0  0  0  0  1  0  0  0  0  0  0
  -25.3730  -36.3790   23.8570 C   0  0  0  0  0  3  0  0  0  0  0  0
  -27.4750  -37.2740   24.7540 C   0  0  0  0  0  1  0  0  0  0  0  0
  -26.4080  -37.4310   23.7700 N   0  0  0  0  0  0  0  0  0  0  0  0
  -25.9950  -38.3500   23.8930 H   0  0  0  0  0  0  0  0  0  0  0  0
  -26.3220  -31.7830   25.1740 C   0  0  1  0  0  0  0  0  0  0  0  0
  -25.1970  -31.5560   26.2120 C   0  0  0  0  0  1  0  0  0  0  0  0
  -26.9170  -30.4000   24.8210 C   0  0  0  0  0  1  0  0  0  0  0  0
  -27.4490  -32.5920   25.8580 C   0  0  0  0  0  1  0  0  0  0  0  0
  1 10  1  0
  1  3  2  0
  2  4  2  0
  2  1  1  0
  4  5  1  0
  5 49  1  0
  5  3  1  0
  6  2  1  0
  6  7  1  6
  8  6  1  0
  9  6  1  0
 11 20  1  0
 12 17  1  0
 13 14  1  0
 13 12  1  0
 15 14  1  0
 15 24  1  0
 15 16  1  0
 17 11  1  0
 17 16  1  0
 18 11  2  0
 19 20  1  0
 20 10  1  0
 21 22  2  0
 22 41  1  0
 23 22  1  0
 23 26  1  0
 24 21  1  0
 24 25  1  0
 25 23  2  0
 26 27  1  0
 27 28  2  0
 29 32  1  0
 29 28  1  0
 30 29  2  0
 31 30  1  0
 31 26  2  0
 32 33  1  0
 33 34  1  0
 34 35  2  0
 36 35  1  0
 36 40  1  0
 37 36  2  0
 38 33  2  0
 38 37  1  0
 39 38  1  0
 41 42  1  0
 42 45  1  0
 42 44  1  0
 43 41  2  0
 46 47  1  0
 46 21  1  0
 48 46  1  0
 50 53  1  0
 50 49  2  0
 53 52  1  1
 53 51  1  0
 54 53  1  0
 55 66  2  0
 56 54  1  0
 56 61  1  0
 57 65  1  0
 57 67  1  0
 58 64  1  0
 58 60  1  0
 59 65  1  0
 60 61  2  0
 60 59  1  0
 62 56  2  0
 63 62  1  0
 63 58  2  0
 64 57  1  0
 65 55  1  0
 67 69  2  0
 68 67  1  0
 70 68  1  0
 71 80  2  0
 71 76  1  0
 72 68  1  0
 72 76  1  0
 73 72  1  0
 74 75  1  0
 74 73  1  0
 75 71  1  0
 76 77  2  0
 77 78  1  0
 79 78  2  0
 80 79  1  0
 81 55  1  0
 81 82  1  0
 81 91  1  0
 82 85  1  0
 83 87  1  0
 83 82  1  0
 84 83  2  0
 87 86  1  0
 89 87  1  0
 89 90  1  0
 89 88  1  0
 91 94  1  1
 91 92  1  0
 93 91  1  0
M  ISO  4  11 100  20 100  53 101  54 101
M  END
>  <TORSDO>  (58) 
F 21

>  <SCORE>  (58) 
-13.827

>  <name>  (58) 
60

>  <ligand_id>  (58) 
60

>  <original_smiles>  (58) 
[H]c1c([H])c([H])c2c(c1[H])C([H])([H])C([H])([H])C([H])([H])C2([H])N([H])C(=O)C1([H])N(C(=O)C([H])(N([H])C(=O)C([H])(N([H])C([H])([H])[H])C([H])([H])[H])C(C([H])([H])[H])(C([H])([H])[H])C([H])([H])[H])C([H])([H])c2c([H])c(OC(C([H])([H])[H])(C([H])([H])[H])C([H])([H])C([H])([H])n3nc(C(F)(F)F)c(C([H])([H])N(C(=O)N4C([H])([H])C([H])([H])C([H])([H])C([H])(n5nc(-c6c([H])c([H])c(Oc7c([H])c([H])c(F)c([H])c7F)c([H])c6[H])c(C(=O)N([H])[H])c5N([H])[H])C4([H])[H])C([H])([H])[H])n3)c([H])c([H])c2C1([H])[H]

>  <smiles>  (58) 
[H]c1c([H])c([H])c2c(c1[H])C([H])([H])C([H])([H])C([H])([H])C2([H])N([H])C(=O)C1([H])N(C(=O)C([H])(N([H])C(=O)C([H])(N([H])C([H])([H])[H])C([H])([H])[H])C(C([H])([H])[H])(C([H])([H])[H])C([H])([H])[H])C([H])([H])c2c([H])c(OC(C([H])([H])[H])(C([H])([H])[H])C([H])([H])C([H])([H])n3nc(C(F)(F)F)c(C([H])([H])N(C(=O)N4C([H])([H])C([H])([H])C([H])([H])C([H])(n5nc(-c6c([H])c([H])c(Oc7c([H])c([H])c(F)c([H])c7F)c([H])c6[H])c(C(=O)N([H])[H])c5N([H])[H])C4([H])[H])C([H])([H])[H])n3)c([H])c([H])c2C1([H])[H]

$$$$
61:0:0
     RDKit          3D

 92100  0  0  1  0  0  0  0  0999 V2000
  -29.7400  -22.8960   20.9060 C   0  0  0  0  0  3  0  0  0  0  0  0
  -28.8680  -23.3270   19.9280 C   0  0  0  0  0  0  0  0  0  0  0  0
  -29.2770  -20.9270   19.7740 C   0  0  0  0  0  3  0  0  0  0  0  0
  -28.6390  -22.0760   19.2320 N   0  0  0  0  0  0  0  0  0  0  0  0
  -29.9470  -21.5150   20.7960 N   0  0  0  0  0  0  0  0  0  0  0  0
  -30.5170  -20.9990   21.4530 H   0  0  0  0  0  0  0  0  0  0  0  0
  -28.1570  -18.9030   20.7670 C   0  0  0  0  0  1  0  0  0  0  0  0
  -28.2940  -18.9030   18.3220 C   0  0  0  0  0  1  0  0  0  0  0  0
  -29.0980  -19.2460   19.5980 C   0  0  1  0  0  0  0  0  0  0  0  0
  -30.3120  -18.0190   19.6400 C   0  0  0  0  0  2  0  0  0  0  0  0
  -30.8310  -15.2470   19.7670 C   0  0  0  0  0  0  0  0  0  0  0  0
  -30.7300  -12.8250   18.9820 C   0  0  0  0  0  2  0  0  0  0  0  0
  -29.7430  -12.6640   17.8020 C   0  0  0  0  0  2  0  0  0  0  0  0
  -28.3120  -12.4370   18.3180 C   0  0  0  0  0  2  0  0  0  0  0  0
  -27.9330  -13.4480   19.4270 C   0  0  0  0  0  3  0  0  0  0  0  0
  -29.0270  -13.5650   20.5090 C   0  0  0  0  0  2  0  0  0  0  0  0
  -30.2590  -13.9710   19.8210 N   0  0  0  0  0  0  0  0  0  0  0  0
  -32.0220  -15.2950   19.4440 O   0  0  0  0  0  0  0  0  0  0  0  0
  -30.0440  -16.4470   19.8760 N   0  0  0  0  0  0  0  0  0  0  0  0
  -29.0930  -16.2500   20.1480 H   0  0  0  0  0  0  0  0  0  0  0  0
  -25.6200  -14.0790   20.3080 C   0  0  0  0  0  0  0  0  0  0  0  0
  -24.5560  -13.3290   20.7200 C   0  0  0  0  0  0  0  0  0  0  0  0
  -24.9750  -11.9660   20.6410 C   0  0  0  0  0  0  0  0  0  0  0  0
  -26.6210  -13.1760   19.9950 N   0  0  0  0  0  0  0  0  0  0  0  0
  -26.2460  -11.8980   20.2600 N   0  0  0  0  0  0  0  0  0  0  0  0
  -24.2250  -10.7220   20.8490 C   0  0  0  0  0  0  0  0  0  0  0  0
  -24.6370   -9.7600   21.7970 C   0  0  0  0  0  3  0  0  0  0  0  0
  -23.8870   -8.5780   21.9910 C   0  0  0  0  0  3  0  0  0  0  0  0
  -22.7100   -8.3530   21.2320 C   0  0  0  0  0  0  0  0  0  0  0  0
  -22.3180   -9.3060   20.2750 C   0  0  0  0  0  3  0  0  0  0  0  0
  -23.0680  -10.4770   20.0810 C   0  0  0  0  0  3  0  0  0  0  0  0
  -21.9290   -7.2270   21.3330 O   0  0  0  0  0  0  0  0  0  0  0  0
  -21.8020   -6.5470   22.5180 C   0  0  0  0  0  0  0  0  0  0  0  0
  -21.3060   -7.1690   23.6860 C   0  0  0  0  0  3  0  0  0  0  0  0
  -21.1270   -6.4150   24.8620 C   0  0  0  0  0  3  0  0  0  0  0  0
  -21.4270   -5.0400   24.8730 C   0  0  0  0  0  0  0  0  0  0  0  0
  -21.9130   -4.4180   23.7100 C   0  0  0  0  0  3  0  0  0  0  0  0
  -22.0970   -5.1680   22.5360 C   0  0  0  0  0  0  0  0  0  0  0  0
  -22.5450   -4.5580   21.4120 F   0  0  0  0  0  0  0  0  0  0  0  0
  -21.2460   -4.3150   26.0010 F   0  0  0  0  0  0  0  0  0  0  0  0
  -23.1910  -13.8450   21.0700 C   0  0  0  0  0  0  0  0  0  0  0  0
  -22.4950  -13.1590   21.9660 N   0  0  0  0  0  0  0  0  0  0  0  0
  -22.7580  -14.8880   20.5860 O   0  0  0  0  0  0  0  0  0  0  0  0
  -22.8700  -12.3110   22.3640 H   0  0  0  0  0  0  0  0  0  0  0  0
  -21.5800  -13.4850   22.2490 H   0  0  0  0  0  0  0  0  0  0  0  0
  -25.8160  -15.4460   20.1460 N   0  0  0  0  0  0  0  0  0  0  0  0
  -25.0740  -16.1160   20.3180 H   0  0  0  0  0  0  0  0  0  0  0  0
  -26.6410  -15.8590   19.7280 H   0  0  0  0  0  0  0  0  0  0  0  0
  -26.2830  -22.2010   18.2960 C   0  0  0  0  0  1  0  0  0  0  0  0
  -27.7890  -22.0400   18.0160 C   0  0  0  0  0  2  0  0  0  0  0  0
  -28.1340  -24.7810   19.6300 C   0  0  0  0  0  2  0  0  0  0  0  0
  -28.4770  -26.2420   20.1010 O   0  0  0  0  0  0  0  0  0  0  0  0
  -24.7380  -31.7650   23.3270 C   0  0  0  0  0  0  0  0  0  0  0  0
  -27.4500  -27.2680   20.0590 C   0  0  0  0  0  0  0  0  0  0  0  0
  -23.6100  -30.4770   21.5590 C   0  0  0  0  0  3  0  0  0  0  0  0
  -25.1190  -29.0200   20.0780 C   0  0  0  0  0  0  0  0  0  0  0  0
  -26.1690  -30.7670   21.5010 C   0  0  0  0  0  2  0  0  0  0  0  0
  -26.2780  -29.4210   20.7580 C   0  0  0  0  0  0  0  0  0  0  0  0
  -27.4420  -28.5570   20.7370 C   0  0  0  0  0  3  0  0  0  0  0  0
  -26.2660  -26.9950   19.3320 C   0  0  0  0  0  3  0  0  0  0  0  0
  -25.1260  -27.8210   19.3590 C   0  0  0  0  0  3  0  0  0  0  0  0
  -23.8850  -29.9020   20.1460 C   0  0  0  0  0  2  0  0  0  0  0  0
  -24.8580  -31.0200   22.1870 N   0  0  0  0  0  0  0  0  0  0  0  0
  -23.6310  -32.0020   23.8350 O   0  0  0  0  0  0  0  0  0  0  0  0
  -22.9110  -29.3980   22.4250 C   0  0  0  0  0  0  0  0  0  0  0  0
  -21.5850  -29.2450   22.2710 N   0  0  0  0  0  0  0  0  0  0  0  0
  -23.5680  -28.7020   23.2040 O   0  0  0  0  0  0  0  0  0  0  0  0
  -21.1070  -29.8600   21.6280 H   0  0  0  0  0  0  0  0  0  0  0  0
  -18.1890  -28.0560   22.6930 C   0  0  0  0  0  0  0  0  0  0  0  0
  -20.7570  -28.2460   22.9490 C   0  0  0  0  0  3  0  0  0  0  0  0
  -20.8280  -26.8800   22.2290 C   0  0  0  0  0  2  0  0  0  0  0  0
  -19.7030  -26.6800   21.2060 C   0  0  0  0  0  2  0  0  0  0  0  0
  -18.3320  -26.7780   21.8840 C   0  0  0  0  0  2  0  0  0  0  0  0
  -19.3280  -28.7530   23.1810 C   0  0  0  0  0  0  0  0  0  0  0  0
  -19.1370  -29.9510   23.9020 C   0  0  0  0  0  3  0  0  0  0  0  0
  -17.8440  -30.4570   24.1330 C   0  0  0  0  0  3  0  0  0  0  0  0
  -16.7210  -29.7560   23.6580 C   0  0  0  0  0  3  0  0  0  0  0  0
  -16.8950  -28.5570   22.9440 C   0  0  0  0  0  3  0  0  0  0  0  0
  -25.9840  -32.3720   24.0400 C   0  0  0  0  0  3  0  0  0  0  0  0
  -26.4140  -31.5700   25.3300 C   0  0  1  0  0  0  0  0  0  0  0  0
  -25.2550  -31.3330   26.3270 C   0  0  0  0  0  1  0  0  0  0  0  0
  -27.0040  -30.1890   24.9550 C   0  0  0  0  0  1  0  0  0  0  0  0
  -27.5280  -32.3390   26.0760 C   0  0  0  0  0  1  0  0  0  0  0  0
  -25.6670  -33.7670   24.3860 N   0  0  0  0  0  0  0  0  0  0  0  0
  -26.0310  -34.8370   23.6640 C   0  0  0  0  0  0  0  0  0  0  0  0
  -26.7320  -34.7530   22.6540 O   0  0  0  0  0  0  0  0  0  0  0  0
  -25.0470  -33.9070   25.1700 H   0  0  0  0  0  0  0  0  0  0  0  0
  -24.3180  -36.6500   23.3150 C   0  0  0  0  0  1  0  0  0  0  0  0
  -25.5400  -36.2180   24.1410 C   0  0  0  0  0  3  0  0  0  0  0  0
  -27.6570  -37.0870   25.0380 C   0  0  0  0  0  1  0  0  0  0  0  0
  -26.5780  -37.2690   24.0690 N   0  0  0  0  0  0  0  0  0  0  0  0
  -26.1710  -38.1890   24.2180 H   0  0  0  0  0  0  0  0  0  0  0  0
  2  1  2  0
  3  9  1  0
  3  5  1  0
  4  3  1  0
  4  2  1  0
  5  1  1  0
  5  6  1  0
  9  8  1  6
  9 10  1  0
  9  7  1  0
 10 19  1  0
 11 17  1  0
 11 19  1  0
 12 17  1  0
 13 14  1  0
 13 12  1  0
 15 14  1  0
 15 24  1  0
 15 16  1  0
 17 16  1  0
 18 11  2  0
 19 20  1  0
 21 22  2  0
 22 41  1  0
 23 22  1  0
 23 26  1  0
 24 25  1  0
 24 21  1  0
 25 23  2  0
 26 27  1  0
 27 28  2  0
 29 32  1  0
 29 28  1  0
 30 29  2  0
 31 30  1  0
 31 26  2  0
 32 33  1  0
 33 38  2  0
 33 34  1  0
 34 35  2  0
 35 36  1  0
 36 40  1  0
 37 36  2  0
 38 37  1  0
 39 38  1  0
 41 42  1  0
 42 45  1  0
 42 44  1  0
 43 41  2  0
 46 21  1  0
 46 47  1  0
 48 46  1  0
 50 49  1  0
 50  4  1  0
 51  2  1  0
 51 52  1  0
 53 64  2  0
 54 52  1  0
 54 59  1  0
 55 63  1  0
 55 65  1  0
 56 62  1  0
 56 58  1  0
 57 63  1  0
 58 57  1  0
 59 58  2  0
 60 61  1  0
 60 54  2  0
 61 56  2  0
 62 55  1  0
 63 53  1  0
 65 67  2  0
 66 65  1  0
 68 66  1  0
 69 78  2  0
 69 74  1  0
 70 66  1  0
 70 74  1  0
 71 70  1  0
 72 73  1  0
 72 71  1  0
 73 69  1  0
 74 75  2  0
 75 76  1  0
 77 76  2  0
 78 77  1  0
 79 53  1  0
 79 84  1  0
 79 80  1  0
 80 83  1  1
 80 81  1  0
 82 80  1  0
 84 87  1  0
 85 89  1  0
 85 84  1  0
 86 85  2  0
 89 88  1  0
 91 89  1  0
 91 92  1  0
 91 90  1  0
M  ISO  4  11 100  19 100  51 101  52 101
M  END
>  <TORSDO>  (59) 
F 20

>  <SCORE>  (59) 
-14.243

>  <name>  (59) 
61

>  <ligand_id>  (59) 
61

>  <original_smiles>  (59) 
[H]c1c([H])c([H])c2c(c1[H])C([H])([H])C([H])([H])C([H])([H])C2([H])N([H])C(=O)C1([H])N(C(=O)C([H])(N([H])C(=O)C([H])(N([H])C([H])([H])[H])C([H])([H])[H])C(C([H])([H])[H])(C([H])([H])[H])C([H])([H])[H])C([H])([H])c2c([H])c(OC([H])([H])c3c([H])[n+]([H])c(C(C([H])([H])[H])(C([H])([H])[H])C([H])([H])N([H])C(=O)N4C([H])([H])C([H])([H])C([H])([H])C([H])(n5nc(-c6c([H])c([H])c(Oc7c([H])c([H])c(F)c([H])c7F)c([H])c6[H])c(C(=O)N([H])[H])c5N([H])[H])C4([H])[H])n3C([H])([H])C([H])([H])[H])c([H])c([H])c2C1([H])[H]

>  <smiles>  (59) 
[H]c1c([H])c([H])c2c(c1[H])C([H])([H])C([H])([H])C([H])([H])C2([H])N([H])C(=O)C1([H])N(C(=O)C([H])(N([H])C(=O)C([H])(N([H])C([H])([H])[H])C([H])([H])[H])C(C([H])([H])[H])(C([H])([H])[H])C([H])([H])[H])C([H])([H])c2c([H])c(OC([H])([H])c3c([H])[n+]([H])c(C(C([H])([H])[H])(C([H])([H])[H])C([H])([H])N([H])C(=O)N4C([H])([H])C([H])([H])C([H])([H])C([H])(n5nc(-c6c([H])c([H])c(Oc7c([H])c([H])c(F)c([H])c7F)c([H])c6[H])c(C(=O)N([H])[H])c5N([H])[H])C4([H])[H])n3C([H])([H])C([H])([H])[H])c([H])c([H])c2C1([H])[H]

$$$$
62:0:0
     RDKit          3D

 91 99  0  0  1  0  0  0  0  0999 V2000
  -28.5590  -21.7300   19.4950 C   0  0  0  0  0  3  0  0  0  0  0  0
  -29.8550  -21.2970   21.0930 C   0  0  0  0  0  3  0  0  0  0  0  0
  -28.6610  -22.9840   20.2000 C   0  0  0  0  0  0  0  0  0  0  0  0
  -29.5680  -22.6270   21.2150 N   0  0  0  0  0  0  0  0  0  0  0  0
  -29.2380  -20.5840   20.1160 N   0  0  0  0  0  0  0  0  0  0  0  0
  -27.8480  -24.4460   20.0100 C   0  0  0  0  0  2  0  0  0  0  0  0
  -28.1200  -25.9100   20.5450 O   0  0  0  0  0  0  0  0  0  0  0  0
  -24.5220  -31.7900   23.3160 C   0  0  0  0  0  0  0  0  0  0  0  0
  -27.1180  -26.9650   20.4100 C   0  0  0  0  0  0  0  0  0  0  0  0
  -23.3530  -30.3920   21.6590 C   0  0  0  0  0  3  0  0  0  0  0  0
  -24.8240  -28.7840   20.2880 C   0  0  0  0  0  0  0  0  0  0  0  0
  -25.9190  -30.6060   21.5760 C   0  0  0  0  0  2  0  0  0  0  0  0
  -25.9920  -29.2040   20.9370 C   0  0  0  0  0  0  0  0  0  0  0  0
  -27.1370  -28.3100   20.9850 C   0  0  0  0  0  3  0  0  0  0  0  0
  -25.9300  -26.6760   19.6990 C   0  0  0  0  0  3  0  0  0  0  0  0
  -24.8110  -27.5360   19.6510 C   0  0  0  0  0  3  0  0  0  0  0  0
  -23.6080  -29.7010   20.2950 C   0  0  0  0  0  2  0  0  0  0  0  0
  -24.6170  -30.9530   22.2380 N   0  0  0  0  0  0  0  0  0  0  0  0
  -23.4250  -32.0970   23.8070 O   0  0  0  0  0  0  0  0  0  0  0  0
  -22.6320  -29.4050   22.6130 C   0  0  0  0  0  0  0  0  0  0  0  0
  -21.3020  -29.2630   22.4640 N   0  0  0  0  0  0  0  0  0  0  0  0
  -23.2740  -28.7700   23.4530 O   0  0  0  0  0  0  0  0  0  0  0  0
  -20.8380  -29.8290   21.7650 H   0  0  0  0  0  0  0  0  0  0  0  0
  -17.8850  -28.1440   22.9190 C   0  0  0  0  0  0  0  0  0  0  0  0
  -20.4470  -28.3460   23.2230 C   0  0  0  0  0  3  0  0  0  0  0  0
  -20.5190  -26.9090   22.6530 C   0  0  0  0  0  2  0  0  0  0  0  0
  -19.4270  -26.6120   21.6210 C   0  0  0  0  0  2  0  0  0  0  0  0
  -18.0380  -26.7930   22.2420 C   0  0  0  0  0  2  0  0  0  0  0  0
  -19.0170  -28.8790   23.3660 C   0  0  0  0  0  0  0  0  0  0  0  0
  -18.8170  -30.1450   23.9600 C   0  0  0  0  0  3  0  0  0  0  0  0
  -17.5220  -30.6750   24.1100 C   0  0  0  0  0  3  0  0  0  0  0  0
  -16.4070  -29.9360   23.6790 C   0  0  0  0  0  3  0  0  0  0  0  0
  -16.5890  -28.6730   23.0890 C   0  0  0  0  0  3  0  0  0  0  0  0
  -25.7890  -32.4180   23.9740 C   0  0  0  0  0  3  0  0  0  0  0  0
  -26.2290  -31.6810   25.2980 C   0  0  1  0  0  0  0  0  0  0  0  0
  -25.0830  -31.4990   26.3200 C   0  0  0  0  0  1  0  0  0  0  0  0
  -26.8040  -30.2800   24.9870 C   0  0  0  0  0  1  0  0  0  0  0  0
  -27.3630  -32.4770   25.9850 C   0  0  0  0  0  1  0  0  0  0  0  0
  -25.4970  -33.8350   24.2500 N   0  0  0  0  0  0  0  0  0  0  0  0
  -25.8690  -34.8590   23.4710 C   0  0  0  0  0  0  0  0  0  0  0  0
  -26.5600  -34.7110   22.4600 O   0  0  0  0  0  0  0  0  0  0  0  0
  -24.8880  -34.0260   25.0320 H   0  0  0  0  0  0  0  0  0  0  0  0
  -24.1860  -36.6770   23.0320 C   0  0  0  0  0  1  0  0  0  0  0  0
  -25.4030  -36.2720   23.8770 C   0  0  0  0  0  3  0  0  0  0  0  0
  -27.5410  -37.1430   24.7180 C   0  0  0  0  0  1  0  0  0  0  0  0
  -26.4590  -37.3010   23.7500 N   0  0  0  0  0  0  0  0  0  0  0  0
  -26.0700  -38.2330   23.8570 H   0  0  0  0  0  0  0  0  0  0  0  0
  -29.1480  -18.9590   19.9820 C   0  0  0  0  0  3  0  0  0  0  0  0
  -26.7820  -19.5430   18.9760 C   0  0  0  0  0  1  0  0  0  0  0  0
  -27.2790  -17.2250   19.5620 C   0  0  0  0  0  1  0  0  0  0  0  0
  -28.4600  -18.2750   17.6110 C   0  0  0  0  0  1  0  0  0  0  0  0
  -27.9470  -18.5180   19.0440 C   0  0  2  0  0  0  0  0  0  0  0  0
  -30.4210  -17.7800   19.9890 C   0  0  0  0  0  2  0  0  0  0  0  0
  -30.9550  -15.0280   20.0840 C   0  0  0  0  0  0  0  0  0  0  0  0
  -30.7260  -12.6510   19.1710 C   0  0  0  0  0  2  0  0  0  0  0  0
  -29.7610  -12.6060   17.9630 C   0  0  0  0  0  2  0  0  0  0  0  0
  -28.3060  -12.4330   18.4360 C   0  0  0  0  0  2  0  0  0  0  0  0
  -27.9610  -13.3700   19.6230 C   0  0  0  0  0  3  0  0  0  0  0  0
  -29.0510  -13.3710   20.7160 C   0  0  0  0  0  2  0  0  0  0  0  0
  -30.3130  -13.7760   20.0750 N   0  0  0  0  0  0  0  0  0  0  0  0
  -32.0830  -15.0500   19.5750 O   0  0  0  0  0  0  0  0  0  0  0  0
  -30.4530  -16.3100   22.0160 C   0  0  0  0  0  1  0  0  0  0  0  0
  -30.3500  -16.2580   20.5460 N   0  0  0  0  0  0  0  0  0  0  0  0
  -25.6260  -14.0060   20.4500 C   0  0  0  0  0  0  0  0  0  0  0  0
  -24.5530  -13.2670   20.8600 C   0  0  0  0  0  0  0  0  0  0  0  0
  -24.9650  -11.9020   20.7810 C   0  0  0  0  0  0  0  0  0  0  0  0
  -26.6320  -13.1010   20.1630 N   0  0  0  0  0  0  0  0  0  0  0  0
  -26.2430  -11.8240   20.4210 N   0  0  0  0  0  0  0  0  0  0  0  0
  -24.1940  -10.6670   20.9710 C   0  0  0  0  0  0  0  0  0  0  0  0
  -24.5920   -9.6820   21.9000 C   0  0  0  0  0  3  0  0  0  0  0  0
  -23.8210   -8.5130   22.0770 C   0  0  0  0  0  3  0  0  0  0  0  0
  -22.6370   -8.3220   21.3240 C   0  0  0  0  0  0  0  0  0  0  0  0
  -22.2580   -9.2960   20.3840 C   0  0  0  0  0  3  0  0  0  0  0  0
  -23.0290  -10.4560   20.2050 C   0  0  0  0  0  3  0  0  0  0  0  0
  -21.8380   -7.2070   21.4120 O   0  0  0  0  0  0  0  0  0  0  0  0
  -21.7190   -6.5000   22.5810 C   0  0  0  0  0  0  0  0  0  0  0  0
  -21.2670   -7.1050   23.7750 C   0  0  0  0  0  3  0  0  0  0  0  0
  -21.0900   -6.3250   24.9350 C   0  0  0  0  0  3  0  0  0  0  0  0
  -21.3550   -4.9430   24.9040 C   0  0  0  0  0  0  0  0  0  0  0  0
  -21.7990   -4.3390   23.7150 C   0  0  0  0  0  3  0  0  0  0  0  0
  -21.9770   -5.1150   22.5560 C   0  0  0  0  0  0  0  0  0  0  0  0
  -22.3850   -4.5240   21.4080 F   0  0  0  0  0  0  0  0  0  0  0  0
  -21.1780   -4.1920   26.0160 F   0  0  0  0  0  0  0  0  0  0  0  0
  -23.1910  -13.7960   21.2020 C   0  0  0  0  0  0  0  0  0  0  0  0
  -22.4800  -13.1200   22.0990 N   0  0  0  0  0  0  0  0  0  0  0  0
  -22.7680  -14.8430   20.7140 O   0  0  0  0  0  0  0  0  0  0  0  0
  -22.8360  -12.2760   22.5190 H   0  0  0  0  0  0  0  0  0  0  0  0
  -21.5680  -13.4550   22.3740 H   0  0  0  0  0  0  0  0  0  0  0  0
  -25.8110  -15.3680   20.2700 N   0  0  0  0  0  0  0  0  0  0  0  0
  -25.0670  -16.0350   20.4370 H   0  0  0  0  0  0  0  0  0  0  0  0
  -26.6580  -15.8000   19.9240 H   0  0  0  0  0  0  0  0  0  0  0  0
  1  5  1  0
  1  3  2  0
  2  4  2  0
  3  4  1  0
  5  2  1  0
  6  3  1  0
  6  7  1  0
  8 19  2  0
  9  7  1  0
  9 14  1  0
 10 18  1  0
 10 20  1  0
 11 17  1  0
 11 13  1  0
 12 18  1  0
 13 14  2  0
 13 12  1  0
 15  9  2  0
 16 15  1  0
 16 11  2  0
 17 10  1  0
 18  8  1  0
 20 22  2  0
 21 20  1  0
 23 21  1  0
 24 33  2  0
 24 29  1  0
 25 21  1  0
 25 29  1  0
 26 25  1  0
 27 28  1  0
 27 26  1  0
 28 24  1  0
 29 30  2  0
 30 31  1  0
 32 31  2  0
 33 32  1  0
 34  8  1  0
 34 39  1  0
 34 35  1  0
 35 38  1  1
 35 36  1  0
 37 35  1  0
 39 42  1  0
 40 44  1  0
 40 39  1  0
 41 40  2  0
 44 43  1  0
 46 47  1  0
 46 44  1  0
 46 45  1  0
 48 53  1  0
 48  5  1  0
 52 49  1  6
 51 52  1  0
 52 50  1  0
 52 48  1  0
 53 63  1  0
 54 63  1  0
 55 60  1  0
 56 57  1  0
 56 55  1  0
 58 57  1  0
 58 67  1  0
 58 59  1  0
 60 54  1  0
 60 59  1  0
 61 54  2  0
 63 62  1  0
 64 65  2  0
 65 84  1  0
 66 65  1  0
 66 69  1  0
 67 68  1  0
 67 64  1  0
 68 66  2  0
 69 70  1  0
 70 71  2  0
 72 75  1  0
 72 71  1  0
 73 72  2  0
 74 73  1  0
 74 69  2  0
 75 76  1  0
 76 77  1  0
 77 78  2  0
 79 78  1  0
 79 83  1  0
 80 79  2  0
 81 76  2  0
 81 80  1  0
 82 81  1  0
 84 85  1  0
 85 88  1  0
 85 87  1  0
 86 84  2  0
 89 90  1  0
 89 64  1  0
 91 89  1  0
M  ISO  4   6 101   7 101  54 100  63 100
M  END
>  <TORSDO>  (60) 
F 20

>  <SCORE>  (60) 
-14.408

>  <name>  (60) 
62

>  <ligand_id>  (60) 
62

>  <original_smiles>  (60) 
[H]c1c([H])c([H])c2c(c1[H])C([H])([H])C([H])([H])C([H])([H])C2([H])N([H])C(=O)C1([H])N(C(=O)C([H])(N([H])C(=O)C([H])(N([H])C([H])([H])[H])C([H])([H])[H])C(C([H])([H])[H])(C([H])([H])[H])C([H])([H])[H])C([H])([H])c2c([H])c(OC([H])([H])c3nc([H])n(C([H])(C([H])([H])N(C(=O)N4C([H])([H])C([H])([H])C([H])([H])C([H])(n5nc(-c6c([H])c([H])c(Oc7c([H])c([H])c(F)c([H])c7F)c([H])c6[H])c(C(=O)N([H])[H])c5N([H])[H])C4([H])[H])C([H])([H])[H])C(C([H])([H])[H])(C([H])([H])[H])C([H])([H])[H])c3[H])c([H])c([H])c2C1([H])[H]

>  <smiles>  (60) 
[H]c1c([H])c([H])c2c(c1[H])C([H])([H])C([H])([H])C([H])([H])C2([H])N([H])C(=O)C1([H])N(C(=O)C([H])(N([H])C(=O)C([H])(N([H])C([H])([H])[H])C([H])([H])[H])C(C([H])([H])[H])(C([H])([H])[H])C([H])([H])[H])C([H])([H])c2c([H])c(OC([H])([H])c3nc([H])n(C([H])(C([H])([H])N(C(=O)N4C([H])([H])C([H])([H])C([H])([H])C([H])(n5nc(-c6c([H])c([H])c(Oc7c([H])c([H])c(F)c([H])c7F)c([H])c6[H])c(C(=O)N([H])[H])c5N([H])[H])C4([H])[H])C([H])([H])[H])C(C([H])([H])[H])(C([H])([H])[H])C([H])([H])[H])c3[H])c([H])c([H])c2C1([H])[H]

$$$$
63:0:0
     RDKit          3D

 90 98  0  0  1  0  0  0  0  0999 V2000
  -27.5060  -21.5340   18.8600 C   0  0  0  0  0  1  0  0  0  0  0  0
  -27.7220  -21.6370   21.3300 C   0  0  0  0  0  1  0  0  0  0  0  0
  -28.5190  -21.6850   20.0090 C   0  0  1  0  0  0  0  0  0  0  0  0
  -29.1410  -19.0130   20.6040 C   0  0  0  0  0  3  0  0  0  0  0  0
  -29.4020  -20.2680   20.0030 C   0  0  0  0  0  0  0  0  0  0  0  0
  -30.4800  -19.9100   19.1610 N   0  0  0  0  0  0  0  0  0  0  0  0
  -30.8820  -18.6370   19.3210 N   0  0  0  0  0  0  0  0  0  0  0  0
  -30.0600  -17.9770   20.1960 N   0  0  0  0  0  0  0  0  0  0  0  0
  -30.2710  -16.4890   20.7540 C   0  0  0  0  0  3  0  0  0  0  0  0
  -30.9570  -15.1400   20.0310 C   0  0  0  0  0  0  0  0  0  0  0  0
  -30.7470  -12.8310   18.9520 C   0  0  0  0  0  2  0  0  0  0  0  0
  -29.7580  -12.8750   17.7640 C   0  0  0  0  0  2  0  0  0  0  0  0
  -28.3010  -12.7150   18.2380 C   0  0  0  0  0  2  0  0  0  0  0  0
  -27.9870  -13.5890   19.4800 C   0  0  0  0  0  3  0  0  0  0  0  0
  -29.0830  -13.4680   20.5600 C   0  0  0  0  0  2  0  0  0  0  0  0
  -30.3490  -13.8820   19.9340 N   0  0  0  0  0  0  0  0  0  0  0  0
  -32.1020  -15.2190   19.5640 O   0  0  0  0  0  0  0  0  0  0  0  0
  -25.6520  -14.2370   20.3030 C   0  0  0  0  0  0  0  0  0  0  0  0
  -24.5740  -13.4950   20.6930 C   0  0  0  0  0  0  0  0  0  0  0  0
  -24.9880  -12.1290   20.6240 C   0  0  0  0  0  0  0  0  0  0  0  0
  -26.6540  -13.3280   20.0140 N   0  0  0  0  0  0  0  0  0  0  0  0
  -26.2660  -12.0530   20.2720 N   0  0  0  0  0  0  0  0  0  0  0  0
  -24.2240  -10.8890   20.8160 C   0  0  0  0  0  0  0  0  0  0  0  0
  -24.6360   -9.8990   21.7340 C   0  0  0  0  0  3  0  0  0  0  0  0
  -23.8730   -8.7250   21.9140 C   0  0  0  0  0  3  0  0  0  0  0  0
  -22.6810   -8.5320   21.1740 C   0  0  0  0  0  0  0  0  0  0  0  0
  -22.2890   -9.5100   20.2420 C   0  0  0  0  0  3  0  0  0  0  0  0
  -23.0540  -10.6740   20.0620 C   0  0  0  0  0  3  0  0  0  0  0  0
  -21.8890   -7.4140   21.2650 O   0  0  0  0  0  0  0  0  0  0  0  0
  -21.8080   -6.6810   22.4220 C   0  0  0  0  0  0  0  0  0  0  0  0
  -21.4150   -7.2650   23.6450 C   0  0  0  0  0  3  0  0  0  0  0  0
  -21.2750   -6.4620   24.7960 C   0  0  0  0  0  3  0  0  0  0  0  0
  -21.5190   -5.0780   24.7230 C   0  0  0  0  0  0  0  0  0  0  0  0
  -21.9040   -4.4940   23.5040 C   0  0  0  0  0  3  0  0  0  0  0  0
  -22.0450   -5.2930   22.3560 C   0  0  0  0  0  0  0  0  0  0  0  0
  -22.3960   -4.7230   21.1790 F   0  0  0  0  0  0  0  0  0  0  0  0
  -21.3780   -4.3050   25.8250 F   0  0  0  0  0  0  0  0  0  0  0  0
  -23.2030  -14.0120   21.0190 C   0  0  0  0  0  0  0  0  0  0  0  0
  -22.4950  -13.3450   21.9220 N   0  0  0  0  0  0  0  0  0  0  0  0
  -22.7750  -15.0460   20.5080 O   0  0  0  0  0  0  0  0  0  0  0  0
  -22.8580  -12.5090   22.3560 H   0  0  0  0  0  0  0  0  0  0  0  0
  -21.5750  -13.6730   22.1840 H   0  0  0  0  0  0  0  0  0  0  0  0
  -25.8600  -15.6050   20.1440 N   0  0  0  0  0  0  0  0  0  0  0  0
  -25.1210  -16.2850   20.2820 H   0  0  0  0  0  0  0  0  0  0  0  0
  -26.7070  -16.0140   19.7710 H   0  0  0  0  0  0  0  0  0  0  0  0
  -30.3420  -17.5670   23.1520 C   0  0  0  0  0  1  0  0  0  0  0  0
  -30.9720  -16.5980   22.1350 C   0  0  0  0  0  2  0  0  0  0  0  0
  -29.0770  -23.2940   19.9330 C   0  0  0  0  0  3  0  0  0  0  0  0
  -28.0630  -24.6650   19.8190 C   0  0  0  0  0  3  0  0  0  0  0  0
  -28.3500  -26.2050   19.9130 O   0  0  0  0  0  0  0  0  0  0  0  0
  -24.6170  -31.8020   23.0030 C   0  0  0  0  0  0  0  0  0  0  0  0
  -27.2800  -27.1810   19.8770 C   0  0  0  0  0  0  0  0  0  0  0  0
  -23.4380  -30.3940   21.3630 C   0  0  0  0  0  3  0  0  0  0  0  0
  -24.9080  -28.8790   19.9030 C   0  0  0  0  0  0  0  0  0  0  0  0
  -25.9850  -30.7280   21.1740 C   0  0  0  0  0  2  0  0  0  0  0  0
  -26.0870  -29.3470   20.4960 C   0  0  0  0  0  0  0  0  0  0  0  0
  -27.2750  -28.5160   20.4620 C   0  0  0  0  0  3  0  0  0  0  0  0
  -26.0640  -26.8220   19.2520 C   0  0  0  0  0  3  0  0  0  0  0  0
  -24.9090  -27.6300   19.2670 C   0  0  0  0  0  3  0  0  0  0  0  0
  -23.6590  -29.7420   19.9750 C   0  0  0  0  0  2  0  0  0  0  0  0
  -24.7000  -30.9970   21.9000 N   0  0  0  0  0  0  0  0  0  0  0  0
  -23.5300  -32.0490   23.5470 O   0  0  0  0  0  0  0  0  0  0  0  0
  -22.7970  -29.3580   22.3190 C   0  0  0  0  0  0  0  0  0  0  0  0
  -21.4640  -29.1880   22.2380 N   0  0  0  0  0  0  0  0  0  0  0  0
  -23.4980  -28.7080   23.0990 O   0  0  0  0  0  0  0  0  0  0  0  0
  -20.9510  -29.7590   21.5810 H   0  0  0  0  0  0  0  0  0  0  0  0
  -18.1030  -27.9780   22.8490 C   0  0  0  0  0  0  0  0  0  0  0  0
  -20.6720  -28.2290   23.0130 C   0  0  0  0  0  3  0  0  0  0  0  0
  -20.7450  -26.8160   22.3890 C   0  0  0  0  0  2  0  0  0  0  0  0
  -19.6000  -26.5270   21.4140 C   0  0  0  0  0  2  0  0  0  0  0  0
  -18.2460  -26.6530   22.1210 C   0  0  0  0  0  2  0  0  0  0  0  0
  -19.2410  -28.7260   23.2530 C   0  0  0  0  0  0  0  0  0  0  0  0
  -19.0480  -29.9660   23.8990 C   0  0  0  0  0  3  0  0  0  0  0  0
  -17.7520  -30.4600   24.1400 C   0  0  0  0  0  3  0  0  0  0  0  0
  -16.6310  -29.7090   23.7490 C   0  0  0  0  0  3  0  0  0  0  0  0
  -16.8060  -28.4700   23.1080 C   0  0  0  0  0  3  0  0  0  0  0  0
  -25.8840  -32.4630   23.6250 C   0  0  0  0  0  3  0  0  0  0  0  0
  -25.5240  -33.8340   24.0220 N   0  0  0  0  0  0  0  0  0  0  0  0
  -25.8080  -34.9350   23.3130 C   0  0  0  0  0  0  0  0  0  0  0  0
  -26.4650  -34.9050   22.2690 O   0  0  0  0  0  0  0  0  0  0  0  0
  -24.9340  -33.9280   24.8350 H   0  0  0  0  0  0  0  0  0  0  0  0
  -24.0150  -36.6850   23.0670 C   0  0  0  0  0  1  0  0  0  0  0  0
  -25.2790  -36.2830   23.8440 C   0  0  0  0  0  3  0  0  0  0  0  0
  -27.3930  -37.1980   24.6950 C   0  0  0  0  0  1  0  0  0  0  0  0
  -26.2750  -37.3750   23.7730 N   0  0  0  0  0  0  0  0  0  0  0  0
  -25.8410  -38.2720   23.9730 H   0  0  0  0  0  0  0  0  0  0  0  0
  -26.4580  -31.6690   24.8630 C   0  0  1  0  0  0  0  0  0  0  0  0
  -25.3970  -31.3590   25.9460 C   0  0  0  0  0  1  0  0  0  0  0  0
  -27.0770  -30.3250   24.4180 C   0  0  0  0  0  1  0  0  0  0  0  0
  -27.5950  -32.4800   25.5250 C   0  0  0  0  0  1  0  0  0  0  0  0
  3  1  1  6
  3  2  1  0
  5  3  1  0
  5  4  2  0
  6  7  2  0
  6  5  1  0
  7  8  1  0
  8  4  1  0
  8  9  1  0
  9 47  1  0
 10  9  1  0
 11 16  1  0
 12 13  1  0
 12 11  1  0
 14 13  1  0
 14 21  1  0
 14 15  1  0
 16 10  1  0
 16 15  1  0
 17 10  2  0
 18 19  2  0
 19 38  1  0
 20 19  1  0
 20 23  1  0
 21 22  1  0
 21 18  1  0
 22 20  2  0
 23 24  1  0
 24 25  2  0
 26 29  1  0
 26 25  1  0
 27 26  2  0
 28 27  1  0
 28 23  2  0
 29 30  1  0
 30 31  1  0
 31 32  2  0
 33 32  1  0
 33 37  1  0
 34 33  2  0
 35 30  2  0
 35 34  1  0
 36 35  1  0
 38 39  1  0
 39 42  1  0
 39 41  1  0
 40 38  2  0
 43 44  1  0
 43 18  1  0
 45 43  1  0
 47 46  1  0
 48  3  1  0
 49 50  1  0
 49 48  2  0
 51 62  2  0
 52 50  1  0
 52 57  1  0
 53 61  1  0
 53 63  1  0
 54 60  1  0
 54 56  1  0
 55 61  1  0
 56 55  1  0
 57 56  2  0
 58 59  1  0
 58 52  2  0
 59 54  2  0
 60 53  1  0
 61 51  1  0
 63 65  2  0
 64 63  1  0
 66 64  1  0
 67 76  2  0
 67 72  1  0
 68 64  1  0
 68 72  1  0
 69 68  1  0
 70 71  1  0
 70 69  1  0
 71 67  1  0
 72 73  2  0
 73 74  1  0
 75 74  2  0
 76 75  1  0
 77 51  1  0
 77 78  1  0
 77 87  1  0
 78 81  1  0
 79 83  1  0
 79 78  1  0
 80 79  2  0
 83 82  1  0
 85 83  1  0
 85 86  1  0
 85 84  1  0
 87 90  1  1
 87 88  1  0
 89 87  1  0
M  ISO  4   9 100  10 100  49 101  50 101
M  END
>  <TORSDO>  (61) 
F 21

>  <SCORE>  (61) 
-13.247

>  <name>  (61) 
63

>  <ligand_id>  (61) 
63

>  <original_smiles>  (61) 
[H]c1c([H])c([H])c2c(c1[H])C([H])([H])C([H])([H])C([H])([H])C2([H])N([H])C(=O)C1([H])N(C(=O)C([H])(N([H])C(=O)C([H])(N([H])C([H])([H])[H])C([H])([H])[H])C(C([H])([H])[H])(C([H])([H])[H])C([H])([H])[H])C([H])([H])c2c([H])c(OC([H])([H])C([H])([H])C(c3nnn(C([H])(C(=O)N4C([H])([H])C([H])([H])C([H])([H])C([H])(n5nc(-c6c([H])c([H])c(Oc7c([H])c([H])c(F)c([H])c7F)c([H])c6[H])c(C(=O)N([H])[H])c5N([H])[H])C4([H])[H])C([H])([H])C([H])([H])[H])c3[H])(C([H])([H])[H])C([H])([H])[H])c([H])c([H])c2C1([H])[H]

>  <smiles>  (61) 
[H]c1c([H])c([H])c2c(c1[H])C([H])([H])C([H])([H])C([H])([H])C2([H])N([H])C(=O)C1([H])N(C(=O)C([H])(N([H])C(=O)C([H])(N([H])C([H])([H])[H])C([H])([H])[H])C(C([H])([H])[H])(C([H])([H])[H])C([H])([H])[H])C([H])([H])c2c([H])c(OC([H])([H])C([H])([H])C(c3nnn(C([H])(C(=O)N4C([H])([H])C([H])([H])C([H])([H])C([H])(n5nc(-c6c([H])c([H])c(Oc7c([H])c([H])c(F)c([H])c7F)c([H])c6[H])c(C(=O)N([H])[H])c5N([H])[H])C4([H])[H])C([H])([H])C([H])([H])[H])c3[H])(C([H])([H])[H])C([H])([H])[H])c([H])c([H])c2C1([H])[H]

$$$$
64:0:0
     RDKit          3D

 87 95  0  0  1  0  0  0  0  0999 V2000
  -30.0280  -20.7080   20.4820 C   0  0  0  0  0  3  0  0  0  0  0  0
  -28.0410  -20.9730   19.8040 C   0  0  0  0  0  3  0  0  0  0  0  0
  -29.5810  -19.3670   20.2290 C   0  0  0  0  0  0  0  0  0  0  0  0
  -28.2720  -19.6270   19.7750 N   0  0  0  0  0  0  0  0  0  0  0  0
  -29.0530  -21.7710   20.2170 N   0  0  0  0  0  0  0  0  0  0  0  0
  -30.3590  -17.8740   20.2690 C   0  0  0  0  0  2  0  0  0  0  0  0
  -30.5230  -15.1190   20.3420 C   0  0  0  0  0  0  0  0  0  0  0  0
  -30.4490  -12.7590   19.3530 C   0  0  0  0  0  2  0  0  0  0  0  0
  -29.4970  -12.6530   18.1370 C   0  0  0  0  0  2  0  0  0  0  0  0
  -28.0400  -12.4120   18.5810 C   0  0  0  0  0  2  0  0  0  0  0  0
  -27.6320  -13.3150   19.7720 C   0  0  0  0  0  3  0  0  0  0  0  0
  -28.7110  -13.2850   20.8770 C   0  0  0  0  0  2  0  0  0  0  0  0
  -29.9310  -13.8370   20.2590 N   0  0  0  0  0  0  0  0  0  0  0  0
  -31.7330  -15.1350   20.0770 O   0  0  0  0  0  0  0  0  0  0  0  0
  -28.4070  -16.4960   20.8700 C   0  0  0  0  0  1  0  0  0  0  0  0
  -29.8050  -16.3850   20.4590 N   0  0  0  0  0  0  0  0  0  0  0  0
  -25.2440  -13.8810   20.5000 C   0  0  0  0  0  0  0  0  0  0  0  0
  -24.1850  -13.1010   20.8680 C   0  0  0  0  0  0  0  0  0  0  0  0
  -24.6590  -11.7540   20.8360 C   0  0  0  0  0  0  0  0  0  0  0  0
  -26.2970  -13.0110   20.2700 N   0  0  0  0  0  0  0  0  0  0  0  0
  -25.9520  -11.7250   20.5340 N   0  0  0  0  0  0  0  0  0  0  0  0
  -23.9390  -10.4880   21.0200 C   0  0  0  0  0  0  0  0  0  0  0  0
  -24.3620   -9.5290   21.9650 C   0  0  0  0  0  3  0  0  0  0  0  0
  -23.6410   -8.3290   22.1390 C   0  0  0  0  0  3  0  0  0  0  0  0
  -22.4810   -8.0810   21.3650 C   0  0  0  0  0  0  0  0  0  0  0  0
  -22.0780   -9.0300   20.4090 C   0  0  0  0  0  3  0  0  0  0  0  0
  -22.8010  -10.2210   20.2340 C   0  0  0  0  0  3  0  0  0  0  0  0
  -21.7320   -6.9320   21.4480 O   0  0  0  0  0  0  0  0  0  0  0  0
  -21.6510   -6.2080   22.6090 C   0  0  0  0  0  0  0  0  0  0  0  0
  -21.1650   -6.7720   23.8080 C   0  0  0  0  0  3  0  0  0  0  0  0
  -21.0350   -5.9730   24.9610 C   0  0  0  0  0  3  0  0  0  0  0  0
  -21.3800   -4.6090   24.9160 C   0  0  0  0  0  0  0  0  0  0  0  0
  -21.8610   -4.0430   23.7210 C   0  0  0  0  0  3  0  0  0  0  0  0
  -21.9930   -4.8410   22.5700 C   0  0  0  0  0  0  0  0  0  0  0  0
  -22.4360   -4.2860   21.4160 F   0  0  0  0  0  0  0  0  0  0  0  0
  -21.2480   -3.8380   26.0200 F   0  0  0  0  0  0  0  0  0  0  0  0
  -22.7850  -13.5720   21.1340 C   0  0  0  0  0  0  0  0  0  0  0  0
  -22.0600  -12.8750   22.0020 N   0  0  0  0  0  0  0  0  0  0  0  0
  -22.3430  -14.5930   20.6090 O   0  0  0  0  0  0  0  0  0  0  0  0
  -22.4310  -12.0500   22.4490 H   0  0  0  0  0  0  0  0  0  0  0  0
  -21.1210  -13.1730   22.2250 H   0  0  0  0  0  0  0  0  0  0  0  0
  -25.3840  -15.2520   20.3200 N   0  0  0  0  0  0  0  0  0  0  0  0
  -24.6060  -15.8920   20.4360 H   0  0  0  0  0  0  0  0  0  0  0  0
  -26.2300  -15.7090   20.0090 H   0  0  0  0  0  0  0  0  0  0  0  0
  -29.1780  -23.3690   20.3720 C   0  0  0  0  0  3  0  0  0  0  0  0
  -28.0570  -24.6140   20.0470 C   0  0  0  0  0  3  0  0  0  0  0  0
  -28.2660  -26.1660   20.2470 O   0  0  0  0  0  0  0  0  0  0  0  0
  -24.6220  -31.8810   23.2400 C   0  0  0  0  0  0  0  0  0  0  0  0
  -27.2020  -27.1540   20.1890 C   0  0  0  0  0  0  0  0  0  0  0  0
  -23.4210  -30.4890   21.6000 C   0  0  0  0  0  3  0  0  0  0  0  0
  -24.8680  -28.9120   20.1690 C   0  0  0  0  0  0  0  0  0  0  0  0
  -25.9760  -30.7490   21.4330 C   0  0  0  0  0  2  0  0  0  0  0  0
  -26.0510  -29.3560   20.7750 C   0  0  0  0  0  0  0  0  0  0  0  0
  -27.2160  -28.4950   20.7640 C   0  0  0  0  0  3  0  0  0  0  0  0
  -25.9900  -26.8160   19.5470 C   0  0  0  0  0  3  0  0  0  0  0  0
  -24.8530  -27.6570   19.5390 C   0  0  0  0  0  3  0  0  0  0  0  0
  -23.6410  -29.8120   20.2200 C   0  0  0  0  0  2  0  0  0  0  0  0
  -24.6930  -31.0620   22.1450 N   0  0  0  0  0  0  0  0  0  0  0  0
  -23.5370  -32.1630   23.7710 O   0  0  0  0  0  0  0  0  0  0  0  0
  -22.7430  -29.4810   22.5630 C   0  0  0  0  0  0  0  0  0  0  0  0
  -21.4140  -29.3090   22.4370 N   0  0  0  0  0  0  0  0  0  0  0  0
  -23.4150  -28.8560   23.3880 O   0  0  0  0  0  0  0  0  0  0  0  0
  -20.9280  -29.8640   21.7470 H   0  0  0  0  0  0  0  0  0  0  0  0
  -18.0350  -28.1040   22.9470 C   0  0  0  0  0  0  0  0  0  0  0  0
  -20.5940  -28.3690   23.2070 C   0  0  0  0  0  3  0  0  0  0  0  0
  -20.6960  -26.9380   22.6300 C   0  0  0  0  0  2  0  0  0  0  0  0
  -19.5920  -26.6170   21.6170 C   0  0  0  0  0  2  0  0  0  0  0  0
  -18.2120  -26.7570   22.2650 C   0  0  0  0  0  2  0  0  0  0  0  0
  -19.1540  -28.8670   23.3750 C   0  0  0  0  0  0  0  0  0  0  0  0
  -18.9330  -30.1270   23.9760 C   0  0  0  0  0  3  0  0  0  0  0  0
  -17.6270  -30.6220   24.1500 C   0  0  0  0  0  3  0  0  0  0  0  0
  -16.5240  -29.8560   23.7360 C   0  0  0  0  0  3  0  0  0  0  0  0
  -16.7280  -28.5990   23.1410 C   0  0  0  0  0  3  0  0  0  0  0  0
  -25.9010  -32.5180   23.8680 C   0  0  0  0  0  3  0  0  0  0  0  0
  -26.4150  -31.7430   25.1450 C   0  0  1  0  0  0  0  0  0  0  0  0
  -25.3220  -31.5010   26.2100 C   0  0  0  0  0  1  0  0  0  0  0  0
  -27.0030  -30.3680   24.7550 C   0  0  0  0  0  1  0  0  0  0  0  0
  -27.5630  -32.5400   25.8110 C   0  0  0  0  0  1  0  0  0  0  0  0
  -25.5850  -33.9140   24.2110 N   0  0  0  0  0  0  0  0  0  0  0  0
  -25.8880  -34.9760   23.4520 C   0  0  0  0  0  0  0  0  0  0  0  0
  -26.5290  -34.8830   22.4020 O   0  0  0  0  0  0  0  0  0  0  0  0
  -25.0110  -34.0590   25.0290 H   0  0  0  0  0  0  0  0  0  0  0  0
  -24.1260  -36.7530   23.1780 C   0  0  0  0  0  1  0  0  0  0  0  0
  -25.4070  -36.3590   23.9330 C   0  0  0  0  0  3  0  0  0  0  0  0
  -27.5620  -37.2740   24.6750 C   0  0  0  0  0  1  0  0  0  0  0  0
  -26.4220  -37.4240   23.7760 N   0  0  0  0  0  0  0  0  0  0  0  0
  -26.0100  -38.3410   23.9350 H   0  0  0  0  0  0  0  0  0  0  0  0
  2  5  1  0
  3  6  1  0
  3  1  2  0
  4  2  2  0
  4  3  1  0
  5 45  1  0
  5  1  1  0
  6 16  1  0
  7 16  1  0
  8 13  1  0
  9 10  1  0
  9  8  1  0
 11 10  1  0
 11 20  1  0
 11 12  1  0
 13  7  1  0
 13 12  1  0
 14  7  2  0
 16 15  1  0
 17 18  2  0
 18 37  1  0
 19 18  1  0
 19 22  1  0
 20 17  1  0
 20 21  1  0
 21 19  2  0
 22 23  1  0
 23 24  2  0
 25 28  1  0
 25 24  1  0
 26 25  2  0
 27 26  1  0
 27 22  2  0
 28 29  1  0
 29 30  1  0
 30 31  2  0
 32 31  1  0
 32 36  1  0
 33 32  2  0
 34 29  2  0
 34 33  1  0
 35 34  1  0
 37 38  1  0
 38 41  1  0
 38 40  1  0
 39 37  2  0
 42 43  1  0
 42 17  1  0
 44 42  1  0
 46 47  1  0
 46 45  2  0
 48 59  2  0
 49 47  1  0
 49 54  1  0
 50 58  1  0
 50 60  1  0
 51 57  1  0
 51 53  1  0
 52 58  1  0
 53 52  1  0
 54 53  2  0
 55 49  2  0
 56 55  1  0
 56 51  2  0
 57 50  1  0
 58 48  1  0
 60 62  2  0
 61 60  1  0
 63 61  1  0
 64 73  2  0
 64 69  1  0
 65 61  1  0
 65 69  1  0
 66 65  1  0
 67 68  1  0
 67 66  1  0
 68 64  1  0
 69 70  2  0
 70 71  1  0
 72 71  2  0
 73 72  1  0
 74 48  1  0
 74 79  1  0
 74 75  1  0
 75 78  1  1
 75 76  1  0
 77 75  1  0
 79 82  1  0
 80 84  1  0
 80 79  1  0
 81 80  2  0
 84 83  1  0
 86 84  1  0
 86 87  1  0
 86 85  1  0
M  ISO  4   7 100  16 100  46 101  47 101
M  END
>  <TORSDO>  (62) 
F 19

>  <SCORE>  (62) 
-14.826

>  <name>  (62) 
64

>  <ligand_id>  (62) 
64

>  <original_smiles>  (62) 
[H]c1c([H])c([H])c2c(c1[H])C([H])([H])C([H])([H])C([H])([H])C2([H])N([H])C(=O)C1([H])N(C(=O)C([H])(N([H])C(=O)C([H])(N([H])C([H])([H])[H])C([H])([H])[H])C(C([H])([H])[H])(C([H])([H])[H])C([H])([H])[H])C([H])([H])c2c([H])c(OC([H])([H])C([H])([H])n3c([H])nc(C([H])([H])N(C(=O)N4C([H])([H])C([H])([H])C([H])([H])C([H])(n5nc(-c6c([H])c([H])c(Oc7c([H])c([H])c(F)c([H])c7F)c([H])c6[H])c(C(=O)N([H])[H])c5N([H])[H])C4([H])[H])C([H])([H])[H])c3[H])c([H])c([H])c2C1([H])[H]

>  <smiles>  (62) 
[H]c1c([H])c([H])c2c(c1[H])C([H])([H])C([H])([H])C([H])([H])C2([H])N([H])C(=O)C1([H])N(C(=O)C([H])(N([H])C(=O)C([H])(N([H])C([H])([H])[H])C([H])([H])[H])C(C([H])([H])[H])(C([H])([H])[H])C([H])([H])[H])C([H])([H])c2c([H])c(OC([H])([H])C([H])([H])n3c([H])nc(C([H])([H])N(C(=O)N4C([H])([H])C([H])([H])C([H])([H])C([H])(n5nc(-c6c([H])c([H])c(Oc7c([H])c([H])c(F)c([H])c7F)c([H])c6[H])c(C(=O)N([H])[H])c5N([H])[H])C4([H])[H])C([H])([H])[H])c3[H])c([H])c([H])c2C1([H])[H]

$$$$
65:0:0
     RDKit          3D

 95103  0  0  1  0  0  0  0  0999 V2000
  -27.3050  -24.4170   19.4570 C   0  0  0  0  0  3  0  0  0  0  0  0
  -26.9710  -23.0720   19.2700 C   0  0  0  0  0  0  0  0  0  0  0  0
  -28.6650  -24.7460   19.5870 C   0  0  0  0  0  0  0  0  0  0  0  0
  -29.1750  -22.4640   19.4980 C   0  0  0  0  0  0  0  0  0  0  0  0
  -27.9120  -22.1100   19.2920 N   0  0  0  0  0  0  0  0  0  0  0  0
  -29.5890  -23.7380   19.6240 N   0  0  0  0  0  0  0  0  0  0  0  0
  -24.5980  -22.6020   20.1020 C   0  0  0  0  0  1  0  0  0  0  0  0
  -25.5580  -22.6440   18.9080 C   0  0  0  0  0  2  0  0  0  0  0  0
  -29.1720  -26.2090   19.4190 C   0  0  0  0  0  2  0  0  0  0  0  0
  -28.8020  -27.2220   20.3910 O   0  0  0  0  0  0  0  0  0  0  0  0
  -24.6560  -32.0490   23.6130 C   0  0  0  0  0  0  0  0  0  0  0  0
  -27.5950  -27.9090   20.3310 C   0  0  0  0  0  0  0  0  0  0  0  0
  -23.5620  -30.6860   21.8650 C   0  0  0  0  0  3  0  0  0  0  0  0
  -25.1230  -29.3230   20.3750 C   0  0  0  0  0  0  0  0  0  0  0  0
  -26.0710  -31.1790   21.7490 C   0  0  0  0  0  2  0  0  0  0  0  0
  -26.2390  -29.8520   21.0310 C   0  0  0  0  0  0  0  0  0  0  0  0
  -27.4670  -29.1450   21.0200 C   0  0  0  0  0  3  0  0  0  0  0  0
  -26.4650  -27.4280   19.6310 C   0  0  0  0  0  3  0  0  0  0  0  0
  -25.2320  -28.1100   19.6740 C   0  0  0  0  0  3  0  0  0  0  0  0
  -23.8350  -30.1150   20.4490 C   0  0  0  0  0  2  0  0  0  0  0  0
  -24.7800  -31.3180   22.4690 N   0  0  0  0  0  0  0  0  0  0  0  0
  -23.5520  -32.2290   24.1440 O   0  0  0  0  0  0  0  0  0  0  0  0
  -22.9480  -29.5720   22.7440 C   0  0  0  0  0  0  0  0  0  0  0  0
  -21.6560  -29.2760   22.5310 N   0  0  0  0  0  0  0  0  0  0  0  0
  -23.6360  -28.9800   23.5810 O   0  0  0  0  0  0  0  0  0  0  0  0
  -21.1520  -29.8210   21.8460 H   0  0  0  0  0  0  0  0  0  0  0  0
  -18.3960  -27.7370   22.7330 C   0  0  0  0  0  0  0  0  0  0  0  0
  -20.8850  -28.2390   23.2140 C   0  0  0  0  0  3  0  0  0  0  0  0
  -21.1730  -26.8390   22.6200 C   0  0  0  0  0  2  0  0  0  0  0  0
  -20.1920  -26.4400   21.5130 C   0  0  0  0  0  2  0  0  0  0  0  0
  -18.7580  -26.4310   22.0480 C   0  0  0  0  0  2  0  0  0  0  0  0
  -19.3940  -28.5940   23.2670 C   0  0  0  0  0  0  0  0  0  0  0  0
  -19.0030  -29.8130   23.8610 C   0  0  0  0  0  3  0  0  0  0  0  0
  -17.6460  -30.1810   23.9270 C   0  0  0  0  0  3  0  0  0  0  0  0
  -16.6610  -29.3200   23.4130 C   0  0  0  0  0  3  0  0  0  0  0  0
  -17.0350  -28.1000   22.8220 C   0  0  0  0  0  3  0  0  0  0  0  0
  -25.8920  -32.7110   24.2990 C   0  0  0  0  0  3  0  0  0  0  0  0
  -25.5590  -34.1200   24.5490 N   0  0  0  0  0  0  0  0  0  0  0  0
  -25.9160  -35.1370   23.7540 C   0  0  0  0  0  0  0  0  0  0  0  0
  -26.6300  -34.9910   22.7590 O   0  0  0  0  0  0  0  0  0  0  0  0
  -24.9260  -34.3080   25.3130 H   0  0  0  0  0  0  0  0  0  0  0  0
  -24.1850  -36.8900   23.2480 C   0  0  0  0  0  1  0  0  0  0  0  0
  -25.3990  -36.5390   24.1240 C   0  0  0  0  0  3  0  0  0  0  0  0
  -27.4880  -37.4960   24.9960 C   0  0  0  0  0  1  0  0  0  0  0  0
  -26.4250  -37.5980   23.9980 N   0  0  0  0  0  0  0  0  0  0  0  0
  -26.0030  -38.5190   24.0790 H   0  0  0  0  0  0  0  0  0  0  0  0
  -26.3210  -31.9920   25.6360 C   0  0  1  0  0  0  0  0  0  0  0  0
  -25.1570  -31.7660   26.6300 C   0  0  0  0  0  1  0  0  0  0  0  0
  -26.9490  -30.6130   25.3330 C   0  0  0  0  0  1  0  0  0  0  0  0
  -27.4060  -32.8270   26.3560 C   0  0  0  0  0  1  0  0  0  0  0  0
  -30.2210  -21.3280   19.4140 C   0  0  0  0  0  2  0  0  0  0  0  0
  -29.8480  -20.0340   20.2210 C   0  0  0  0  0  2  0  0  0  0  0  0
  -32.2870  -19.4190   20.3370 C   0  0  0  0  0  1  0  0  0  0  0  0
  -30.8800  -18.9390   20.3630 N   0  0  2  0  0  4  0  0  0  0  0  0
  -30.7620  -18.6480   21.3230 H   0  0  0  0  0  0  0  0  0  0  0  0
  -30.6570  -17.6400   19.6280 C   0  0  0  0  0  2  0  0  0  0  0  0
  -30.9230  -16.4980   21.9040 C   0  0  0  0  0  1  0  0  0  0  0  0
  -28.6750  -16.6160   20.7920 C   0  0  0  0  0  1  0  0  0  0  0  0
  -30.1870  -16.4150   20.5400 C   0  0  1  0  0  0  0  0  0  0  0  0
  -30.6310  -15.0210   19.8970 C   0  0  0  0  0  0  0  0  0  0  0  0
  -30.3670  -12.6900   19.0480 C   0  0  0  0  0  2  0  0  0  0  0  0
  -29.3730  -12.6230   17.8690 C   0  0  0  0  0  2  0  0  0  0  0  0
  -27.9270  -12.4590   18.3780 C   0  0  0  0  0  2  0  0  0  0  0  0
  -27.5870  -13.4570   19.5140 C   0  0  0  0  0  3  0  0  0  0  0  0
  -28.7000  -13.4480   20.5880 C   0  0  0  0  0  2  0  0  0  0  0  0
  -29.9680  -13.8110   19.9350 N   0  0  0  0  0  0  0  0  0  0  0  0
  -31.7020  -15.0770   19.2870 O   0  0  0  0  0  0  0  0  0  0  0  0
  -25.2470  -14.0820   20.3850 C   0  0  0  0  0  0  0  0  0  0  0  0
  -24.2050  -13.3150   20.8330 C   0  0  0  0  0  0  0  0  0  0  0  0
  -24.6650  -11.9640   20.7880 C   0  0  0  0  0  0  0  0  0  0  0  0
  -26.2720  -13.1940   20.0910 N   0  0  0  0  0  0  0  0  0  0  0  0
  -25.9290  -11.9160   20.3920 N   0  0  0  0  0  0  0  0  0  0  0  0
  -23.9500  -10.7060   21.0350 C   0  0  0  0  0  0  0  0  0  0  0  0
  -24.3320   -9.8320   22.0750 C   0  0  0  0  0  3  0  0  0  0  0  0
  -23.6130   -8.6390   22.3090 C   0  0  0  0  0  3  0  0  0  0  0  0
  -22.5010   -8.3120   21.5000 C   0  0  0  0  0  0  0  0  0  0  0  0
  -22.1400   -9.1750   20.4510 C   0  0  0  0  0  3  0  0  0  0  0  0
  -22.8590  -10.3570   20.2160 C   0  0  0  0  0  3  0  0  0  0  0  0
  -21.7590   -7.1650   21.6390 O   0  0  0  0  0  0  0  0  0  0  0  0
  -21.5310   -6.5980   22.8660 C   0  0  0  0  0  0  0  0  0  0  0  0
  -20.8570   -7.2920   23.8960 C   0  0  0  0  0  3  0  0  0  0  0  0
  -20.5800   -6.6440   25.1160 C   0  0  0  0  0  3  0  0  0  0  0  0
  -20.9690   -5.3060   25.3090 C   0  0  0  0  0  0  0  0  0  0  0  0
  -21.6400   -4.6130   24.2860 C   0  0  0  0  0  3  0  0  0  0  0  0
  -21.9160   -5.2550   23.0670 C   0  0  0  0  0  0  0  0  0  0  0  0
  -22.5420   -4.5760   22.0760 F   0  0  0  0  0  0  0  0  0  0  0  0
  -20.6980   -4.6830   26.4800 F   0  0  0  0  0  0  0  0  0  0  0  0
  -22.8300  -13.7990   21.1910 C   0  0  0  0  0  0  0  0  0  0  0  0
  -22.1630  -13.1180   22.1190 N   0  0  0  0  0  0  0  0  0  0  0  0
  -22.3570  -14.8180   20.6880 O   0  0  0  0  0  0  0  0  0  0  0  0
  -22.5620  -12.2970   22.5530 H   0  0  0  0  0  0  0  0  0  0  0  0
  -21.2420  -13.4230   22.3980 H   0  0  0  0  0  0  0  0  0  0  0  0
  -25.3870  -15.4520   20.1850 N   0  0  0  0  0  0  0  0  0  0  0  0
  -24.6150  -16.0840   20.3590 H   0  0  0  0  0  0  0  0  0  0  0  0
  -26.2060  -15.9230   19.8230 H   0  0  0  0  0  0  0  0  0  0  0  0
  1  3  1  0
  2  5  1  0
  2  1  2  0
  3  6  2  0
  4  6  1  0
  5  4  2  0
  8  2  1  0
  8  7  1  0
  9  3  1  0
  9 10  1  0
 11 22  2  0
 12 10  1  0
 12 17  1  0
 13 21  1  0
 13 23  1  0
 14 20  1  0
 14 16  1  0
 15 21  1  0
 16 15  1  0
 17 16  2  0
 18 19  1  0
 18 12  2  0
 19 14  2  0
 20 13  1  0
 21 11  1  0
 23 25  2  0
 24 23  1  0
 26 24  1  0
 27 36  2  0
 27 32  1  0
 28 24  1  0
 28 32  1  0
 29 28  1  0
 30 31  1  0
 30 29  1  0
 31 27  1  0
 32 33  2  0
 33 34  1  0
 35 34  2  0
 36 35  1  0
 37 11  1  0
 37 38  1  0
 37 47  1  0
 38 41  1  0
 39 43  1  0
 39 38  1  0
 40 39  2  0
 43 42  1  0
 45 46  1  0
 45 43  1  0
 45 44  1  0
 47 50  1  1
 47 48  1  0
 49 47  1  0
 51  4  1  0
 51 52  1  0
 52 54  1  0
 53 54  1  0
 54 55  1  1
 56 54  1  0
 56 59  1  0
 59 58  1  1
 59 57  1  0
 60 66  1  0
 60 59  1  0
 61 66  1  0
 62 63  1  0
 62 61  1  0
 64 63  1  0
 64 71  1  0
 64 65  1  0
 66 65  1  0
 67 60  2  0
 68 69  2  0
 69 88  1  0
 70 69  1  0
 70 73  1  0
 71 68  1  0
 71 72  1  0
 72 70  2  0
 73 74  1  0
 74 75  2  0
 76 79  1  0
 76 75  1  0
 77 76  2  0
 78 77  1  0
 78 73  2  0
 79 80  1  0
 80 85  2  0
 80 81  1  0
 81 82  2  0
 82 83  1  0
 83 87  1  0
 84 83  2  0
 85 84  1  0
 86 85  1  0
 88 89  1  0
 89 92  1  0
 89 91  1  0
 90 88  2  0
 93 94  1  0
 93 68  1  0
 95 93  1  0
M  ISO  4   9 101  10 101  59 100  60 100
M  END
>  <TORSDO>  (63) 
F 23

>  <SCORE>  (63) 
-11.141

>  <name>  (63) 
65

>  <ligand_id>  (63) 
65

>  <original_smiles>  (63) 
[H]c1c(C([H])([H])Oc2c([H])c([H])c3c(c2[H])C([H])([H])N(C(=O)C([H])(N([H])C(=O)C([H])(N([H])C([H])([H])[H])C([H])([H])[H])C(C([H])([H])[H])(C([H])([H])[H])C([H])([H])[H])C([H])(C(=O)N([H])C2([H])c4c([H])c([H])c([H])c([H])c4C([H])([H])C([H])([H])C2([H])[H])C3([H])[H])nc(C([H])([H])C([H])([H])[N+]([H])(C([H])([H])[H])C([H])([H])C(C(=O)N2C([H])([H])C([H])([H])C([H])([H])C([H])(n3nc(-c4c([H])c([H])c(Oc5c([H])c([H])c(F)c([H])c5F)c([H])c4[H])c(C(=O)N([H])[H])c3N([H])[H])C2([H])[H])(C([H])([H])[H])C([H])([H])[H])nc1C([H])([H])C([H])([H])[H]

>  <smiles>  (63) 
[H]c1c(C([H])([H])Oc2c([H])c([H])c3c(c2[H])C([H])([H])N(C(=O)C([H])(N([H])C(=O)C([H])(N([H])C([H])([H])[H])C([H])([H])[H])C(C([H])([H])[H])(C([H])([H])[H])C([H])([H])[H])C([H])(C(=O)N([H])C2([H])c4c([H])c([H])c([H])c([H])c4C([H])([H])C([H])([H])C2([H])[H])C3([H])[H])nc(C([H])([H])C([H])([H])[N+]([H])(C([H])([H])[H])C([H])([H])C(C(=O)N2C([H])([H])C([H])([H])C([H])([H])C([H])(n3nc(-c4c([H])c([H])c(Oc5c([H])c([H])c(F)c([H])c5F)c([H])c4[H])c(C(=O)N([H])[H])c3N([H])[H])C2([H])[H])(C([H])([H])[H])C([H])([H])[H])nc1C([H])([H])C([H])([H])[H]

$$$$
66:0:0
     RDKit          3D

 93101  0  0  1  0  0  0  0  0999 V2000
  -28.5650  -21.7190   18.3770 C   0  0  0  0  0  3  0  0  0  0  0  0
  -28.6320  -19.5870   18.1610 C   0  0  0  0  0  0  0  0  0  0  0  0
  -29.1440  -19.8520   19.4310 C   0  0  0  0  0  0  0  0  0  0  0  0
  -28.3370  -20.7720   17.4890 N   0  0  0  0  0  0  0  0  0  0  0  0
  -28.9900  -21.3050   19.5770 N   0  0  0  0  0  0  0  0  0  0  0  0
  -28.3320  -18.2710   17.4650 C   0  0  1  0  0  0  0  0  0  0  0  0
  -27.9350  -17.3210   18.3140 F   0  0  0  0  0  0  0  0  0  0  0  0
  -27.3450  -18.4090   16.5740 F   0  0  0  0  0  0  0  0  0  0  0  0
  -29.3920  -17.8180   16.7950 F   0  0  0  0  0  0  0  0  0  0  0  0
  -29.5780  -18.7160   20.4350 C   0  0  0  0  0  2  0  0  0  0  0  0
  -30.4050  -17.4000   19.9120 C   0  0  0  0  0  2  0  0  0  0  0  0
  -30.8800  -14.8430   20.0870 C   0  0  0  0  0  0  0  0  0  0  0  0
  -30.5870  -12.6270   18.9480 C   0  0  0  0  0  2  0  0  0  0  0  0
  -29.6010  -12.7810   17.7670 C   0  0  0  0  0  2  0  0  0  0  0  0
  -28.1460  -12.6060   18.2420 C   0  0  0  0  0  2  0  0  0  0  0  0
  -27.8410  -13.4240   19.5230 C   0  0  0  0  0  3  0  0  0  0  0  0
  -28.9390  -13.2250   20.5850 C   0  0  0  0  0  2  0  0  0  0  0  0
  -30.2170  -13.6320   19.9790 N   0  0  0  0  0  0  0  0  0  0  0  0
  -31.9970  -14.9530   19.5690 O   0  0  0  0  0  0  0  0  0  0  0  0
  -29.7140  -16.0570   21.8950 C   0  0  0  0  0  1  0  0  0  0  0  0
  -30.2030  -15.9970   20.5130 N   0  0  0  0  0  0  0  0  0  0  0  0
  -25.4800  -14.0090   20.3390 C   0  0  0  0  0  0  0  0  0  0  0  0
  -24.4280  -13.2300   20.7390 C   0  0  0  0  0  0  0  0  0  0  0  0
  -24.8880  -11.8790   20.6740 C   0  0  0  0  0  0  0  0  0  0  0  0
  -26.5140  -13.1310   20.0570 N   0  0  0  0  0  0  0  0  0  0  0  0
  -26.1670  -11.8440   20.3200 N   0  0  0  0  0  0  0  0  0  0  0  0
  -24.1680  -10.6140   20.8760 C   0  0  0  0  0  0  0  0  0  0  0  0
  -24.5820   -9.6730   21.8430 C   0  0  0  0  0  3  0  0  0  0  0  0
  -23.8610   -8.4750   22.0300 C   0  0  0  0  0  3  0  0  0  0  0  0
  -22.7110   -8.2090   21.2510 C   0  0  0  0  0  0  0  0  0  0  0  0
  -22.3160   -9.1390   20.2730 C   0  0  0  0  0  3  0  0  0  0  0  0
  -23.0380  -10.3290   20.0840 C   0  0  0  0  0  3  0  0  0  0  0  0
  -21.9610   -7.0630   21.3470 O   0  0  0  0  0  0  0  0  0  0  0  0
  -21.8110   -6.3970   22.5370 C   0  0  0  0  0  0  0  0  0  0  0  0
  -21.2680   -7.0250   23.6790 C   0  0  0  0  0  3  0  0  0  0  0  0
  -21.0680   -6.2860   24.8610 C   0  0  0  0  0  3  0  0  0  0  0  0
  -21.4010   -4.9190   24.9020 C   0  0  0  0  0  0  0  0  0  0  0  0
  -21.9350   -4.2890   23.7640 C   0  0  0  0  0  3  0  0  0  0  0  0
  -22.1360   -5.0260   22.5830 C   0  0  0  0  0  0  0  0  0  0  0  0
  -22.6320   -4.4100   21.4840 F   0  0  0  0  0  0  0  0  0  0  0  0
  -21.2000   -4.2050   26.0350 F   0  0  0  0  0  0  0  0  0  0  0  0
  -23.0410  -13.7040   21.0650 C   0  0  0  0  0  0  0  0  0  0  0  0
  -22.3470  -13.0060   21.9580 N   0  0  0  0  0  0  0  0  0  0  0  0
  -22.5830  -14.7290   20.5640 O   0  0  0  0  0  0  0  0  0  0  0  0
  -22.7300  -12.1810   22.3950 H   0  0  0  0  0  0  0  0  0  0  0  0
  -21.4190  -13.3110   22.2150 H   0  0  0  0  0  0  0  0  0  0  0  0
  -25.6370  -15.3810   20.1700 N   0  0  0  0  0  0  0  0  0  0  0  0
  -24.8670  -16.0280   20.2910 H   0  0  0  0  0  0  0  0  0  0  0  0
  -26.4720  -15.8220   19.8030 H   0  0  0  0  0  0  0  0  0  0  0  0
  -29.1180  -22.3060   20.7010 C   0  0  0  0  0  2  0  0  0  0  0  0
  -29.3400  -23.9010   20.3980 C   0  0  0  0  0  3  0  0  0  0  0  0
  -28.1420  -24.9660   20.1940 C   0  0  0  0  0  3  0  0  0  0  0  0
  -28.3730  -26.4540   20.2770 O   0  0  0  0  0  0  0  0  0  0  0  0
  -24.6170  -31.9290   23.2480 C   0  0  0  0  0  0  0  0  0  0  0  0
  -27.2620  -27.3330   20.2210 C   0  0  0  0  0  0  0  0  0  0  0  0
  -23.4300  -30.5240   21.6040 C   0  0  0  0  0  3  0  0  0  0  0  0
  -24.8950  -28.9700   20.1910 C   0  0  0  0  0  0  0  0  0  0  0  0
  -25.9740  -30.8390   21.4390 C   0  0  0  0  0  2  0  0  0  0  0  0
  -26.0640  -29.4550   20.7940 C   0  0  0  0  0  0  0  0  0  0  0  0
  -27.2480  -28.6500   20.7950 C   0  0  0  0  0  3  0  0  0  0  0  0
  -26.0640  -26.9140   19.5950 C   0  0  0  0  0  3  0  0  0  0  0  0
  -24.9020  -27.7080   19.5820 C   0  0  0  0  0  3  0  0  0  0  0  0
  -23.6600  -29.8480   20.2270 C   0  0  0  0  0  2  0  0  0  0  0  0
  -24.6920  -31.1150   22.1530 N   0  0  0  0  0  0  0  0  0  0  0  0
  -23.5290  -32.2050   23.7730 O   0  0  0  0  0  0  0  0  0  0  0  0
  -22.7630  -29.5070   22.5630 C   0  0  0  0  0  0  0  0  0  0  0  0
  -21.4390  -29.3180   22.4240 N   0  0  0  0  0  0  0  0  0  0  0  0
  -23.4370  -28.8920   23.3930 O   0  0  0  0  0  0  0  0  0  0  0  0
  -20.9540  -29.8670   21.7300 H   0  0  0  0  0  0  0  0  0  0  0  0
  -18.0730  -28.0730   22.8870 C   0  0  0  0  0  0  0  0  0  0  0  0
  -20.6230  -28.3780   23.1950 C   0  0  0  0  0  3  0  0  0  0  0  0
  -20.7580  -26.9400   22.6410 C   0  0  0  0  0  2  0  0  0  0  0  0
  -19.6780  -26.5850   21.6140 C   0  0  0  0  0  2  0  0  0  0  0  0
  -18.2830  -26.7180   22.2320 C   0  0  0  0  0  2  0  0  0  0  0  0
  -19.1720  -28.8580   23.3260 C   0  0  0  0  0  0  0  0  0  0  0  0
  -18.9250  -30.1230   23.9020 C   0  0  0  0  0  3  0  0  0  0  0  0
  -17.6100  -30.6040   24.0430 C   0  0  0  0  0  3  0  0  0  0  0  0
  -16.5250  -29.8200   23.6200 C   0  0  0  0  0  3  0  0  0  0  0  0
  -16.7570  -28.5550   23.0470 C   0  0  0  0  0  3  0  0  0  0  0  0
  -25.8940  -32.5720   23.8720 C   0  0  0  0  0  3  0  0  0  0  0  0
  -25.5720  -33.9670   24.2090 N   0  0  0  0  0  0  0  0  0  0  0  0
  -25.8930  -35.0270   23.4550 C   0  0  0  0  0  0  0  0  0  0  0  0
  -26.5620  -34.9320   22.4220 O   0  0  0  0  0  0  0  0  0  0  0  0
  -24.9860  -34.1130   25.0180 H   0  0  0  0  0  0  0  0  0  0  0  0
  -24.1530  -36.8090   23.1050 C   0  0  0  0  0  1  0  0  0  0  0  0
  -25.3940  -36.4090   23.9180 C   0  0  0  0  0  3  0  0  0  0  0  0
  -27.5200  -37.3060   24.7580 C   0  0  0  0  0  1  0  0  0  0  0  0
  -26.4190  -37.4710   23.8130 N   0  0  0  0  0  0  0  0  0  0  0  0
  -26.0050  -38.3860   23.9640 H   0  0  0  0  0  0  0  0  0  0  0  0
  -26.4130  -31.8020   25.1490 C   0  0  1  0  0  0  0  0  0  0  0  0
  -25.3180  -31.5550   26.2120 C   0  0  0  0  0  1  0  0  0  0  0  0
  -27.0110  -30.4310   24.7590 C   0  0  0  0  0  1  0  0  0  0  0  0
  -27.5560  -32.6020   25.8150 C   0  0  0  0  0  1  0  0  0  0  0  0
  1  5  1  0
  2  3  2  0
  3  5  1  0
  3 10  1  0
  4  2  1  0
  4  1  2  0
  5 50  1  0
  6  2  1  0
  6  7  1  1
  8  6  1  0
  9  6  1  0
 11 10  1  0
 11 21  1  0
 12 21  1  0
 13 18  1  0
 14 15  1  0
 14 13  1  0
 16 15  1  0
 16 25  1  0
 16 17  1  0
 18 12  1  0
 18 17  1  0
 19 12  2  0
 21 20  1  0
 22 23  2  0
 23 42  1  0
 24 23  1  0
 24 27  1  0
 25 26  1  0
 25 22  1  0
 26 24  2  0
 27 28  1  0
 28 29  2  0
 30 33  1  0
 30 29  1  0
 31 30  2  0
 32 31  1  0
 32 27  2  0
 33 34  1  0
 34 39  2  0
 34 35  1  0
 35 36  2  0
 36 37  1  0
 37 41  1  0
 38 37  2  0
 39 38  1  0
 40 39  1  0
 42 43  1  0
 43 46  1  0
 43 45  1  0
 44 42  2  0
 47 48  1  0
 47 22  1  0
 49 47  1  0
 51 50  1  0
 52 53  1  0
 52 51  2  0
 54 65  2  0
 55 53  1  0
 55 60  1  0
 56 64  1  0
 56 66  1  0
 57 63  1  0
 57 59  1  0
 58 64  1  0
 59 60  2  0
 59 58  1  0
 61 55  2  0
 62 61  1  0
 62 57  2  0
 63 56  1  0
 64 54  1  0
 66 68  2  0
 67 66  1  0
 69 67  1  0
 70 79  2  0
 70 75  1  0
 71 67  1  0
 71 75  1  0
 72 71  1  0
 73 74  1  0
 73 72  1  0
 74 70  1  0
 75 76  2  0
 76 77  1  0
 78 77  2  0
 79 78  1  0
 80 54  1  0
 80 81  1  0
 80 90  1  0
 81 84  1  0
 82 86  1  0
 82 81  1  0
 83 82  2  0
 86 85  1  0
 88 86  1  0
 88 89  1  0
 88 87  1  0
 90 93  1  1
 90 91  1  0
 92 90  1  0
M  ISO  4  12 100  21 100  52 101  53 101
M  END
>  <TORSDO>  (64) 
F 22

>  <SCORE>  (64) 
-12.681

>  <name>  (64) 
66

>  <ligand_id>  (64) 
66

>  <original_smiles>  (64) 
[H]c1c([H])c([H])c2c(c1[H])C([H])([H])C([H])([H])C([H])([H])C2([H])N([H])C(=O)C1([H])N(C(=O)C([H])(N([H])C(=O)C([H])(N([H])C([H])([H])[H])C([H])([H])[H])C(C([H])([H])[H])(C([H])([H])[H])C([H])([H])[H])C([H])([H])c2c([H])c(OC([H])([H])C([H])([H])C([H])([H])n3c([H])nc(C(F)(F)F)c3C([H])([H])C([H])([H])N(C(=O)N3C([H])([H])C([H])([H])C([H])([H])C([H])(n4nc(-c5c([H])c([H])c(Oc6c([H])c([H])c(F)c([H])c6F)c([H])c5[H])c(C(=O)N([H])[H])c4N([H])[H])C3([H])[H])C([H])([H])[H])c([H])c([H])c2C1([H])[H]

>  <smiles>  (64) 
[H]c1c([H])c([H])c2c(c1[H])C([H])([H])C([H])([H])C([H])([H])C2([H])N([H])C(=O)C1([H])N(C(=O)C([H])(N([H])C(=O)C([H])(N([H])C([H])([H])[H])C([H])([H])[H])C(C([H])([H])[H])(C([H])([H])[H])C([H])([H])[H])C([H])([H])c2c([H])c(OC([H])([H])C([H])([H])C([H])([H])n3c([H])nc(C(F)(F)F)c3C([H])([H])C([H])([H])N(C(=O)N3C([H])([H])C([H])([H])C([H])([H])C([H])(n4nc(-c5c([H])c([H])c(Oc6c([H])c([H])c(F)c([H])c6F)c([H])c5[H])c(C(=O)N([H])[H])c4N([H])[H])C3([H])[H])C([H])([H])[H])c([H])c([H])c2C1([H])[H]

$$$$
67:0:0
     RDKit          3D

 86 94  0  0  1  0  0  0  0  0999 V2000
  -30.6230  -20.5630   20.7460 C   0  0  0  0  0  3  0  0  0  0  0  0
  -29.3600  -21.0040   20.1960 C   0  0  0  0  0  0  0  0  0  0  0  0
  -30.8620  -19.2380   20.7690 N   0  0  0  0  0  0  0  0  0  0  0  0
  -28.8460  -19.7290   19.8940 N   0  0  0  0  0  0  0  0  0  0  0  0
  -29.7880  -18.6000   20.2050 N   0  0  0  0  0  0  0  0  0  0  0  0
  -29.1920  -16.7640   21.8450 C   0  0  0  0  0  1  0  0  0  0  0  0
  -29.5480  -16.9160   20.3490 C   0  0  0  0  0  3  0  0  0  0  0  0
  -30.4190  -15.4060   19.9170 C   0  0  0  0  0  0  0  0  0  0  0  0
  -30.4090  -12.9700   18.9310 C   0  0  0  0  0  2  0  0  0  0  0  0
  -29.3980  -12.7850   17.7640 C   0  0  0  0  0  2  0  0  0  0  0  0
  -27.9830  -12.4760   18.2880 C   0  0  0  0  0  2  0  0  0  0  0  0
  -27.6090  -13.3840   19.4820 C   0  0  0  0  0  3  0  0  0  0  0  0
  -28.7340  -13.4770   20.5280 C   0  0  0  0  0  2  0  0  0  0  0  0
  -29.9160  -14.0610   19.8600 N   0  0  0  0  0  0  0  0  0  0  0  0
  -31.6030  -15.4390   19.5370 O   0  0  0  0  0  0  0  0  0  0  0  0
  -25.3020  -13.9010   20.4390 C   0  0  0  0  0  0  0  0  0  0  0  0
  -24.2730  -13.1050   20.8590 C   0  0  0  0  0  0  0  0  0  0  0  0
  -24.7400  -11.7600   20.7430 C   0  0  0  0  0  0  0  0  0  0  0  0
  -26.3230  -13.0400   20.0780 N   0  0  0  0  0  0  0  0  0  0  0  0
  -26.0040  -11.7440   20.3300 N   0  0  0  0  0  0  0  0  0  0  0  0
  -24.0310  -10.4880   20.9410 C   0  0  0  0  0  0  0  0  0  0  0  0
  -24.4960   -9.5170   21.8550 C   0  0  0  0  0  3  0  0  0  0  0  0
  -23.7840   -8.3120   22.0430 C   0  0  0  0  0  3  0  0  0  0  0  0
  -22.5930   -8.0700   21.3180 C   0  0  0  0  0  0  0  0  0  0  0  0
  -22.1490   -9.0300   20.3910 C   0  0  0  0  0  3  0  0  0  0  0  0
  -22.8610  -10.2260   20.2020 C   0  0  0  0  0  3  0  0  0  0  0  0
  -21.8510   -6.9180   21.4150 O   0  0  0  0  0  0  0  0  0  0  0  0
  -21.7840   -6.2010   22.5830 C   0  0  0  0  0  0  0  0  0  0  0  0
  -21.3190   -6.7760   23.7850 C   0  0  0  0  0  3  0  0  0  0  0  0
  -21.2010   -5.9840   24.9440 C   0  0  0  0  0  3  0  0  0  0  0  0
  -21.5390   -4.6190   24.9030 C   0  0  0  0  0  0  0  0  0  0  0  0
  -21.9980   -4.0430   23.7050 C   0  0  0  0  0  3  0  0  0  0  0  0
  -22.1170   -4.8320   22.5480 C   0  0  0  0  0  0  0  0  0  0  0  0
  -22.5390   -4.2660   21.3910 F   0  0  0  0  0  0  0  0  0  0  0  0
  -21.4200   -3.8560   26.0140 F   0  0  0  0  0  0  0  0  0  0  0  0
  -22.8990  -13.5650   21.2480 C   0  0  0  0  0  0  0  0  0  0  0  0
  -22.2390  -12.8400   22.1430 N   0  0  0  0  0  0  0  0  0  0  0  0
  -22.4220  -14.6050   20.7920 O   0  0  0  0  0  0  0  0  0  0  0  0
  -22.6410  -12.0010   22.5340 H   0  0  0  0  0  0  0  0  0  0  0  0
  -21.3180  -13.1280   22.4420 H   0  0  0  0  0  0  0  0  0  0  0  0
  -25.4470  -15.2790   20.3040 N   0  0  0  0  0  0  0  0  0  0  0  0
  -24.6890  -15.9210   20.5080 H   0  0  0  0  0  0  0  0  0  0  0  0
  -26.2600  -15.7380   19.9170 H   0  0  0  0  0  0  0  0  0  0  0  0
  -28.9740  -22.6990   19.7810 C   0  0  0  0  0  2  0  0  0  0  0  0
  -28.2210  -24.2040   20.4920 C   0  0  0  0  0  2  0  0  0  0  0  0
  -28.3370  -25.8570   20.2410 O   0  0  0  0  0  0  0  0  0  0  0  0
  -24.6640  -31.8470   23.1800 C   0  0  0  0  0  0  0  0  0  0  0  0
  -27.2910  -26.9360   20.2390 C   0  0  0  0  0  0  0  0  0  0  0  0
  -23.4970  -30.4250   21.5460 C   0  0  0  0  0  3  0  0  0  0  0  0
  -24.9720  -28.8110   20.1560 C   0  0  0  0  0  0  0  0  0  0  0  0
  -26.0650  -30.6520   21.4170 C   0  0  0  0  0  2  0  0  0  0  0  0
  -26.1550  -29.2320   20.7780 C   0  0  0  0  0  0  0  0  0  0  0  0
  -27.3090  -28.3200   20.7840 C   0  0  0  0  0  3  0  0  0  0  0  0
  -26.0720  -26.6700   19.5770 C   0  0  0  0  0  3  0  0  0  0  0  0
  -24.9570  -27.5510   19.5350 C   0  0  0  0  0  3  0  0  0  0  0  0
  -23.7470  -29.7270   20.1800 C   0  0  0  0  0  2  0  0  0  0  0  0
  -24.7640  -31.0030   22.1010 N   0  0  0  0  0  0  0  0  0  0  0  0
  -23.5680  -32.1320   23.6890 O   0  0  0  0  0  0  0  0  0  0  0  0
  -22.8020  -29.4330   22.5160 C   0  0  0  0  0  0  0  0  0  0  0  0
  -21.4720  -29.2690   22.3940 N   0  0  0  0  0  0  0  0  0  0  0  0
  -23.4680  -28.8110   23.3460 O   0  0  0  0  0  0  0  0  0  0  0  0
  -20.9860  -29.8230   21.7020 H   0  0  0  0  0  0  0  0  0  0  0  0
  -18.0890  -28.0600   22.9170 C   0  0  0  0  0  0  0  0  0  0  0  0
  -20.6500  -28.3330   23.1690 C   0  0  0  0  0  3  0  0  0  0  0  0
  -20.7520  -26.8990   22.5960 C   0  0  0  0  0  2  0  0  0  0  0  0
  -19.6470  -26.5720   21.5860 C   0  0  0  0  0  2  0  0  0  0  0  0
  -18.2680  -26.7120   22.2360 C   0  0  0  0  0  2  0  0  0  0  0  0
  -19.2080  -28.8270   23.3400 C   0  0  0  0  0  0  0  0  0  0  0  0
  -18.9860  -30.0850   23.9400 C   0  0  0  0  0  3  0  0  0  0  0  0
  -17.6790  -30.5780   24.1170 C   0  0  0  0  0  3  0  0  0  0  0  0
  -16.5760  -29.8080   23.7070 C   0  0  0  0  0  3  0  0  0  0  0  0
  -16.7810  -28.5510   23.1130 C   0  0  0  0  0  3  0  0  0  0  0  0
  -25.9220  -32.5090   23.8180 C   0  0  0  0  0  3  0  0  0  0  0  0
  -26.4320  -31.7540   25.1080 C   0  0  1  0  0  0  0  0  0  0  0  0
  -25.3290  -31.5100   26.1650 C   0  0  0  0  0  1  0  0  0  0  0  0
  -27.0380  -30.3810   24.7400 C   0  0  0  0  0  1  0  0  0  0  0  0
  -27.5650  -32.5670   25.7770 C   0  0  0  0  0  1  0  0  0  0  0  0
  -25.5820  -33.9040   24.1540 N   0  0  0  0  0  0  0  0  0  0  0  0
  -25.9030  -34.9730   23.4130 C   0  0  0  0  0  0  0  0  0  0  0  0
  -26.5790  -34.8910   22.3840 O   0  0  0  0  0  0  0  0  0  0  0  0
  -24.9800  -34.0400   24.9520 H   0  0  0  0  0  0  0  0  0  0  0  0
  -24.1540  -36.7550   23.0770 C   0  0  0  0  0  1  0  0  0  0  0  0
  -25.3990  -36.3530   23.8860 C   0  0  0  0  0  3  0  0  0  0  0  0
  -27.5180  -37.2610   24.7320 C   0  0  0  0  0  1  0  0  0  0  0  0
  -26.4190  -37.4210   23.7850 N   0  0  0  0  0  0  0  0  0  0  0  0
  -25.9990  -38.3350   23.9370 H   0  0  0  0  0  0  0  0  0  0  0  0
  1  3  2  0
  2  1  1  0
  4  2  2  0
  4  5  1  0
  5  7  1  0
  5  3  1  0
  7  6  1  0
  8  7  1  0
  9 14  1  0
 10 11  1  0
 10  9  1  0
 12 11  1  0
 12 19  1  0
 12 13  1  0
 14  8  1  0
 14 13  1  0
 15  8  2  0
 16 17  2  0
 17 36  1  0
 18 17  1  0
 18 21  1  0
 19 20  1  0
 19 16  1  0
 20 18  2  0
 21 22  1  0
 22 23  2  0
 24 27  1  0
 24 23  1  0
 25 24  2  0
 26 25  1  0
 26 21  2  0
 27 28  1  0
 28 29  1  0
 29 30  2  0
 31 30  1  0
 31 35  1  0
 32 31  2  0
 33 28  2  0
 33 32  1  0
 34 33  1  0
 36 37  1  0
 37 40  1  0
 37 39  1  0
 38 36  2  0
 41 16  1  0
 41 42  1  0
 43 41  1  0
 44  2  1  0
 44 45  1  0
 46 45  1  0
 47 58  2  0
 48 46  1  0
 48 53  1  0
 49 57  1  0
 49 59  1  0
 50 56  1  0
 50 52  1  0
 51 57  1  0
 52 53  2  0
 52 51  1  0
 54 48  2  0
 55 54  1  0
 55 50  2  0
 56 49  1  0
 57 47  1  0
 59 61  2  0
 60 59  1  0
 62 60  1  0
 63 72  2  0
 63 68  1  0
 64 60  1  0
 64 68  1  0
 65 64  1  0
 66 67  1  0
 66 65  1  0
 67 63  1  0
 68 69  2  0
 69 70  1  0
 71 70  2  0
 72 71  1  0
 73 47  1  0
 73 78  1  0
 73 74  1  0
 74 77  1  1
 74 75  1  0
 76 74  1  0
 78 81  1  0
 79 83  1  0
 79 78  1  0
 80 79  2  0
 83 82  1  0
 85 83  1  0
 85 86  1  0
 85 84  1  0
M  ISO  4   7 100   8 100  45 101  46 101
M  END
>  <TORSDO>  (65) 
F 19

>  <SCORE>  (65) 
-15.669

>  <name>  (65) 
67

>  <ligand_id>  (65) 
67

>  <original_smiles>  (65) 
[H]c1nn(C([H])(C(=O)N2C([H])([H])C([H])([H])C([H])([H])C([H])(n3nc(-c4c([H])c([H])c(Oc5c([H])c([H])c(F)c([H])c5F)c([H])c4[H])c(C(=O)N([H])[H])c3N([H])[H])C2([H])[H])C([H])([H])[H])nc1C([H])([H])C([H])([H])Oc1c([H])c([H])c2c(c1[H])C([H])([H])N(C(=O)C([H])(N([H])C(=O)C([H])(N([H])C([H])([H])[H])C([H])([H])[H])C(C([H])([H])[H])(C([H])([H])[H])C([H])([H])[H])C([H])(C(=O)N([H])C1([H])c3c([H])c([H])c([H])c([H])c3C([H])([H])C([H])([H])C1([H])[H])C2([H])[H]

>  <smiles>  (65) 
[H]c1nn(C([H])(C(=O)N2C([H])([H])C([H])([H])C([H])([H])C([H])(n3nc(-c4c([H])c([H])c(Oc5c([H])c([H])c(F)c([H])c5F)c([H])c4[H])c(C(=O)N([H])[H])c3N([H])[H])C2([H])[H])C([H])([H])[H])nc1C([H])([H])C([H])([H])Oc1c([H])c([H])c2c(c1[H])C([H])([H])N(C(=O)C([H])(N([H])C(=O)C([H])(N([H])C([H])([H])[H])C([H])([H])[H])C(C([H])([H])[H])(C([H])([H])[H])C([H])([H])[H])C([H])(C(=O)N([H])C1([H])c3c([H])c([H])c([H])c([H])c3C([H])([H])C([H])([H])C1([H])[H])C2([H])[H]

$$$$
68:0:0
     RDKit          3D

 93101  0  0  1  0  0  0  0  0999 V2000
  -28.9750  -20.0930   18.3300 C   0  0  0  0  0  3  0  0  0  0  0  0
  -27.9170  -19.1340   19.9860 C   0  0  0  0  0  3  0  0  0  0  0  0
  -28.2050  -20.3860   19.4850 C   0  0  0  0  0  0  0  0  0  0  0  0
  -29.1600  -18.8000   18.1390 N   0  0  0  0  0  0  0  0  0  0  0  0
  -28.5320  -18.1880   19.1620 N   0  0  0  0  0  0  0  0  0  0  0  0
  -27.8310  -21.8060   19.9060 C   0  0  0  0  0  2  0  0  0  0  0  0
  -28.7650  -22.4210   20.9780 C   0  0  0  0  0  2  0  0  0  0  0  0
  -29.1770  -23.9170   20.7780 C   0  0  0  0  0  3  0  0  0  0  0  0
  -28.0080  -24.9030   20.5380 C   0  0  0  0  0  3  0  0  0  0  0  0
  -28.3250  -26.3260   20.4540 O   0  0  0  0  0  0  0  0  0  0  0  0
  -24.5990  -31.7670   23.2320 C   0  0  0  0  0  0  0  0  0  0  0  0
  -27.2170  -27.1570   20.3500 C   0  0  0  0  0  0  0  0  0  0  0  0
  -23.3930  -30.3360   21.6170 C   0  0  0  0  0  3  0  0  0  0  0  0
  -24.8480  -28.7290   20.2760 C   0  0  0  0  0  0  0  0  0  0  0  0
  -25.9360  -30.6400   21.4460 C   0  0  0  0  0  2  0  0  0  0  0  0
  -26.0160  -29.2480   20.8550 C   0  0  0  0  0  0  0  0  0  0  0  0
  -27.2040  -28.4700   20.8920 C   0  0  0  0  0  3  0  0  0  0  0  0
  -26.0320  -26.6830   19.7460 C   0  0  0  0  0  3  0  0  0  0  0  0
  -24.8520  -27.4370   19.7330 C   0  0  0  0  0  3  0  0  0  0  0  0
  -23.6180  -29.6060   20.2660 C   0  0  0  0  0  2  0  0  0  0  0  0
  -24.6600  -30.9320   22.1530 N   0  0  0  0  0  0  0  0  0  0  0  0
  -23.5160  -32.0670   23.7530 O   0  0  0  0  0  0  0  0  0  0  0  0
  -22.7200  -29.3490   22.6000 C   0  0  0  0  0  0  0  0  0  0  0  0
  -21.3990  -29.1640   22.4570 N   0  0  0  0  0  0  0  0  0  0  0  0
  -23.3880  -28.7490   23.4470 O   0  0  0  0  0  0  0  0  0  0  0  0
  -20.9190  -29.6990   21.7480 H   0  0  0  0  0  0  0  0  0  0  0  0
  -18.0170  -27.9950   22.9610 C   0  0  0  0  0  0  0  0  0  0  0  0
  -20.5720  -28.2530   23.2510 C   0  0  0  0  0  3  0  0  0  0  0  0
  -20.6770  -26.8040   22.7230 C   0  0  0  0  0  2  0  0  0  0  0  0
  -19.5830  -26.4510   21.7090 C   0  0  0  0  0  2  0  0  0  0  0  0
  -18.1930  -26.6260   22.3280 C   0  0  0  0  0  2  0  0  0  0  0  0
  -19.1350  -28.7660   23.3770 C   0  0  0  0  0  0  0  0  0  0  0  0
  -18.9180  -30.0500   23.9270 C   0  0  0  0  0  3  0  0  0  0  0  0
  -17.6160  -30.5640   24.0640 C   0  0  0  0  0  3  0  0  0  0  0  0
  -16.5120  -29.7940   23.6600 C   0  0  0  0  0  3  0  0  0  0  0  0
  -16.7110  -28.5110   23.1160 C   0  0  0  0  0  3  0  0  0  0  0  0
  -25.8870  -32.4030   23.8400 C   0  0  0  0  0  3  0  0  0  0  0  0
  -25.5670  -33.7980   24.1820 N   0  0  0  0  0  0  0  0  0  0  0  0
  -25.8500  -34.8560   23.4110 C   0  0  0  0  0  0  0  0  0  0  0  0
  -26.4840  -34.7630   22.3570 O   0  0  0  0  0  0  0  0  0  0  0  0
  -25.0040  -33.9420   25.0070 H   0  0  0  0  0  0  0  0  0  0  0  0
  -24.0790  -36.6290   23.1160 C   0  0  0  0  0  1  0  0  0  0  0  0
  -25.3520  -36.2360   23.8820 C   0  0  0  0  0  3  0  0  0  0  0  0
  -27.4930  -37.1720   24.6410 C   0  0  0  0  0  1  0  0  0  0  0  0
  -26.3590  -37.3070   23.7350 N   0  0  0  0  0  0  0  0  0  0  0  0
  -25.9390  -38.2200   23.8880 H   0  0  0  0  0  0  0  0  0  0  0  0
  -26.4230  -31.6280   25.1070 C   0  0  1  0  0  0  0  0  0  0  0  0
  -25.3470  -31.3710   26.1870 C   0  0  0  0  0  1  0  0  0  0  0  0
  -27.0380  -30.2610   24.7090 C   0  0  0  0  0  1  0  0  0  0  0  0
  -27.5520  -32.4480   25.7780 C   0  0  0  0  0  1  0  0  0  0  0  0
  -28.4410  -16.7220   19.0890 C   0  0  0  0  0  2  0  0  0  0  0  0
  -28.6940  -15.8970   20.3800 C   0  0  0  0  0  2  0  0  0  0  0  0
  -30.4470  -14.2390   19.6640 C   0  0  0  0  0  0  0  0  0  0  0  0
  -30.0240  -12.0470   18.5700 C   0  0  0  0  0  2  0  0  0  0  0  0
  -28.9380  -12.1750   17.4830 C   0  0  0  0  0  2  0  0  0  0  0  0
  -27.5320  -11.9830   18.0830 C   0  0  0  0  0  2  0  0  0  0  0  0
  -27.3350  -12.8530   19.3490 C   0  0  0  0  0  3  0  0  0  0  0  0
  -28.5220  -12.6880   20.3290 C   0  0  0  0  0  2  0  0  0  0  0  0
  -29.7460  -13.0600   19.6140 N   0  0  0  0  0  0  0  0  0  0  0  0
  -31.4610  -14.3540   18.9650 O   0  0  0  0  0  0  0  0  0  0  0  0
  -30.0570  -15.2730   20.5120 N   0  0  0  0  0  0  0  0  0  0  0  0
  -25.0750  -13.4840   20.4010 C   0  0  0  0  0  0  0  0  0  0  0  0
  -24.0610  -12.7260   20.9090 C   0  0  0  0  0  0  0  0  0  0  0  0
  -24.4890  -11.3670   20.7820 C   0  0  0  0  0  0  0  0  0  0  0  0
  -26.0590  -12.5940   20.0040 N   0  0  0  0  0  0  0  0  0  0  0  0
  -25.7200  -11.3140   20.2910 N   0  0  0  0  0  0  0  0  0  0  0  0
  -23.7810  -10.1130   21.0530 C   0  0  0  0  0  0  0  0  0  0  0  0
  -24.2920   -9.1650   21.9690 C   0  0  0  0  0  3  0  0  0  0  0  0
  -23.5940   -7.9670   22.2220 C   0  0  0  0  0  3  0  0  0  0  0  0
  -22.3700   -7.7070   21.5610 C   0  0  0  0  0  0  0  0  0  0  0  0
  -21.8780   -8.6420   20.6330 C   0  0  0  0  0  3  0  0  0  0  0  0
  -22.5750   -9.8350   20.3790 C   0  0  0  0  0  3  0  0  0  0  0  0
  -21.6360   -6.5580   21.7210 O   0  0  0  0  0  0  0  0  0  0  0  0
  -21.6450   -5.8530   22.8990 C   0  0  0  0  0  0  0  0  0  0  0  0
  -21.2230   -6.4290   24.1170 C   0  0  0  0  0  3  0  0  0  0  0  0
  -21.1820   -5.6500   25.2880 C   0  0  0  0  0  3  0  0  0  0  0  0
  -21.5530   -4.2920   25.2450 C   0  0  0  0  0  0  0  0  0  0  0  0
  -21.9640   -3.7130   24.0310 C   0  0  0  0  0  3  0  0  0  0  0  0
  -22.0080   -4.4930   22.8610 C   0  0  0  0  0  0  0  0  0  0  0  0
  -22.3870   -3.9250   21.6910 F   0  0  0  0  0  0  0  0  0  0  0  0
  -21.5090   -3.5370   26.3680 F   0  0  0  0  0  0  0  0  0  0  0  0
  -22.7230  -13.2110   21.3970 C   0  0  0  0  0  0  0  0  0  0  0  0
  -22.1120  -12.4950   22.3330 N   0  0  0  0  0  0  0  0  0  0  0  0
  -22.2310  -14.2600   20.9760 O   0  0  0  0  0  0  0  0  0  0  0  0
  -22.5230  -11.6480   22.6970 H   0  0  0  0  0  0  0  0  0  0  0  0
  -21.2110  -12.7920   22.6820 H   0  0  0  0  0  0  0  0  0  0  0  0
  -25.2400  -14.8570   20.2240 N   0  0  0  0  0  0  0  0  0  0  0  0
  -24.5170  -15.5250   20.4640 H   0  0  0  0  0  0  0  0  0  0  0  0
  -26.0280  -15.2800   19.7570 H   0  0  0  0  0  0  0  0  0  0  0  0
  -31.8120  -16.9850   19.9780 C   0  0  0  0  0  1  0  0  0  0  0  0
  -30.5100  -17.3010   22.0610 C   0  0  0  0  0  1  0  0  0  0  0  0
  -32.1500  -15.4470   21.9440 C   0  0  0  0  0  1  0  0  0  0  0  0
  -31.0890  -16.2140   21.1080 C   0  0  1  0  0  0  0  0  0  0  0  0
  1  3  1  0
  3  6  1  0
  3  2  2  0
  4  1  2  0
  4  5  1  0
  5  2  1  0
  6  7  1  0
  8  7  1  0
  9  8  2  0
 10  9  1  0
 11 22  2  0
 12 10  1  0
 12 17  1  0
 13 21  1  0
 13 23  1  0
 14 16  1  0
 15 21  1  0
 16 17  2  0
 16 15  1  0
 18 12  2  0
 19 18  1  0
 19 14  2  0
 20 14  1  0
 20 13  1  0
 21 11  1  0
 23 25  2  0
 24 23  1  0
 26 24  1  0
 27 36  2  0
 27 32  1  0
 28 24  1  0
 28 32  1  0
 29 28  1  0
 30 31  1  0
 30 29  1  0
 31 27  1  0
 32 33  2  0
 33 34  1  0
 35 34  2  0
 36 35  1  0
 37 11  1  0
 37 38  1  0
 37 47  1  0
 38 41  1  0
 39 43  1  0
 39 38  1  0
 40 39  2  0
 43 42  1  0
 45 43  1  0
 45 46  1  0
 45 44  1  0
 47 50  1  1
 47 48  1  0
 49 47  1  0
 51  5  1  0
 51 52  1  0
 52 61  1  0
 53 61  1  0
 54 59  1  0
 55 56  1  0
 55 54  1  0
 57 56  1  0
 57 65  1  0
 57 58  1  0
 59 53  1  0
 59 58  1  0
 60 53  2  0
 61 93  1  0
 62 63  2  0
 63 82  1  0
 64 63  1  0
 64 67  1  0
 65 66  1  0
 65 62  1  0
 66 64  2  0
 67 68  1  0
 68 69  2  0
 70 73  1  0
 70 69  1  0
 71 70  2  0
 72 71  1  0
 72 67  2  0
 73 74  1  0
 74 75  1  0
 75 76  2  0
 77 76  1  0
 77 81  1  0
 78 77  2  0
 79 74  2  0
 79 78  1  0
 80 79  1  0
 82 83  1  0
 83 86  1  0
 83 85  1  0
 84 82  2  0
 87 62  1  0
 87 88  1  0
 89 87  1  0
 93 90  1  6
 93 92  1  0
 93 91  1  0
M  ISO  4   9 101  10 101  53 100  61 100
M  END
>  <TORSDO>  (66) 
F 23

>  <SCORE>  (66) 
-10.938

>  <name>  (66) 
68

>  <ligand_id>  (66) 
68

>  <original_smiles>  (66) 
[H]c1nn(C([H])([H])C([H])([H])N(C(=O)N2C([H])([H])C([H])([H])C([H])([H])C([H])(n3nc(-c4c([H])c([H])c(Oc5c([H])c([H])c(F)c([H])c5F)c([H])c4[H])c(C(=O)N([H])[H])c3N([H])[H])C2([H])[H])C(C([H])([H])[H])(C([H])([H])[H])C([H])([H])[H])c([H])c1C([H])([H])C([H])([H])C([H])([H])C([H])([H])Oc1c([H])c([H])c2c(c1[H])C([H])([H])N(C(=O)C([H])(N([H])C(=O)C([H])(N([H])C([H])([H])[H])C([H])([H])[H])C(C([H])([H])[H])(C([H])([H])[H])C([H])([H])[H])C([H])(C(=O)N([H])C1([H])c3c([H])c([H])c([H])c([H])c3C([H])([H])C([H])([H])C1([H])[H])C2([H])[H]

>  <smiles>  (66) 
[H]c1nn(C([H])([H])C([H])([H])N(C(=O)N2C([H])([H])C([H])([H])C([H])([H])C([H])(n3nc(-c4c([H])c([H])c(Oc5c([H])c([H])c(F)c([H])c5F)c([H])c4[H])c(C(=O)N([H])[H])c3N([H])[H])C2([H])[H])C(C([H])([H])[H])(C([H])([H])[H])C([H])([H])[H])c([H])c1C([H])([H])C([H])([H])C([H])([H])C([H])([H])Oc1c([H])c([H])c2c(c1[H])C([H])([H])N(C(=O)C([H])(N([H])C(=O)C([H])(N([H])C([H])([H])[H])C([H])([H])[H])C(C([H])([H])[H])(C([H])([H])[H])C([H])([H])[H])C([H])(C(=O)N([H])C1([H])c3c([H])c([H])c([H])c([H])c3C([H])([H])C([H])([H])C1([H])[H])C2([H])[H]

$$$$
69:0:0
     RDKit          3D

 89 97  0  0  1  0  0  0  0  0999 V2000
  -27.3080  -19.3030   18.7150 C   0  0  0  0  0  0  0  0  0  0  0  0
  -29.1370  -18.8760   19.6740 C   0  0  0  0  0  3  0  0  0  0  0  0
  -26.0200  -19.1090   17.9950 C   0  0  0  0  0  1  0  0  0  0  0  0
  -28.1530  -18.2820   18.9920 N   0  0  0  0  0  0  0  0  0  0  0  0
  -27.6760  -20.4990   19.1410 N   0  0  0  0  0  2  0  0  0  0  0  0
  -28.8690  -20.3090   19.7650 N   0  0  0  0  0  0  0  0  0  0  0  0
  -30.2790  -17.7830   20.1020 C   0  0  0  0  0  2  0  0  0  0  0  0
  -30.6360  -15.0150   19.9920 C   0  0  0  0  0  0  0  0  0  0  0  0
  -30.4770  -12.6820   18.9490 C   0  0  0  0  0  2  0  0  0  0  0  0
  -29.4640  -12.6460   17.7780 C   0  0  0  0  0  2  0  0  0  0  0  0
  -28.0190  -12.4340   18.2810 C   0  0  0  0  0  2  0  0  0  0  0  0
  -27.6990  -13.3070   19.5220 C   0  0  0  0  0  3  0  0  0  0  0  0
  -28.8250  -13.2040   20.5700 C   0  0  0  0  0  2  0  0  0  0  0  0
  -30.0400  -13.7360   19.9220 N   0  0  0  0  0  0  0  0  0  0  0  0
  -31.7960  -15.0720   19.5580 O   0  0  0  0  0  0  0  0  0  0  0  0
  -28.9220  -16.1920   21.3890 C   0  0  0  0  0  1  0  0  0  0  0  0
  -29.9180  -16.2330   20.3130 N   0  0  0  0  0  0  0  0  0  0  0  0
  -25.3570  -13.8950   20.3770 C   0  0  0  0  0  0  0  0  0  0  0  0
  -24.3120  -13.1230   20.8000 C   0  0  0  0  0  0  0  0  0  0  0  0
  -24.7660  -11.7690   20.7280 C   0  0  0  0  0  0  0  0  0  0  0  0
  -26.3850  -13.0140   20.0810 N   0  0  0  0  0  0  0  0  0  0  0  0
  -26.0390  -11.7280   20.3510 N   0  0  0  0  0  0  0  0  0  0  0  0
  -24.0410  -10.5110   20.9360 C   0  0  0  0  0  0  0  0  0  0  0  0
  -24.4880   -9.5450   21.8660 C   0  0  0  0  0  3  0  0  0  0  0  0
  -23.7590   -8.3520   22.0630 C   0  0  0  0  0  3  0  0  0  0  0  0
  -22.5700   -8.1180   21.3320 C   0  0  0  0  0  0  0  0  0  0  0  0
  -22.1430   -9.0710   20.3910 C   0  0  0  0  0  3  0  0  0  0  0  0
  -22.8730  -10.2550   20.1920 C   0  0  0  0  0  3  0  0  0  0  0  0
  -21.8100   -6.9780   21.4420 O   0  0  0  0  0  0  0  0  0  0  0  0
  -21.7420   -6.2680   22.6130 C   0  0  0  0  0  0  0  0  0  0  0  0
  -21.2920   -6.8570   23.8150 C   0  0  0  0  0  3  0  0  0  0  0  0
  -21.1700   -6.0740   24.9800 C   0  0  0  0  0  3  0  0  0  0  0  0
  -21.4860   -4.7040   24.9430 C   0  0  0  0  0  0  0  0  0  0  0  0
  -21.9280   -4.1130   23.7460 C   0  0  0  0  0  3  0  0  0  0  0  0
  -22.0510   -4.8940   22.5830 C   0  0  0  0  0  0  0  0  0  0  0  0
  -22.4560   -4.3150   21.4270 F   0  0  0  0  0  0  0  0  0  0  0  0
  -21.3620   -3.9500   26.0610 F   0  0  0  0  0  0  0  0  0  0  0  0
  -22.9360  -13.6060   21.1510 C   0  0  0  0  0  0  0  0  0  0  0  0
  -22.2510  -12.9100   22.0520 N   0  0  0  0  0  0  0  0  0  0  0  0
  -22.4780  -14.6380   20.6630 O   0  0  0  0  0  0  0  0  0  0  0  0
  -22.6360  -12.0770   22.4730 H   0  0  0  0  0  0  0  0  0  0  0  0
  -21.3290  -13.2170   22.3260 H   0  0  0  0  0  0  0  0  0  0  0  0
  -25.5030  -15.2670   20.1960 N   0  0  0  0  0  0  0  0  0  0  0  0
  -24.7320  -15.9060   20.3440 H   0  0  0  0  0  0  0  0  0  0  0  0
  -26.3200  -15.7180   19.8030 H   0  0  0  0  0  0  0  0  0  0  0  0
  -29.3280  -21.6970   20.3860 C   0  0  0  0  0  2  0  0  0  0  0  0
  -28.8610  -23.2390   19.7720 C   0  0  0  0  0  2  0  0  0  0  0  0
  -28.4520  -24.6610   20.6230 C   0  0  0  0  0  2  0  0  0  0  0  0
  -28.5350  -26.1760   20.2180 O   0  0  0  0  0  0  0  0  0  0  0  0
  -24.5870  -31.7240   23.1720 C   0  0  0  0  0  0  0  0  0  0  0  0
  -27.4210  -27.1000   20.2160 C   0  0  0  0  0  0  0  0  0  0  0  0
  -23.4860  -30.2940   21.4930 C   0  0  0  0  0  3  0  0  0  0  0  0
  -25.0310  -28.7650   20.1160 C   0  0  0  0  0  0  0  0  0  0  0  0
  -26.0340  -30.6450   21.4060 C   0  0  0  0  0  2  0  0  0  0  0  0
  -26.1770  -29.2540   20.7560 C   0  0  0  0  0  0  0  0  0  0  0  0
  -27.3740  -28.4410   20.7810 C   0  0  0  0  0  3  0  0  0  0  0  0
  -26.2440  -26.7050   19.5500 C   0  0  0  0  0  3  0  0  0  0  0  0
  -25.0780  -27.5040   19.4970 C   0  0  0  0  0  3  0  0  0  0  0  0
  -23.7730  -29.6230   20.1230 C   0  0  0  0  0  2  0  0  0  0  0  0
  -24.7190  -30.9110   22.0800 N   0  0  0  0  0  0  0  0  0  0  0  0
  -23.4770  -31.9700   23.6680 O   0  0  0  0  0  0  0  0  0  0  0  0
  -22.8120  -29.2640   22.4340 C   0  0  0  0  0  0  0  0  0  0  0  0
  -21.4910  -29.0610   22.2760 N   0  0  0  0  0  0  0  0  0  0  0  0
  -23.4810  -28.6490   23.2680 O   0  0  0  0  0  0  0  0  0  0  0  0
  -21.0070  -29.6110   21.5800 H   0  0  0  0  0  0  0  0  0  0  0  0
  -18.1320  -27.7710   22.6980 C   0  0  0  0  0  0  0  0  0  0  0  0
  -20.6780  -28.0950   23.0220 C   0  0  0  0  0  3  0  0  0  0  0  0
  -20.8280  -26.6720   22.4350 C   0  0  0  0  0  2  0  0  0  0  0  0
  -19.7550  -26.3330   21.3950 C   0  0  0  0  0  2  0  0  0  0  0  0
  -18.3570  -26.4350   22.0110 C   0  0  0  0  0  2  0  0  0  0  0  0
  -19.2210  -28.5570   23.1580 C   0  0  0  0  0  0  0  0  0  0  0  0
  -18.9560  -29.8060   23.7610 C   0  0  0  0  0  3  0  0  0  0  0  0
  -17.6360  -30.2700   23.9090 C   0  0  0  0  0  3  0  0  0  0  0  0
  -16.5610  -29.4810   23.4640 C   0  0  0  0  0  3  0  0  0  0  0  0
  -16.8100  -28.2340   22.8640 C   0  0  0  0  0  3  0  0  0  0  0  0
  -25.8230  -32.4000   23.8410 C   0  0  0  0  0  3  0  0  0  0  0  0
  -26.3120  -31.6490   25.1410 C   0  0  1  0  0  0  0  0  0  0  0  0
  -25.1890  -31.3850   26.1700 C   0  0  0  0  0  1  0  0  0  0  0  0
  -26.9470  -30.2860   24.7820 C   0  0  0  0  0  1  0  0  0  0  0  0
  -27.4160  -32.4780   25.8390 C   0  0  0  0  0  1  0  0  0  0  0  0
  -25.4560  -33.7900   24.1620 N   0  0  0  0  0  0  0  0  0  0  0  0
  -25.7610  -34.8550   23.4090 C   0  0  0  0  0  0  0  0  0  0  0  0
  -26.4480  -34.7750   22.3880 O   0  0  0  0  0  0  0  0  0  0  0  0
  -24.8440  -33.9220   24.9540 H   0  0  0  0  0  0  0  0  0  0  0  0
  -23.9640  -36.5810   23.0510 C   0  0  0  0  0  1  0  0  0  0  0  0
  -25.2220  -36.2280   23.8610 C   0  0  0  0  0  3  0  0  0  0  0  0
  -27.3200  -37.2050   24.6820 C   0  0  0  0  0  1  0  0  0  0  0  0
  -26.2120  -37.3190   23.7370 N   0  0  0  0  0  0  0  0  0  0  0  0
  -25.7690  -38.2230   23.8750 H   0  0  0  0  0  0  0  0  0  0  0  0
  1  4  2  0
  1  5  1  0
  2  6  1  0
  2  7  1  0
  3  1  1  0
  4  2  1  0
  5  6  1  0
  6 46  1  0
  7 17  1  0
  8 17  1  0
  9 14  1  0
 10 11  1  0
 10  9  1  0
 12 11  1  0
 12 21  1  0
 12 13  1  0
 14  8  1  0
 14 13  1  0
 15  8  2  0
 17 16  1  0
 18 19  2  0
 19 38  1  0
 20 19  1  0
 20 23  1  0
 21 22  1  0
 21 18  1  0
 22 20  2  0
 23 24  1  0
 24 25  2  0
 26 29  1  0
 26 25  1  0
 27 26  2  0
 28 27  1  0
 28 23  2  0
 29 30  1  0
 30 31  1  0
 31 32  2  0
 33 32  1  0
 33 37  1  0
 34 33  2  0
 35 30  2  0
 35 34  1  0
 36 35  1  0
 38 39  1  0
 39 42  1  0
 39 41  1  0
 40 38  2  0
 43 44  1  0
 43 18  1  0
 45 43  1  0
 47 46  1  0
 47 48  1  0
 49 48  1  0
 50 61  2  0
 51 49  1  0
 51 56  1  0
 52 60  1  0
 52 62  1  0
 53 59  1  0
 53 55  1  0
 54 60  1  0
 55 56  2  0
 55 54  1  0
 57 51  2  0
 58 57  1  0
 58 53  2  0
 59 52  1  0
 60 50  1  0
 62 64  2  0
 63 62  1  0
 65 63  1  0
 66 75  2  0
 66 71  1  0
 67 63  1  0
 67 71  1  0
 68 67  1  0
 69 70  1  0
 69 68  1  0
 70 66  1  0
 71 72  2  0
 72 73  1  0
 74 73  2  0
 75 74  1  0
 76 50  1  0
 76 81  1  0
 76 77  1  0
 77 80  1  1
 77 78  1  0
 79 77  1  0
 81 84  1  0
 82 86  1  0
 82 81  1  0
 83 82  2  0
 86 85  1  0
 88 86  1  0
 88 89  1  0
 88 87  1  0
M  ISO  4   8 100  17 100  48 101  49 101
M  END
>  <TORSDO>  (67) 
F 20

>  <SCORE>  (67) 
-13.753

>  <name>  (67) 
69

>  <ligand_id>  (67) 
69

>  <original_smiles>  (67) 
[H]c1c([H])c([H])c2c(c1[H])C([H])([H])C([H])([H])C([H])([H])C2([H])N([H])C(=O)C1([H])N(C(=O)C([H])(N([H])C(=O)C([H])(N([H])C([H])([H])[H])C([H])([H])[H])C(C([H])([H])[H])(C([H])([H])[H])C([H])([H])[H])C([H])([H])c2c([H])c(OC([H])([H])C([H])([H])C([H])([H])n3nc(C([H])([H])[H])nc3C([H])([H])N(C(=O)N3C([H])([H])C([H])([H])C([H])([H])C([H])(n4nc(-c5c([H])c([H])c(Oc6c([H])c([H])c(F)c([H])c6F)c([H])c5[H])c(C(=O)N([H])[H])c4N([H])[H])C3([H])[H])C([H])([H])[H])c([H])c([H])c2C1([H])[H]

>  <smiles>  (67) 
[H]c1c([H])c([H])c2c(c1[H])C([H])([H])C([H])([H])C([H])([H])C2([H])N([H])C(=O)C1([H])N(C(=O)C([H])(N([H])C(=O)C([H])(N([H])C([H])([H])[H])C([H])([H])[H])C(C([H])([H])[H])(C([H])([H])[H])C([H])([H])[H])C([H])([H])c2c([H])c(OC([H])([H])C([H])([H])C([H])([H])n3nc(C([H])([H])[H])nc3C([H])([H])N(C(=O)N3C([H])([H])C([H])([H])C([H])([H])C([H])(n4nc(-c5c([H])c([H])c(Oc6c([H])c([H])c(F)c([H])c6F)c([H])c5[H])c(C(=O)N([H])[H])c4N([H])[H])C3([H])[H])C([H])([H])[H])c([H])c([H])c2C1([H])[H]

$$$$
70:0:0
     RDKit          3D

 90 98  0  0  1  0  0  0  0  0999 V2000
  -29.3100  -20.7840   20.4580 C   0  0  0  0  0  0  0  0  0  0  0  0
  -29.8870  -18.6630   20.2400 C   0  0  0  0  0  0  0  0  0  0  0  0
  -30.4580  -20.6110   21.1320 N   0  0  0  0  0  0  0  0  0  0  0  0
  -30.8370  -19.2680   20.9730 N   0  0  0  0  0  0  0  0  0  0  0  0
  -28.8870  -19.5690   19.9450 N   0  0  0  0  0  0  0  0  0  0  0  0
  -27.7440  -19.5610   17.7400 C   0  0  0  0  0  1  0  0  0  0  0  0
  -27.6380  -19.3020   19.2460 C   0  0  0  0  0  2  0  0  0  0  0  0
  -28.4600  -22.1210   20.4030 C   0  0  0  0  0  2  0  0  0  0  0  0
  -29.0550  -23.6350   20.4370 C   0  0  0  0  0  3  0  0  0  0  0  0
  -27.9960  -24.8490   20.2080 C   0  0  0  0  0  3  0  0  0  0  0  0
  -28.2890  -26.3310   20.2840 O   0  0  0  0  0  0  0  0  0  0  0  0
  -24.6060  -31.8740   23.2370 C   0  0  0  0  0  0  0  0  0  0  0  0
  -27.1980  -27.2400   20.2140 C   0  0  0  0  0  0  0  0  0  0  0  0
  -23.3960  -30.4670   21.6120 C   0  0  0  0  0  3  0  0  0  0  0  0
  -24.8440  -28.9050   20.1880 C   0  0  0  0  0  0  0  0  0  0  0  0
  -25.9400  -30.7690   21.4190 C   0  0  0  0  0  2  0  0  0  0  0  0
  -26.0190  -29.3780   20.7840 C   0  0  0  0  0  0  0  0  0  0  0  0
  -27.1980  -28.5600   20.7850 C   0  0  0  0  0  3  0  0  0  0  0  0
  -25.9970  -26.8440   19.5770 C   0  0  0  0  0  3  0  0  0  0  0  0
  -24.8400  -27.6450   19.5720 C   0  0  0  0  0  3  0  0  0  0  0  0
  -23.6100  -29.7860   20.2350 C   0  0  0  0  0  2  0  0  0  0  0  0
  -24.6680  -31.0540   22.1470 N   0  0  0  0  0  0  0  0  0  0  0  0
  -23.5240  -32.1580   23.7740 O   0  0  0  0  0  0  0  0  0  0  0  0
  -22.7300  -29.4590   22.5810 C   0  0  0  0  0  0  0  0  0  0  0  0
  -21.4030  -29.2800   22.4580 N   0  0  0  0  0  0  0  0  0  0  0  0
  -23.4090  -28.8410   23.4050 O   0  0  0  0  0  0  0  0  0  0  0  0
  -20.9110  -29.8330   21.7710 H   0  0  0  0  0  0  0  0  0  0  0  0
  -18.0320  -28.0670   22.9700 C   0  0  0  0  0  0  0  0  0  0  0  0
  -20.5890  -28.3450   23.2410 C   0  0  0  0  0  3  0  0  0  0  0  0
  -20.7010  -26.9070   22.6850 C   0  0  0  0  0  2  0  0  0  0  0  0
  -19.6030  -26.5650   21.6720 C   0  0  0  0  0  2  0  0  0  0  0  0
  -18.2200  -26.7100   22.3120 C   0  0  0  0  0  2  0  0  0  0  0  0
  -19.1460  -28.8410   23.3950 C   0  0  0  0  0  0  0  0  0  0  0  0
  -18.9200  -30.1080   23.9730 C   0  0  0  0  0  3  0  0  0  0  0  0
  -17.6130  -30.6060   24.1260 C   0  0  0  0  0  3  0  0  0  0  0  0
  -16.5140  -29.8290   23.7210 C   0  0  0  0  0  3  0  0  0  0  0  0
  -16.7240  -28.5610   23.1500 C   0  0  0  0  0  3  0  0  0  0  0  0
  -25.8900  -32.5140   23.8490 C   0  0  0  0  0  3  0  0  0  0  0  0
  -25.5780  -33.9110   24.1810 N   0  0  0  0  0  0  0  0  0  0  0  0
  -25.9070  -34.9650   23.4210 C   0  0  0  0  0  0  0  0  0  0  0  0
  -26.5730  -34.8620   22.3890 O   0  0  0  0  0  0  0  0  0  0  0  0
  -24.9880  -34.0640   24.9850 H   0  0  0  0  0  0  0  0  0  0  0  0
  -24.1820  -36.7630   23.0670 C   0  0  0  0  0  1  0  0  0  0  0  0
  -25.4200  -36.3540   23.8800 C   0  0  0  0  0  3  0  0  0  0  0  0
  -27.5570  -37.2360   24.7110 C   0  0  0  0  0  1  0  0  0  0  0  0
  -26.4530  -37.4080   23.7710 N   0  0  0  0  0  0  0  0  0  0  0  0
  -26.0460  -38.3270   23.9260 H   0  0  0  0  0  0  0  0  0  0  0  0
  -26.4170  -31.7470   25.1250 C   0  0  1  0  0  0  0  0  0  0  0  0
  -25.3320  -31.5090   26.2020 C   0  0  0  0  0  1  0  0  0  0  0  0
  -26.9980  -30.3690   24.7320 C   0  0  0  0  0  1  0  0  0  0  0  0
  -27.5710  -32.5460   25.7770 C   0  0  0  0  0  1  0  0  0  0  0  0
  -30.0270  -17.2060   19.6210 C   0  0  0  0  0  2  0  0  0  0  0  0
  -30.7070  -14.7550   20.0840 C   0  0  0  0  0  0  0  0  0  0  0  0
  -30.4120  -12.5470   18.9320 C   0  0  0  0  0  2  0  0  0  0  0  0
  -29.3970  -12.6710   17.7730 C   0  0  0  0  0  2  0  0  0  0  0  0
  -27.9510  -12.4980   18.2780 C   0  0  0  0  0  2  0  0  0  0  0  0
  -27.6660  -13.3270   19.5580 C   0  0  0  0  0  3  0  0  0  0  0  0
  -28.7840  -13.1290   20.6030 C   0  0  0  0  0  2  0  0  0  0  0  0
  -30.0460  -13.5440   19.9710 N   0  0  0  0  0  0  0  0  0  0  0  0
  -31.8340  -14.8580   19.5840 O   0  0  0  0  0  0  0  0  0  0  0  0
  -29.4230  -16.0490   21.7820 C   0  0  0  0  0  1  0  0  0  0  0  0
  -30.0060  -15.9140   20.4430 N   0  0  0  0  0  0  0  0  0  0  0  0
  -25.3110  -13.9200   20.3940 C   0  0  0  0  0  0  0  0  0  0  0  0
  -24.2590  -13.1440   20.8010 C   0  0  0  0  0  0  0  0  0  0  0  0
  -24.7160  -11.7910   20.7320 C   0  0  0  0  0  0  0  0  0  0  0  0
  -26.3420  -13.0400   20.1030 N   0  0  0  0  0  0  0  0  0  0  0  0
  -25.9920  -11.7540   20.3660 N   0  0  0  0  0  0  0  0  0  0  0  0
  -23.9950  -10.5280   20.9390 C   0  0  0  0  0  0  0  0  0  0  0  0
  -24.4510   -9.5610   21.8620 C   0  0  0  0  0  3  0  0  0  0  0  0
  -23.7310   -8.3640   22.0570 C   0  0  0  0  0  3  0  0  0  0  0  0
  -22.5400   -8.1230   21.3310 C   0  0  0  0  0  0  0  0  0  0  0  0
  -22.1040   -9.0790   20.3950 C   0  0  0  0  0  3  0  0  0  0  0  0
  -22.8250  -10.2680   20.1980 C   0  0  0  0  0  3  0  0  0  0  0  0
  -21.7890   -6.9790   21.4380 O   0  0  0  0  0  0  0  0  0  0  0  0
  -21.7380   -6.2570   22.6030 C   0  0  0  0  0  0  0  0  0  0  0  0
  -21.3200   -6.8360   23.8210 C   0  0  0  0  0  3  0  0  0  0  0  0
  -21.2160   -6.0410   24.9800 C   0  0  0  0  0  3  0  0  0  0  0  0
  -21.5210   -4.6670   24.9220 C   0  0  0  0  0  0  0  0  0  0  0  0
  -21.9310   -4.0890   23.7080 C   0  0  0  0  0  3  0  0  0  0  0  0
  -22.0370   -4.8810   22.5520 C   0  0  0  0  0  0  0  0  0  0  0  0
  -22.4130   -4.3130   21.3810 F   0  0  0  0  0  0  0  0  0  0  0  0
  -21.4130   -3.9020   26.0320 F   0  0  0  0  0  0  0  0  0  0  0  0
  -22.8770  -13.6210   21.1430 C   0  0  0  0  0  0  0  0  0  0  0  0
  -22.1900  -12.9190   22.0390 N   0  0  0  0  0  0  0  0  0  0  0  0
  -22.4150  -14.6500   20.6510 O   0  0  0  0  0  0  0  0  0  0  0  0
  -22.5750  -12.0850   22.4570 H   0  0  0  0  0  0  0  0  0  0  0  0
  -21.2690  -13.2240   22.3160 H   0  0  0  0  0  0  0  0  0  0  0  0
  -25.4730  -15.2910   20.2230 N   0  0  0  0  0  0  0  0  0  0  0  0
  -24.7170  -15.9500   20.3780 H   0  0  0  0  0  0  0  0  0  0  0  0
  -26.3090  -15.7260   19.8550 H   0  0  0  0  0  0  0  0  0  0  0  0
  1  3  2  0
  2  4  2  0
  4  3  1  0
  5  2  1  0
  5  1  1  0
  6  7  1  0
  7  5  1  0
  8  9  1  0
  8  1  1  0
 10 11  1  0
 10  9  2  0
 12 23  2  0
 13 11  1  0
 13 18  1  0
 14 22  1  0
 14 24  1  0
 15 21  1  0
 15 17  1  0
 16 22  1  0
 17 18  2  0
 17 16  1  0
 19 13  2  0
 20 19  1  0
 20 15  2  0
 21 14  1  0
 22 12  1  0
 24 26  2  0
 25 24  1  0
 27 25  1  0
 28 37  2  0
 28 33  1  0
 29 25  1  0
 29 33  1  0
 30 29  1  0
 31 32  1  0
 31 30  1  0
 32 28  1  0
 33 34  2  0
 34 35  1  0
 36 35  2  0
 37 36  1  0
 38 12  1  0
 38 39  1  0
 38 48  1  0
 39 42  1  0
 40 44  1  0
 40 39  1  0
 41 40  2  0
 44 43  1  0
 46 44  1  0
 46 47  1  0
 46 45  1  0
 48 51  1  1
 48 49  1  0
 50 48  1  0
 52  2  1  0
 52 62  1  0
 53 62  1  0
 54 59  1  0
 55 56  1  0
 55 54  1  0
 57 56  1  0
 57 66  1  0
 57 58  1  0
 59 53  1  0
 59 58  1  0
 60 53  2  0
 62 61  1  0
 63 64  2  0
 64 83  1  0
 65 64  1  0
 65 68  1  0
 66 67  1  0
 66 63  1  0
 67 65  2  0
 68 69  1  0
 69 70  2  0
 71 74  1  0
 71 70  1  0
 72 71  2  0
 73 72  1  0
 73 68  2  0
 74 75  1  0
 75 76  1  0
 76 77  2  0
 78 77  1  0
 78 82  1  0
 79 78  2  0
 80 75  2  0
 80 79  1  0
 81 80  1  0
 83 84  1  0
 84 87  1  0
 84 86  1  0
 85 83  2  0
 88 89  1  0
 88 63  1  0
 90 88  1  0
M  ISO  4  10 101  11 101  53 100  62 100
M  END
>  <TORSDO>  (68) 
F 21

>  <SCORE>  (68) 
-13.192

>  <name>  (68) 
70

>  <ligand_id>  (68) 
70

>  <original_smiles>  (68) 
[H]c1c([H])c([H])c2c(c1[H])C([H])([H])C([H])([H])C([H])([H])C2([H])N([H])C(=O)C1([H])N(C(=O)C([H])(N([H])C(=O)C([H])(N([H])C([H])([H])[H])C([H])([H])[H])C(C([H])([H])[H])(C([H])([H])[H])C([H])([H])[H])C([H])([H])c2c([H])c(OC([H])([H])C([H])([H])C([H])([H])c3nnc(C([H])([H])N(C(=O)N4C([H])([H])C([H])([H])C([H])([H])C([H])(n5nc(-c6c([H])c([H])c(Oc7c([H])c([H])c(F)c([H])c7F)c([H])c6[H])c(C(=O)N([H])[H])c5N([H])[H])C4([H])[H])C([H])([H])[H])n3C([H])([H])C([H])([H])[H])c([H])c([H])c2C1([H])[H]

>  <smiles>  (68) 
[H]c1c([H])c([H])c2c(c1[H])C([H])([H])C([H])([H])C([H])([H])C2([H])N([H])C(=O)C1([H])N(C(=O)C([H])(N([H])C(=O)C([H])(N([H])C([H])([H])[H])C([H])([H])[H])C(C([H])([H])[H])(C([H])([H])[H])C([H])([H])[H])C([H])([H])c2c([H])c(OC([H])([H])C([H])([H])C([H])([H])c3nnc(C([H])([H])N(C(=O)N4C([H])([H])C([H])([H])C([H])([H])C([H])(n5nc(-c6c([H])c([H])c(Oc7c([H])c([H])c(F)c([H])c7F)c([H])c6[H])c(C(=O)N([H])[H])c5N([H])[H])C4([H])[H])C([H])([H])[H])n3C([H])([H])C([H])([H])[H])c([H])c([H])c2C1([H])[H]

$$$$
72:0:0
     RDKit          3D

 89 97  0  0  1  0  0  0  0  0999 V2000
  -30.7860  -21.1640   19.7770 C   0  0  0  0  0  3  0  0  0  0  0  0
  -31.1000  -22.5300   19.6020 C   0  0  0  0  0  0  0  0  0  0  0  0
  -29.4960  -20.7890   20.1760 C   0  0  0  0  0  0  0  0  0  0  0  0
  -28.9560  -23.2500   20.1340 C   0  0  0  0  0  0  0  0  0  0  0  0
  -32.4960  -22.9550   19.1910 C   0  0  0  0  0  1  0  0  0  0  0  0
  -30.2070  -23.5330   19.7780 N   0  0  0  0  0  0  0  0  0  0  0  0
  -28.6020  -21.8940   20.3350 N   0  0  0  0  0  0  0  0  0  0  0  0
  -29.1410  -19.1700   20.4110 C   0  0  0  0  0  3  0  0  0  0  0  0
  -30.1710  -17.8090   20.2230 C   0  0  0  0  0  3  0  0  0  0  0  0
  -30.5160  -15.0420   20.2780 C   0  0  0  0  0  0  0  0  0  0  0  0
  -30.3570  -12.6820   19.3430 C   0  0  0  0  0  2  0  0  0  0  0  0
  -29.4070  -12.6260   18.1270 C   0  0  0  0  0  2  0  0  0  0  0  0
  -27.9500  -12.4080   18.5820 C   0  0  0  0  0  2  0  0  0  0  0  0
  -27.5620  -13.3210   19.7740 C   0  0  0  0  0  3  0  0  0  0  0  0
  -28.6440  -13.3620   20.8760 C   0  0  0  0  0  2  0  0  0  0  0  0
  -29.8970  -13.7860   20.2370 N   0  0  0  0  0  0  0  0  0  0  0  0
  -31.7150  -15.0750   19.9860 O   0  0  0  0  0  0  0  0  0  0  0  0
  -29.7840  -16.2650   20.4220 N   0  0  0  0  0  0  0  0  0  0  0  0
  -28.8080  -16.1140   20.6290 H   0  0  0  0  0  0  0  0  0  0  0  0
  -25.2000  -13.8790   20.5700 C   0  0  0  0  0  0  0  0  0  0  0  0
  -24.1430  -13.0980   20.9480 C   0  0  0  0  0  0  0  0  0  0  0  0
  -24.6080  -11.7490   20.8900 C   0  0  0  0  0  0  0  0  0  0  0  0
  -26.2380  -13.0080   20.2970 N   0  0  0  0  0  0  0  0  0  0  0  0
  -25.8940  -11.7190   20.5520 N   0  0  0  0  0  0  0  0  0  0  0  0
  -23.8870  -10.4830   21.0810 C   0  0  0  0  0  0  0  0  0  0  0  0
  -24.3330   -9.5080   22.0000 C   0  0  0  0  0  3  0  0  0  0  0  0
  -23.6150   -8.3060   22.1770 C   0  0  0  0  0  3  0  0  0  0  0  0
  -22.4310   -8.0720   21.4360 C   0  0  0  0  0  0  0  0  0  0  0  0
  -22.0010   -9.0350   20.5040 C   0  0  0  0  0  3  0  0  0  0  0  0
  -22.7230  -10.2290   20.3280 C   0  0  0  0  0  3  0  0  0  0  0  0
  -21.6790   -6.9260   21.5210 O   0  0  0  0  0  0  0  0  0  0  0  0
  -21.6400   -6.1750   22.6680 C   0  0  0  0  0  0  0  0  0  0  0  0
  -21.2150   -6.7180   23.9010 C   0  0  0  0  0  3  0  0  0  0  0  0
  -21.1280   -5.8920   25.0400 C   0  0  0  0  0  3  0  0  0  0  0  0
  -21.4530   -4.5260   24.9480 C   0  0  0  0  0  0  0  0  0  0  0  0
  -21.8690   -3.9840   23.7200 C   0  0  0  0  0  3  0  0  0  0  0  0
  -21.9610   -4.8050   22.5830 C   0  0  0  0  0  0  0  0  0  0  0  0
  -22.3430   -4.2720   21.3970 F   0  0  0  0  0  0  0  0  0  0  0  0
  -21.3610   -3.7310   26.0390 F   0  0  0  0  0  0  0  0  0  0  0  0
  -22.7480  -13.5690   21.2460 C   0  0  0  0  0  0  0  0  0  0  0  0
  -22.0420  -12.8610   22.1190 N   0  0  0  0  0  0  0  0  0  0  0  0
  -22.2990  -14.5960   20.7410 O   0  0  0  0  0  0  0  0  0  0  0  0
  -22.4300  -12.0360   22.5530 H   0  0  0  0  0  0  0  0  0  0  0  0
  -21.1030  -13.1460   22.3550 H   0  0  0  0  0  0  0  0  0  0  0  0
  -25.3630  -15.2510   20.4050 N   0  0  0  0  0  0  0  0  0  0  0  0
  -24.6080  -15.9150   20.5370 H   0  0  0  0  0  0  0  0  0  0  0  0
  -26.1910  -15.6730   20.0080 H   0  0  0  0  0  0  0  0  0  0  0  0
  -27.9080  -24.5530   20.1840 C   0  0  0  0  0  2  0  0  0  0  0  0
  -28.2330  -26.1070   20.2210 O   0  0  0  0  0  0  0  0  0  0  0  0
  -24.6400  -31.8910   23.2340 C   0  0  0  0  0  0  0  0  0  0  0  0
  -27.1860  -27.1240   20.1890 C   0  0  0  0  0  0  0  0  0  0  0  0
  -23.4280  -30.4960   21.6060 C   0  0  0  0  0  3  0  0  0  0  0  0
  -24.8640  -28.9080   20.1800 C   0  0  0  0  0  0  0  0  0  0  0  0
  -25.9870  -30.7400   21.4270 C   0  0  0  0  0  2  0  0  0  0  0  0
  -26.0550  -29.3410   20.7770 C   0  0  0  0  0  0  0  0  0  0  0  0
  -27.2150  -28.4690   20.7620 C   0  0  0  0  0  3  0  0  0  0  0  0
  -25.9630  -26.8070   19.5580 C   0  0  0  0  0  3  0  0  0  0  0  0
  -24.8340  -27.6550   19.5550 C   0  0  0  0  0  3  0  0  0  0  0  0
  -23.6400  -29.8090   20.2310 C   0  0  0  0  0  2  0  0  0  0  0  0
  -24.7070  -31.0650   22.1440 N   0  0  0  0  0  0  0  0  0  0  0  0
  -23.5570  -32.1840   23.7630 O   0  0  0  0  0  0  0  0  0  0  0  0
  -22.7460  -29.4990   22.5760 C   0  0  0  0  0  0  0  0  0  0  0  0
  -21.4170  -29.3270   22.4520 N   0  0  0  0  0  0  0  0  0  0  0  0
  -23.4180  -28.8750   23.4030 O   0  0  0  0  0  0  0  0  0  0  0  0
  -20.9330  -29.8820   21.7610 H   0  0  0  0  0  0  0  0  0  0  0  0
  -18.0370  -28.1180   22.9600 C   0  0  0  0  0  0  0  0  0  0  0  0
  -20.5960  -28.3920   23.2270 C   0  0  0  0  0  3  0  0  0  0  0  0
  -20.7010  -26.9560   22.6630 C   0  0  0  0  0  2  0  0  0  0  0  0
  -19.6010  -26.6210   21.6500 C   0  0  0  0  0  2  0  0  0  0  0  0
  -18.2190  -26.7650   22.2920 C   0  0  0  0  0  2  0  0  0  0  0  0
  -19.1530  -28.8890   23.3840 C   0  0  0  0  0  0  0  0  0  0  0  0
  -18.9270  -30.1510   23.9720 C   0  0  0  0  0  3  0  0  0  0  0  0
  -17.6200  -30.6470   24.1350 C   0  0  0  0  0  3  0  0  0  0  0  0
  -16.5190  -29.8750   23.7240 C   0  0  0  0  0  3  0  0  0  0  0  0
  -16.7290  -28.6120   23.1450 C   0  0  0  0  0  3  0  0  0  0  0  0
  -25.9230  -32.5220   23.8550 C   0  0  0  0  0  3  0  0  0  0  0  0
  -26.4400  -31.7500   25.1310 C   0  0  1  0  0  0  0  0  0  0  0  0
  -25.3490  -31.5140   26.2030 C   0  0  0  0  0  1  0  0  0  0  0  0
  -27.0170  -30.3690   24.7410 C   0  0  0  0  0  1  0  0  0  0  0  0
  -27.5980  -32.5380   25.7870 C   0  0  0  0  0  1  0  0  0  0  0  0
  -25.6110  -33.9200   24.1980 N   0  0  0  0  0  0  0  0  0  0  0  0
  -25.9170  -34.9820   23.4400 C   0  0  0  0  0  0  0  0  0  0  0  0
  -26.5570  -34.8900   22.3910 O   0  0  0  0  0  0  0  0  0  0  0  0
  -25.0350  -34.0670   25.0130 H   0  0  0  0  0  0  0  0  0  0  0  0
  -24.1650  -36.7680   23.1710 C   0  0  0  0  0  1  0  0  0  0  0  0
  -25.4420  -36.3670   23.9250 C   0  0  0  0  0  3  0  0  0  0  0  0
  -27.6020  -37.2680   24.6640 C   0  0  0  0  0  1  0  0  0  0  0  0
  -26.4600  -37.4280   23.7680 N   0  0  0  0  0  0  0  0  0  0  0  0
  -26.0550  -38.3460   23.9300 H   0  0  0  0  0  0  0  0  0  0  0  0
  1  3  1  0
  2  1  2  0
  2  6  1  0
  3  7  2  0
  3  8  1  0
  4 48  1  0
  4  7  1  0
  5  2  1  0
  6  4  2  0
  9  8  2  0
  9 18  1  0
 10 18  1  0
 11 16  1  0
 12 13  1  0
 12 11  1  0
 14 13  1  0
 14 23  1  0
 14 15  1  0
 16 10  1  0
 16 15  1  0
 17 10  2  0
 18 19  1  0
 20 21  2  0
 21 40  1  0
 22 21  1  0
 22 25  1  0
 23 24  1  0
 23 20  1  0
 24 22  2  0
 25 26  1  0
 26 27  2  0
 28 31  1  0
 28 27  1  0
 29 28  2  0
 30 29  1  0
 30 25  2  0
 31 32  1  0
 32 33  1  0
 33 34  2  0
 35 34  1  0
 35 39  1  0
 36 35  2  0
 37 32  2  0
 37 36  1  0
 38 37  1  0
 40 41  1  0
 41 44  1  0
 41 43  1  0
 42 40  2  0
 45 46  1  0
 45 20  1  0
 47 45  1  0
 48 49  1  0
 50 61  2  0
 51 49  1  0
 51 56  1  0
 52 60  1  0
 52 62  1  0
 53 59  1  0
 53 55  1  0
 54 60  1  0
 55 54  1  0
 56 55  2  0
 57 51  2  0
 58 57  1  0
 58 53  2  0
 59 52  1  0
 60 50  1  0
 62 64  2  0
 63 62  1  0
 65 63  1  0
 66 75  2  0
 66 71  1  0
 67 63  1  0
 67 71  1  0
 68 67  1  0
 69 70  1  0
 69 68  1  0
 70 66  1  0
 71 72  2  0
 72 73  1  0
 74 73  2  0
 75 74  1  0
 76 50  1  0
 76 81  1  0
 76 77  1  0
 77 80  1  1
 77 78  1  0
 79 77  1  0
 81 84  1  0
 82 86  1  0
 82 81  1  0
 83 82  2  0
 86 85  1  0
 88 86  1  0
 88 89  1  0
 88 87  1  0
M  ISO  4  10 100  18 100  48 101  49 101
M  END
>  <TORSDO>  (69) 
F 19

>  <SCORE>  (69) 
-14.904

>  <name>  (69) 
72

>  <ligand_id>  (69) 
72

>  <original_smiles>  (69) 
[H]c1c(C([H])([H])[H])nc(C([H])([H])Oc2c([H])c([H])c3c(c2[H])C([H])([H])N(C(=O)C([H])(N([H])C(=O)C([H])(N([H])C([H])([H])[H])C([H])([H])[H])C(C([H])([H])[H])(C([H])([H])[H])C([H])([H])[H])C([H])(C(=O)N([H])C2([H])c4c([H])c([H])c([H])c([H])c4C([H])([H])C([H])([H])C2([H])[H])C3([H])[H])nc1C([H])([H])C([H])([H])N([H])C(=O)N1C([H])([H])C([H])([H])C([H])([H])C([H])(n2nc(-c3c([H])c([H])c(Oc4c([H])c([H])c(F)c([H])c4F)c([H])c3[H])c(C(=O)N([H])[H])c2N([H])[H])C1([H])[H]

>  <smiles>  (69) 
[H]c1c(C([H])([H])[H])nc(C([H])([H])Oc2c([H])c([H])c3c(c2[H])C([H])([H])N(C(=O)C([H])(N([H])C(=O)C([H])(N([H])C([H])([H])[H])C([H])([H])[H])C(C([H])([H])[H])(C([H])([H])[H])C([H])([H])[H])C([H])(C(=O)N([H])C2([H])c4c([H])c([H])c([H])c([H])c4C([H])([H])C([H])([H])C2([H])[H])C3([H])[H])nc1C([H])([H])C([H])([H])N([H])C(=O)N1C([H])([H])C([H])([H])C([H])([H])C([H])(n2nc(-c3c([H])c([H])c(Oc4c([H])c([H])c(F)c([H])c4F)c([H])c3[H])c(C(=O)N([H])[H])c2N([H])[H])C1([H])[H]

$$$$
73:0:0
     RDKit          3D

 93101  0  0  1  0  0  0  0  0999 V2000
  -27.9520  -19.8810   18.9370 C   0  0  0  0  0  0  0  0  0  0  0  0
  -28.8820  -20.2930   19.9390 C   0  0  0  0  0  0  0  0  0  0  0  0
  -29.5920  -17.8770   19.9430 C   0  0  0  0  0  0  0  0  0  0  0  0
  -27.9590  -18.6000   18.4520 N   0  0  0  0  0  0  0  0  0  0  0  0
  -29.6580  -19.2030   20.4570 N   0  0  0  0  0  0  0  0  0  0  0  0
  -28.7460  -17.6210   18.9370 N   0  0  0  0  0  0  0  0  0  0  0  0
  -26.8050  -20.7540   18.4020 C   0  0  1  0  0  0  0  0  0  0  0  0
  -25.7800  -19.9900   18.0090 F   0  0  0  0  0  0  0  0  0  0  0  0
  -26.3230  -21.5660   19.3480 F   0  0  0  0  0  0  0  0  0  0  0  0
  -27.2010  -21.4840   17.3560 F   0  0  0  0  0  0  0  0  0  0  0  0
  -29.2310  -16.2410   21.8640 C   0  0  0  0  0  1  0  0  0  0  0  0
  -31.5160  -16.9910   21.3760 C   0  0  0  0  0  1  0  0  0  0  0  0
  -30.2040  -16.5120   20.7020 C   0  0  2  0  0  0  0  0  0  0  0  0
  -30.6690  -15.0280   19.9740 C   0  0  0  0  0  0  0  0  0  0  0  0
  -30.4550  -12.6830   18.9610 C   0  0  0  0  0  2  0  0  0  0  0  0
  -29.4580  -12.6690   17.7740 C   0  0  0  0  0  2  0  0  0  0  0  0
  -28.0240  -12.4370   18.2880 C   0  0  0  0  0  2  0  0  0  0  0  0
  -27.6990  -13.3390   19.5030 C   0  0  0  0  0  3  0  0  0  0  0  0
  -28.8120  -13.2740   20.5670 C   0  0  0  0  0  2  0  0  0  0  0  0
  -30.0470  -13.7620   19.9290 N   0  0  0  0  0  0  0  0  0  0  0  0
  -31.7860  -15.0260   19.4310 O   0  0  0  0  0  0  0  0  0  0  0  0
  -25.3740  -13.9370   20.3870 C   0  0  0  0  0  0  0  0  0  0  0  0
  -24.3250  -13.1680   20.8110 C   0  0  0  0  0  0  0  0  0  0  0  0
  -24.7700  -11.8120   20.7280 C   0  0  0  0  0  0  0  0  0  0  0  0
  -26.3880  -13.0510   20.0710 N   0  0  0  0  0  0  0  0  0  0  0  0
  -26.0380  -11.7660   20.3400 N   0  0  0  0  0  0  0  0  0  0  0  0
  -24.0370  -10.5570   20.9390 C   0  0  0  0  0  0  0  0  0  0  0  0
  -24.4920   -9.5820   21.8550 C   0  0  0  0  0  3  0  0  0  0  0  0
  -23.7630   -8.3900   22.0530 C   0  0  0  0  0  3  0  0  0  0  0  0
  -22.5630   -8.1660   21.3390 C   0  0  0  0  0  0  0  0  0  0  0  0
  -22.1250   -9.1280   20.4120 C   0  0  0  0  0  3  0  0  0  0  0  0
  -22.8540  -10.3120   20.2120 C   0  0  0  0  0  3  0  0  0  0  0  0
  -21.8010   -7.0270   21.4500 O   0  0  0  0  0  0  0  0  0  0  0  0
  -21.7570   -6.3010   22.6130 C   0  0  0  0  0  0  0  0  0  0  0  0
  -21.3550   -6.8780   23.8360 C   0  0  0  0  0  3  0  0  0  0  0  0
  -21.2580   -6.0790   24.9920 C   0  0  0  0  0  3  0  0  0  0  0  0
  -21.5520   -4.7050   24.9280 C   0  0  0  0  0  0  0  0  0  0  0  0
  -21.9420   -4.1260   23.7070 C   0  0  0  0  0  3  0  0  0  0  0  0
  -22.0430   -4.9220   22.5520 C   0  0  0  0  0  0  0  0  0  0  0  0
  -22.4000   -4.3550   21.3760 F   0  0  0  0  0  0  0  0  0  0  0  0
  -21.4510   -3.9350   26.0370 F   0  0  0  0  0  0  0  0  0  0  0  0
  -22.9510  -13.6580   21.1720 C   0  0  0  0  0  0  0  0  0  0  0  0
  -22.2690  -12.9620   22.0740 N   0  0  0  0  0  0  0  0  0  0  0  0
  -22.4950  -14.6920   20.6860 O   0  0  0  0  0  0  0  0  0  0  0  0
  -22.6500  -12.1280   22.4960 H   0  0  0  0  0  0  0  0  0  0  0  0
  -21.3480  -13.2720   22.3500 H   0  0  0  0  0  0  0  0  0  0  0  0
  -25.5370  -15.3080   20.2210 N   0  0  0  0  0  0  0  0  0  0  0  0
  -24.7570  -15.9440   20.3320 H   0  0  0  0  0  0  0  0  0  0  0  0
  -26.3550  -15.7580   19.8290 H   0  0  0  0  0  0  0  0  0  0  0  0
  -28.9480  -21.6590   20.5260 O   0  0  0  0  0  0  0  0  0  0  0  0
  -28.8190  -23.0820   19.8600 C   0  0  0  0  0  2  0  0  0  0  0  0
  -28.0580  -24.4990   20.4700 C   0  0  0  0  0  2  0  0  0  0  0  0
  -28.3280  -26.0440   20.2230 O   0  0  0  0  0  0  0  0  0  0  0  0
  -24.5680  -31.7590   23.1430 C   0  0  0  0  0  0  0  0  0  0  0  0
  -27.2780  -27.0490   20.1770 C   0  0  0  0  0  0  0  0  0  0  0  0
  -23.4320  -30.3430   21.4780 C   0  0  0  0  0  3  0  0  0  0  0  0
  -24.9380  -28.7920   20.0840 C   0  0  0  0  0  0  0  0  0  0  0  0
  -25.9850  -30.6370   21.3810 C   0  0  0  0  0  2  0  0  0  0  0  0
  -26.0980  -29.2450   20.7280 C   0  0  0  0  0  0  0  0  0  0  0  0
  -27.2690  -28.3910   20.7590 C   0  0  0  0  0  3  0  0  0  0  0  0
  -26.1030  -26.7220   19.4740 C   0  0  0  0  0  3  0  0  0  0  0  0
  -24.9580  -27.5500   19.4360 C   0  0  0  0  0  3  0  0  0  0  0  0
  -23.6910  -29.6660   20.1070 C   0  0  0  0  0  2  0  0  0  0  0  0
  -24.6800  -30.9370   22.0540 N   0  0  0  0  0  0  0  0  0  0  0  0
  -23.4650  -32.0250   23.6450 O   0  0  0  0  0  0  0  0  0  0  0  0
  -22.7450  -29.3270   22.4240 C   0  0  0  0  0  0  0  0  0  0  0  0
  -21.4220  -29.1470   22.2720 N   0  0  0  0  0  0  0  0  0  0  0  0
  -23.4080  -28.7060   23.2590 O   0  0  0  0  0  0  0  0  0  0  0  0
  -20.9380  -29.6910   21.5680 H   0  0  0  0  0  0  0  0  0  0  0  0
  -18.0500  -27.9130   22.7260 C   0  0  0  0  0  0  0  0  0  0  0  0
  -20.6020  -28.1970   23.0270 C   0  0  0  0  0  3  0  0  0  0  0  0
  -20.7230  -26.7690   22.4430 C   0  0  0  0  0  2  0  0  0  0  0  0
  -19.6380  -26.4430   21.4110 C   0  0  0  0  0  2  0  0  0  0  0  0
  -18.2480  -26.5710   22.0380 C   0  0  0  0  0  2  0  0  0  0  0  0
  -19.1550  -28.6820   23.1740 C   0  0  0  0  0  0  0  0  0  0  0  0
  -18.9160  -29.9360   23.7770 C   0  0  0  0  0  3  0  0  0  0  0  0
  -17.6030  -30.4230   23.9310 C   0  0  0  0  0  3  0  0  0  0  0  0
  -16.5120  -29.6490   23.5010 C   0  0  0  0  0  3  0  0  0  0  0  0
  -16.7350  -28.3940   22.9060 C   0  0  0  0  0  3  0  0  0  0  0  0
  -25.8190  -32.4170   23.8010 C   0  0  0  0  0  3  0  0  0  0  0  0
  -25.4670  -33.8040   24.1380 N   0  0  0  0  0  0  0  0  0  0  0  0
  -25.7870  -34.8790   23.4020 C   0  0  0  0  0  0  0  0  0  0  0  0
  -26.4750  -34.8070   22.3800 O   0  0  0  0  0  0  0  0  0  0  0  0
  -24.8530  -33.9380   24.9260 H   0  0  0  0  0  0  0  0  0  0  0  0
  -24.0200  -36.6440   23.0670 C   0  0  0  0  0  1  0  0  0  0  0  0
  -25.2640  -36.2460   23.8780 C   0  0  0  0  0  3  0  0  0  0  0  0
  -27.3660  -37.1810   24.7390 C   0  0  0  0  0  1  0  0  0  0  0  0
  -26.2700  -37.3250   23.7850 N   0  0  0  0  0  0  0  0  0  0  0  0
  -25.8380  -38.2310   23.9340 H   0  0  0  0  0  0  0  0  0  0  0  0
  -26.3220  -31.6510   25.0860 C   0  0  1  0  0  0  0  0  0  0  0  0
  -25.2080  -31.3910   26.1260 C   0  0  0  0  0  1  0  0  0  0  0  0
  -26.9380  -30.2810   24.7100 C   0  0  0  0  0  1  0  0  0  0  0  0
  -27.4330  -32.4670   25.7830 C   0  0  0  0  0  1  0  0  0  0  0  0
  1  2  1  0
  2  5  2  0
  2 50  1  0
  3  5  1  0
  3 13  1  0
  4  1  2  0
  4  6  1  0
  6  3  2  0
  7  1  1  0
  7  9  1  1
  8  7  1  0
 10  7  1  0
 13 12  1  1
 13 11  1  0
 14 13  1  0
 15 20  1  0
 16 17  1  0
 16 15  1  0
 18 17  1  0
 18 25  1  0
 18 19  1  0
 20 14  1  0
 20 19  1  0
 21 14  2  0
 22 23  2  0
 23 42  1  0
 24 23  1  0
 24 27  1  0
 25 26  1  0
 25 22  1  0
 26 24  2  0
 27 28  1  0
 28 29  2  0
 30 33  1  0
 30 29  1  0
 31 30  2  0
 32 31  1  0
 32 27  2  0
 33 34  1  0
 34 35  1  0
 35 36  2  0
 37 36  1  0
 37 41  1  0
 38 37  2  0
 39 34  2  0
 39 38  1  0
 40 39  1  0
 42 43  1  0
 43 46  1  0
 43 45  1  0
 44 42  2  0
 47 48  1  0
 47 22  1  0
 49 47  1  0
 51 52  1  0
 51 50  1  0
 53 52  1  0
 54 65  2  0
 55 53  1  0
 55 60  1  0
 56 64  1  0
 56 66  1  0
 57 63  1  0
 57 59  1  0
 58 64  1  0
 59 60  2  0
 59 58  1  0
 61 55  2  0
 62 61  1  0
 62 57  2  0
 63 56  1  0
 64 54  1  0
 66 68  2  0
 67 66  1  0
 69 67  1  0
 70 79  2  0
 70 75  1  0
 71 67  1  0
 71 75  1  0
 72 71  1  0
 73 74  1  0
 73 72  1  0
 74 70  1  0
 75 76  2  0
 76 77  1  0
 78 77  2  0
 79 78  1  0
 80 54  1  0
 80 81  1  0
 80 90  1  0
 81 84  1  0
 82 86  1  0
 82 81  1  0
 83 82  2  0
 86 85  1  0
 88 86  1  0
 88 89  1  0
 88 87  1  0
 90 93  1  1
 90 91  1  0
 92 90  1  0
M  ISO  4  13 100  14 100  52 101  53 101
M  END
>  <TORSDO>  (70) 
F 21

>  <SCORE>  (70) 
-14.007

>  <name>  (70) 
73

>  <ligand_id>  (70) 
73

>  <original_smiles>  (70) 
[H]c1c([H])c([H])c2c(c1[H])C([H])([H])C([H])([H])C([H])([H])C2([H])N([H])C(=O)C1([H])N(C(=O)C([H])(N([H])C(=O)C([H])(N([H])C([H])([H])[H])C([H])([H])[H])C(C([H])([H])[H])(C([H])([H])[H])C([H])([H])[H])C([H])([H])c2c([H])c(OC([H])([H])C([H])([H])Oc3nc(C(C(=O)N4C([H])([H])C([H])([H])C([H])([H])C([H])(n5nc(-c6c([H])c([H])c(Oc7c([H])c([H])c(F)c([H])c7F)c([H])c6[H])c(C(=O)N([H])[H])c5N([H])[H])C4([H])[H])(C([H])([H])[H])C([H])([H])[H])nnc3C(F)(F)F)c([H])c([H])c2C1([H])[H]

>  <smiles>  (70) 
[H]c1c([H])c([H])c2c(c1[H])C([H])([H])C([H])([H])C([H])([H])C2([H])N([H])C(=O)C1([H])N(C(=O)C([H])(N([H])C(=O)C([H])(N([H])C([H])([H])[H])C([H])([H])[H])C(C([H])([H])[H])(C([H])([H])[H])C([H])([H])[H])C([H])([H])c2c([H])c(OC([H])([H])C([H])([H])Oc3nc(C(C(=O)N4C([H])([H])C([H])([H])C([H])([H])C([H])(n5nc(-c6c([H])c([H])c(Oc7c([H])c([H])c(F)c([H])c7F)c([H])c6[H])c(C(=O)N([H])[H])c5N([H])[H])C4([H])[H])(C([H])([H])[H])C([H])([H])[H])nnc3C(F)(F)F)c([H])c([H])c2C1([H])[H]

$$$$
74:0:0
     RDKit          3D

 88 96  0  0  1  0  0  0  0  0999 V2000
  -27.8420  -21.5390   19.5790 C   0  0  0  0  0  2  0  0  0  0  0  0
  -28.4680  -22.6950   20.2140 C   0  0  0  0  0  0  0  0  0  0  0  0
  -29.3200  -19.7540   20.3700 C   0  0  0  0  0  0  0  0  0  0  0  0
  -28.2440  -20.1770   19.6360 N   0  0  0  0  0  0  0  0  0  0  0  0
  -29.5470  -22.1930   20.9520 N   0  0  0  0  0  0  0  0  0  0  0  0
  -29.9590  -20.8340   20.9900 N   0  0  0  0  0  2  0  0  0  0  0  0
  -30.8200  -18.2840   18.8310 C   0  0  0  0  0  1  0  0  0  0  0  0
  -30.0980  -18.1940   20.1890 C   0  0  0  0  0  0  0  0  0  0  0  0
  -30.4130  -15.3020   20.2790 C   0  0  0  0  0  0  0  0  0  0  0  0
  -30.3420  -12.8830   19.3600 C   0  0  0  0  0  2  0  0  0  0  0  0
  -29.4120  -12.7090   18.1330 C   0  0  0  0  0  2  0  0  0  0  0  0
  -27.9660  -12.4370   18.5840 C   0  0  0  0  0  2  0  0  0  0  0  0
  -27.5300  -13.3800   19.7340 C   0  0  0  0  0  3  0  0  0  0  0  0
  -28.5900  -13.5100   20.8480 C   0  0  0  0  0  2  0  0  0  0  0  0
  -29.8170  -14.0130   20.2100 N   0  0  0  0  0  0  0  0  0  0  0  0
  -31.6290  -15.2760   20.0490 O   0  0  0  0  0  0  0  0  0  0  0  0
  -29.6940  -16.5920   20.3860 N   0  0  0  0  0  4  0  0  0  0  0  0
  -28.7070  -16.4760   20.5570 H   0  0  0  0  0  0  0  0  0  0  0  0
  -25.1620  -13.9190   20.5060 C   0  0  0  0  0  0  0  0  0  0  0  0
  -24.1070  -13.1350   20.8800 C   0  0  0  0  0  0  0  0  0  0  0  0
  -24.5830  -11.7880   20.8430 C   0  0  0  0  0  0  0  0  0  0  0  0
  -26.2090  -13.0530   20.2520 N   0  0  0  0  0  0  0  0  0  0  0  0
  -25.8730  -11.7630   20.5240 N   0  0  0  0  0  0  0  0  0  0  0  0
  -23.8650  -10.5210   21.0310 C   0  0  0  0  0  0  0  0  0  0  0  0
  -24.2990   -9.5550   21.9650 C   0  0  0  0  0  3  0  0  0  0  0  0
  -23.5780   -8.3540   22.1420 C   0  0  0  0  0  3  0  0  0  0  0  0
  -22.4080   -8.1110   21.3840 C   0  0  0  0  0  0  0  0  0  0  0  0
  -21.9920   -9.0660   20.4380 C   0  0  0  0  0  3  0  0  0  0  0  0
  -22.7150  -10.2560   20.2590 C   0  0  0  0  0  3  0  0  0  0  0  0
  -21.6560   -6.9640   21.4710 O   0  0  0  0  0  0  0  0  0  0  0  0
  -21.5970   -6.2280   22.6260 C   0  0  0  0  0  0  0  0  0  0  0  0
  -21.1350   -6.7820   23.8400 C   0  0  0  0  0  3  0  0  0  0  0  0
  -21.0260   -5.9700   24.9880 C   0  0  0  0  0  3  0  0  0  0  0  0
  -21.3700   -4.6060   24.9220 C   0  0  0  0  0  0  0  0  0  0  0  0
  -21.8250   -4.0520   23.7130 C   0  0  0  0  0  3  0  0  0  0  0  0
  -21.9360   -4.8600   22.5680 C   0  0  0  0  0  0  0  0  0  0  0  0
  -22.3550   -4.3160   21.4000 F   0  0  0  0  0  0  0  0  0  0  0  0
  -21.2570   -3.8240   26.0210 F   0  0  0  0  0  0  0  0  0  0  0  0
  -22.7090  -13.6030   21.1530 C   0  0  0  0  0  0  0  0  0  0  0  0
  -21.9890  -12.9060   22.0250 N   0  0  0  0  0  0  0  0  0  0  0  0
  -22.2620  -14.6230   20.6280 O   0  0  0  0  0  0  0  0  0  0  0  0
  -22.3630  -12.0810   22.4700 H   0  0  0  0  0  0  0  0  0  0  0  0
  -21.0490  -13.2000   22.2490 H   0  0  0  0  0  0  0  0  0  0  0  0
  -25.3140  -15.2920   20.3290 N   0  0  0  0  0  0  0  0  0  0  0  0
  -24.5390  -15.9390   20.4300 H   0  0  0  0  0  0  0  0  0  0  0  0
  -26.1460  -15.7280   19.9550 H   0  0  0  0  0  0  0  0  0  0  0  0
  -27.7290  -24.2890   20.1980 C   0  0  0  0  0  2  0  0  0  0  0  0
  -28.1480  -25.8780   20.2800 O   0  0  0  0  0  0  0  0  0  0  0  0
  -24.6390  -31.8830   23.2470 C   0  0  0  0  0  0  0  0  0  0  0  0
  -27.1600  -26.9980   20.2240 C   0  0  0  0  0  0  0  0  0  0  0  0
  -23.4350  -30.4940   21.6120 C   0  0  0  0  0  3  0  0  0  0  0  0
  -24.8710  -28.8900   20.1860 C   0  0  0  0  0  0  0  0  0  0  0  0
  -26.0020  -30.6970   21.4570 C   0  0  0  0  0  2  0  0  0  0  0  0
  -26.0650  -29.2870   20.8040 C   0  0  0  0  0  0  0  0  0  0  0  0
  -27.2040  -28.3620   20.7990 C   0  0  0  0  0  3  0  0  0  0  0  0
  -25.9360  -26.7600   19.5560 C   0  0  0  0  0  3  0  0  0  0  0  0
  -24.8330  -27.6470   19.5420 C   0  0  0  0  0  3  0  0  0  0  0  0
  -23.6580  -29.8150   20.2340 C   0  0  0  0  0  2  0  0  0  0  0  0
  -24.7150  -31.0520   22.1590 N   0  0  0  0  0  0  0  0  0  0  0  0
  -23.5520  -32.1740   23.7720 O   0  0  0  0  0  0  0  0  0  0  0  0
  -22.7390  -29.4990   22.5790 C   0  0  0  0  0  0  0  0  0  0  0  0
  -21.4090  -29.3330   22.4540 N   0  0  0  0  0  0  0  0  0  0  0  0
  -23.4040  -28.8750   23.4100 O   0  0  0  0  0  0  0  0  0  0  0  0
  -20.9250  -29.8910   21.7640 H   0  0  0  0  0  0  0  0  0  0  0  0
  -18.0260  -28.1190   22.9570 C   0  0  0  0  0  0  0  0  0  0  0  0
  -20.5860  -28.3980   23.2280 C   0  0  0  0  0  3  0  0  0  0  0  0
  -20.6930  -26.9620   22.6620 C   0  0  0  0  0  2  0  0  0  0  0  0
  -19.5960  -26.6290   21.6460 C   0  0  0  0  0  2  0  0  0  0  0  0
  -18.2120  -26.7700   22.2850 C   0  0  0  0  0  2  0  0  0  0  0  0
  -19.1410  -28.8900   23.3860 C   0  0  0  0  0  0  0  0  0  0  0  0
  -18.9120  -30.1510   23.9780 C   0  0  0  0  0  3  0  0  0  0  0  0
  -17.6020  -30.6430   24.1420 C   0  0  0  0  0  3  0  0  0  0  0  0
  -16.5040  -29.8700   23.7280 C   0  0  0  0  0  3  0  0  0  0  0  0
  -16.7170  -28.6100   23.1410 C   0  0  0  0  0  3  0  0  0  0  0  0
  -25.9140  -32.5210   23.8770 C   0  0  0  0  0  3  0  0  0  0  0  0
  -25.6040  -33.9220   24.2100 N   0  0  0  0  0  0  0  0  0  0  0  0
  -25.9190  -34.9800   23.4500 C   0  0  0  0  0  0  0  0  0  0  0  0
  -26.5640  -34.8780   22.4040 O   0  0  0  0  0  0  0  0  0  0  0  0
  -25.0310  -34.0750   25.0270 H   0  0  0  0  0  0  0  0  0  0  0  0
  -24.1780  -36.7750   23.1570 C   0  0  0  0  0  1  0  0  0  0  0  0
  -25.4460  -36.3690   23.9250 C   0  0  0  0  0  3  0  0  0  0  0  0
  -27.6050  -37.2640   24.6810 C   0  0  0  0  0  1  0  0  0  0  0  0
  -26.4700  -37.4260   23.7770 N   0  0  0  0  0  0  0  0  0  0  0  0
  -26.0660  -38.3450   23.9360 H   0  0  0  0  0  0  0  0  0  0  0  0
  -26.4160  -31.7570   25.1630 C   0  0  1  0  0  0  0  0  0  0  0  0
  -25.3160  -31.5360   26.2270 C   0  0  0  0  0  1  0  0  0  0  0  0
  -26.9920  -30.3720   24.7930 C   0  0  0  0  0  1  0  0  0  0  0  0
  -27.5720  -32.5460   25.8240 C   0  0  0  0  0  1  0  0  0  0  0  0
  1  4  1  0
  1  2  1  0
  2  5  2  0
  3  6  1  0
  4  3  2  0
  5  6  1  0
  7  8  1  0
  8  3  1  0
  8 17  2  0
  9 17  1  0
 10 15  1  0
 11 12  1  0
 11 10  1  0
 13 12  1  0
 13 22  1  0
 13 14  1  0
 15  9  1  0
 15 14  1  0
 16  9  2  0
 17 18  1  0
 19 20  2  0
 20 39  1  0
 21 20  1  0
 21 24  1  0
 22 19  1  0
 22 23  1  0
 23 21  2  0
 24 25  1  0
 25 26  2  0
 27 30  1  0
 27 26  1  0
 28 27  2  0
 29 28  1  0
 29 24  2  0
 30 31  1  0
 31 32  1  0
 32 33  2  0
 34 33  1  0
 34 38  1  0
 35 34  2  0
 36 31  2  0
 36 35  1  0
 37 36  1  0
 39 40  1  0
 40 43  1  0
 40 42  1  0
 41 39  2  0
 44 45  1  0
 44 19  1  0
 46 44  1  0
 47  2  1  0
 47 48  1  0
 49 60  2  0
 50 48  1  0
 50 55  1  0
 51 59  1  0
 51 61  1  0
 52 58  1  0
 52 54  1  0
 53 59  1  0
 54 53  1  0
 55 54  2  0
 56 50  2  0
 57 56  1  0
 57 52  2  0
 58 51  1  0
 59 49  1  0
 61 63  2  0
 62 61  1  0
 64 62  1  0
 65 74  2  0
 65 70  1  0
 66 62  1  0
 66 70  1  0
 67 66  1  0
 68 69  1  0
 68 67  1  0
 69 65  1  0
 70 71  2  0
 71 72  1  0
 73 72  2  0
 74 73  1  0
 75 49  1  0
 75 76  1  0
 75 85  1  0
 76 79  1  0
 77 81  1  0
 77 76  1  0
 78 77  2  0
 81 80  1  0
 83 81  1  0
 83 84  1  0
 83 82  1  0
 85 88  1  1
 85 86  1  0
 87 85  1  0
M  ISO  4   9 100  17 100  47 101  48 101
M  END
>  <TORSDO>  (71) 
F 18

>  <SCORE>  (71) 
-15.715

>  <name>  (71) 
74

>  <ligand_id>  (71) 
74

>  <original_smiles>  (71) 
[H]c1nc(C([H])(N([H])C(=O)N2C([H])([H])C([H])([H])C([H])([H])C([H])(n3nc(-c4c([H])c([H])c(Oc5c([H])c([H])c(F)c([H])c5F)c([H])c4[H])c(C(=O)N([H])[H])c3N([H])[H])C2([H])[H])C([H])([H])[H])nnc1C([H])([H])Oc1c([H])c([H])c2c(c1[H])C([H])([H])N(C(=O)C([H])(N([H])C(=O)C([H])(N([H])C([H])([H])[H])C([H])([H])[H])C(C([H])([H])[H])(C([H])([H])[H])C([H])([H])[H])C([H])(C(=O)N([H])C1([H])c3c([H])c([H])c([H])c([H])c3C([H])([H])C([H])([H])C1([H])[H])C2([H])[H]

>  <smiles>  (71) 
[H]c1nc(C([H])(N([H])C(=O)N2C([H])([H])C([H])([H])C([H])([H])C([H])(n3nc(-c4c([H])c([H])c(Oc5c([H])c([H])c(F)c([H])c5F)c([H])c4[H])c(C(=O)N([H])[H])c3N([H])[H])C2([H])[H])C([H])([H])[H])nnc1C([H])([H])Oc1c([H])c([H])c2c(c1[H])C([H])([H])N(C(=O)C([H])(N([H])C(=O)C([H])(N([H])C([H])([H])[H])C([H])([H])[H])C(C([H])([H])[H])(C([H])([H])[H])C([H])([H])[H])C([H])(C(=O)N([H])C1([H])c3c([H])c([H])c([H])c([H])c3C([H])([H])C([H])([H])C1([H])[H])C2([H])[H]

$$$$
75:0:0
     RDKit          3D

 90 98  0  0  1  0  0  0  0  0999 V2000
  -27.5860  -20.3180   19.1400 C   0  0  0  0  0  3  0  0  0  0  0  0
  -28.9480  -18.8960   19.9550 C   0  0  0  0  0  0  0  0  0  0  0  0
  -27.2860  -19.1690   18.5440 N   0  0  0  0  0  0  0  0  0  0  0  0
  -28.1670  -18.2640   19.0600 N   0  0  0  0  0  0  0  0  0  0  0  0
  -28.6040  -20.3230   20.0200 N   0  0  0  0  0  0  0  0  0  0  0  0
  -28.8810  -21.7110   20.7480 C   0  0  0  0  0  2  0  0  0  0  0  0
  -28.6340  -23.2650   20.0470 C   0  0  0  0  0  2  0  0  0  0  0  0
  -28.0980  -24.7040   20.7910 C   0  0  0  0  0  2  0  0  0  0  0  0
  -28.2720  -26.2090   20.3700 O   0  0  0  0  0  0  0  0  0  0  0  0
  -24.5800  -31.9390   23.2860 C   0  0  0  0  0  0  0  0  0  0  0  0
  -27.2010  -27.1800   20.3550 C   0  0  0  0  0  0  0  0  0  0  0  0
  -23.4020  -30.5180   21.6530 C   0  0  0  0  0  3  0  0  0  0  0  0
  -24.8690  -28.9220   20.2690 C   0  0  0  0  0  0  0  0  0  0  0  0
  -25.9570  -30.7870   21.5090 C   0  0  0  0  0  2  0  0  0  0  0  0
  -26.0420  -29.3840   20.8790 C   0  0  0  0  0  0  0  0  0  0  0  0
  -27.2120  -28.5300   20.8970 C   0  0  0  0  0  3  0  0  0  0  0  0
  -26.0000  -26.8170   19.7110 C   0  0  0  0  0  3  0  0  0  0  0  0
  -24.8610  -27.6520   19.6680 C   0  0  0  0  0  3  0  0  0  0  0  0
  -23.6400  -29.8210   20.2870 C   0  0  0  0  0  2  0  0  0  0  0  0
  -24.6660  -31.1050   22.2040 N   0  0  0  0  0  0  0  0  0  0  0  0
  -23.4880  -32.2260   23.8000 O   0  0  0  0  0  0  0  0  0  0  0  0
  -22.7160  -29.5220   22.6210 C   0  0  0  0  0  0  0  0  0  0  0  0
  -21.3930  -29.3320   22.4710 N   0  0  0  0  0  0  0  0  0  0  0  0
  -23.3770  -28.9230   23.4730 O   0  0  0  0  0  0  0  0  0  0  0  0
  -20.9140  -29.8670   21.7600 H   0  0  0  0  0  0  0  0  0  0  0  0
  -18.0140  -28.1160   22.9490 C   0  0  0  0  0  0  0  0  0  0  0  0
  -20.5680  -28.3990   23.2440 C   0  0  0  0  0  3  0  0  0  0  0  0
  -20.6860  -26.9610   22.6880 C   0  0  0  0  0  2  0  0  0  0  0  0
  -19.5980  -26.6190   21.6650 C   0  0  0  0  0  2  0  0  0  0  0  0
  -18.2080  -26.7610   22.2900 C   0  0  0  0  0  2  0  0  0  0  0  0
  -19.1220  -28.8920   23.3830 C   0  0  0  0  0  0  0  0  0  0  0  0
  -18.8860  -30.1580   23.9610 C   0  0  0  0  0  3  0  0  0  0  0  0
  -17.5740  -30.6490   24.1080 C   0  0  0  0  0  3  0  0  0  0  0  0
  -16.4820  -29.8710   23.6900 C   0  0  0  0  0  3  0  0  0  0  0  0
  -16.7010  -28.6070   23.1150 C   0  0  0  0  0  3  0  0  0  0  0  0
  -25.8490  -32.5870   23.9200 C   0  0  0  0  0  3  0  0  0  0  0  0
  -25.5350  -33.9950   24.2120 N   0  0  0  0  0  0  0  0  0  0  0  0
  -25.8880  -35.0340   23.4420 C   0  0  0  0  0  0  0  0  0  0  0  0
  -26.5770  -34.9070   22.4270 O   0  0  0  0  0  0  0  0  0  0  0  0
  -24.9240  -34.1660   24.9960 H   0  0  0  0  0  0  0  0  0  0  0  0
  -24.1960  -36.8460   23.0020 C   0  0  0  0  0  1  0  0  0  0  0  0
  -25.4010  -36.4340   23.8650 C   0  0  0  0  0  3  0  0  0  0  0  0
  -27.5020  -37.3160   24.7780 C   0  0  0  0  0  1  0  0  0  0  0  0
  -26.4490  -37.4740   23.7800 N   0  0  0  0  0  0  0  0  0  0  0  0
  -26.0460  -38.4010   23.8870 H   0  0  0  0  0  0  0  0  0  0  0  0
  -26.3340  -31.8510   25.2290 C   0  0  1  0  0  0  0  0  0  0  0  0
  -25.2150  -31.6410   26.2770 C   0  0  0  0  0  1  0  0  0  0  0  0
  -26.9260  -30.4630   24.8920 C   0  0  0  0  0  1  0  0  0  0  0  0
  -27.4680  -32.6620   25.8980 C   0  0  0  0  0  1  0  0  0  0  0  0
  -30.0320  -17.8530   20.6010 C   0  0  0  0  0  3  0  0  0  0  0  0
  -30.5280  -15.0790   20.3130 C   0  0  0  0  0  0  0  0  0  0  0  0
  -30.4080  -12.7380   19.3210 C   0  0  0  0  0  2  0  0  0  0  0  0
  -29.4520  -12.6950   18.1060 C   0  0  0  0  0  2  0  0  0  0  0  0
  -28.0030  -12.4540   18.5660 C   0  0  0  0  0  2  0  0  0  0  0  0
  -27.6080  -13.3500   19.7690 C   0  0  0  0  0  3  0  0  0  0  0  0
  -28.6870  -13.3680   20.8710 C   0  0  0  0  0  2  0  0  0  0  0  0
  -29.9320  -13.8170   20.2370 N   0  0  0  0  0  0  0  0  0  0  0  0
  -31.7330  -15.1190   20.0450 O   0  0  0  0  0  0  0  0  0  0  0  0
  -29.7560  -16.2720   20.4950 N   0  0  0  0  0  0  0  0  0  0  0  0
  -28.7740  -16.0710   20.5940 H   0  0  0  0  0  0  0  0  0  0  0  0
  -25.2360  -13.8810   20.5610 C   0  0  0  0  0  0  0  0  0  0  0  0
  -24.1920  -13.0860   20.9430 C   0  0  0  0  0  0  0  0  0  0  0  0
  -24.6760  -11.7440   20.8910 C   0  0  0  0  0  0  0  0  0  0  0  0
  -26.2870  -13.0230   20.2910 N   0  0  0  0  0  0  0  0  0  0  0  0
  -25.9630  -11.7310   20.5570 N   0  0  0  0  0  0  0  0  0  0  0  0
  -23.9720  -10.4690   21.0810 C   0  0  0  0  0  0  0  0  0  0  0  0
  -24.4110   -9.5150   22.0270 C   0  0  0  0  0  3  0  0  0  0  0  0
  -23.7050   -8.3070   22.2060 C   0  0  0  0  0  3  0  0  0  0  0  0
  -22.5450   -8.0410   21.4390 C   0  0  0  0  0  0  0  0  0  0  0  0
  -22.1260   -8.9830   20.4820 C   0  0  0  0  0  3  0  0  0  0  0  0
  -22.8330  -10.1830   20.3020 C   0  0  0  0  0  3  0  0  0  0  0  0
  -21.8110   -6.8830   21.5250 O   0  0  0  0  0  0  0  0  0  0  0  0
  -21.7320   -6.1670   22.6930 C   0  0  0  0  0  0  0  0  0  0  0  0
  -21.1860   -6.7200   23.8710 C   0  0  0  0  0  3  0  0  0  0  0  0
  -21.0600   -5.9260   25.0290 C   0  0  0  0  0  3  0  0  0  0  0  0
  -21.4700   -4.5800   25.0090 C   0  0  0  0  0  0  0  0  0  0  0  0
  -22.0100   -4.0260   23.8350 C   0  0  0  0  0  3  0  0  0  0  0  0
  -22.1370   -4.8170   22.6790 C   0  0  0  0  0  0  0  0  0  0  0  0
  -22.6380   -4.2720   21.5440 F   0  0  0  0  0  0  0  0  0  0  0  0
  -21.3430   -3.8150   26.1190 F   0  0  0  0  0  0  0  0  0  0  0  0
  -22.7920  -13.5390   21.2390 C   0  0  0  0  0  0  0  0  0  0  0  0
  -22.0850  -12.8170   22.1000 N   0  0  0  0  0  0  0  0  0  0  0  0
  -22.3360  -14.5690   20.7440 O   0  0  0  0  0  0  0  0  0  0  0  0
  -22.4700  -11.9850   22.5230 H   0  0  0  0  0  0  0  0  0  0  0  0
  -21.1450  -13.1000   22.3410 H   0  0  0  0  0  0  0  0  0  0  0  0
  -25.3730  -15.2560   20.3900 N   0  0  0  0  0  0  0  0  0  0  0  0
  -24.5880  -15.8890   20.5030 H   0  0  0  0  0  0  0  0  0  0  0  0
  -26.1850  -15.7080   19.9880 H   0  0  0  0  0  0  0  0  0  0  0  0
  -31.8990  -19.6270   20.1570 C   0  0  0  0  0  1  0  0  0  0  0  0
  -31.4550  -18.1590   20.0720 C   0  0  0  0  0  2  0  0  0  0  0  0
  1  5  1  0
  2  5  1  0
  2 50  1  0
  3  4  1  0
  3  1  2  0
  4  2  2  0
  5  6  1  0
  7  6  1  0
  7  8  1  0
  9  8  1  0
 10 21  2  0
 11  9  1  0
 11 16  1  0
 12 20  1  0
 12 22  1  0
 13 19  1  0
 13 15  1  0
 14 20  1  0
 15 16  2  0
 15 14  1  0
 17 11  2  0
 18 17  1  0
 18 13  2  0
 19 12  1  0
 20 10  1  0
 22 24  2  0
 23 22  1  0
 25 23  1  0
 26 35  2  0
 26 31  1  0
 27 23  1  0
 27 31  1  0
 28 27  1  0
 29 30  1  0
 29 28  1  0
 30 26  1  0
 31 32  2  0
 32 33  1  0
 34 33  2  0
 35 34  1  0
 36 10  1  0
 36 37  1  0
 36 46  1  0
 37 40  1  0
 38 42  1  0
 38 37  1  0
 39 38  2  0
 42 41  1  0
 44 42  1  0
 44 45  1  0
 44 43  1  0
 46 49  1  1
 46 47  1  0
 48 46  1  0
 50 90  1  0
 51 59  1  0
 52 57  1  0
 53 54  1  0
 53 52  1  0
 55 54  1  0
 55 64  1  0
 55 56  1  0
 57 51  1  0
 57 56  1  0
 58 51  2  0
 59 60  1  0
 59 50  1  0
 61 62  2  0
 62 81  1  0
 63 62  1  0
 63 66  1  0
 64 65  1  0
 64 61  1  0
 65 63  2  0
 66 67  1  0
 67 68  2  0
 69 72  1  0
 69 68  1  0
 70 69  2  0
 71 70  1  0
 71 66  2  0
 72 73  1  0
 73 74  1  0
 74 75  2  0
 76 75  1  0
 76 80  1  0
 77 76  2  0
 78 73  2  0
 78 77  1  0
 79 78  1  0
 81 82  1  0
 82 85  1  0
 82 84  1  0
 83 81  2  0
 86 87  1  0
 86 61  1  0
 88 86  1  0
 90 89  1  0
M  ISO  4   8 101   9 101  51 100  59 100
M  END
>  <TORSDO>  (72) 
F 21

>  <SCORE>  (72) 
-14.750

>  <name>  (72) 
75

>  <ligand_id>  (72) 
75

>  <original_smiles>  (72) 
[H]c1c([H])c([H])c2c(c1[H])C([H])([H])C([H])([H])C([H])([H])C2([H])N([H])C(=O)C1([H])N(C(=O)C([H])(N([H])C(=O)C([H])(N([H])C([H])([H])[H])C([H])([H])[H])C(C([H])([H])[H])(C([H])([H])[H])C([H])([H])[H])C([H])([H])c2c([H])c(OC([H])([H])C([H])([H])C([H])([H])n3c([H])nnc3C([H])(N([H])C(=O)N3C([H])([H])C([H])([H])C([H])([H])C([H])(n4nc(-c5c([H])c([H])c(Oc6c([H])c([H])c(F)c([H])c6F)c([H])c5[H])c(C(=O)N([H])[H])c4N([H])[H])C3([H])[H])C([H])([H])C([H])([H])[H])c([H])c([H])c2C1([H])[H]

>  <smiles>  (72) 
[H]c1c([H])c([H])c2c(c1[H])C([H])([H])C([H])([H])C([H])([H])C2([H])N([H])C(=O)C1([H])N(C(=O)C([H])(N([H])C(=O)C([H])(N([H])C([H])([H])[H])C([H])([H])[H])C(C([H])([H])[H])(C([H])([H])[H])C([H])([H])[H])C([H])([H])c2c([H])c(OC([H])([H])C([H])([H])C([H])([H])n3c([H])nnc3C([H])(N([H])C(=O)N3C([H])([H])C([H])([H])C([H])([H])C([H])(n4nc(-c5c([H])c([H])c(Oc6c([H])c([H])c(F)c([H])c6F)c([H])c5[H])c(C(=O)N([H])[H])c4N([H])[H])C3([H])[H])C([H])([H])C([H])([H])[H])c([H])c([H])c2C1([H])[H]

$$$$
76:0:0
     RDKit          3D

 92100  0  0  1  0  0  0  0  0999 V2000
  -31.1300  -18.9680   20.4530 C   0  0  0  0  0  3  0  0  0  0  0  0
  -30.7650  -21.0760   20.0460 C   0  0  0  0  0  0  0  0  0  0  0  0
  -29.4750  -20.5810   20.2100 C   0  0  0  0  0  0  0  0  0  0  0  0
  -31.7400  -20.1040   20.2030 N   0  0  0  0  0  0  0  0  0  0  0  0
  -29.7920  -18.9530   20.4490 N   0  0  0  0  0  0  0  0  0  0  0  0
  -31.2010  -22.4640   19.6080 C   0  0  0  0  0  2  0  0  0  0  0  0
  -33.6550  -22.2550   18.8760 C   0  0  0  0  0  1  0  0  0  0  0  0
  -32.8700  -24.3560   20.0220 C   0  0  0  0  0  1  0  0  0  0  0  0
  -32.6770  -22.8330   19.9190 C   0  0  0  0  0  3  0  0  0  0  0  0
  -28.2720  -21.9480   19.9350 C   0  0  0  0  0  2  0  0  0  0  0  0
  -27.9580  -23.8270   20.3310 C   0  0  0  0  0  2  0  0  0  0  0  0
  -28.0320  -25.5130   19.8650 O   0  0  0  0  0  0  0  0  0  0  0  0
  -24.6240  -31.7680   23.0020 C   0  0  0  0  0  0  0  0  0  0  0  0
  -27.0430  -26.7030   19.9360 C   0  0  0  0  0  0  0  0  0  0  0  0
  -23.3840  -30.3840   21.3950 C   0  0  0  0  0  3  0  0  0  0  0  0
  -24.7820  -28.7280   19.9500 C   0  0  0  0  0  0  0  0  0  0  0  0
  -25.9570  -30.5180   21.2020 C   0  0  0  0  0  2  0  0  0  0  0  0
  -25.9970  -29.0850   20.5450 C   0  0  0  0  0  0  0  0  0  0  0  0
  -27.1170  -28.1030   20.4990 C   0  0  0  0  0  3  0  0  0  0  0  0
  -25.7890  -26.5460   19.2960 C   0  0  0  0  0  3  0  0  0  0  0  0
  -24.7130  -27.4830   19.3010 C   0  0  0  0  0  3  0  0  0  0  0  0
  -23.5840  -29.6860   20.0190 C   0  0  0  0  0  2  0  0  0  0  0  0
  -24.6810  -30.9210   21.9190 N   0  0  0  0  0  0  0  0  0  0  0  0
  -23.5470  -32.0740   23.5410 O   0  0  0  0  0  0  0  0  0  0  0  0
  -22.6860  -29.4090   22.3830 C   0  0  0  0  0  0  0  0  0  0  0  0
  -21.3490  -29.2720   22.3020 N   0  0  0  0  0  0  0  0  0  0  0  0
  -23.3610  -28.7690   23.1950 O   0  0  0  0  0  0  0  0  0  0  0  0
  -20.8540  -29.8410   21.6270 H   0  0  0  0  0  0  0  0  0  0  0  0
  -17.9620  -28.1070   22.9160 C   0  0  0  0  0  0  0  0  0  0  0  0
  -20.5340  -28.3420   23.0940 C   0  0  0  0  0  3  0  0  0  0  0  0
  -20.5950  -26.9110   22.5120 C   0  0  0  0  0  2  0  0  0  0  0  0
  -19.4580  -26.6080   21.5320 C   0  0  0  0  0  2  0  0  0  0  0  0
  -18.1000  -26.7630   22.2220 C   0  0  0  0  0  2  0  0  0  0  0  0
  -19.1030  -28.8560   23.3110 C   0  0  0  0  0  0  0  0  0  0  0  0
  -18.9130  -30.1130   23.9280 C   0  0  0  0  0  3  0  0  0  0  0  0
  -17.6190  -30.6210   24.1470 C   0  0  0  0  0  3  0  0  0  0  0  0
  -16.4940  -29.8690   23.7630 C   0  0  0  0  0  3  0  0  0  0  0  0
  -16.6670  -28.6150   23.1550 C   0  0  0  0  0  3  0  0  0  0  0  0
  -25.9090  -32.4070   23.6120 C   0  0  0  0  0  3  0  0  0  0  0  0
  -25.5870  -33.7920   24.0160 N   0  0  0  0  0  0  0  0  0  0  0  0
  -25.9110  -34.8910   23.3210 C   0  0  0  0  0  0  0  0  0  0  0  0
  -26.5670  -34.8480   22.2780 O   0  0  0  0  0  0  0  0  0  0  0  0
  -25.0020  -33.8970   24.8300 H   0  0  0  0  0  0  0  0  0  0  0  0
  -24.1860  -36.7150   23.1000 C   0  0  0  0  0  1  0  0  0  0  0  0
  -25.4360  -36.2550   23.8670 C   0  0  0  0  0  3  0  0  0  0  0  0
  -27.5830  -37.0950   24.7180 C   0  0  0  0  0  1  0  0  0  0  0  0
  -26.4700  -37.3130   23.7990 N   0  0  0  0  0  0  0  0  0  0  0  0
  -26.0680  -38.2240   23.9970 H   0  0  0  0  0  0  0  0  0  0  0  0
  -26.4690  -31.6050   24.8520 C   0  0  1  0  0  0  0  0  0  0  0  0
  -25.4140  -31.3390   25.9520 C   0  0  0  0  0  1  0  0  0  0  0  0
  -27.0360  -30.2360   24.4140 C   0  0  0  0  0  1  0  0  0  0  0  0
  -27.6430  -32.3810   25.4910 C   0  0  0  0  0  1  0  0  0  0  0  0
  -29.3200  -17.2660   20.6820 C   0  0  0  0  0  3  0  0  0  0  0  0
  -30.2170  -15.6420   20.9500 C   0  0  0  0  0  0  0  0  0  0  0  0
  -30.4690  -13.0530   20.3700 C   0  0  0  0  0  2  0  0  0  0  0  0
  -29.7300  -12.5960   19.0790 C   0  0  0  0  0  2  0  0  0  0  0  0
  -28.2590  -12.2500   19.3640 C   0  0  0  0  0  2  0  0  0  0  0  0
  -27.6100  -13.2880   20.3070 C   0  0  0  0  0  3  0  0  0  0  0  0
  -28.4980  -13.6770   21.5120 C   0  0  0  0  0  2  0  0  0  0  0  0
  -29.7540  -14.2570   20.9840 N   0  0  0  0  0  0  0  0  0  0  0  0
  -31.4640  -15.6070   20.9510 O   0  0  0  0  0  0  0  0  0  0  0  0
  -25.1820  -13.8130   20.8660 C   0  0  0  0  0  0  0  0  0  0  0  0
  -24.0900  -13.0280   21.0920 C   0  0  0  0  0  0  0  0  0  0  0  0
  -24.5590  -11.6780   21.0650 C   0  0  0  0  0  0  0  0  0  0  0  0
  -26.2450  -12.9460   20.6910 N   0  0  0  0  0  0  0  0  0  0  0  0
  -25.8770  -11.6520   20.8840 N   0  0  0  0  0  0  0  0  0  0  0  0
  -23.8130  -10.4150   21.1430 C   0  0  0  0  0  0  0  0  0  0  0  0
  -24.1450   -9.4170   22.0850 C   0  0  0  0  0  3  0  0  0  0  0  0
  -23.3960   -8.2220   22.1580 C   0  0  0  0  0  3  0  0  0  0  0  0
  -22.3000   -8.0170   21.2870 C   0  0  0  0  0  0  0  0  0  0  0  0
  -21.9890   -9.0040   20.3350 C   0  0  0  0  0  3  0  0  0  0  0  0
  -22.7370  -10.1900   20.2600 C   0  0  0  0  0  3  0  0  0  0  0  0
  -21.5320   -6.8770   21.2680 O   0  0  0  0  0  0  0  0  0  0  0  0
  -21.3720   -6.0980   22.3850 C   0  0  0  0  0  0  0  0  0  0  0  0
  -20.8350   -6.6170   23.5860 C   0  0  0  0  0  3  0  0  0  0  0  0
  -20.6220   -5.7640   24.6870 C   0  0  0  0  0  3  0  0  0  0  0  0
  -20.9370   -4.3940   24.5870 C   0  0  0  0  0  0  0  0  0  0  0  0
  -21.4640   -3.8780   23.3930 C   0  0  0  0  0  3  0  0  0  0  0  0
  -21.6790   -4.7270   22.2930 C   0  0  0  0  0  0  0  0  0  0  0  0
  -22.1680   -4.2190   21.1370 F   0  0  0  0  0  0  0  0  0  0  0  0
  -20.7270   -3.5730   25.6420 F   0  0  0  0  0  0  0  0  0  0  0  0
  -22.6720  -13.5010   21.2280 C   0  0  0  0  0  0  0  0  0  0  0  0
  -21.8590  -12.7990   22.0090 N   0  0  0  0  0  0  0  0  0  0  0  0
  -22.2900  -14.5340   20.6790 O   0  0  0  0  0  0  0  0  0  0  0  0
  -22.1770  -11.9650   22.4820 H   0  0  0  0  0  0  0  0  0  0  0  0
  -20.9030  -13.1020   22.1380 H   0  0  0  0  0  0  0  0  0  0  0  0
  -25.3580  -15.1910   20.7700 N   0  0  0  0  0  0  0  0  0  0  0  0
  -24.5880  -15.8300   20.9370 H   0  0  0  0  0  0  0  0  0  0  0  0
  -26.2430  -15.6630   20.6590 H   0  0  0  0  0  0  0  0  0  0  0  0
  -28.4230  -16.9610   19.4640 C   0  0  0  0  0  3  0  0  0  0  0  0
  -27.3270  -17.7220   19.4570 F   0  0  0  0  0  0  0  0  0  0  0  0
  -29.0980  -17.1320   18.3260 F   0  0  0  0  0  0  0  0  0  0  0  0
  2  4  1  0
  2  3  2  0
  3  5  1  0
  4  1  2  0
  5  1  1  0
  5 53  1  0
  6  9  1  0
  6  2  1  0
  7  9  1  0
  9  8  1  0
 10  3  1  0
 10 11  1  0
 12 14  1  0
 12 11  1  0
 13 24  2  0
 14 19  1  0
 15 23  1  0
 15 25  1  0
 16 22  1  0
 16 18  1  0
 17 23  1  0
 18 17  1  0
 19 18  2  0
 20 21  1  0
 20 14  2  0
 21 16  2  0
 22 15  1  0
 23 13  1  0
 25 27  2  0
 26 25  1  0
 28 26  1  0
 29 38  2  0
 29 34  1  0
 30 26  1  0
 30 34  1  0
 31 30  1  0
 32 33  1  0
 32 31  1  0
 33 29  1  0
 34 35  2  0
 35 36  1  0
 37 36  2  0
 38 37  1  0
 39 13  1  0
 39 40  1  0
 39 49  1  0
 40 43  1  0
 41 45  1  0
 41 40  1  0
 42 41  2  0
 45 44  1  0
 47 45  1  0
 47 48  1  0
 47 46  1  0
 49 52  1  1
 49 50  1  0
 51 49  1  0
 53 90  1  0
 53 54  1  0
 54 61  2  0
 54 60  1  0
 55 60  1  0
 56 57  1  0
 56 55  1  0
 58 57  1  0
 58 65  1  0
 58 59  1  0
 60 59  1  0
 62 63  2  0
 63 82  1  0
 64 63  1  0
 64 67  1  0
 65 62  1  0
 65 66  1  0
 66 64  2  0
 67 68  1  0
 68 69  2  0
 70 69  1  0
 71 70  2  0
 72 71  1  0
 72 67  2  0
 73 70  1  0
 73 74  1  0
 74 75  1  0
 75 76  2  0
 77 76  1  0
 77 81  1  0
 78 77  2  0
 79 74  2  0
 79 78  1  0
 80 79  1  0
 82 83  1  0
 83 86  1  0
 83 85  1  0
 84 82  2  0
 87 62  1  0
 87 88  1  0
 89 87  1  0
 91 90  1  0
 92 90  1  0
M  ISO  4  11 101  12 101  53 100  54 100
M  END
>  <TORSDO>  (73) 
F 22

>  <SCORE>  (73) 
-14.736

>  <name>  (73) 
76

>  <ligand_id>  (73) 
76

>  <original_smiles>  (73) 
[H]c1c([H])c([H])c2c(c1[H])C([H])([H])C([H])([H])C([H])([H])C2([H])N([H])C(=O)C1([H])N(C(=O)C([H])(N([H])C(=O)C([H])(N([H])C([H])([H])[H])C([H])([H])[H])C(C([H])([H])[H])(C([H])([H])[H])C([H])([H])[H])C([H])([H])c2c([H])c(OC([H])([H])C([H])([H])c3c(C([H])([H])C([H])(C([H])([H])[H])C([H])([H])[H])nc([H])n3C([H])(C(=O)N3C([H])([H])C([H])([H])C([H])([H])C([H])(n4nc(-c5c([H])c([H])c(Oc6c([H])c([H])c(F)c([H])c6F)c([H])c5[H])c(C(=O)N([H])[H])c4N([H])[H])C3([H])[H])C([H])(F)F)c([H])c([H])c2C1([H])[H]

>  <smiles>  (73) 
[H]c1c([H])c([H])c2c(c1[H])C([H])([H])C([H])([H])C([H])([H])C2([H])N([H])C(=O)C1([H])N(C(=O)C([H])(N([H])C(=O)C([H])(N([H])C([H])([H])[H])C([H])([H])[H])C(C([H])([H])[H])(C([H])([H])[H])C([H])([H])[H])C([H])([H])c2c([H])c(OC([H])([H])C([H])([H])c3c(C([H])([H])C([H])(C([H])([H])[H])C([H])([H])[H])nc([H])n3C([H])(C(=O)N3C([H])([H])C([H])([H])C([H])([H])C([H])(n4nc(-c5c([H])c([H])c(Oc6c([H])c([H])c(F)c([H])c6F)c([H])c5[H])c(C(=O)N([H])[H])c4N([H])[H])C3([H])[H])C([H])(F)F)c([H])c([H])c2C1([H])[H]

$$$$
77:0:0
     RDKit          3D

 90 98  0  0  1  0  0  0  0  0999 V2000
  -29.5630  -21.0930   22.0390 C   0  0  0  0  0  3  0  0  0  0  0  0
  -29.9630  -21.5560   19.7520 C   0  0  0  0  0  3  0  0  0  0  0  0
  -29.4990  -22.0350   20.9980 C   0  0  0  0  0  0  0  0  0  0  0  0
  -30.4810  -19.5030   20.6670 C   0  0  0  0  0  0  0  0  0  0  0  0
  -30.0500  -19.8470   21.8750 N   0  0  0  0  0  0  0  0  0  0  0  0
  -30.4420  -20.2950   19.5940 N   0  0  0  0  0  0  0  0  0  0  0  0
  -31.0870  -18.0930   20.5440 C   0  0  0  0  0  2  0  0  0  0  0  0
  -30.0470  -16.9510   20.3670 C   0  0  0  0  0  2  0  0  0  0  0  0
  -31.0410  -14.6620   20.0230 C   0  0  0  0  0  0  0  0  0  0  0  0
  -30.6450  -12.5400   18.8020 C   0  0  0  0  0  2  0  0  0  0  0  0
  -29.6360  -12.7680   17.6560 C   0  0  0  0  0  2  0  0  0  0  0  0
  -28.1860  -12.6380   18.1620 C   0  0  0  0  0  2  0  0  0  0  0  0
  -27.9320  -13.4630   19.4520 C   0  0  0  0  0  3  0  0  0  0  0  0
  -29.0360  -13.1860   20.4940 C   0  0  0  0  0  2  0  0  0  0  0  0
  -30.3410  -13.4970   19.8800 N   0  0  0  0  0  0  0  0  0  0  0  0
  -32.0530  -14.9150   19.3610 O   0  0  0  0  0  0  0  0  0  0  0  0
  -30.5510  -15.4670   22.2810 C   0  0  0  0  0  1  0  0  0  0  0  0
  -30.4750  -15.6030   20.8230 N   0  0  0  0  0  0  0  0  0  0  0  0
  -25.5950  -14.1130   20.3140 C   0  0  0  0  0  0  0  0  0  0  0  0
  -24.5290  -13.3570   20.7250 C   0  0  0  0  0  0  0  0  0  0  0  0
  -24.9520  -11.9960   20.6300 C   0  0  0  0  0  0  0  0  0  0  0  0
  -26.6010  -13.2120   19.9990 N   0  0  0  0  0  0  0  0  0  0  0  0
  -26.2200  -11.9320   20.2450 N   0  0  0  0  0  0  0  0  0  0  0  0
  -24.2050  -10.7470   20.8300 C   0  0  0  0  0  0  0  0  0  0  0  0
  -24.6120   -9.7870   21.7830 C   0  0  0  0  0  3  0  0  0  0  0  0
  -23.8680   -8.6020   21.9690 C   0  0  0  0  0  3  0  0  0  0  0  0
  -22.7020   -8.3700   21.2020 C   0  0  0  0  0  0  0  0  0  0  0  0
  -22.3130   -9.3170   20.2400 C   0  0  0  0  0  3  0  0  0  0  0  0
  -23.0580  -10.4940   20.0520 C   0  0  0  0  0  3  0  0  0  0  0  0
  -21.9320   -7.2360   21.2970 O   0  0  0  0  0  0  0  0  0  0  0  0
  -21.7820   -6.5630   22.4830 C   0  0  0  0  0  0  0  0  0  0  0  0
  -21.2660   -7.1920   23.6370 C   0  0  0  0  0  3  0  0  0  0  0  0
  -21.0640   -6.4470   24.8150 C   0  0  0  0  0  3  0  0  0  0  0  0
  -21.3680   -5.0720   24.8400 C   0  0  0  0  0  0  0  0  0  0  0  0
  -21.8760   -4.4420   23.6900 C   0  0  0  0  0  3  0  0  0  0  0  0
  -22.0800   -5.1860   22.5140 C   0  0  0  0  0  0  0  0  0  0  0  0
  -22.5500   -4.5690   21.4030 F   0  0  0  0  0  0  0  0  0  0  0  0
  -21.1660   -4.3540   25.9690 F   0  0  0  0  0  0  0  0  0  0  0  0
  -23.1640  -13.8610   21.0930 C   0  0  0  0  0  0  0  0  0  0  0  0
  -22.4750  -13.1640   21.9910 N   0  0  0  0  0  0  0  0  0  0  0  0
  -22.7180  -14.9050   20.6200 O   0  0  0  0  0  0  0  0  0  0  0  0
  -22.8490  -12.3190   22.3950 H   0  0  0  0  0  0  0  0  0  0  0  0
  -21.5610  -13.4830   22.2790 H   0  0  0  0  0  0  0  0  0  0  0  0
  -25.7840  -15.4820   20.1660 N   0  0  0  0  0  0  0  0  0  0  0  0
  -25.0450  -16.1530   20.3450 H   0  0  0  0  0  0  0  0  0  0  0  0
  -26.6320  -15.9120   19.8170 H   0  0  0  0  0  0  0  0  0  0  0  0
  -28.9950  -23.2990   21.2810 O   0  0  0  0  0  0  0  0  0  0  0  0
  -29.0360  -24.3680   20.3210 C   0  0  0  0  0  2  0  0  0  0  0  0
  -28.3880  -25.6150   20.9890 C   0  0  0  0  0  2  0  0  0  0  0  0
  -28.4930  -26.8550   20.2600 O   0  0  0  0  0  0  0  0  0  0  0  0
  -24.6170  -32.0000   23.3480 C   0  0  0  0  0  0  0  0  0  0  0  0
  -27.3350  -27.6070   20.2580 C   0  0  0  0  0  0  0  0  0  0  0  0
  -23.4380  -30.5870   21.6960 C   0  0  0  0  0  3  0  0  0  0  0  0
  -24.9210  -29.0800   20.2660 C   0  0  0  0  0  0  0  0  0  0  0  0
  -25.9590  -30.9860   21.5050 C   0  0  0  0  0  2  0  0  0  0  0  0
  -26.0700  -29.6200   20.8580 C   0  0  0  0  0  0  0  0  0  0  0  0
  -27.2840  -28.8910   20.8490 C   0  0  0  0  0  3  0  0  0  0  0  0
  -26.1720  -27.0840   19.6560 C   0  0  0  0  0  3  0  0  0  0  0  0
  -24.9660  -27.8120   19.6600 C   0  0  0  0  0  3  0  0  0  0  0  0
  -23.6610  -29.9180   20.3130 C   0  0  0  0  0  2  0  0  0  0  0  0
  -24.6890  -31.2060   22.2410 N   0  0  0  0  0  0  0  0  0  0  0  0
  -23.5300  -32.2520   23.8850 O   0  0  0  0  0  0  0  0  0  0  0  0
  -22.7980  -29.5520   22.6490 C   0  0  0  0  0  0  0  0  0  0  0  0
  -21.4820  -29.3320   22.4990 N   0  0  0  0  0  0  0  0  0  0  0  0
  -23.4850  -28.9500   23.4790 O   0  0  0  0  0  0  0  0  0  0  0  0
  -20.9870  -29.8730   21.8040 H   0  0  0  0  0  0  0  0  0  0  0  0
  -18.1360  -28.0360   22.9350 C   0  0  0  0  0  0  0  0  0  0  0  0
  -20.6790  -28.3740   23.2590 C   0  0  0  0  0  3  0  0  0  0  0  0
  -20.8380  -26.9430   22.6940 C   0  0  0  0  0  2  0  0  0  0  0  0
  -19.7670  -26.5800   21.6590 C   0  0  0  0  0  2  0  0  0  0  0  0
  -18.3680  -26.6870   22.2730 C   0  0  0  0  0  2  0  0  0  0  0  0
  -19.2220  -28.8340   23.3840 C   0  0  0  0  0  0  0  0  0  0  0  0
  -18.9520  -30.0940   23.9600 C   0  0  0  0  0  3  0  0  0  0  0  0
  -17.6290  -30.5560   24.0930 C   0  0  0  0  0  3  0  0  0  0  0  0
  -16.5580  -29.7560   23.6610 C   0  0  0  0  0  3  0  0  0  0  0  0
  -16.8130  -28.4970   23.0880 C   0  0  0  0  0  3  0  0  0  0  0  0
  -25.8900  -32.6470   23.9740 C   0  0  0  0  0  3  0  0  0  0  0  0
  -25.5680  -34.0460   24.2860 N   0  0  0  0  0  0  0  0  0  0  0  0
  -25.9200  -35.0930   23.5290 C   0  0  0  0  0  0  0  0  0  0  0  0
  -26.6210  -34.9860   22.5180 O   0  0  0  0  0  0  0  0  0  0  0  0
  -24.9490  -34.2050   25.0680 H   0  0  0  0  0  0  0  0  0  0  0  0
  -24.2150  -36.8900   23.0930 C   0  0  0  0  0  1  0  0  0  0  0  0
  -25.4150  -36.4830   23.9620 C   0  0  0  0  0  3  0  0  0  0  0  0
  -27.5110  -37.3630   24.8910 C   0  0  0  0  0  1  0  0  0  0  0  0
  -26.4550  -37.5330   23.8960 N   0  0  0  0  0  0  0  0  0  0  0  0
  -26.0440  -38.4540   24.0240 H   0  0  0  0  0  0  0  0  0  0  0  0
  -26.4040  -31.8920   25.2610 C   0  0  1  0  0  0  0  0  0  0  0  0
  -25.2970  -31.6310   26.3100 C   0  0  0  0  0  1  0  0  0  0  0  0
  -27.0250  -30.5280   24.8810 C   0  0  0  0  0  1  0  0  0  0  0  0
  -27.5240  -32.7140   25.9410 C   0  0  0  0  0  1  0  0  0  0  0  0
  2  3  1  0
  3 47  1  0
  3  1  2  0
  4  5  2  0
  5  1  1  0
  6  2  2  0
  6  4  1  0
  7  4  1  0
  8  7  1  0
  8 18  1  0
  9 18  1  0
 10 15  1  0
 11 12  1  0
 11 10  1  0
 13 12  1  0
 13 22  1  0
 13 14  1  0
 15  9  1  0
 15 14  1  0
 16  9  2  0
 18 17  1  0
 19 20  2  0
 20 39  1  0
 21 20  1  0
 21 24  1  0
 22 23  1  0
 22 19  1  0
 23 21  2  0
 24 25  1  0
 25 26  2  0
 27 30  1  0
 27 26  1  0
 28 27  2  0
 29 28  1  0
 29 24  2  0
 30 31  1  0
 31 36  2  0
 31 32  1  0
 32 33  2  0
 33 34  1  0
 34 38  1  0
 35 34  2  0
 36 35  1  0
 37 36  1  0
 39 40  1  0
 40 43  1  0
 40 42  1  0
 41 39  2  0
 44 19  1  0
 44 45  1  0
 46 44  1  0
 48 49  1  0
 48 47  1  0
 50 49  1  0
 51 62  2  0
 52 50  1  0
 52 57  1  0
 53 61  1  0
 53 63  1  0
 54 60  1  0
 54 56  1  0
 55 61  1  0
 56 55  1  0
 57 56  2  0
 58 59  1  0
 58 52  2  0
 59 54  2  0
 60 53  1  0
 61 51  1  0
 63 65  2  0
 64 63  1  0
 66 64  1  0
 67 76  2  0
 67 72  1  0
 68 64  1  0
 68 72  1  0
 69 68  1  0
 70 71  1  0
 70 69  1  0
 71 67  1  0
 72 73  2  0
 73 74  1  0
 75 74  2  0
 76 75  1  0
 77 51  1  0
 77 78  1  0
 77 87  1  0
 78 81  1  0
 79 83  1  0
 79 78  1  0
 80 79  2  0
 83 82  1  0
 85 83  1  0
 85 86  1  0
 85 84  1  0
 87 90  1  1
 87 88  1  0
 89 87  1  0
M  ISO  4   9 100  18 100  49 101  50 101
M  END
>  <TORSDO>  (74) 
F 21

>  <SCORE>  (74) 
-12.277

>  <name>  (74) 
77

>  <ligand_id>  (74) 
77

>  <original_smiles>  (74) 
[H]c1nc(C([H])([H])C([H])([H])N(C(=O)N2C([H])([H])C([H])([H])C([H])([H])C([H])(n3nc(-c4c([H])c([H])c(Oc5c([H])c([H])c(F)c([H])c5F)c([H])c4[H])c(C(=O)N([H])[H])c3N([H])[H])C2([H])[H])C([H])([H])[H])nc([H])c1OC([H])([H])C([H])([H])Oc1c([H])c([H])c2c(c1[H])C([H])([H])N(C(=O)C([H])(N([H])C(=O)C([H])(N([H])C([H])([H])[H])C([H])([H])[H])C(C([H])([H])[H])(C([H])([H])[H])C([H])([H])[H])C([H])(C(=O)N([H])C1([H])c3c([H])c([H])c([H])c([H])c3C([H])([H])C([H])([H])C1([H])[H])C2([H])[H]

>  <smiles>  (74) 
[H]c1nc(C([H])([H])C([H])([H])N(C(=O)N2C([H])([H])C([H])([H])C([H])([H])C([H])(n3nc(-c4c([H])c([H])c(Oc5c([H])c([H])c(F)c([H])c5F)c([H])c4[H])c(C(=O)N([H])[H])c3N([H])[H])C2([H])[H])C([H])([H])[H])nc([H])c1OC([H])([H])C([H])([H])Oc1c([H])c([H])c2c(c1[H])C([H])([H])N(C(=O)C([H])(N([H])C(=O)C([H])(N([H])C([H])([H])[H])C([H])([H])[H])C(C([H])([H])[H])(C([H])([H])[H])C([H])([H])[H])C([H])(C(=O)N([H])C1([H])c3c([H])c([H])c([H])c([H])c3C([H])([H])C([H])([H])C1([H])[H])C2([H])[H]

$$$$
78:0:0
     RDKit          3D

 90 98  0  0  1  0  0  0  0  0999 V2000
  -30.1130  -23.4380   20.9360 C   0  0  0  0  0  3  0  0  0  0  0  0
  -28.8920  -23.3160   20.2470 C   0  0  0  0  0  0  0  0  0  0  0  0
  -29.4370  -20.8750   20.1490 C   0  0  0  0  0  0  0  0  0  0  0  0
  -30.9070  -22.3630   21.2050 N   0  0  0  0  0  0  0  0  0  0  0  0
  -28.5800  -21.9680   19.8640 N   0  0  0  0  0  0  0  0  0  0  0  0
  -30.5730  -21.1070   20.8340 N   0  0  0  0  0  2  0  0  0  0  0  0
  -29.0930  -19.2490   19.8860 C   0  0  1  0  0  0  0  0  0  0  0  0
  -28.0820  -18.9530   20.7060 F   0  0  0  0  0  0  0  0  0  0  0  0
  -28.6070  -19.1830   18.6440 F   0  0  0  0  0  0  0  0  0  0  0  0
  -30.1730  -17.9210   20.0110 C   0  0  0  0  0  2  0  0  0  0  0  0
  -30.5650  -15.1430   19.9690 C   0  0  0  0  0  0  0  0  0  0  0  0
  -30.4390  -12.7510   19.1060 C   0  0  0  0  0  2  0  0  0  0  0  0
  -29.4760  -12.6360   17.9040 C   0  0  0  0  0  2  0  0  0  0  0  0
  -28.0240  -12.4400   18.3760 C   0  0  0  0  0  2  0  0  0  0  0  0
  -27.6360  -13.3890   19.5400 C   0  0  0  0  0  3  0  0  0  0  0  0
  -28.7250  -13.4690   20.6330 C   0  0  0  0  0  2  0  0  0  0  0  0
  -29.9670  -13.8780   19.9640 N   0  0  0  0  0  0  0  0  0  0  0  0
  -31.7680  -15.1760   19.6840 O   0  0  0  0  0  0  0  0  0  0  0  0
  -29.8060  -16.3550   20.0900 N   0  0  0  0  0  0  0  0  0  0  0  0
  -28.8240  -16.1900   20.2670 H   0  0  0  0  0  0  0  0  0  0  0  0
  -25.2890  -13.9630   20.3750 C   0  0  0  0  0  0  0  0  0  0  0  0
  -24.2330  -13.1870   20.7730 C   0  0  0  0  0  0  0  0  0  0  0  0
  -24.6930  -11.8360   20.7180 C   0  0  0  0  0  0  0  0  0  0  0  0
  -26.3190  -13.0840   20.0880 N   0  0  0  0  0  0  0  0  0  0  0  0
  -25.9740  -11.7990   20.3630 N   0  0  0  0  0  0  0  0  0  0  0  0
  -23.9650  -10.5760   20.9220 C   0  0  0  0  0  0  0  0  0  0  0  0
  -24.3910   -9.6180   21.8680 C   0  0  0  0  0  3  0  0  0  0  0  0
  -23.6580   -8.4270   22.0620 C   0  0  0  0  0  3  0  0  0  0  0  0
  -22.4840   -8.1850   21.3110 C   0  0  0  0  0  0  0  0  0  0  0  0
  -22.0740   -9.1330   20.3550 C   0  0  0  0  0  3  0  0  0  0  0  0
  -22.8080  -10.3160   20.1590 C   0  0  0  0  0  3  0  0  0  0  0  0
  -21.7230   -7.0470   21.4110 O   0  0  0  0  0  0  0  0  0  0  0  0
  -21.6430   -6.3350   22.5820 C   0  0  0  0  0  0  0  0  0  0  0  0
  -21.1610   -6.9160   23.7760 C   0  0  0  0  0  3  0  0  0  0  0  0
  -21.0290   -6.1300   24.9370 C   0  0  0  0  0  3  0  0  0  0  0  0
  -21.3730   -4.7660   24.9090 C   0  0  0  0  0  0  0  0  0  0  0  0
  -21.8470   -4.1840   23.7200 C   0  0  0  0  0  3  0  0  0  0  0  0
  -21.9810   -4.9670   22.5600 C   0  0  0  0  0  0  0  0  0  0  0  0
  -22.4180   -4.3960   21.4130 F   0  0  0  0  0  0  0  0  0  0  0  0
  -21.2380   -4.0100   26.0240 F   0  0  0  0  0  0  0  0  0  0  0  0
  -22.8500  -13.6720   21.0870 C   0  0  0  0  0  0  0  0  0  0  0  0
  -22.1450  -12.9780   21.9730 N   0  0  0  0  0  0  0  0  0  0  0  0
  -22.4060  -14.7020   20.5860 O   0  0  0  0  0  0  0  0  0  0  0  0
  -22.5200  -12.1460   22.4030 H   0  0  0  0  0  0  0  0  0  0  0  0
  -21.2190  -13.2850   22.2250 H   0  0  0  0  0  0  0  0  0  0  0  0
  -25.4490  -15.3340   20.2030 N   0  0  0  0  0  0  0  0  0  0  0  0
  -24.6830  -15.9830   20.3490 H   0  0  0  0  0  0  0  0  0  0  0  0
  -26.2770  -15.7850   19.8320 H   0  0  0  0  0  0  0  0  0  0  0  0
  -27.9240  -24.6490   20.0010 C   0  0  0  0  0  3  0  0  0  0  0  0
  -28.2440  -26.1720   20.2540 O   0  0  0  0  0  0  0  0  0  0  0  0
  -24.6340  -31.8640   23.3180 C   0  0  0  0  0  0  0  0  0  0  0  0
  -27.2070  -27.1870   20.1940 C   0  0  0  0  0  0  0  0  0  0  0  0
  -23.4350  -30.5020   21.6490 C   0  0  0  0  0  3  0  0  0  0  0  0
  -24.8860  -28.9600   20.1880 C   0  0  0  0  0  0  0  0  0  0  0  0
  -25.9930  -30.7650   21.4940 C   0  0  0  0  0  2  0  0  0  0  0  0
  -26.0670  -29.3850   20.8090 C   0  0  0  0  0  0  0  0  0  0  0  0
  -27.2280  -28.5180   20.7920 C   0  0  0  0  0  3  0  0  0  0  0  0
  -25.9980  -26.8780   19.5310 C   0  0  0  0  0  3  0  0  0  0  0  0
  -24.8690  -27.7230   19.5290 C   0  0  0  0  0  3  0  0  0  0  0  0
  -23.6600  -29.8580   20.2550 C   0  0  0  0  0  2  0  0  0  0  0  0
  -24.7080  -31.0630   22.2090 N   0  0  0  0  0  0  0  0  0  0  0  0
  -23.5460  -32.1380   23.8490 O   0  0  0  0  0  0  0  0  0  0  0  0
  -22.7520  -29.4760   22.5880 C   0  0  0  0  0  0  0  0  0  0  0  0
  -21.4270  -29.3000   22.4500 N   0  0  0  0  0  0  0  0  0  0  0  0
  -23.4200  -28.8420   23.4100 O   0  0  0  0  0  0  0  0  0  0  0  0
  -20.9440  -29.8670   21.7650 H   0  0  0  0  0  0  0  0  0  0  0  0
  -18.0470  -28.0740   22.9100 C   0  0  0  0  0  0  0  0  0  0  0  0
  -20.6040  -28.3450   23.2000 C   0  0  0  0  0  3  0  0  0  0  0  0
  -20.7150  -26.9240   22.6020 C   0  0  0  0  0  2  0  0  0  0  0  0
  -19.6220  -26.6110   21.5760 C   0  0  0  0  0  2  0  0  0  0  0  0
  -18.2370  -26.7380   22.2120 C   0  0  0  0  0  2  0  0  0  0  0  0
  -19.1590  -28.8360   23.3610 C   0  0  0  0  0  0  0  0  0  0  0  0
  -18.9280  -30.0870   23.9760 C   0  0  0  0  0  3  0  0  0  0  0  0
  -17.6180  -30.5730   24.1450 C   0  0  0  0  0  3  0  0  0  0  0  0
  -16.5210  -29.8090   23.7110 C   0  0  0  0  0  3  0  0  0  0  0  0
  -16.7370  -28.5610   23.1000 C   0  0  0  0  0  3  0  0  0  0  0  0
  -25.9100  -32.4860   23.9580 C   0  0  0  0  0  3  0  0  0  0  0  0
  -26.3950  -31.7190   25.2510 C   0  0  1  0  0  0  0  0  0  0  0  0
  -25.2830  -31.5010   26.3030 C   0  0  0  0  0  1  0  0  0  0  0  0
  -26.9690  -30.3320   24.8850 C   0  0  0  0  0  1  0  0  0  0  0  0
  -27.5440  -32.5050   25.9270 C   0  0  0  0  0  1  0  0  0  0  0  0
  -25.6140  -33.8920   24.2820 N   0  0  0  0  0  0  0  0  0  0  0  0
  -25.9340  -34.9380   23.5100 C   0  0  0  0  0  0  0  0  0  0  0  0
  -26.5790  -34.8240   22.4650 O   0  0  0  0  0  0  0  0  0  0  0  0
  -25.0440  -34.0560   25.0970 H   0  0  0  0  0  0  0  0  0  0  0  0
  -24.1950  -36.7310   23.2040 C   0  0  0  0  0  1  0  0  0  0  0  0
  -25.4680  -36.3350   23.9690 C   0  0  0  0  0  3  0  0  0  0  0  0
  -27.6270  -37.2350   24.7100 C   0  0  0  0  0  1  0  0  0  0  0  0
  -26.4940  -37.3850   23.8010 N   0  0  0  0  0  0  0  0  0  0  0  0
  -26.0930  -38.3070   23.9440 H   0  0  0  0  0  0  0  0  0  0  0  0
  1  4  2  0
  2  1  1  0
  3  6  1  0
  5  3  2  0
  5  2  1  0
  6  4  1  0
  7 10  1  0
  7  3  1  0
  7  8  1  1
  9  7  1  0
 10 19  1  0
 11 19  1  0
 12 17  1  0
 13 14  1  0
 13 12  1  0
 15 14  1  0
 15 24  1  0
 15 16  1  0
 17 11  1  0
 17 16  1  0
 18 11  2  0
 19 20  1  0
 21 22  2  0
 22 41  1  0
 23 22  1  0
 23 26  1  0
 24 25  1  0
 24 21  1  0
 25 23  2  0
 26 27  1  0
 27 28  2  0
 29 32  1  0
 29 28  1  0
 30 29  2  0
 31 30  1  0
 31 26  2  0
 32 33  1  0
 33 34  1  0
 34 35  2  0
 36 35  1  0
 36 40  1  0
 37 36  2  0
 38 33  2  0
 38 37  1  0
 39 38  1  0
 41 42  1  0
 42 45  1  0
 42 44  1  0
 43 41  2  0
 46 47  1  0
 46 21  1  0
 48 46  1  0
 49  2  2  0
 49 50  1  0
 51 62  2  0
 52 50  1  0
 52 57  1  0
 53 61  1  0
 53 63  1  0
 54 60  1  0
 54 56  1  0
 55 61  1  0
 56 55  1  0
 57 56  2  0
 58 52  2  0
 59 58  1  0
 59 54  2  0
 60 53  1  0
 61 51  1  0
 63 65  2  0
 64 63  1  0
 66 64  1  0
 67 76  2  0
 67 72  1  0
 68 64  1  0
 68 72  1  0
 69 68  1  0
 70 71  1  0
 70 69  1  0
 71 67  1  0
 72 73  2  0
 73 74  1  0
 75 74  2  0
 76 75  1  0
 77 51  1  0
 77 82  1  0
 77 78  1  0
 78 81  1  1
 78 79  1  0
 80 78  1  0
 82 85  1  0
 83 87  1  0
 83 82  1  0
 84 83  2  0
 87 86  1  0
 89 90  1  0
 89 87  1  0
 89 88  1  0
M  ISO  4  11 100  19 100  49 101  50 101
M  END
>  <TORSDO>  (75) 
F 19

>  <SCORE>  (75) 
-14.905

>  <name>  (75) 
78

>  <ligand_id>  (75) 
78

>  <original_smiles>  (75) 
[H]c1nnc(C(F)(F)C([H])([H])N([H])C(=O)N2C([H])([H])C([H])([H])C([H])([H])C([H])(n3nc(-c4c([H])c([H])c(Oc5c([H])c([H])c(F)c([H])c5F)c([H])c4[H])c(C(=O)N([H])[H])c3N([H])[H])C2([H])[H])nc1C([H])([H])Oc1c([H])c([H])c2c(c1[H])C([H])([H])N(C(=O)C([H])(N([H])C(=O)C([H])(N([H])C([H])([H])[H])C([H])([H])[H])C(C([H])([H])[H])(C([H])([H])[H])C([H])([H])[H])C([H])(C(=O)N([H])C1([H])c3c([H])c([H])c([H])c([H])c3C([H])([H])C([H])([H])C1([H])[H])C2([H])[H]

>  <smiles>  (75) 
[H]c1nnc(C(F)(F)C([H])([H])N([H])C(=O)N2C([H])([H])C([H])([H])C([H])([H])C([H])(n3nc(-c4c([H])c([H])c(Oc5c([H])c([H])c(F)c([H])c5F)c([H])c4[H])c(C(=O)N([H])[H])c3N([H])[H])C2([H])[H])nc1C([H])([H])Oc1c([H])c([H])c2c(c1[H])C([H])([H])N(C(=O)C([H])(N([H])C(=O)C([H])(N([H])C([H])([H])[H])C([H])([H])[H])C(C([H])([H])[H])(C([H])([H])[H])C([H])([H])[H])C([H])(C(=O)N([H])C1([H])c3c([H])c([H])c([H])c([H])c3C([H])([H])C([H])([H])C1([H])[H])C2([H])[H]

$$$$
79:0:0
     RDKit          3D

 91 99  0  0  1  0  0  0  0  0999 V2000
  -28.8530  -23.2200   20.0480 C   0  0  0  0  0  0  0  0  0  0  0  0
  -29.2970  -20.9200   20.1570 C   0  0  0  0  0  0  0  0  0  0  0  0
  -30.0450  -23.0300   20.6440 N   0  0  0  0  0  0  0  0  0  0  0  0
  -30.3210  -21.6280   20.6870 N   0  0  0  0  0  0  0  0  0  0  0  0
  -28.3990  -21.9250   19.6550 N   0  0  0  0  0  0  0  0  0  0  0  0
  -29.2840  -19.1070   21.9400 C   0  0  0  0  0  1  0  0  0  0  0  0
  -27.7330  -18.7220   20.0900 C   0  0  0  0  0  1  0  0  0  0  0  0
  -29.1480  -19.2240   20.4090 C   0  0  1  0  0  0  0  0  0  0  0  0
  -30.1210  -17.9050   19.8420 C   0  0  0  0  0  2  0  0  0  0  0  0
  -30.5740  -15.1090   19.8720 C   0  0  0  0  0  0  0  0  0  0  0  0
  -30.3830  -12.7420   18.9340 C   0  0  0  0  0  2  0  0  0  0  0  0
  -29.3660  -12.6870   17.7710 C   0  0  0  0  0  2  0  0  0  0  0  0
  -27.9490  -12.4400   18.3150 C   0  0  0  0  0  2  0  0  0  0  0  0
  -27.6170  -13.3610   19.5170 C   0  0  0  0  0  3  0  0  0  0  0  0
  -28.7540  -13.4040   20.5630 C   0  0  0  0  0  2  0  0  0  0  0  0
  -29.9660  -13.8430   19.8600 N   0  0  0  0  0  0  0  0  0  0  0  0
  -31.7470  -15.1470   19.4920 O   0  0  0  0  0  0  0  0  0  0  0  0
  -29.8390  -16.3280   20.0990 N   0  0  0  0  0  0  0  0  0  0  0  0
  -28.8960  -16.1380   20.3990 H   0  0  0  0  0  0  0  0  0  0  0  0
  -25.3080  -13.9120   20.4610 C   0  0  0  0  0  0  0  0  0  0  0  0
  -24.2670  -13.1280   20.8810 C   0  0  0  0  0  0  0  0  0  0  0  0
  -24.7200  -11.7800   20.7610 C   0  0  0  0  0  0  0  0  0  0  0  0
  -26.3230  -13.0400   20.1100 N   0  0  0  0  0  0  0  0  0  0  0  0
  -25.9870  -11.7500   20.3570 N   0  0  0  0  0  0  0  0  0  0  0  0
  -24.0010  -10.5140   20.9590 C   0  0  0  0  0  0  0  0  0  0  0  0
  -24.4560   -9.5410   21.8740 C   0  0  0  0  0  3  0  0  0  0  0  0
  -23.7370   -8.3400   22.0630 C   0  0  0  0  0  3  0  0  0  0  0  0
  -22.5430   -8.1040   21.3400 C   0  0  0  0  0  0  0  0  0  0  0  0
  -22.1050   -9.0650   20.4130 C   0  0  0  0  0  3  0  0  0  0  0  0
  -22.8260  -10.2570   20.2240 C   0  0  0  0  0  3  0  0  0  0  0  0
  -21.7950   -6.9540   21.4350 O   0  0  0  0  0  0  0  0  0  0  0  0
  -21.7240   -6.2390   22.6030 C   0  0  0  0  0  0  0  0  0  0  0  0
  -21.2740   -6.8190   23.8100 C   0  0  0  0  0  3  0  0  0  0  0  0
  -21.1560   -6.0290   24.9700 C   0  0  0  0  0  3  0  0  0  0  0  0
  -21.4740   -4.6580   24.9240 C   0  0  0  0  0  0  0  0  0  0  0  0
  -21.9170   -4.0760   23.7220 C   0  0  0  0  0  3  0  0  0  0  0  0
  -22.0410   -4.8670   22.5650 C   0  0  0  0  0  0  0  0  0  0  0  0
  -22.4470   -4.2970   21.4050 F   0  0  0  0  0  0  0  0  0  0  0  0
  -21.3520   -3.8940   26.0360 F   0  0  0  0  0  0  0  0  0  0  0  0
  -22.8960  -13.6040   21.2640 C   0  0  0  0  0  0  0  0  0  0  0  0
  -22.2330  -12.8870   22.1660 N   0  0  0  0  0  0  0  0  0  0  0  0
  -22.4260  -14.6400   20.8000 O   0  0  0  0  0  0  0  0  0  0  0  0
  -22.6280  -12.0480   22.5610 H   0  0  0  0  0  0  0  0  0  0  0  0
  -21.3180  -13.1810   22.4680 H   0  0  0  0  0  0  0  0  0  0  0  0
  -25.4620  -15.2860   20.3220 N   0  0  0  0  0  0  0  0  0  0  0  0
  -24.7000  -15.9220   20.5330 H   0  0  0  0  0  0  0  0  0  0  0  0
  -26.2840  -15.7410   19.9460 H   0  0  0  0  0  0  0  0  0  0  0  0
  -25.9250  -22.4150   19.1810 C   0  0  0  0  0  1  0  0  0  0  0  0
  -27.2460  -21.7330   18.7610 C   0  0  0  0  0  2  0  0  0  0  0  0
  -28.0190  -24.6540   19.7740 C   0  0  0  0  0  2  0  0  0  0  0  0
  -28.3430  -26.1390   20.1920 O   0  0  0  0  0  0  0  0  0  0  0  0
  -24.6560  -31.8490   23.2090 C   0  0  0  0  0  0  0  0  0  0  0  0
  -27.2930  -27.1610   20.1250 C   0  0  0  0  0  0  0  0  0  0  0  0
  -23.4640  -30.4650   21.5540 C   0  0  0  0  0  3  0  0  0  0  0  0
  -24.9300  -28.9100   20.1180 C   0  0  0  0  0  0  0  0  0  0  0  0
  -26.0190  -30.7410   21.3950 C   0  0  0  0  0  2  0  0  0  0  0  0
  -26.1110  -29.3530   20.7300 C   0  0  0  0  0  0  0  0  0  0  0  0
  -27.2870  -28.4990   20.7190 C   0  0  0  0  0  3  0  0  0  0  0  0
  -26.0810  -26.8460   19.4600 C   0  0  0  0  0  3  0  0  0  0  0  0
  -24.9300  -27.6680   19.4690 C   0  0  0  0  0  3  0  0  0  0  0  0
  -23.6930  -29.7950   20.1720 C   0  0  0  0  0  2  0  0  0  0  0  0
  -24.7320  -31.0400   22.1060 N   0  0  0  0  0  0  0  0  0  0  0  0
  -23.5690  -32.1220   23.7410 O   0  0  0  0  0  0  0  0  0  0  0  0
  -22.7870  -29.4490   22.5100 C   0  0  0  0  0  0  0  0  0  0  0  0
  -21.4590  -29.2780   22.3850 N   0  0  0  0  0  0  0  0  0  0  0  0
  -23.4620  -28.8190   23.3270 O   0  0  0  0  0  0  0  0  0  0  0  0
  -20.9700  -29.8380   21.7010 H   0  0  0  0  0  0  0  0  0  0  0  0
  -18.0870  -28.0480   22.8790 C   0  0  0  0  0  0  0  0  0  0  0  0
  -20.6410  -28.3320   23.1500 C   0  0  0  0  0  3  0  0  0  0  0  0
  -20.7500  -26.9050   22.5650 C   0  0  0  0  0  2  0  0  0  0  0  0
  -19.6550  -26.5810   21.5460 C   0  0  0  0  0  2  0  0  0  0  0  0
  -18.2740  -26.7070   22.1930 C   0  0  0  0  0  2  0  0  0  0  0  0
  -19.1960  -28.8200   23.3140 C   0  0  0  0  0  0  0  0  0  0  0  0
  -18.9630  -30.0770   23.9140 C   0  0  0  0  0  3  0  0  0  0  0  0
  -17.6510  -30.5600   24.0840 C   0  0  0  0  0  3  0  0  0  0  0  0
  -16.5560  -29.7870   23.6600 C   0  0  0  0  0  3  0  0  0  0  0  0
  -16.7760  -28.5330   23.0620 C   0  0  0  0  0  3  0  0  0  0  0  0
  -25.9310  -32.4830   23.8410 C   0  0  0  0  0  3  0  0  0  0  0  0
  -26.4420  -31.7090   25.1200 C   0  0  1  0  0  0  0  0  0  0  0  0
  -25.3400  -31.4730   26.1820 C   0  0  0  0  0  1  0  0  0  0  0  0
  -27.0250  -30.3270   24.7380 C   0  0  0  0  0  1  0  0  0  0  0  0
  -27.5880  -32.5020   25.7910 C   0  0  0  0  0  1  0  0  0  0  0  0
  -25.6150  -33.8790   24.1810 N   0  0  0  0  0  0  0  0  0  0  0  0
  -25.9370  -34.9400   23.4290 C   0  0  0  0  0  0  0  0  0  0  0  0
  -26.5920  -34.8460   22.3870 O   0  0  0  0  0  0  0  0  0  0  0  0
  -25.0280  -34.0260   24.9880 H   0  0  0  0  0  0  0  0  0  0  0  0
  -24.1870  -36.7280   23.1300 C   0  0  0  0  0  1  0  0  0  0  0  0
  -25.4530  -36.3250   23.9030 C   0  0  0  0  0  3  0  0  0  0  0  0
  -27.6020  -37.2280   24.6810 C   0  0  0  0  0  1  0  0  0  0  0  0
  -26.4750  -37.3860   23.7670 N   0  0  0  0  0  0  0  0  0  0  0  0
  -26.0650  -38.3020   23.9240 H   0  0  0  0  0  0  0  0  0  0  0  0
  1  3  2  0
  2  8  1  0
  2  4  2  0
  3  4  1  0
  5  1  1  0
  5  2  1  0
  8  7  1  1
  8  6  1  0
  9 18  1  0
  9  8  1  0
 10 18  1  0
 11 16  1  0
 12 13  1  0
 12 11  1  0
 14 13  1  0
 14 23  1  0
 14 15  1  0
 16 10  1  0
 16 15  1  0
 17 10  2  0
 18 19  1  0
 20 21  2  0
 21 40  1  0
 22 21  1  0
 22 25  1  0
 23 24  1  0
 23 20  1  0
 24 22  2  0
 25 26  1  0
 26 27  2  0
 28 31  1  0
 28 27  1  0
 29 28  2  0
 30 29  1  0
 30 25  2  0
 31 32  1  0
 32 33  1  0
 33 34  2  0
 35 34  1  0
 35 39  1  0
 36 35  2  0
 37 32  2  0
 37 36  1  0
 38 37  1  0
 40 41  1  0
 41 44  1  0
 41 43  1  0
 42 40  2  0
 45 20  1  0
 45 46  1  0
 47 45  1  0
 49 48  1  0
 49  5  1  0
 50  1  1  0
 50 51  1  0
 52 63  2  0
 53 51  1  0
 53 58  1  0
 54 62  1  0
 54 64  1  0
 55 61  1  0
 55 57  1  0
 56 62  1  0
 57 56  1  0
 58 57  2  0
 59 60  1  0
 59 53  2  0
 60 55  2  0
 61 54  1  0
 62 52  1  0
 64 66  2  0
 65 64  1  0
 67 65  1  0
 68 77  2  0
 68 73  1  0
 69 65  1  0
 69 73  1  0
 70 69  1  0
 71 72  1  0
 71 70  1  0
 72 68  1  0
 73 74  2  0
 74 75  1  0
 76 75  2  0
 77 76  1  0
 78 52  1  0
 78 83  1  0
 78 79  1  0
 79 82  1  1
 79 80  1  0
 81 79  1  0
 83 86  1  0
 84 88  1  0
 84 83  1  0
 85 84  2  0
 88 87  1  0
 90 88  1  0
 90 91  1  0
 90 89  1  0
M  ISO  4  10 100  18 100  50 101  51 101
M  END
>  <TORSDO>  (76) 
F 20

>  <SCORE>  (76) 
-13.564

>  <name>  (76) 
79

>  <ligand_id>  (76) 
79

>  <original_smiles>  (76) 
[H]c1c([H])c([H])c2c(c1[H])C([H])([H])C([H])([H])C([H])([H])C2([H])N([H])C(=O)C1([H])N(C(=O)C([H])(N([H])C(=O)C([H])(N([H])C([H])([H])[H])C([H])([H])[H])C(C([H])([H])[H])(C([H])([H])[H])C([H])([H])[H])C([H])([H])c2c([H])c(OC([H])([H])c3nnc(C(C([H])([H])[H])(C([H])([H])[H])C([H])([H])N([H])C(=O)N4C([H])([H])C([H])([H])C([H])([H])C([H])(n5nc(-c6c([H])c([H])c(Oc7c([H])c([H])c(F)c([H])c7F)c([H])c6[H])c(C(=O)N([H])[H])c5N([H])[H])C4([H])[H])n3C([H])([H])C([H])([H])[H])c([H])c([H])c2C1([H])[H]

>  <smiles>  (76) 
[H]c1c([H])c([H])c2c(c1[H])C([H])([H])C([H])([H])C([H])([H])C2([H])N([H])C(=O)C1([H])N(C(=O)C([H])(N([H])C(=O)C([H])(N([H])C([H])([H])[H])C([H])([H])[H])C(C([H])([H])[H])(C([H])([H])[H])C([H])([H])[H])C([H])([H])c2c([H])c(OC([H])([H])c3nnc(C(C([H])([H])[H])(C([H])([H])[H])C([H])([H])N([H])C(=O)N4C([H])([H])C([H])([H])C([H])([H])C([H])(n5nc(-c6c([H])c([H])c(Oc7c([H])c([H])c(F)c([H])c7F)c([H])c6[H])c(C(=O)N([H])[H])c5N([H])[H])C4([H])[H])n3C([H])([H])C([H])([H])[H])c([H])c([H])c2C1([H])[H]

$$$$
80:0:0
     RDKit          3D

 94102  0  0  1  0  0  0  0  0999 V2000
  -30.3420  -22.2550   20.8780 C   0  0  0  0  0  3  0  0  0  0  0  0
  -28.1340  -23.1280   19.6120 C   0  0  0  0  0  3  0  0  0  0  0  0
  -29.6410  -21.3770   20.0020 C   0  0  0  0  0  0  0  0  0  0  0  0
  -28.8240  -24.0030   20.5010 C   0  0  0  0  0  0  0  0  0  0  0  0
  -28.5350  -21.8420   19.3580 N   0  0  0  0  0  0  0  0  0  0  0  0
  -29.9410  -23.5400   21.1320 N   0  0  0  0  0  0  0  0  0  0  0  0
  -30.2090  -19.9750   19.5900 C   0  0  0  0  0  3  0  0  0  0  0  0
  -29.5360  -18.6310   20.1120 C   0  0  0  0  0  3  0  0  0  0  0  0
  -29.3930  -17.0860   18.2010 C   0  0  0  0  0  1  0  0  0  0  0  0
  -30.0680  -17.3210   19.5150 N   0  0  2  0  0  4  0  0  0  0  0  0
  -31.0380  -17.4880   19.2860 H   0  0  0  0  0  0  0  0  0  0  0  0
  -30.1190  -16.0300   20.3720 C   0  0  0  0  0  3  0  0  0  0  0  0
  -30.6060  -14.7530   19.5430 C   0  0  0  0  0  0  0  0  0  0  0  0
  -30.1180  -12.6060   18.3820 C   0  0  0  0  0  2  0  0  0  0  0  0
  -28.9960  -12.8260   17.3420 C   0  0  0  0  0  2  0  0  0  0  0  0
  -27.6100  -12.6520   17.9920 C   0  0  0  0  0  2  0  0  0  0  0  0
  -27.4740  -13.4480   19.3150 C   0  0  0  0  0  3  0  0  0  0  0  0
  -28.6940  -13.2270   20.2350 C   0  0  0  0  0  2  0  0  0  0  0  0
  -29.9070  -13.5720   19.4800 N   0  0  0  0  0  0  0  0  0  0  0  0
  -31.6420  -14.8870   18.8840 O   0  0  0  0  0  0  0  0  0  0  0  0
  -25.2840  -14.0290   20.5260 C   0  0  0  0  0  0  0  0  0  0  0  0
  -24.2590  -13.2510   20.9920 C   0  0  0  0  0  0  0  0  0  0  0  0
  -24.6360  -11.9000   20.7220 C   0  0  0  0  0  0  0  0  0  0  0  0
  -26.2200  -13.1510   20.0030 N   0  0  0  0  0  0  0  0  0  0  0  0
  -25.8480  -11.8590   20.1810 N   0  0  0  0  0  0  0  0  0  0  0  0
  -23.8890  -10.6470   20.8950 C   0  0  0  0  0  0  0  0  0  0  0  0
  -24.3970   -9.5860   21.6760 C   0  0  0  0  0  3  0  0  0  0  0  0
  -23.6520   -8.3980   21.8420 C   0  0  0  0  0  3  0  0  0  0  0  0
  -22.3850   -8.2640   21.2260 C   0  0  0  0  0  0  0  0  0  0  0  0
  -21.8940   -9.3140   20.4310 C   0  0  0  0  0  3  0  0  0  0  0  0
  -22.6390  -10.4940   20.2630 C   0  0  0  0  0  3  0  0  0  0  0  0
  -21.6020   -7.1380   21.3090 O   0  0  0  0  0  0  0  0  0  0  0  0
  -21.6320   -6.3200   22.4110 C   0  0  0  0  0  0  0  0  0  0  0  0
  -21.3590   -6.8080   23.7070 C   0  0  0  0  0  3  0  0  0  0  0  0
  -21.3300   -5.9210   24.8020 C   0  0  0  0  0  3  0  0  0  0  0  0
  -21.5640   -4.5480   24.6020 C   0  0  0  0  0  0  0  0  0  0  0  0
  -21.8290   -4.0590   23.3110 C   0  0  0  0  0  3  0  0  0  0  0  0
  -21.8610   -4.9430   22.2180 C   0  0  0  0  0  0  0  0  0  0  0  0
  -22.0960   -4.4640   20.9720 F   0  0  0  0  0  0  0  0  0  0  0  0
  -21.5300   -3.6950   25.6520 F   0  0  0  0  0  0  0  0  0  0  0  0
  -22.9580  -13.7350   21.5640 C   0  0  0  0  0  0  0  0  0  0  0  0
  -22.3740  -12.9790   22.4870 N   0  0  0  0  0  0  0  0  0  0  0  0
  -22.4740  -14.8150   21.2280 O   0  0  0  0  0  0  0  0  0  0  0  0
  -22.7810  -12.1010   22.7740 H   0  0  0  0  0  0  0  0  0  0  0  0
  -21.5080  -13.2810   22.9080 H   0  0  0  0  0  0  0  0  0  0  0  0
  -25.4860  -15.4050   20.4800 N   0  0  0  0  0  0  0  0  0  0  0  0
  -24.7790  -16.0600   20.7950 H   0  0  0  0  0  0  0  0  0  0  0  0
  -26.2630  -15.8570   20.0160 H   0  0  0  0  0  0  0  0  0  0  0  0
  -32.3170  -16.8930   21.4670 C   0  0  0  0  0  1  0  0  0  0  0  0
  -31.3500  -14.7920   22.3480 C   0  0  0  0  0  1  0  0  0  0  0  0
  -30.1920  -16.8950   22.8510 C   0  0  0  0  0  1  0  0  0  0  0  0
  -30.9720  -16.1660   21.7210 C   0  0  2  0  0  0  0  0  0  0  0  0
  -28.1890  -25.3510   20.9940 C   0  0  0  0  0  2  0  0  0  0  0  0
  -28.4640  -26.6300   20.3180 O   0  0  0  0  0  0  0  0  0  0  0  0
  -24.7290  -32.0060   23.3300 C   0  0  0  0  0  0  0  0  0  0  0  0
  -27.3650  -27.4910   20.2750 C   0  0  0  0  0  0  0  0  0  0  0  0
  -23.5290  -30.6030   21.6890 C   0  0  0  0  0  3  0  0  0  0  0  0
  -24.9880  -29.0630   20.2610 C   0  0  0  0  0  0  0  0  0  0  0  0
  -26.0620  -30.9430   21.5000 C   0  0  0  0  0  2  0  0  0  0  0  0
  -26.1520  -29.5680   20.8550 C   0  0  0  0  0  0  0  0  0  0  0  0
  -27.3480  -28.7940   20.8520 C   0  0  0  0  0  3  0  0  0  0  0  0
  -26.1850  -27.0320   19.6510 C   0  0  0  0  0  3  0  0  0  0  0  0
  -25.0050  -27.7990   19.6500 C   0  0  0  0  0  3  0  0  0  0  0  0
  -23.7440  -29.9250   20.3090 C   0  0  0  0  0  2  0  0  0  0  0  0
  -24.7920  -31.1990   22.2300 N   0  0  0  0  0  0  0  0  0  0  0  0
  -23.6470  -32.2810   23.8670 O   0  0  0  0  0  0  0  0  0  0  0  0
  -22.8710  -29.5850   22.6500 C   0  0  0  0  0  0  0  0  0  0  0  0
  -21.5470  -29.4010   22.5210 N   0  0  0  0  0  0  0  0  0  0  0  0
  -23.5510  -28.9640   23.4710 O   0  0  0  0  0  0  0  0  0  0  0  0
  -21.0560  -29.9570   21.8350 H   0  0  0  0  0  0  0  0  0  0  0  0
  -18.1750  -28.1850   23.0050 C   0  0  0  0  0  0  0  0  0  0  0  0
  -20.7300  -28.4620   23.2910 C   0  0  0  0  0  3  0  0  0  0  0  0
  -20.8440  -27.0280   22.7230 C   0  0  0  0  0  2  0  0  0  0  0  0
  -19.7510  -26.6930   21.7040 C   0  0  0  0  0  2  0  0  0  0  0  0
  -18.3630  -26.8330   22.3380 C   0  0  0  0  0  2  0  0  0  0  0  0
  -19.2860  -28.9560   23.4390 C   0  0  0  0  0  0  0  0  0  0  0  0
  -19.0570  -30.2200   24.0240 C   0  0  0  0  0  3  0  0  0  0  0  0
  -17.7480  -30.7150   24.1780 C   0  0  0  0  0  3  0  0  0  0  0  0
  -16.6510  -29.9420   23.7620 C   0  0  0  0  0  3  0  0  0  0  0  0
  -16.8650  -28.6780   23.1820 C   0  0  0  0  0  3  0  0  0  0  0  0
  -26.0120  -32.6400   23.9510 C   0  0  0  0  0  3  0  0  0  0  0  0
  -25.6930  -34.0310   24.3030 N   0  0  0  0  0  0  0  0  0  0  0  0
  -26.0090  -35.0980   23.5590 C   0  0  0  0  0  0  0  0  0  0  0  0
  -26.6670  -35.0160   22.5180 O   0  0  0  0  0  0  0  0  0  0  0  0
  -25.1060  -34.1670   25.1140 H   0  0  0  0  0  0  0  0  0  0  0  0
  -24.2570  -36.8780   23.2520 C   0  0  0  0  0  1  0  0  0  0  0  0
  -25.5110  -36.4740   24.0420 C   0  0  0  0  0  3  0  0  0  0  0  0
  -27.6500  -37.3650   24.8550 C   0  0  0  0  0  1  0  0  0  0  0  0
  -26.5330  -37.5390   23.9320 N   0  0  0  0  0  0  0  0  0  0  0  0
  -26.1200  -38.4520   24.1020 H   0  0  0  0  0  0  0  0  0  0  0  0
  -26.5480  -31.8540   25.2100 C   0  0  1  0  0  0  0  0  0  0  0  0
  -25.4620  -31.5720   26.2740 C   0  0  0  0  0  1  0  0  0  0  0  0
  -27.1600  -30.4980   24.7890 C   0  0  0  0  0  1  0  0  0  0  0  0
  -27.6820  -32.6590   25.8870 C   0  0  0  0  0  1  0  0  0  0  0  0
  1  6  1  0
  2  4  1  0
  3  1  2  0
  4 53  1  0
  4  6  2  0
  5  2  2  0
  5  3  1  0
  7  3  1  0
  7  8  2  0
  9 10  1  0
 10  8  1  0
 10 12  1  0
 10 11  1  6
 12 13  1  0
 12 52  1  0
 14 19  1  0
 15 16  1  0
 15 14  1  0
 17 16  1  0
 17 24  1  0
 17 18  1  0
 19 13  1  0
 19 18  1  0
 20 13  2  0
 21 22  2  0
 22 41  1  0
 23 26  1  0
 23 22  1  0
 24 25  1  0
 24 21  1  0
 25 23  2  0
 26 27  1  0
 27 28  2  0
 29 32  1  0
 29 28  1  0
 30 29  2  0
 31 30  1  0
 31 26  2  0
 32 33  1  0
 33 34  1  0
 34 35  2  0
 36 35  1  0
 36 40  1  0
 37 36  2  0
 38 33  2  0
 38 37  1  0
 39 38  1  0
 41 42  1  0
 42 44  1  0
 42 45  1  0
 43 41  2  0
 46 21  1  0
 46 47  1  0
 48 46  1  0
 52 49  1  6
 52 50  1  0
 52 51  1  0
 54 53  1  0
 55 66  2  0
 56 54  1  0
 56 61  1  0
 57 65  1  0
 57 67  1  0
 58 64  1  0
 58 60  1  0
 59 65  1  0
 60 59  1  0
 61 60  2  0
 62 56  2  0
 63 62  1  0
 63 58  2  0
 64 57  1  0
 65 55  1  0
 67 69  2  0
 68 67  1  0
 70 68  1  0
 71 80  2  0
 71 76  1  0
 72 68  1  0
 72 76  1  0
 73 72  1  0
 74 75  1  0
 74 73  1  0
 75 71  1  0
 76 77  2  0
 77 78  1  0
 79 78  2  0
 80 79  1  0
 81 55  1  0
 81 82  1  0
 81 91  1  0
 82 85  1  0
 83 87  1  0
 83 82  1  0
 84 83  2  0
 87 86  1  0
 89 87  1  0
 89 90  1  0
 89 88  1  0
 91 94  1  1
 91 92  1  0
 93 91  1  0
M  ISO  4  12 100  13 100  53 101  54 101
M  END
>  <TORSDO>  (77) 
F 22

>  <SCORE>  (77) 
-9.298

>  <name>  (77) 
80

>  <ligand_id>  (77) 
80

>  <original_smiles>  (77) 
[H]c1nc(C([H])([H])C([H])([H])[N+]([H])(C([H])([H])[H])C([H])(C(=O)N2C([H])([H])C([H])([H])C([H])([H])C([H])(n3nc(-c4c([H])c([H])c(Oc5c([H])c([H])c(F)c([H])c5F)c([H])c4[H])c(C(=O)N([H])[H])c3N([H])[H])C2([H])[H])C(C([H])([H])[H])(C([H])([H])[H])C([H])([H])[H])c([H])nc1C([H])([H])Oc1c([H])c([H])c2c(c1[H])C([H])([H])N(C(=O)C([H])(N([H])C(=O)C([H])(N([H])C([H])([H])[H])C([H])([H])[H])C(C([H])([H])[H])(C([H])([H])[H])C([H])([H])[H])C([H])(C(=O)N([H])C1([H])c3c([H])c([H])c([H])c([H])c3C([H])([H])C([H])([H])C1([H])[H])C2([H])[H]

>  <smiles>  (77) 
[H]c1nc(C([H])([H])C([H])([H])[N+]([H])(C([H])([H])[H])C([H])(C(=O)N2C([H])([H])C([H])([H])C([H])([H])C([H])(n3nc(-c4c([H])c([H])c(Oc5c([H])c([H])c(F)c([H])c5F)c([H])c4[H])c(C(=O)N([H])[H])c3N([H])[H])C2([H])[H])C(C([H])([H])[H])(C([H])([H])[H])C([H])([H])[H])c([H])nc1C([H])([H])Oc1c([H])c([H])c2c(c1[H])C([H])([H])N(C(=O)C([H])(N([H])C(=O)C([H])(N([H])C([H])([H])[H])C([H])([H])[H])C(C([H])([H])[H])(C([H])([H])[H])C([H])([H])[H])C([H])(C(=O)N([H])C1([H])c3c([H])c([H])c([H])c([H])c3C([H])([H])C([H])([H])C1([H])[H])C2([H])[H]

$$$$
81:0:0
     RDKit          3D

 90 98  0  0  1  0  0  0  0  0999 V2000
  -28.9060  -19.8220   20.9510 C   0  0  0  0  0  0  0  0  0  0  0  0
  -29.6710  -21.6410   20.1760 C   0  0  0  0  0  0  0  0  0  0  0  0
  -28.5120  -18.3910   21.1410 C   0  0  0  0  0  1  0  0  0  0  0  0
  -28.2430  -20.7940   21.5760 N   0  0  0  0  0  0  0  0  0  0  0  0
  -28.7250  -21.9620   21.0680 N   0  0  0  0  0  0  0  0  0  0  0  0
  -29.8860  -20.2470   20.1080 N   0  0  0  0  0  0  0  0  0  0  0  0
  -30.2220  -22.8150   19.3110 C   0  0  0  0  0  2  0  0  0  0  0  0
  -30.1320  -24.3540   19.8480 C   0  0  0  0  0  3  0  0  0  0  0  0
  -29.0050  -25.3880   19.3370 C   0  0  0  0  0  3  0  0  0  0  0  0
  -29.0390  -26.8430   19.7160 O   0  0  0  0  0  0  0  0  0  0  0  0
  -24.6610  -31.5700   23.0370 C   0  0  0  0  0  0  0  0  0  0  0  0
  -27.8480  -27.6050   19.6770 C   0  0  0  0  0  0  0  0  0  0  0  0
  -23.6690  -30.2190   21.2270 C   0  0  0  0  0  3  0  0  0  0  0  0
  -25.3230  -28.9790   19.7170 C   0  0  0  0  0  0  0  0  0  0  0  0
  -26.1650  -30.8140   21.1780 C   0  0  0  0  0  2  0  0  0  0  0  0
  -26.4160  -29.5210   20.4050 C   0  0  0  0  0  0  0  0  0  0  0  0
  -27.6780  -28.8480   20.3750 C   0  0  0  0  0  3  0  0  0  0  0  0
  -26.7260  -27.1330   18.9570 C   0  0  0  0  0  3  0  0  0  0  0  0
  -25.4820  -27.7960   18.9820 C   0  0  0  0  0  3  0  0  0  0  0  0
  -23.9970  -29.7100   19.7980 C   0  0  0  0  0  2  0  0  0  0  0  0
  -24.8470  -30.8830   21.8730 N   0  0  0  0  0  0  0  0  0  0  0  0
  -23.5390  -31.6770   23.5530 O   0  0  0  0  0  0  0  0  0  0  0  0
  -23.0920  -29.0490   22.0600 C   0  0  0  0  0  0  0  0  0  0  0  0
  -21.7890  -28.7660   21.8900 N   0  0  0  0  0  0  0  0  0  0  0  0
  -23.8170  -28.4030   22.8220 O   0  0  0  0  0  0  0  0  0  0  0  0
  -21.2580  -29.3470   21.2540 H   0  0  0  0  0  0  0  0  0  0  0  0
  -18.5230  -27.2460   22.2270 C   0  0  0  0  0  0  0  0  0  0  0  0
  -21.0520  -27.6810   22.5400 C   0  0  0  0  0  3  0  0  0  0  0  0
  -21.2690  -26.3400   21.8000 C   0  0  0  0  0  2  0  0  0  0  0  0
  -20.1940  -26.0510   20.7490 C   0  0  0  0  0  2  0  0  0  0  0  0
  -18.8080  -26.0050   21.3980 C   0  0  0  0  0  2  0  0  0  0  0  0
  -19.5770  -28.0410   22.7500 C   0  0  0  0  0  0  0  0  0  0  0  0
  -19.2580  -29.2020   23.4870 C   0  0  0  0  0  3  0  0  0  0  0  0
  -17.9160  -29.5710   23.7040 C   0  0  0  0  0  3  0  0  0  0  0  0
  -16.8770  -28.7720   23.1970 C   0  0  0  0  0  3  0  0  0  0  0  0
  -17.1810  -27.6110   22.4640 C   0  0  0  0  0  3  0  0  0  0  0  0
  -25.8470  -32.2730   23.7680 C   0  0  0  0  0  3  0  0  0  0  0  0
  -25.4140  -33.6350   24.1110 N   0  0  0  0  0  0  0  0  0  0  0  0
  -25.7190  -34.7320   23.4050 C   0  0  0  0  0  0  0  0  0  0  0  0
  -26.4620  -34.7080   22.4200 O   0  0  0  0  0  0  0  0  0  0  0  0
  -24.7570  -33.7220   24.8720 H   0  0  0  0  0  0  0  0  0  0  0  0
  -23.8880  -36.4050   22.9860 C   0  0  0  0  0  1  0  0  0  0  0  0
  -25.1030  -36.0680   23.8640 C   0  0  0  0  0  3  0  0  0  0  0  0
  -27.1040  -37.0880   24.8590 C   0  0  0  0  0  1  0  0  0  0  0  0
  -26.0600  -37.1960   23.8430 N   0  0  0  0  0  0  0  0  0  0  0  0
  -25.5770  -38.0800   23.9780 H   0  0  0  0  0  0  0  0  0  0  0  0
  -26.3250  -31.5020   25.0600 C   0  0  1  0  0  0  0  0  0  0  0  0
  -25.1780  -31.1600   26.0400 C   0  0  0  0  0  1  0  0  0  0  0  0
  -27.0290  -30.1790   24.6820 C   0  0  0  0  0  1  0  0  0  0  0  0
  -27.3670  -32.3540   25.8230 C   0  0  0  0  0  1  0  0  0  0  0  0
  -30.7510  -19.3280   19.2650 C   0  0  0  0  0  2  0  0  0  0  0  0
  -31.4340  -17.9590   19.8850 C   0  0  0  0  0  2  0  0  0  0  0  0
  -31.7510  -15.3610   19.6540 C   0  0  0  0  0  0  0  0  0  0  0  0
  -31.4890  -12.9770   18.9470 C   0  0  0  0  0  2  0  0  0  0  0  0
  -30.4970  -12.8610   17.7690 C   0  0  0  0  0  2  0  0  0  0  0  0
  -29.0400  -12.7910   18.2740 C   0  0  0  0  0  2  0  0  0  0  0  0
  -28.7160  -13.8100   19.4010 C   0  0  0  0  0  3  0  0  0  0  0  0
  -29.8330  -13.8850   20.4610 C   0  0  0  0  0  2  0  0  0  0  0  0
  -31.0910  -14.1520   19.7510 N   0  0  0  0  0  0  0  0  0  0  0  0
  -32.9720  -15.3720   19.4760 O   0  0  0  0  0  0  0  0  0  0  0  0
  -30.2700  -16.6120   18.1970 C   0  0  0  0  0  1  0  0  0  0  0  0
  -31.0100  -16.5390   19.4630 N   0  0  0  0  0  0  0  0  0  0  0  0
  -26.4500  -14.5290   20.3540 C   0  0  0  0  0  0  0  0  0  0  0  0
  -25.3530  -13.8140   20.7480 C   0  0  0  0  0  0  0  0  0  0  0  0
  -25.7060  -12.4370   20.5960 C   0  0  0  0  0  0  0  0  0  0  0  0
  -27.4000  -13.5900   19.9840 N   0  0  0  0  0  0  0  0  0  0  0  0
  -26.9650  -12.3240   20.1940 N   0  0  0  0  0  0  0  0  0  0  0  0
  -24.8990  -11.2230   20.7520 C   0  0  0  0  0  0  0  0  0  0  0  0
  -25.2500  -10.2200   21.6830 C   0  0  0  0  0  3  0  0  0  0  0  0
  -24.4470   -9.0680   21.8290 C   0  0  0  0  0  3  0  0  0  0  0  0
  -23.2810   -8.9130   21.0450 C   0  0  0  0  0  0  0  0  0  0  0  0
  -22.9490   -9.9030   20.1040 C   0  0  0  0  0  3  0  0  0  0  0  0
  -23.7520  -11.0470   19.9550 C   0  0  0  0  0  3  0  0  0  0  0  0
  -22.4540   -7.8170   21.1020 O   0  0  0  0  0  0  0  0  0  0  0  0
  -22.2200   -7.1530   22.2800 C   0  0  0  0  0  0  0  0  0  0  0  0
  -21.6460   -7.7980   23.3970 C   0  0  0  0  0  3  0  0  0  0  0  0
  -21.3580   -7.0610   24.5630 C   0  0  0  0  0  3  0  0  0  0  0  0
  -21.6350   -5.6810   24.6110 C   0  0  0  0  0  0  0  0  0  0  0  0
  -22.2020   -5.0370   23.4980 C   0  0  0  0  0  3  0  0  0  0  0  0
  -22.4910   -5.7710   22.3340 C   0  0  0  0  0  0  0  0  0  0  0  0
  -23.0180   -5.1420   21.2570 F   0  0  0  0  0  0  0  0  0  0  0  0
  -21.3520   -4.9720   25.7280 F   0  0  0  0  0  0  0  0  0  0  0  0
  -24.0190  -14.3730   21.1480 C   0  0  0  0  0  0  0  0  0  0  0  0
  -23.3030  -13.6790   22.0250 N   0  0  0  0  0  0  0  0  0  0  0  0
  -23.6250  -15.4570   20.7180 O   0  0  0  0  0  0  0  0  0  0  0  0
  -23.6360  -12.8010   22.3930 H   0  0  0  0  0  0  0  0  0  0  0  0
  -22.4090  -14.0330   22.3340 H   0  0  0  0  0  0  0  0  0  0  0  0
  -26.7100  -15.8940   20.2550 N   0  0  0  0  0  0  0  0  0  0  0  0
  -26.0060  -16.5940   20.4610 H   0  0  0  0  0  0  0  0  0  0  0  0
  -27.5710  -16.2870   19.8970 H   0  0  0  0  0  0  0  0  0  0  0  0
  1  3  1  0
  1  4  2  0
  2  5  2  0
  5  4  1  0
  6  2  1  0
  6  1  1  0
  7  8  1  0
  7  2  1  0
  9 10  1  0
  9  8  2  0
 11 22  2  0
 12 10  1  0
 12 17  1  0
 13 21  1  0
 13 23  1  0
 14 20  1  0
 14 16  1  0
 15 21  1  0
 16 15  1  0
 17 16  2  0
 18 19  1  0
 18 12  2  0
 19 14  2  0
 20 13  1  0
 21 11  1  0
 23 25  2  0
 24 23  1  0
 26 24  1  0
 27 36  2  0
 27 32  1  0
 28 24  1  0
 28 32  1  0
 29 28  1  0
 30 31  1  0
 30 29  1  0
 31 27  1  0
 32 33  2  0
 33 34  1  0
 35 34  2  0
 36 35  1  0
 37 11  1  0
 37 38  1  0
 37 47  1  0
 38 41  1  0
 39 43  1  0
 39 38  1  0
 40 39  2  0
 43 42  1  0
 45 43  1  0
 45 46  1  0
 45 44  1  0
 47 50  1  1
 47 48  1  0
 49 47  1  0
 51 52  1  0
 51  6  1  0
 53 59  1  0
 54 59  1  0
 55 56  1  0
 55 54  1  0
 57 56  1  0
 57 66  1  0
 57 58  1  0
 59 58  1  0
 60 53  2  0
 61 62  1  0
 62 53  1  0
 62 52  1  0
 63 64  2  0
 64 83  1  0
 65 64  1  0
 65 68  1  0
 66 67  1  0
 66 63  1  0
 67 65  2  0
 68 69  1  0
 69 70  2  0
 71 74  1  0
 71 70  1  0
 72 71  2  0
 73 72  1  0
 73 68  2  0
 74 75  1  0
 75 80  2  0
 75 76  1  0
 76 77  2  0
 77 78  1  0
 78 82  1  0
 79 78  2  0
 80 79  1  0
 81 80  1  0
 83 84  1  0
 84 87  1  0
 84 86  1  0
 85 83  2  0
 88 63  1  0
 88 89  1  0
 90 88  1  0
M  ISO  4   9 101  10 101  53 100  62 100
M  END
>  <TORSDO>  (78) 
F 21

>  <SCORE>  (78) 
-9.090

>  <name>  (78) 
81

>  <ligand_id>  (78) 
81

>  <original_smiles>  (78) 
[H]c1c([H])c([H])c2c(c1[H])C([H])([H])C([H])([H])C([H])([H])C2([H])N([H])C(=O)C1([H])N(C(=O)C([H])(N([H])C(=O)C([H])(N([H])C([H])([H])[H])C([H])([H])[H])C(C([H])([H])[H])(C([H])([H])[H])C([H])([H])[H])C([H])([H])c2c([H])c(OC([H])([H])C([H])([H])C([H])([H])c3nnc(C([H])([H])[H])n3C([H])([H])C([H])([H])N(C(=O)N3C([H])([H])C([H])([H])C([H])([H])C([H])(n4nc(-c5c([H])c([H])c(Oc6c([H])c([H])c(F)c([H])c6F)c([H])c5[H])c(C(=O)N([H])[H])c4N([H])[H])C3([H])[H])C([H])([H])[H])c([H])c([H])c2C1([H])[H]

>  <smiles>  (78) 
[H]c1c([H])c([H])c2c(c1[H])C([H])([H])C([H])([H])C([H])([H])C2([H])N([H])C(=O)C1([H])N(C(=O)C([H])(N([H])C(=O)C([H])(N([H])C([H])([H])[H])C([H])([H])[H])C(C([H])([H])[H])(C([H])([H])[H])C([H])([H])[H])C([H])([H])c2c([H])c(OC([H])([H])C([H])([H])C([H])([H])c3nnc(C([H])([H])[H])n3C([H])([H])C([H])([H])N(C(=O)N3C([H])([H])C([H])([H])C([H])([H])C([H])(n4nc(-c5c([H])c([H])c(Oc6c([H])c([H])c(F)c([H])c6F)c([H])c5[H])c(C(=O)N([H])[H])c4N([H])[H])C3([H])[H])C([H])([H])[H])c([H])c([H])c2C1([H])[H]

$$$$
82:0:0
     RDKit          3D

 90 98  0  0  1  0  0  0  0  0999 V2000
  -29.2890  -21.3320   22.0110 C   0  0  0  0  0  3  0  0  0  0  0  0
  -28.9580  -21.5780   20.6570 C   0  0  0  0  0  0  0  0  0  0  0  0
  -28.8140  -23.1410   20.3890 C   0  0  0  0  0  0  0  0  0  0  0  0
  -29.3450  -23.5000   22.6420 C   0  0  0  0  0  0  0  0  0  0  0  0
  -29.4770  -24.5330   23.7420 C   0  0  0  0  0  1  0  0  0  0  0  0
  -29.4520  -22.2410   22.9790 N   0  0  0  0  0  0  0  0  0  0  0  0
  -29.0770  -23.9510   21.4370 N   0  0  0  0  0  0  0  0  0  0  0  0
  -28.5480  -20.2160   18.4740 C   0  0  0  0  0  1  0  0  0  0  0  0
  -28.7310  -19.9930   19.9780 C   0  0  0  0  0  3  0  0  0  0  0  0
  -29.6410  -18.4250   20.2980 C   0  0  0  0  0  2  0  0  0  0  0  0
  -30.1950  -15.5020   19.8510 C   0  0  0  0  0  0  0  0  0  0  0  0
  -30.1690  -13.0540   18.9260 C   0  0  0  0  0  2  0  0  0  0  0  0
  -29.1550  -12.7680   17.7890 C   0  0  0  0  0  2  0  0  0  0  0  0
  -27.7680  -12.4190   18.3570 C   0  0  0  0  0  2  0  0  0  0  0  0
  -27.3600  -13.3760   19.5030 C   0  0  0  0  0  3  0  0  0  0  0  0
  -28.4930  -13.6180   20.5280 C   0  0  0  0  0  2  0  0  0  0  0  0
  -29.6370  -14.1820   19.7810 N   0  0  0  0  0  0  0  0  0  0  0  0
  -31.4290  -15.4810   19.7040 O   0  0  0  0  0  0  0  0  0  0  0  0
  -28.1590  -16.7320   19.1450 C   0  0  0  0  0  1  0  0  0  0  0  0
  -29.4190  -16.8020   19.8730 N   0  0  0  0  0  0  0  0  0  0  0  0
  -25.0570  -13.8750   20.4790 C   0  0  0  0  0  0  0  0  0  0  0  0
  -24.0350  -13.0710   20.8940 C   0  0  0  0  0  0  0  0  0  0  0  0
  -24.5170  -11.7300   20.7780 C   0  0  0  0  0  0  0  0  0  0  0  0
  -26.0900  -13.0250   20.1210 N   0  0  0  0  0  0  0  0  0  0  0  0
  -25.7810  -11.7260   20.3630 N   0  0  0  0  0  0  0  0  0  0  0  0
  -23.8210  -10.4570   20.9700 C   0  0  0  0  0  0  0  0  0  0  0  0
  -24.3090   -9.4850   21.8670 C   0  0  0  0  0  3  0  0  0  0  0  0
  -23.6090   -8.2750   22.0610 C   0  0  0  0  0  3  0  0  0  0  0  0
  -22.4050   -8.0350   21.3570 C   0  0  0  0  0  0  0  0  0  0  0  0
  -21.9360   -8.9960   20.4460 C   0  0  0  0  0  3  0  0  0  0  0  0
  -22.6360  -10.1970   20.2540 C   0  0  0  0  0  3  0  0  0  0  0  0
  -21.6690   -6.8800   21.4570 O   0  0  0  0  0  0  0  0  0  0  0  0
  -21.6680   -6.1260   22.6030 C   0  0  0  0  0  0  0  0  0  0  0  0
  -21.2460   -6.6530   23.8420 C   0  0  0  0  0  3  0  0  0  0  0  0
  -21.1950   -5.8250   24.9800 C   0  0  0  0  0  3  0  0  0  0  0  0
  -21.5550   -4.4670   24.8780 C   0  0  0  0  0  0  0  0  0  0  0  0
  -21.9690   -3.9370   23.6430 C   0  0  0  0  0  3  0  0  0  0  0  0
  -22.0240   -4.7650   22.5080 C   0  0  0  0  0  0  0  0  0  0  0  0
  -22.4040   -4.2470   21.3160 F   0  0  0  0  0  0  0  0  0  0  0  0
  -21.4990   -3.6670   25.9690 F   0  0  0  0  0  0  0  0  0  0  0  0
  -22.6590  -13.5190   21.2890 C   0  0  0  0  0  0  0  0  0  0  0  0
  -22.0220  -12.7850   22.1930 N   0  0  0  0  0  0  0  0  0  0  0  0
  -22.1680  -14.5530   20.8390 O   0  0  0  0  0  0  0  0  0  0  0  0
  -22.4440  -11.9460   22.5680 H   0  0  0  0  0  0  0  0  0  0  0  0
  -21.1030  -13.0530   22.5120 H   0  0  0  0  0  0  0  0  0  0  0  0
  -25.1720  -15.2530   20.3540 N   0  0  0  0  0  0  0  0  0  0  0  0
  -24.4040  -15.8720   20.5870 H   0  0  0  0  0  0  0  0  0  0  0  0
  -25.9840  -15.7440   20.0120 H   0  0  0  0  0  0  0  0  0  0  0  0
  -28.2470  -24.3500   19.2950 C   0  0  0  0  0  2  0  0  0  0  0  0
  -28.3110  -25.9930   19.4710 O   0  0  0  0  0  0  0  0  0  0  0  0
  -24.6600  -31.5970   22.8780 C   0  0  0  0  0  0  0  0  0  0  0  0
  -27.2480  -27.0330   19.4560 C   0  0  0  0  0  0  0  0  0  0  0  0
  -23.4420  -30.2420   21.2250 C   0  0  0  0  0  3  0  0  0  0  0  0
  -24.8730  -28.8060   19.6200 C   0  0  0  0  0  0  0  0  0  0  0  0
  -25.9810  -30.5860   20.9530 C   0  0  0  0  0  2  0  0  0  0  0  0
  -26.0710  -29.2260   20.2080 C   0  0  0  0  0  0  0  0  0  0  0  0
  -27.2450  -28.3620   20.1030 C   0  0  0  0  0  3  0  0  0  0  0  0
  -26.0160  -26.7640   18.8140 C   0  0  0  0  0  3  0  0  0  0  0  0
  -24.8720  -27.5990   18.8970 C   0  0  0  0  0  3  0  0  0  0  0  0
  -23.6220  -29.6650   19.7950 C   0  0  0  0  0  2  0  0  0  0  0  0
  -24.7180  -30.8340   21.7380 N   0  0  0  0  0  0  0  0  0  0  0  0
  -23.5840  -31.8070   23.4640 O   0  0  0  0  0  0  0  0  0  0  0  0
  -22.8450  -29.1570   22.1600 C   0  0  0  0  0  0  0  0  0  0  0  0
  -21.5240  -28.9160   22.0660 N   0  0  0  0  0  0  0  0  0  0  0  0
  -23.5770  -28.5350   22.9370 O   0  0  0  0  0  0  0  0  0  0  0  0
  -20.9820  -29.4820   21.4270 H   0  0  0  0  0  0  0  0  0  0  0  0
  -18.2450  -27.4470   22.5990 C   0  0  0  0  0  0  0  0  0  0  0  0
  -20.7850  -27.8910   22.8140 C   0  0  0  0  0  3  0  0  0  0  0  0
  -20.9760  -26.4960   22.1790 C   0  0  0  0  0  2  0  0  0  0  0  0
  -19.8760  -26.1340   21.1770 C   0  0  0  0  0  2  0  0  0  0  0  0
  -18.5020  -26.1460   21.8560 C   0  0  0  0  0  2  0  0  0  0  0  0
  -19.3170  -28.2750   23.0320 C   0  0  0  0  0  0  0  0  0  0  0  0
  -19.0210  -29.4860   23.6910 C   0  0  0  0  0  3  0  0  0  0  0  0
  -17.6870  -29.8790   23.9160 C   0  0  0  0  0  3  0  0  0  0  0  0
  -16.6300  -29.0520   23.4920 C   0  0  0  0  0  3  0  0  0  0  0  0
  -16.9120  -27.8360   22.8440 C   0  0  0  0  0  3  0  0  0  0  0  0
  -25.9300  -32.2560   23.4920 C   0  0  0  0  0  3  0  0  0  0  0  0
  -26.5680  -31.4130   24.6650 C   0  0  1  0  0  0  0  0  0  0  0  0
  -25.5670  -31.0210   25.7770 C   0  0  0  0  0  1  0  0  0  0  0  0
  -27.2010  -30.1110   24.1210 C   0  0  0  0  0  1  0  0  0  0  0  0
  -27.7120  -32.2210   25.3200 C   0  0  0  0  0  1  0  0  0  0  0  0
  -25.5560  -33.5980   23.9780 N   0  0  0  0  0  0  0  0  0  0  0  0
  -25.7930  -34.7450   23.3290 C   0  0  0  0  0  0  0  0  0  0  0  0
  -26.4150  -34.7890   22.2650 O   0  0  0  0  0  0  0  0  0  0  0  0
  -25.0000  -33.6350   24.8190 H   0  0  0  0  0  0  0  0  0  0  0  0
  -23.9560  -36.4690   23.2640 C   0  0  0  0  0  1  0  0  0  0  0  0
  -25.2600  -36.0510   23.9600 C   0  0  0  0  0  3  0  0  0  0  0  0
  -27.3870  -36.9680   24.7770 C   0  0  0  0  0  1  0  0  0  0  0  0
  -26.2290  -37.1690   23.9100 N   0  0  0  0  0  0  0  0  0  0  0  0
  -25.7840  -38.0430   24.1780 H   0  0  0  0  0  0  0  0  0  0  0  0
  1  6  1  0
  2  1  2  0
  3  2  1  0
  3  7  2  0
  4  6  2  0
  4  5  1  0
  7  4  1  0
  9  8  1  0
  9 10  1  0
  9  2  1  0
 11 20  1  0
 12 17  1  0
 13 14  1  0
 13 12  1  0
 15 14  1  0
 15 24  1  0
 15 16  1  0
 17 11  1  0
 17 16  1  0
 18 11  2  0
 19 20  1  0
 20 10  1  0
 21 22  2  0
 22 41  1  0
 23 22  1  0
 23 26  1  0
 24 25  1  0
 24 21  1  0
 25 23  2  0
 26 27  1  0
 27 28  2  0
 29 32  1  0
 29 28  1  0
 30 29  2  0
 31 30  1  0
 31 26  2  0
 32 33  1  0
 33 34  1  0
 34 35  2  0
 36 35  1  0
 36 40  1  0
 37 36  2  0
 38 33  2  0
 38 37  1  0
 39 38  1  0
 41 42  1  0
 42 45  1  0
 42 44  1  0
 43 41  2  0
 46 21  1  0
 46 47  1  0
 48 46  1  0
 49 50  1  0
 49  3  1  0
 51 62  2  0
 52 50  1  0
 52 57  1  0
 53 61  1  0
 53 63  1  0
 54 60  1  0
 54 56  1  0
 55 61  1  0
 56 55  1  0
 57 56  2  0
 58 59  1  0
 58 52  2  0
 59 54  2  0
 60 53  1  0
 61 51  1  0
 63 65  2  0
 64 63  1  0
 66 64  1  0
 67 76  2  0
 67 72  1  0
 68 64  1  0
 68 72  1  0
 69 68  1  0
 70 71  1  0
 70 69  1  0
 71 67  1  0
 72 73  2  0
 73 74  1  0
 75 74  2  0
 76 75  1  0
 77 51  1  0
 77 82  1  0
 77 78  1  0
 78 81  1  1
 78 79  1  0
 80 78  1  0
 82 85  1  0
 83 87  1  0
 83 82  1  0
 84 83  2  0
 87 86  1  0
 89 87  1  0
 89 90  1  0
 89 88  1  0
M  ISO  4  11 100  20 100  49 101  50 101
M  END
>  <TORSDO>  (79) 
F 19

>  <SCORE>  (79) 
-15.615

>  <name>  (79) 
82

>  <ligand_id>  (79) 
82

>  <original_smiles>  (79) 
[H]c1nc(C([H])([H])[H])nc(C([H])([H])Oc2c([H])c([H])c3c(c2[H])C([H])([H])N(C(=O)C([H])(N([H])C(=O)C([H])(N([H])C([H])([H])[H])C([H])([H])[H])C(C([H])([H])[H])(C([H])([H])[H])C([H])([H])[H])C([H])(C(=O)N([H])C2([H])c4c([H])c([H])c([H])c([H])c4C([H])([H])C([H])([H])C2([H])[H])C3([H])[H])c1C([H])(C([H])([H])[H])C([H])([H])N(C(=O)N1C([H])([H])C([H])([H])C([H])([H])C([H])(n2nc(-c3c([H])c([H])c(Oc4c([H])c([H])c(F)c([H])c4F)c([H])c3[H])c(C(=O)N([H])[H])c2N([H])[H])C1([H])[H])C([H])([H])[H]

>  <smiles>  (79) 
[H]c1nc(C([H])([H])[H])nc(C([H])([H])Oc2c([H])c([H])c3c(c2[H])C([H])([H])N(C(=O)C([H])(N([H])C(=O)C([H])(N([H])C([H])([H])[H])C([H])([H])[H])C(C([H])([H])[H])(C([H])([H])[H])C([H])([H])[H])C([H])(C(=O)N([H])C2([H])c4c([H])c([H])c([H])c([H])c4C([H])([H])C([H])([H])C2([H])[H])C3([H])[H])c1C([H])(C([H])([H])[H])C([H])([H])N(C(=O)N1C([H])([H])C([H])([H])C([H])([H])C([H])(n2nc(-c3c([H])c([H])c(Oc4c([H])c([H])c(F)c([H])c4F)c([H])c3[H])c(C(=O)N([H])[H])c2N([H])[H])C1([H])[H])C([H])([H])[H]

$$$$
83:0:0
     RDKit          3D

 89 97  0  0  1  0  0  0  0  0999 V2000
  -30.7750  -21.1840   20.1370 C   0  0  0  0  0  3  0  0  0  0  0  0
  -30.2800  -23.4910   20.1110 C   0  0  0  0  0  3  0  0  0  0  0  0
  -29.4200  -20.7970   20.2750 C   0  0  0  0  0  0  0  0  0  0  0  0
  -28.8890  -23.2790   20.2240 C   0  0  0  0  0  0  0  0  0  0  0  0
  -31.1920  -22.4800   20.0670 N   0  0  0  0  0  0  0  0  0  0  0  0
  -28.4890  -21.8960   20.3040 N   0  0  0  0  0  0  0  0  0  0  0  0
  -29.0460  -19.1640   20.3210 C   0  0  0  0  0  2  0  0  0  0  0  0
  -30.9480  -18.0500   21.7660 C   0  0  0  0  0  1  0  0  0  0  0  0
  -30.1230  -17.8330   20.4860 C   0  0  0  0  0  3  0  0  0  0  0  0
  -30.4910  -15.0620   20.3080 C   0  0  0  0  0  0  0  0  0  0  0  0
  -30.3710  -12.7040   19.3580 C   0  0  0  0  0  2  0  0  0  0  0  0
  -29.4250  -12.6420   18.1370 C   0  0  0  0  0  2  0  0  0  0  0  0
  -27.9700  -12.4110   18.5890 C   0  0  0  0  0  2  0  0  0  0  0  0
  -27.5680  -13.3260   19.7760 C   0  0  0  0  0  3  0  0  0  0  0  0
  -28.6400  -13.3600   20.8850 C   0  0  0  0  0  2  0  0  0  0  0  0
  -29.8900  -13.7990   20.2520 N   0  0  0  0  0  0  0  0  0  0  0  0
  -31.6950  -15.1040   20.0360 O   0  0  0  0  0  0  0  0  0  0  0  0
  -29.7340  -16.2730   20.4620 N   0  0  0  0  0  0  0  0  0  0  0  0
  -28.7490  -16.0980   20.5970 H   0  0  0  0  0  0  0  0  0  0  0  0
  -25.1990  -13.8730   20.5630 C   0  0  0  0  0  0  0  0  0  0  0  0
  -24.1460  -13.0840   20.9370 C   0  0  0  0  0  0  0  0  0  0  0  0
  -24.6190  -11.7380   20.8790 C   0  0  0  0  0  0  0  0  0  0  0  0
  -26.2430  -13.0060   20.2930 N   0  0  0  0  0  0  0  0  0  0  0  0
  -25.9060  -11.7150   20.5500 N   0  0  0  0  0  0  0  0  0  0  0  0
  -23.9020  -10.4680   21.0570 C   0  0  0  0  0  0  0  0  0  0  0  0
  -24.3390   -9.4970   21.9850 C   0  0  0  0  0  3  0  0  0  0  0  0
  -23.6210   -8.2930   22.1550 C   0  0  0  0  0  3  0  0  0  0  0  0
  -22.4500   -8.0530   21.3970 C   0  0  0  0  0  0  0  0  0  0  0  0
  -22.0320   -9.0120   20.4580 C   0  0  0  0  0  3  0  0  0  0  0  0
  -22.7510  -10.2070   20.2870 C   0  0  0  0  0  3  0  0  0  0  0  0
  -21.7040   -6.9020   21.4760 O   0  0  0  0  0  0  0  0  0  0  0  0
  -21.6440   -6.1600   22.6280 C   0  0  0  0  0  0  0  0  0  0  0  0
  -21.1660   -6.7020   23.8410 C   0  0  0  0  0  3  0  0  0  0  0  0
  -21.0570   -5.8860   24.9830 C   0  0  0  0  0  3  0  0  0  0  0  0
  -21.4160   -4.5260   24.9150 C   0  0  0  0  0  0  0  0  0  0  0  0
  -21.8870   -3.9820   23.7070 C   0  0  0  0  0  3  0  0  0  0  0  0
  -21.9990   -4.7970   22.5660 C   0  0  0  0  0  0  0  0  0  0  0  0
  -22.4330   -4.2630   21.4000 F   0  0  0  0  0  0  0  0  0  0  0  0
  -21.3030   -3.7390   26.0100 F   0  0  0  0  0  0  0  0  0  0  0  0
  -22.7500  -13.5480   21.2300 C   0  0  0  0  0  0  0  0  0  0  0  0
  -22.0370  -12.8370   22.0950 N   0  0  0  0  0  0  0  0  0  0  0  0
  -22.2990  -14.5780   20.7270 O   0  0  0  0  0  0  0  0  0  0  0  0
  -22.4160  -12.0050   22.5240 H   0  0  0  0  0  0  0  0  0  0  0  0
  -21.0990  -13.1260   22.3340 H   0  0  0  0  0  0  0  0  0  0  0  0
  -25.3490  -15.2470   20.4010 N   0  0  0  0  0  0  0  0  0  0  0  0
  -24.5740  -15.8890   20.5270 H   0  0  0  0  0  0  0  0  0  0  0  0
  -26.1720  -15.6930   20.0220 H   0  0  0  0  0  0  0  0  0  0  0  0
  -27.8640  -24.5940   20.1360 C   0  0  0  0  0  2  0  0  0  0  0  0
  -28.2050  -26.1310   20.2720 O   0  0  0  0  0  0  0  0  0  0  0  0
  -24.6290  -31.9130   23.2580 C   0  0  0  0  0  0  0  0  0  0  0  0
  -27.1710  -27.1530   20.2160 C   0  0  0  0  0  0  0  0  0  0  0  0
  -23.4210  -30.5270   21.6200 C   0  0  0  0  0  3  0  0  0  0  0  0
  -24.8590  -28.9430   20.1910 C   0  0  0  0  0  0  0  0  0  0  0  0
  -25.9800  -30.7650   21.4580 C   0  0  0  0  0  2  0  0  0  0  0  0
  -26.0450  -29.3700   20.8020 C   0  0  0  0  0  0  0  0  0  0  0  0
  -27.2010  -28.4940   20.7950 C   0  0  0  0  0  3  0  0  0  0  0  0
  -25.9550  -26.8410   19.5660 C   0  0  0  0  0  3  0  0  0  0  0  0
  -24.8290  -27.6920   19.5590 C   0  0  0  0  0  3  0  0  0  0  0  0
  -23.6380  -29.8510   20.2410 C   0  0  0  0  0  2  0  0  0  0  0  0
  -24.6980  -31.0910   22.1670 N   0  0  0  0  0  0  0  0  0  0  0  0
  -23.5430  -32.2070   23.7840 O   0  0  0  0  0  0  0  0  0  0  0  0
  -22.7330  -29.5250   22.5810 C   0  0  0  0  0  0  0  0  0  0  0  0
  -21.4040  -29.3600   22.4490 N   0  0  0  0  0  0  0  0  0  0  0  0
  -23.3970  -28.8990   23.4100 O   0  0  0  0  0  0  0  0  0  0  0  0
  -20.9220  -29.9150   21.7560 H   0  0  0  0  0  0  0  0  0  0  0  0
  -18.0150  -28.1740   22.9500 C   0  0  0  0  0  0  0  0  0  0  0  0
  -20.5760  -28.4260   23.2180 C   0  0  0  0  0  3  0  0  0  0  0  0
  -20.6710  -26.9930   22.6450 C   0  0  0  0  0  2  0  0  0  0  0  0
  -19.5680  -26.6750   21.6290 C   0  0  0  0  0  2  0  0  0  0  0  0
  -18.1870  -26.8250   22.2730 C   0  0  0  0  0  2  0  0  0  0  0  0
  -19.1370  -28.9330   23.3800 C   0  0  0  0  0  0  0  0  0  0  0  0
  -18.9210  -30.1950   23.9750 C   0  0  0  0  0  3  0  0  0  0  0  0
  -17.6180  -30.6990   24.1430 C   0  0  0  0  0  3  0  0  0  0  0  0
  -16.5110  -29.9380   23.7270 C   0  0  0  0  0  3  0  0  0  0  0  0
  -16.7110  -28.6770   23.1370 C   0  0  0  0  0  3  0  0  0  0  0  0
  -25.9090  -32.5410   23.8870 C   0  0  0  0  0  3  0  0  0  0  0  0
  -26.4120  -31.7690   25.1690 C   0  0  1  0  0  0  0  0  0  0  0  0
  -25.3100  -31.5410   26.2320 C   0  0  0  0  0  1  0  0  0  0  0  0
  -26.9880  -30.3870   24.7900 C   0  0  0  0  0  1  0  0  0  0  0  0
  -27.5630  -32.5580   25.8360 C   0  0  0  0  0  1  0  0  0  0  0  0
  -25.6040  -33.9430   24.2210 N   0  0  0  0  0  0  0  0  0  0  0  0
  -25.9140  -34.9960   23.4540 C   0  0  0  0  0  0  0  0  0  0  0  0
  -26.5520  -34.8910   22.4040 O   0  0  0  0  0  0  0  0  0  0  0  0
  -25.0320  -34.0980   25.0390 H   0  0  0  0  0  0  0  0  0  0  0  0
  -24.1620  -36.7830   23.1730 C   0  0  0  0  0  1  0  0  0  0  0  0
  -25.4430  -36.3860   23.9260 C   0  0  0  0  0  3  0  0  0  0  0  0
  -27.6070  -37.2920   24.6540 C   0  0  0  0  0  1  0  0  0  0  0  0
  -26.4650  -37.4440   23.7570 N   0  0  0  0  0  0  0  0  0  0  0  0
  -26.0600  -38.3640   23.9110 H   0  0  0  0  0  0  0  0  0  0  0  0
  1  3  1  0
  2  4  2  0
  3  6  2  0
  3  7  1  0
  4  6  1  0
  5  2  1  0
  5  1  2  0
  7  9  1  0
  9  8  1  0
 10 18  1  0
 11 16  1  0
 12 13  1  0
 12 11  1  0
 14 13  1  0
 14 23  1  0
 14 15  1  0
 16 10  1  0
 16 15  1  0
 17 10  2  0
 18  9  1  0
 18 19  1  0
 20 21  2  0
 21 40  1  0
 22 21  1  0
 22 25  1  0
 23 24  1  0
 23 20  1  0
 24 22  2  0
 25 26  1  0
 26 27  2  0
 28 31  1  0
 28 27  1  0
 29 28  2  0
 30 29  1  0
 30 25  2  0
 31 32  1  0
 32 33  1  0
 33 34  2  0
 35 34  1  0
 35 39  1  0
 36 35  2  0
 37 32  2  0
 37 36  1  0
 38 37  1  0
 40 41  1  0
 41 44  1  0
 41 43  1  0
 42 40  2  0
 45 46  1  0
 45 20  1  0
 47 45  1  0
 48  4  1  0
 48 49  1  0
 50 61  2  0
 51 49  1  0
 51 56  1  0
 52 60  1  0
 52 62  1  0
 53 59  1  0
 53 55  1  0
 54 60  1  0
 55 54  1  0
 56 55  2  0
 57 51  2  0
 58 57  1  0
 58 53  2  0
 59 52  1  0
 60 50  1  0
 62 64  2  0
 63 62  1  0
 65 63  1  0
 66 75  2  0
 66 71  1  0
 67 63  1  0
 67 71  1  0
 68 67  1  0
 69 70  1  0
 69 68  1  0
 70 66  1  0
 71 72  2  0
 72 73  1  0
 74 73  2  0
 75 74  1  0
 76 50  1  0
 76 81  1  0
 76 77  1  0
 77 80  1  1
 77 78  1  0
 79 77  1  0
 81 84  1  0
 82 86  1  0
 82 81  1  0
 83 82  2  0
 86 85  1  0
 88 89  1  0
 88 86  1  0
 88 87  1  0
M  ISO  4  10 100  18 100  48 101  49 101
M  END
>  <TORSDO>  (80) 
F 19

>  <SCORE>  (80) 
-14.867

>  <name>  (80) 
83

>  <ligand_id>  (80) 
83

>  <original_smiles>  (80) 
[H]c1nc([H])c(C([H])([H])C([H])(N([H])C(=O)N2C([H])([H])C([H])([H])C([H])([H])C([H])(n3nc(-c4c([H])c([H])c(Oc5c([H])c([H])c(F)c([H])c5F)c([H])c4[H])c(C(=O)N([H])[H])c3N([H])[H])C2([H])[H])C([H])([H])[H])nc1C([H])([H])Oc1c([H])c([H])c2c(c1[H])C([H])([H])N(C(=O)C([H])(N([H])C(=O)C([H])(N([H])C([H])([H])[H])C([H])([H])[H])C(C([H])([H])[H])(C([H])([H])[H])C([H])([H])[H])C([H])(C(=O)N([H])C1([H])c3c([H])c([H])c([H])c([H])c3C([H])([H])C([H])([H])C1([H])[H])C2([H])[H]

>  <smiles>  (80) 
[H]c1nc([H])c(C([H])([H])C([H])(N([H])C(=O)N2C([H])([H])C([H])([H])C([H])([H])C([H])(n3nc(-c4c([H])c([H])c(Oc5c([H])c([H])c(F)c([H])c5F)c([H])c4[H])c(C(=O)N([H])[H])c3N([H])[H])C2([H])[H])C([H])([H])[H])nc1C([H])([H])Oc1c([H])c([H])c2c(c1[H])C([H])([H])N(C(=O)C([H])(N([H])C(=O)C([H])(N([H])C([H])([H])[H])C([H])([H])[H])C(C([H])([H])[H])(C([H])([H])[H])C([H])([H])[H])C([H])(C(=O)N([H])C1([H])c3c([H])c([H])c([H])c([H])c3C([H])([H])C([H])([H])C1([H])[H])C2([H])[H]

$$$$
84:0:0
     RDKit          3D

 90 98  0  0  1  0  0  0  0  0999 V2000
  -30.4030  -19.7700   18.4620 C   0  0  0  0  0  0  0  0  0  0  0  0
  -29.2760  -20.8810   20.0530 C   0  0  0  0  0  0  0  0  0  0  0  0
  -29.5010  -18.5360   20.0960 C   0  0  0  0  0  0  0  0  0  0  0  0
  -31.2010  -19.8120   17.1750 C   0  0  0  0  0  1  0  0  0  0  0  0
  -29.9630  -20.9400   18.9200 N   0  0  0  0  0  4  0  0  0  0  0  0
  -30.2290  -18.5630   18.9900 N   0  0  0  0  0  0  0  0  0  0  0  0
  -28.9990  -19.6820   20.6790 N   0  0  0  0  0  2  0  0  0  0  0  0
  -29.0410  -22.3350   20.7190 C   0  0  0  0  0  2  0  0  0  0  0  0
  -28.0430  -23.5150   20.1550 C   0  0  0  0  0  2  0  0  0  0  0  0
  -28.4950  -25.0150   19.6460 C   0  0  0  0  0  2  0  0  0  0  0  0
  -28.3430  -26.3740   20.3100 O   0  0  0  0  0  0  0  0  0  0  0  0
  -24.6330  -31.8920   23.2360 C   0  0  0  0  0  0  0  0  0  0  0  0
  -27.2380  -27.2600   20.1920 C   0  0  0  0  0  0  0  0  0  0  0  0
  -23.4330  -30.4910   21.5970 C   0  0  0  0  0  3  0  0  0  0  0  0
  -24.8840  -28.9280   20.1650 C   0  0  0  0  0  0  0  0  0  0  0  0
  -25.9760  -30.7880   21.4200 C   0  0  0  0  0  2  0  0  0  0  0  0
  -26.0520  -29.4020   20.7720 C   0  0  0  0  0  0  0  0  0  0  0  0
  -27.2260  -28.5780   20.7760 C   0  0  0  0  0  3  0  0  0  0  0  0
  -26.0460  -26.8560   19.5540 C   0  0  0  0  0  3  0  0  0  0  0  0
  -24.8880  -27.6660   19.5460 C   0  0  0  0  0  3  0  0  0  0  0  0
  -23.6480  -29.8100   20.2170 C   0  0  0  0  0  2  0  0  0  0  0  0
  -24.7000  -31.0770   22.1400 N   0  0  0  0  0  0  0  0  0  0  0  0
  -23.5480  -32.1720   23.7690 O   0  0  0  0  0  0  0  0  0  0  0  0
  -22.7650  -29.4800   22.5620 C   0  0  0  0  0  0  0  0  0  0  0  0
  -21.4400  -29.2960   22.4300 N   0  0  0  0  0  0  0  0  0  0  0  0
  -23.4410  -28.8630   23.3900 O   0  0  0  0  0  0  0  0  0  0  0  0
  -20.9520  -29.8460   21.7360 H   0  0  0  0  0  0  0  0  0  0  0  0
  -18.0700  -28.0680   22.9080 C   0  0  0  0  0  0  0  0  0  0  0  0
  -20.6220  -28.3580   23.2010 C   0  0  0  0  0  3  0  0  0  0  0  0
  -20.7450  -26.9220   22.6390 C   0  0  0  0  0  2  0  0  0  0  0  0
  -19.6580  -26.5800   21.6160 C   0  0  0  0  0  2  0  0  0  0  0  0
  -18.2670  -26.7160   22.2450 C   0  0  0  0  0  2  0  0  0  0  0  0
  -19.1760  -28.8460   23.3430 C   0  0  0  0  0  0  0  0  0  0  0  0
  -18.9380  -30.1100   23.9240 C   0  0  0  0  0  3  0  0  0  0  0  0
  -17.6250  -30.5980   24.0740 C   0  0  0  0  0  3  0  0  0  0  0  0
  -16.5330  -29.8180   23.6560 C   0  0  0  0  0  3  0  0  0  0  0  0
  -16.7570  -28.5560   23.0780 C   0  0  0  0  0  3  0  0  0  0  0  0
  -25.9130  -32.5290   23.8600 C   0  0  0  0  0  3  0  0  0  0  0  0
  -26.4240  -31.7660   25.1430 C   0  0  1  0  0  0  0  0  0  0  0  0
  -25.3280  -31.5390   26.2120 C   0  0  0  0  0  1  0  0  0  0  0  0
  -27.0030  -30.3830   24.7640 C   0  0  0  0  0  1  0  0  0  0  0  0
  -27.5750  -32.5600   25.8020 C   0  0  0  0  0  1  0  0  0  0  0  0
  -25.6020  -33.9290   24.1850 N   0  0  0  0  0  0  0  0  0  0  0  0
  -25.9360  -34.9820   23.4280 C   0  0  0  0  0  0  0  0  0  0  0  0
  -26.6070  -34.8770   22.3970 O   0  0  0  0  0  0  0  0  0  0  0  0
  -25.0050  -34.0850   24.9840 H   0  0  0  0  0  0  0  0  0  0  0  0
  -24.2090  -36.7790   23.0740 C   0  0  0  0  0  1  0  0  0  0  0  0
  -25.4510  -36.3730   23.8850 C   0  0  0  0  0  3  0  0  0  0  0  0
  -27.5870  -37.2580   24.7120 C   0  0  0  0  0  1  0  0  0  0  0  0
  -26.4850  -37.4250   23.7700 N   0  0  0  0  0  0  0  0  0  0  0  0
  -26.0780  -38.3450   23.9160 H   0  0  0  0  0  0  0  0  0  0  0  0
  -29.0800  -17.0420   20.5280 C   0  0  0  0  0  2  0  0  0  0  0  0
  -30.5890  -14.8320   20.4030 C   0  0  0  0  0  0  0  0  0  0  0  0
  -30.3510  -12.5490   19.3810 C   0  0  0  0  0  2  0  0  0  0  0  0
  -29.4250  -12.6000   18.1470 C   0  0  0  0  0  2  0  0  0  0  0  0
  -27.9580  -12.4200   18.5740 C   0  0  0  0  0  2  0  0  0  0  0  0
  -27.5750  -13.3140   19.7830 C   0  0  0  0  0  3  0  0  0  0  0  0
  -28.6280  -13.2630   20.9120 C   0  0  0  0  0  2  0  0  0  0  0  0
  -29.9210  -13.6220   20.3200 N   0  0  0  0  0  0  0  0  0  0  0  0
  -31.7490  -14.8810   19.9800 O   0  0  0  0  0  0  0  0  0  0  0  0
  -30.8560  -16.4940   22.1340 C   0  0  0  0  0  1  0  0  0  0  0  0
  -30.0460  -15.9570   21.0360 N   0  0  0  0  0  0  0  0  0  0  0  0
  -25.1880  -13.8970   20.5020 C   0  0  0  0  0  0  0  0  0  0  0  0
  -24.1230  -13.1220   20.8680 C   0  0  0  0  0  0  0  0  0  0  0  0
  -24.5880  -11.7720   20.8430 C   0  0  0  0  0  0  0  0  0  0  0  0
  -26.2340  -13.0190   20.2720 N   0  0  0  0  0  0  0  0  0  0  0  0
  -25.8810  -11.7360   20.5420 N   0  0  0  0  0  0  0  0  0  0  0  0
  -23.8610  -10.5100   21.0340 C   0  0  0  0  0  0  0  0  0  0  0  0
  -24.2880   -9.5440   21.9720 C   0  0  0  0  0  3  0  0  0  0  0  0
  -23.5600   -8.3490   22.1510 C   0  0  0  0  0  3  0  0  0  0  0  0
  -22.3910   -8.1080   21.3900 C   0  0  0  0  0  0  0  0  0  0  0  0
  -21.9840   -9.0610   20.4410 C   0  0  0  0  0  3  0  0  0  0  0  0
  -22.7120  -10.2490   20.2600 C   0  0  0  0  0  3  0  0  0  0  0  0
  -21.6340   -6.9640   21.4780 O   0  0  0  0  0  0  0  0  0  0  0  0
  -21.5800   -6.2250   22.6330 C   0  0  0  0  0  0  0  0  0  0  0  0
  -21.1480   -6.7840   23.8550 C   0  0  0  0  0  3  0  0  0  0  0  0
  -21.0390   -5.9710   25.0010 C   0  0  0  0  0  3  0  0  0  0  0  0
  -21.3520   -4.6010   24.9250 C   0  0  0  0  0  0  0  0  0  0  0  0
  -21.7770   -4.0410   23.7070 C   0  0  0  0  0  3  0  0  0  0  0  0
  -21.8870   -4.8510   22.5640 C   0  0  0  0  0  0  0  0  0  0  0  0
  -22.2760   -4.3030   21.3870 F   0  0  0  0  0  0  0  0  0  0  0  0
  -21.2410   -3.8180   26.0230 F   0  0  0  0  0  0  0  0  0  0  0  0
  -22.7240  -13.6000   21.1280 C   0  0  0  0  0  0  0  0  0  0  0  0
  -21.9880  -12.9040   21.9880 N   0  0  0  0  0  0  0  0  0  0  0  0
  -22.2910  -14.6250   20.6030 O   0  0  0  0  0  0  0  0  0  0  0  0
  -22.3520  -12.0750   22.4360 H   0  0  0  0  0  0  0  0  0  0  0  0
  -21.0500  -13.2060   22.2050 H   0  0  0  0  0  0  0  0  0  0  0  0
  -25.3520  -15.2680   20.3230 N   0  0  0  0  0  0  0  0  0  0  0  0
  -24.5840  -15.9210   20.4370 H   0  0  0  0  0  0  0  0  0  0  0  0
  -26.1990  -15.7060   19.9880 H   0  0  0  0  0  0  0  0  0  0  0  0
  1  5  2  0
  1  6  1  0
  2  7  1  0
  2  8  1  0
  3 52  1  0
  3  7  1  0
  4  1  1  0
  5  2  2  0
  6  3  2  0
  9  8  1  0
 10  9  1  0
 10 11  1  0
 12 23  2  0
 13 11  1  0
 13 18  1  0
 14 22  1  0
 14 24  1  0
 15 21  1  0
 15 17  1  0
 16 22  1  0
 17 18  2  0
 17 16  1  0
 19 13  2  0
 20 19  1  0
 20 15  2  0
 21 14  1  0
 22 12  1  0
 24 26  2  0
 25 24  1  0
 27 25  1  0
 28 37  2  0
 28 33  1  0
 29 25  1  0
 29 33  1  0
 30 29  1  0
 31 32  1  0
 31 30  1  0
 32 28  1  0
 33 34  2  0
 34 35  1  0
 36 35  2  0
 37 36  1  0
 38 12  1  0
 38 43  1  0
 38 39  1  0
 39 42  1  1
 39 40  1  0
 41 39  1  0
 43 46  1  0
 44 48  1  0
 44 43  1  0
 45 44  2  0
 48 47  1  0
 50 48  1  0
 50 51  1  0
 50 49  1  0
 52 62  1  0
 53 62  1  0
 54 59  1  0
 55 56  1  0
 55 54  1  0
 57 56  1  0
 57 66  1  0
 57 58  1  0
 59 53  1  0
 59 58  1  0
 60 53  2  0
 62 61  1  0
 63 64  2  0
 64 83  1  0
 65 64  1  0
 65 68  1  0
 66 63  1  0
 66 67  1  0
 67 65  2  0
 68 69  1  0
 69 70  2  0
 71 74  1  0
 71 70  1  0
 72 71  2  0
 73 72  1  0
 73 68  2  0
 74 75  1  0
 75 76  1  0
 76 77  2  0
 78 77  1  0
 78 82  1  0
 79 78  2  0
 80 75  2  0
 80 79  1  0
 81 80  1  0
 83 84  1  0
 84 87  1  0
 84 86  1  0
 85 83  2  0
 88 89  1  0
 88 63  1  0
 90 88  1  0
M  ISO  4  10 101  11 101  53 100  62 100
M  END
>  <TORSDO>  (81) 
F 20

>  <SCORE>  (81) 
-14.037

>  <name>  (81) 
84

>  <ligand_id>  (81) 
84

>  <original_smiles>  (81) 
[H]c1c([H])c([H])c2c(c1[H])C([H])([H])C([H])([H])C([H])([H])C2([H])N([H])C(=O)C1([H])N(C(=O)C([H])(N([H])C(=O)C([H])(N([H])C([H])([H])[H])C([H])([H])[H])C(C([H])([H])[H])(C([H])([H])[H])C([H])([H])[H])C([H])([H])c2c([H])c(OC([H])([H])C([H])([H])C([H])([H])c3nc(C([H])([H])[H])nc(C([H])([H])N(C(=O)N4C([H])([H])C([H])([H])C([H])([H])C([H])(n5nc(-c6c([H])c([H])c(Oc7c([H])c([H])c(F)c([H])c7F)c([H])c6[H])c(C(=O)N([H])[H])c5N([H])[H])C4([H])[H])C([H])([H])[H])n3)c([H])c([H])c2C1([H])[H]

>  <smiles>  (81) 
[H]c1c([H])c([H])c2c(c1[H])C([H])([H])C([H])([H])C([H])([H])C2([H])N([H])C(=O)C1([H])N(C(=O)C([H])(N([H])C(=O)C([H])(N([H])C([H])([H])[H])C([H])([H])[H])C(C([H])([H])[H])(C([H])([H])[H])C([H])([H])[H])C([H])([H])c2c([H])c(OC([H])([H])C([H])([H])C([H])([H])c3nc(C([H])([H])[H])nc(C([H])([H])N(C(=O)N4C([H])([H])C([H])([H])C([H])([H])C([H])(n5nc(-c6c([H])c([H])c(Oc7c([H])c([H])c(F)c([H])c7F)c([H])c6[H])c(C(=O)N([H])[H])c5N([H])[H])C4([H])[H])C([H])([H])[H])n3)c([H])c([H])c2C1([H])[H]

$$$$
85:0:0
     RDKit          3D

 90 98  0  0  1  0  0  0  0  0999 V2000
  -28.9160  -22.6470   21.3250 C   0  0  0  0  0  3  0  0  0  0  0  0
  -29.0500  -22.3550   19.0420 C   0  0  0  0  0  3  0  0  0  0  0  0
  -28.7690  -23.3080   20.0760 C   0  0  0  0  0  0  0  0  0  0  0  0
  -29.4930  -20.4730   20.4410 C   0  0  0  0  0  0  0  0  0  0  0  0
  -29.2510  -21.3110   21.4800 N   0  0  0  0  0  0  0  0  0  0  0  0
  -29.3650  -21.0090   19.2130 N   0  0  0  0  0  0  0  0  0  0  0  0
  -28.0420  -18.4080   20.9350 C   0  0  0  0  0  1  0  0  0  0  0  0
  -30.2660  -18.6290   22.0760 C   0  0  0  0  0  1  0  0  0  0  0  0
  -29.5110  -18.8340   20.7410 C   0  0  2  0  0  0  0  0  0  0  0  0
  -30.2120  -17.6490   19.7970 C   0  0  0  0  0  2  0  0  0  0  0  0
  -30.7590  -14.9590   19.7990 C   0  0  0  0  0  0  0  0  0  0  0  0
  -30.4930  -12.6770   18.7710 C   0  0  0  0  0  2  0  0  0  0  0  0
  -29.4410  -12.7260   17.6390 C   0  0  0  0  0  2  0  0  0  0  0  0
  -28.0240  -12.5160   18.2050 C   0  0  0  0  0  2  0  0  0  0  0  0
  -27.7530  -13.3810   19.4640 C   0  0  0  0  0  3  0  0  0  0  0  0
  -28.9150  -13.3130   20.4800 C   0  0  0  0  0  2  0  0  0  0  0  0
  -30.1380  -13.7190   19.7730 N   0  0  0  0  0  0  0  0  0  0  0  0
  -31.9070  -15.0490   19.3560 O   0  0  0  0  0  0  0  0  0  0  0  0
  -30.0180  -16.1160   20.1090 N   0  0  0  0  0  0  0  0  0  0  0  0
  -29.1060  -15.8950   20.4740 H   0  0  0  0  0  0  0  0  0  0  0  0
  -25.4480  -13.9340   20.4390 C   0  0  0  0  0  0  0  0  0  0  0  0
  -24.4210  -13.1470   20.8820 C   0  0  0  0  0  0  0  0  0  0  0  0
  -24.8780  -11.7980   20.7610 C   0  0  0  0  0  0  0  0  0  0  0  0
  -26.4640  -13.0670   20.0750 N   0  0  0  0  0  0  0  0  0  0  0  0
  -26.1350  -11.7740   20.3320 N   0  0  0  0  0  0  0  0  0  0  0  0
  -24.1680  -10.5290   20.9750 C   0  0  0  0  0  0  0  0  0  0  0  0
  -24.6430   -9.5620   21.8890 C   0  0  0  0  0  3  0  0  0  0  0  0
  -23.9360   -8.3580   22.0900 C   0  0  0  0  0  3  0  0  0  0  0  0
  -22.7370   -8.1110   21.3780 C   0  0  0  0  0  0  0  0  0  0  0  0
  -22.2810   -9.0660   20.4530 C   0  0  0  0  0  3  0  0  0  0  0  0
  -22.9900  -10.2630   20.2500 C   0  0  0  0  0  3  0  0  0  0  0  0
  -21.9970   -6.9600   21.4910 O   0  0  0  0  0  0  0  0  0  0  0  0
  -21.9470   -6.2480   22.6630 C   0  0  0  0  0  0  0  0  0  0  0  0
  -21.5010   -6.8300   23.8690 C   0  0  0  0  0  3  0  0  0  0  0  0
  -21.3990   -6.0430   25.0350 C   0  0  0  0  0  3  0  0  0  0  0  0
  -21.7320   -4.6760   24.9940 C   0  0  0  0  0  0  0  0  0  0  0  0
  -22.1700   -4.0930   23.7920 C   0  0  0  0  0  3  0  0  0  0  0  0
  -22.2740   -4.8770   22.6280 C   0  0  0  0  0  0  0  0  0  0  0  0
  -22.6750   -4.3060   21.4680 F   0  0  0  0  0  0  0  0  0  0  0  0
  -21.6270   -3.9190   26.1110 F   0  0  0  0  0  0  0  0  0  0  0  0
  -23.0560  -13.6130   21.2960 C   0  0  0  0  0  0  0  0  0  0  0  0
  -22.4140  -12.8960   22.2120 N   0  0  0  0  0  0  0  0  0  0  0  0
  -22.5690  -14.6460   20.8410 O   0  0  0  0  0  0  0  0  0  0  0  0
  -22.8220  -12.0600   22.6020 H   0  0  0  0  0  0  0  0  0  0  0  0
  -21.5020  -13.1900   22.5280 H   0  0  0  0  0  0  0  0  0  0  0  0
  -25.5940  -15.3110   20.2870 N   0  0  0  0  0  0  0  0  0  0  0  0
  -24.8290  -15.9520   20.4640 H   0  0  0  0  0  0  0  0  0  0  0  0
  -26.3880  -15.7550   19.8460 H   0  0  0  0  0  0  0  0  0  0  0  0
  -27.9860  -24.7310   19.8010 C   0  0  0  0  0  2  0  0  0  0  0  0
  -28.3210  -26.1960   20.1720 O   0  0  0  0  0  0  0  0  0  0  0  0
  -24.6750  -31.8600   23.1570 C   0  0  0  0  0  0  0  0  0  0  0  0
  -27.2730  -27.1910   20.0870 C   0  0  0  0  0  0  0  0  0  0  0  0
  -23.4730  -30.4630   21.5220 C   0  0  0  0  0  3  0  0  0  0  0  0
  -24.9260  -28.9130   20.0750 C   0  0  0  0  0  0  0  0  0  0  0  0
  -26.0230  -30.7510   21.3380 C   0  0  0  0  0  2  0  0  0  0  0  0
  -26.1040  -29.3640   20.6830 C   0  0  0  0  0  0  0  0  0  0  0  0
  -27.2770  -28.5180   20.6790 C   0  0  0  0  0  3  0  0  0  0  0  0
  -26.0690  -26.8570   19.4190 C   0  0  0  0  0  3  0  0  0  0  0  0
  -24.9220  -27.6720   19.4240 C   0  0  0  0  0  3  0  0  0  0  0  0
  -23.6880  -29.7930   20.1380 C   0  0  0  0  0  2  0  0  0  0  0  0
  -24.7430  -31.0450   22.0600 N   0  0  0  0  0  0  0  0  0  0  0  0
  -23.5930  -32.1320   23.6950 O   0  0  0  0  0  0  0  0  0  0  0  0
  -22.8130  -29.4440   22.4850 C   0  0  0  0  0  0  0  0  0  0  0  0
  -21.4850  -29.2640   22.3720 N   0  0  0  0  0  0  0  0  0  0  0  0
  -23.4980  -28.8190   23.3000 O   0  0  0  0  0  0  0  0  0  0  0  0
  -20.9890  -29.8200   21.6890 H   0  0  0  0  0  0  0  0  0  0  0  0
  -18.1110  -28.0630   22.9270 C   0  0  0  0  0  0  0  0  0  0  0  0
  -20.6760  -28.3200   23.1490 C   0  0  0  0  0  3  0  0  0  0  0  0
  -20.7630  -26.8940   22.5580 C   0  0  0  0  0  2  0  0  0  0  0  0
  -19.6410  -26.5840   21.5610 C   0  0  0  0  0  2  0  0  0  0  0  0
  -18.2740  -26.7210   22.2330 C   0  0  0  0  0  2  0  0  0  0  0  0
  -19.2390  -28.8210   23.3430 C   0  0  0  0  0  0  0  0  0  0  0  0
  -19.0310  -30.0770   23.9520 C   0  0  0  0  0  3  0  0  0  0  0  0
  -17.7280  -30.5730   24.1540 C   0  0  0  0  0  3  0  0  0  0  0  0
  -16.6170  -29.8140   23.7510 C   0  0  0  0  0  3  0  0  0  0  0  0
  -16.8090  -28.5600   23.1430 C   0  0  0  0  0  3  0  0  0  0  0  0
  -25.9540  -32.5030   23.7740 C   0  0  0  0  0  3  0  0  0  0  0  0
  -26.4790  -31.7380   25.0510 C   0  0  1  0  0  0  0  0  0  0  0  0
  -25.3920  -31.4950   26.1230 C   0  0  0  0  0  1  0  0  0  0  0  0
  -27.0710  -30.3630   24.6630 C   0  0  0  0  0  1  0  0  0  0  0  0
  -27.6250  -32.5430   25.7090 C   0  0  0  0  0  1  0  0  0  0  0  0
  -25.6340  -33.9000   24.1090 N   0  0  0  0  0  0  0  0  0  0  0  0
  -25.9380  -34.9580   23.3480 C   0  0  0  0  0  0  0  0  0  0  0  0
  -26.5850  -34.8640   22.3010 O   0  0  0  0  0  0  0  0  0  0  0  0
  -25.0580  -34.0450   24.9260 H   0  0  0  0  0  0  0  0  0  0  0  0
  -24.1800  -36.7340   23.0440 C   0  0  0  0  0  1  0  0  0  0  0  0
  -25.4470  -36.3420   23.8190 C   0  0  0  0  0  3  0  0  0  0  0  0
  -27.5910  -37.2550   24.5970 C   0  0  0  0  0  1  0  0  0  0  0  0
  -26.4640  -37.4080   23.6810 N   0  0  0  0  0  0  0  0  0  0  0  0
  -26.0490  -38.3240   23.8340 H   0  0  0  0  0  0  0  0  0  0  0  0
  1  5  1  0
  2  6  2  0
  2  3  1  0
  3  1  2  0
  4  9  1  0
  4  5  2  0
  6  4  1  0
  9  7  1  1
  9  8  1  0
 10 19  1  0
 10  9  1  0
 11 19  1  0
 12 17  1  0
 13 14  1  0
 13 12  1  0
 15 14  1  0
 15 24  1  0
 15 16  1  0
 17 11  1  0
 17 16  1  0
 18 11  2  0
 19 20  1  0
 21 22  2  0
 22 41  1  0
 23 22  1  0
 23 26  1  0
 24 25  1  0
 24 21  1  0
 25 23  2  0
 26 27  1  0
 27 28  2  0
 29 32  1  0
 29 28  1  0
 30 29  2  0
 31 30  1  0
 31 26  2  0
 32 33  1  0
 33 34  1  0
 34 35  2  0
 36 35  1  0
 36 40  1  0
 37 36  2  0
 38 33  2  0
 38 37  1  0
 39 38  1  0
 41 42  1  0
 42 45  1  0
 42 44  1  0
 43 41  2  0
 46 21  1  0
 46 47  1  0
 48 46  1  0
 49  3  1  0
 49 50  1  0
 51 62  2  0
 52 50  1  0
 52 57  1  0
 53 61  1  0
 53 63  1  0
 54 60  1  0
 54 56  1  0
 55 61  1  0
 56 55  1  0
 57 56  2  0
 58 59  1  0
 58 52  2  0
 59 54  2  0
 60 53  1  0
 61 51  1  0
 63 65  2  0
 64 63  1  0
 66 64  1  0
 67 76  2  0
 67 72  1  0
 68 64  1  0
 68 72  1  0
 69 68  1  0
 70 71  1  0
 70 69  1  0
 71 67  1  0
 72 73  2  0
 73 74  1  0
 75 74  2  0
 76 75  1  0
 77 51  1  0
 77 82  1  0
 77 78  1  0
 78 81  1  1
 78 79  1  0
 80 78  1  0
 82 85  1  0
 83 87  1  0
 83 82  1  0
 84 83  2  0
 87 86  1  0
 89 87  1  0
 89 90  1  0
 89 88  1  0
M  ISO  4  11 100  19 100  49 101  50 101
M  END
>  <TORSDO>  (82) 
F 19

>  <SCORE>  (82) 
-12.808

>  <name>  (82) 
85

>  <ligand_id>  (82) 
85

>  <original_smiles>  (82) 
[H]c1nc(C(C([H])([H])[H])(C([H])([H])[H])C([H])([H])N([H])C(=O)N2C([H])([H])C([H])([H])C([H])([H])C([H])(n3nc(-c4c([H])c([H])c(Oc5c([H])c([H])c(F)c([H])c5F)c([H])c4[H])c(C(=O)N([H])[H])c3N([H])[H])C2([H])[H])nc([H])c1C([H])([H])Oc1c([H])c([H])c2c(c1[H])C([H])([H])N(C(=O)C([H])(N([H])C(=O)C([H])(N([H])C([H])([H])[H])C([H])([H])[H])C(C([H])([H])[H])(C([H])([H])[H])C([H])([H])[H])C([H])(C(=O)N([H])C1([H])c3c([H])c([H])c([H])c([H])c3C([H])([H])C([H])([H])C1([H])[H])C2([H])[H]

>  <smiles>  (82) 
[H]c1nc(C(C([H])([H])[H])(C([H])([H])[H])C([H])([H])N([H])C(=O)N2C([H])([H])C([H])([H])C([H])([H])C([H])(n3nc(-c4c([H])c([H])c(Oc5c([H])c([H])c(F)c([H])c5F)c([H])c4[H])c(C(=O)N([H])[H])c3N([H])[H])C2([H])[H])nc([H])c1C([H])([H])Oc1c([H])c([H])c2c(c1[H])C([H])([H])N(C(=O)C([H])(N([H])C(=O)C([H])(N([H])C([H])([H])[H])C([H])([H])[H])C(C([H])([H])[H])(C([H])([H])[H])C([H])([H])[H])C([H])(C(=O)N([H])C1([H])c3c([H])c([H])c([H])c([H])c3C([H])([H])C([H])([H])C1([H])[H])C2([H])[H]

$$$$
86:0:0
     RDKit          3D

 91 99  0  0  1  0  0  0  0  0999 V2000
  -28.5200  -20.5060   20.0940 C   0  0  0  0  0  3  0  0  0  0  0  0
  -29.2160  -21.6890   20.0780 C   0  0  0  0  0  0  0  0  0  0  0  0
  -30.5700  -21.3540   19.9740 N   0  0  0  0  0  0  0  0  0  0  0  0
  -30.7090  -20.0540   19.9130 N   0  0  0  0  0  0  0  0  0  0  0  0
  -29.4730  -19.4900   19.9870 N   0  0  0  0  0  0  0  0  0  0  0  0
  -28.0540  -17.6050   20.6980 C   0  0  0  0  0  1  0  0  0  0  0  0
  -28.8650  -17.8020   18.3270 C   0  0  0  0  0  1  0  0  0  0  0  0
  -29.2440  -18.0240   19.8050 C   0  0  1  0  0  0  0  0  0  0  0  0
  -30.4770  -17.1000   20.1490 C   0  0  0  0  0  2  0  0  0  0  0  0
  -30.8350  -14.5820   19.9350 C   0  0  0  0  0  0  0  0  0  0  0  0
  -30.4770  -12.3480   18.9430 C   0  0  0  0  0  2  0  0  0  0  0  0
  -29.4800  -12.4910   17.7740 C   0  0  0  0  0  2  0  0  0  0  0  0
  -28.0270  -12.3900   18.2790 C   0  0  0  0  0  2  0  0  0  0  0  0
  -27.7560  -13.2970   19.5090 C   0  0  0  0  0  3  0  0  0  0  0  0
  -28.8650  -13.1380   20.5760 C   0  0  0  0  0  2  0  0  0  0  0  0
  -30.1580  -13.3970   19.9260 N   0  0  0  0  0  0  0  0  0  0  0  0
  -31.9590  -14.7070   19.4440 O   0  0  0  0  0  0  0  0  0  0  0  0
  -30.1260  -15.6640   20.3320 N   0  0  0  0  0  0  0  0  0  0  0  0
  -29.2100  -15.4730   20.7100 H   0  0  0  0  0  0  0  0  0  0  0  0
  -25.4390  -13.9900   20.3840 C   0  0  0  0  0  0  0  0  0  0  0  0
  -24.3610  -13.2560   20.8010 C   0  0  0  0  0  0  0  0  0  0  0  0
  -24.7580  -11.8860   20.7090 C   0  0  0  0  0  0  0  0  0  0  0  0
  -26.4260  -13.0690   20.0670 N   0  0  0  0  0  0  0  0  0  0  0  0
  -26.0230  -11.7980   20.3200 N   0  0  0  0  0  0  0  0  0  0  0  0
  -23.9860  -10.6530   20.9130 C   0  0  0  0  0  0  0  0  0  0  0  0
  -24.4000   -9.6680   21.8370 C   0  0  0  0  0  3  0  0  0  0  0  0
  -23.6320   -8.4990   22.0290 C   0  0  0  0  0  3  0  0  0  0  0  0
  -22.4360   -8.3070   21.2960 C   0  0  0  0  0  0  0  0  0  0  0  0
  -22.0420   -9.2810   20.3610 C   0  0  0  0  0  3  0  0  0  0  0  0
  -22.8090  -10.4410   20.1680 C   0  0  0  0  0  3  0  0  0  0  0  0
  -21.6410   -7.1920   21.3980 O   0  0  0  0  0  0  0  0  0  0  0  0
  -21.5540   -6.4740   22.5630 C   0  0  0  0  0  0  0  0  0  0  0  0
  -21.0890   -7.0540   23.7640 C   0  0  0  0  0  3  0  0  0  0  0  0
  -20.9500   -6.2610   24.9210 C   0  0  0  0  0  3  0  0  0  0  0  0
  -21.2650   -4.8890   24.8780 C   0  0  0  0  0  0  0  0  0  0  0  0
  -21.7230   -4.3100   23.6820 C   0  0  0  0  0  3  0  0  0  0  0  0
  -21.8640   -5.0990   22.5270 C   0  0  0  0  0  0  0  0  0  0  0  0
  -22.2850   -4.5300   21.3720 F   0  0  0  0  0  0  0  0  0  0  0  0
  -21.1250   -4.1270   25.9870 F   0  0  0  0  0  0  0  0  0  0  0  0
  -23.0060  -13.7880   21.1700 C   0  0  0  0  0  0  0  0  0  0  0  0
  -22.3010  -13.1050   22.0650 N   0  0  0  0  0  0  0  0  0  0  0  0
  -22.5840  -14.8440   20.7000 O   0  0  0  0  0  0  0  0  0  0  0  0
  -22.6560  -12.2510   22.4680 H   0  0  0  0  0  0  0  0  0  0  0  0
  -21.3940  -13.4440   22.3540 H   0  0  0  0  0  0  0  0  0  0  0  0
  -25.6520  -15.3560   20.2270 N   0  0  0  0  0  0  0  0  0  0  0  0
  -24.9150  -16.0330   20.3940 H   0  0  0  0  0  0  0  0  0  0  0  0
  -26.4860  -15.7690   19.8340 H   0  0  0  0  0  0  0  0  0  0  0  0
  -28.6830  -23.1260   20.0160 C   0  0  0  0  0  2  0  0  0  0  0  0
  -29.1140  -24.0960   21.1580 C   0  0  0  0  0  2  0  0  0  0  0  0
  -28.2100  -25.3530   21.4020 C   0  0  0  0  0  2  0  0  0  0  0  0
  -28.4540  -26.5630   20.6360 O   0  0  0  0  0  0  0  0  0  0  0  0
  -24.5430  -31.9230   23.3290 C   0  0  0  0  0  0  0  0  0  0  0  0
  -27.3300  -27.3670   20.5260 C   0  0  0  0  0  0  0  0  0  0  0  0
  -23.4150  -30.4530   21.6920 C   0  0  0  0  0  3  0  0  0  0  0  0
  -24.9370  -28.8810   20.3750 C   0  0  0  0  0  0  0  0  0  0  0  0
  -25.9470  -30.8200   21.5840 C   0  0  0  0  0  2  0  0  0  0  0  0
  -26.0700  -29.4270   20.9940 C   0  0  0  0  0  0  0  0  0  0  0  0
  -27.2740  -28.6780   21.0630 C   0  0  0  0  0  3  0  0  0  0  0  0
  -26.1850  -26.8510   19.8850 C   0  0  0  0  0  3  0  0  0  0  0  0
  -24.9920  -27.5940   19.8150 C   0  0  0  0  0  3  0  0  0  0  0  0
  -23.6860  -29.7310   20.3450 C   0  0  0  0  0  2  0  0  0  0  0  0
  -24.6510  -31.0830   22.2600 N   0  0  0  0  0  0  0  0  0  0  0  0
  -23.4390  -32.2040   23.8160 O   0  0  0  0  0  0  0  0  0  0  0  0
  -22.7310  -29.4610   22.6610 C   0  0  0  0  0  0  0  0  0  0  0  0
  -21.4140  -29.2630   22.4890 N   0  0  0  0  0  0  0  0  0  0  0  0
  -23.3850  -28.8720   23.5260 O   0  0  0  0  0  0  0  0  0  0  0  0
  -20.9470  -29.7910   21.7650 H   0  0  0  0  0  0  0  0  0  0  0  0
  -18.0250  -28.0840   22.9230 C   0  0  0  0  0  0  0  0  0  0  0  0
  -20.5740  -28.3460   23.2590 C   0  0  0  0  0  3  0  0  0  0  0  0
  -20.6910  -26.9010   22.7220 C   0  0  0  0  0  2  0  0  0  0  0  0
  -19.6160  -26.5540   21.6850 C   0  0  0  0  0  2  0  0  0  0  0  0
  -18.2170  -26.7170   22.2870 C   0  0  0  0  0  2  0  0  0  0  0  0
  -19.1320  -28.8540   23.3660 C   0  0  0  0  0  0  0  0  0  0  0  0
  -18.9000  -30.1320   23.9180 C   0  0  0  0  0  3  0  0  0  0  0  0
  -17.5920  -30.6400   24.0350 C   0  0  0  0  0  3  0  0  0  0  0  0
  -16.4980  -29.8660   23.6090 C   0  0  0  0  0  3  0  0  0  0  0  0
  -16.7150  -28.5900   23.0590 C   0  0  0  0  0  3  0  0  0  0  0  0
  -25.7970  -32.5880   23.9760 C   0  0  0  0  0  3  0  0  0  0  0  0
  -25.4620  -33.9920   24.2510 N   0  0  0  0  0  0  0  0  0  0  0  0
  -25.8010  -35.0220   23.4630 C   0  0  0  0  0  0  0  0  0  0  0  0
  -26.4970  -34.8920   22.4540 O   0  0  0  0  0  0  0  0  0  0  0  0
  -24.8460  -34.1650   25.0310 H   0  0  0  0  0  0  0  0  0  0  0  0
  -24.0550  -36.7740   23.0110 C   0  0  0  0  0  1  0  0  0  0  0  0
  -25.2840  -36.4180   23.8610 C   0  0  0  0  0  3  0  0  0  0  0  0
  -27.3820  -37.3710   24.7100 C   0  0  0  0  0  1  0  0  0  0  0  0
  -26.3030  -37.4820   23.7310 N   0  0  0  0  0  0  0  0  0  0  0  0
  -25.8800  -38.4010   23.8270 H   0  0  0  0  0  0  0  0  0  0  0  0
  -26.2770  -31.8610   25.2920 C   0  0  1  0  0  0  0  0  0  0  0  0
  -25.1440  -31.6160   26.3160 C   0  0  0  0  0  1  0  0  0  0  0  0
  -26.9160  -30.4930   24.9580 C   0  0  0  0  0  1  0  0  0  0  0  0
  -27.3740  -32.7030   25.9860 C   0  0  0  0  0  1  0  0  0  0  0  0
  2  1  2  0
  3  2  1  0
  4  3  2  0
  4  5  1  0
  5  1  1  0
  8  7  1  6
  8  5  1  0
  8  9  1  0
  8  6  1  0
  9 18  1  0
 10 18  1  0
 11 16  1  0
 12 13  1  0
 12 11  1  0
 14 13  1  0
 14 23  1  0
 14 15  1  0
 16 10  1  0
 16 15  1  0
 17 10  2  0
 18 19  1  0
 20 21  2  0
 21 40  1  0
 22 21  1  0
 22 25  1  0
 23 24  1  0
 23 20  1  0
 24 22  2  0
 25 26  1  0
 26 27  2  0
 28 31  1  0
 28 27  1  0
 29 28  2  0
 30 29  1  0
 30 25  2  0
 31 32  1  0
 32 33  1  0
 33 34  2  0
 35 34  1  0
 35 39  1  0
 36 35  2  0
 37 32  2  0
 37 36  1  0
 38 37  1  0
 40 41  1  0
 41 44  1  0
 41 43  1  0
 42 40  2  0
 45 20  1  0
 45 46  1  0
 47 45  1  0
 48  2  1  0
 48 49  1  0
 49 50  1  0
 51 50  1  0
 52 63  2  0
 53 51  1  0
 53 58  1  0
 54 62  1  0
 54 64  1  0
 55 57  1  0
 56 62  1  0
 57 58  2  0
 57 56  1  0
 59 53  2  0
 60 59  1  0
 60 55  2  0
 61 55  1  0
 61 54  1  0
 62 52  1  0
 64 66  2  0
 65 64  1  0
 67 65  1  0
 68 77  2  0
 68 73  1  0
 69 65  1  0
 69 73  1  0
 70 69  1  0
 71 72  1  0
 71 70  1  0
 72 68  1  0
 73 74  2  0
 74 75  1  0
 76 75  2  0
 77 76  1  0
 78 52  1  0
 78 79  1  0
 78 88  1  0
 79 82  1  0
 80 84  1  0
 80 79  1  0
 81 80  2  0
 84 83  1  0
 86 87  1  0
 86 84  1  0
 86 85  1  0
 88 91  1  1
 88 89  1  0
 90 88  1  0
M  ISO  4  10 100  18 100  50 101  51 101
M  END
>  <TORSDO>  (83) 
F 21

>  <SCORE>  (83) 
-13.149

>  <name>  (83) 
86

>  <ligand_id>  (83) 
86

>  <original_smiles>  (83) 
[H]c1c([H])c([H])c2c(c1[H])C([H])([H])C([H])([H])C([H])([H])C2([H])N([H])C(=O)C1([H])N(C(=O)C([H])(N([H])C(=O)C([H])(N([H])C([H])([H])[H])C([H])([H])[H])C(C([H])([H])[H])(C([H])([H])[H])C([H])([H])[H])C([H])([H])c2c([H])c(OC([H])([H])C([H])([H])C([H])([H])c3nnn(C(C([H])([H])[H])(C([H])([H])[H])C([H])([H])N([H])C(=O)N4C([H])([H])C([H])([H])C([H])([H])C([H])(n5nc(-c6c([H])c([H])c(Oc7c([H])c([H])c(F)c([H])c7F)c([H])c6[H])c(C(=O)N([H])[H])c5N([H])[H])C4([H])[H])c3[H])c([H])c([H])c2C1([H])[H]

>  <smiles>  (83) 
[H]c1c([H])c([H])c2c(c1[H])C([H])([H])C([H])([H])C([H])([H])C2([H])N([H])C(=O)C1([H])N(C(=O)C([H])(N([H])C(=O)C([H])(N([H])C([H])([H])[H])C([H])([H])[H])C(C([H])([H])[H])(C([H])([H])[H])C([H])([H])[H])C([H])([H])c2c([H])c(OC([H])([H])C([H])([H])C([H])([H])c3nnn(C(C([H])([H])[H])(C([H])([H])[H])C([H])([H])N([H])C(=O)N4C([H])([H])C([H])([H])C([H])([H])C([H])(n5nc(-c6c([H])c([H])c(Oc7c([H])c([H])c(F)c([H])c7F)c([H])c6[H])c(C(=O)N([H])[H])c5N([H])[H])C4([H])[H])c3[H])c([H])c([H])c2C1([H])[H]

$$$$
87:0:0
     RDKit          3D

 97105  0  0  1  0  0  0  0  0999 V2000
  -29.8140  -23.9390   19.9460 C   0  0  0  0  0  3  0  0  0  0  0  0
  -29.7390  -22.5480   20.0920 C   0  0  0  0  0  0  0  0  0  0  0  0
  -28.8070  -24.5650   19.2000 C   0  0  0  0  0  0  0  0  0  0  0  0
  -27.7910  -22.5260   18.8670 C   0  0  0  0  0  0  0  0  0  0  0  0
  -28.7310  -21.8480   19.5360 N   0  0  0  0  0  0  0  0  0  0  0  0
  -27.8040  -23.8470   18.6630 N   0  0  0  0  0  0  0  0  0  0  0  0
  -26.6510  -21.7070   18.2350 C   0  0  1  0  0  0  0  0  0  0  0  0
  -26.3130  -20.6880   19.0320 F   0  0  0  0  0  0  0  0  0  0  0  0
  -25.5590  -22.4510   18.0320 F   0  0  0  0  0  0  0  0  0  0  0  0
  -27.0480  -21.2070   17.0610 F   0  0  0  0  0  0  0  0  0  0  0  0
  -30.7940  -21.7600   20.8590 C   0  0  0  0  0  2  0  0  0  0  0  0
  -29.6940  -20.5690   22.7190 C   0  0  0  0  0  1  0  0  0  0  0  0
  -30.2360  -20.4710   21.3410 N   0  0  2  0  0  4  0  0  0  0  0  0
  -29.4390  -20.3810   20.7180 H   0  0  0  0  0  0  0  0  0  0  0  0
  -31.1570  -19.3160   21.1510 C   0  0  0  0  0  2  0  0  0  0  0  0
  -30.4460  -17.9410   21.1080 C   0  0  0  0  0  2  0  0  0  0  0  0
  -31.4520  -16.7730   21.1760 C   0  0  0  0  0  2  0  0  0  0  0  0
  -31.2860  -14.5370   20.0750 C   0  0  0  0  0  0  0  0  0  0  0  0
  -30.8570  -12.3670   18.9860 C   0  0  0  0  0  2  0  0  0  0  0  0
  -29.8930  -12.5360   17.7970 C   0  0  0  0  0  2  0  0  0  0  0  0
  -28.4300  -12.4560   18.2700 C   0  0  0  0  0  2  0  0  0  0  0  0
  -28.1440  -13.3800   19.4860 C   0  0  0  0  0  3  0  0  0  0  0  0
  -29.2150  -13.1840   20.5830 C   0  0  0  0  0  2  0  0  0  0  0  0
  -30.5430  -13.4050   19.9800 N   0  0  0  0  0  0  0  0  0  0  0  0
  -32.3200  -14.7170   19.4250 O   0  0  0  0  0  0  0  0  0  0  0  0
  -30.8260  -15.4700   20.9220 N   0  0  0  0  0  0  0  0  0  0  0  0
  -29.9880  -15.2380   21.4350 H   0  0  0  0  0  0  0  0  0  0  0  0
  -25.8050  -14.1070   20.2860 C   0  0  0  0  0  0  0  0  0  0  0  0
  -24.7100  -13.3890   20.6840 C   0  0  0  0  0  0  0  0  0  0  0  0
  -25.0930  -12.0160   20.6180 C   0  0  0  0  0  0  0  0  0  0  0  0
  -26.7920  -13.1730   20.0070 N   0  0  0  0  0  0  0  0  0  0  0  0
  -26.3670  -11.9090   20.2600 N   0  0  0  0  0  0  0  0  0  0  0  0
  -24.3040  -10.7920   20.8170 C   0  0  0  0  0  0  0  0  0  0  0  0
  -24.6810   -9.8230   21.7740 C   0  0  0  0  0  3  0  0  0  0  0  0
  -23.9000   -8.6630   21.9630 C   0  0  0  0  0  3  0  0  0  0  0  0
  -22.7300   -8.4630   21.1940 C   0  0  0  0  0  0  0  0  0  0  0  0
  -22.3710   -9.4190   20.2300 C   0  0  0  0  0  3  0  0  0  0  0  0
  -23.1500  -10.5720   20.0390 C   0  0  0  0  0  3  0  0  0  0  0  0
  -21.9230   -7.3530   21.2900 O   0  0  0  0  0  0  0  0  0  0  0  0
  -21.7800   -6.6680   22.4690 C   0  0  0  0  0  0  0  0  0  0  0  0
  -21.2880   -7.2890   23.6380 C   0  0  0  0  0  3  0  0  0  0  0  0
  -21.0900   -6.5300   24.8080 C   0  0  0  0  0  3  0  0  0  0  0  0
  -21.3730   -5.1520   24.8120 C   0  0  0  0  0  0  0  0  0  0  0  0
  -21.8590   -4.5300   23.6470 C   0  0  0  0  0  3  0  0  0  0  0  0
  -22.0580   -5.2860   22.4800 C   0  0  0  0  0  0  0  0  0  0  0  0
  -22.5060   -4.6790   21.3540 F   0  0  0  0  0  0  0  0  0  0  0  0
  -21.1760   -4.4200   25.9330 F   0  0  0  0  0  0  0  0  0  0  0  0
  -23.3510  -13.9400   21.0140 C   0  0  0  0  0  0  0  0  0  0  0  0
  -22.6210  -13.2780   21.9060 N   0  0  0  0  0  0  0  0  0  0  0  0
  -22.9490  -14.9910   20.5160 O   0  0  0  0  0  0  0  0  0  0  0  0
  -22.9580  -12.4290   22.3360 H   0  0  0  0  0  0  0  0  0  0  0  0
  -21.7080  -13.6240   22.1640 H   0  0  0  0  0  0  0  0  0  0  0  0
  -26.0360  -15.4690   20.1260 N   0  0  0  0  0  0  0  0  0  0  0  0
  -25.3050  -16.1560   20.2800 H   0  0  0  0  0  0  0  0  0  0  0  0
  -26.8980  -15.8750   19.7870 H   0  0  0  0  0  0  0  0  0  0  0  0
  -28.8370  -26.0690   18.9340 C   0  0  0  0  0  2  0  0  0  0  0  0
  -28.5210  -26.8720   20.0780 O   0  0  0  0  0  0  0  0  0  0  0  0
  -24.6630  -31.8640   23.3630 C   0  0  0  0  0  0  0  0  0  0  0  0
  -27.3170  -27.5450   20.1150 C   0  0  0  0  0  0  0  0  0  0  0  0
  -23.4640  -30.5310   21.6610 C   0  0  0  0  0  3  0  0  0  0  0  0
  -24.9180  -29.0430   20.1930 C   0  0  0  0  0  0  0  0  0  0  0  0
  -25.9910  -30.8860   21.4970 C   0  0  0  0  0  2  0  0  0  0  0  0
  -26.0720  -29.5390   20.8080 C   0  0  0  0  0  0  0  0  0  0  0  0
  -27.2710  -28.7930   20.7750 C   0  0  0  0  0  3  0  0  0  0  0  0
  -26.1350  -27.0520   19.5120 C   0  0  0  0  0  3  0  0  0  0  0  0
  -24.9430  -27.7950   19.5490 C   0  0  0  0  0  3  0  0  0  0  0  0
  -23.6790  -29.9060   20.2590 C   0  0  0  0  0  2  0  0  0  0  0  0
  -24.7240  -31.1070   22.2330 N   0  0  0  0  0  0  0  0  0  0  0  0
  -23.5790  -32.1190   23.9070 O   0  0  0  0  0  0  0  0  0  0  0  0
  -22.8040  -29.4740   22.5770 C   0  0  0  0  0  0  0  0  0  0  0  0
  -21.4800  -29.3040   22.4360 N   0  0  0  0  0  0  0  0  0  0  0  0
  -23.4810  -28.8120   23.3690 O   0  0  0  0  0  0  0  0  0  0  0  0
  -20.9970  -29.8920   21.7710 H   0  0  0  0  0  0  0  0  0  0  0  0
  -18.0970  -28.1120   22.8670 C   0  0  0  0  0  0  0  0  0  0  0  0
  -20.6530  -28.3420   23.1650 C   0  0  0  0  0  3  0  0  0  0  0  0
  -20.7490  -26.9350   22.5320 C   0  0  0  0  0  2  0  0  0  0  0  0
  -19.6520  -26.6590   21.4990 C   0  0  0  0  0  2  0  0  0  0  0  0
  -18.2680  -26.7880   22.1410 C   0  0  0  0  0  2  0  0  0  0  0  0
  -19.2160  -28.8490   23.3340 C   0  0  0  0  0  0  0  0  0  0  0  0
  -19.0020  -30.0900   23.9720 C   0  0  0  0  0  3  0  0  0  0  0  0
  -17.6990  -30.5950   24.1470 C   0  0  0  0  0  3  0  0  0  0  0  0
  -16.5930  -29.8550   23.6950 C   0  0  0  0  0  3  0  0  0  0  0  0
  -16.7920  -28.6140   23.0620 C   0  0  0  0  0  3  0  0  0  0  0  0
  -25.9470  -32.4660   24.0150 C   0  0  0  0  0  3  0  0  0  0  0  0
  -26.4040  -31.6960   25.3140 C   0  0  1  0  0  0  0  0  0  0  0  0
  -25.2730  -31.4920   26.3470 C   0  0  0  0  0  1  0  0  0  0  0  0
  -26.9700  -30.3030   24.9500 C   0  0  0  0  0  1  0  0  0  0  0  0
  -27.5490  -32.4730   26.0060 C   0  0  0  0  0  1  0  0  0  0  0  0
  -25.6690  -33.8760   24.3180 N   0  0  0  0  0  0  0  0  0  0  0  0
  -26.0580  -34.9080   23.5570 C   0  0  0  0  0  0  0  0  0  0  0  0
  -26.7590  -34.7720   22.5510 O   0  0  0  0  0  0  0  0  0  0  0  0
  -25.0510  -34.0560   25.0960 H   0  0  0  0  0  0  0  0  0  0  0  0
  -24.3900  -36.7400   23.1230 C   0  0  0  0  0  1  0  0  0  0  0  0
  -25.5940  -36.3150   23.9810 C   0  0  0  0  0  3  0  0  0  0  0  0
  -27.7240  -37.1530   24.8680 C   0  0  0  0  0  1  0  0  0  0  0  0
  -26.6570  -37.3380   23.8880 N   0  0  0  0  0  0  0  0  0  0  0  0
  -26.2730  -38.2710   24.0090 H   0  0  0  0  0  0  0  0  0  0  0  0
  1  2  2  0
  2 11  1  0
  3  1  1  0
  4  5  2  0
  5  2  1  0
  6  4  1  0
  6  3  2  0
  7  4  1  0
  7  8  1  1
  9  7  1  0
 10  7  1  0
 11 13  1  0
 13 12  1  0
 13 14  1  6
 15 13  1  0
 16 15  1  0
 16 17  1  0
 18 26  1  0
 19 24  1  0
 20 21  1  0
 20 19  1  0
 22 21  1  0
 22 31  1  0
 22 23  1  0
 24 18  1  0
 24 23  1  0
 25 18  2  0
 26 17  1  0
 26 27  1  0
 28 29  2  0
 29 48  1  0
 30 29  1  0
 30 33  1  0
 31 32  1  0
 31 28  1  0
 32 30  2  0
 33 34  1  0
 34 35  2  0
 36 39  1  0
 36 35  1  0
 37 36  2  0
 38 37  1  0
 38 33  2  0
 39 40  1  0
 40 45  2  0
 40 41  1  0
 41 42  2  0
 42 43  1  0
 43 47  1  0
 44 43  2  0
 45 44  1  0
 46 45  1  0
 48 49  1  0
 49 52  1  0
 49 51  1  0
 50 48  2  0
 53 54  1  0
 53 28  1  0
 55 53  1  0
 56  3  1  0
 56 57  1  0
 57 59  1  0
 58 69  2  0
 59 64  1  0
 60 68  1  0
 60 70  1  0
 61 67  1  0
 61 63  1  0
 62 68  1  0
 63 62  1  0
 64 63  2  0
 65 66  1  0
 65 59  2  0
 66 61  2  0
 67 60  1  0
 68 58  1  0
 70 72  2  0
 71 70  1  0
 73 71  1  0
 74 83  2  0
 74 79  1  0
 75 71  1  0
 75 79  1  0
 76 75  1  0
 77 78  1  0
 77 76  1  0
 78 74  1  0
 79 80  2  0
 80 81  1  0
 82 81  2  0
 83 82  1  0
 84 58  1  0
 84 89  1  0
 84 85  1  0
 85 88  1  1
 85 86  1  0
 87 85  1  0
 89 92  1  0
 90 94  1  0
 90 89  1  0
 91 90  2  0
 94 93  1  0
 96 94  1  0
 96 97  1  0
 96 95  1  0
M  ISO  4  18 100  26 100  56 101  57 101
M  END
>  <TORSDO>  (84) 
F 23

>  <SCORE>  (84) 
-12.005

>  <name>  (84) 
87

>  <ligand_id>  (84) 
87

>  <original_smiles>  (84) 
[H]c1c(C([H])([H])Oc2c([H])c([H])c3c(c2[H])C([H])([H])N(C(=O)C([H])(N([H])C(=O)C([H])(N([H])C([H])([H])[H])C([H])([H])[H])C(C([H])([H])[H])(C([H])([H])[H])C([H])([H])[H])C([H])(C(=O)N([H])C2([H])c4c([H])c([H])c([H])c([H])c4C([H])([H])C([H])([H])C2([H])[H])C3([H])[H])nc(C(F)(F)F)nc1C([H])([H])[N+]([H])(C([H])([H])[H])C([H])([H])C([H])([H])C([H])([H])N([H])C(=O)N1C([H])([H])C([H])([H])C([H])([H])C([H])(n2nc(-c3c([H])c([H])c(Oc4c([H])c([H])c(F)c([H])c4F)c([H])c3[H])c(C(=O)N([H])[H])c2N([H])[H])C1([H])[H]

>  <smiles>  (84) 
[H]c1c(C([H])([H])Oc2c([H])c([H])c3c(c2[H])C([H])([H])N(C(=O)C([H])(N([H])C(=O)C([H])(N([H])C([H])([H])[H])C([H])([H])[H])C(C([H])([H])[H])(C([H])([H])[H])C([H])([H])[H])C([H])(C(=O)N([H])C2([H])c4c([H])c([H])c([H])c([H])c4C([H])([H])C([H])([H])C2([H])[H])C3([H])[H])nc(C(F)(F)F)nc1C([H])([H])[N+]([H])(C([H])([H])[H])C([H])([H])C([H])([H])C([H])([H])N([H])C(=O)N1C([H])([H])C([H])([H])C([H])([H])C([H])(n2nc(-c3c([H])c([H])c(Oc4c([H])c([H])c(F)c([H])c4F)c([H])c3[H])c(C(=O)N([H])[H])c2N([H])[H])C1([H])[H]

$$$$
88:0:0
     RDKit          3D

 89 97  0  0  1  0  0  0  0  0999 V2000
  -28.1880  -21.1040   20.9320 C   0  0  0  0  0  2  0  0  0  0  0  0
  -29.6000  -19.5780   20.7360 C   0  0  0  0  0  0  0  0  0  0  0  0
  -28.3730  -19.8320   21.2900 N   0  0  0  0  0  0  0  0  0  0  0  0
  -30.1240  -20.6210   20.0640 N   0  0  0  0  0  2  0  0  0  0  0  0
  -29.1930  -21.6250   20.2230 N   0  0  0  0  0  0  0  0  0  0  0  0
  -30.2980  -18.2250   20.9430 C   0  0  0  0  0  2  0  0  0  0  0  0
  -29.9790  -17.0800   19.9240 C   0  0  0  0  0  2  0  0  0  0  0  0
  -30.8490  -14.6670   19.9970 C   0  0  0  0  0  0  0  0  0  0  0  0
  -30.5840  -12.4580   18.9190 C   0  0  0  0  0  2  0  0  0  0  0  0
  -29.5650  -12.6160   17.7660 C   0  0  0  0  0  2  0  0  0  0  0  0
  -28.1200  -12.4580   18.2810 C   0  0  0  0  0  2  0  0  0  0  0  0
  -27.8400  -13.2980   19.5560 C   0  0  0  0  0  3  0  0  0  0  0  0
  -28.9620  -13.1040   20.6010 C   0  0  0  0  0  2  0  0  0  0  0  0
  -30.2440  -13.4440   19.9600 N   0  0  0  0  0  0  0  0  0  0  0  0
  -31.9440  -14.8820   19.4700 O   0  0  0  0  0  0  0  0  0  0  0  0
  -30.0610  -15.6810   20.4380 N   0  0  0  0  0  0  0  0  0  0  0  0
  -29.2300  -15.3580   20.9120 H   0  0  0  0  0  0  0  0  0  0  0  0
  -25.4960  -13.8920   20.4380 C   0  0  0  0  0  0  0  0  0  0  0  0
  -24.4510  -13.1120   20.8530 C   0  0  0  0  0  0  0  0  0  0  0  0
  -24.9000  -11.7600   20.7490 C   0  0  0  0  0  0  0  0  0  0  0  0
  -26.5200  -13.0140   20.1120 N   0  0  0  0  0  0  0  0  0  0  0  0
  -26.1680  -11.7250   20.3550 N   0  0  0  0  0  0  0  0  0  0  0  0
  -24.1800  -10.4970   20.9490 C   0  0  0  0  0  0  0  0  0  0  0  0
  -24.6120   -9.5430   21.8970 C   0  0  0  0  0  3  0  0  0  0  0  0
  -23.8940   -8.3430   22.0820 C   0  0  0  0  0  3  0  0  0  0  0  0
  -22.7280   -8.0880   21.3210 C   0  0  0  0  0  0  0  0  0  0  0  0
  -22.3140   -9.0310   20.3640 C   0  0  0  0  0  3  0  0  0  0  0  0
  -23.0330  -10.2230   20.1760 C   0  0  0  0  0  3  0  0  0  0  0  0
  -21.9810   -6.9390   21.4150 O   0  0  0  0  0  0  0  0  0  0  0  0
  -21.8600   -6.2540   22.5980 C   0  0  0  0  0  0  0  0  0  0  0  0
  -21.2990   -6.8460   23.7500 C   0  0  0  0  0  3  0  0  0  0  0  0
  -21.1300   -6.0830   24.9230 C   0  0  0  0  0  3  0  0  0  0  0  0
  -21.5140   -4.7290   24.9450 C   0  0  0  0  0  0  0  0  0  0  0  0
  -22.0690   -4.1370   23.7970 C   0  0  0  0  0  3  0  0  0  0  0  0
  -22.2400   -4.8970   22.6260 C   0  0  0  0  0  0  0  0  0  0  0  0
  -22.7550   -4.3140   21.5180 F   0  0  0  0  0  0  0  0  0  0  0  0
  -21.3450   -3.9950   26.0690 F   0  0  0  0  0  0  0  0  0  0  0  0
  -23.0770  -13.5870   21.2330 C   0  0  0  0  0  0  0  0  0  0  0  0
  -22.4060  -12.8710   22.1290 N   0  0  0  0  0  0  0  0  0  0  0  0
  -22.6120  -14.6290   20.7730 O   0  0  0  0  0  0  0  0  0  0  0  0
  -22.7950  -12.0280   22.5220 H   0  0  0  0  0  0  0  0  0  0  0  0
  -21.4880  -13.1740   22.4250 H   0  0  0  0  0  0  0  0  0  0  0  0
  -25.6560  -15.2670   20.2900 N   0  0  0  0  0  0  0  0  0  0  0  0
  -24.8970  -15.9150   20.4670 H   0  0  0  0  0  0  0  0  0  0  0  0
  -26.4760  -15.7170   19.9020 H   0  0  0  0  0  0  0  0  0  0  0  0
  -29.3170  -22.9390   19.5460 C   0  0  0  0  0  2  0  0  0  0  0  0
  -28.6420  -24.1870   20.2310 C   0  0  0  0  0  2  0  0  0  0  0  0
  -28.6790  -25.4970   19.3650 C   0  0  0  0  0  2  0  0  0  0  0  0
  -28.4930  -26.7610   20.0630 O   0  0  0  0  0  0  0  0  0  0  0  0
  -24.6710  -31.8870   23.2530 C   0  0  0  0  0  0  0  0  0  0  0  0
  -27.2980  -27.4750   20.0510 C   0  0  0  0  0  0  0  0  0  0  0  0
  -23.4500  -30.5060   21.6060 C   0  0  0  0  0  3  0  0  0  0  0  0
  -24.8900  -28.9970   20.1290 C   0  0  0  0  0  0  0  0  0  0  0  0
  -25.9730  -30.8720   21.3780 C   0  0  0  0  0  2  0  0  0  0  0  0
  -26.0550  -29.5090   20.7110 C   0  0  0  0  0  0  0  0  0  0  0  0
  -27.2570  -28.7570   20.6650 C   0  0  0  0  0  3  0  0  0  0  0  0
  -26.1040  -26.9830   19.4740 C   0  0  0  0  0  3  0  0  0  0  0  0
  -24.9120  -27.7360   19.5100 C   0  0  0  0  0  3  0  0  0  0  0  0
  -23.6430  -29.8510   20.2120 C   0  0  0  0  0  2  0  0  0  0  0  0
  -24.7180  -31.1050   22.1380 N   0  0  0  0  0  0  0  0  0  0  0  0
  -23.5970  -32.1430   23.8140 O   0  0  0  0  0  0  0  0  0  0  0  0
  -22.8190  -29.4660   22.5600 C   0  0  0  0  0  0  0  0  0  0  0  0
  -21.4960  -29.2590   22.4340 N   0  0  0  0  0  0  0  0  0  0  0  0
  -23.5150  -28.8480   23.3690 O   0  0  0  0  0  0  0  0  0  0  0  0
  -20.9930  -29.8130   21.7550 H   0  0  0  0  0  0  0  0  0  0  0  0
  -18.1510  -27.9840   22.9230 C   0  0  0  0  0  0  0  0  0  0  0  0
  -20.7020  -28.2970   23.1970 C   0  0  0  0  0  3  0  0  0  0  0  0
  -20.8350  -26.8720   22.6080 C   0  0  0  0  0  2  0  0  0  0  0  0
  -19.7410  -26.5340   21.5910 C   0  0  0  0  0  2  0  0  0  0  0  0
  -18.3560  -26.6440   22.2360 C   0  0  0  0  0  2  0  0  0  0  0  0
  -19.2520  -28.7670   23.3600 C   0  0  0  0  0  0  0  0  0  0  0  0
  -19.0050  -30.0200   23.9610 C   0  0  0  0  0  3  0  0  0  0  0  0
  -17.6890  -30.4910   24.1320 C   0  0  0  0  0  3  0  0  0  0  0  0
  -16.6030  -29.7050   23.7120 C   0  0  0  0  0  3  0  0  0  0  0  0
  -16.8340  -28.4540   23.1120 C   0  0  0  0  0  3  0  0  0  0  0  0
  -25.9620  -32.5170   23.8660 C   0  0  0  0  0  3  0  0  0  0  0  0
  -25.6520  -33.9100   24.2170 N   0  0  0  0  0  0  0  0  0  0  0  0
  -25.9700  -34.9730   23.4670 C   0  0  0  0  0  0  0  0  0  0  0  0
  -26.6260  -34.8860   22.4260 O   0  0  0  0  0  0  0  0  0  0  0  0
  -25.0740  -34.0530   25.0330 H   0  0  0  0  0  0  0  0  0  0  0  0
  -24.2370  -36.7680   23.1490 C   0  0  0  0  0  1  0  0  0  0  0  0
  -25.4820  -36.3540   23.9480 C   0  0  0  0  0  3  0  0  0  0  0  0
  -27.6130  -37.2360   24.7900 C   0  0  0  0  0  1  0  0  0  0  0  0
  -26.5120  -37.4100   23.8470 N   0  0  0  0  0  0  0  0  0  0  0  0
  -26.1040  -38.3280   24.0020 H   0  0  0  0  0  0  0  0  0  0  0  0
  -26.4990  -31.7330   25.1250 C   0  0  1  0  0  0  0  0  0  0  0  0
  -25.4200  -31.4720   26.2010 C   0  0  0  0  0  1  0  0  0  0  0  0
  -27.0880  -30.3660   24.7070 C   0  0  0  0  0  1  0  0  0  0  0  0
  -27.6510  -32.5270   25.7860 C   0  0  0  0  0  1  0  0  0  0  0  0
  1  3  1  0
  2  6  1  0
  2  3  2  0
  4  5  1  0
  4  2  1  0
  5  1  1  0
  7 16  1  0
  7  6  1  0
  8 16  1  0
  9 14  1  0
 10 11  1  0
 10  9  1  0
 12 11  1  0
 12 21  1  0
 12 13  1  0
 14  8  1  0
 14 13  1  0
 15  8  2  0
 16 17  1  0
 18 19  2  0
 19 38  1  0
 20 19  1  0
 20 23  1  0
 21 22  1  0
 21 18  1  0
 22 20  2  0
 23 24  1  0
 24 25  2  0
 26 29  1  0
 26 25  1  0
 27 26  2  0
 28 27  1  0
 28 23  2  0
 29 30  1  0
 30 35  2  0
 30 31  1  0
 31 32  2  0
 32 33  1  0
 33 37  1  0
 34 33  2  0
 35 34  1  0
 36 35  1  0
 38 39  1  0
 39 42  1  0
 39 41  1  0
 40 38  2  0
 43 18  1  0
 43 44  1  0
 45 43  1  0
 46  5  1  0
 46 47  1  0
 48 49  1  0
 48 47  1  0
 50 61  2  0
 51 49  1  0
 51 56  1  0
 52 60  1  0
 52 62  1  0
 53 59  1  0
 53 55  1  0
 54 60  1  0
 55 54  1  0
 56 55  2  0
 57 58  1  0
 57 51  2  0
 58 53  2  0
 59 52  1  0
 60 50  1  0
 62 64  2  0
 63 62  1  0
 65 63  1  0
 66 75  2  0
 66 71  1  0
 67 63  1  0
 67 71  1  0
 68 67  1  0
 69 70  1  0
 69 68  1  0
 70 66  1  0
 71 72  2  0
 72 73  1  0
 74 73  2  0
 75 74  1  0
 76 50  1  0
 76 77  1  0
 76 86  1  0
 77 80  1  0
 78 82  1  0
 78 77  1  0
 79 78  2  0
 82 81  1  0
 84 82  1  0
 84 85  1  0
 84 83  1  0
 86 89  1  1
 86 87  1  0
 88 86  1  0
M  ISO  4   8 100  16 100  48 101  49 101
M  END
>  <TORSDO>  (85) 
F 21

>  <SCORE>  (85) 
-12.566

>  <name>  (85) 
88

>  <ligand_id>  (85) 
88

>  <original_smiles>  (85) 
[H]c1c([H])c([H])c2c(c1[H])C([H])([H])C([H])([H])C([H])([H])C2([H])N([H])C(=O)C1([H])N(C(=O)C([H])(N([H])C(=O)C([H])(N([H])C([H])([H])[H])C([H])([H])[H])C(C([H])([H])[H])(C([H])([H])[H])C([H])([H])[H])C([H])([H])c2c([H])c(OC([H])([H])C([H])([H])C([H])([H])n3nc(C([H])([H])C([H])([H])N([H])C(=O)N4C([H])([H])C([H])([H])C([H])([H])C([H])(n5nc(-c6c([H])c([H])c(Oc7c([H])c([H])c(F)c([H])c7F)c([H])c6[H])c(C(=O)N([H])[H])c5N([H])[H])C4([H])[H])nc3[H])c([H])c([H])c2C1([H])[H]

>  <smiles>  (85) 
[H]c1c([H])c([H])c2c(c1[H])C([H])([H])C([H])([H])C([H])([H])C2([H])N([H])C(=O)C1([H])N(C(=O)C([H])(N([H])C(=O)C([H])(N([H])C([H])([H])[H])C([H])([H])[H])C(C([H])([H])[H])(C([H])([H])[H])C([H])([H])[H])C([H])([H])c2c([H])c(OC([H])([H])C([H])([H])C([H])([H])n3nc(C([H])([H])C([H])([H])N([H])C(=O)N4C([H])([H])C([H])([H])C([H])([H])C([H])(n5nc(-c6c([H])c([H])c(Oc7c([H])c([H])c(F)c([H])c7F)c([H])c6[H])c(C(=O)N([H])[H])c5N([H])[H])C4([H])[H])nc3[H])c([H])c([H])c2C1([H])[H]

$$$$
89:0:0
     RDKit          3D

 91 99  0  0  1  0  0  0  0  0999 V2000
  -29.2700  -20.1260   20.5360 C   0  0  0  0  0  0  0  0  0  0  0  0
  -29.1460  -21.1850   19.6180 C   0  0  0  0  0  0  0  0  0  0  0  0
  -29.2530  -22.0620   21.5910 C   0  0  0  0  0  0  0  0  0  0  0  0
  -29.0150  -21.0780   18.1260 C   0  0  0  0  0  1  0  0  0  0  0  0
  -29.3490  -23.0400   22.7110 C   0  0  0  0  0  1  0  0  0  0  0  0
  -29.3060  -20.7340   21.7900 N   0  0  0  0  0  0  0  0  0  0  0  0
  -29.1250  -22.4470   20.3000 N   0  0  0  0  0  0  0  0  0  0  0  0
  -29.1470  -18.5560   20.3510 C   0  0  0  0  0  3  0  0  0  0  0  0
  -30.1300  -17.4550   21.0260 C   0  0  0  0  0  3  0  0  0  0  0  0
  -30.7560  -14.9390   21.1300 C   0  0  0  0  0  0  0  0  0  0  0  0
  -30.7300  -12.5500   20.4390 C   0  0  0  0  0  2  0  0  0  0  0  0
  -29.9610  -12.4310   19.1080 C   0  0  0  0  0  2  0  0  0  0  0  0
  -28.4460  -12.2930   19.3630 C   0  0  0  0  0  2  0  0  0  0  0  0
  -27.9010  -13.2650   20.4490 C   0  0  0  0  0  3  0  0  0  0  0  0
  -28.8200  -13.3600   21.6780 C   0  0  0  0  0  2  0  0  0  0  0  0
  -30.1520  -13.7030   21.1590 N   0  0  0  0  0  0  0  0  0  0  0  0
  -31.9870  -15.0050   21.2310 O   0  0  0  0  0  0  0  0  0  0  0  0
  -30.0830  -16.0060   20.5060 N   0  0  0  0  0  0  0  0  0  0  0  0
  -25.4420  -13.8680   20.8410 C   0  0  0  0  0  0  0  0  0  0  0  0
  -24.3360  -13.0960   21.0850 C   0  0  0  0  0  0  0  0  0  0  0  0
  -24.8070  -11.7490   21.1470 C   0  0  0  0  0  0  0  0  0  0  0  0
  -26.5080  -12.9860   20.7710 N   0  0  0  0  0  0  0  0  0  0  0  0
  -26.1270  -11.7110   21.0180 N   0  0  0  0  0  0  0  0  0  0  0  0
  -24.0730  -10.4840   21.2720 C   0  0  0  0  0  0  0  0  0  0  0  0
  -24.4210   -9.5220   22.2460 C   0  0  0  0  0  3  0  0  0  0  0  0
  -23.6840   -8.3230   22.3580 C   0  0  0  0  0  3  0  0  0  0  0  0
  -22.5900   -8.0790   21.4960 C   0  0  0  0  0  0  0  0  0  0  0  0
  -22.2670   -9.0300   20.5130 C   0  0  0  0  0  3  0  0  0  0  0  0
  -23.0030  -10.2190   20.3980 C   0  0  0  0  0  3  0  0  0  0  0  0
  -21.8370   -6.9300   21.5190 O   0  0  0  0  0  0  0  0  0  0  0  0
  -21.7030   -6.1780   22.6590 C   0  0  0  0  0  0  0  0  0  0  0  0
  -21.1800   -6.7190   23.8540 C   0  0  0  0  0  3  0  0  0  0  0  0
  -21.0000   -5.8940   24.9820 C   0  0  0  0  0  3  0  0  0  0  0  0
  -21.3300   -4.5280   24.9130 C   0  0  0  0  0  0  0  0  0  0  0  0
  -21.8480   -3.9850   23.7230 C   0  0  0  0  0  3  0  0  0  0  0  0
  -22.0310   -4.8090   22.5990 C   0  0  0  0  0  0  0  0  0  0  0  0
  -22.5110   -4.2760   21.4470 F   0  0  0  0  0  0  0  0  0  0  0  0
  -21.1490   -3.7330   25.9930 F   0  0  0  0  0  0  0  0  0  0  0  0
  -22.9160  -13.5730   21.1570 C   0  0  0  0  0  0  0  0  0  0  0  0
  -22.0800  -12.9020   21.9420 N   0  0  0  0  0  0  0  0  0  0  0  0
  -22.5470  -14.5790   20.5520 O   0  0  0  0  0  0  0  0  0  0  0  0
  -22.3840  -12.0930   22.4620 H   0  0  0  0  0  0  0  0  0  0  0  0
  -21.1210  -13.2090   22.0300 H   0  0  0  0  0  0  0  0  0  0  0  0
  -25.6270  -15.2320   20.6480 N   0  0  0  0  0  0  0  0  0  0  0  0
  -24.8550  -15.8880   20.6430 H   0  0  0  0  0  0  0  0  0  0  0  0
  -26.5200  -15.6710   20.4650 H   0  0  0  0  0  0  0  0  0  0  0  0
  -29.1600  -16.0800   18.0730 C   0  0  0  0  0  1  0  0  0  0  0  0
  -30.3710  -16.0720   19.0370 C   0  0  0  0  0  2  0  0  0  0  0  0
  -29.1170  -23.8810   19.7400 C   0  0  0  0  0  3  0  0  0  0  0  0
  -28.0230  -24.9820   20.2010 C   0  0  0  0  0  3  0  0  0  0  0  0
  -28.1990  -26.4390   19.8530 O   0  0  0  0  0  0  0  0  0  0  0  0
  -24.5710  -31.8560   23.1000 C   0  0  0  0  0  0  0  0  0  0  0  0
  -27.0890  -27.3120   19.8890 C   0  0  0  0  0  0  0  0  0  0  0  0
  -23.3210  -30.4930   21.4670 C   0  0  0  0  0  3  0  0  0  0  0  0
  -24.7300  -28.9580   19.9740 C   0  0  0  0  0  0  0  0  0  0  0  0
  -25.8580  -30.7920   21.2260 C   0  0  0  0  0  2  0  0  0  0  0  0
  -25.9190  -29.4220   20.5490 C   0  0  0  0  0  0  0  0  0  0  0  0
  -27.1010  -28.6170   20.4910 C   0  0  0  0  0  3  0  0  0  0  0  0
  -25.8760  -26.9190   19.2800 C   0  0  0  0  0  3  0  0  0  0  0  0
  -24.7140  -27.7140   19.3220 C   0  0  0  0  0  3  0  0  0  0  0  0
  -23.4990  -29.8380   20.0720 C   0  0  0  0  0  2  0  0  0  0  0  0
  -24.6040  -31.0630   21.9870 N   0  0  0  0  0  0  0  0  0  0  0  0
  -23.5040  -32.1260   23.6700 O   0  0  0  0  0  0  0  0  0  0  0  0
  -22.6780  -29.4600   22.4270 C   0  0  0  0  0  0  0  0  0  0  0  0
  -21.3480  -29.2910   22.3340 N   0  0  0  0  0  0  0  0  0  0  0  0
  -23.3750  -28.8130   23.2130 O   0  0  0  0  0  0  0  0  0  0  0  0
  -20.8450  -29.8760   21.6840 H   0  0  0  0  0  0  0  0  0  0  0  0
  -17.9780  -28.0990   22.9000 C   0  0  0  0  0  0  0  0  0  0  0  0
  -20.5450  -28.3410   23.1060 C   0  0  0  0  0  3  0  0  0  0  0  0
  -20.6230  -26.9200   22.5030 C   0  0  0  0  0  2  0  0  0  0  0  0
  -19.4950  -26.6220   21.5090 C   0  0  0  0  0  2  0  0  0  0  0  0
  -18.1300  -26.7640   22.1900 C   0  0  0  0  0  2  0  0  0  0  0  0
  -19.1120  -28.8460   23.3120 C   0  0  0  0  0  0  0  0  0  0  0  0
  -18.9150  -30.0980   23.9380 C   0  0  0  0  0  3  0  0  0  0  0  0
  -17.6160  -30.6030   24.1460 C   0  0  0  0  0  3  0  0  0  0  0  0
  -16.4990  -29.8500   23.7450 C   0  0  0  0  0  3  0  0  0  0  0  0
  -16.6800  -28.5990   23.1300 C   0  0  0  0  0  3  0  0  0  0  0  0
  -25.8720  -32.4710   23.7000 C   0  0  0  0  0  3  0  0  0  0  0  0
  -25.5700  -33.8600   24.0750 N   0  0  0  0  0  0  0  0  0  0  0  0
  -25.8930  -34.9350   23.3440 C   0  0  0  0  0  0  0  0  0  0  0  0
  -26.5400  -34.8610   22.2960 O   0  0  0  0  0  0  0  0  0  0  0  0
  -24.9960  -33.9910   24.8940 H   0  0  0  0  0  0  0  0  0  0  0  0
  -24.1700  -36.7500   23.0700 C   0  0  0  0  0  1  0  0  0  0  0  0
  -25.4190  -36.3100   23.8510 C   0  0  0  0  0  3  0  0  0  0  0  0
  -27.5700  -37.1600   24.6790 C   0  0  0  0  0  1  0  0  0  0  0  0
  -26.4560  -37.3610   23.7550 N   0  0  0  0  0  0  0  0  0  0  0  0
  -26.0600  -38.2820   23.9310 H   0  0  0  0  0  0  0  0  0  0  0  0
  -26.4180  -31.6700   24.9440 C   0  0  1  0  0  0  0  0  0  0  0  0
  -25.3540  -31.4160   26.0370 C   0  0  0  0  0  1  0  0  0  0  0  0
  -26.9820  -30.2980   24.5080 C   0  0  0  0  0  1  0  0  0  0  0  0
  -27.5940  -32.4410   25.5900 C   0  0  0  0  0  1  0  0  0  0  0  0
  1  6  1  0
  2  7  1  0
  2  1  2  0
  3  6  2  0
  3  5  1  0
  4  2  1  0
  7  3  1  0
  8  1  1  0
  8  9  2  0
 10 16  1  0
 10 17  2  0
 11 16  1  0
 12 13  1  0
 12 11  1  0
 14 13  1  0
 14 22  1  0
 14 15  1  0
 16 15  1  0
 18  9  1  0
 18 10  1  0
 19 20  2  0
 20 21  1  0
 20 39  1  0
 21 24  1  0
 22 19  1  0
 22 23  1  0
 23 21  2  0
 24 25  1  0
 25 26  2  0
 27 30  1  0
 27 26  1  0
 28 27  2  0
 29 28  1  0
 29 24  2  0
 30 31  1  0
 31 32  1  0
 32 33  2  0
 34 33  1  0
 34 38  1  0
 35 34  2  0
 36 31  2  0
 36 35  1  0
 37 36  1  0
 39 40  1  0
 40 43  1  0
 40 42  1  0
 41 39  2  0
 44 19  1  0
 45 44  1  0
 46 44  1  0
 47 48  1  0
 48 18  1  0
 49 50  2  0
 49  7  1  0
 51 53  1  0
 51 50  1  0
 52 63  2  0
 53 58  1  0
 54 62  1  0
 54 64  1  0
 55 61  1  0
 55 57  1  0
 56 62  1  0
 57 56  1  0
 58 57  2  0
 59 60  1  0
 59 53  2  0
 60 55  2  0
 61 54  1  0
 62 52  1  0
 64 66  2  0
 65 64  1  0
 67 65  1  0
 68 77  2  0
 68 73  1  0
 69 65  1  0
 69 73  1  0
 70 69  1  0
 71 72  1  0
 71 70  1  0
 72 68  1  0
 73 74  2  0
 74 75  1  0
 76 75  2  0
 77 76  1  0
 78 52  1  0
 78 79  1  0
 78 88  1  0
 79 82  1  0
 80 84  1  0
 80 79  1  0
 81 80  2  0
 84 83  1  0
 86 84  1  0
 86 87  1  0
 86 85  1  0
 88 91  1  1
 88 89  1  0
 90 88  1  0
M  ISO  4  10 100  18 100  50 101  51 101
M  END
>  <TORSDO>  (86) 
F 21

>  <SCORE>  (86) 
-11.804

>  <name>  (86) 
89

>  <ligand_id>  (86) 
89

>  <original_smiles>  (86) 
[H]c1c([H])c([H])c2c(c1[H])C([H])([H])C([H])([H])C([H])([H])C2([H])N([H])C(=O)C1([H])N(C(=O)C([H])(N([H])C(=O)C([H])(N([H])C([H])([H])[H])C([H])([H])[H])C(C([H])([H])[H])(C([H])([H])[H])C([H])([H])[H])C([H])([H])c2c([H])c(OC([H])([H])C([H])([H])n3c(C([H])([H])[H])nc(C([H])([H])C([H])([H])N(C(=O)N4C([H])([H])C([H])([H])C([H])([H])C([H])(n5nc(-c6c([H])c([H])c(Oc7c([H])c([H])c(F)c([H])c7F)c([H])c6[H])c(C(=O)N([H])[H])c5N([H])[H])C4([H])[H])C([H])([H])C([H])([H])[H])c3C([H])([H])[H])c([H])c([H])c2C1([H])[H]

>  <smiles>  (86) 
[H]c1c([H])c([H])c2c(c1[H])C([H])([H])C([H])([H])C([H])([H])C2([H])N([H])C(=O)C1([H])N(C(=O)C([H])(N([H])C(=O)C([H])(N([H])C([H])([H])[H])C([H])([H])[H])C(C([H])([H])[H])(C([H])([H])[H])C([H])([H])[H])C([H])([H])c2c([H])c(OC([H])([H])C([H])([H])n3c(C([H])([H])[H])nc(C([H])([H])C([H])([H])N(C(=O)N4C([H])([H])C([H])([H])C([H])([H])C([H])(n5nc(-c6c([H])c([H])c(Oc7c([H])c([H])c(F)c([H])c7F)c([H])c6[H])c(C(=O)N([H])[H])c5N([H])[H])C4([H])[H])C([H])([H])C([H])([H])[H])c3C([H])([H])[H])c([H])c([H])c2C1([H])[H]

$$$$
90:0:0
     RDKit          3D

 92100  0  0  1  0  0  0  0  0999 V2000
  -31.3070  -19.5530   18.7400 C   0  0  0  0  0  2  0  0  0  0  0  0
  -29.4480  -20.5490   19.5150 C   0  0  0  0  0  0  0  0  0  0  0  0
  -29.8170  -18.1600   19.6920 C   0  0  0  0  0  0  0  0  0  0  0  0
  -30.6110  -20.6820   18.8950 N   0  0  0  0  0  0  0  0  0  0  0  0
  -30.9850  -18.3010   19.0770 N   0  0  0  0  0  0  0  0  0  0  0  0
  -29.0160  -19.2890   19.9360 N   0  0  0  0  0  2  0  0  0  0  0  0
  -28.4930  -21.8930   19.4770 C   0  0  0  0  0  2  0  0  0  0  0  0
  -28.9620  -23.5120   19.5570 C   0  0  0  0  0  3  0  0  0  0  0  0
  -27.9090  -24.8230   19.3960 C   0  0  0  0  0  3  0  0  0  0  0  0
  -28.1700  -26.3440   19.6240 O   0  0  0  0  0  0  0  0  0  0  0  0
  -24.5890  -31.7650   23.1240 C   0  0  0  0  0  0  0  0  0  0  0  0
  -27.0960  -27.3090   19.6740 C   0  0  0  0  0  0  0  0  0  0  0  0
  -23.3450  -30.4940   21.4170 C   0  0  0  0  0  3  0  0  0  0  0  0
  -24.7560  -29.0350   19.8410 C   0  0  0  0  0  0  0  0  0  0  0  0
  -25.8930  -30.7810   21.2030 C   0  0  0  0  0  2  0  0  0  0  0  0
  -25.9510  -29.4430   20.4450 C   0  0  0  0  0  0  0  0  0  0  0  0
  -27.1210  -28.5980   20.3440 C   0  0  0  0  0  3  0  0  0  0  0  0
  -25.8670  -27.0010   19.0460 C   0  0  0  0  0  3  0  0  0  0  0  0
  -24.7250  -27.8290   19.1270 C   0  0  0  0  0  3  0  0  0  0  0  0
  -23.5280  -29.9220   19.9860 C   0  0  0  0  0  2  0  0  0  0  0  0
  -24.6300  -31.0300   21.9700 N   0  0  0  0  0  0  0  0  0  0  0  0
  -23.5160  -32.0060   23.7010 O   0  0  0  0  0  0  0  0  0  0  0  0
  -22.6920  -29.4170   22.3170 C   0  0  0  0  0  0  0  0  0  0  0  0
  -21.3610  -29.2520   22.2110 N   0  0  0  0  0  0  0  0  0  0  0  0
  -23.3840  -28.7330   23.0760 O   0  0  0  0  0  0  0  0  0  0  0  0
  -20.8590  -29.8570   21.5770 H   0  0  0  0  0  0  0  0  0  0  0  0
  -17.9880  -28.0360   22.7380 C   0  0  0  0  0  0  0  0  0  0  0  0
  -20.5590  -28.2580   22.9300 C   0  0  0  0  0  3  0  0  0  0  0  0
  -20.6250  -26.8800   22.2340 C   0  0  0  0  0  2  0  0  0  0  0  0
  -19.4840  -26.6500   21.2380 C   0  0  0  0  0  2  0  0  0  0  0  0
  -18.1280  -26.7480   21.9430 C   0  0  0  0  0  2  0  0  0  0  0  0
  -19.1300  -28.7530   23.1880 C   0  0  0  0  0  0  0  0  0  0  0  0
  -18.9430  -29.9600   23.8940 C   0  0  0  0  0  3  0  0  0  0  0  0
  -17.6490  -30.4520   24.1530 C   0  0  0  0  0  3  0  0  0  0  0  0
  -16.5240  -29.7300   23.7180 C   0  0  0  0  0  3  0  0  0  0  0  0
  -16.6950  -28.5240   23.0160 C   0  0  0  0  0  3  0  0  0  0  0  0
  -25.8830  -32.3540   23.7630 C   0  0  0  0  0  3  0  0  0  0  0  0
  -25.5930  -33.7380   24.1680 N   0  0  0  0  0  0  0  0  0  0  0  0
  -25.8740  -34.8230   23.4340 C   0  0  0  0  0  0  0  0  0  0  0  0
  -26.4730  -34.7640   22.3560 O   0  0  0  0  0  0  0  0  0  0  0  0
  -25.0530  -33.8570   25.0110 H   0  0  0  0  0  0  0  0  0  0  0  0
  -24.1110  -36.6140   23.3000 C   0  0  0  0  0  1  0  0  0  0  0  0
  -25.4230  -36.1920   23.9810 C   0  0  0  0  0  3  0  0  0  0  0  0
  -27.6100  -37.0820   24.6600 C   0  0  0  0  0  1  0  0  0  0  0  0
  -26.4350  -37.2580   23.8110 N   0  0  0  0  0  0  0  0  0  0  0  0
  -26.0340  -38.1710   24.0090 H   0  0  0  0  0  0  0  0  0  0  0  0
  -26.3980  -31.5180   24.9990 C   0  0  1  0  0  0  0  0  0  0  0  0
  -25.3110  -31.2460   26.0660 C   0  0  0  0  0  1  0  0  0  0  0  0
  -26.9590  -30.1500   24.5440 C   0  0  0  0  0  1  0  0  0  0  0  0
  -27.5660  -32.2650   25.6860 C   0  0  0  0  0  1  0  0  0  0  0  0
  -29.3440  -16.6200   20.1350 C   0  0  0  0  0  3  0  0  0  0  0  0
  -30.2120  -15.1560   19.9530 C   0  0  0  0  0  0  0  0  0  0  0  0
  -30.3600  -12.6600   19.3930 C   0  0  0  0  0  2  0  0  0  0  0  0
  -29.4180  -12.2950   18.2160 C   0  0  0  0  0  2  0  0  0  0  0  0
  -27.9800  -12.0150   18.7010 C   0  0  0  0  0  2  0  0  0  0  0  0
  -27.5010  -13.0730   19.7240 C   0  0  0  0  0  3  0  0  0  0  0  0
  -28.5770  -13.2960   20.8170 C   0  0  0  0  0  2  0  0  0  0  0  0
  -29.7720  -13.8250   20.1320 N   0  0  0  0  0  0  0  0  0  0  0  0
  -31.3940  -15.2240   19.5830 O   0  0  0  0  0  0  0  0  0  0  0  0
  -25.1320  -13.6330   20.5390 C   0  0  0  0  0  0  0  0  0  0  0  0
  -24.1040  -12.8470   20.9770 C   0  0  0  0  0  0  0  0  0  0  0  0
  -24.5910  -11.5050   20.9370 C   0  0  0  0  0  0  0  0  0  0  0  0
  -26.1850  -12.7700   20.2720 N   0  0  0  0  0  0  0  0  0  0  0  0
  -25.8670  -11.4860   20.5720 N   0  0  0  0  0  0  0  0  0  0  0  0
  -23.8950  -10.2340   21.1640 C   0  0  0  0  0  0  0  0  0  0  0  0
  -24.3370   -9.3160   22.1400 C   0  0  0  0  0  3  0  0  0  0  0  0
  -23.6390   -8.1080   22.3540 C   0  0  0  0  0  3  0  0  0  0  0  0
  -22.4860   -7.8110   21.5900 C   0  0  0  0  0  0  0  0  0  0  0  0
  -22.0640   -8.7180   20.6030 C   0  0  0  0  0  3  0  0  0  0  0  0
  -22.7620   -9.9170   20.3880 C   0  0  0  0  0  3  0  0  0  0  0  0
  -21.7590   -6.6510   21.7140 O   0  0  0  0  0  0  0  0  0  0  0  0
  -21.6560   -5.9910   22.9120 C   0  0  0  0  0  0  0  0  0  0  0  0
  -21.0650   -6.5910   24.0450 C   0  0  0  0  0  3  0  0  0  0  0  0
  -20.9160   -5.8530   25.2360 C   0  0  0  0  0  3  0  0  0  0  0  0
  -21.3480   -4.5140   25.2930 C   0  0  0  0  0  0  0  0  0  0  0  0
  -21.9320   -3.9130   24.1640 C   0  0  0  0  0  3  0  0  0  0  0  0
  -22.0830   -4.6500   22.9760 C   0  0  0  0  0  0  0  0  0  0  0  0
  -22.6270   -4.0590   21.8840 F   0  0  0  0  0  0  0  0  0  0  0  0
  -21.1980   -3.8020   26.4340 F   0  0  0  0  0  0  0  0  0  0  0  0
  -22.7100  -13.3050   21.2970 C   0  0  0  0  0  0  0  0  0  0  0  0
  -22.0290  -12.6100   22.2000 N   0  0  0  0  0  0  0  0  0  0  0  0
  -22.2390  -14.3170   20.7790 O   0  0  0  0  0  0  0  0  0  0  0  0
  -22.4260  -11.7940   22.6400 H   0  0  0  0  0  0  0  0  0  0  0  0
  -21.0960  -12.9000   22.4570 H   0  0  0  0  0  0  0  0  0  0  0  0
  -25.2380  -15.0010   20.3080 N   0  0  0  0  0  0  0  0  0  0  0  0
  -24.3310  -15.4540   20.3480 H   0  0  0  0  0  0  0  0  0  0  0  0
  -25.6800  -15.2110   19.4220 H   0  0  0  0  0  0  0  0  0  0  0  0
  -27.8540  -16.5290   19.7000 C   0  0  0  0  0  2  0  0  0  0  0  0
  -26.9910  -17.6460   20.1500 N   0  0  0  0  0  4  0  0  0  0  0  0
  -26.8840  -17.6650   21.1480 H   0  0  0  0  0  0  0  0  0  0  0  0
  -26.0780  -17.5620   19.7350 H   0  0  0  0  0  0  0  0  0  0  0  0
  -27.4160  -18.5150   19.8470 H   0  0  0  0  0  0  0  0  0  0  0  0
  1  4  1  0
  1  5  1  0
  2  6  1  0
  3  6  1  0
  3 51  1  0
  4  2  2  0
  5  3  2  0
  7  2  1  0
  7  8  1  0
  9  8  2  0
  9 10  1  0
 10 12  1  0
 11 22  2  0
 12 17  1  0
 13 21  1  0
 13 23  1  0
 14 20  1  0
 14 16  1  0
 15 21  1  0
 16 15  1  0
 17 16  2  0
 18 19  1  0
 18 12  2  0
 19 14  2  0
 20 13  1  0
 21 11  1  0
 23 25  2  0
 24 23  1  0
 26 24  1  0
 27 36  2  0
 27 32  1  0
 28 24  1  0
 28 32  1  0
 29 28  1  0
 30 31  1  0
 30 29  1  0
 31 27  1  0
 32 33  2  0
 33 34  1  0
 35 34  2  0
 36 35  1  0
 37 11  1  0
 37 38  1  0
 37 47  1  0
 38 41  1  0
 39 43  1  0
 39 38  1  0
 40 39  2  0
 43 42  1  0
 45 43  1  0
 45 46  1  0
 45 44  1  0
 47 50  1  1
 47 48  1  0
 49 47  1  0
 51 88  1  0
 52 58  1  0
 52 51  1  0
 53 58  1  0
 54 55  1  0
 54 53  1  0
 56 55  1  0
 56 63  1  0
 56 57  1  0
 58 57  1  0
 59 52  2  0
 60 61  2  0
 61 80  1  0
 62 61  1  0
 62 65  1  0
 63 60  1  0
 63 64  1  0
 64 62  2  0
 65 66  1  0
 66 67  2  0
 68 71  1  0
 68 67  1  0
 69 68  2  0
 70 69  1  0
 70 65  2  0
 71 72  1  0
 72 77  2  0
 72 73  1  0
 73 74  2  0
 74 75  1  0
 75 79  1  0
 76 75  2  0
 77 76  1  0
 78 77  1  0
 80 81  1  0
 81 84  1  0
 81 83  1  0
 82 80  2  0
 85 86  1  0
 85 60  1  0
 87 85  1  0
 88 89  1  0
 89 90  1  0
 91 89  1  0
 92 89  1  0
M  ISO  4   9 101  10 101  51 100  52 100
M  END
>  <TORSDO>  (87) 
F 22

>  <SCORE>  (87) 
-13.143

>  <name>  (87) 
90

>  <ligand_id>  (87) 
90

>  <original_smiles>  (87) 
[H]c1nc(C([H])([H])C([H])([H])C([H])([H])Oc2c([H])c([H])c3c(c2[H])C([H])([H])N(C(=O)C([H])(N([H])C(=O)C([H])(N([H])C([H])([H])[H])C([H])([H])[H])C(C([H])([H])[H])(C([H])([H])[H])C([H])([H])[H])C([H])(C(=O)N([H])C2([H])c4c([H])c([H])c([H])c([H])c4C([H])([H])C([H])([H])C2([H])[H])C3([H])[H])nc(C([H])(C(=O)N2C([H])([H])C([H])([H])C([H])([H])C([H])(n3nc(-c4c([H])c([H])c(Oc5c([H])c([H])c(F)c([H])c5F)c([H])c4[H])c(C(=O)N([H])[H])c3N([H])[H])C2([H])[H])C([H])([H])[N+]([H])([H])[H])n1

>  <smiles>  (87) 
[H]c1nc(C([H])([H])C([H])([H])C([H])([H])Oc2c([H])c([H])c3c(c2[H])C([H])([H])N(C(=O)C([H])(N([H])C(=O)C([H])(N([H])C([H])([H])[H])C([H])([H])[H])C(C([H])([H])[H])(C([H])([H])[H])C([H])([H])[H])C([H])(C(=O)N([H])C2([H])c4c([H])c([H])c([H])c([H])c4C([H])([H])C([H])([H])C2([H])[H])C3([H])[H])nc(C([H])(C(=O)N2C([H])([H])C([H])([H])C([H])([H])C([H])(n3nc(-c4c([H])c([H])c(Oc5c([H])c([H])c(F)c([H])c5F)c([H])c4[H])c(C(=O)N([H])[H])c3N([H])[H])C2([H])[H])C([H])([H])[N+]([H])([H])[H])n1

$$$$
91:0:0
     RDKit          3D

 92100  0  0  1  0  0  0  0  0999 V2000
  -30.8830  -19.2230   21.0710 C   0  0  0  0  0  0  0  0  0  0  0  0
  -31.7340  -19.3820   22.1320 N   0  0  0  0  0  0  0  0  0  0  0  0
  -30.7070  -20.3380   20.3720 N   0  0  0  0  0  2  0  0  0  0  0  0
  -32.1240  -20.6170   22.1120 N   0  0  0  0  0  2  0  0  0  0  0  0
  -31.5100  -21.1840   21.0520 N   0  0  0  0  0  0  0  0  0  0  0  0
  -29.3390  -18.0260   19.4560 C   0  0  0  0  0  1  0  0  0  0  0  0
  -29.1840  -17.5840   21.9180 C   0  0  0  0  0  1  0  0  0  0  0  0
  -30.1580  -17.9150   20.7690 C   0  0  2  0  0  0  0  0  0  0  0  0
  -31.2010  -16.7820   20.5900 C   0  0  0  0  0  2  0  0  0  0  0  0
  -31.1850  -14.3850   19.9490 C   0  0  0  0  0  0  0  0  0  0  0  0
  -30.7750  -12.1840   18.9290 C   0  0  0  0  0  2  0  0  0  0  0  0
  -29.7770  -12.3270   17.7680 C   0  0  0  0  0  2  0  0  0  0  0  0
  -28.3360  -12.2020   18.2950 C   0  0  0  0  0  2  0  0  0  0  0  0
  -28.0600  -13.1260   19.5160 C   0  0  0  0  0  3  0  0  0  0  0  0
  -29.1740  -12.9840   20.5750 C   0  0  0  0  0  2  0  0  0  0  0  0
  -30.4690  -13.2300   19.9180 N   0  0  0  0  0  0  0  0  0  0  0  0
  -32.2430  -14.5310   19.3290 O   0  0  0  0  0  0  0  0  0  0  0  0
  -30.6420  -15.4160   20.6140 N   0  0  0  0  0  0  0  0  0  0  0  0
  -29.7800  -15.2560   21.1140 H   0  0  0  0  0  0  0  0  0  0  0  0
  -25.7550  -13.7790   20.4590 C   0  0  0  0  0  0  0  0  0  0  0  0
  -24.6860  -13.0290   20.8680 C   0  0  0  0  0  0  0  0  0  0  0  0
  -25.0820  -11.6640   20.7210 C   0  0  0  0  0  0  0  0  0  0  0  0
  -26.7380  -12.8740   20.0900 N   0  0  0  0  0  0  0  0  0  0  0  0
  -26.3410  -11.5920   20.3060 N   0  0  0  0  0  0  0  0  0  0  0  0
  -24.3180  -10.4220   20.9040 C   0  0  0  0  0  0  0  0  0  0  0  0
  -24.7010   -9.4600   21.8640 C   0  0  0  0  0  3  0  0  0  0  0  0
  -23.9430   -8.2830   22.0400 C   0  0  0  0  0  3  0  0  0  0  0  0
  -22.7900   -8.0590   21.2500 C   0  0  0  0  0  0  0  0  0  0  0  0
  -22.4240   -9.0100   20.2820 C   0  0  0  0  0  3  0  0  0  0  0  0
  -23.1810  -10.1810   20.1070 C   0  0  0  0  0  3  0  0  0  0  0  0
  -22.0090   -6.9320   21.3280 O   0  0  0  0  0  0  0  0  0  0  0  0
  -21.7780   -6.2970   22.5220 C   0  0  0  0  0  0  0  0  0  0  0  0
  -21.1370   -6.9470   23.5990 C   0  0  0  0  0  3  0  0  0  0  0  0
  -20.8550   -6.2360   24.7830 C   0  0  0  0  0  3  0  0  0  0  0  0
  -21.2080   -4.8760   24.8870 C   0  0  0  0  0  0  0  0  0  0  0  0
  -21.8430   -4.2270   23.8130 C   0  0  0  0  0  3  0  0  0  0  0  0
  -22.1240   -4.9370   22.6340 C   0  0  0  0  0  0  0  0  0  0  0  0
  -22.7150   -4.3020   21.5920 F   0  0  0  0  0  0  0  0  0  0  0  0
  -20.9320   -4.1890   26.0190 F   0  0  0  0  0  0  0  0  0  0  0  0
  -23.3380  -13.5430   21.2860 C   0  0  0  0  0  0  0  0  0  0  0  0
  -22.6560  -12.8290   22.1730 N   0  0  0  0  0  0  0  0  0  0  0  0
  -22.8980  -14.6100   20.8570 O   0  0  0  0  0  0  0  0  0  0  0  0
  -23.0330  -11.9740   22.5530 H   0  0  0  0  0  0  0  0  0  0  0  0
  -21.7510  -13.1510   22.4850 H   0  0  0  0  0  0  0  0  0  0  0  0
  -25.9670  -15.1500   20.3520 N   0  0  0  0  0  0  0  0  0  0  0  0
  -25.2490  -15.8290   20.5800 H   0  0  0  0  0  0  0  0  0  0  0  0
  -26.8180  -15.5730   20.0050 H   0  0  0  0  0  0  0  0  0  0  0  0
  -31.6450  -22.5970   20.7140 C   0  0  0  0  0  2  0  0  0  0  0  0
  -30.3170  -23.3450   20.9530 C   0  0  0  0  0  2  0  0  0  0  0  0
  -30.2980  -24.8280   20.5550 C   0  0  0  0  0  2  0  0  0  0  0  0
  -28.8810  -25.4080   20.6770 C   0  0  0  0  0  2  0  0  0  0  0  0
  -28.9280  -26.8010   20.3900 O   0  0  0  0  0  0  0  0  0  0  0  0
  -24.8060  -31.7970   23.3080 C   0  0  0  0  0  0  0  0  0  0  0  0
  -27.7180  -27.4530   20.3570 C   0  0  0  0  0  0  0  0  0  0  0  0
  -23.7200  -30.3700   21.6040 C   0  0  0  0  0  3  0  0  0  0  0  0
  -25.2850  -28.8760   20.2600 C   0  0  0  0  0  0  0  0  0  0  0  0
  -26.2410  -30.8050   21.5280 C   0  0  0  0  0  2  0  0  0  0  0  0
  -26.3960  -29.4390   20.8970 C   0  0  0  0  0  0  0  0  0  0  0  0
  -27.6200  -28.7360   20.9360 C   0  0  0  0  0  3  0  0  0  0  0  0
  -26.5870  -26.8960   19.7210 C   0  0  0  0  0  3  0  0  0  0  0  0
  -25.3730  -27.6040   19.6700 C   0  0  0  0  0  3  0  0  0  0  0  0
  -24.0160  -29.6980   20.2370 C   0  0  0  0  0  2  0  0  0  0  0  0
  -24.9380  -31.0030   22.2060 N   0  0  0  0  0  0  0  0  0  0  0  0
  -23.6940  -32.0340   23.7950 O   0  0  0  0  0  0  0  0  0  0  0  0
  -23.0540  -29.3240   22.5260 C   0  0  0  0  0  0  0  0  0  0  0  0
  -21.7430  -29.1050   22.3350 N   0  0  0  0  0  0  0  0  0  0  0  0
  -23.7140  -28.7140   23.3720 O   0  0  0  0  0  0  0  0  0  0  0  0
  -21.2680  -29.6480   21.6270 H   0  0  0  0  0  0  0  0  0  0  0  0
  -18.3750  -27.8570   22.6850 C   0  0  0  0  0  0  0  0  0  0  0  0
  -20.9160  -28.1430   23.0630 C   0  0  0  0  0  3  0  0  0  0  0  0
  -21.0620  -26.7220   22.4720 C   0  0  0  0  0  2  0  0  0  0  0  0
  -20.0060  -26.3990   21.4130 C   0  0  0  0  0  2  0  0  0  0  0  0
  -18.5970  -26.5160   22.0040 C   0  0  0  0  0  2  0  0  0  0  0  0
  -19.4630  -28.6270   23.1710 C   0  0  0  0  0  0  0  0  0  0  0  0
  -19.2060  -29.8820   23.7630 C   0  0  0  0  0  3  0  0  0  0  0  0
  -17.8880  -30.3660   23.8780 C   0  0  0  0  0  3  0  0  0  0  0  0
  -16.8120  -29.5890   23.4140 C   0  0  0  0  0  3  0  0  0  0  0  0
  -17.0560  -28.3390   22.8200 C   0  0  0  0  0  3  0  0  0  0  0  0
  -26.0420  -32.4620   23.9870 C   0  0  0  0  0  3  0  0  0  0  0  0
  -25.6790  -33.8500   24.3000 N   0  0  0  0  0  0  0  0  0  0  0  0
  -26.0230  -34.9100   23.5580 C   0  0  0  0  0  0  0  0  0  0  0  0
  -26.7500  -34.8270   22.5640 O   0  0  0  0  0  0  0  0  0  0  0  0
  -25.0370  -33.9890   25.0660 H   0  0  0  0  0  0  0  0  0  0  0  0
  -24.2740  -36.6600   23.1060 C   0  0  0  0  0  1  0  0  0  0  0  0
  -25.4730  -36.2830   23.9880 C   0  0  0  0  0  3  0  0  0  0  0  0
  -27.5230  -37.2300   24.9560 C   0  0  0  0  0  1  0  0  0  0  0  0
  -26.4830  -37.3620   23.9390 N   0  0  0  0  0  0  0  0  0  0  0  0
  -26.0430  -38.2700   24.0540 H   0  0  0  0  0  0  0  0  0  0  0  0
  -26.5210  -31.7020   25.2860 C   0  0  1  0  0  0  0  0  0  0  0  0
  -25.3800  -31.4120   26.2890 C   0  0  0  0  0  1  0  0  0  0  0  0
  -27.1800  -30.3520   24.9140 C   0  0  0  0  0  1  0  0  0  0  0  0
  -27.5950  -32.5370   26.0180 C   0  0  0  0  0  1  0  0  0  0  0  0
  1  2  2  0
  3  5  1  0
  3  1  1  0
  4  2  1  0
  5  4  1  0
  8  6  1  6
  8  1  1  0
  8  7  1  0
  9 18  1  0
  9  8  1  0
 10 18  1  0
 11 16  1  0
 12 13  1  0
 12 11  1  0
 14 13  1  0
 14 23  1  0
 14 15  1  0
 16 10  1  0
 16 15  1  0
 17 10  2  0
 18 19  1  0
 20 21  2  0
 21 40  1  0
 22 21  1  0
 22 25  1  0
 23 24  1  0
 23 20  1  0
 24 22  2  0
 25 26  1  0
 26 27  2  0
 28 31  1  0
 28 27  1  0
 29 28  2  0
 30 29  1  0
 30 25  2  0
 31 32  1  0
 32 37  2  0
 32 33  1  0
 33 34  2  0
 34 35  1  0
 35 39  1  0
 36 35  2  0
 37 36  1  0
 38 37  1  0
 40 41  1  0
 41 44  1  0
 41 43  1  0
 42 40  2  0
 45 20  1  0
 45 46  1  0
 47 45  1  0
 48 49  1  0
 48  5  1  0
 50 51  1  0
 50 49  1  0
 52 51  1  0
 53 64  2  0
 54 52  1  0
 54 59  1  0
 55 63  1  0
 55 65  1  0
 56 58  1  0
 57 63  1  0
 58 59  2  0
 58 57  1  0
 60 54  2  0
 61 60  1  0
 61 56  2  0
 62 56  1  0
 62 55  1  0
 63 53  1  0
 65 67  2  0
 66 65  1  0
 68 66  1  0
 69 78  2  0
 69 74  1  0
 70 66  1  0
 70 74  1  0
 71 70  1  0
 72 73  1  0
 72 71  1  0
 73 69  1  0
 74 75  2  0
 75 76  1  0
 77 76  2  0
 78 77  1  0
 79 53  1  0
 79 80  1  0
 79 89  1  0
 80 83  1  0
 81 85  1  0
 81 80  1  0
 82 81  2  0
 85 84  1  0
 87 85  1  0
 87 88  1  0
 87 86  1  0
 89 92  1  1
 89 90  1  0
 91 89  1  0
M  ISO  4  10 100  18 100  51 101  52 101
M  END
>  <TORSDO>  (88) 
F 22

>  <SCORE>  (88) 
-11.620

>  <name>  (88) 
91

>  <ligand_id>  (88) 
91

>  <original_smiles>  (88) 
[H]c1c([H])c([H])c2c(c1[H])C([H])([H])C([H])([H])C([H])([H])C2([H])N([H])C(=O)C1([H])N(C(=O)C([H])(N([H])C(=O)C([H])(N([H])C([H])([H])[H])C([H])([H])[H])C(C([H])([H])[H])(C([H])([H])[H])C([H])([H])[H])C([H])([H])c2c([H])c(OC([H])([H])C([H])([H])C([H])([H])C([H])([H])n3nnc(C(C([H])([H])[H])(C([H])([H])[H])C([H])([H])N([H])C(=O)N4C([H])([H])C([H])([H])C([H])([H])C([H])(n5nc(-c6c([H])c([H])c(Oc7c([H])c([H])c(F)c([H])c7F)c([H])c6[H])c(C(=O)N([H])[H])c5N([H])[H])C4([H])[H])n3)c([H])c([H])c2C1([H])[H]

>  <smiles>  (88) 
[H]c1c([H])c([H])c2c(c1[H])C([H])([H])C([H])([H])C([H])([H])C2([H])N([H])C(=O)C1([H])N(C(=O)C([H])(N([H])C(=O)C([H])(N([H])C([H])([H])[H])C([H])([H])[H])C(C([H])([H])[H])(C([H])([H])[H])C([H])([H])[H])C([H])([H])c2c([H])c(OC([H])([H])C([H])([H])C([H])([H])C([H])([H])n3nnc(C(C([H])([H])[H])(C([H])([H])[H])C([H])([H])N([H])C(=O)N4C([H])([H])C([H])([H])C([H])([H])C([H])(n5nc(-c6c([H])c([H])c(Oc7c([H])c([H])c(F)c([H])c7F)c([H])c6[H])c(C(=O)N([H])[H])c5N([H])[H])C4([H])[H])n3)c([H])c([H])c2C1([H])[H]

$$$$
92:0:0
     RDKit          3D

 92100  0  0  1  0  0  0  0  0999 V2000
  -30.5500  -20.4560   19.3910 C   0  0  0  0  0  3  0  0  0  0  0  0
  -29.2590  -21.0350   19.3580 C   0  0  0  0  0  0  0  0  0  0  0  0
  -28.2290  -20.0740   19.5070 C   0  0  0  0  0  0  0  0  0  0  0  0
  -29.7350  -18.2830   19.5000 C   0  0  0  0  0  0  0  0  0  0  0  0
  -30.7790  -19.1120   19.4510 N   0  0  0  0  0  0  0  0  0  0  0  0
  -28.4810  -18.7340   19.5680 N   0  0  0  0  0  0  0  0  0  0  0  0
  -26.1670  -20.3760   18.0690 C   0  0  0  0  0  1  0  0  0  0  0  0
  -26.7580  -20.4410   19.4800 C   0  0  0  0  0  2  0  0  0  0  0  0
  -29.0550  -22.5350   18.8830 C   0  0  0  0  0  2  0  0  0  0  0  0
  -28.6760  -23.7760   19.8140 C   0  0  0  0  0  2  0  0  0  0  0  0
  -28.5920  -25.1740   19.0380 C   0  0  0  0  0  2  0  0  0  0  0  0
  -28.4370  -26.4640   19.7500 O   0  0  0  0  0  0  0  0  0  0  0  0
  -24.5670  -31.6060   22.9800 C   0  0  0  0  0  0  0  0  0  0  0  0
  -27.2670  -27.2440   19.7180 C   0  0  0  0  0  0  0  0  0  0  0  0
  -23.3830  -30.2480   21.2900 C   0  0  0  0  0  3  0  0  0  0  0  0
  -24.8600  -28.7940   19.7940 C   0  0  0  0  0  0  0  0  0  0  0  0
  -25.9130  -30.6360   21.1050 C   0  0  0  0  0  2  0  0  0  0  0  0
  -26.0190  -29.2870   20.4020 C   0  0  0  0  0  0  0  0  0  0  0  0
  -27.2220  -28.5230   20.3570 C   0  0  0  0  0  3  0  0  0  0  0  0
  -26.0760  -26.7960   19.1040 C   0  0  0  0  0  3  0  0  0  0  0  0
  -24.8890  -27.5540   19.1390 C   0  0  0  0  0  3  0  0  0  0  0  0
  -23.6030  -29.6340   19.8830 C   0  0  0  0  0  2  0  0  0  0  0  0
  -24.6400  -30.8470   21.8480 N   0  0  0  0  0  0  0  0  0  0  0  0
  -23.4830  -31.8360   23.5340 O   0  0  0  0  0  0  0  0  0  0  0  0
  -22.7520  -29.1790   22.2130 C   0  0  0  0  0  0  0  0  0  0  0  0
  -21.4230  -29.0020   22.1100 N   0  0  0  0  0  0  0  0  0  0  0  0
  -23.4540  -28.5140   22.9790 O   0  0  0  0  0  0  0  0  0  0  0  0
  -20.9170  -29.5940   21.4680 H   0  0  0  0  0  0  0  0  0  0  0  0
  -18.0620  -27.7860   22.6530 C   0  0  0  0  0  0  0  0  0  0  0  0
  -20.6290  -28.0180   22.8490 C   0  0  0  0  0  3  0  0  0  0  0  0
  -20.7040  -26.6260   22.1810 C   0  0  0  0  0  2  0  0  0  0  0  0
  -19.5680  -26.3710   21.1870 C   0  0  0  0  0  2  0  0  0  0  0  0
  -18.2080  -26.4820   21.8820 C   0  0  0  0  0  2  0  0  0  0  0  0
  -19.2000  -28.5150   23.0920 C   0  0  0  0  0  0  0  0  0  0  0  0
  -19.0090  -29.7370   23.7710 C   0  0  0  0  0  3  0  0  0  0  0  0
  -17.7140  -30.2320   24.0140 C   0  0  0  0  0  3  0  0  0  0  0  0
  -16.5920  -29.4980   23.5920 C   0  0  0  0  0  3  0  0  0  0  0  0
  -16.7670  -28.2760   22.9180 C   0  0  0  0  0  3  0  0  0  0  0  0
  -25.8400  -32.2390   23.6220 C   0  0  0  0  0  3  0  0  0  0  0  0
  -25.4990  -33.6120   24.0230 N   0  0  0  0  0  0  0  0  0  0  0  0
  -25.8060  -34.7100   23.3190 C   0  0  0  0  0  0  0  0  0  0  0  0
  -26.4770  -34.6740   22.2840 O   0  0  0  0  0  0  0  0  0  0  0  0
  -24.8990  -33.7130   24.8290 H   0  0  0  0  0  0  0  0  0  0  0  0
  -24.0350  -36.4790   23.0630 C   0  0  0  0  0  1  0  0  0  0  0  0
  -25.2890  -36.0620   23.8480 C   0  0  0  0  0  3  0  0  0  0  0  0
  -27.4040  -36.9560   24.7180 C   0  0  0  0  0  1  0  0  0  0  0  0
  -26.2970  -37.1430   23.7840 N   0  0  0  0  0  0  0  0  0  0  0  0
  -25.8700  -38.0460   23.9740 H   0  0  0  0  0  0  0  0  0  0  0  0
  -26.3880  -31.4220   24.8560 C   0  0  1  0  0  0  0  0  0  0  0  0
  -25.3110  -31.1080   25.9210 C   0  0  0  0  0  1  0  0  0  0  0  0
  -26.9970  -30.0780   24.3940 C   0  0  0  0  0  1  0  0  0  0  0  0
  -27.5260  -32.2100   25.5450 C   0  0  0  0  0  1  0  0  0  0  0  0
  -29.9550  -16.7640   19.1440 C   0  0  0  0  0  2  0  0  0  0  0  0
  -31.2460  -14.6520   19.4650 C   0  0  0  0  0  0  0  0  0  0  0  0
  -30.7830  -12.3850   18.5460 C   0  0  0  0  0  2  0  0  0  0  0  0
  -29.7320  -12.4730   17.4210 C   0  0  0  0  0  2  0  0  0  0  0  0
  -28.3120  -12.3810   18.0090 C   0  0  0  0  0  2  0  0  0  0  0  0
  -28.1070  -13.3380   19.2120 C   0  0  0  0  0  3  0  0  0  0  0  0
  -29.2700  -13.2540   20.2280 C   0  0  0  0  0  2  0  0  0  0  0  0
  -30.5210  -13.4880   19.4960 N   0  0  0  0  0  0  0  0  0  0  0  0
  -32.3370  -14.6990   18.8910 O   0  0  0  0  0  0  0  0  0  0  0  0
  -30.7100  -15.7940   20.0130 N   0  0  0  0  0  0  0  0  0  0  0  0
  -25.8830  -14.0790   20.2550 C   0  0  0  0  0  0  0  0  0  0  0  0
  -24.8050  -13.3740   20.7130 C   0  0  0  0  0  0  0  0  0  0  0  0
  -25.1410  -11.9930   20.5570 C   0  0  0  0  0  0  0  0  0  0  0  0
  -26.8110  -13.1350   19.8480 N   0  0  0  0  0  0  0  0  0  0  0  0
  -26.3770  -11.8710   20.0880 N   0  0  0  0  0  0  0  0  0  0  0  0
  -24.3340  -10.7850   20.7680 C   0  0  0  0  0  0  0  0  0  0  0  0
  -24.7480   -9.7640   21.6520 C   0  0  0  0  0  3  0  0  0  0  0  0
  -23.9440   -8.6210   21.8540 C   0  0  0  0  0  3  0  0  0  0  0  0
  -22.7120   -8.4920   21.1700 C   0  0  0  0  0  0  0  0  0  0  0  0
  -22.3150   -9.4990   20.2730 C   0  0  0  0  0  3  0  0  0  0  0  0
  -23.1190  -10.6330   20.0690 C   0  0  0  0  0  3  0  0  0  0  0  0
  -21.8800   -7.4050   21.2830 O   0  0  0  0  0  0  0  0  0  0  0  0
  -21.7870   -6.6870   22.4480 C   0  0  0  0  0  0  0  0  0  0  0  0
  -21.4050   -7.2900   23.6660 C   0  0  0  0  0  3  0  0  0  0  0  0
  -21.2540   -6.5020   24.8250 C   0  0  0  0  0  3  0  0  0  0  0  0
  -21.4730   -5.1130   24.7670 C   0  0  0  0  0  0  0  0  0  0  0  0
  -21.8490   -4.5100   23.5540 C   0  0  0  0  0  3  0  0  0  0  0  0
  -22.0000   -5.2940   22.3970 C   0  0  0  0  0  0  0  0  0  0  0  0
  -22.3390   -4.7040   21.2250 F   0  0  0  0  0  0  0  0  0  0  0  0
  -21.3210   -4.3540   25.8780 F   0  0  0  0  0  0  0  0  0  0  0  0
  -23.4980  -13.9460   21.1840 C   0  0  0  0  0  0  0  0  0  0  0  0
  -22.8340  -13.2640   22.1110 N   0  0  0  0  0  0  0  0  0  0  0  0
  -23.0850  -15.0270   20.7680 O   0  0  0  0  0  0  0  0  0  0  0  0
  -23.1870  -12.3850   22.4600 H   0  0  0  0  0  0  0  0  0  0  0  0
  -21.9630  -13.6230   22.4740 H   0  0  0  0  0  0  0  0  0  0  0  0
  -26.1440  -15.4400   20.1280 N   0  0  0  0  0  0  0  0  0  0  0  0
  -25.4560  -16.1430   20.3710 H   0  0  0  0  0  0  0  0  0  0  0  0
  -26.9890  -15.8300   19.7360 H   0  0  0  0  0  0  0  0  0  0  0  0
  -30.4880  -16.6430   22.3340 C   0  0  0  0  0  1  0  0  0  0  0  0
  -31.4290  -16.4020   21.1450 C   0  0  0  0  0  2  0  0  0  0  0  0
  1  5  1  0
  2  1  2  0
  2  3  1  0
  3  6  2  0
  4  6  1  0
  5  4  2  0
  7  8  1  0
  8  3  1  0
  9  2  1  0
  9 10  1  0
 11 12  1  0
 11 10  1  0
 13 24  2  0
 14 12  1  0
 14 19  1  0
 15 23  1  0
 15 25  1  0
 16 22  1  0
 16 18  1  0
 17 23  1  0
 18 17  1  0
 19 18  2  0
 20 21  1  0
 20 14  2  0
 21 16  2  0
 22 15  1  0
 23 13  1  0
 25 27  2  0
 26 25  1  0
 28 26  1  0
 29 38  2  0
 29 34  1  0
 30 26  1  0
 30 34  1  0
 31 30  1  0
 32 33  1  0
 32 31  1  0
 33 29  1  0
 34 35  2  0
 35 36  1  0
 37 36  2  0
 38 37  1  0
 39 13  1  0
 39 40  1  0
 39 49  1  0
 40 43  1  0
 41 45  1  0
 41 40  1  0
 42 41  2  0
 45 44  1  0
 47 45  1  0
 47 48  1  0
 47 46  1  0
 49 52  1  1
 49 50  1  0
 51 49  1  0
 53  4  1  0
 53 62  1  0
 54 60  1  0
 54 62  1  0
 55 60  1  0
 56 57  1  0
 56 55  1  0
 58 57  1  0
 58 66  1  0
 58 59  1  0
 60 59  1  0
 61 54  2  0
 62 92  1  0
 63 64  2  0
 64 83  1  0
 65 64  1  0
 65 68  1  0
 66 67  1  0
 66 63  1  0
 67 65  2  0
 68 69  1  0
 69 70  2  0
 71 74  1  0
 71 70  1  0
 72 71  2  0
 73 72  1  0
 73 68  2  0
 74 75  1  0
 75 76  1  0
 76 77  2  0
 78 77  1  0
 78 82  1  0
 79 78  2  0
 80 75  2  0
 80 79  1  0
 81 80  1  0
 83 84  1  0
 84 86  1  0
 84 87  1  0
 85 83  2  0
 88 63  1  0
 88 89  1  0
 90 88  1  0
 92 91  1  0
M  ISO  4  11 101  12 101  54 100  62 100
M  END
>  <TORSDO>  (89) 
F 22

>  <SCORE>  (89) 
-11.773

>  <name>  (89) 
92

>  <ligand_id>  (89) 
92

>  <original_smiles>  (89) 
[H]c1nc(C([H])([H])N(C(=O)N2C([H])([H])C([H])([H])C([H])([H])C([H])(n3nc(-c4c([H])c([H])c(Oc5c([H])c([H])c(F)c([H])c5F)c([H])c4[H])c(C(=O)N([H])[H])c3N([H])[H])C2([H])[H])C([H])([H])C([H])([H])[H])nc(C([H])([H])C([H])([H])[H])c1C([H])([H])C([H])([H])C([H])([H])Oc1c([H])c([H])c2c(c1[H])C([H])([H])N(C(=O)C([H])(N([H])C(=O)C([H])(N([H])C([H])([H])[H])C([H])([H])[H])C(C([H])([H])[H])(C([H])([H])[H])C([H])([H])[H])C([H])(C(=O)N([H])C1([H])c3c([H])c([H])c([H])c([H])c3C([H])([H])C([H])([H])C1([H])[H])C2([H])[H]

>  <smiles>  (89) 
[H]c1nc(C([H])([H])N(C(=O)N2C([H])([H])C([H])([H])C([H])([H])C([H])(n3nc(-c4c([H])c([H])c(Oc5c([H])c([H])c(F)c([H])c5F)c([H])c4[H])c(C(=O)N([H])[H])c3N([H])[H])C2([H])[H])C([H])([H])C([H])([H])[H])nc(C([H])([H])C([H])([H])[H])c1C([H])([H])C([H])([H])C([H])([H])Oc1c([H])c([H])c2c(c1[H])C([H])([H])N(C(=O)C([H])(N([H])C(=O)C([H])(N([H])C([H])([H])[H])C([H])([H])[H])C(C([H])([H])[H])(C([H])([H])[H])C([H])([H])[H])C([H])(C(=O)N([H])C1([H])c3c([H])c([H])c([H])c([H])c3C([H])([H])C([H])([H])C1([H])[H])C2([H])[H]

$$$$
93:0:0
     RDKit          3D

 88 96  0  0  1  0  0  0  0  0999 V2000
  -29.5570  -23.0740   21.8990 C   0  0  0  0  0  1  0  0  0  0  0  0
  -28.5860  -22.7060   20.7720 C   0  0  2  0  0  0  0  0  0  0  0  0
  -27.4190  -22.5850   21.4070 F   0  0  0  0  0  0  0  0  0  0  0  0
  -28.5640  -19.6930   20.5920 C   0  0  0  0  0  3  0  0  0  0  0  0
  -29.0470  -21.0450   20.3320 C   0  0  0  0  0  0  0  0  0  0  0  0
  -30.3140  -20.6250   19.8280 N   0  0  0  0  0  0  0  0  0  0  0  0
  -30.5200  -19.2820   19.7570 N   0  0  0  0  0  0  0  0  0  0  0  0
  -29.4780  -18.5490   20.2770 N   0  0  0  0  0  0  0  0  0  0  0  0
  -28.4780  -16.7430   18.8450 C   0  0  0  0  0  1  0  0  0  0  0  0
  -29.2920  -16.8670   20.1550 C   0  0  0  0  0  3  0  0  0  0  0  0
  -30.2830  -15.3870   20.1890 C   0  0  0  0  0  0  0  0  0  0  0  0
  -30.3370  -12.9170   19.3490 C   0  0  0  0  0  2  0  0  0  0  0  0
  -29.4060  -12.7220   18.1220 C   0  0  0  0  0  2  0  0  0  0  0  0
  -27.9500  -12.4540   18.5550 C   0  0  0  0  0  2  0  0  0  0  0  0
  -27.5090  -13.3780   19.7170 C   0  0  0  0  0  3  0  0  0  0  0  0
  -28.5720  -13.5160   20.8250 C   0  0  0  0  0  2  0  0  0  0  0  0
  -29.8000  -14.0400   20.2010 N   0  0  0  0  0  0  0  0  0  0  0  0
  -31.5050  -15.4270   19.9770 O   0  0  0  0  0  0  0  0  0  0  0  0
  -25.1480  -13.9230   20.5020 C   0  0  0  0  0  0  0  0  0  0  0  0
  -24.0930  -13.1410   20.8770 C   0  0  0  0  0  0  0  0  0  0  0  0
  -24.5660  -11.7920   20.8350 C   0  0  0  0  0  0  0  0  0  0  0  0
  -26.1900  -13.0520   20.2400 N   0  0  0  0  0  0  0  0  0  0  0  0
  -25.8550  -11.7640   20.5100 N   0  0  0  0  0  0  0  0  0  0  0  0
  -23.8460  -10.5270   21.0280 C   0  0  0  0  0  0  0  0  0  0  0  0
  -24.2900   -9.5580   21.9560 C   0  0  0  0  0  3  0  0  0  0  0  0
  -23.5670   -8.3590   22.1380 C   0  0  0  0  0  3  0  0  0  0  0  0
  -22.3890   -8.1220   21.3920 C   0  0  0  0  0  0  0  0  0  0  0  0
  -21.9640   -9.0790   20.4530 C   0  0  0  0  0  3  0  0  0  0  0  0
  -22.6880  -10.2700   20.2690 C   0  0  0  0  0  3  0  0  0  0  0  0
  -21.6380   -6.9740   21.4830 O   0  0  0  0  0  0  0  0  0  0  0  0
  -21.6010   -6.2270   22.6330 C   0  0  0  0  0  0  0  0  0  0  0  0
  -21.1800   -6.7740   23.8650 C   0  0  0  0  0  3  0  0  0  0  0  0
  -21.0920   -5.9520   25.0060 C   0  0  0  0  0  3  0  0  0  0  0  0
  -21.4140   -4.5850   24.9180 C   0  0  0  0  0  0  0  0  0  0  0  0
  -21.8290   -4.0380   23.6920 C   0  0  0  0  0  3  0  0  0  0  0  0
  -21.9180   -4.8560   22.5510 C   0  0  0  0  0  0  0  0  0  0  0  0
  -22.2970   -4.3170   21.3670 F   0  0  0  0  0  0  0  0  0  0  0  0
  -21.3220   -3.7950   26.0120 F   0  0  0  0  0  0  0  0  0  0  0  0
  -22.6960  -13.6100   21.1590 C   0  0  0  0  0  0  0  0  0  0  0  0
  -21.9780  -12.9120   22.0290 N   0  0  0  0  0  0  0  0  0  0  0  0
  -22.2510  -14.6360   20.6430 O   0  0  0  0  0  0  0  0  0  0  0  0
  -22.3520  -12.0840   22.4680 H   0  0  0  0  0  0  0  0  0  0  0  0
  -21.0420  -13.2120   22.2610 H   0  0  0  0  0  0  0  0  0  0  0  0
  -25.2990  -15.2970   20.3320 N   0  0  0  0  0  0  0  0  0  0  0  0
  -24.5270  -15.9420   20.4550 H   0  0  0  0  0  0  0  0  0  0  0  0
  -26.1410  -15.7460   19.9980 H   0  0  0  0  0  0  0  0  0  0  0  0
  -28.2480  -24.2820   19.9290 C   0  0  0  0  0  2  0  0  0  0  0  0
  -28.2160  -25.8940   20.3710 O   0  0  0  0  0  0  0  0  0  0  0  0
  -24.6490  -31.9140   23.2190 C   0  0  0  0  0  0  0  0  0  0  0  0
  -27.1960  -26.9860   20.2420 C   0  0  0  0  0  0  0  0  0  0  0  0
  -23.4550  -30.5060   21.5900 C   0  0  0  0  0  3  0  0  0  0  0  0
  -24.8990  -28.8830   20.1750 C   0  0  0  0  0  0  0  0  0  0  0  0
  -26.0210  -30.7010   21.4510 C   0  0  0  0  0  2  0  0  0  0  0  0
  -26.0850  -29.2860   20.8020 C   0  0  0  0  0  0  0  0  0  0  0  0
  -27.2210  -28.3560   20.8140 C   0  0  0  0  0  3  0  0  0  0  0  0
  -25.9850  -26.7430   19.5550 C   0  0  0  0  0  3  0  0  0  0  0  0
  -24.8760  -27.6340   19.5330 C   0  0  0  0  0  3  0  0  0  0  0  0
  -23.6830  -29.8110   20.2180 C   0  0  0  0  0  2  0  0  0  0  0  0
  -24.7300  -31.0710   22.1390 N   0  0  0  0  0  0  0  0  0  0  0  0
  -23.5600  -32.2110   23.7360 O   0  0  0  0  0  0  0  0  0  0  0  0
  -22.7570  -29.5220   22.5650 C   0  0  0  0  0  0  0  0  0  0  0  0
  -21.4270  -29.3600   22.4400 N   0  0  0  0  0  0  0  0  0  0  0  0
  -23.4200  -28.9060   23.4030 O   0  0  0  0  0  0  0  0  0  0  0  0
  -20.9460  -29.9060   21.7390 H   0  0  0  0  0  0  0  0  0  0  0  0
  -18.0440  -28.1520   22.9520 C   0  0  0  0  0  0  0  0  0  0  0  0
  -20.6020  -28.4290   23.2190 C   0  0  0  0  0  3  0  0  0  0  0  0
  -20.7090  -26.9910   22.6620 C   0  0  0  0  0  2  0  0  0  0  0  0
  -19.6110  -26.6530   21.6480 C   0  0  0  0  0  2  0  0  0  0  0  0
  -18.2270  -26.7970   22.2870 C   0  0  0  0  0  2  0  0  0  0  0  0
  -19.1580  -28.9240   23.3750 C   0  0  0  0  0  0  0  0  0  0  0  0
  -18.9300  -30.1880   23.9610 C   0  0  0  0  0  3  0  0  0  0  0  0
  -17.6210  -30.6800   24.1270 C   0  0  0  0  0  3  0  0  0  0  0  0
  -16.5210  -29.9060   23.7180 C   0  0  0  0  0  3  0  0  0  0  0  0
  -16.7340  -28.6430   23.1360 C   0  0  0  0  0  3  0  0  0  0  0  0
  -25.9190  -32.5610   23.8500 C   0  0  0  0  0  3  0  0  0  0  0  0
  -26.4200  -31.8100   25.1460 C   0  0  1  0  0  0  0  0  0  0  0  0
  -25.3180  -31.5930   26.2080 C   0  0  0  0  0  1  0  0  0  0  0  0
  -27.0030  -30.4220   24.7900 C   0  0  0  0  0  1  0  0  0  0  0  0
  -27.5680  -32.6110   25.8050 C   0  0  0  0  0  1  0  0  0  0  0  0
  -25.6020  -33.9640   24.1730 N   0  0  0  0  0  0  0  0  0  0  0  0
  -25.9320  -35.0220   23.4200 C   0  0  0  0  0  0  0  0  0  0  0  0
  -26.5980  -34.9200   22.3860 O   0  0  0  0  0  0  0  0  0  0  0  0
  -25.0090  -34.1170   24.9760 H   0  0  0  0  0  0  0  0  0  0  0  0
  -24.2010  -36.8210   23.0870 C   0  0  0  0  0  1  0  0  0  0  0  0
  -25.4510  -36.4130   23.8830 C   0  0  0  0  0  3  0  0  0  0  0  0
  -27.5930  -37.3030   24.6930 C   0  0  0  0  0  1  0  0  0  0  0  0
  -26.4820  -37.4660   23.7580 N   0  0  0  0  0  0  0  0  0  0  0  0
  -26.0770  -38.3880   23.9050 H   0  0  0  0  0  0  0  0  0  0  0  0
  2  3  1  0
  2  1  1  1
  5  4  2  0
  5  2  1  0
  6  5  1  0
  7  6  2  0
  7  8  1  0
  8  4  1  0
 10  9  1  0
 10 11  1  0
 10  8  1  0
 11 17  1  0
 12 17  1  0
 13 14  1  0
 13 12  1  0
 15 14  1  0
 15 22  1  0
 15 16  1  0
 17 16  1  0
 18 11  2  0
 19 20  2  0
 20 39  1  0
 21 20  1  0
 21 24  1  0
 22 19  1  0
 22 23  1  0
 23 21  2  0
 24 25  1  0
 25 26  2  0
 27 30  1  0
 27 26  1  0
 28 27  2  0
 29 28  1  0
 29 24  2  0
 30 31  1  0
 31 32  1  0
 32 33  2  0
 34 33  1  0
 34 38  1  0
 35 34  2  0
 36 31  2  0
 36 35  1  0
 37 36  1  0
 39 40  1  0
 40 43  1  0
 40 42  1  0
 41 39  2  0
 44 45  1  0
 44 19  1  0
 46 44  1  0
 47 48  1  0
 47  2  1  0
 49 60  2  0
 50 48  1  0
 50 55  1  0
 51 59  1  0
 51 61  1  0
 52 58  1  0
 52 54  1  0
 53 59  1  0
 54 55  2  0
 54 53  1  0
 56 50  2  0
 57 56  1  0
 57 52  2  0
 58 51  1  0
 59 49  1  0
 61 63  2  0
 62 61  1  0
 64 62  1  0
 65 74  2  0
 65 70  1  0
 66 62  1  0
 66 70  1  0
 67 66  1  0
 68 69  1  0
 68 67  1  0
 69 65  1  0
 70 71  2  0
 71 72  1  0
 73 72  2  0
 74 73  1  0
 75 49  1  0
 75 80  1  0
 75 76  1  0
 76 79  1  1
 76 77  1  0
 78 76  1  0
 80 83  1  0
 81 85  1  0
 81 80  1  0
 82 81  2  0
 85 84  1  0
 87 85  1  0
 87 88  1  0
 87 86  1  0
M  ISO  4  10 100  11 100  47 101  48 101
M  END
>  <TORSDO>  (90) 
F 19

>  <SCORE>  (90) 
-16.959

>  <name>  (90) 
93

>  <ligand_id>  (90) 
93

>  <original_smiles>  (90) 
[H]c1c([H])c([H])c2c(c1[H])C([H])([H])C([H])([H])C([H])([H])C2([H])N([H])C(=O)C1([H])N(C(=O)C([H])(N([H])C(=O)C([H])(N([H])C([H])([H])[H])C([H])([H])[H])C(C([H])([H])[H])(C([H])([H])[H])C([H])([H])[H])C([H])([H])c2c([H])c(OC([H])([H])C(F)(c3nnn(C([H])(C(=O)N4C([H])([H])C([H])([H])C([H])([H])C([H])(n5nc(-c6c([H])c([H])c(Oc7c([H])c([H])c(F)c([H])c7F)c([H])c6[H])c(C(=O)N([H])[H])c5N([H])[H])C4([H])[H])C([H])([H])[H])c3[H])C([H])([H])[H])c([H])c([H])c2C1([H])[H]

>  <smiles>  (90) 
[H]c1c([H])c([H])c2c(c1[H])C([H])([H])C([H])([H])C([H])([H])C2([H])N([H])C(=O)C1([H])N(C(=O)C([H])(N([H])C(=O)C([H])(N([H])C([H])([H])[H])C([H])([H])[H])C(C([H])([H])[H])(C([H])([H])[H])C([H])([H])[H])C([H])([H])c2c([H])c(OC([H])([H])C(F)(c3nnn(C([H])(C(=O)N4C([H])([H])C([H])([H])C([H])([H])C([H])(n5nc(-c6c([H])c([H])c(Oc7c([H])c([H])c(F)c([H])c7F)c([H])c6[H])c(C(=O)N([H])[H])c5N([H])[H])C4([H])[H])C([H])([H])[H])c3[H])C([H])([H])[H])c([H])c([H])c2C1([H])[H]

$$$$
94:0:0
     RDKit          3D

 86 94  0  0  1  0  0  0  0  0999 V2000
  -28.8690  -22.4310   20.1970 C   0  0  0  0  0  2  0  0  0  0  0  0
  -28.2310  -24.1220   19.7000 C   0  0  0  0  0  2  0  0  0  0  0  0
  -28.2370  -25.7480   20.2130 O   0  0  0  0  0  0  0  0  0  0  0  0
  -24.5740  -31.7590   23.1570 C   0  0  0  0  0  0  0  0  0  0  0  0
  -27.2170  -26.8710   20.1150 C   0  0  0  0  0  0  0  0  0  0  0  0
  -23.4030  -30.3360   21.5270 C   0  0  0  0  0  3  0  0  0  0  0  0
  -24.8800  -28.7560   20.0850 C   0  0  0  0  0  0  0  0  0  0  0  0
  -25.9670  -30.5860   21.3660 C   0  0  0  0  0  2  0  0  0  0  0  0
  -26.0650  -29.1690   20.7060 C   0  0  0  0  0  0  0  0  0  0  0  0
  -27.2200  -28.2480   20.6970 C   0  0  0  0  0  3  0  0  0  0  0  0
  -26.0000  -26.6370   19.4330 C   0  0  0  0  0  3  0  0  0  0  0  0
  -24.8780  -27.5150   19.4260 C   0  0  0  0  0  3  0  0  0  0  0  0
  -23.6400  -29.6560   20.1490 C   0  0  0  0  0  2  0  0  0  0  0  0
  -24.6710  -30.9240   22.0700 N   0  0  0  0  0  0  0  0  0  0  0  0
  -23.4810  -32.0240   23.6860 O   0  0  0  0  0  0  0  0  0  0  0  0
  -22.7350  -29.3280   22.5010 C   0  0  0  0  0  0  0  0  0  0  0  0
  -21.4080  -29.1280   22.3840 N   0  0  0  0  0  0  0  0  0  0  0  0
  -23.4190  -28.7260   23.3310 O   0  0  0  0  0  0  0  0  0  0  0  0
  -20.9050  -29.6680   21.6940 H   0  0  0  0  0  0  0  0  0  0  0  0
  -18.0660  -27.8110   22.9120 C   0  0  0  0  0  0  0  0  0  0  0  0
  -20.6170  -28.1660   23.1620 C   0  0  0  0  0  3  0  0  0  0  0  0
  -20.7640  -26.7360   22.5910 C   0  0  0  0  0  2  0  0  0  0  0  0
  -19.6670  -26.3740   21.5820 C   0  0  0  0  0  2  0  0  0  0  0  0
  -18.2860  -26.4710   22.2330 C   0  0  0  0  0  2  0  0  0  0  0  0
  -19.1610  -28.6140   23.3340 C   0  0  0  0  0  0  0  0  0  0  0  0
  -18.8970  -29.8650   23.9340 C   0  0  0  0  0  3  0  0  0  0  0  0
  -17.5760  -30.3150   24.1120 C   0  0  0  0  0  3  0  0  0  0  0  0
  -16.4970  -29.5110   23.7030 C   0  0  0  0  0  3  0  0  0  0  0  0
  -16.7430  -28.2610   23.1100 C   0  0  0  0  0  3  0  0  0  0  0  0
  -25.8310  -32.4370   23.7830 C   0  0  0  0  0  3  0  0  0  0  0  0
  -26.3320  -31.7160   25.0960 C   0  0  1  0  0  0  0  0  0  0  0  0
  -25.2230  -31.5010   26.1520 C   0  0  0  0  0  1  0  0  0  0  0  0
  -26.9420  -30.3330   24.7690 C   0  0  0  0  0  1  0  0  0  0  0  0
  -27.4610  -32.5470   25.7510 C   0  0  0  0  0  1  0  0  0  0  0  0
  -25.4940  -33.8420   24.0780 N   0  0  0  0  0  0  0  0  0  0  0  0
  -25.8090  -34.8880   23.3050 C   0  0  0  0  0  0  0  0  0  0  0  0
  -26.4750  -34.7750   22.2720 O   0  0  0  0  0  0  0  0  0  0  0  0
  -24.9000  -34.0020   24.8790 H   0  0  0  0  0  0  0  0  0  0  0  0
  -24.0520  -36.6580   22.9450 C   0  0  0  0  0  1  0  0  0  0  0  0
  -25.3120  -36.2830   23.7420 C   0  0  0  0  0  3  0  0  0  0  0  0
  -27.4450  -37.2220   24.5200 C   0  0  0  0  0  1  0  0  0  0  0  0
  -26.3280  -37.3480   23.5880 N   0  0  0  0  0  0  0  0  0  0  0  0
  -25.9100  -38.2650   23.7150 H   0  0  0  0  0  0  0  0  0  0  0  0
  -29.3410  -21.0150   19.4010 O   0  0  0  0  0  0  0  0  0  0  0  0
  -29.7450  -17.1080   19.5570 C   0  0  0  0  0  0  0  0  0  0  0  0
  -29.4000  -19.5180   19.6800 C   0  0  0  0  0  0  0  0  0  0  0  0
  -27.3260  -19.3020   21.1020 C   0  0  0  0  0  1  0  0  0  0  0  0
  -30.2250  -18.4530   19.1560 N   0  0  0  0  0  0  0  0  0  0  0  0
  -28.6720  -17.3800   20.3310 N   0  0  0  0  0  0  0  0  0  0  0  0
  -28.4750  -18.7970   20.3810 N   0  0  0  0  0  0  0  0  0  0  0  0
  -30.4120  -15.5180   19.3320 C   0  0  0  0  0  0  0  0  0  0  0  0
  -30.3080  -13.0120   18.5360 C   0  0  0  0  0  2  0  0  0  0  0  0
  -29.2730  -12.7360   17.4130 C   0  0  0  0  0  2  0  0  0  0  0  0
  -27.8920  -12.4380   18.0160 C   0  0  0  0  0  2  0  0  0  0  0  0
  -27.5420  -13.4350   19.1460 C   0  0  0  0  0  3  0  0  0  0  0  0
  -28.6950  -13.6680   20.1450 C   0  0  0  0  0  2  0  0  0  0  0  0
  -29.8460  -14.1900   19.3850 N   0  0  0  0  0  0  0  0  0  0  0  0
  -31.5880  -15.4390   18.9270 O   0  0  0  0  0  0  0  0  0  0  0  0
  -25.3050  -13.9990   20.2140 C   0  0  0  0  0  0  0  0  0  0  0  0
  -24.2780  -13.2280   20.6810 C   0  0  0  0  0  0  0  0  0  0  0  0
  -24.7080  -11.8720   20.5480 C   0  0  0  0  0  0  0  0  0  0  0  0
  -26.2860  -13.1160   19.8100 N   0  0  0  0  0  0  0  0  0  0  0  0
  -25.9510  -11.8260   20.0790 N   0  0  0  0  0  0  0  0  0  0  0  0
  -23.9790  -10.6160   20.7830 C   0  0  0  0  0  0  0  0  0  0  0  0
  -24.4490   -9.6470   21.6950 C   0  0  0  0  0  3  0  0  0  0  0  0
  -23.7170   -8.4610   21.9210 C   0  0  0  0  0  3  0  0  0  0  0  0
  -22.5000   -8.2350   21.2340 C   0  0  0  0  0  0  0  0  0  0  0  0
  -22.0480   -9.1940   20.3100 C   0  0  0  0  0  3  0  0  0  0  0  0
  -22.7810  -10.3710   20.0820 C   0  0  0  0  0  3  0  0  0  0  0  0
  -21.7340   -7.1020   21.3700 O   0  0  0  0  0  0  0  0  0  0  0  0
  -21.6750   -6.4120   22.5540 C   0  0  0  0  0  0  0  0  0  0  0  0
  -21.2480   -7.0250   23.7520 C   0  0  0  0  0  3  0  0  0  0  0  0
  -21.1340   -6.2610   24.9320 C   0  0  0  0  0  3  0  0  0  0  0  0
  -21.4370   -4.8870   24.9140 C   0  0  0  0  0  0  0  0  0  0  0  0
  -21.8580   -4.2740   23.7200 C   0  0  0  0  0  3  0  0  0  0  0  0
  -21.9740   -5.0350   22.5440 C   0  0  0  0  0  0  0  0  0  0  0  0
  -22.3580   -4.4350   21.3920 F   0  0  0  0  0  0  0  0  0  0  0  0
  -21.3210   -4.1520   26.0440 F   0  0  0  0  0  0  0  0  0  0  0  0
  -22.9350  -13.7220   21.1300 C   0  0  0  0  0  0  0  0  0  0  0  0
  -22.3080  -13.0190   22.0670 N   0  0  0  0  0  0  0  0  0  0  0  0
  -22.4570  -14.7650   20.6880 O   0  0  0  0  0  0  0  0  0  0  0  0
  -22.7130  -12.1740   22.4430 H   0  0  0  0  0  0  0  0  0  0  0  0
  -21.4100  -13.3270   22.4120 H   0  0  0  0  0  0  0  0  0  0  0  0
  -25.4790  -15.3730   20.0730 N   0  0  0  0  0  0  0  0  0  0  0  0
  -24.7620  -16.0390   20.3370 H   0  0  0  0  0  0  0  0  0  0  0  0
  -26.3270  -15.8130   19.7410 H   0  0  0  0  0  0  0  0  0  0  0  0
  2  1  1  0
  2  3  1  0
  4 15  2  0
  5  3  1  0
  5 10  1  0
  6 14  1  0
  6 16  1  0
  7 13  1  0
  7  9  1  0
  8 14  1  0
  9  8  1  0
 10  9  2  0
 11  5  2  0
 12 11  1  0
 12  7  2  0
 13  6  1  0
 14  4  1  0
 16 18  2  0
 17 16  1  0
 19 17  1  0
 20 29  2  0
 20 25  1  0
 21 17  1  0
 21 25  1  0
 22 21  1  0
 23 24  1  0
 23 22  1  0
 24 20  1  0
 25 26  2  0
 26 27  1  0
 28 27  2  0
 29 28  1  0
 30  4  1  0
 30 35  1  0
 30 31  1  0
 31 34  1  1
 31 32  1  0
 33 31  1  0
 35 38  1  0
 36 40  1  0
 36 35  1  0
 37 36  2  0
 40 39  1  0
 42 43  1  0
 42 40  1  0
 42 41  1  0
 44 46  1  0
 44  1  1  0
 45 49  2  0
 46 50  1  0
 48 45  1  0
 48 46  2  0
 49 50  1  0
 50 47  1  0
 51 57  1  0
 51 45  1  0
 52 57  1  0
 53 54  1  0
 53 52  1  0
 55 54  1  0
 55 62  1  0
 55 56  1  0
 57 56  1  0
 58 51  2  0
 59 60  2  0
 60 79  1  0
 61 60  1  0
 61 64  1  0
 62 63  1  0
 62 59  1  0
 63 61  2  0
 64 65  1  0
 65 66  2  0
 67 70  1  0
 67 66  1  0
 68 67  2  0
 69 68  1  0
 69 64  2  0
 70 71  1  0
 71 72  1  0
 72 73  2  0
 74 73  1  0
 74 78  1  0
 75 74  2  0
 76 71  2  0
 76 75  1  0
 77 76  1  0
 79 80  1  0
 80 83  1  0
 80 82  1  0
 81 79  2  0
 84 59  1  0
 84 85  1  0
 86 84  1  0
M  ISO  4   2 101   3 101  45 100  51 100
M  END
>  <TORSDO>  (91) 
F 19

>  <SCORE>  (91) 
-13.373

>  <name>  (91) 
94

>  <ligand_id>  (91) 
94

>  <original_smiles>  (91) 
[H]c1c([H])c([H])c2c(c1[H])C([H])([H])C([H])([H])C([H])([H])C2([H])N([H])C(=O)C1([H])N(C(=O)C([H])(N([H])C(=O)C([H])(N([H])C([H])([H])[H])C([H])([H])[H])C(C([H])([H])[H])(C([H])([H])[H])C([H])([H])[H])C([H])([H])c2c([H])c(OC([H])([H])C([H])([H])Oc3nc(C(=O)N4C([H])([H])C([H])([H])C([H])([H])C([H])(n5nc(-c6c([H])c([H])c(Oc7c([H])c([H])c(F)c([H])c7F)c([H])c6[H])c(C(=O)N([H])[H])c5N([H])[H])C4([H])[H])nn3C([H])([H])[H])c([H])c([H])c2C1([H])[H]

>  <smiles>  (91) 
[H]c1c([H])c([H])c2c(c1[H])C([H])([H])C([H])([H])C([H])([H])C2([H])N([H])C(=O)C1([H])N(C(=O)C([H])(N([H])C(=O)C([H])(N([H])C([H])([H])[H])C([H])([H])[H])C(C([H])([H])[H])(C([H])([H])[H])C([H])([H])[H])C([H])([H])c2c([H])c(OC([H])([H])C([H])([H])Oc3nc(C(=O)N4C([H])([H])C([H])([H])C([H])([H])C([H])(n5nc(-c6c([H])c([H])c(Oc7c([H])c([H])c(F)c([H])c7F)c([H])c6[H])c(C(=O)N([H])[H])c5N([H])[H])C4([H])[H])nn3C([H])([H])[H])c([H])c([H])c2C1([H])[H]

$$$$
95:0:0
     RDKit          3D

 89 97  0  0  1  0  0  0  0  0999 V2000
  -29.4490  -20.8710   20.3730 C   0  0  0  0  0  3  0  0  0  0  0  0
  -27.1070  -18.4830   19.2170 C   0  0  0  0  0  3  0  0  0  0  0  0
  -29.0800  -18.1900   19.8590 C   0  0  0  0  0  0  0  0  0  0  0  0
  -28.0350  -17.5060   19.3870 N   0  0  0  0  0  0  0  0  0  0  0  0
  -27.5010  -19.7070   19.5350 N   0  0  0  0  0  0  0  0  0  0  0  0
  -28.7890  -19.5610   19.9520 N   0  0  0  0  0  0  0  0  0  0  0  0
  -30.3680  -17.3640   20.1550 C   0  0  0  0  0  2  0  0  0  0  0  0
  -30.7670  -14.7850   20.0660 C   0  0  0  0  0  0  0  0  0  0  0  0
  -30.4720  -12.5630   18.9400 C   0  0  0  0  0  2  0  0  0  0  0  0
  -29.4660  -12.6730   17.7700 C   0  0  0  0  0  2  0  0  0  0  0  0
  -28.0180  -12.4990   18.2670 C   0  0  0  0  0  2  0  0  0  0  0  0
  -27.7230  -13.3410   19.5350 C   0  0  0  0  0  3  0  0  0  0  0  0
  -28.8330  -13.1600   20.5870 C   0  0  0  0  0  2  0  0  0  0  0  0
  -30.1040  -13.5730   19.9660 N   0  0  0  0  0  0  0  0  0  0  0  0
  -31.8590  -14.9140   19.5010 O   0  0  0  0  0  0  0  0  0  0  0  0
  -29.6700  -15.8780   21.9890 C   0  0  0  0  0  1  0  0  0  0  0  0
  -30.1270  -15.9090   20.5920 N   0  0  0  0  0  0  0  0  0  0  0  0
  -25.3790  -13.9320   20.3960 C   0  0  0  0  0  0  0  0  0  0  0  0
  -24.3270  -13.1550   20.8040 C   0  0  0  0  0  0  0  0  0  0  0  0
  -24.7800  -11.8020   20.7210 C   0  0  0  0  0  0  0  0  0  0  0  0
  -26.4020  -13.0510   20.0850 N   0  0  0  0  0  0  0  0  0  0  0  0
  -26.0510  -11.7640   20.3420 N   0  0  0  0  0  0  0  0  0  0  0  0
  -24.0570  -10.5400   20.9260 C   0  0  0  0  0  0  0  0  0  0  0  0
  -24.4980   -9.5780   21.8620 C   0  0  0  0  0  3  0  0  0  0  0  0
  -23.7750   -8.3810   22.0540 C   0  0  0  0  0  3  0  0  0  0  0  0
  -22.5950   -8.1380   21.3100 C   0  0  0  0  0  0  0  0  0  0  0  0
  -22.1730   -9.0880   20.3640 C   0  0  0  0  0  3  0  0  0  0  0  0
  -22.8980  -10.2770   20.1700 C   0  0  0  0  0  3  0  0  0  0  0  0
  -21.8430   -6.9930   21.4100 O   0  0  0  0  0  0  0  0  0  0  0  0
  -21.7500   -6.2920   22.5860 C   0  0  0  0  0  0  0  0  0  0  0  0
  -21.2760   -6.8920   23.7740 C   0  0  0  0  0  3  0  0  0  0  0  0
  -21.1320   -6.1180   24.9430 C   0  0  0  0  0  3  0  0  0  0  0  0
  -21.4500   -4.7470   24.9240 C   0  0  0  0  0  0  0  0  0  0  0  0
  -21.9140   -4.1480   23.7400 C   0  0  0  0  0  3  0  0  0  0  0  0
  -22.0600   -4.9180   22.5740 C   0  0  0  0  0  0  0  0  0  0  0  0
  -22.4890   -4.3310   21.4300 F   0  0  0  0  0  0  0  0  0  0  0  0
  -21.3030   -4.0010   26.0440 F   0  0  0  0  0  0  0  0  0  0  0  0
  -22.9510  -13.6340   21.1620 C   0  0  0  0  0  0  0  0  0  0  0  0
  -22.2750  -12.9330   22.0660 N   0  0  0  0  0  0  0  0  0  0  0  0
  -22.4860  -14.6640   20.6760 O   0  0  0  0  0  0  0  0  0  0  0  0
  -22.6660  -12.0990   22.4800 H   0  0  0  0  0  0  0  0  0  0  0  0
  -21.3550  -13.2360   22.3500 H   0  0  0  0  0  0  0  0  0  0  0  0
  -25.5450  -15.3050   20.2450 N   0  0  0  0  0  0  0  0  0  0  0  0
  -24.7980  -15.9640   20.4280 H   0  0  0  0  0  0  0  0  0  0  0  0
  -26.4110  -15.7530   19.9570 H   0  0  0  0  0  0  0  0  0  0  0  0
  -28.5980  -22.2420   20.1040 C   0  0  0  0  0  3  0  0  0  0  0  0
  -29.0770  -23.7480   20.4640 C   0  0  0  0  0  3  0  0  0  0  0  0
  -28.0500  -24.9460   20.1050 C   0  0  0  0  0  3  0  0  0  0  0  0
  -28.3000  -26.4060   20.3650 O   0  0  0  0  0  0  0  0  0  0  0  0
  -24.5770  -31.8960   23.3150 C   0  0  0  0  0  0  0  0  0  0  0  0
  -27.2030  -27.2990   20.2850 C   0  0  0  0  0  0  0  0  0  0  0  0
  -23.3870  -30.5010   21.6660 C   0  0  0  0  0  3  0  0  0  0  0  0
  -24.8490  -28.9500   20.2500 C   0  0  0  0  0  0  0  0  0  0  0  0
  -25.9340  -30.8040   21.5090 C   0  0  0  0  0  2  0  0  0  0  0  0
  -26.0170  -29.4260   20.8580 C   0  0  0  0  0  0  0  0  0  0  0  0
  -27.1970  -28.6140   20.8640 C   0  0  0  0  0  3  0  0  0  0  0  0
  -26.0080  -26.8950   19.6440 C   0  0  0  0  0  3  0  0  0  0  0  0
  -24.8510  -27.6930   19.6320 C   0  0  0  0  0  3  0  0  0  0  0  0
  -23.6140  -29.8270   20.2880 C   0  0  0  0  0  2  0  0  0  0  0  0
  -24.6520  -31.0850   22.2190 N   0  0  0  0  0  0  0  0  0  0  0  0
  -23.4890  -32.1780   23.8380 O   0  0  0  0  0  0  0  0  0  0  0  0
  -22.7110  -29.4860   22.6200 C   0  0  0  0  0  0  0  0  0  0  0  0
  -21.3860  -29.3080   22.4770 N   0  0  0  0  0  0  0  0  0  0  0  0
  -23.3780  -28.8610   23.4470 O   0  0  0  0  0  0  0  0  0  0  0  0
  -20.9060  -29.8640   21.7830 H   0  0  0  0  0  0  0  0  0  0  0  0
  -18.0000  -28.1170   22.9440 C   0  0  0  0  0  0  0  0  0  0  0  0
  -20.5570  -28.3730   23.2410 C   0  0  0  0  0  3  0  0  0  0  0  0
  -20.6630  -26.9410   22.6680 C   0  0  0  0  0  2  0  0  0  0  0  0
  -19.5700  -26.6200   21.6420 C   0  0  0  0  0  2  0  0  0  0  0  0
  -18.1820  -26.7670   22.2710 C   0  0  0  0  0  2  0  0  0  0  0  0
  -19.1160  -28.8780   23.3850 C   0  0  0  0  0  0  0  0  0  0  0  0
  -18.8920  -30.1410   23.9760 C   0  0  0  0  0  3  0  0  0  0  0  0
  -17.5880  -30.6440   24.1280 C   0  0  0  0  0  3  0  0  0  0  0  0
  -16.4850  -29.8800   23.7030 C   0  0  0  0  0  3  0  0  0  0  0  0
  -16.6930  -28.6190   23.1180 C   0  0  0  0  0  3  0  0  0  0  0  0
  -25.8540  -32.5270   23.9510 C   0  0  0  0  0  3  0  0  0  0  0  0
  -25.5510  -33.9340   24.2540 N   0  0  0  0  0  0  0  0  0  0  0  0
  -25.8910  -34.9720   23.4780 C   0  0  0  0  0  0  0  0  0  0  0  0
  -26.5590  -34.8450   22.4480 O   0  0  0  0  0  0  0  0  0  0  0  0
  -24.9550  -34.1070   25.0500 H   0  0  0  0  0  0  0  0  0  0  0  0
  -24.1630  -36.7610   23.1040 C   0  0  0  0  0  1  0  0  0  0  0  0
  -25.4120  -36.3720   23.9100 C   0  0  0  0  0  3  0  0  0  0  0  0
  -27.5570  -37.2660   24.6990 C   0  0  0  0  0  1  0  0  0  0  0  0
  -26.4460  -37.4190   23.7630 N   0  0  0  0  0  0  0  0  0  0  0  0
  -26.0470  -38.3430   23.8960 H   0  0  0  0  0  0  0  0  0  0  0  0
  -26.3380  -31.7730   25.2490 C   0  0  1  0  0  0  0  0  0  0  0  0
  -25.2210  -31.5640   26.2980 C   0  0  0  0  0  1  0  0  0  0  0  0
  -26.9150  -30.3840   24.8910 C   0  0  0  0  0  1  0  0  0  0  0  0
  -27.4840  -32.5680   25.9180 C   0  0  0  0  0  1  0  0  0  0  0  0
  2  4  1  0
  2  5  2  0
  3  6  1  0
  3  7  1  0
  4  3  2  0
  5  6  1  0
  6  1  1  0
  7 17  1  0
  8 17  1  0
  9 14  1  0
 10 11  1  0
 10  9  1  0
 12 11  1  0
 12 21  1  0
 12 13  1  0
 14  8  1  0
 14 13  1  0
 15  8  2  0
 17 16  1  0
 18 19  2  0
 19 38  1  0
 20 19  1  0
 20 23  1  0
 21 22  1  0
 21 18  1  0
 22 20  2  0
 23 24  1  0
 24 25  2  0
 26 29  1  0
 26 25  1  0
 27 26  2  0
 28 27  1  0
 28 23  2  0
 29 30  1  0
 30 31  1  0
 31 32  2  0
 33 32  1  0
 33 37  1  0
 34 33  2  0
 35 30  2  0
 35 34  1  0
 36 35  1  0
 38 39  1  0
 39 42  1  0
 39 41  1  0
 40 38  2  0
 43 18  1  0
 43 44  1  0
 45 43  1  0
 46  1  2  0
 46 47  1  0
 48 49  1  0
 48 47  2  0
 50 61  2  0
 51 49  1  0
 51 56  1  0
 52 60  1  0
 52 62  1  0
 53 59  1  0
 53 55  1  0
 54 60  1  0
 55 56  2  0
 55 54  1  0
 57 51  2  0
 58 57  1  0
 58 53  2  0
 59 52  1  0
 60 50  1  0
 62 64  2  0
 63 62  1  0
 65 63  1  0
 66 75  2  0
 66 71  1  0
 67 63  1  0
 67 71  1  0
 68 67  1  0
 69 70  1  0
 69 68  1  0
 70 66  1  0
 71 72  2  0
 72 73  1  0
 74 73  2  0
 75 74  1  0
 76 50  1  0
 76 77  1  0
 76 86  1  0
 77 80  1  0
 78 82  1  0
 78 77  1  0
 79 78  2  0
 82 81  1  0
 84 85  1  0
 84 82  1  0
 84 83  1  0
 86 89  1  1
 86 87  1  0
 88 86  1  0
M  ISO  4   8 100  17 100  48 101  49 101
M  END
>  <TORSDO>  (92) 
F 21

>  <SCORE>  (92) 
-12.778

>  <name>  (92) 
95

>  <ligand_id>  (92) 
95

>  <original_smiles>  (92) 
[H]c1nc(C([H])([H])N(C(=O)N2C([H])([H])C([H])([H])C([H])([H])C([H])(n3nc(-c4c([H])c([H])c(Oc5c([H])c([H])c(F)c([H])c5F)c([H])c4[H])c(C(=O)N([H])[H])c3N([H])[H])C2([H])[H])C([H])([H])[H])n(C([H])([H])C([H])([H])C([H])([H])C([H])([H])Oc2c([H])c([H])c3c(c2[H])C([H])([H])N(C(=O)C([H])(N([H])C(=O)C([H])(N([H])C([H])([H])[H])C([H])([H])[H])C(C([H])([H])[H])(C([H])([H])[H])C([H])([H])[H])C([H])(C(=O)N([H])C2([H])c4c([H])c([H])c([H])c([H])c4C([H])([H])C([H])([H])C2([H])[H])C3([H])[H])n1

>  <smiles>  (92) 
[H]c1nc(C([H])([H])N(C(=O)N2C([H])([H])C([H])([H])C([H])([H])C([H])(n3nc(-c4c([H])c([H])c(Oc5c([H])c([H])c(F)c([H])c5F)c([H])c4[H])c(C(=O)N([H])[H])c3N([H])[H])C2([H])[H])C([H])([H])[H])n(C([H])([H])C([H])([H])C([H])([H])C([H])([H])Oc2c([H])c([H])c3c(c2[H])C([H])([H])N(C(=O)C([H])(N([H])C(=O)C([H])(N([H])C([H])([H])[H])C([H])([H])[H])C(C([H])([H])[H])(C([H])([H])[H])C([H])([H])[H])C([H])(C(=O)N([H])C2([H])c4c([H])c([H])c([H])c([H])c4C([H])([H])C([H])([H])C2([H])[H])C3([H])[H])n1

$$$$
96:0:0
     RDKit          3D

 88 96  0  0  1  0  0  0  0  0999 V2000
  -27.9500  -19.6790   20.4230 C   0  0  0  0  0  2  0  0  0  0  0  0
  -28.5840  -21.8330   20.0120 C   0  0  0  0  0  0  0  0  0  0  0  0
  -27.5480  -21.0130   20.4500 N   0  0  0  0  0  0  0  0  0  0  0  0
  -29.6140  -20.7710   19.7580 N   0  0  0  0  0  2  0  0  0  0  0  0
  -29.1920  -19.2690   20.0320 N   0  0  0  0  0  0  0  0  0  0  0  0
  -28.1750  -23.6500   19.5210 C   0  0  0  0  0  2  0  0  0  0  0  0
  -28.0860  -25.3300   20.1710 O   0  0  0  0  0  0  0  0  0  0  0  0
  -24.6660  -31.7540   23.0580 C   0  0  0  0  0  0  0  0  0  0  0  0
  -27.1630  -26.6100   20.0300 C   0  0  0  0  0  0  0  0  0  0  0  0
  -23.4610  -30.3540   21.4360 C   0  0  0  0  0  3  0  0  0  0  0  0
  -24.8970  -28.6960   19.9990 C   0  0  0  0  0  0  0  0  0  0  0  0
  -26.0420  -30.4740   21.2920 C   0  0  0  0  0  2  0  0  0  0  0  0
  -26.0980  -29.0340   20.6330 C   0  0  0  0  0  0  0  0  0  0  0  0
  -27.2030  -28.0160   20.6250 C   0  0  0  0  0  3  0  0  0  0  0  0
  -25.9340  -26.5160   19.3200 C   0  0  0  0  0  3  0  0  0  0  0  0
  -24.8590  -27.4640   19.3190 C   0  0  0  0  0  3  0  0  0  0  0  0
  -23.6870  -29.6490   20.0640 C   0  0  0  0  0  2  0  0  0  0  0  0
  -24.7490  -30.8950   21.9810 N   0  0  0  0  0  0  0  0  0  0  0  0
  -23.5770  -32.0580   23.5780 O   0  0  0  0  0  0  0  0  0  0  0  0
  -22.7500  -29.3840   22.4200 C   0  0  0  0  0  0  0  0  0  0  0  0
  -21.4130  -29.2440   22.3180 N   0  0  0  0  0  0  0  0  0  0  0  0
  -23.4130  -28.7560   23.2470 O   0  0  0  0  0  0  0  0  0  0  0  0
  -20.9280  -29.8000   21.6290 H   0  0  0  0  0  0  0  0  0  0  0  0
  -18.0310  -28.0310   22.8720 C   0  0  0  0  0  0  0  0  0  0  0  0
  -20.5940  -28.3100   23.1020 C   0  0  0  0  0  3  0  0  0  0  0  0
  -20.6910  -26.8760   22.5300 C   0  0  0  0  0  2  0  0  0  0  0  0
  -19.5800  -26.5480   21.5270 C   0  0  0  0  0  2  0  0  0  0  0  0
  -18.2060  -26.6850   22.1880 C   0  0  0  0  0  2  0  0  0  0  0  0
  -19.1520  -28.8010   23.2860 C   0  0  0  0  0  0  0  0  0  0  0  0
  -18.9300  -30.0560   23.8920 C   0  0  0  0  0  3  0  0  0  0  0  0
  -17.6240  -30.5440   24.0860 C   0  0  0  0  0  3  0  0  0  0  0  0
  -16.5190  -29.7730   23.6830 C   0  0  0  0  0  3  0  0  0  0  0  0
  -16.7240  -28.5170   23.0830 C   0  0  0  0  0  3  0  0  0  0  0  0
  -25.9320  -32.4080   23.6890 C   0  0  0  0  0  3  0  0  0  0  0  0
  -26.4620  -31.6290   24.9570 C   0  0  1  0  0  0  0  0  0  0  0  0
  -25.3790  -31.3780   26.0320 C   0  0  0  0  0  1  0  0  0  0  0  0
  -27.0490  -30.2550   24.5620 C   0  0  0  0  0  1  0  0  0  0  0  0
  -27.6160  -32.4230   25.6150 C   0  0  0  0  0  1  0  0  0  0  0  0
  -25.6000  -33.7990   24.0630 N   0  0  0  0  0  0  0  0  0  0  0  0
  -25.9210  -34.8900   23.3550 C   0  0  0  0  0  0  0  0  0  0  0  0
  -26.5840  -34.8330   22.3160 O   0  0  0  0  0  0  0  0  0  0  0  0
  -25.0030  -33.9150   24.8700 H   0  0  0  0  0  0  0  0  0  0  0  0
  -24.1800  -36.6970   23.1040 C   0  0  0  0  0  1  0  0  0  0  0  0
  -25.4370  -36.2610   23.8770 C   0  0  0  0  0  3  0  0  0  0  0  0
  -27.5800  -37.1320   24.7060 C   0  0  0  0  0  1  0  0  0  0  0  0
  -26.4620  -37.3250   23.7870 N   0  0  0  0  0  0  0  0  0  0  0  0
  -26.0520  -38.2360   23.9750 H   0  0  0  0  0  0  0  0  0  0  0  0
  -29.8210  -17.5450   20.3780 C   0  0  0  0  0  3  0  0  0  0  0  0
  -30.4700  -15.8380   19.7560 C   0  0  0  0  0  0  0  0  0  0  0  0
  -30.5270  -13.2540   18.9090 C   0  0  0  0  0  2  0  0  0  0  0  0
  -29.5560  -12.8620   17.7520 C   0  0  0  0  0  2  0  0  0  0  0  0
  -28.1700  -12.4850   18.2950 C   0  0  0  0  0  2  0  0  0  0  0  0
  -27.7380  -13.4700   19.4030 C   0  0  0  0  0  3  0  0  0  0  0  0
  -28.8410  -13.7840   20.4470 C   0  0  0  0  0  2  0  0  0  0  0  0
  -29.9750  -14.4360   19.7400 N   0  0  0  0  0  0  0  0  0  0  0  0
  -31.6390  -15.7440   19.3140 O   0  0  0  0  0  0  0  0  0  0  0  0
  -25.4490  -13.9980   20.3570 C   0  0  0  0  0  0  0  0  0  0  0  0
  -24.4090  -13.2210   20.7810 C   0  0  0  0  0  0  0  0  0  0  0  0
  -24.8610  -11.8680   20.6830 C   0  0  0  0  0  0  0  0  0  0  0  0
  -26.4610  -13.1240   20.0120 N   0  0  0  0  0  0  0  0  0  0  0  0
  -26.1270  -11.8320   20.2750 N   0  0  0  0  0  0  0  0  0  0  0  0
  -24.1340  -10.6080   20.9010 C   0  0  0  0  0  0  0  0  0  0  0  0
  -24.5900   -9.6370   21.8190 C   0  0  0  0  0  3  0  0  0  0  0  0
  -23.8580   -8.4480   22.0290 C   0  0  0  0  0  3  0  0  0  0  0  0
  -22.6540   -8.2210   21.3210 C   0  0  0  0  0  0  0  0  0  0  0  0
  -22.2150   -9.1790   20.3920 C   0  0  0  0  0  3  0  0  0  0  0  0
  -22.9470  -10.3590   20.1810 C   0  0  0  0  0  3  0  0  0  0  0  0
  -21.8910   -7.0850   21.4420 O   0  0  0  0  0  0  0  0  0  0  0  0
  -21.8470   -6.3650   22.6090 C   0  0  0  0  0  0  0  0  0  0  0  0
  -21.4430   -6.9490   23.8300 C   0  0  0  0  0  3  0  0  0  0  0  0
  -21.3500   -6.1580   24.9920 C   0  0  0  0  0  3  0  0  0  0  0  0
  -21.6460   -4.7830   24.9350 C   0  0  0  0  0  0  0  0  0  0  0  0
  -22.0420   -4.1990   23.7190 C   0  0  0  0  0  3  0  0  0  0  0  0
  -22.1410   -4.9880   22.5590 C   0  0  0  0  0  0  0  0  0  0  0  0
  -22.5040   -4.4130   21.3860 F   0  0  0  0  0  0  0  0  0  0  0  0
  -21.5470   -4.0220   26.0490 F   0  0  0  0  0  0  0  0  0  0  0  0
  -23.0390  -13.7050   21.1580 C   0  0  0  0  0  0  0  0  0  0  0  0
  -22.3720  -13.0120   22.0730 N   0  0  0  0  0  0  0  0  0  0  0  0
  -22.5730  -14.7380   20.6780 O   0  0  0  0  0  0  0  0  0  0  0  0
  -22.7610  -12.1790   22.4900 H   0  0  0  0  0  0  0  0  0  0  0  0
  -21.4560  -13.3230   22.3660 H   0  0  0  0  0  0  0  0  0  0  0  0
  -25.6180  -15.3720   20.2150 N   0  0  0  0  0  0  0  0  0  0  0  0
  -24.8880  -16.0360   20.4500 H   0  0  0  0  0  0  0  0  0  0  0  0
  -26.4860  -15.8150   19.9530 H   0  0  0  0  0  0  0  0  0  0  0  0
  -30.6050  -17.7080   21.7030 C   0  0  2  0  0  0  0  0  0  0  0  0
  -31.8500  -18.1140   21.4550 F   0  0  0  0  0  0  0  0  0  0  0  0
  -30.6700  -16.5590   22.3840 F   0  0  0  0  0  0  0  0  0  0  0  0
  -30.0140  -18.5970   22.5040 F   0  0  0  0  0  0  0  0  0  0  0  0
  1  3  1  0
  2  3  2  0
  4  2  1  0
  4  5  1  0
  5 48  1  0
  5  1  1  0
  6  2  1  0
  6  7  1  0
  8 19  2  0
  9  7  1  0
  9 14  1  0
 10 18  1  0
 10 20  1  0
 11 17  1  0
 11 13  1  0
 12 18  1  0
 13 12  1  0
 14 13  2  0
 15  9  2  0
 16 15  1  0
 16 11  2  0
 17 10  1  0
 18  8  1  0
 20 22  2  0
 21 20  1  0
 23 21  1  0
 24 33  2  0
 24 29  1  0
 25 21  1  0
 25 29  1  0
 26 25  1  0
 27 28  1  0
 27 26  1  0
 28 24  1  0
 29 30  2  0
 30 31  1  0
 32 31  2  0
 33 32  1  0
 34  8  1  0
 34 39  1  0
 34 35  1  0
 35 38  1  1
 35 36  1  0
 37 35  1  0
 39 42  1  0
 40 44  1  0
 40 39  1  0
 41 40  2  0
 44 43  1  0
 46 44  1  0
 46 47  1  0
 46 45  1  0
 48 49  1  0
 48 85  1  0
 50 55  1  0
 51 52  1  0
 51 50  1  0
 53 52  1  0
 53 60  1  0
 53 54  1  0
 55 49  1  0
 55 54  1  0
 56 49  2  0
 57 58  2  0
 58 77  1  0
 59 58  1  0
 59 62  1  0
 60 61  1  0
 60 57  1  0
 61 59  2  0
 62 63  1  0
 63 64  2  0
 65 68  1  0
 65 64  1  0
 66 65  2  0
 67 66  1  0
 67 62  2  0
 68 69  1  0
 69 70  1  0
 70 71  2  0
 72 71  1  0
 72 76  1  0
 73 72  2  0
 74 69  2  0
 74 73  1  0
 75 74  1  0
 77 78  1  0
 78 81  1  0
 78 80  1  0
 79 77  2  0
 82 57  1  0
 82 83  1  0
 84 82  1  0
 85 87  1  1
 85 88  1  0
 86 85  1  0
M  ISO  4   6 101   7 101  48 100  49 100
M  END
>  <TORSDO>  (93) 
F 19

>  <SCORE>  (93) 
-15.511

>  <name>  (93) 
96

>  <ligand_id>  (93) 
96

>  <original_smiles>  (93) 
[H]c1c([H])c([H])c2c(c1[H])C([H])([H])C([H])([H])C([H])([H])C2([H])N([H])C(=O)C1([H])N(C(=O)C([H])(N([H])C(=O)C([H])(N([H])C([H])([H])[H])C([H])([H])[H])C(C([H])([H])[H])(C([H])([H])[H])C([H])([H])[H])C([H])([H])c2c([H])c(OC([H])([H])c3nc([H])n(C([H])(C(=O)N4C([H])([H])C([H])([H])C([H])([H])C([H])(n5nc(-c6c([H])c([H])c(Oc7c([H])c([H])c(F)c([H])c7F)c([H])c6[H])c(C(=O)N([H])[H])c5N([H])[H])C4([H])[H])C(F)(F)F)n3)c([H])c([H])c2C1([H])[H]

>  <smiles>  (93) 
[H]c1c([H])c([H])c2c(c1[H])C([H])([H])C([H])([H])C([H])([H])C2([H])N([H])C(=O)C1([H])N(C(=O)C([H])(N([H])C(=O)C([H])(N([H])C([H])([H])[H])C([H])([H])[H])C(C([H])([H])[H])(C([H])([H])[H])C([H])([H])[H])C([H])([H])c2c([H])c(OC([H])([H])c3nc([H])n(C([H])(C(=O)N4C([H])([H])C([H])([H])C([H])([H])C([H])(n5nc(-c6c([H])c([H])c(Oc7c([H])c([H])c(F)c([H])c7F)c([H])c6[H])c(C(=O)N([H])[H])c5N([H])[H])C4([H])[H])C(F)(F)F)n3)c([H])c([H])c2C1([H])[H]

$$$$
97:0:0
     RDKit          3D

 91 99  0  0  1  0  0  0  0  0999 V2000
  -31.0490  -23.5910   20.8440 C   0  0  0  0  0  0  0  0  0  0  0  0
  -28.9900  -24.1730   20.2540 C   0  0  0  0  0  3  0  0  0  0  0  0
  -29.4820  -22.0350   20.7070 C   0  0  0  0  0  0  0  0  0  0  0  0
  -32.4960  -23.9440   21.1040 C   0  0  0  0  0  1  0  0  0  0  0  0
  -30.2350  -24.5800   20.4890 N   0  0  0  0  0  0  0  0  0  0  0  0
  -30.7460  -22.3070   20.9870 N   0  0  0  0  0  0  0  0  0  0  0  0
  -28.5550  -22.9090   20.3290 N   0  0  0  0  0  0  0  0  0  0  0  0
  -27.9420  -25.2260   19.8530 C   0  0  0  0  0  2  0  0  0  0  0  0
  -28.1360  -26.6100   20.2570 O   0  0  0  0  0  0  0  0  0  0  0  0
  -24.4890  -31.9620   23.3020 C   0  0  0  0  0  0  0  0  0  0  0  0
  -27.0080  -27.4260   20.2060 C   0  0  0  0  0  0  0  0  0  0  0  0
  -23.2470  -30.5890   21.6700 C   0  0  0  0  0  3  0  0  0  0  0  0
  -24.6570  -29.0310   20.2320 C   0  0  0  0  0  0  0  0  0  0  0  0
  -25.7840  -30.8780   21.4660 C   0  0  0  0  0  2  0  0  0  0  0  0
  -25.8330  -29.5040   20.8250 C   0  0  0  0  0  0  0  0  0  0  0  0
  -27.0100  -28.7080   20.8160 C   0  0  0  0  0  3  0  0  0  0  0  0
  -25.8080  -27.0030   19.5740 C   0  0  0  0  0  3  0  0  0  0  0  0
  -24.6420  -27.7800   19.6030 C   0  0  0  0  0  3  0  0  0  0  0  0
  -23.4350  -29.9160   20.2860 C   0  0  0  0  0  2  0  0  0  0  0  0
  -24.5250  -31.1570   22.2030 N   0  0  0  0  0  0  0  0  0  0  0  0
  -23.4140  -32.2600   23.8440 O   0  0  0  0  0  0  0  0  0  0  0  0
  -22.5780  -29.5780   22.6310 C   0  0  0  0  0  0  0  0  0  0  0  0
  -21.2600  -29.3760   22.4680 N   0  0  0  0  0  0  0  0  0  0  0  0
  -23.2440  -28.9790   23.4800 O   0  0  0  0  0  0  0  0  0  0  0  0
  -20.7840  -29.9120   21.7550 H   0  0  0  0  0  0  0  0  0  0  0  0
  -17.8980  -28.1050   22.8470 C   0  0  0  0  0  0  0  0  0  0  0  0
  -20.4290  -28.4460   23.2340 C   0  0  0  0  0  3  0  0  0  0  0  0
  -20.6000  -26.9960   22.7250 C   0  0  0  0  0  2  0  0  0  0  0  0
  -19.5590  -26.6020   21.6710 C   0  0  0  0  0  2  0  0  0  0  0  0
  -18.1440  -26.7350   22.2400 C   0  0  0  0  0  2  0  0  0  0  0  0
  -18.9720  -28.9150   23.3000 C   0  0  0  0  0  0  0  0  0  0  0  0
  -18.6910  -30.1950   23.8250 C   0  0  0  0  0  3  0  0  0  0  0  0
  -17.3660  -30.6660   23.9030 C   0  0  0  0  0  3  0  0  0  0  0  0
  -16.3050  -29.8530   23.4670 C   0  0  0  0  0  3  0  0  0  0  0  0
  -16.5720  -28.5760   22.9440 C   0  0  0  0  0  3  0  0  0  0  0  0
  -25.7900  -32.5680   23.9150 C   0  0  0  0  0  3  0  0  0  0  0  0
  -25.5220  -33.9810   24.2120 N   0  0  0  0  0  0  0  0  0  0  0  0
  -25.8720  -35.0040   23.4230 C   0  0  0  0  0  0  0  0  0  0  0  0
  -26.5300  -34.8570   22.3880 O   0  0  0  0  0  0  0  0  0  0  0  0
  -24.9400  -34.1710   25.0160 H   0  0  0  0  0  0  0  0  0  0  0  0
  -24.1910  -36.8340   23.0360 C   0  0  0  0  0  1  0  0  0  0  0  0
  -25.4260  -36.4160   23.8500 C   0  0  0  0  0  3  0  0  0  0  0  0
  -27.5850  -37.2690   24.6520 C   0  0  0  0  0  1  0  0  0  0  0  0
  -26.4860  -37.4370   23.7040 N   0  0  0  0  0  0  0  0  0  0  0  0
  -26.1050  -38.3720   23.8210 H   0  0  0  0  0  0  0  0  0  0  0  0
  -26.2800  -31.8070   25.2070 C   0  0  1  0  0  0  0  0  0  0  0  0
  -25.1760  -31.6180   26.2730 C   0  0  0  0  0  1  0  0  0  0  0  0
  -26.8280  -30.4070   24.8410 C   0  0  0  0  0  1  0  0  0  0  0  0
  -27.4480  -32.5810   25.8590 C   0  0  0  0  0  1  0  0  0  0  0  0
  -29.0470  -20.7440   20.7650 O   0  0  0  0  0  0  0  0  0  0  0  0
  -29.9180  -19.6690   21.1830 C   0  0  0  0  0  2  0  0  0  0  0  0
  -29.4280  -18.3420   20.5330 C   0  0  0  0  0  3  0  0  0  0  0  0
  -30.1870  -17.0080   20.9080 C   0  0  0  0  0  3  0  0  0  0  0  0
  -30.5600  -14.6340   20.1710 C   0  0  0  0  0  0  0  0  0  0  0  0
  -30.2690  -12.4060   19.1510 C   0  0  0  0  0  2  0  0  0  0  0  0
  -29.2860  -12.4870   17.9630 C   0  0  0  0  0  2  0  0  0  0  0  0
  -27.8200  -12.4010   18.4400 C   0  0  0  0  0  2  0  0  0  0  0  0
  -27.5030  -13.2700   19.6910 C   0  0  0  0  0  3  0  0  0  0  0  0
  -28.6040  -13.1520   20.7660 C   0  0  0  0  0  2  0  0  0  0  0  0
  -29.8920  -13.4440   20.1230 N   0  0  0  0  0  0  0  0  0  0  0  0
  -31.7690  -14.7180   19.9410 O   0  0  0  0  0  0  0  0  0  0  0  0
  -29.1800  -16.1000   18.8550 C   0  0  0  0  0  1  0  0  0  0  0  0
  -29.7920  -15.7730   20.1570 N   0  0  0  0  0  0  0  0  0  0  0  0
  -25.1330  -13.8760   20.4760 C   0  0  0  0  0  0  0  0  0  0  0  0
  -24.0810  -13.1010   20.8770 C   0  0  0  0  0  0  0  0  0  0  0  0
  -24.5500  -11.7520   20.8480 C   0  0  0  0  0  0  0  0  0  0  0  0
  -26.1730  -12.9940   20.2250 N   0  0  0  0  0  0  0  0  0  0  0  0
  -25.8310  -11.7150   20.5130 N   0  0  0  0  0  0  0  0  0  0  0  0
  -23.8390  -10.4870   21.0650 C   0  0  0  0  0  0  0  0  0  0  0  0
  -24.2920   -9.5420   22.0100 C   0  0  0  0  0  3  0  0  0  0  0  0
  -23.5820   -8.3400   22.2130 C   0  0  0  0  0  3  0  0  0  0  0  0
  -22.4070   -8.0770   21.4710 C   0  0  0  0  0  0  0  0  0  0  0  0
  -21.9770   -9.0110   20.5120 C   0  0  0  0  0  3  0  0  0  0  0  0
  -22.6870  -10.2040   20.3070 C   0  0  0  0  0  3  0  0  0  0  0  0
  -21.6670   -6.9250   21.5830 O   0  0  0  0  0  0  0  0  0  0  0  0
  -21.6220   -6.2100   22.7530 C   0  0  0  0  0  0  0  0  0  0  0  0
  -21.1480   -6.7780   23.9570 C   0  0  0  0  0  3  0  0  0  0  0  0
  -21.0540   -5.9880   25.1190 C   0  0  0  0  0  3  0  0  0  0  0  0
  -21.4230   -4.6300   25.0810 C   0  0  0  0  0  0  0  0  0  0  0  0
  -21.8920   -4.0610   23.8830 C   0  0  0  0  0  3  0  0  0  0  0  0
  -21.9890   -4.8490   22.7220 C   0  0  0  0  0  0  0  0  0  0  0  0
  -22.4200   -4.2910   21.5650 F   0  0  0  0  0  0  0  0  0  0  0  0
  -21.3260   -3.8680   26.1950 F   0  0  0  0  0  0  0  0  0  0  0  0
  -22.6860  -13.5710   21.1760 C   0  0  0  0  0  0  0  0  0  0  0  0
  -21.9840  -12.8770   22.0650 N   0  0  0  0  0  0  0  0  0  0  0  0
  -22.2280  -14.5890   20.6590 O   0  0  0  0  0  0  0  0  0  0  0  0
  -22.3680  -12.0520   22.5050 H   0  0  0  0  0  0  0  0  0  0  0  0
  -21.0490  -13.1720   22.3100 H   0  0  0  0  0  0  0  0  0  0  0  0
  -25.2870  -15.2480   20.2860 N   0  0  0  0  0  0  0  0  0  0  0  0
  -24.5240  -15.9010   20.4270 H   0  0  0  0  0  0  0  0  0  0  0  0
  -26.1380  -15.6930   19.9720 H   0  0  0  0  0  0  0  0  0  0  0  0
  1  6  1  0
  1  4  1  0
  2  8  1  0
  2  7  1  0
  2  5  1  0
  3 50  1  0
  3  6  2  0
  5  1  2  0
  7  3  2  0
  8  9  1  0
 10 21  2  0
 11  9  1  0
 11 16  1  0
 12 20  1  0
 12 22  1  0
 13 19  1  0
 13 15  1  0
 14 20  1  0
 15 14  1  0
 16 15  2  0
 17 18  1  0
 17 11  2  0
 18 13  2  0
 19 12  1  0
 20 10  1  0
 22 24  2  0
 23 22  1  0
 25 23  1  0
 26 35  2  0
 26 31  1  0
 27 23  1  0
 27 31  1  0
 28 27  1  0
 29 30  1  0
 29 28  1  0
 30 26  1  0
 31 32  2  0
 32 33  1  0
 34 33  2  0
 35 34  1  0
 36 10  1  0
 36 37  1  0
 36 46  1  0
 37 40  1  0
 38 42  1  0
 38 37  1  0
 39 38  2  0
 42 41  1  0
 44 45  1  0
 44 42  1  0
 44 43  1  0
 46 49  1  1
 46 47  1  0
 48 46  1  0
 50 51  1  0
 52 53  2  0
 52 51  1  0
 55 60  1  0
 56 57  1  0
 56 55  1  0
 58 57  1  0
 58 67  1  0
 58 59  1  0
 60 54  1  0
 60 59  1  0
 61 54  2  0
 62 63  1  0
 63 54  1  0
 63 53  1  0
 64 65  2  0
 65 84  1  0
 66 65  1  0
 66 69  1  0
 67 64  1  0
 67 68  1  0
 68 66  2  0
 69 70  1  0
 70 71  2  0
 72 75  1  0
 72 71  1  0
 73 72  2  0
 74 73  1  0
 74 69  2  0
 75 76  1  0
 76 77  1  0
 77 78  2  0
 79 78  1  0
 79 83  1  0
 80 79  2  0
 81 76  2  0
 81 80  1  0
 82 81  1  0
 84 85  1  0
 85 88  1  0
 85 87  1  0
 86 84  2  0
 89 90  1  0
 89 64  1  0
 91 89  1  0
M  ISO  4   8 101   9 101  54 100  63 100
M  END
>  <TORSDO>  (94) 
F 21

>  <SCORE>  (94) 
-12.317

>  <name>  (94) 
97

>  <ligand_id>  (94) 
97

>  <original_smiles>  (94) 
[H]c1c([H])c([H])c2c(c1[H])C([H])([H])C([H])([H])C([H])([H])C2([H])N([H])C(=O)C1([H])N(C(=O)C([H])(N([H])C(=O)C([H])(N([H])C([H])([H])[H])C([H])([H])[H])C(C([H])([H])[H])(C([H])([H])[H])C([H])([H])[H])C([H])([H])c2c([H])c(OC([H])([H])c3nc(OC([H])([H])C([H])([H])C([H])([H])N(C(=O)N4C([H])([H])C([H])([H])C([H])([H])C([H])(n5nc(-c6c([H])c([H])c(Oc7c([H])c([H])c(F)c([H])c7F)c([H])c6[H])c(C(=O)N([H])[H])c5N([H])[H])C4([H])[H])C([H])([H])[H])nc(C([H])([H])[H])n3)c([H])c([H])c2C1([H])[H]

>  <smiles>  (94) 
[H]c1c([H])c([H])c2c(c1[H])C([H])([H])C([H])([H])C([H])([H])C2([H])N([H])C(=O)C1([H])N(C(=O)C([H])(N([H])C(=O)C([H])(N([H])C([H])([H])[H])C([H])([H])[H])C(C([H])([H])[H])(C([H])([H])[H])C([H])([H])[H])C([H])([H])c2c([H])c(OC([H])([H])c3nc(OC([H])([H])C([H])([H])C([H])([H])N(C(=O)N4C([H])([H])C([H])([H])C([H])([H])C([H])(n5nc(-c6c([H])c([H])c(Oc7c([H])c([H])c(F)c([H])c7F)c([H])c6[H])c(C(=O)N([H])[H])c5N([H])[H])C4([H])[H])C([H])([H])[H])nc(C([H])([H])[H])n3)c([H])c([H])c2C1([H])[H]

$$$$
98:0:0
     RDKit          3D

 88 96  0  0  1  0  0  0  0  0999 V2000
  -29.5220  -21.2530   21.0140 C   0  0  0  0  0  3  0  0  0  0  0  0
  -29.0540  -20.4160   19.0920 C   0  0  0  0  0  3  0  0  0  0  0  0
  -29.1880  -22.3360   20.1810 C   0  0  0  0  0  0  0  0  0  0  0  0
  -28.8980  -21.7460   18.9420 N   0  0  0  0  0  0  0  0  0  0  0  0
  -29.4650  -20.0090   20.3070 N   0  0  0  0  0  0  0  0  0  0  0  0
  -29.3000  -23.9140   20.3830 C   0  0  0  0  0  3  0  0  0  0  0  0
  -28.0580  -24.9300   20.2240 C   0  0  0  0  0  3  0  0  0  0  0  0
  -28.2950  -26.4180   20.2550 O   0  0  0  0  0  0  0  0  0  0  0  0
  -24.5890  -31.9050   23.2170 C   0  0  0  0  0  0  0  0  0  0  0  0
  -27.1910  -27.2960   20.1980 C   0  0  0  0  0  0  0  0  0  0  0  0
  -23.3820  -30.4870   21.5980 C   0  0  0  0  0  3  0  0  0  0  0  0
  -24.8320  -28.9330   20.1810 C   0  0  0  0  0  0  0  0  0  0  0  0
  -25.9230  -30.8070   21.4000 C   0  0  0  0  0  2  0  0  0  0  0  0
  -26.0050  -29.4210   20.7660 C   0  0  0  0  0  0  0  0  0  0  0  0
  -27.1910  -28.6170   20.7580 C   0  0  0  0  0  3  0  0  0  0  0  0
  -25.9900  -26.8740   19.5830 C   0  0  0  0  0  3  0  0  0  0  0  0
  -24.8290  -27.6670   19.5770 C   0  0  0  0  0  3  0  0  0  0  0  0
  -23.5950  -29.8060   20.2230 C   0  0  0  0  0  2  0  0  0  0  0  0
  -24.6500  -31.0850   22.1280 N   0  0  0  0  0  0  0  0  0  0  0  0
  -23.5080  -32.1880   23.7540 O   0  0  0  0  0  0  0  0  0  0  0  0
  -22.7300  -29.4720   22.5690 C   0  0  0  0  0  0  0  0  0  0  0  0
  -21.4030  -29.2870   22.4500 N   0  0  0  0  0  0  0  0  0  0  0  0
  -23.4130  -28.8550   23.3910 O   0  0  0  0  0  0  0  0  0  0  0  0
  -20.9040  -29.8470   21.7730 H   0  0  0  0  0  0  0  0  0  0  0  0
  -18.0340  -28.0810   22.9870 C   0  0  0  0  0  0  0  0  0  0  0  0
  -20.5930  -28.3510   23.2340 C   0  0  0  0  0  3  0  0  0  0  0  0
  -20.6960  -26.9130   22.6760 C   0  0  0  0  0  2  0  0  0  0  0  0
  -19.5880  -26.5790   21.6700 C   0  0  0  0  0  2  0  0  0  0  0  0
  -18.2090  -26.7250   22.3210 C   0  0  0  0  0  2  0  0  0  0  0  0
  -19.1530  -28.8510   23.4000 C   0  0  0  0  0  0  0  0  0  0  0  0
  -18.9310  -30.1200   23.9790 C   0  0  0  0  0  3  0  0  0  0  0  0
  -17.6250  -30.6160   24.1500 C   0  0  0  0  0  3  0  0  0  0  0  0
  -16.5210  -29.8420   23.7540 C   0  0  0  0  0  3  0  0  0  0  0  0
  -16.7270  -28.5770   23.1760 C   0  0  0  0  0  3  0  0  0  0  0  0
  -25.8730  -32.5490   23.8270 C   0  0  0  0  0  3  0  0  0  0  0  0
  -26.4150  -31.7830   25.0960 C   0  0  1  0  0  0  0  0  0  0  0  0
  -25.3350  -31.5340   26.1740 C   0  0  0  0  0  1  0  0  0  0  0  0
  -27.0060  -30.4090   24.7020 C   0  0  0  0  0  1  0  0  0  0  0  0
  -27.5680  -32.5880   25.7430 C   0  0  0  0  0  1  0  0  0  0  0  0
  -25.5570  -33.9450   24.1590 N   0  0  0  0  0  0  0  0  0  0  0  0
  -25.8840  -35.0020   23.4020 C   0  0  0  0  0  0  0  0  0  0  0  0
  -26.5530  -34.9030   22.3690 O   0  0  0  0  0  0  0  0  0  0  0  0
  -24.9660  -34.0970   24.9630 H   0  0  0  0  0  0  0  0  0  0  0  0
  -24.1600  -36.7980   23.0320 C   0  0  0  0  0  1  0  0  0  0  0  0
  -25.3900  -36.3900   23.8580 C   0  0  0  0  0  3  0  0  0  0  0  0
  -27.5130  -37.2640   24.7260 C   0  0  0  0  0  1  0  0  0  0  0  0
  -26.4260  -37.4430   23.7690 N   0  0  0  0  0  0  0  0  0  0  0  0
  -26.0170  -38.3590   23.9260 H   0  0  0  0  0  0  0  0  0  0  0  0
  -29.6700  -18.5980   20.8680 C   0  0  0  0  0  3  0  0  0  0  0  0
  -30.1750  -17.3200   19.9880 C   0  0  0  0  0  3  0  0  0  0  0  0
  -30.7460  -14.7600   20.0690 C   0  0  0  0  0  0  0  0  0  0  0  0
  -30.4220  -12.5450   18.9420 C   0  0  0  0  0  2  0  0  0  0  0  0
  -29.4210  -12.7070   17.7730 C   0  0  0  0  0  2  0  0  0  0  0  0
  -27.9700  -12.5310   18.2640 C   0  0  0  0  0  2  0  0  0  0  0  0
  -27.6850  -13.3390   19.5570 C   0  0  0  0  0  3  0  0  0  0  0  0
  -28.8030  -13.1530   20.6060 C   0  0  0  0  0  2  0  0  0  0  0  0
  -30.0750  -13.5520   19.9760 N   0  0  0  0  0  0  0  0  0  0  0  0
  -31.8420  -14.8760   19.5080 O   0  0  0  0  0  0  0  0  0  0  0  0
  -29.8190  -15.8910   22.0180 C   0  0  0  0  0  1  0  0  0  0  0  0
  -30.1040  -15.8920   20.5800 N   0  0  0  0  0  0  0  0  0  0  0  0
  -25.3370  -13.9110   20.4280 C   0  0  0  0  0  0  0  0  0  0  0  0
  -24.2900  -13.1310   20.8360 C   0  0  0  0  0  0  0  0  0  0  0  0
  -24.7460  -11.7800   20.7440 C   0  0  0  0  0  0  0  0  0  0  0  0
  -26.3660  -13.0380   20.1080 N   0  0  0  0  0  0  0  0  0  0  0  0
  -26.0180  -11.7490   20.3580 N   0  0  0  0  0  0  0  0  0  0  0  0
  -24.0270  -10.5160   20.9410 C   0  0  0  0  0  0  0  0  0  0  0  0
  -24.4740   -9.5520   21.8690 C   0  0  0  0  0  3  0  0  0  0  0  0
  -23.7580   -8.3490   22.0530 C   0  0  0  0  0  3  0  0  0  0  0  0
  -22.5780   -8.1060   21.3110 C   0  0  0  0  0  0  0  0  0  0  0  0
  -22.1510   -9.0600   20.3700 C   0  0  0  0  0  3  0  0  0  0  0  0
  -22.8690  -10.2530   20.1850 C   0  0  0  0  0  3  0  0  0  0  0  0
  -21.8310   -6.9550   21.4040 O   0  0  0  0  0  0  0  0  0  0  0  0
  -21.7480   -6.2480   22.5750 C   0  0  0  0  0  0  0  0  0  0  0  0
  -21.2840   -6.8370   23.7730 C   0  0  0  0  0  3  0  0  0  0  0  0
  -21.1510   -6.0530   24.9360 C   0  0  0  0  0  3  0  0  0  0  0  0
  -21.4670   -4.6810   24.9030 C   0  0  0  0  0  0  0  0  0  0  0  0
  -21.9170   -4.0930   23.7090 C   0  0  0  0  0  3  0  0  0  0  0  0
  -22.0570   -4.8740   22.5490 C   0  0  0  0  0  0  0  0  0  0  0  0
  -22.4760   -4.3000   21.3950 F   0  0  0  0  0  0  0  0  0  0  0  0
  -21.3320   -3.9240   26.0170 F   0  0  0  0  0  0  0  0  0  0  0  0
  -22.9120  -13.6070   21.2020 C   0  0  0  0  0  0  0  0  0  0  0  0
  -22.2350  -12.8910   22.0900 N   0  0  0  0  0  0  0  0  0  0  0  0
  -22.4510  -14.6490   20.7360 O   0  0  0  0  0  0  0  0  0  0  0  0
  -22.6310  -12.0550   22.4950 H   0  0  0  0  0  0  0  0  0  0  0  0
  -21.3080  -13.1840   22.3680 H   0  0  0  0  0  0  0  0  0  0  0  0
  -25.4960  -15.2840   20.2810 N   0  0  0  0  0  0  0  0  0  0  0  0
  -24.7380  -15.9310   20.4570 H   0  0  0  0  0  0  0  0  0  0  0  0
  -26.3330  -15.7380   19.9420 H   0  0  0  0  0  0  0  0  0  0  0  0
  2  5  1  0
  3  6  1  0
  3  1  2  0
  4  2  2  0
  4  3  1  0
  5 49  1  0
  5  1  1  0
  7  8  1  0
  7  6  2  0
  9 20  2  0
 10  8  1  0
 10 15  1  0
 11 19  1  0
 11 21  1  0
 12 18  1  0
 12 14  1  0
 13 19  1  0
 14 13  1  0
 15 14  2  0
 16 10  2  0
 17 16  1  0
 17 12  2  0
 18 11  1  0
 19  9  1  0
 21 23  2  0
 22 21  1  0
 24 22  1  0
 25 34  2  0
 25 30  1  0
 26 22  1  0
 26 30  1  0
 27 26  1  0
 28 29  1  0
 28 27  1  0
 29 25  1  0
 30 31  2  0
 31 32  1  0
 33 32  2  0
 34 33  1  0
 35  9  1  0
 35 40  1  0
 35 36  1  0
 36 39  1  1
 36 37  1  0
 38 36  1  0
 40 43  1  0
 41 45  1  0
 41 40  1  0
 42 41  2  0
 45 44  1  0
 47 45  1  0
 47 48  1  0
 47 46  1  0
 50 60  1  0
 50 49  2  0
 51 60  1  0
 52 57  1  0
 53 54  1  0
 53 52  1  0
 55 54  1  0
 55 64  1  0
 55 56  1  0
 57 51  1  0
 57 56  1  0
 58 51  2  0
 60 59  1  0
 61 62  2  0
 62 81  1  0
 63 62  1  0
 63 66  1  0
 64 65  1  0
 64 61  1  0
 65 63  2  0
 66 67  1  0
 67 68  2  0
 69 72  1  0
 69 68  1  0
 70 69  2  0
 71 70  1  0
 71 66  2  0
 72 73  1  0
 73 74  1  0
 74 75  2  0
 76 75  1  0
 76 80  1  0
 77 76  2  0
 78 73  2  0
 78 77  1  0
 79 78  1  0
 81 82  1  0
 82 85  1  0
 82 84  1  0
 83 81  2  0
 86 61  1  0
 86 87  1  0
 88 86  1  0
M  ISO  4   7 101   8 101  51 100  60 100
M  END
>  <TORSDO>  (95) 
F 20

>  <SCORE>  (95) 
-13.154

>  <name>  (95) 
98

>  <ligand_id>  (95) 
98

>  <original_smiles>  (95) 
[H]c1c([H])c([H])c2c(c1[H])C([H])([H])C([H])([H])C([H])([H])C2([H])N([H])C(=O)C1([H])N(C(=O)C([H])(N([H])C(=O)C([H])(N([H])C([H])([H])[H])C([H])([H])[H])C(C([H])([H])[H])(C([H])([H])[H])C([H])([H])[H])C([H])([H])c2c([H])c(OC([H])([H])C([H])([H])c3nc([H])n(C([H])([H])C([H])([H])N(C(=O)N4C([H])([H])C([H])([H])C([H])([H])C([H])(n5nc(-c6c([H])c([H])c(Oc7c([H])c([H])c(F)c([H])c7F)c([H])c6[H])c(C(=O)N([H])[H])c5N([H])[H])C4([H])[H])C([H])([H])[H])c3[H])c([H])c([H])c2C1([H])[H]

>  <smiles>  (95) 
[H]c1c([H])c([H])c2c(c1[H])C([H])([H])C([H])([H])C([H])([H])C2([H])N([H])C(=O)C1([H])N(C(=O)C([H])(N([H])C(=O)C([H])(N([H])C([H])([H])[H])C([H])([H])[H])C(C([H])([H])[H])(C([H])([H])[H])C([H])([H])[H])C([H])([H])c2c([H])c(OC([H])([H])C([H])([H])c3nc([H])n(C([H])([H])C([H])([H])N(C(=O)N4C([H])([H])C([H])([H])C([H])([H])C([H])(n5nc(-c6c([H])c([H])c(Oc7c([H])c([H])c(F)c([H])c7F)c([H])c6[H])c(C(=O)N([H])[H])c5N([H])[H])C4([H])[H])C([H])([H])[H])c3[H])c([H])c([H])c2C1([H])[H]

$$$$
